=
 OpenBabel11052419183D

 32 35  0  0  1  0  0  0  0  0999 V2000
  188.5080  174.8120  142.0880 C   0  0  0  0  0  3  0  0  0  0  0  0
  190.0160  174.7190  144.7440 C   0  0  0  0  0  0  0  0  0  0  0  0
  188.0860  173.5700  141.8600 C   0  0  0  0  0  3  0  0  0  0  0  0
  189.5390  173.5120  144.2310 O   0  0  0  0  0  0  0  0  0  0  0  0
  191.3310  174.8690  144.9300 C   0  0  0  0  0  0  0  0  0  0  0  0
  189.0500  175.8570  145.0230 C   0  0  2  0  0  3  0  0  0  0  0  0
  190.8230  176.4180  146.6480 O   0  0  0  0  0  0  0  0  0  0  0  0
  190.3770  172.7000  143.4640 C   0  0  0  0  0  0  0  0  0  0  0  0
  191.7890  176.0880  145.6760 C   0  0  0  0  0  2  0  0  0  0  0  0
  191.6660  172.8170  143.5890 N   0  0  0  0  0  0  0  0  0  0  0  0
  189.7730  171.8010  142.4220 C   0  0  0  0  0  2  0  0  0  0  0  0
  188.6760  176.5390  143.7750 N   0  0  0  0  0  2  0  0  0  0  0  0
  187.7430  175.7420  142.9740 C   0  0  1  0  0  3  0  0  0  0  0  0
  189.6990  176.9130  145.9480 C   0  0  2  0  0  3  0  0  0  0  0  0
  192.2570  173.7170  144.5930 C   0  0  1  0  0  3  0  0  0  0  0  0
  189.0620  172.5810  141.2960 C   0  0  0  0  0  2  0  0  0  0  0  0
  184.3670  179.0070  139.8110 F   0  0  0  0  0  0  0  0  0  0  0  0
  186.2670  177.5870  140.0260 C   0  0  0  0  0  3  0  0  0  0  0  0
  186.8130  176.6210  142.1870 C   0  0  0  0  0  0  0  0  0  0  0  0
  184.8780  178.0760  141.9440 C   0  0  0  0  0  3  0  0  0  0  0  0
  187.0870  176.7870  140.8250 C   0  0  0  0  0  3  0  0  0  0  0  0
  185.6940  177.2770  142.7550 C   0  0  0  0  0  0  0  0  0  0  0  0
  185.1620  178.2310  140.5850 C   0  0  0  0  0  0  0  0  0  0  0  0
  185.3500  177.1550  144.2090 C   0  0  0  0  0  2  0  0  0  0  0  0
  184.5040  178.3310  144.6750 C   0  0  0  0  0  2  0  0  0  0  0  0
  185.3220  179.4070  145.0150 O   0  0  0  0  0  1  0  0  0  0  0  0
  193.6280  174.1920  144.1230 C   0  0  0  0  0  2  0  0  0  0  0  0
  194.5990  173.9300  145.0920 O   0  0  0  0  0  1  0  0  0  0  0  0
  188.6640  177.4480  146.9250 C   0  0  0  0  0  2  0  0  0  0  0  0
  187.4960  176.4830  147.0770 C   0  0  0  0  0  2  0  0  0  0  0  0
  186.6070  178.6160  148.0310 C   0  0  0  0  0  1  0  0  0  0  0  0
  186.2890  177.1710  147.6980 C   0  0  0  0  0  2  0  0  0  0  0  0
  1 13  1  0  0  0  0
  2  5  2  0  0  0  0
  2  6  1  0  0  0  0
  3  1  2  0  0  0  0
  4  2  1  0  0  0  0
  5  9  1  0  0  0  0
  6 12  1  6  0  0  0
  6 14  1  0  0  0  0
  8 10  2  0  0  0  0
  8  4  1  0  0  0  0
  9  7  1  0  0  0  0
 10 15  1  0  0  0  0
 11  8  1  0  0  0  0
 13 19  1  6  0  0  0
 13 12  1  0  0  0  0
 14  7  1  0  0  0  0
 14 29  1  1  0  0  0
 15 27  1  6  0  0  0
 15  5  1  0  0  0  0
 16  3  1  0  0  0  0
 16 11  1  0  0  0  0
 17 23  1  0  0  0  0
 18 23  2  0  0  0  0
 18 21  1  0  0  0  0
 19 22  1  0  0  0  0
 20 22  2  0  0  0  0
 21 19  2  0  0  0  0
 22 24  1  0  0  0  0
 23 20  1  0  0  0  0
 24 25  1  0  0  0  0
 25 26  1  0  0  0  0
 27 28  1  0  0  0  0
 29 30  1  0  0  0  0
 30 32  1  0  0  0  0
 32 31  1  0  0  0  0
M  END
>  <MODEL>
1

>  <REMARK>
 VINA RESULT:      -7.3      0.000      0.000
  Name = 
  7 active torsions:
  status: ('A' for Active; 'I' for Inactive)
    1  A    between atoms: C_3  and  C_23
    2  A    between atoms: C_9  and  C_31
    3  A    between atoms: C_9  and  C_32
    4  A    between atoms: C_13  and  CA_29
    5  A    between atoms: C_16  and  C_27
    6  A    between atoms: C_22  and  C_23
    7  A    between atoms: C_28  and  C_32
                            x       y       z     vdW  Elec       q    Type
                         _______ _______ _______ _____ _____    ______ ____

>  <TORSDO>
F 7

$$$$
=
 OpenBabel11052419183D

 32 35  0  0  1  0  0  0  0  0999 V2000
  188.1610  175.5400  142.6390 C   0  0  0  0  0  3  0  0  0  0  0  0
  188.0720  177.6170  144.8790 C   0  0  0  0  0  0  0  0  0  0  0  0
  188.1590  176.2270  141.5000 C   0  0  0  0  0  3  0  0  0  0  0  0
  187.9930  178.0820  143.5660 O   0  0  0  0  0  0  0  0  0  0  0  0
  187.0560  177.8590  145.7150 C   0  0  0  0  0  0  0  0  0  0  0  0
  189.2710  176.7970  145.3210 C   0  0  2  0  0  3  0  0  0  0  0  0
  188.6130  177.7630  147.4960 O   0  0  0  0  0  0  0  0  0  0  0  0
  186.7460  178.3200  142.9840 C   0  0  0  0  0  0  0  0  0  0  0  0
  187.2620  177.5350  147.1650 C   0  0  0  0  0  2  0  0  0  0  0  0
  185.7170  178.5420  143.7480 N   0  0  0  0  0  0  0  0  0  0  0  0
  186.5960  178.1890  141.4950 C   0  0  0  0  0  2  0  0  0  0  0  0
  189.1580  175.4110  144.8410 N   0  0  0  0  0  2  0  0  0  0  0  0
  189.4250  175.3060  143.4040 C   0  0  1  0  0  3  0  0  0  0  0  0
  189.3610  176.7430  146.8640 C   0  0  2  0  0  3  0  0  0  0  0  0
  185.8620  178.6450  145.2100 C   0  0  1  0  0  3  0  0  0  0  0  0
  186.8500  176.7520  140.9900 C   0  0  0  0  0  2  0  0  0  0  0  0
  191.5430  170.2150  142.1210 F   0  0  0  0  0  0  0  0  0  0  0  0
  189.6940  171.6090  142.6760 C   0  0  0  0  0  3  0  0  0  0  0  0
  190.0450  173.9820  143.0620 C   0  0  0  0  0  0  0  0  0  0  0  0
  191.9190  172.5380  142.4940 C   0  0  0  0  0  3  0  0  0  0  0  0
  189.1930  172.8730  142.9910 C   0  0  0  0  0  3  0  0  0  0  0  0
  191.4280  173.8100  142.8110 C   0  0  0  0  0  0  0  0  0  0  0  0
  191.0570  171.4410  142.4270 C   0  0  0  0  0  0  0  0  0  0  0  0
  192.3990  174.9500  142.8830 C   0  0  0  0  0  2  0  0  0  0  0  0
  193.8210  174.4500  143.0950 C   0  0  0  0  0  2  0  0  0  0  0  0
  194.6990  175.5280  143.1940 O   0  0  0  0  0  1  0  0  0  0  0  0
  184.5630  178.2270  145.8910 C   0  0  0  0  0  2  0  0  0  0  0  0
  183.4910  178.9860  145.4150 O   0  0  0  0  0  1  0  0  0  0  0  0
  190.8160  176.8120  147.2980 C   0  0  0  0  0  2  0  0  0  0  0  0
  191.3580  175.4310  147.6400 C   0  0  0  0  0  2  0  0  0  0  0  0
  193.5030  176.0550  146.5180 C   0  0  0  0  0  1  0  0  0  0  0  0
  192.4250  174.9950  146.6480 C   0  0  0  0  0  2  0  0  0  0  0  0
  1 13  1  0  0  0  0
  2  6  1  0  0  0  0
  2  5  2  0  0  0  0
  3  1  2  0  0  0  0
  4  2  1  0  0  0  0
  5  9  1  0  0  0  0
  6 12  1  1  0  0  0
  6 14  1  0  0  0  0
  8  4  1  0  0  0  0
  8 10  2  0  0  0  0
  9  7  1  0  0  0  0
 10 15  1  0  0  0  0
 11  8  1  0  0  0  0
 13 19  1  1  0  0  0
 13 12  1  0  0  0  0
 14 29  1  6  0  0  0
 14  7  1  0  0  0  0
 15  5  1  0  0  0  0
 15 27  1  1  0  0  0
 16 11  1  0  0  0  0
 16  3  1  0  0  0  0
 17 23  1  0  0  0  0
 18 21  1  0  0  0  0
 20 22  2  0  0  0  0
 21 19  2  0  0  0  0
 22 24  1  0  0  0  0
 22 19  1  0  0  0  0
 23 20  1  0  0  0  0
 23 18  2  0  0  0  0
 24 25  1  0  0  0  0
 25 26  1  0  0  0  0
 28 27  1  0  0  0  0
 29 30  1  0  0  0  0
 31 32  1  0  0  0  0
 32 30  1  0  0  0  0
M  END
>  <MODEL>
2

>  <REMARK>
 VINA RESULT:      -7.1      2.738      6.719
  Name = 
  7 active torsions:
  status: ('A' for Active; 'I' for Inactive)
    1  A    between atoms: C_3  and  C_23
    2  A    between atoms: C_9  and  C_31
    3  A    between atoms: C_9  and  C_32
    4  A    between atoms: C_13  and  CA_29
    5  A    between atoms: C_16  and  C_27
    6  A    between atoms: C_22  and  C_23
    7  A    between atoms: C_28  and  C_32
                            x       y       z     vdW  Elec       q    Type
                         _______ _______ _______ _____ _____    ______ ____

>  <TORSDO>
F 7

$$$$
=
 OpenBabel11052419183D

 32 35  0  0  1  0  0  0  0  0999 V2000
  189.0860  176.2530  145.2620 C   0  0  0  0  0  3  0  0  0  0  0  0
  190.4090  174.7030  142.9840 C   0  0  0  0  0  0  0  0  0  0  0  0
  190.0130  177.0850  145.7280 C   0  0  0  0  0  3  0  0  0  0  0  0
  191.2050  175.5940  143.7060 O   0  0  0  0  0  0  0  0  0  0  0  0
  190.7340  173.4060  142.9740 C   0  0  0  0  0  0  0  0  0  0  0  0
  189.1620  175.2040  142.2790 C   0  0  2  0  0  3  0  0  0  0  0  0
  189.6750  173.2470  140.8620 O   0  0  0  0  0  0  0  0  0  0  0  0
  191.9760  175.1320  144.7750 C   0  0  0  0  0  0  0  0  0  0  0  0
  189.9890  172.5150  142.0240 C   0  0  0  0  0  2  0  0  0  0  0  0
  192.3060  173.8750  144.8270 N   0  0  0  0  0  0  0  0  0  0  0  0
  192.3000  176.0700  145.9030 C   0  0  0  0  0  2  0  0  0  0  0  0
  188.0650  175.4000  143.2390 N   0  0  0  0  0  2  0  0  0  0  0  0
  188.2650  176.5980  144.0600 C   0  0  1  0  0  3  0  0  0  0  0  0
  188.6750  174.1770  141.2290 C   0  0  2  0  0  3  0  0  0  0  0  0
  191.9660  172.9510  143.7320 C   0  0  1  0  0  3  0  0  0  0  0  0
  191.0460  176.5420  146.6700 C   0  0  0  0  0  2  0  0  0  0  0  0
  183.3260  178.8190  145.7120 F   0  0  0  0  0  0  0  0  0  0  0  0
  185.1780  177.3730  146.0970 C   0  0  0  0  0  3  0  0  0  0  0  0
  186.9520  177.2190  144.4430 C   0  0  0  0  0  0  0  0  0  0  0  0
  185.0490  178.6890  144.0720 C   0  0  0  0  0  3  0  0  0  0  0  0
  186.3950  176.8370  145.6700 C   0  0  0  0  0  3  0  0  0  0  0  0
  186.2680  178.1570  143.6330 C   0  0  0  0  0  0  0  0  0  0  0  0
  184.5060  178.2990  145.2980 C   0  0  0  0  0  0  0  0  0  0  0  0
  186.7990  178.6000  142.3030 C   0  0  0  0  0  2  0  0  0  0  0  0
  186.1990  177.7800  141.1690 C   0  0  0  0  0  2  0  0  0  0  0  0
  185.1550  178.4830  140.5690 O   0  0  0  0  0  1  0  0  0  0  0  0
  191.8230  171.5340  144.2740 C   0  0  0  0  0  2  0  0  0  0  0  0
  192.6840  170.6610  143.6050 O   0  0  0  0  0  1  0  0  0  0  0  0
  188.1560  174.9040  139.9990 C   0  0  0  0  0  2  0  0  0  0  0  0
  188.1570  173.9960  138.7770 C   0  0  0  0  0  2  0  0  0  0  0  0
  186.9010  175.8570  137.6790 C   0  0  0  0  0  1  0  0  0  0  0  0
  187.9670  174.7930  137.4960 C   0  0  0  0  0  2  0  0  0  0  0  0
  1  3  2  0  0  0  0
  2  4  1  0  0  0  0
  3 16  1  0  0  0  0
  4  8  1  0  0  0  0
  5  2  2  0  0  0  0
  5 15  1  0  0  0  0
  6  2  1  1  0  0  0
  6 12  1  0  0  0  0
  7 14  1  0  0  0  0
  7  9  1  0  0  0  0
  8 10  2  0  0  0  0
  8 11  1  0  0  0  0
  9  5  1  0  0  0  0
 11 16  1  0  0  0  0
 12 13  1  0  0  0  0
 13 19  1  1  0  0  0
 13  1  1  0  0  0  0
 14 29  1  6  0  0  0
 14  6  1  0  0  0  0
 15 27  1  1  0  0  0
 15 10  1  0  0  0  0
 19 21  2  0  0  0  0
 20 23  1  0  0  0  0
 21 18  1  0  0  0  0
 22 20  2  0  0  0  0
 22 19  1  0  0  0  0
 23 17  1  0  0  0  0
 23 18  2  0  0  0  0
 24 22  1  0  0  0  0
 25 24  1  0  0  0  0
 26 25  1  0  0  0  0
 28 27  1  0  0  0  0
 30 29  1  0  0  0  0
 32 31  1  0  0  0  0
 32 30  1  0  0  0  0
M  END
>  <MODEL>
3

>  <REMARK>
 VINA RESULT:      -7.1      2.301      5.120
  Name = 
  7 active torsions:
  status: ('A' for Active; 'I' for Inactive)
    1  A    between atoms: C_3  and  C_23
    2  A    between atoms: C_9  and  C_31
    3  A    between atoms: C_9  and  C_32
    4  A    between atoms: C_13  and  CA_29
    5  A    between atoms: C_16  and  C_27
    6  A    between atoms: C_22  and  C_23
    7  A    between atoms: C_28  and  C_32
                            x       y       z     vdW  Elec       q    Type
                         _______ _______ _______ _____ _____    ______ ____

>  <TORSDO>
F 7

$$$$
=
 OpenBabel11052419183D

 32 35  0  0  1  0  0  0  0  0999 V2000
  188.7380  175.8670  141.8410 C   0  0  0  0  0  3  0  0  0  0  0  0
  191.4640  174.9650  142.8870 C   0  0  0  0  0  0  0  0  0  0  0  0
  188.0790  174.7550  141.5240 C   0  0  0  0  0  3  0  0  0  0  0  0
  190.6010  173.9810  142.4040 O   0  0  0  0  0  0  0  0  0  0  0  0
  192.6510  175.1330  142.2960 C   0  0  0  0  0  0  0  0  0  0  0  0
  191.0230  175.8640  144.0290 C   0  0  2  0  0  3  0  0  0  0  0  0
  193.4680  175.9490  144.3630 O   0  0  0  0  0  0  0  0  0  0  0  0
  190.7100  173.5470  141.0810 C   0  0  0  0  0  0  0  0  0  0  0  0
  193.6340  176.0460  142.9680 C   0  0  0  0  0  2  0  0  0  0  0  0
  191.8350  173.7030  140.4480 N   0  0  0  0  0  0  0  0  0  0  0  0
  189.4870  173.0250  140.3790 C   0  0  0  0  0  2  0  0  0  0  0  0
  190.1080  176.9090  143.5430 N   0  0  0  0  0  2  0  0  0  0  0  0
  188.7760  176.3760  143.2470 C   0  0  1  0  0  3  0  0  0  0  0  0
  192.2370  176.5760  144.6680 C   0  0  2  0  0  3  0  0  0  0  0  0
  193.0250  174.2380  141.1310 C   0  0  1  0  0  3  0  0  0  0  0  0
  188.3870  174.0960  140.2140 C   0  0  0  0  0  2  0  0  0  0  0  0
  184.7500  180.2950  143.9420 F   0  0  0  0  0  0  0  0  0  0  0  0
  186.2090  179.0530  142.5290 C   0  0  0  0  0  3  0  0  0  0  0  0
  187.7110  177.4060  143.4940 C   0  0  0  0  0  0  0  0  0  0  0  0
  186.2120  178.6870  144.9190 C   0  0  0  0  0  3  0  0  0  0  0  0
  187.2020  178.0830  142.3800 C   0  0  0  0  0  3  0  0  0  0  0  0
  187.2090  177.7140  144.7820 C   0  0  0  0  0  0  0  0  0  0  0  0
  185.7130  179.3550  143.7980 C   0  0  0  0  0  0  0  0  0  0  0  0
  187.7180  177.0380  146.0200 C   0  0  0  0  0  2  0  0  0  0  0  0
  187.1240  177.6640  147.2730 C   0  0  0  0  0  2  0  0  0  0  0  0
  186.1820  176.8060  147.8390 O   0  0  0  0  0  1  0  0  0  0  0  0
  193.9280  174.9420  140.1250 C   0  0  0  0  0  2  0  0  0  0  0  0
  193.4420  174.7760  138.8260 O   0  0  0  0  0  1  0  0  0  0  0  0
  192.0500  176.6640  146.1740 C   0  0  0  0  0  2  0  0  0  0  0  0
  191.8330  175.2860  146.7860 C   0  0  0  0  0  2  0  0  0  0  0  0
  189.4750  174.5730  147.2080 C   0  0  0  0  0  1  0  0  0  0  0  0
  190.6800  175.2980  147.7770 C   0  0  0  0  0  2  0  0  0  0  0  0
  1 13  1  0  0  0  0
  3  1  2  0  0  0  0
  4  2  1  0  0  0  0
  5  2  2  0  0  0  0
  5  9  1  0  0  0  0
  6  2  1  6  0  0  0
  6 14  1  0  0  0  0
  7 14  1  0  0  0  0
  8  4  1  0  0  0  0
  9  7  1  0  0  0  0
 10  8  2  0  0  0  0
 10 15  1  0  0  0  0
 11  8  1  0  0  0  0
 12  6  1  0  0  0  0
 13 19  1  6  0  0  0
 13 12  1  0  0  0  0
 14 29  1  1  0  0  0
 15 27  1  6  0  0  0
 15  5  1  0  0  0  0
 16 11  1  0  0  0  0
 16  3  1  0  0  0  0
 18 23  1  0  0  0  0
 19 22  2  0  0  0  0
 21 18  2  0  0  0  0
 21 19  1  0  0  0  0
 22 20  1  0  0  0  0
 22 24  1  0  0  0  0
 23 17  1  0  0  0  0
 23 20  2  0  0  0  0
 24 25  1  0  0  0  0
 25 26  1  0  0  0  0
 28 27  1  0  0  0  0
 29 30  1  0  0  0  0
 30 32  1  0  0  0  0
 31 32  1  0  0  0  0
M  END
>  <MODEL>
4

>  <REMARK>
 VINA RESULT:      -7.0      2.440      3.274
  Name = 
  7 active torsions:
  status: ('A' for Active; 'I' for Inactive)
    1  A    between atoms: C_3  and  C_23
    2  A    between atoms: C_9  and  C_31
    3  A    between atoms: C_9  and  C_32
    4  A    between atoms: C_13  and  CA_29
    5  A    between atoms: C_16  and  C_27
    6  A    between atoms: C_22  and  C_23
    7  A    between atoms: C_28  and  C_32
                            x       y       z     vdW  Elec       q    Type
                         _______ _______ _______ _____ _____    ______ ____

>  <TORSDO>
F 7

$$$$
=
 OpenBabel11052419183D

 32 35  0  0  1  0  0  0  0  0999 V2000
  187.8100  175.8020  141.8620 C   0  0  0  0  0  3  0  0  0  0  0  0
  188.2930  176.9050  144.6710 C   0  0  0  0  0  0  0  0  0  0  0  0
  187.6330  176.8620  141.0760 C   0  0  0  0  0  3  0  0  0  0  0  0
  187.9930  177.8210  143.6620 O   0  0  0  0  0  0  0  0  0  0  0  0
  187.4770  176.8120  145.7260 C   0  0  0  0  0  0  0  0  0  0  0  0
  189.4980  175.9920  144.5300 C   0  0  2  0  0  3  0  0  0  0  0  0
  189.3380  176.0810  146.9930 O   0  0  0  0  0  0  0  0  0  0  0  0
  186.6760  178.2440  143.4740 C   0  0  0  0  0  0  0  0  0  0  0  0
  187.9370  175.9780  146.8840 C   0  0  0  0  0  2  0  0  0  0  0  0
  185.8310  178.1590  144.4590 N   0  0  0  0  0  0  0  0  0  0  0  0
  186.2320  178.6710  142.1030 C   0  0  0  0  0  2  0  0  0  0  0  0
  189.2030  174.8800  143.6140 N   0  0  0  0  0  2  0  0  0  0  0  0
  189.1790  175.3160  142.2150 C   0  0  1  0  0  3  0  0  0  0  0  0
  189.8810  175.3730  145.8950 C   0  0  2  0  0  3  0  0  0  0  0  0
  186.2620  177.7170  145.7960 C   0  0  1  0  0  3  0  0  0  0  0  0
  186.2880  177.5250  141.0700 C   0  0  0  0  0  2  0  0  0  0  0  0
  190.6580  171.1300  138.7000 F   0  0  0  0  0  0  0  0  0  0  0  0
  188.9820  172.4320  139.7810 C   0  0  0  0  0  3  0  0  0  0  0  0
  189.6330  174.2170  141.2960 C   0  0  0  0  0  0  0  0  0  0  0  0
  191.3260  172.8730  140.1800 C   0  0  0  0  0  3  0  0  0  0  0  0
  188.6400  173.4690  140.6520 C   0  0  0  0  0  3  0  0  0  0  0  0
  190.9950  173.9130  141.0570 C   0  0  0  0  0  0  0  0  0  0  0  0
  190.3250  172.1350  139.5450 C   0  0  0  0  0  0  0  0  0  0  0  0
  192.1090  174.6640  141.7230 C   0  0  0  0  0  2  0  0  0  0  0  0
  193.0070  173.7280  142.5170 C   0  0  0  0  0  2  0  0  0  0  0  0
  192.2820  173.1180  143.5400 O   0  0  0  0  0  1  0  0  0  0  0  0
  185.0940  177.0650  146.5280 C   0  0  0  0  0  2  0  0  0  0  0  0
  184.0600  177.9830  146.7230 O   0  0  0  0  0  1  0  0  0  0  0  0
  191.3940  175.2920  146.0180 C   0  0  0  0  0  2  0  0  0  0  0  0
  192.0730  176.4200  145.2540 C   0  0  0  0  0  2  0  0  0  0  0  0
  194.1740  176.7740  146.5610 C   0  0  0  0  0  1  0  0  0  0  0  0
  193.5860  176.2600  145.2610 C   0  0  0  0  0  2  0  0  0  0  0  0
  1 13  1  0  0  0  0
  2  5  2  0  0  0  0
  3  1  2  0  0  0  0
  4  2  1  0  0  0  0
  5 15  1  0  0  0  0
  5  9  1  0  0  0  0
  6 12  1  6  0  0  0
  6  2  1  0  0  0  0
  6 14  1  0  0  0  0
  8  4  1  0  0  0  0
  8 10  2  0  0  0  0
  9  7  1  0  0  0  0
 10 15  1  0  0  0  0
 11  8  1  0  0  0  0
 13 19  1  6  0  0  0
 13 12  1  0  0  0  0
 14 29  1  1  0  0  0
 14  7  1  0  0  0  0
 15 27  1  6  0  0  0
 16  3  1  0  0  0  0
 16 11  1  0  0  0  0
 17 23  1  0  0  0  0
 18 21  1  0  0  0  0
 20 22  2  0  0  0  0
 21 19  2  0  0  0  0
 22 19  1  0  0  0  0
 22 24  1  0  0  0  0
 23 18  2  0  0  0  0
 23 20  1  0  0  0  0
 24 25  1  0  0  0  0
 25 26  1  0  0  0  0
 27 28  1  0  0  0  0
 30 32  1  0  0  0  0
 30 29  1  0  0  0  0
 32 31  1  0  0  0  0
M  END
>  <MODEL>
5

>  <REMARK>
 VINA RESULT:      -7.0      2.577      6.397
  Name = 
  7 active torsions:
  status: ('A' for Active; 'I' for Inactive)
    1  A    between atoms: C_3  and  C_23
    2  A    between atoms: C_9  and  C_31
    3  A    between atoms: C_9  and  C_32
    4  A    between atoms: C_13  and  CA_29
    5  A    between atoms: C_16  and  C_27
    6  A    between atoms: C_22  and  C_23
    7  A    between atoms: C_28  and  C_32
                            x       y       z     vdW  Elec       q    Type
                         _______ _______ _______ _____ _____    ______ ____

>  <TORSDO>
F 7

$$$$
=
 OpenBabel11052419183D

 32 35  0  0  1  0  0  0  0  0999 V2000
  191.6730  175.4360  145.9340 C   0  0  0  0  0  3  0  0  0  0  0  0
  192.6200  173.2780  143.9880 C   0  0  0  0  0  0  0  0  0  0  0  0
  192.5530  176.4300  145.8380 C   0  0  0  0  0  3  0  0  0  0  0  0
  193.4260  174.4070  144.1410 O   0  0  0  0  0  0  0  0  0  0  0  0
  193.1200  172.0780  144.2960 C   0  0  0  0  0  0  0  0  0  0  0  0
  191.1790  173.4340  143.5360 C   0  0  2  0  0  3  0  0  0  0  0  0
  191.6170  171.1430  142.7240 O   0  0  0  0  0  0  0  0  0  0  0  0
  194.4930  174.3850  145.0420 C   0  0  0  0  0  0  0  0  0  0  0  0
  192.3080  170.8730  143.9220 C   0  0  0  0  0  2  0  0  0  0  0  0
  195.0070  173.2440  145.3940 N   0  0  0  0  0  0  0  0  0  0  0  0
  194.9380  175.6700  145.6810 C   0  0  0  0  0  2  0  0  0  0  0  0
  190.3300  173.8840  144.6510 N   0  0  0  0  0  2  0  0  0  0  0  0
  190.5440  175.3000  144.9630 C   0  0  1  0  0  3  0  0  0  0  0  0
  190.6090  172.0830  143.0420 C   0  0  2  0  0  3  0  0  0  0  0  0
  194.5530  171.9820  144.7860 C   0  0  1  0  0  3  0  0  0  0  0  0
  193.8510  176.3030  146.5770 C   0  0  0  0  0  2  0  0  0  0  0  0
  185.8220  177.5710  147.1090 F   0  0  0  0  0  0  0  0  0  0  0  0
  187.6400  176.0410  147.2640 C   0  0  0  0  0  3  0  0  0  0  0  0
  189.2860  175.9380  145.4800 C   0  0  0  0  0  0  0  0  0  0  0  0
  187.4200  177.4940  145.3430 C   0  0  0  0  0  3  0  0  0  0  0  0
  188.8030  175.4940  146.7160 C   0  0  0  0  0  3  0  0  0  0  0  0
  188.5840  176.9510  144.7830 C   0  0  0  0  0  0  0  0  0  0  0  0
  186.9500  177.0410  146.5780 C   0  0  0  0  0  0  0  0  0  0  0  0
  189.0370  177.4640  143.4500 C   0  0  0  0  0  2  0  0  0  0  0  0
  187.8600  177.9520  142.6170 C   0  0  0  0  0  2  0  0  0  0  0  0
  188.1890  177.9340  141.2630 O   0  0  0  0  0  1  0  0  0  0  0  0
  194.7560  170.8310  145.7640 C   0  0  0  0  0  2  0  0  0  0  0  0
  196.0990  170.7330  146.1370 O   0  0  0  0  0  1  0  0  0  0  0  0
  189.7060  172.3130  141.8410 C   0  0  0  0  0  2  0  0  0  0  0  0
  190.0640  173.6050  141.1180 C   0  0  0  0  0  2  0  0  0  0  0  0
  187.8150  174.2270  142.0150 C   0  0  0  0  0  1  0  0  0  0  0  0
  188.8400  174.4880  140.9280 C   0  0  0  0  0  2  0  0  0  0  0  0
  2  4  1  0  0  0  0
  2  5  2  0  0  0  0
  3  1  2  0  0  0  0
  3 16  1  0  0  0  0
  4  8  1  0  0  0  0
  5 15  1  0  0  0  0
  6  2  1  1  0  0  0
  6 12  1  0  0  0  0
  7 14  1  0  0  0  0
  7  9  1  0  0  0  0
  8 10  2  0  0  0  0
  8 11  1  0  0  0  0
  9  5  1  0  0  0  0
 11 16  1  0  0  0  0
 12 13  1  0  0  0  0
 13 19  1  1  0  0  0
 13  1  1  0  0  0  0
 14 29  1  6  0  0  0
 14  6  1  0  0  0  0
 15 10  1  0  0  0  0
 15 27  1  1  0  0  0
 19 21  2  0  0  0  0
 20 23  1  0  0  0  0
 21 18  1  0  0  0  0
 22 20  2  0  0  0  0
 22 19  1  0  0  0  0
 23 17  1  0  0  0  0
 23 18  2  0  0  0  0
 24 22  1  0  0  0  0
 25 24  1  0  0  0  0
 26 25  1  0  0  0  0
 27 28  1  0  0  0  0
 30 29  1  0  0  0  0
 32 30  1  0  0  0  0
 32 31  1  0  0  0  0
M  END
>  <MODEL>
6

>  <REMARK>
 VINA RESULT:      -6.9      2.559      5.465
  Name = 
  7 active torsions:
  status: ('A' for Active; 'I' for Inactive)
    1  A    between atoms: C_3  and  C_23
    2  A    between atoms: C_9  and  C_31
    3  A    between atoms: C_9  and  C_32
    4  A    between atoms: C_13  and  CA_29
    5  A    between atoms: C_16  and  C_27
    6  A    between atoms: C_22  and  C_23
    7  A    between atoms: C_28  and  C_32
                            x       y       z     vdW  Elec       q    Type
                         _______ _______ _______ _____ _____    ______ ____

>  <TORSDO>
F 7

$$$$
=
 OpenBabel11052419183D

 32 35  0  0  1  0  0  0  0  0999 V2000
  188.7960  175.4010  142.3710 C   0  0  0  0  0  3  0  0  0  0  0  0
  191.7050  174.6920  142.9850 C   0  0  0  0  0  0  0  0  0  0  0  0
  188.1740  174.2450  142.1500 C   0  0  0  0  0  3  0  0  0  0  0  0
  190.8480  173.6490  142.6310 O   0  0  0  0  0  0  0  0  0  0  0  0
  192.7740  174.9400  142.2210 C   0  0  0  0  0  0  0  0  0  0  0  0
  191.3810  175.5620  144.1860 C   0  0  2  0  0  3  0  0  0  0  0  0
  193.8370  175.8180  144.1460 O   0  0  0  0  0  0  0  0  0  0  0  0
  190.7840  173.2200  141.3040 C   0  0  0  0  0  0  0  0  0  0  0  0
  193.7820  175.9220  142.7420 C   0  0  0  0  0  2  0  0  0  0  0  0
  191.7860  173.4510  140.5090 N   0  0  0  0  0  0  0  0  0  0  0  0
  189.5080  172.6120  140.7920 C   0  0  0  0  0  2  0  0  0  0  0  0
  190.3340  176.5400  143.8530 N   0  0  0  0  0  2  0  0  0  0  0  0
  189.0120  175.9150  143.7580 C   0  0  1  0  0  3  0  0  0  0  0  0
  192.6270  176.3590  144.6390 C   0  0  2  0  0  3  0  0  0  0  0  0
  193.0270  174.0690  141.0060 C   0  0  1  0  0  3  0  0  0  0  0  0
  188.3240  173.6040  140.8030 C   0  0  0  0  0  2  0  0  0  0  0  0
  184.9440  179.4270  145.5410 F   0  0  0  0  0  0  0  0  0  0  0  0
  186.4910  177.6660  145.9620 C   0  0  0  0  0  3  0  0  0  0  0  0
  187.9290  176.8700  144.1720 C   0  0  0  0  0  0  0  0  0  0  0  0
  186.3400  178.6680  143.7660 C   0  0  0  0  0  3  0  0  0  0  0  0
  187.4930  176.8090  145.5010 C   0  0  0  0  0  3  0  0  0  0  0  0
  187.3430  177.8120  143.2920 C   0  0  0  0  0  0  0  0  0  0  0  0
  185.9160  178.5960  145.0950 C   0  0  0  0  0  0  0  0  0  0  0  0
  187.7510  177.9230  141.8540 C   0  0  0  0  0  2  0  0  0  0  0  0
  186.5420  177.8660  140.9320 C   0  0  0  0  0  2  0  0  0  0  0  0
  186.8670  177.1930  139.7550 O   0  0  0  0  0  1  0  0  0  0  0  0
  193.7160  174.8300  139.8790 C   0  0  0  0  0  2  0  0  0  0  0  0
  195.0350  174.3980  139.7270 O   0  0  0  0  0  1  0  0  0  0  0  0
  192.6650  176.4390  146.1560 C   0  0  0  0  0  2  0  0  0  0  0  0
  192.0930  175.1790  146.7910 C   0  0  0  0  0  2  0  0  0  0  0  0
  189.6960  174.8690  147.4300 C   0  0  0  0  0  1  0  0  0  0  0  0
  191.0150  175.5150  147.8100 C   0  0  0  0  0  2  0  0  0  0  0  0
  1 13  1  0  0  0  0
  3  1  2  0  0  0  0
  4  2  1  0  0  0  0
  5  9  1  0  0  0  0
  5  2  2  0  0  0  0
  6  2  1  6  0  0  0
  6 14  1  0  0  0  0
  7 14  1  0  0  0  0
  8  4  1  0  0  0  0
  9  7  1  0  0  0  0
 10 15  1  0  0  0  0
 10  8  2  0  0  0  0
 11 16  1  0  0  0  0
 11  8  1  0  0  0  0
 12  6  1  0  0  0  0
 13 12  1  0  0  0  0
 13 19  1  6  0  0  0
 14 29  1  1  0  0  0
 15 27  1  6  0  0  0
 15  5  1  0  0  0  0
 16  3  1  0  0  0  0
 19 21  2  0  0  0  0
 20 23  1  0  0  0  0
 21 18  1  0  0  0  0
 22 20  2  0  0  0  0
 22 19  1  0  0  0  0
 23 17  1  0  0  0  0
 23 18  2  0  0  0  0
 24 22  1  0  0  0  0
 25 24  1  0  0  0  0
 26 25  1  0  0  0  0
 28 27  1  0  0  0  0
 29 30  1  0  0  0  0
 30 32  1  0  0  0  0
 31 32  1  0  0  0  0
M  END
>  <MODEL>
7

>  <REMARK>
 VINA RESULT:      -6.7      2.550      3.679
  Name = 
  7 active torsions:
  status: ('A' for Active; 'I' for Inactive)
    1  A    between atoms: C_3  and  C_23
    2  A    between atoms: C_9  and  C_31
    3  A    between atoms: C_9  and  C_32
    4  A    between atoms: C_13  and  CA_29
    5  A    between atoms: C_16  and  C_27
    6  A    between atoms: C_22  and  C_23
    7  A    between atoms: C_28  and  C_32
                            x       y       z     vdW  Elec       q    Type
                         _______ _______ _______ _____ _____    ______ ____

>  <TORSDO>
F 7

$$$$
=
 OpenBabel11052419183D

 32 35  0  0  1  0  0  0  0  0999 V2000
  191.0120  176.5000  145.1960 C   0  0  0  0  0  3  0  0  0  0  0  0
  188.6130  175.6230  143.5170 C   0  0  0  0  0  0  0  0  0  0  0  0
  190.6220  176.4170  146.4660 C   0  0  0  0  0  3  0  0  0  0  0  0
  188.4370  175.7070  144.8980 O   0  0  0  0  0  0  0  0  0  0  0  0
  187.8630  176.3910  142.7200 C   0  0  0  0  0  0  0  0  0  0  0  0
  189.6880  174.7160  142.9450 C   0  0  2  0  0  3  0  0  0  0  0  0
  188.1200  174.7450  141.0380 O   0  0  0  0  0  0  0  0  0  0  0  0
  187.9070  176.8680  145.4650 C   0  0  0  0  0  0  0  0  0  0  0  0
  187.9260  176.1250  141.2450 C   0  0  0  0  0  2  0  0  0  0  0  0
  187.1850  177.6630  144.7320 N   0  0  0  0  0  0  0  0  0  0  0  0
  188.2870  177.2360  146.8720 C   0  0  0  0  0  2  0  0  0  0  0  0
  191.0150  175.3370  143.0730 N   0  0  0  0  0  2  0  0  0  0  0  0
  191.5050  175.2990  144.4540 C   0  0  1  0  0  3  0  0  0  0  0  0
  189.4450  174.4580  141.4390 C   0  0  2  0  0  3  0  0  0  0  0  0
  186.8340  177.3130  143.3450 C   0  0  1  0  0  3  0  0  0  0  0  0
  189.7930  177.5330  147.0280 C   0  0  0  0  0  2  0  0  0  0  0  0
  197.1640  175.1500  144.5770 F   0  0  0  0  0  0  0  0  0  0  0  0
  195.1290  176.3580  144.3120 C   0  0  0  0  0  3  0  0  0  0  0  0
  193.0030  175.1970  144.4960 C   0  0  0  0  0  0  0  0  0  0  0  0
  195.0950  173.9830  144.7620 C   0  0  0  0  0  3  0  0  0  0  0  0
  193.7330  176.3720  144.2860 C   0  0  0  0  0  3  0  0  0  0  0  0
  193.6950  173.9850  144.7360 C   0  0  0  0  0  0  0  0  0  0  0  0
  195.8100  175.1640  144.5510 C   0  0  0  0  0  0  0  0  0  0  0  0
  192.9780  172.6860  144.9550 C   0  0  0  0  0  2  0  0  0  0  0  0
  193.9590  171.5510  145.2100 C   0  0  0  0  0  2  0  0  0  0  0  0
  193.4770  170.3670  144.6540 O   0  0  0  0  0  1  0  0  0  0  0  0
  186.6200  178.5820  142.5280 C   0  0  0  0  0  2  0  0  0  0  0  0
  185.7870  179.4730  143.2090 O   0  0  0  0  0  1  0  0  0  0  0  0
  189.7980  173.0190  141.0990 C   0  0  0  0  0  2  0  0  0  0  0  0
  189.5360  172.0910  142.2770 C   0  0  0  0  0  2  0  0  0  0  0  0
  191.8810  171.5050  141.6400 C   0  0  0  0  0  1  0  0  0  0  0  0
  190.6730  171.0980  142.4620 C   0  0  0  0  0  2  0  0  0  0  0  0
  1  3  2  0  0  0  0
  2  4  1  0  0  0  0
  3 16  1  0  0  0  0
  4  8  1  0  0  0  0
  5 15  1  0  0  0  0
  5  2  2  0  0  0  0
  6 12  1  6  0  0  0
  6  2  1  0  0  0  0
  7  9  1  0  0  0  0
  7 14  1  0  0  0  0
  8 11  1  0  0  0  0
  9  5  1  0  0  0  0
 10  8  2  0  0  0  0
 11 16  1  0  0  0  0
 12 13  1  0  0  0  0
 13 19  1  6  0  0  0
 13  1  1  0  0  0  0
 14 29  1  1  0  0  0
 14  6  1  0  0  0  0
 15 27  1  6  0  0  0
 15 10  1  0  0  0  0
 18 23  1  0  0  0  0
 19 22  2  0  0  0  0
 21 18  2  0  0  0  0
 21 19  1  0  0  0  0
 22 20  1  0  0  0  0
 22 24  1  0  0  0  0
 23 17  1  0  0  0  0
 23 20  2  0  0  0  0
 24 25  1  0  0  0  0
 26 25  1  0  0  0  0
 27 28  1  0  0  0  0
 29 30  1  0  0  0  0
 30 32  1  0  0  0  0
 31 32  1  0  0  0  0
M  END
>  <MODEL>
8

>  <REMARK>
 VINA RESULT:      -6.7      3.104      7.985
  Name = 
  7 active torsions:
  status: ('A' for Active; 'I' for Inactive)
    1  A    between atoms: C_3  and  C_23
    2  A    between atoms: C_9  and  C_31
    3  A    between atoms: C_9  and  C_32
    4  A    between atoms: C_13  and  CA_29
    5  A    between atoms: C_16  and  C_27
    6  A    between atoms: C_22  and  C_23
    7  A    between atoms: C_28  and  C_32
                            x       y       z     vdW  Elec       q    Type
                         _______ _______ _______ _____ _____    ______ ____

>  <TORSDO>
F 7

$$$$
=
 OpenBabel11052419183D

 32 35  0  0  1  0  0  0  0  0999 V2000
  188.7710  176.6900  145.3840 C   0  0  0  0  0  3  0  0  0  0  0  0
  186.4850  176.6630  143.3560 C   0  0  0  0  0  0  0  0  0  0  0  0
  188.3260  176.0270  146.4490 C   0  0  0  0  0  3  0  0  0  0  0  0
  186.2420  176.0990  144.6090 O   0  0  0  0  0  0  0  0  0  0  0  0
  185.7460  177.7040  142.9600 C   0  0  0  0  0  0  0  0  0  0  0  0
  187.6150  176.1310  142.4930 C   0  0  2  0  0  3  0  0  0  0  0  0
  186.1370  177.0220  140.7270 O   0  0  0  0  0  0  0  0  0  0  0  0
  185.6460  176.8630  145.6140 C   0  0  0  0  0  0  0  0  0  0  0  0
  185.8870  178.1490  141.5340 C   0  0  0  0  0  2  0  0  0  0  0  0
  184.9320  177.9000  145.2890 N   0  0  0  0  0  0  0  0  0  0  0  0
  185.9470  176.5440  147.0520 C   0  0  0  0  0  2  0  0  0  0  0  0
  188.9130  176.6360  142.9690 N   0  0  0  0  0  2  0  0  0  0  0  0
  189.3400  175.9710  144.2030 C   0  0  1  0  0  3  0  0  0  0  0  0
  187.4510  176.5940  141.0270 C   0  0  2  0  0  3  0  0  0  0  0  0
  184.6580  178.2250  143.8790 C   0  0  1  0  0  3  0  0  0  0  0  0
  187.4340  176.7500  147.4130 C   0  0  0  0  0  2  0  0  0  0  0  0
  194.9870  175.8280  144.5840 F   0  0  0  0  0  0  0  0  0  0  0  0
  192.9200  176.9750  144.8720 C   0  0  0  0  0  3  0  0  0  0  0  0
  190.8370  175.8750  144.2780 C   0  0  0  0  0  0  0  0  0  0  0  0
  192.9610  174.7230  143.9920 C   0  0  0  0  0  3  0  0  0  0  0  0
  191.5270  176.9890  144.7690 C   0  0  0  0  0  3  0  0  0  0  0  0
  191.5650  174.7260  143.8830 C   0  0  0  0  0  0  0  0  0  0  0  0
  193.6370  175.8420  144.4840 C   0  0  0  0  0  0  0  0  0  0  0  0
  190.8920  173.5040  143.3360 C   0  0  0  0  0  2  0  0  0  0  0  0
  190.8050  172.4060  144.3860 C   0  0  0  0  0  2  0  0  0  0  0  0
  189.6480  172.5600  145.1490 O   0  0  0  0  0  1  0  0  0  0  0  0
  184.4380  179.7260  143.7260 C   0  0  0  0  0  2  0  0  0  0  0  0
  185.5690  180.4340  144.1390 O   0  0  0  0  0  1  0  0  0  0  0  0
  187.8700  175.4780  140.0840 C   0  0  0  0  0  2  0  0  0  0  0  0
  188.2800  174.2290  140.8520 C   0  0  0  0  0  2  0  0  0  0  0  0
  188.3140  173.4600  138.4730 C   0  0  0  0  0  1  0  0  0  0  0  0
  188.6520  173.0960  139.9070 C   0  0  0  0  0  2  0  0  0  0  0  0
  1  3  2  0  0  0  0
  2  4  1  0  0  0  0
  3 16  1  0  0  0  0
  4  8  1  0  0  0  0
  5  2  2  0  0  0  0
  5 15  1  0  0  0  0
  6 12  1  1  0  0  0
  6  2  1  0  0  0  0
  7 14  1  0  0  0  0
  7  9  1  0  0  0  0
  8 11  1  0  0  0  0
  9  5  1  0  0  0  0
 10  8  2  0  0  0  0
 11 16  1  0  0  0  0
 12 13  1  0  0  0  0
 13 19  1  1  0  0  0
 13  1  1  0  0  0  0
 14 29  1  6  0  0  0
 14  6  1  0  0  0  0
 15 27  1  1  0  0  0
 15 10  1  0  0  0  0
 19 21  2  0  0  0  0
 20 23  1  0  0  0  0
 21 18  1  0  0  0  0
 22 20  2  0  0  0  0
 22 19  1  0  0  0  0
 23 17  1  0  0  0  0
 23 18  2  0  0  0  0
 24 22  1  0  0  0  0
 24 25  1  0  0  0  0
 25 26  1  0  0  0  0
 27 28  1  0  0  0  0
 29 30  1  0  0  0  0
 31 32  1  0  0  0  0
 32 30  1  0  0  0  0
M  END
>  <MODEL>
9

>  <REMARK>
 VINA RESULT:      -6.6      2.830      7.502
  Name = 
  7 active torsions:
  status: ('A' for Active; 'I' for Inactive)
    1  A    between atoms: C_3  and  C_23
    2  A    between atoms: C_9  and  C_31
    3  A    between atoms: C_9  and  C_32
    4  A    between atoms: C_13  and  CA_29
    5  A    between atoms: C_16  and  C_27
    6  A    between atoms: C_22  and  C_23
    7  A    between atoms: C_28  and  C_32
                            x       y       z     vdW  Elec       q    Type
                         _______ _______ _______ _____ _____    ______ ____

>  <TORSDO>
F 7

$$$$
