=
 OpenBabel11052420463D

 43 50  0  0  1  0  0  0  0  0999 V2000
  189.6410  177.5130  145.0510 C   0  0  0  0  0  0  0  0  0  0  0  0
  194.2710  175.4540  145.1370 C   0  0  0  0  0  0  0  0  0  0  0  0
  195.2780  175.6110  142.5060 C   0  0  0  0  0  0  0  0  0  0  0  0
  191.7090  176.4530  145.7350 C   0  0  0  0  0  0  0  0  0  0  0  0
  190.1050  177.5820  143.7360 C   0  0  0  0  0  3  0  0  0  0  0  0
  188.4130  177.9960  145.3610 F   0  0  0  0  0  0  0  0  0  0  0  0
  192.1930  176.5250  144.4060 C   0  0  0  0  0  0  0  0  0  0  0  0
  190.4400  176.9480  146.0480 C   0  0  0  0  0  3  0  0  0  0  0  0
  191.3740  177.0930  143.4140 C   0  0  0  0  0  3  0  0  0  0  0  0
  193.9980  176.0960  142.8050 C   0  0  0  0  0  3  0  0  0  0  0  0
  193.4800  176.0280  144.1070 C   0  0  0  0  0  0  0  0  0  0  0  0
  193.7640  175.3950  146.4420 C   0  0  0  0  0  3  0  0  0  0  0  0
  195.5510  174.9420  144.8400 C   0  0  0  0  0  0  0  0  0  0  0  0
  196.0420  175.0400  143.5310 C   0  0  0  0  0  3  0  0  0  0  0  0
  192.4950  175.8910  146.7390 C   0  0  0  0  0  3  0  0  0  0  0  0
  196.4070  174.3110  145.9310 C   0  0  2  0  0  3  0  0  0  0  0  0
  195.4000  172.2430  145.2000 C   0  0  2  0  0  3  0  0  0  0  0  0
  194.9590  170.9290  145.8090 C   0  0  2  0  0  3  0  0  0  0  0  0
  196.7340  171.6930  144.9090 C   0  0  1  0  0  3  0  0  0  0  0  0
  197.5170  173.7130  145.3810 O   0  0  0  0  0  0  0  0  0  0  0  0
  196.6180  172.7890  145.9840 C   0  0  2  0  0  0  0  0  0  0  0  0
  196.3240  170.3580  145.4990 C   0  0  0  0  0  2  0  0  0  0  0  0
  193.8730  168.9770  144.7870 C   0  0  0  0  0  2  0  0  0  0  0  0
  193.9150  170.2970  144.9450 C   0  0  0  0  0  3  0  0  0  0  0  0
  195.7970  175.6870  141.1640 N   0  0  0  0  0  0  0  0  0  0  0  0
  197.2320  175.6620  140.9190 C   0  0  0  0  0  1  0  0  0  0  0  0
  194.9130  175.6940  140.0040 C   0  0  0  0  0  2  0  0  0  0  0  0
  194.5420  174.2690  139.6160 C   0  0  2  0  0  3  0  0  0  0  0  0
  194.9400  174.0290  138.3040 O   0  0  0  0  0  1  0  0  0  0  0  0
  193.0440  174.0330  139.7350 C   0  0  0  0  0  2  0  0  0  0  0  0
  192.7540  172.7650  140.3920 N   0  0  0  0  0  0  0  0  0  0  0  0
  191.6670  171.0180  141.2570 N   0  0  0  0  0  0  0  0  0  0  0  0
  193.6710  171.9450  140.9300 C   0  0  0  0  0  3  0  0  0  0  0  0
  191.5570  172.1890  140.6010 C   0  0  0  0  0  0  0  0  0  0  0  0
  192.9950  170.8620  141.4610 C   0  0  0  0  0  3  0  0  0  0  0  0
  190.2330  172.7910  140.1910 C   0  0  1  0  0  3  0  0  0  0  0  0
  189.4110  171.8180  139.6210 O   0  0  0  0  0  1  0  0  0  0  0  0
  189.5140  173.4870  141.2720 N   0  0  0  0  0  0  0  0  0  0  0  0
  191.3930  172.8940  144.2330 C   0  0  0  0  0  1  0  0  0  0  0  0
  189.2280  172.2970  143.3130 N   0  0  0  0  0  2  0  0  0  0  0  0
  190.1320  173.4010  143.5670 C   0  0  2  0  0  3  0  0  0  0  0  0
  188.6310  172.5870  142.0160 C   0  0  0  0  0  2  0  0  0  0  0  0
  190.4760  174.0030  142.2300 C   0  0  0  0  0  2  0  0  0  0  0  0
  1  6  1  0  0  0  0
  1  8  1  0  0  0  0
  2 12  1  0  0  0  0
  3 10  2  0  0  0  0
  3 14  1  0  0  0  0
  4  8  2  0  0  0  0
  4 15  1  0  0  0  0
  5  1  2  0  0  0  0
  7  4  1  0  0  0  0
  9  5  1  0  0  0  0
  9  7  2  0  0  0  0
 10 11  1  0  0  0  0
 11  7  1  0  0  0  0
 11  2  2  0  0  0  0
 12 15  2  0  0  0  0
 13  2  1  0  0  0  0
 14 13  2  0  0  0  0
 16 13  1  6  0  0  0
 16 21  1  0  0  0  0
 17 18  1  0  0  0  0
 17 21  1  0  0  0  0
 19 17  1  0  0  0  0
 19 22  1  0  0  0  0
 19 21  1  0  0  0  0
 20 16  1  0  0  0  0
 20 21  1  0  0  0  0
 22 18  1  0  0  0  0
 23 24  2  0  0  0  0
 24 18  1  0  0  0  0
 25  3  1  0  0  0  0
 26 25  1  0  0  0  0
 27 25  1  0  0  0  0
 28 30  1  0  0  0  0
 28 27  1  0  0  0  0
 29 28  1  0  0  0  0
 30 31  1  0  0  0  0
 31 34  1  0  0  0  0
 31 33  1  0  0  0  0
 32 35  1  0  0  0  0
 33 35  2  0  0  0  0
 34 32  2  0  0  0  0
 36 34  1  0  0  0  0
 36 38  1  0  0  0  0
 37 36  1  0  0  0  0
 38 42  1  0  0  0  0
 38 43  1  0  0  0  0
 40 41  1  0  0  0  0
 41 39  1  0  0  0  0
 42 40  1  0  0  0  0
 43 41  1  0  0  0  0
M  END
>  <MODEL>
1

>  <REMARK>
 VINA RESULT:      -6.7      0.000      0.000
  Name = 
  9 active torsions:
  status: ('A' for Active; 'I' for Inactive)
    1  A    between atoms: C_1  and  C_34
    2  A    between atoms: N_2  and  C_6
    3  A    between atoms: N_2  and  C_13
    4  A    between atoms: C_3  and  N_4
    5  A    between atoms: C_3  and  C_12
    6  A    between atoms: C_6  and  C_12
    7  A    between atoms: N_11  and  C_14
    8  A    between atoms: C_14  and  C_22
    9  A    between atoms: C_19  and  C_37
                            x       y       z     vdW  Elec       q    Type
                         _______ _______ _______ _____ _____    ______ ____

>  <TORSDO>
F 9

$$$$
=
 OpenBabel11052420463D

 43 50  0  0  1  0  0  0  0  0999 V2000
  195.2280  175.9500  144.5180 C   0  0  0  0  0  0  0  0  0  0  0  0
  190.3740  176.6910  145.7710 C   0  0  0  0  0  0  0  0  0  0  0  0
  188.9250  176.8350  143.3540 C   0  0  0  0  0  0  0  0  0  0  0  0
  193.1580  176.2780  145.7310 C   0  0  0  0  0  0  0  0  0  0  0  0
  194.5390  176.0410  143.3070 C   0  0  0  0  0  3  0  0  0  0  0  0
  196.5680  175.7430  144.5200 F   0  0  0  0  0  0  0  0  0  0  0  0
  192.4470  176.3640  144.5090 C   0  0  0  0  0  0  0  0  0  0  0  0
  194.5390  176.0700  145.7270 C   0  0  0  0  0  3  0  0  0  0  0  0
  193.1570  176.2450  143.3000 C   0  0  0  0  0  3  0  0  0  0  0  0
  190.3130  176.6420  143.3380 C   0  0  0  0  0  3  0  0  0  0  0  0
  191.0500  176.5670  144.5280 C   0  0  0  0  0  0  0  0  0  0  0  0
  191.1040  176.6030  146.9640 C   0  0  0  0  0  3  0  0  0  0  0  0
  188.9810  176.9080  145.7960 C   0  0  0  0  0  0  0  0  0  0  0  0
  188.2740  176.9650  144.5870 C   0  0  0  0  0  3  0  0  0  0  0  0
  192.4830  176.3980  146.9450 C   0  0  0  0  0  3  0  0  0  0  0  0
  188.2420  177.0570  147.1200 C   0  0  2  0  0  3  0  0  0  0  0  0
  186.4900  178.0170  145.7660 C   0  0  2  0  0  3  0  0  0  0  0  0
  185.4250  179.0860  145.8950 C   0  0  2  0  0  3  0  0  0  0  0  0
  185.5530  176.9870  146.2440 C   0  0  1  0  0  3  0  0  0  0  0  0
  187.2970  176.0650  147.2530 O   0  0  0  0  0  0  0  0  0  0  0  0
  186.7370  177.3690  147.1500 C   0  0  2  0  0  0  0  0  0  0  0  0
  184.4580  178.0270  146.3730 C   0  0  0  0  0  2  0  0  0  0  0  0
  185.8560  179.4210  143.5000 C   0  0  0  0  0  2  0  0  0  0  0  0
  185.0390  179.5790  144.5370 C   0  0  0  0  0  3  0  0  0  0  0  0
  188.1800  176.9110  142.1230 N   0  0  0  0  0  0  0  0  0  0  0  0
  188.1790  178.1310  141.3280 C   0  0  0  0  0  1  0  0  0  0  0  0
  187.4850  175.7490  141.5800 C   0  0  0  0  0  2  0  0  0  0  0  0
  188.4770  174.8050  140.9160 C   0  0  2  0  0  3  0  0  0  0  0  0
  188.1650  174.6840  139.5640 O   0  0  0  0  0  1  0  0  0  0  0  0
  188.4480  173.4270  141.5610 C   0  0  0  0  0  2  0  0  0  0  0  0
  189.5880  173.2290  142.4470 N   0  0  0  0  0  0  0  0  0  0  0  0
  191.6630  172.9070  143.2040 N   0  0  0  0  0  0  0  0  0  0  0  0
  189.5200  173.1370  143.7850 C   0  0  0  0  0  3  0  0  0  0  0  0
  190.8840  173.0870  142.1200 C   0  0  0  0  0  0  0  0  0  0  0  0
  190.8070  172.9410  144.2520 C   0  0  0  0  0  3  0  0  0  0  0  0
  191.4160  173.0870  140.7050 C   0  0  1  0  0  3  0  0  0  0  0  0
  192.3820  174.0810  140.5480 O   0  0  0  0  0  1  0  0  0  0  0  0
  191.9480  171.7910  140.2500 N   0  0  0  0  0  0  0  0  0  0  0  0
  190.8310  171.3980  136.8970 C   0  0  0  0  0  1  0  0  0  0  0  0
  190.4520  170.3710  139.0630 N   0  0  0  0  0  2  0  0  0  0  0  0
  191.4750  170.8120  138.1340 C   0  0  2  0  0  3  0  0  0  0  0  0
  190.9660  170.7140  140.3830 C   0  0  0  0  0  2  0  0  0  0  0  0
  192.2740  171.8770  138.8380 C   0  0  0  0  0  2  0  0  0  0  0  0
  1  6  1  0  0  0  0
  1  8  1  0  0  0  0
  2 13  1  0  0  0  0
  2 12  1  0  0  0  0
  3 14  1  0  0  0  0
  4 15  1  0  0  0  0
  5  1  2  0  0  0  0
  7 11  1  0  0  0  0
  7  4  1  0  0  0  0
  8  4  2  0  0  0  0
  9  5  1  0  0  0  0
  9  7  2  0  0  0  0
 10  3  2  0  0  0  0
 10 11  1  0  0  0  0
 11  2  2  0  0  0  0
 14 13  2  0  0  0  0
 15 12  2  0  0  0  0
 16 13  1  6  0  0  0
 16 21  1  0  0  0  0
 16 20  1  0  0  0  0
 17 18  1  0  0  0  0
 17 19  1  0  0  0  0
 17 21  1  0  0  0  0
 18 22  1  0  0  0  0
 19 22  1  0  0  0  0
 19 21  1  0  0  0  0
 21 20  1  0  0  0  0
 23 24  2  0  0  0  0
 24 18  1  0  0  0  0
 25  3  1  0  0  0  0
 26 25  1  0  0  0  0
 27 25  1  0  0  0  0
 28 30  1  0  0  0  0
 28 27  1  0  0  0  0
 29 28  1  0  0  0  0
 30 31  1  0  0  0  0
 31 33  1  0  0  0  0
 32 35  1  0  0  0  0
 33 35  2  0  0  0  0
 34 31  1  0  0  0  0
 34 32  2  0  0  0  0
 36 34  1  0  0  0  0
 37 36  1  0  0  0  0
 38 42  1  0  0  0  0
 38 36  1  0  0  0  0
 39 41  1  0  0  0  0
 40 42  1  0  0  0  0
 41 43  1  0  0  0  0
 41 40  1  0  0  0  0
 43 38  1  0  0  0  0
M  END
>  <MODEL>
2

>  <REMARK>
 VINA RESULT:      -6.7      3.134      7.139
  Name = 
  9 active torsions:
  status: ('A' for Active; 'I' for Inactive)
    1  A    between atoms: C_1  and  C_34
    2  A    between atoms: N_2  and  C_6
    3  A    between atoms: N_2  and  C_13
    4  A    between atoms: C_3  and  N_4
    5  A    between atoms: C_3  and  C_12
    6  A    between atoms: C_6  and  C_12
    7  A    between atoms: N_11  and  C_14
    8  A    between atoms: C_14  and  C_22
    9  A    between atoms: C_19  and  C_37
                            x       y       z     vdW  Elec       q    Type
                         _______ _______ _______ _____ _____    ______ ____

>  <TORSDO>
F 9

$$$$
=
 OpenBabel11052420463D

 43 50  0  0  1  0  0  0  0  0999 V2000
  185.8280  178.3270  147.1990 C   0  0  0  0  0  0  0  0  0  0  0  0
  190.4690  176.3110  146.9230 C   0  0  0  0  0  0  0  0  0  0  0  0
  190.2680  174.0360  145.2670 C   0  0  0  0  0  0  0  0  0  0  0  0
  188.1940  177.8780  147.4590 C   0  0  0  0  0  0  0  0  0  0  0  0
  185.6960  177.1940  146.3950 C   0  0  0  0  0  3  0  0  0  0  0  0
  184.7460  179.1000  147.4620 F   0  0  0  0  0  0  0  0  0  0  0  0
  188.0730  176.7310  146.6380 C   0  0  0  0  0  0  0  0  0  0  0  0
  187.0750  178.6680  147.7310 C   0  0  0  0  0  3  0  0  0  0  0  0
  186.8110  176.3990  146.1140 C   0  0  0  0  0  3  0  0  0  0  0  0
  189.1350  174.8110  145.5460 C   0  0  0  0  0  3  0  0  0  0  0  0
  189.2150  175.9460  146.3660 C   0  0  0  0  0  0  0  0  0  0  0  0
  190.5580  177.4520  147.7320 C   0  0  0  0  0  3  0  0  0  0  0  0
  191.6100  175.5230  146.6660 C   0  0  0  0  0  0  0  0  0  0  0  0
  191.4960  174.4020  145.8310 C   0  0  0  0  0  3  0  0  0  0  0  0
  189.4310  178.2290  147.9980 C   0  0  0  0  0  3  0  0  0  0  0  0
  192.9600  175.8920  147.2660 C   0  0  2  0  0  3  0  0  0  0  0  0
  193.8110  175.4090  145.0600 C   0  0  2  0  0  3  0  0  0  0  0  0
  195.0690  174.8410  144.4380 C   0  0  2  0  0  3  0  0  0  0  0  0
  194.3470  176.7760  144.9640 C   0  0  1  0  0  3  0  0  0  0  0  0
  193.3180  177.1660  146.8890 O   0  0  0  0  0  0  0  0  0  0  0  0
  194.1770  176.1590  146.3640 C   0  0  2  0  0  0  0  0  0  0  0  0
  195.6160  176.2460  144.3260 C   0  0  0  0  0  2  0  0  0  0  0  0
  194.7260  172.9730  142.8800 C   0  0  0  0  0  2  0  0  0  0  0  0
  194.7580  174.2880  143.0840 C   0  0  0  0  0  3  0  0  0  0  0  0
  190.1710  172.8720  144.4220 N   0  0  0  0  0  0  0  0  0  0  0  0
  189.5200  171.6590  144.8990 C   0  0  0  0  0  1  0  0  0  0  0  0
  190.6280  172.8940  143.0380 C   0  0  0  0  0  2  0  0  0  0  0  0
  189.5990  173.5860  142.1540 C   0  0  2  0  0  3  0  0  0  0  0  0
  189.0700  172.6640  141.2540 O   0  0  0  0  0  1  0  0  0  0  0  0
  190.2160  174.7420  141.3820 C   0  0  0  0  0  2  0  0  0  0  0  0
  190.2150  175.9690  142.1670 N   0  0  0  0  0  0  0  0  0  0  0  0
  189.5650  177.8660  143.1470 N   0  0  0  0  0  0  0  0  0  0  0  0
  191.2760  176.4710  142.8200 C   0  0  0  0  0  3  0  0  0  0  0  0
  189.1990  176.8240  142.3770 C   0  0  0  0  0  0  0  0  0  0  0  0
  190.8700  177.6440  143.4290 C   0  0  0  0  0  3  0  0  0  0  0  0
  187.8140  176.6690  141.7910 C   0  0  1  0  0  3  0  0  0  0  0  0
  186.9640  176.0520  142.7070 O   0  0  0  0  0  1  0  0  0  0  0  0
  187.2090  177.9220  141.3070 N   0  0  0  0  0  0  0  0  0  0  0  0
  184.0670  178.1880  142.9520 C   0  0  0  0  0  1  0  0  0  0  0  0
  184.9090  177.8420  140.7020 N   0  0  0  0  0  2  0  0  0  0  0  0
  185.0260  178.6700  141.8860 C   0  0  2  0  0  3  0  0  0  0  0  0
  186.2710  177.6930  140.2070 C   0  0  0  0  0  2  0  0  0  0  0  0
  186.4420  178.5280  142.3810 C   0  0  0  0  0  2  0  0  0  0  0  0
  1  6  1  0  0  0  0
  1  8  1  0  0  0  0
  2 12  1  0  0  0  0
  3 10  2  0  0  0  0
  3 14  1  0  0  0  0
  4  8  2  0  0  0  0
  4 15  1  0  0  0  0
  5  1  2  0  0  0  0
  7  4  1  0  0  0  0
  9  5  1  0  0  0  0
  9  7  2  0  0  0  0
 10 11  1  0  0  0  0
 11  7  1  0  0  0  0
 11  2  2  0  0  0  0
 12 15  2  0  0  0  0
 13  2  1  0  0  0  0
 14 13  2  0  0  0  0
 16 13  1  6  0  0  0
 17 21  1  0  0  0  0
 18 17  1  0  0  0  0
 19 17  1  0  0  0  0
 19 21  1  0  0  0  0
 20 16  1  0  0  0  0
 21 20  1  0  0  0  0
 21 16  1  0  0  0  0
 22 18  1  0  0  0  0
 22 19  1  0  0  0  0
 23 24  2  0  0  0  0
 24 18  1  0  0  0  0
 25 26  1  0  0  0  0
 25  3  1  0  0  0  0
 27 25  1  0  0  0  0
 28 27  1  0  0  0  0
 29 28  1  0  0  0  0
 30 28  1  0  0  0  0
 30 31  1  0  0  0  0
 31 34  1  0  0  0  0
 31 33  1  0  0  0  0
 32 35  1  0  0  0  0
 33 35  2  0  0  0  0
 34 32  2  0  0  0  0
 36 34  1  0  0  0  0
 36 37  1  0  0  0  0
 38 36  1  0  0  0  0
 38 43  1  0  0  0  0
 40 41  1  0  0  0  0
 41 43  1  0  0  0  0
 41 39  1  0  0  0  0
 42 40  1  0  0  0  0
 42 38  1  0  0  0  0
M  END
>  <MODEL>
3

>  <REMARK>
 VINA RESULT:      -6.6      3.186      5.594
  Name = 
  9 active torsions:
  status: ('A' for Active; 'I' for Inactive)
    1  A    between atoms: C_1  and  C_34
    2  A    between atoms: N_2  and  C_6
    3  A    between atoms: N_2  and  C_13
    4  A    between atoms: C_3  and  N_4
    5  A    between atoms: C_3  and  C_12
    6  A    between atoms: C_6  and  C_12
    7  A    between atoms: N_11  and  C_14
    8  A    between atoms: C_14  and  C_22
    9  A    between atoms: C_19  and  C_37
                            x       y       z     vdW  Elec       q    Type
                         _______ _______ _______ _____ _____    ______ ____

>  <TORSDO>
F 9

$$$$
=
 OpenBabel11052420463D

 43 50  0  0  1  0  0  0  0  0999 V2000
  195.5450  176.3790  143.6730 C   0  0  0  0  0  0  0  0  0  0  0  0
  190.7230  176.3370  145.2340 C   0  0  0  0  0  0  0  0  0  0  0  0
  189.1580  175.5850  143.0110 C   0  0  0  0  0  0  0  0  0  0  0  0
  193.5210  176.5350  144.9950 C   0  0  0  0  0  0  0  0  0  0  0  0
  194.7920  176.0270  142.5520 C   0  0  0  0  0  3  0  0  0  0  0  0
  196.8940  176.4710  143.5810 F   0  0  0  0  0  0  0  0  0  0  0  0
  192.7480  176.1710  143.8650 C   0  0  0  0  0  0  0  0  0  0  0  0
  194.9110  176.6340  144.8920 C   0  0  0  0  0  3  0  0  0  0  0  0
  193.4010  175.9220  142.6450 C   0  0  0  0  0  3  0  0  0  0  0  0
  190.5500  175.6960  142.8920 C   0  0  0  0  0  3  0  0  0  0  0  0
  191.3450  176.0680  143.9860 C   0  0  0  0  0  0  0  0  0  0  0  0
  191.5150  176.6970  146.3340 C   0  0  0  0  0  3  0  0  0  0  0  0
  189.3220  176.2500  145.3570 C   0  0  0  0  0  0  0  0  0  0  0  0
  188.5590  175.8620  144.2460 C   0  0  0  0  0  3  0  0  0  0  0  0
  192.9010  176.7940  146.2160 C   0  0  0  0  0  3  0  0  0  0  0  0
  188.6380  176.5490  146.6850 C   0  0  2  0  0  3  0  0  0  0  0  0
  186.9890  177.6620  145.3190 C   0  0  2  0  0  3  0  0  0  0  0  0
  186.0700  178.8620  145.4170 C   0  0  2  0  0  3  0  0  0  0  0  0
  185.9410  176.7800  145.8600 C   0  0  1  0  0  3  0  0  0  0  0  0
  187.5800  175.6910  146.8810 O   0  0  0  0  0  0  0  0  0  0  0  0
  187.1850  177.0500  146.7270 C   0  0  2  0  0  0  0  0  0  0  0  0
  184.9890  177.9550  145.9600 C   0  0  0  0  0  2  0  0  0  0  0  0
  186.4060  178.9270  142.9850 C   0  0  0  0  0  2  0  0  0  0  0  0
  185.7170  179.3400  144.0450 C   0  0  0  0  0  3  0  0  0  0  0  0
  188.3530  175.2020  141.8790 N   0  0  0  0  0  0  0  0  0  0  0  0
  187.6990  176.2100  141.0560 C   0  0  0  0  0  1  0  0  0  0  0  0
  188.2430  173.8100  141.4580 C   0  0  0  0  0  2  0  0  0  0  0  0
  188.6280  173.6710  139.9920 C   0  0  2  0  0  3  0  0  0  0  0  0
  187.8870  172.6410  139.4160 O   0  0  0  0  0  1  0  0  0  0  0  0
  190.1100  173.3700  139.8330 C   0  0  0  0  0  2  0  0  0  0  0  0
  190.3620  171.9350  139.7910 N   0  0  0  0  0  0  0  0  0  0  0  0
  190.9640  169.8640  140.3660 N   0  0  0  0  0  0  0  0  0  0  0  0
  190.1570  171.1450  138.7260 C   0  0  0  0  0  3  0  0  0  0  0  0
  190.8480  171.1450  140.7650 C   0  0  0  0  0  0  0  0  0  0  0  0
  190.5270  169.8620  139.0860 C   0  0  0  0  0  3  0  0  0  0  0  0
  191.2590  171.6300  142.1360 C   0  0  1  0  0  3  0  0  0  0  0  0
  190.2050  171.4900  143.0380 O   0  0  0  0  0  1  0  0  0  0  0  0
  192.4720  170.9900  142.6750 N   0  0  0  0  0  0  0  0  0  0  0  0
  193.4610  172.9620  145.4640 C   0  0  0  0  0  1  0  0  0  0  0  0
  194.2830  172.4250  143.2450 N   0  0  0  0  0  2  0  0  0  0  0  0
  193.7630  171.8590  144.4740 C   0  0  2  0  0  3  0  0  0  0  0  0
  193.6950  171.6220  142.1800 C   0  0  0  0  0  2  0  0  0  0  0  0
  192.4890  171.1380  144.1190 C   0  0  0  0  0  2  0  0  0  0  0  0
  1  8  1  0  0  0  0
  2 13  1  0  0  0  0
  2 12  1  0  0  0  0
  3 14  1  0  0  0  0
  4 15  1  0  0  0  0
  5  9  1  0  0  0  0
  5  1  2  0  0  0  0
  6  1  1  0  0  0  0
  7 11  1  0  0  0  0
  7  4  1  0  0  0  0
  8  4  2  0  0  0  0
  9  7  2  0  0  0  0
 10  3  2  0  0  0  0
 10 11  1  0  0  0  0
 11  2  2  0  0  0  0
 14 13  2  0  0  0  0
 15 12  2  0  0  0  0
 16 13  1  6  0  0  0
 16 21  1  0  0  0  0
 16 20  1  0  0  0  0
 17 18  1  0  0  0  0
 17 19  1  0  0  0  0
 17 21  1  0  0  0  0
 18 22  1  0  0  0  0
 19 22  1  0  0  0  0
 19 21  1  0  0  0  0
 21 20  1  0  0  0  0
 23 24  2  0  0  0  0
 24 18  1  0  0  0  0
 25  3  1  0  0  0  0
 26 25  1  0  0  0  0
 27 25  1  0  0  0  0
 28 27  1  0  0  0  0
 29 28  1  0  0  0  0
 30 28  1  0  0  0  0
 31 30  1  0  0  0  0
 31 34  1  0  0  0  0
 32 34  2  0  0  0  0
 33 35  2  0  0  0  0
 33 31  1  0  0  0  0
 34 36  1  0  0  0  0
 35 32  1  0  0  0  0
 36 38  1  0  0  0  0
 36 37  1  0  0  0  0
 38 43  1  0  0  0  0
 40 41  1  0  0  0  0
 41 39  1  0  0  0  0
 42 38  1  0  0  0  0
 42 40  1  0  0  0  0
 43 41  1  0  0  0  0
M  END
>  <MODEL>
4

>  <REMARK>
 VINA RESULT:      -6.6      2.942      6.764
  Name = 
  9 active torsions:
  status: ('A' for Active; 'I' for Inactive)
    1  A    between atoms: C_1  and  C_34
    2  A    between atoms: N_2  and  C_6
    3  A    between atoms: N_2  and  C_13
    4  A    between atoms: C_3  and  N_4
    5  A    between atoms: C_3  and  C_12
    6  A    between atoms: C_6  and  C_12
    7  A    between atoms: N_11  and  C_14
    8  A    between atoms: C_14  and  C_22
    9  A    between atoms: C_19  and  C_37
                            x       y       z     vdW  Elec       q    Type
                         _______ _______ _______ _____ _____    ______ ____

>  <TORSDO>
F 9

$$$$
=
 OpenBabel11052420463D

 43 50  0  0  1  0  0  0  0  0999 V2000
  191.5210  176.8730  148.0370 C   0  0  0  0  0  0  0  0  0  0  0  0
  193.8240  174.2890  144.3350 C   0  0  0  0  0  0  0  0  0  0  0  0
  191.7990  172.9470  142.9020 C   0  0  0  0  0  0  0  0  0  0  0  0
  193.1620  175.9160  146.5350 C   0  0  0  0  0  0  0  0  0  0  0  0
  190.5020  176.2020  147.3600 C   0  0  0  0  0  3  0  0  0  0  0  0
  191.2220  177.6680  149.0940 F   0  0  0  0  0  0  0  0  0  0  0  0
  192.1360  175.2360  145.8360 C   0  0  0  0  0  0  0  0  0  0  0  0
  192.8490  176.7300  147.6270 C   0  0  0  0  0  3  0  0  0  0  0  0
  190.8050  175.3890  146.2640 C   0  0  0  0  0  3  0  0  0  0  0  0
  191.4740  173.7480  144.0050 C   0  0  0  0  0  3  0  0  0  0  0  0
  192.4670  174.4240  144.7300 C   0  0  0  0  0  0  0  0  0  0  0  0
  194.8190  174.9730  145.0490 C   0  0  0  0  0  3  0  0  0  0  0  0
  194.1620  173.4670  143.2410 C   0  0  0  0  0  0  0  0  0  0  0  0
  193.1430  172.8170  142.5310 C   0  0  0  0  0  3  0  0  0  0  0  0
  194.4920  175.7800  146.1370 C   0  0  0  0  0  3  0  0  0  0  0  0
  195.6150  173.3020  142.8130 C   0  0  2  0  0  3  0  0  0  0  0  0
  195.6470  171.5210  144.4420 C   0  0  2  0  0  3  0  0  0  0  0  0
  196.6300  170.8990  145.4110 C   0  0  2  0  0  3  0  0  0  0  0  0
  196.0360  170.5640  143.3920 C   0  0  1  0  0  3  0  0  0  0  0  0
  195.7420  172.2300  141.9590 O   0  0  0  0  0  0  0  0  0  0  0  0
  196.4110  172.0450  143.2020 C   0  0  2  0  0  0  0  0  0  0  0  0
  197.0210  169.9080  144.3390 C   0  0  0  0  0  2  0  0  0  0  0  0
  196.4090  169.1580  147.1290 C   0  0  0  0  0  2  0  0  0  0  0  0
  195.8870  170.2160  146.5150 C   0  0  0  0  0  3  0  0  0  0  0  0
  190.7690  172.2580  142.1670 N   0  0  0  0  0  0  0  0  0  0  0  0
  190.5470  170.8310  142.3560 C   0  0  0  0  0  1  0  0  0  0  0  0
  189.8530  172.9740  141.2860 C   0  0  0  0  0  2  0  0  0  0  0  0
  188.8460  173.7680  142.1060 C   0  0  2  0  0  3  0  0  0  0  0  0
  187.6410  173.0710  142.1590 O   0  0  0  0  0  1  0  0  0  0  0  0
  188.6010  175.1440  141.5050 C   0  0  0  0  0  2  0  0  0  0  0  0
  189.1540  176.1990  142.3450 N   0  0  0  0  0  0  0  0  0  0  0  0
  189.3340  177.9090  143.7670 N   0  0  0  0  0  0  0  0  0  0  0  0
  190.4570  176.5080  142.4410 C   0  0  0  0  0  3  0  0  0  0  0  0
  188.4980  177.0530  143.1500 C   0  0  0  0  0  0  0  0  0  0  0  0
  190.5660  177.5660  143.3250 C   0  0  0  0  0  3  0  0  0  0  0  0
  186.9970  177.0890  143.3200 C   0  0  1  0  0  3  0  0  0  0  0  0
  186.6260  176.4550  144.5060 O   0  0  0  0  0  1  0  0  0  0  0  0
  186.4050  178.4370  143.2630 N   0  0  0  0  0  0  0  0  0  0  0  0
  184.0640  178.5890  145.9370 C   0  0  0  0  0  1  0  0  0  0  0  0
  184.0430  178.5850  143.5110 N   0  0  0  0  0  2  0  0  0  0  0  0
  184.6480  179.1930  144.6790 C   0  0  2  0  0  3  0  0  0  0  0  0
  185.1280  178.4490  142.5480 C   0  0  0  0  0  2  0  0  0  0  0  0
  186.1230  178.8920  144.6130 C   0  0  0  0  0  2  0  0  0  0  0  0
  1  6  1  0  0  0  0
  2 11  1  0  0  0  0
  2 12  1  0  0  0  0
  3 10  1  0  0  0  0
  4  8  2  0  0  0  0
  5  1  2  0  0  0  0
  7  9  2  0  0  0  0
  7  4  1  0  0  0  0
  8  1  1  0  0  0  0
  9  5  1  0  0  0  0
 10 11  2  0  0  0  0
 11  7  1  0  0  0  0
 12 15  2  0  0  0  0
 13  2  2  0  0  0  0
 14  3  2  0  0  0  0
 14 13  1  0  0  0  0
 15  4  1  0  0  0  0
 16 21  1  0  0  0  0
 16 13  1  1  0  0  0
 17 18  1  0  0  0  0
 18 24  1  0  0  0  0
 19 22  1  0  0  0  0
 19 17  1  0  0  0  0
 20 16  1  0  0  0  0
 20 21  1  0  0  0  0
 21 19  1  0  0  0  0
 21 17  1  0  0  0  0
 22 18  1  0  0  0  0
 24 23  2  0  0  0  0
 25 26  1  0  0  0  0
 25  3  1  0  0  0  0
 27 28  1  0  0  0  0
 27 25  1  0  0  0  0
 28 29  1  0  0  0  0
 30 28  1  0  0  0  0
 30 31  1  0  0  0  0
 31 33  1  0  0  0  0
 31 34  1  0  0  0  0
 33 35  2  0  0  0  0
 34 36  1  0  0  0  0
 34 32  2  0  0  0  0
 35 32  1  0  0  0  0
 36 37  1  0  0  0  0
 38 36  1  0  0  0  0
 38 43  1  0  0  0  0
 40 41  1  0  0  0  0
 41 39  1  0  0  0  0
 42 38  1  0  0  0  0
 42 40  1  0  0  0  0
 43 41  1  0  0  0  0
M  END
>  <MODEL>
5

>  <REMARK>
 VINA RESULT:      -6.6      3.138      5.160
  Name = 
  9 active torsions:
  status: ('A' for Active; 'I' for Inactive)
    1  A    between atoms: C_1  and  C_34
    2  A    between atoms: N_2  and  C_6
    3  A    between atoms: N_2  and  C_13
    4  A    between atoms: C_3  and  N_4
    5  A    between atoms: C_3  and  C_12
    6  A    between atoms: C_6  and  C_12
    7  A    between atoms: N_11  and  C_14
    8  A    between atoms: C_14  and  C_22
    9  A    between atoms: C_19  and  C_37
                            x       y       z     vdW  Elec       q    Type
                         _______ _______ _______ _____ _____    ______ ____

>  <TORSDO>
F 9

$$$$
=
 OpenBabel11052420463D

 43 50  0  0  1  0  0  0  0  0999 V2000
  191.6420  177.1550  148.3390 C   0  0  0  0  0  0  0  0  0  0  0  0
  193.0740  175.2770  143.8550 C   0  0  0  0  0  0  0  0  0  0  0  0
  190.7760  174.1390  142.6810 C   0  0  0  0  0  0  0  0  0  0  0  0
  192.9150  176.5010  146.3850 C   0  0  0  0  0  0  0  0  0  0  0  0
  190.4940  176.5790  147.7910 C   0  0  0  0  0  3  0  0  0  0  0  0
  191.5840  177.7570  149.5520 F   0  0  0  0  0  0  0  0  0  0  0  0
  191.7550  175.9200  145.8160 C   0  0  0  0  0  0  0  0  0  0  0  0
  192.8500  177.1150  147.6370 C   0  0  0  0  0  3  0  0  0  0  0  0
  190.5480  175.9660  146.5360 C   0  0  0  0  0  3  0  0  0  0  0  0
  190.7030  174.7380  143.9450 C   0  0  0  0  0  3  0  0  0  0  0  0
  191.8340  175.3100  144.5450 C   0  0  0  0  0  0  0  0  0  0  0  0
  194.2050  175.8600  144.4440 C   0  0  0  0  0  3  0  0  0  0  0  0
  193.1620  174.6560  142.5920 C   0  0  0  0  0  0  0  0  0  0  0  0
  192.0080  174.1060  142.0170 C   0  0  0  0  0  3  0  0  0  0  0  0
  194.1270  176.4670  145.6970 C   0  0  0  0  0  3  0  0  0  0  0  0
  194.4880  174.6010  141.8440 C   0  0  2  0  0  3  0  0  0  0  0  0
  194.9230  172.6750  143.2320 C   0  0  2  0  0  3  0  0  0  0  0  0
  196.1110  172.0110  143.8960 C   0  0  2  0  0  3  0  0  0  0  0  0
  195.0940  171.8430  142.0300 C   0  0  1  0  0  3  0  0  0  0  0  0
  194.4500  173.6240  140.8760 O   0  0  0  0  0  0  0  0  0  0  0  0
  195.3820  173.3520  141.9180 C   0  0  2  0  0  0  0  0  0  0  0  0
  196.2800  171.1460  142.6670 C   0  0  0  0  0  2  0  0  0  0  0  0
  194.5830  171.5590  145.7650 C   0  0  0  0  0  2  0  0  0  0  0  0
  195.6480  171.1910  145.0570 C   0  0  0  0  0  3  0  0  0  0  0  0
  189.6050  173.5540  142.0760 N   0  0  0  0  0  0  0  0  0  0  0  0
  189.7110  172.3540  141.2590 C   0  0  0  0  0  1  0  0  0  0  0  0
  188.2700  174.0790  142.3380 C   0  0  0  0  0  2  0  0  0  0  0  0
  187.8550  175.0380  141.2300 C   0  0  2  0  0  3  0  0  0  0  0  0
  188.5820  174.7540  140.0770 O   0  0  0  0  0  1  0  0  0  0  0  0
  188.0960  176.4860  141.6300 C   0  0  0  0  0  2  0  0  0  0  0  0
  186.9160  177.3080  141.3930 N   0  0  0  0  0  0  0  0  0  0  0  0
  185.1780  178.6730  141.7040 N   0  0  0  0  0  0  0  0  0  0  0  0
  186.2940  177.4450  140.2120 C   0  0  0  0  0  3  0  0  0  0  0  0
  186.2280  178.0540  142.2760 C   0  0  0  0  0  0  0  0  0  0  0  0
  185.2190  178.2940  140.4060 C   0  0  0  0  0  3  0  0  0  0  0  0
  186.5580  178.1630  143.7470 C   0  0  1  0  0  3  0  0  0  0  0  0
  186.1020  179.3770  144.2600 O   0  0  0  0  0  1  0  0  0  0  0  0
  186.0590  177.0480  144.5710 N   0  0  0  0  0  0  0  0  0  0  0  0
  185.4930  178.4060  147.8090 C   0  0  0  0  0  1  0  0  0  0  0  0
  186.9920  176.8200  146.7480 N   0  0  0  0  0  2  0  0  0  0  0  0
  185.6020  177.2010  146.9010 C   0  0  2  0  0  3  0  0  0  0  0  0
  187.1250  176.4210  145.3530 C   0  0  0  0  0  2  0  0  0  0  0  0
  185.0940  177.5570  145.5280 C   0  0  0  0  0  2  0  0  0  0  0  0
  1  6  1  0  0  0  0
  2 12  1  0  0  0  0
  2 11  1  0  0  0  0
  3 10  1  0  0  0  0
  4  8  1  0  0  0  0
  5  1  1  0  0  0  0
  7  4  2  0  0  0  0
  7  9  1  0  0  0  0
  8  1  2  0  0  0  0
  9  5  2  0  0  0  0
 10 11  2  0  0  0  0
 11  7  1  0  0  0  0
 12 15  2  0  0  0  0
 13  2  2  0  0  0  0
 14 13  1  0  0  0  0
 14  3  2  0  0  0  0
 15  4  1  0  0  0  0
 16 21  1  0  0  0  0
 16 13  1  1  0  0  0
 17 18  1  0  0  0  0
 18 24  1  0  0  0  0
 19 22  1  0  0  0  0
 19 17  1  0  0  0  0
 20 16  1  0  0  0  0
 20 21  1  0  0  0  0
 21 19  1  0  0  0  0
 21 17  1  0  0  0  0
 22 18  1  0  0  0  0
 24 23  2  0  0  0  0
 25 27  1  0  0  0  0
 25  3  1  0  0  0  0
 26 25  1  0  0  0  0
 28 30  1  0  0  0  0
 28 27  1  0  0  0  0
 29 28  1  0  0  0  0
 31 30  1  0  0  0  0
 31 34  1  0  0  0  0
 32 34  2  0  0  0  0
 33 35  2  0  0  0  0
 33 31  1  0  0  0  0
 34 36  1  0  0  0  0
 35 32  1  0  0  0  0
 36 37  1  0  0  0  0
 36 38  1  0  0  0  0
 38 42  1  0  0  0  0
 38 43  1  0  0  0  0
 40 41  1  0  0  0  0
 41 39  1  0  0  0  0
 42 40  1  0  0  0  0
 43 41  1  0  0  0  0
M  END
>  <MODEL>
6

>  <REMARK>
 VINA RESULT:      -6.5      3.438      5.732
  Name = 
  9 active torsions:
  status: ('A' for Active; 'I' for Inactive)
    1  A    between atoms: C_1  and  C_34
    2  A    between atoms: N_2  and  C_6
    3  A    between atoms: N_2  and  C_13
    4  A    between atoms: C_3  and  N_4
    5  A    between atoms: C_3  and  C_12
    6  A    between atoms: C_6  and  C_12
    7  A    between atoms: N_11  and  C_14
    8  A    between atoms: C_14  and  C_22
    9  A    between atoms: C_19  and  C_37
                            x       y       z     vdW  Elec       q    Type
                         _______ _______ _______ _____ _____    ______ ____

>  <TORSDO>
F 9

$$$$
=
 OpenBabel11052420463D

 43 50  0  0  1  0  0  0  0  0999 V2000
  184.3930  178.5730  144.1280 C   0  0  0  0  0  0  0  0  0  0  0  0
  188.4640  175.9370  145.5980 C   0  0  0  0  0  0  0  0  0  0  0  0
  189.4510  174.6230  143.3060 C   0  0  0  0  0  0  0  0  0  0  0  0
  186.1880  177.5830  145.4180 C   0  0  0  0  0  0  0  0  0  0  0  0
  184.8460  177.9160  142.9820 C   0  0  0  0  0  3  0  0  0  0  0  0
  183.3040  179.3770  144.0600 F   0  0  0  0  0  0  0  0  0  0  0  0
  186.6620  176.9180  144.2610 C   0  0  0  0  0  0  0  0  0  0  0  0
  185.0620  178.4060  145.3430 C   0  0  0  0  0  3  0  0  0  0  0  0
  185.9750  177.0930  143.0460 C   0  0  0  0  0  3  0  0  0  0  0  0
  188.3110  175.4330  143.2220 C   0  0  0  0  0  3  0  0  0  0  0  0
  187.8060  176.0950  144.3500 C   0  0  0  0  0  0  0  0  0  0  0  0
  187.9710  176.6080  146.7260 C   0  0  0  0  0  3  0  0  0  0  0  0
  189.5980  175.1060  145.6960 C   0  0  0  0  0  0  0  0  0  0  0  0
  190.0840  174.4700  144.5450 C   0  0  0  0  0  3  0  0  0  0  0  0
  186.8440  177.4240  146.6370 C   0  0  0  0  0  3  0  0  0  0  0  0
  190.3090  174.9150  147.0310 C   0  0  2  0  0  3  0  0  0  0  0  0
  192.2260  175.8140  145.8720 C   0  0  2  0  0  3  0  0  0  0  0  0
  193.7310  175.6420  145.8840 C   0  0  2  0  0  3  0  0  0  0  0  0
  192.3150  176.9030  146.8590 C   0  0  1  0  0  3  0  0  0  0  0  0
  190.4160  176.1180  147.6910 O   0  0  0  0  0  0  0  0  0  0  0  0
  191.6720  175.5750  147.2980 C   0  0  2  0  0  0  0  0  0  0  0  0
  193.8250  176.7700  146.8860 C   0  0  0  0  0  2  0  0  0  0  0  0
  193.5560  176.0050  143.4600 C   0  0  0  0  0  2  0  0  0  0  0  0
  194.2960  176.0620  144.5640 C   0  0  0  0  0  3  0  0  0  0  0  0
  189.9590  173.9480  142.1380 N   0  0  0  0  0  0  0  0  0  0  0  0
  189.3530  174.1620  140.8320 C   0  0  0  0  0  1  0  0  0  0  0  0
  191.1500  173.1090  142.2010 C   0  0  0  0  0  2  0  0  0  0  0  0
  191.1670  172.1290  141.0360 C   0  0  2  0  0  3  0  0  0  0  0  0
  190.3750  171.0270  141.3490 O   0  0  0  0  0  1  0  0  0  0  0  0
  192.5800  171.6570  140.7270 C   0  0  0  0  0  2  0  0  0  0  0  0
  193.4940  172.7810  140.5690 N   0  0  0  0  0  0  0  0  0  0  0  0
  195.2060  174.1850  140.8510 N   0  0  0  0  0  0  0  0  0  0  0  0
  193.3470  173.7800  139.6850 C   0  0  0  0  0  3  0  0  0  0  0  0
  194.6170  173.0450  141.2600 C   0  0  0  0  0  0  0  0  0  0  0  0
  194.4100  174.6470  139.8590 C   0  0  0  0  0  3  0  0  0  0  0  0
  195.1470  172.1950  142.3920 C   0  0  1  0  0  3  0  0  0  0  0  0
  196.5340  172.0730  142.3010 O   0  0  0  0  0  1  0  0  0  0  0  0
  194.7700  172.6610  143.7370 N   0  0  0  0  0  0  0  0  0  0  0  0
  196.8160  170.8460  146.0100 C   0  0  0  0  0  1  0  0  0  0  0  0
  194.4700  170.9930  145.4080 N   0  0  0  0  0  2  0  0  0  0  0  0
  195.6430  171.7680  145.7620 C   0  0  2  0  0  3  0  0  0  0  0  0
  193.7980  171.7720  144.3760 C   0  0  0  0  0  2  0  0  0  0  0  0
  195.9450  172.6640  144.5900 C   0  0  0  0  0  2  0  0  0  0  0  0
  1  8  1  0  0  0  0
  2 13  1  0  0  0  0
  2 12  1  0  0  0  0
  3 14  1  0  0  0  0
  4 15  1  0  0  0  0
  5  9  1  0  0  0  0
  5  1  2  0  0  0  0
  6  1  1  0  0  0  0
  7 11  1  0  0  0  0
  7  4  1  0  0  0  0
  8  4  2  0  0  0  0
  9  7  2  0  0  0  0
 10  3  2  0  0  0  0
 10 11  1  0  0  0  0
 11  2  2  0  0  0  0
 14 13  2  0  0  0  0
 15 12  2  0  0  0  0
 16 13  1  6  0  0  0
 16 21  1  0  0  0  0
 16 20  1  0  0  0  0
 17 18  1  0  0  0  0
 17 19  1  0  0  0  0
 17 21  1  0  0  0  0
 18 22  1  0  0  0  0
 19 22  1  0  0  0  0
 19 21  1  0  0  0  0
 21 20  1  0  0  0  0
 23 24  2  0  0  0  0
 24 18  1  0  0  0  0
 25 27  1  0  0  0  0
 25  3  1  0  0  0  0
 26 25  1  0  0  0  0
 28 29  1  0  0  0  0
 28 27  1  0  0  0  0
 30 28  1  0  0  0  0
 31 30  1  0  0  0  0
 31 34  1  0  0  0  0
 32 34  2  0  0  0  0
 33 35  2  0  0  0  0
 33 31  1  0  0  0  0
 34 36  1  0  0  0  0
 35 32  1  0  0  0  0
 36 38  1  0  0  0  0
 37 36  1  0  0  0  0
 38 42  1  0  0  0  0
 38 43  1  0  0  0  0
 40 41  1  0  0  0  0
 41 39  1  0  0  0  0
 42 40  1  0  0  0  0
 43 41  1  0  0  0  0
M  END
>  <MODEL>
7

>  <REMARK>
 VINA RESULT:      -6.4      2.828      5.714
  Name = 
  9 active torsions:
  status: ('A' for Active; 'I' for Inactive)
    1  A    between atoms: C_1  and  C_34
    2  A    between atoms: N_2  and  C_6
    3  A    between atoms: N_2  and  C_13
    4  A    between atoms: C_3  and  N_4
    5  A    between atoms: C_3  and  C_12
    6  A    between atoms: C_6  and  C_12
    7  A    between atoms: N_11  and  C_14
    8  A    between atoms: C_14  and  C_22
    9  A    between atoms: C_19  and  C_37
                            x       y       z     vdW  Elec       q    Type
                         _______ _______ _______ _____ _____    ______ ____

>  <TORSDO>
F 9

$$$$
=
 OpenBabel11052420463D

 43 50  0  0  1  0  0  0  0  0999 V2000
  185.0480  178.3460  144.3190 C   0  0  0  0  0  0  0  0  0  0  0  0
  189.6730  176.5660  143.2550 C   0  0  0  0  0  0  0  0  0  0  0  0
  189.3350  174.5240  141.3390 C   0  0  0  0  0  0  0  0  0  0  0  0
  187.4380  177.9590  144.2500 C   0  0  0  0  0  0  0  0  0  0  0  0
  184.8510  177.3240  143.3890 C   0  0  0  0  0  3  0  0  0  0  0  0
  183.9860  179.0340  144.8030 F   0  0  0  0  0  0  0  0  0  0  0  0
  187.2510  176.9260  143.3000 C   0  0  0  0  0  0  0  0  0  0  0  0
  186.3390  178.6620  144.7490 C   0  0  0  0  0  3  0  0  0  0  0  0
  185.9440  176.6180  142.8800 C   0  0  0  0  0  3  0  0  0  0  0  0
  188.2240  175.2110  141.8460 C   0  0  0  0  0  3  0  0  0  0  0  0
  188.3720  176.2300  142.7980 C   0  0  0  0  0  0  0  0  0  0  0  0
  189.8270  177.5930  144.1980 C   0  0  0  0  0  3  0  0  0  0  0  0
  190.7940  175.8640  142.7690 C   0  0  0  0  0  0  0  0  0  0  0  0
  190.6110  174.8610  141.8070 C   0  0  0  0  0  3  0  0  0  0  0  0
  188.7210  178.2840  144.6900 C   0  0  0  0  0  3  0  0  0  0  0  0
  192.1960  176.2040  143.2600 C   0  0  2  0  0  3  0  0  0  0  0  0
  191.4090  175.3520  145.3760 C   0  0  2  0  0  3  0  0  0  0  0  0
  191.6230  175.6250  146.8500 C   0  0  2  0  0  3  0  0  0  0  0  0
  192.4870  174.3490  145.3770 C   0  0  1  0  0  3  0  0  0  0  0  0
  192.9650  175.0650  143.3340 O   0  0  0  0  0  0  0  0  0  0  0  0
  192.7130  175.6600  144.6020 C   0  0  2  0  0  0  0  0  0  0  0  0
  192.7210  174.5870  146.8560 C   0  0  0  0  0  2  0  0  0  0  0  0
  189.2210  175.1750  147.0980 C   0  0  0  0  0  2  0  0  0  0  0  0
  190.4400  175.1460  147.6290 C   0  0  0  0  0  3  0  0  0  0  0  0
  189.1690  173.4780  140.3610 N   0  0  0  0  0  0  0  0  0  0  0  0
  188.3770  173.7030  139.1600 C   0  0  0  0  0  1  0  0  0  0  0  0
  189.8610  172.2010  140.4860 C   0  0  0  0  0  2  0  0  0  0  0  0
  190.8240  172.0070  139.3220 C   0  0  2  0  0  3  0  0  0  0  0  0
  190.8740  170.6570  138.9840 O   0  0  0  0  0  1  0  0  0  0  0  0
  192.2240  172.4870  139.6740 C   0  0  0  0  0  2  0  0  0  0  0  0
  192.6650  173.5480  138.7780 N   0  0  0  0  0  0  0  0  0  0  0  0
  193.8100  175.2510  137.9000 N   0  0  0  0  0  0  0  0  0  0  0  0
  192.0620  173.8900  137.6280 C   0  0  0  0  0  3  0  0  0  0  0  0
  193.7120  174.3800  138.9220 C   0  0  0  0  0  0  0  0  0  0  0  0
  192.7750  174.9430  137.0840 C   0  0  0  0  0  3  0  0  0  0  0  0
  194.6530  174.3760  140.1050 C   0  0  1  0  0  3  0  0  0  0  0  0
  195.3630  173.1770  140.1580 O   0  0  0  0  0  1  0  0  0  0  0  0
  195.5850  175.5160  140.1510 N   0  0  0  0  0  0  0  0  0  0  0  0
  197.8650  174.8070  142.7860 C   0  0  0  0  0  1  0  0  0  0  0  0
  196.0990  176.3980  142.3000 N   0  0  0  0  0  2  0  0  0  0  0  0
  197.3020  175.7820  141.7760 C   0  0  2  0  0  3  0  0  0  0  0  0
  195.1990  176.5030  141.1590 C   0  0  0  0  0  2  0  0  0  0  0  0
  196.9040  175.0390  140.5270 C   0  0  0  0  0  2  0  0  0  0  0  0
  1  8  1  0  0  0  0
  1  6  1  0  0  0  0
  2 12  1  0  0  0  0
  3 14  2  0  0  0  0
  3 10  1  0  0  0  0
  4 15  1  0  0  0  0
  4  8  2  0  0  0  0
  5  1  2  0  0  0  0
  7  4  1  0  0  0  0
  9  7  2  0  0  0  0
  9  5  1  0  0  0  0
 10 11  2  0  0  0  0
 11  2  1  0  0  0  0
 11  7  1  0  0  0  0
 12 15  2  0  0  0  0
 13  2  2  0  0  0  0
 14 13  1  0  0  0  0
 16 13  1  1  0  0  0
 16 20  1  0  0  0  0
 16 21  1  0  0  0  0
 17 19  1  0  0  0  0
 17 18  1  0  0  0  0
 18 22  1  0  0  0  0
 18 24  1  0  0  0  0
 19 22  1  0  0  0  0
 20 21  1  0  0  0  0
 21 17  1  0  0  0  0
 21 19  1  0  0  0  0
 23 24  2  0  0  0  0
 25 27  1  0  0  0  0
 25  3  1  0  0  0  0
 26 25  1  0  0  0  0
 28 30  1  0  0  0  0
 28 27  1  0  0  0  0
 29 28  1  0  0  0  0
 31 34  1  0  0  0  0
 31 30  1  0  0  0  0
 32 34  2  0  0  0  0
 33 31  1  0  0  0  0
 34 36  1  0  0  0  0
 35 33  2  0  0  0  0
 35 32  1  0  0  0  0
 36 38  1  0  0  0  0
 36 37  1  0  0  0  0
 38 43  1  0  0  0  0
 38 42  1  0  0  0  0
 41 40  1  0  0  0  0
 41 39  1  0  0  0  0
 42 40  1  0  0  0  0
 43 41  1  0  0  0  0
M  END
>  <MODEL>
8

>  <REMARK>
 VINA RESULT:      -6.3      2.657      5.745
  Name = 
  9 active torsions:
  status: ('A' for Active; 'I' for Inactive)
    1  A    between atoms: C_1  and  C_34
    2  A    between atoms: N_2  and  C_6
    3  A    between atoms: N_2  and  C_13
    4  A    between atoms: C_3  and  N_4
    5  A    between atoms: C_3  and  C_12
    6  A    between atoms: C_6  and  C_12
    7  A    between atoms: N_11  and  C_14
    8  A    between atoms: C_14  and  C_22
    9  A    between atoms: C_19  and  C_37
                            x       y       z     vdW  Elec       q    Type
                         _______ _______ _______ _____ _____    ______ ____

>  <TORSDO>
F 9

$$$$
=
 OpenBabel11052420463D

 43 50  0  0  1  0  0  0  0  0999 V2000
  187.1280  177.7600  142.3330 C   0  0  0  0  0  0  0  0  0  0  0  0
  189.8050  173.4640  142.0780 C   0  0  0  0  0  0  0  0  0  0  0  0
  192.5270  174.1990  142.1400 C   0  0  0  0  0  0  0  0  0  0  0  0
  187.8010  175.4370  142.1970 C   0  0  0  0  0  0  0  0  0  0  0  0
  188.4680  178.1530  142.3420 C   0  0  0  0  0  3  0  0  0  0  0  0
  186.1490  178.6940  142.3980 F   0  0  0  0  0  0  0  0  0  0  0  0
  189.1630  175.8230  142.2130 C   0  0  0  0  0  0  0  0  0  0  0  0
  186.7960  176.4050  142.2590 C   0  0  0  0  0  3  0  0  0  0  0  0
  189.4810  177.1920  142.2840 C   0  0  0  0  0  3  0  0  0  0  0  0
  191.5270  175.1790  142.1870 C   0  0  0  0  0  3  0  0  0  0  0  0
  190.1690  174.8340  142.1580 C   0  0  0  0  0  0  0  0  0  0  0  0
  188.4470  173.1120  142.0610 C   0  0  0  0  0  3  0  0  0  0  0  0
  190.8040  172.4720  142.0070 C   0  0  0  0  0  0  0  0  0  0  0  0
  192.1520  172.8530  142.0520 C   0  0  0  0  0  3  0  0  0  0  0  0
  187.4550  174.0890  142.1210 C   0  0  0  0  0  3  0  0  0  0  0  0
  190.4300  170.9980  141.9070 C   0  0  2  0  0  3  0  0  0  0  0  0
  190.4360  171.3990  139.5270 C   0  0  2  0  0  3  0  0  0  0  0  0
  189.6900  170.9130  138.3010 C   0  0  2  0  0  3  0  0  0  0  0  0
  191.4600  170.3560  139.3510 C   0  0  1  0  0  3  0  0  0  0  0  0
  191.5320  170.2480  141.5640 O   0  0  0  0  0  0  0  0  0  0  0  0
  190.5190  170.2530  140.5640 C   0  0  2  0  0  0  0  0  0  0  0  0
  190.7480  169.8500  138.1110 C   0  0  0  0  0  2  0  0  0  0  0  0
  189.8560  171.5760  135.9420 C   0  0  0  0  0  2  0  0  0  0  0  0
  189.7750  171.9410  137.2190 C   0  0  0  0  0  3  0  0  0  0  0  0
  193.9200  174.5690  142.1710 N   0  0  0  0  0  0  0  0  0  0  0  0
  194.3370  175.9240  141.8400 C   0  0  0  0  0  1  0  0  0  0  0  0
  194.9460  173.6370  142.6240 C   0  0  0  0  0  2  0  0  0  0  0  0
  195.4280  174.0200  144.0160 C   0  0  2  0  0  3  0  0  0  0  0  0
  196.4130  173.1250  144.4270 O   0  0  0  0  0  1  0  0  0  0  0  0
  194.2870  174.0050  145.0230 C   0  0  0  0  0  2  0  0  0  0  0  0
  194.1570  175.2890  145.7000 N   0  0  0  0  0  0  0  0  0  0  0  0
  193.3630  176.9710  146.9330 N   0  0  0  0  0  0  0  0  0  0  0  0
  195.0440  176.2940  145.6310 C   0  0  0  0  0  3  0  0  0  0  0  0
  193.1540  175.7180  146.4870 C   0  0  0  0  0  0  0  0  0  0  0  0
  194.5510  177.3340  146.3980 C   0  0  0  0  0  3  0  0  0  0  0  0
  191.9140  174.9160  146.8100 C   0  0  1  0  0  3  0  0  0  0  0  0
  191.4000  175.2910  148.0510 O   0  0  0  0  0  1  0  0  0  0  0  0
  190.8570  174.9830  145.7860 N   0  0  0  0  0  0  0  0  0  0  0  0
  188.5980  177.5030  146.8780 C   0  0  0  0  0  1  0  0  0  0  0  0
  188.6120  175.0970  146.5650 N   0  0  0  0  0  2  0  0  0  0  0  0
  188.9270  176.3650  145.9370 C   0  0  2  0  0  3  0  0  0  0  0  0
  189.6810  174.1950  146.1560 C   0  0  0  0  0  2  0  0  0  0  0  0
  190.4060  176.3570  145.6540 C   0  0  0  0  0  2  0  0  0  0  0  0
  1  5  1  0  0  0  0
  1  6  1  0  0  0  0
  2 11  1  0  0  0  0
  3 25  1  0  0  0  0
  3 10  1  0  0  0  0
  4  7  2  0  0  0  0
  4  8  1  0  0  0  0
  7  9  1  0  0  0  0
  8  1  2  0  0  0  0
  9  5  2  0  0  0  0
 11 10  2  0  0  0  0
 11  7  1  0  0  0  0
 12  2  1  0  0  0  0
 12 15  2  0  0  0  0
 13 14  1  0  0  0  0
 13  2  2  0  0  0  0
 14  3  2  0  0  0  0
 15  4  1  0  0  0  0
 16 13  1  6  0  0  0
 17 21  1  0  0  0  0
 18 17  1  0  0  0  0
 19 17  1  0  0  0  0
 19 21  1  0  0  0  0
 20 16  1  0  0  0  0
 21 20  1  0  0  0  0
 21 16  1  0  0  0  0
 22 18  1  0  0  0  0
 22 19  1  0  0  0  0
 23 24  2  0  0  0  0
 24 18  1  0  0  0  0
 25 27  1  0  0  0  0
 26 25  1  0  0  0  0
 27 28  1  0  0  0  0
 28 29  1  0  0  0  0
 28 30  1  0  0  0  0
 30 31  1  0  0  0  0
 31 34  1  0  0  0  0
 33 31  1  0  0  0  0
 33 35  2  0  0  0  0
 34 36  1  0  0  0  0
 34 32  2  0  0  0  0
 35 32  1  0  0  0  0
 36 37  1  0  0  0  0
 38 42  1  0  0  0  0
 38 36  1  0  0  0  0
 41 40  1  0  0  0  0
 41 39  1  0  0  0  0
 42 40  1  0  0  0  0
 43 38  1  0  0  0  0
 43 41  1  0  0  0  0
M  END
>  <MODEL>
9

>  <REMARK>
 VINA RESULT:      -6.3      2.817      6.214
  Name = 
  9 active torsions:
  status: ('A' for Active; 'I' for Inactive)
    1  A    between atoms: C_1  and  C_34
    2  A    between atoms: N_2  and  C_6
    3  A    between atoms: N_2  and  C_13
    4  A    between atoms: C_3  and  N_4
    5  A    between atoms: C_3  and  C_12
    6  A    between atoms: C_6  and  C_12
    7  A    between atoms: N_11  and  C_14
    8  A    between atoms: C_14  and  C_22
    9  A    between atoms: C_19  and  C_37
                            x       y       z     vdW  Elec       q    Type
                         _______ _______ _______ _____ _____    ______ ____

>  <TORSDO>
F 9

$$$$
