=
 OpenBabel11052417423D

 31 35  0  0  1  0  0  0  0  0999 V2000
  185.1730  177.8000  141.3200 C   0  0  0  0  0  0  0  0  0  0  0  0
  187.6110  177.3730  144.2460 C   0  0  0  0  0  0  0  0  0  0  0  0
  186.9100  177.5710  145.3940 C   0  0  0  0  0  0  0  0  0  0  0  0
  184.8920  178.3280  146.5580 C   0  0  0  0  0  0  0  0  0  0  0  0
  187.0310  177.4860  142.8680 C   0  0  0  0  0  0  0  0  0  0  0  0
  186.0590  177.8010  140.2420 C   0  0  0  0  0  3  0  0  0  0  0  0
  185.4740  177.9240  145.4270 C   0  0  0  0  0  3  0  0  0  0  0  0
  189.8180  176.6710  143.2060 C   0  0  1  0  0  3  0  0  0  0  0  0
  183.8460  177.9590  141.1060 F   0  0  0  0  0  0  0  0  0  0  0  0
  189.0670  177.5620  146.7080 C   0  0  0  0  0  3  0  0  0  0  0  0
  183.4520  178.6930  146.5510 C   0  0  0  0  0  1  0  0  0  0  0  0
  189.3080  177.2500  141.9680 N   0  0  0  0  0  2  0  0  0  0  0  0
  189.0390  177.1450  144.3480 N   0  0  0  0  0  0  0  0  0  0  0  0
  185.6580  177.6480  142.6210 C   0  0  0  0  0  3  0  0  0  0  0  0
  185.6780  178.4960  147.7940 C   0  0  0  0  0  3  0  0  0  0  0  0
  187.9100  177.4570  141.7670 C   0  0  0  0  0  0  0  0  0  0  0  0
  187.4260  177.6300  140.4660 C   0  0  0  0  0  3  0  0  0  0  0  0
  189.7390  177.4170  145.5700 C   0  0  0  0  0  3  0  0  0  0  0  0
  187.5880  177.3300  146.7340 C   0  0  1  0  0  3  0  0  0  0  0  0
  186.9430  178.0740  147.8700 C   0  0  0  0  0  3  0  0  0  0  0  0
  191.2080  173.0670  143.0020 C   0  0  0  0  0  1  0  0  0  0  0  0
  189.8050  174.5490  144.5230 C   0  0  0  0  0  2  0  0  0  0  0  0
  191.0110  174.4410  143.6150 C   0  0  2  0  0  0  0  0  0  0  0  0
  189.7490  175.1470  143.1220 C   0  0  2  0  0  3  0  0  0  0  0  0
  192.2360  175.2960  144.0060 C   0  0  1  0  0  3  0  0  0  0  0  0
  192.8110  175.0280  145.4140 C   0  0  0  0  0  0  0  0  0  0  0  0
  191.7810  174.5930  146.2480 O   0  0  0  0  0  1  0  0  0  0  0  0
  193.4200  176.2830  146.0180 C   0  0  0  0  0  1  0  0  0  0  0  0
  193.8690  173.9410  145.3700 C   0  0  0  0  0  1  0  0  0  0  0  0
  193.2660  176.3400  142.4290 O   0  0  0  0  0  1  0  0  0  0  0  0
  193.2320  175.1680  143.0310 O   0  0  0  0  0  0  0  0  0  0  0  0
  1 14  1  0  0  0  0
  2 13  1  0  0  0  0
  2  3  2  0  0  0  0
  3  7  1  0  0  0  0
  3 19  1  0  0  0  0
  4 15  1  0  0  0  0
  5  2  1  0  0  0  0
  6 17  1  0  0  0  0
  6  1  2  0  0  0  0
  7  4  2  0  0  0  0
  8 12  1  6  0  0  0
  8 13  1  0  0  0  0
  9  1  1  0  0  0  0
 11  4  1  0  0  0  0
 13 18  1  0  0  0  0
 14  5  2  0  0  0  0
 15 20  2  0  0  0  0
 16 12  1  0  0  0  0
 16  5  1  0  0  0  0
 17 16  2  0  0  0  0
 18 10  2  0  0  0  0
 19 10  1  6  0  0  0
 19 20  1  0  0  0  0
 23 21  1  6  0  0  0
 23 25  1  0  0  0  0
 23 22  1  0  0  0  0
 24  8  1  0  0  0  0
 24 23  1  0  0  0  0
 24 22  1  1  0  0  0
 25 31  1  6  0  0  0
 25 26  1  0  0  0  0
 26 28  1  0  0  0  0
 26 27  1  0  0  0  0
 29 26  1  0  0  0  0
 30 31  1  0  0  0  0
M  END
>  <MODEL>
1

>  <REMARK>
 VINA RESULT:      -7.8      0.000      0.000
  Name = 
  4 active torsions:
  status: ('A' for Active; 'I' for Inactive)
    1  A    between atoms: C_1  and  C_19
    2  A    between atoms: O_7  and  C_19
    3  A    between atoms: C_15  and  C_23
    4  A    between atoms: C_19  and  C_22
                            x       y       z     vdW  Elec       q    Type
                         _______ _______ _______ _____ _____    ______ ____

>  <TORSDO>
F 4

$$$$
=
 OpenBabel11052417423D

 31 35  0  0  1  0  0  0  0  0999 V2000
  185.1670  177.7870  146.8600 C   0  0  0  0  0  0  0  0  0  0  0  0
  186.8330  177.0740  143.4820 C   0  0  0  0  0  0  0  0  0  0  0  0
  186.0030  177.5410  142.5110 C   0  0  0  0  0  0  0  0  0  0  0  0
  183.8220  178.3980  141.7990 C   0  0  0  0  0  0  0  0  0  0  0  0
  186.5330  177.1250  144.9510 C   0  0  0  0  0  0  0  0  0  0  0  0
  185.9980  177.0630  147.7160 C   0  0  0  0  0  3  0  0  0  0  0  0
  184.6900  178.1650  142.7840 C   0  0  0  0  0  3  0  0  0  0  0  0
  189.1030  176.0780  144.0300 C   0  0  1  0  0  3  0  0  0  0  0  0
  184.0980  178.4520  147.3560 F   0  0  0  0  0  0  0  0  0  0  0  0
  187.4350  176.4230  140.7570 C   0  0  0  0  0  3  0  0  0  0  0  0
  182.5040  179.0080  142.1120 C   0  0  0  0  0  1  0  0  0  0  0  0
  188.5360  175.7510  145.3340 N   0  0  0  0  0  2  0  0  0  0  0  0
  188.0390  176.3810  143.0750 N   0  0  0  0  0  0  0  0  0  0  0  0
  185.4320  177.8120  145.4880 C   0  0  0  0  0  3  0  0  0  0  0  0
  184.1190  177.9800  140.4160 C   0  0  0  0  0  3  0  0  0  0  0  0
  187.3810  176.4250  145.8320 C   0  0  0  0  0  0  0  0  0  0  0  0
  187.1030  176.3840  147.2020 C   0  0  0  0  0  3  0  0  0  0  0  0
  188.2070  175.9350  141.7230 C   0  0  0  0  0  3  0  0  0  0  0  0
  186.4650  177.5210  141.0620 C   0  0  1  0  0  3  0  0  0  0  0  0
  185.3300  177.5320  140.0760 C   0  0  0  0  0  3  0  0  0  0  0  0
  192.4320  177.9110  144.7490 C   0  0  0  0  0  1  0  0  0  0  0  0
  190.7770  177.5110  142.8570 C   0  0  0  0  0  2  0  0  0  0  0  0
  191.5200  176.9280  144.0390 C   0  0  2  0  0  0  0  0  0  0  0  0
  190.0380  177.2790  144.1680 C   0  0  2  0  0  3  0  0  0  0  0  0
  191.9230  175.4420  143.9240 C   0  0  1  0  0  3  0  0  0  0  0  0
  192.7300  175.0700  142.6600 C   0  0  0  0  0  0  0  0  0  0  0  0
  193.3600  176.2140  142.1720 O   0  0  0  0  0  1  0  0  0  0  0  0
  191.8320  174.5140  141.5670 C   0  0  0  0  0  1  0  0  0  0  0  0
  193.8020  174.0450  142.9830 C   0  0  0  0  0  1  0  0  0  0  0  0
  191.6760  174.5230  145.8550 O   0  0  0  0  0  1  0  0  0  0  0  0
  192.6050  175.0460  145.0810 O   0  0  0  0  0  0  0  0  0  0  0  0
  1  9  1  0  0  0  0
  1  6  1  0  0  0  0
  2  5  1  0  0  0  0
  3  7  1  0  0  0  0
  3  2  2  0  0  0  0
  4 11  1  0  0  0  0
  4  7  2  0  0  0  0
  5 14  1  0  0  0  0
  5 16  2  0  0  0  0
  8 24  1  0  0  0  0
  8 12  1  1  0  0  0
 10 19  1  0  0  0  0
 10 18  2  0  0  0  0
 12 16  1  0  0  0  0
 13  2  1  0  0  0  0
 13  8  1  0  0  0  0
 14  1  2  0  0  0  0
 15  4  1  0  0  0  0
 16 17  1  0  0  0  0
 17  6  2  0  0  0  0
 18 13  1  0  0  0  0
 19 20  1  6  0  0  0
 19  3  1  0  0  0  0
 20 15  2  0  0  0  0
 22 23  1  0  0  0  0
 23 24  1  0  0  0  0
 23 21  1  1  0  0  0
 24 22  1  6  0  0  0
 25 23  1  0  0  0  0
 25 31  1  1  0  0  0
 26 29  1  0  0  0  0
 26 25  1  0  0  0  0
 27 26  1  0  0  0  0
 28 26  1  0  0  0  0
 31 30  1  0  0  0  0
M  END
>  <MODEL>
2

>  <REMARK>
 VINA RESULT:      -7.3      1.797      4.524
  Name = 
  4 active torsions:
  status: ('A' for Active; 'I' for Inactive)
    1  A    between atoms: C_1  and  C_19
    2  A    between atoms: O_7  and  C_19
    3  A    between atoms: C_15  and  C_23
    4  A    between atoms: C_19  and  C_22
                            x       y       z     vdW  Elec       q    Type
                         _______ _______ _______ _____ _____    ______ ____

>  <TORSDO>
F 4

$$$$
=
 OpenBabel11052417423D

 31 35  0  0  1  0  0  0  0  0999 V2000
  190.2730  177.5660  147.7120 C   0  0  0  0  0  0  0  0  0  0  0  0
  189.1180  175.9380  144.4410 C   0  0  0  0  0  0  0  0  0  0  0  0
  188.0440  176.6410  143.9910 C   0  0  0  0  0  0  0  0  0  0  0  0
  186.2800  178.3030  144.3490 C   0  0  0  0  0  0  0  0  0  0  0  0
  189.8480  176.2300  145.7170 C   0  0  0  0  0  0  0  0  0  0  0  0
  191.1990  176.6230  148.1580 C   0  0  0  0  0  3  0  0  0  0  0  0
  187.4590  177.7940  144.7110 C   0  0  0  0  0  3  0  0  0  0  0  0
  190.8000  174.1000  143.9540 C   0  0  1  0  0  3  0  0  0  0  0  0
  190.0150  178.6670  148.4570 F   0  0  0  0  0  0  0  0  0  0  0  0
  187.6310  174.8780  142.2310 C   0  0  0  0  0  3  0  0  0  0  0  0
  185.7130  179.4480  145.1070 C   0  0  0  0  0  1  0  0  0  0  0  0
  191.1250  174.1550  145.3750 N   0  0  0  0  0  2  0  0  0  0  0  0
  189.5210  174.7600  143.6990 N   0  0  0  0  0  0  0  0  0  0  0  0
  189.6010  177.3670  146.5040 C   0  0  0  0  0  3  0  0  0  0  0  0
  185.4950  177.6910  143.2620 C   0  0  0  0  0  3  0  0  0  0  0  0
  190.8100  175.3010  146.1650 C   0  0  0  0  0  0  0  0  0  0  0  0
  191.4670  175.4920  147.3840 C   0  0  0  0  0  3  0  0  0  0  0  0
  188.6540  174.1810  142.7150 C   0  0  0  0  0  3  0  0  0  0  0  0
  187.4500  176.3090  142.6310 C   0  0  1  0  0  3  0  0  0  0  0  0
  186.0160  176.7350  142.4870 C   0  0  0  0  0  3  0  0  0  0  0  0
  194.1960  174.3660  142.1210 C   0  0  0  0  0  1  0  0  0  0  0  0
  191.6970  174.5300  141.6640 C   0  0  0  0  0  2  0  0  0  0  0  0
  192.8100  173.8090  142.3920 C   0  0  2  0  0  0  0  0  0  0  0  0
  191.9080  174.7810  143.1520 C   0  0  2  0  0  3  0  0  0  0  0  0
  192.6130  172.2930  142.6060 C   0  0  1  0  0  3  0  0  0  0  0  0
  192.2880  171.4810  141.3330 C   0  0  0  0  0  0  0  0  0  0  0  0
  192.7770  172.1660  140.2210 O   0  0  0  0  0  1  0  0  0  0  0  0
  190.7900  171.2900  141.1570 C   0  0  0  0  0  1  0  0  0  0  0  0
  192.9540  170.1170  141.3740 C   0  0  0  0  0  1  0  0  0  0  0  0
  193.3660  171.6800  144.5270 O   0  0  0  0  0  1  0  0  0  0  0  0
  193.7280  171.7590  143.2630 O   0  0  0  0  0  0  0  0  0  0  0  0
  1  6  1  0  0  0  0
  1  9  1  0  0  0  0
  2  5  1  0  0  0  0
  3  2  2  0  0  0  0
  3  7  1  0  0  0  0
  4  7  2  0  0  0  0
  4 11  1  0  0  0  0
  5 16  2  0  0  0  0
  5 14  1  0  0  0  0
  8 12  1  1  0  0  0
 10 18  2  0  0  0  0
 12 16  1  0  0  0  0
 13  8  1  0  0  0  0
 13  2  1  0  0  0  0
 14  1  2  0  0  0  0
 15  4  1  0  0  0  0
 16 17  1  0  0  0  0
 17  6  2  0  0  0  0
 18 13  1  0  0  0  0
 19 10  1  1  0  0  0
 19  3  1  0  0  0  0
 20 19  1  0  0  0  0
 20 15  2  0  0  0  0
 22 23  1  0  0  0  0
 23 21  1  6  0  0  0
 23 25  1  0  0  0  0
 23 24  1  0  0  0  0
 24 22  1  6  0  0  0
 24  8  1  0  0  0  0
 25 31  1  6  0  0  0
 26 29  1  0  0  0  0
 26 25  1  0  0  0  0
 27 26  1  0  0  0  0
 28 26  1  0  0  0  0
 31 30  1  0  0  0  0
M  END
>  <MODEL>
3

>  <REMARK>
 VINA RESULT:      -7.2      2.809      5.167
  Name = 
  4 active torsions:
  status: ('A' for Active; 'I' for Inactive)
    1  A    between atoms: C_1  and  C_19
    2  A    between atoms: O_7  and  C_19
    3  A    between atoms: C_15  and  C_23
    4  A    between atoms: C_19  and  C_22
                            x       y       z     vdW  Elec       q    Type
                         _______ _______ _______ _____ _____    ______ ____

>  <TORSDO>
F 4

$$$$
=
 OpenBabel11052417423D

 31 35  0  0  1  0  0  0  0  0999 V2000
  192.6600  173.6920  140.1340 C   0  0  0  0  0  0  0  0  0  0  0  0
  191.9800  175.1050  143.6300 C   0  0  0  0  0  0  0  0  0  0  0  0
  193.1810  175.2690  144.2460 C   0  0  0  0  0  0  0  0  0  0  0  0
  195.5970  174.8740  144.3490 C   0  0  0  0  0  0  0  0  0  0  0  0
  191.8030  174.5380  142.2540 C   0  0  0  0  0  0  0  0  0  0  0  0
  191.3650  173.3670  139.7290 C   0  0  0  0  0  3  0  0  0  0  0  0
  194.4750  174.9070  143.6270 C   0  0  0  0  0  3  0  0  0  0  0  0
  189.4740  175.4920  143.7410 C   0  0  1  0  0  3  0  0  0  0  0  0
  193.7090  173.4360  139.3170 F   0  0  0  0  0  0  0  0  0  0  0  0
  191.9960  175.7590  146.4210 C   0  0  0  0  0  3  0  0  0  0  0  0
  196.8760  174.4870  143.7000 C   0  0  0  0  0  1  0  0  0  0  0  0
  189.3750  174.5320  142.6480 N   0  0  0  0  0  2  0  0  0  0  0  0
  190.7790  175.3920  144.3900 N   0  0  0  0  0  0  0  0  0  0  0  0
  192.8750  174.2680  141.3880 C   0  0  0  0  0  3  0  0  0  0  0  0
  195.5680  175.1340  145.8010 C   0  0  0  0  0  3  0  0  0  0  0  0
  190.4970  174.2330  141.8180 C   0  0  0  0  0  0  0  0  0  0  0  0
  190.2860  173.6380  140.5710 C   0  0  0  0  0  3  0  0  0  0  0  0
  190.8320  175.5470  145.8140 C   0  0  0  0  0  3  0  0  0  0  0  0
  193.2370  175.9470  145.6060 C   0  0  1  0  0  3  0  0  0  0  0  0
  194.4650  175.5920  146.3980 C   0  0  0  0  0  3  0  0  0  0  0  0
  187.4650  178.6240  142.6810 C   0  0  0  0  0  1  0  0  0  0  0  0
  189.2490  177.9040  144.3480 C   0  0  0  0  0  2  0  0  0  0  0  0
  187.9580  177.5560  143.6400 C   0  0  2  0  0  0  0  0  0  0  0  0
  189.2680  176.9060  143.1970 C   0  0  2  0  0  3  0  0  0  0  0  0
  186.9460  176.7120  144.4460 C   0  0  1  0  0  3  0  0  0  0  0  0
  186.5450  177.2920  145.8200 C   0  0  0  0  0  0  0  0  0  0  0  0
  186.4500  178.6800  145.7160 O   0  0  0  0  0  1  0  0  0  0  0  0
  187.5730  176.9600  146.8900 C   0  0  0  0  0  1  0  0  0  0  0  0
  185.1920  176.7620  146.2590 C   0  0  0  0  0  1  0  0  0  0  0  0
  186.2130  175.5840  142.7660 O   0  0  0  0  0  1  0  0  0  0  0  0
  185.8130  176.4600  143.6640 O   0  0  0  0  0  0  0  0  0  0  0  0
  1 14  1  0  0  0  0
  2  3  2  0  0  0  0
  2 13  1  0  0  0  0
  3 19  1  0  0  0  0
  4 15  1  0  0  0  0
  5  2  1  0  0  0  0
  6  1  2  0  0  0  0
  6 17  1  0  0  0  0
  7  3  1  0  0  0  0
  7  4  2  0  0  0  0
  8 12  1  6  0  0  0
  8 13  1  0  0  0  0
  9  1  1  0  0  0  0
 11  4  1  0  0  0  0
 13 18  1  0  0  0  0
 14  5  2  0  0  0  0
 15 20  2  0  0  0  0
 16  5  1  0  0  0  0
 16 12  1  0  0  0  0
 17 16  2  0  0  0  0
 18 10  2  0  0  0  0
 19 20  1  1  0  0  0
 19 10  1  0  0  0  0
 23 21  1  6  0  0  0
 23 22  1  0  0  0  0
 23 25  1  0  0  0  0
 24 23  1  0  0  0  0
 24  8  1  0  0  0  0
 24 22  1  1  0  0  0
 25 31  1  6  0  0  0
 25 26  1  0  0  0  0
 26 29  1  0  0  0  0
 26 28  1  0  0  0  0
 27 26  1  0  0  0  0
 30 31  1  0  0  0  0
M  END
>  <MODEL>
4

>  <REMARK>
 VINA RESULT:      -7.2      3.383      7.081
  Name = 
  4 active torsions:
  status: ('A' for Active; 'I' for Inactive)
    1  A    between atoms: C_1  and  C_19
    2  A    between atoms: O_7  and  C_19
    3  A    between atoms: C_15  and  C_23
    4  A    between atoms: C_19  and  C_22
                            x       y       z     vdW  Elec       q    Type
                         _______ _______ _______ _____ _____    ______ ____

>  <TORSDO>
F 4

$$$$
=
 OpenBabel11052417423D

 31 35  0  0  1  0  0  0  0  0999 V2000
  183.8900  178.2900  141.8500 C   0  0  0  0  0  0  0  0  0  0  0  0
  186.9730  176.7660  143.5410 C   0  0  0  0  0  0  0  0  0  0  0  0
  186.8260  176.9310  144.8830 C   0  0  0  0  0  0  0  0  0  0  0  0
  185.6870  177.9560  146.7950 C   0  0  0  0  0  0  0  0  0  0  0  0
  185.9970  177.2580  142.5150 C   0  0  0  0  0  0  0  0  0  0  0  0
  184.2860  178.2570  140.5130 C   0  0  0  0  0  3  0  0  0  0  0  0
  185.6750  177.6210  145.5030 C   0  0  0  0  0  3  0  0  0  0  0  0
  188.3400  175.7250  141.6730 C   0  0  1  0  0  3  0  0  0  0  0  0
  182.6880  178.8120  142.1880 F   0  0  0  0  0  0  0  0  0  0  0  0
  189.2040  176.1540  145.2350 C   0  0  0  0  0  3  0  0  0  0  0  0
  184.5210  178.6660  147.3800 C   0  0  0  0  0  1  0  0  0  0  0  0
  187.6150  176.6190  140.7760 N   0  0  0  0  0  2  0  0  0  0  0  0
  188.2040  176.1730  143.0570 N   0  0  0  0  0  0  0  0  0  0  0  0
  184.7430  177.7990  142.8420 C   0  0  0  0  0  3  0  0  0  0  0  0
  186.8790  177.7050  147.6280 C   0  0  0  0  0  3  0  0  0  0  0  0
  186.3690  177.2010  141.1570 C   0  0  0  0  0  0  0  0  0  0  0  0
  185.5240  177.7120  140.1670 C   0  0  0  0  0  3  0  0  0  0  0  0
  189.3440  176.0450  143.9170 C   0  0  0  0  0  3  0  0  0  0  0  0
  187.8370  176.3000  145.8280 C   0  0  1  0  0  3  0  0  0  0  0  0
  187.8980  176.9730  147.1710 C   0  0  0  0  0  3  0  0  0  0  0  0
  187.9210  172.2390  140.0500 C   0  0  0  0  0  1  0  0  0  0  0  0
  188.7350  173.3180  142.2060 C   0  0  0  0  0  2  0  0  0  0  0  0
  188.6830  173.3820  140.6960 C   0  0  2  0  0  0  0  0  0  0  0  0
  187.7940  174.3050  141.5270 C   0  0  2  0  0  3  0  0  0  0  0  0
  189.9240  173.9780  139.9960 C   0  0  1  0  0  3  0  0  0  0  0  0
  191.2870  173.4710  140.5180 C   0  0  0  0  0  0  0  0  0  0  0  0
  191.1550  172.1380  140.9080 O   0  0  0  0  0  1  0  0  0  0  0  0
  191.7620  174.2760  141.7170 C   0  0  0  0  0  1  0  0  0  0  0  0
  192.3430  173.5390  139.4310 C   0  0  0  0  0  1  0  0  0  0  0  0
  188.8030  174.5410  138.2470 O   0  0  0  0  0  1  0  0  0  0  0  0
  189.8220  173.7910  138.6130 O   0  0  0  0  0  0  0  0  0  0  0  0
  1  9  1  0  0  0  0
  1 14  1  0  0  0  0
  2  3  2  0  0  0  0
  3  7  1  0  0  0  0
  3 19  1  0  0  0  0
  4 11  1  0  0  0  0
  4 15  1  0  0  0  0
  5 14  2  0  0  0  0
  5  2  1  0  0  0  0
  6  1  2  0  0  0  0
  7  4  2  0  0  0  0
  8 12  1  6  0  0  0
  8 13  1  0  0  0  0
 12 16  1  0  0  0  0
 13  2  1  0  0  0  0
 13 18  1  0  0  0  0
 16  5  1  0  0  0  0
 17  6  1  0  0  0  0
 17 16  2  0  0  0  0
 18 10  2  0  0  0  0
 19 10  1  6  0  0  0
 19 20  1  0  0  0  0
 20 15  2  0  0  0  0
 23 21  1  6  0  0  0
 23 24  1  0  0  0  0
 23 22  1  0  0  0  0
 24  8  1  0  0  0  0
 24 22  1  1  0  0  0
 25 31  1  6  0  0  0
 25 26  1  0  0  0  0
 25 23  1  0  0  0  0
 26 27  1  0  0  0  0
 26 28  1  0  0  0  0
 29 26  1  0  0  0  0
 30 31  1  0  0  0  0
M  END
>  <MODEL>
5

>  <REMARK>
 VINA RESULT:      -7.1      2.538      3.239
  Name = 
  4 active torsions:
  status: ('A' for Active; 'I' for Inactive)
    1  A    between atoms: C_1  and  C_19
    2  A    between atoms: O_7  and  C_19
    3  A    between atoms: C_15  and  C_23
    4  A    between atoms: C_19  and  C_22
                            x       y       z     vdW  Elec       q    Type
                         _______ _______ _______ _____ _____    ______ ____

>  <TORSDO>
F 4

$$$$
=
 OpenBabel11052417423D

 31 35  0  0  1  0  0  0  0  0999 V2000
  186.6630  178.2290  146.8300 C   0  0  0  0  0  0  0  0  0  0  0  0
  189.6520  176.5750  145.0930 C   0  0  0  0  0  0  0  0  0  0  0  0
  190.6650  176.5110  145.9970 C   0  0  0  0  0  0  0  0  0  0  0  0
  191.6550  177.1590  148.1430 C   0  0  0  0  0  0  0  0  0  0  0  0
  188.3110  177.1890  145.3650 C   0  0  0  0  0  0  0  0  0  0  0  0
  185.8120  178.4320  145.7440 C   0  0  0  0  0  3  0  0  0  0  0  0
  190.5710  177.0420  147.3750 C   0  0  0  0  0  3  0  0  0  0  0  0
  188.8280  175.9140  142.7850 C   0  0  1  0  0  3  0  0  0  0  0  0
  186.2920  178.6380  148.0670 F   0  0  0  0  0  0  0  0  0  0  0  0
  192.2470  175.7860  144.1670 C   0  0  0  0  0  3  0  0  0  0  0  0
  191.5260  177.7150  149.5150 C   0  0  0  0  0  1  0  0  0  0  0  0
  187.7820  176.9120  142.9790 N   0  0  0  0  0  2  0  0  0  0  0  0
  189.9130  176.1220  143.7410 N   0  0  0  0  0  0  0  0  0  0  0  0
  187.9040  177.6160  146.6400 C   0  0  0  0  0  3  0  0  0  0  0  0
  192.9920  176.8240  147.6170 C   0  0  0  0  0  3  0  0  0  0  0  0
  187.4270  177.3720  144.2830 C   0  0  0  0  0  0  0  0  0  0  0  0
  186.1940  178.0040  144.4720 C   0  0  0  0  0  3  0  0  0  0  0  0
  191.2550  175.9010  143.2890 C   0  0  0  0  0  3  0  0  0  0  0  0
  191.9460  175.7750  145.6330 C   0  0  1  0  0  3  0  0  0  0  0  0
  193.1370  176.2200  146.4350 C   0  0  0  0  0  3  0  0  0  0  0  0
  187.4450  172.4820  141.6560 C   0  0  0  0  0  1  0  0  0  0  0  0
  189.3550  173.4830  143.0080 C   0  0  0  0  0  2  0  0  0  0  0  0
  188.4820  173.5840  141.7770 C   0  0  2  0  0  0  0  0  0  0  0  0
  188.2360  174.5160  142.9630 C   0  0  2  0  0  3  0  0  0  0  0  0
  189.1540  174.1560  140.5100 C   0  0  1  0  0  3  0  0  0  0  0  0
  190.3300  173.3260  139.9510 C   0  0  0  0  0  0  0  0  0  0  0  0
  190.1450  171.9880  140.2970 O   0  0  0  0  0  1  0  0  0  0  0  0
  191.6620  173.7890  140.5200 C   0  0  0  0  0  1  0  0  0  0  0  0
  190.3870  173.4160  138.4370 C   0  0  0  0  0  1  0  0  0  0  0  0
  187.8030  175.6230  139.6980 O   0  0  0  0  0  1  0  0  0  0  0  0
  188.1880  174.3760  139.5210 O   0  0  0  0  0  0  0  0  0  0  0  0
  1  9  1  0  0  0  0
  2  5  1  0  0  0  0
  2  3  2  0  0  0  0
  3  7  1  0  0  0  0
  4 11  1  0  0  0  0
  5 14  2  0  0  0  0
  6  1  2  0  0  0  0
  7  4  2  0  0  0  0
  8 24  1  0  0  0  0
  8 12  1  1  0  0  0
  8 13  1  0  0  0  0
 12 16  1  0  0  0  0
 13  2  1  0  0  0  0
 14  1  1  0  0  0  0
 15  4  1  0  0  0  0
 16 17  2  0  0  0  0
 16  5  1  0  0  0  0
 17  6  1  0  0  0  0
 18 13  1  0  0  0  0
 18 10  2  0  0  0  0
 19 10  1  6  0  0  0
 19  3  1  0  0  0  0
 19 20  1  0  0  0  0
 20 15  2  0  0  0  0
 23 21  1  6  0  0  0
 23 24  1  0  0  0  0
 23 22  1  0  0  0  0
 24 22  1  1  0  0  0
 25 31  1  6  0  0  0
 25 23  1  0  0  0  0
 26 27  1  0  0  0  0
 26 25  1  0  0  0  0
 26 28  1  0  0  0  0
 29 26  1  0  0  0  0
 31 30  1  0  0  0  0
M  END
>  <MODEL>
6

>  <REMARK>
 VINA RESULT:      -7.1      2.995      5.155
  Name = 
  4 active torsions:
  status: ('A' for Active; 'I' for Inactive)
    1  A    between atoms: C_1  and  C_19
    2  A    between atoms: O_7  and  C_19
    3  A    between atoms: C_15  and  C_23
    4  A    between atoms: C_19  and  C_22
                            x       y       z     vdW  Elec       q    Type
                         _______ _______ _______ _____ _____    ______ ____

>  <TORSDO>
F 4

$$$$
=
 OpenBabel11052417423D

 31 35  0  0  1  0  0  0  0  0999 V2000
  185.0090  177.7790  141.1750 C   0  0  0  0  0  0  0  0  0  0  0  0
  187.3750  176.6220  143.9580 C   0  0  0  0  0  0  0  0  0  0  0  0
  186.7720  176.8910  145.1460 C   0  0  0  0  0  0  0  0  0  0  0  0
  185.0100  177.9950  146.4430 C   0  0  0  0  0  0  0  0  0  0  0  0
  186.7940  176.9550  142.6170 C   0  0  0  0  0  0  0  0  0  0  0  0
  185.8400  177.6580  140.0610 C   0  0  0  0  0  3  0  0  0  0  0  0
  185.4530  177.5510  145.2650 C   0  0  0  0  0  3  0  0  0  0  0  0
  189.3370  175.5210  142.7810 C   0  0  1  0  0  3  0  0  0  0  0  0
  183.7450  178.2440  141.0300 F   0  0  0  0  0  0  0  0  0  0  0  0
  188.9100  176.3130  146.3600 C   0  0  0  0  0  3  0  0  0  0  0  0
  183.6900  178.6710  146.5220 C   0  0  0  0  0  1  0  0  0  0  0  0
  188.9320  176.2820  141.6040 N   0  0  0  0  0  2  0  0  0  0  0  0
  188.7180  176.0760  143.9830 N   0  0  0  0  0  0  0  0  0  0  0  0
  185.4860  177.4350  142.4420 C   0  0  0  0  0  3  0  0  0  0  0  0
  185.8520  177.9000  147.6500 C   0  0  0  0  0  3  0  0  0  0  0  0
  187.6120  176.8080  141.4780 C   0  0  0  0  0  0  0  0  0  0  0  0
  187.1390  177.1720  140.2130 C   0  0  0  0  0  3  0  0  0  0  0  0
  189.4980  176.1010  145.1860 C   0  0  0  0  0  3  0  0  0  0  0  0
  187.4190  176.4140  146.4380 C   0  0  1  0  0  3  0  0  0  0  0  0
  186.9910  177.2030  147.6440 C   0  0  0  0  0  3  0  0  0  0  0  0
  189.7580  171.8200  141.7380 C   0  0  0  0  0  1  0  0  0  0  0  0
  189.3860  173.2470  143.8120 C   0  0  0  0  0  2  0  0  0  0  0  0
  190.1020  173.0930  142.4880 C   0  0  2  0  0  0  0  0  0  0  0  0
  188.9240  174.0590  142.6090 C   0  0  2  0  0  3  0  0  0  0  0  0
  191.5320  173.6710  142.4160 C   0  0  1  0  0  3  0  0  0  0  0  0
  192.4610  173.2910  143.5900 C   0  0  0  0  0  0  0  0  0  0  0  0
  193.2700  174.3840  143.8990 O   0  0  0  0  0  1  0  0  0  0  0  0
  193.3570  172.1150  143.2370 C   0  0  0  0  0  1  0  0  0  0  0  0
  191.6550  172.9390  144.8280 C   0  0  0  0  0  1  0  0  0  0  0  0
  191.5930  174.1740  140.3240 O   0  0  0  0  0  1  0  0  0  0  0  0
  192.1180  173.3330  141.1910 O   0  0  0  0  0  0  0  0  0  0  0  0
  1 14  1  0  0  0  0
  2 13  1  0  0  0  0
  2  3  2  0  0  0  0
  3  7  1  0  0  0  0
  3 19  1  0  0  0  0
  4 11  1  0  0  0  0
  4 15  1  0  0  0  0
  5  2  1  0  0  0  0
  6 17  1  0  0  0  0
  6  1  2  0  0  0  0
  7  4  2  0  0  0  0
  8 12  1  6  0  0  0
  8 13  1  0  0  0  0
  9  1  1  0  0  0  0
 13 18  1  0  0  0  0
 14  5  2  0  0  0  0
 16 12  1  0  0  0  0
 16  5  1  0  0  0  0
 17 16  2  0  0  0  0
 18 10  2  0  0  0  0
 19 10  1  6  0  0  0
 19 20  1  0  0  0  0
 20 15  2  0  0  0  0
 23 21  1  6  0  0  0
 23 24  1  0  0  0  0
 23 22  1  0  0  0  0
 24  8  1  0  0  0  0
 24 22  1  1  0  0  0
 25 31  1  6  0  0  0
 25 23  1  0  0  0  0
 25 26  1  0  0  0  0
 26 27  1  0  0  0  0
 26 29  1  0  0  0  0
 28 26  1  0  0  0  0
 30 31  1  0  0  0  0
M  END
>  <MODEL>
7

>  <REMARK>
 VINA RESULT:      -6.7      1.460      1.780
  Name = 
  4 active torsions:
  status: ('A' for Active; 'I' for Inactive)
    1  A    between atoms: C_1  and  C_19
    2  A    between atoms: O_7  and  C_19
    3  A    between atoms: C_15  and  C_23
    4  A    between atoms: C_19  and  C_22
                            x       y       z     vdW  Elec       q    Type
                         _______ _______ _______ _____ _____    ______ ____

>  <TORSDO>
F 4

$$$$
=
 OpenBabel11052417423D

 31 35  0  0  1  0  0  0  0  0999 V2000
  190.1260  177.8340  147.7390 C   0  0  0  0  0  0  0  0  0  0  0  0
  190.1740  176.1940  144.2760 C   0  0  0  0  0  0  0  0  0  0  0  0
  189.0500  176.5890  143.6210 C   0  0  0  0  0  0  0  0  0  0  0  0
  186.8360  177.6370  143.6250 C   0  0  0  0  0  0  0  0  0  0  0  0
  190.5200  176.5870  145.6810 C   0  0  0  0  0  0  0  0  0  0  0  0
  191.1860  177.1680  148.3550 C   0  0  0  0  0  3  0  0  0  0  0  0
  188.0180  177.4650  144.2180 C   0  0  0  0  0  3  0  0  0  0  0  0
  192.3900  174.9640  144.1270 C   0  0  1  0  0  3  0  0  0  0  0  0
  189.4110  178.7530  148.4290 F   0  0  0  0  0  0  0  0  0  0  0  0
  189.5350  174.9200  141.7880 C   0  0  0  0  0  3  0  0  0  0  0  0
  185.8150  178.5090  144.2630 C   0  0  0  0  0  1  0  0  0  0  0  0
  192.3990  175.0020  145.5840 N   0  0  0  0  0  2  0  0  0  0  0  0
  191.0480  175.2420  143.6180 N   0  0  0  0  0  0  0  0  0  0  0  0
  189.7950  177.5410  146.4140 C   0  0  0  0  0  3  0  0  0  0  0  0
  186.4980  176.9080  142.3890 C   0  0  0  0  0  3  0  0  0  0  0  0
  191.6070  175.9450  146.3070 C   0  0  0  0  0  0  0  0  0  0  0  0
  191.9250  176.2250  147.6400 C   0  0  0  0  0  3  0  0  0  0  0  0
  190.6040  174.5140  142.4660 C   0  0  0  0  0  3  0  0  0  0  0  0
  188.8610  176.2030  142.1620 C   0  0  1  0  0  3  0  0  0  0  0  0
  187.4220  176.2060  141.7270 C   0  0  0  0  0  3  0  0  0  0  0  0
  195.8630  176.4160  143.2370 C   0  0  0  0  0  1  0  0  0  0  0  0
  193.6920  175.6920  142.1240 C   0  0  0  0  0  2  0  0  0  0  0  0
  194.7310  175.4060  143.1850 C   0  0  2  0  0  0  0  0  0  0  0  0
  193.3790  175.9950  143.5840 C   0  0  2  0  0  3  0  0  0  0  0  0
  195.0090  173.9170  143.4820 C   0  0  1  0  0  3  0  0  0  0  0  0
  195.7350  173.1410  142.3600 C   0  0  0  0  0  0  0  0  0  0  0  0
  195.6850  173.8910  141.1860 O   0  0  0  0  0  1  0  0  0  0  0  0
  195.0800  171.7940  142.0970 C   0  0  0  0  0  1  0  0  0  0  0  0
  197.1940  172.9170  142.7120 C   0  0  0  0  0  1  0  0  0  0  0  0
  195.0060  172.9190  145.3900 O   0  0  0  0  0  1  0  0  0  0  0  0
  195.6990  173.7970  144.6940 O   0  0  0  0  0  0  0  0  0  0  0  0
  1  6  1  0  0  0  0
  1  9  1  0  0  0  0
  2  5  1  0  0  0  0
  3  7  1  0  0  0  0
  3  2  2  0  0  0  0
  4  7  2  0  0  0  0
  4 11  1  0  0  0  0
  5 16  2  0  0  0  0
  5 14  1  0  0  0  0
  8 12  1  1  0  0  0
 10 19  1  0  0  0  0
 10 18  2  0  0  0  0
 12 16  1  0  0  0  0
 13  8  1  0  0  0  0
 13  2  1  0  0  0  0
 14  1  2  0  0  0  0
 15  4  1  0  0  0  0
 16 17  1  0  0  0  0
 17  6  2  0  0  0  0
 18 13  1  0  0  0  0
 19 20  1  1  0  0  0
 19  3  1  0  0  0  0
 20 15  2  0  0  0  0
 22 23  1  0  0  0  0
 23 21  1  1  0  0  0
 23 25  1  0  0  0  0
 23 24  1  0  0  0  0
 24 22  1  6  0  0  0
 24  8  1  0  0  0  0
 25 31  1  1  0  0  0
 26 29  1  0  0  0  0
 26 25  1  0  0  0  0
 27 26  1  0  0  0  0
 28 26  1  0  0  0  0
 31 30  1  0  0  0  0
M  END
>  <MODEL>
8

>  <REMARK>
 VINA RESULT:      -6.7      2.905      5.380
  Name = 
  4 active torsions:
  status: ('A' for Active; 'I' for Inactive)
    1  A    between atoms: C_1  and  C_19
    2  A    between atoms: O_7  and  C_19
    3  A    between atoms: C_15  and  C_23
    4  A    between atoms: C_19  and  C_22
                            x       y       z     vdW  Elec       q    Type
                         _______ _______ _______ _____ _____    ______ ____

>  <TORSDO>
F 4

$$$$
=
 OpenBabel11052417423D

 31 35  0  0  1  0  0  0  0  0999 V2000
  188.6740  172.9740  140.3190 C   0  0  0  0  0  0  0  0  0  0  0  0
  190.2960  175.1010  143.0640 C   0  0  0  0  0  0  0  0  0  0  0  0
  189.3220  175.8770  143.6080 C   0  0  0  0  0  0  0  0  0  0  0  0
  187.0580  176.8110  143.5530 C   0  0  0  0  0  0  0  0  0  0  0  0
  190.0840  174.1460  141.9270 C   0  0  0  0  0  0  0  0  0  0  0  0
  189.8050  172.4240  139.7160 C   0  0  0  0  0  3  0  0  0  0  0  0
  187.9180  175.8760  143.1440 C   0  0  0  0  0  3  0  0  0  0  0  0
  192.7100  174.3270  143.1980 C   0  0  1  0  0  3  0  0  0  0  0  0
  187.4420  172.6890  139.8360 F   0  0  0  0  0  0  0  0  0  0  0  0
  191.0730  177.1680  144.8910 C   0  0  0  0  0  3  0  0  0  0  0  0
  185.6600  176.7910  143.0520 C   0  0  0  0  0  1  0  0  0  0  0  0
  192.5200  173.8120  141.8470 N   0  0  0  0  0  2  0  0  0  0  0  0
  191.6560  175.2810  143.5330 N   0  0  0  0  0  0  0  0  0  0  0  0
  188.8150  173.8320  141.4130 C   0  0  0  0  0  3  0  0  0  0  0  0
  187.5000  177.9120  144.4280 C   0  0  0  0  0  3  0  0  0  0  0  0
  191.2150  173.5570  141.3280 C   0  0  0  0  0  0  0  0  0  0  0  0
  191.0740  172.7150  140.2200 C   0  0  0  0  0  3  0  0  0  0  0  0
  192.0160  176.4300  144.3120 C   0  0  0  0  0  3  0  0  0  0  0  0
  189.6420  176.7350  144.8230 C   0  0  1  0  0  3  0  0  0  0  0  0
  188.7130  177.9050  144.9880 C   0  0  0  0  0  3  0  0  0  0  0  0
  194.1640  171.3260  145.1600 C   0  0  0  0  0  1  0  0  0  0  0  0
  193.1870  173.6440  145.5520 C   0  0  0  0  0  2  0  0  0  0  0  0
  194.0830  172.7710  144.7020 C   0  0  2  0  0  0  0  0  0  0  0  0
  192.6980  173.1650  144.1920 C   0  0  2  0  0  3  0  0  0  0  0  0
  195.3230  173.4590  144.0900 C   0  0  1  0  0  3  0  0  0  0  0  0
  196.1820  174.2780  145.0790 C   0  0  0  0  0  0  0  0  0  0  0  0
  197.2010  174.9160  144.3720 O   0  0  0  0  0  1  0  0  0  0  0  0
  196.8160  173.3900  146.1380 C   0  0  0  0  0  1  0  0  0  0  0  0
  195.3500  175.3440  145.7670 C   0  0  0  0  0  1  0  0  0  0  0  0
  195.8010  172.6670  142.1460 O   0  0  0  0  0  1  0  0  0  0  0  0
  196.1060  172.5130  143.4180 O   0  0  0  0  0  0  0  0  0  0  0  0
  1 14  1  0  0  0  0
  2 13  1  0  0  0  0
  2  3  2  0  0  0  0
  3 19  1  0  0  0  0
  4 15  1  0  0  0  0
  5  2  1  0  0  0  0
  6 17  1  0  0  0  0
  6  1  2  0  0  0  0
  7  4  2  0  0  0  0
  7  3  1  0  0  0  0
  8 12  1  6  0  0  0
  8 13  1  0  0  0  0
  8 24  1  0  0  0  0
  9  1  1  0  0  0  0
 11  4  1  0  0  0  0
 13 18  1  0  0  0  0
 14  5  2  0  0  0  0
 15 20  2  0  0  0  0
 16 12  1  0  0  0  0
 16  5  1  0  0  0  0
 17 16  2  0  0  0  0
 18 10  2  0  0  0  0
 19 10  1  6  0  0  0
 19 20  1  0  0  0  0
 23 21  1  1  0  0  0
 23 22  1  0  0  0  0
 24 23  1  0  0  0  0
 24 22  1  1  0  0  0
 25 31  1  1  0  0  0
 25 23  1  0  0  0  0
 25 26  1  0  0  0  0
 26 29  1  0  0  0  0
 26 28  1  0  0  0  0
 27 26  1  0  0  0  0
 30 31  1  0  0  0  0
M  END
>  <MODEL>
9

>  <REMARK>
 VINA RESULT:      -6.7      2.846      4.335
  Name = 
  4 active torsions:
  status: ('A' for Active; 'I' for Inactive)
    1  A    between atoms: C_1  and  C_19
    2  A    between atoms: O_7  and  C_19
    3  A    between atoms: C_15  and  C_23
    4  A    between atoms: C_19  and  C_22
                            x       y       z     vdW  Elec       q    Type
                         _______ _______ _______ _____ _____    ______ ____

>  <TORSDO>
F 4

$$$$
