=
 OpenBabel11052421263D

 32 36  0  0  1  0  0  0  0  0999 V2000
  193.0090  175.9000  144.9620 C   0  0  0  0  0  0  0  0  0  0  0  0
  188.3740  177.6670  143.8270 C   0  0  1  0  0  3  0  0  0  0  0  0
  185.9870  178.5960  147.9550 C   0  0  0  0  0  3  0  0  0  0  0  0
  184.7670  178.6140  147.2730 C   0  0  0  0  0  3  0  0  0  0  0  0
  186.9510  177.2650  141.6460 C   0  0  2  0  0  3  0  0  0  0  0  0
  185.5650  177.5680  141.0580 C   0  0  2  0  0  3  0  0  0  0  0  0
  190.5920  176.6190  143.7240 C   0  0  0  0  0  0  0  0  0  0  0  0
  189.6290  177.3350  145.9590 C   0  0  0  0  0  2  0  0  0  0  0  0
  191.9540  176.4160  145.7260 C   0  0  0  0  0  3  0  0  0  0  0  0
  187.1410  178.1270  147.3200 C   0  0  0  0  0  3  0  0  0  0  0  0
  188.2820  177.1230  145.2650 C   0  0  1  0  0  3  0  0  0  0  0  0
  187.0800  177.6820  145.9910 C   0  0  0  0  0  0  0  0  0  0  0  0
  185.8240  177.1700  143.9000 C   0  0  1  0  0  3  0  0  0  0  0  0
  192.8430  175.7410  143.5780 C   0  0  0  0  0  3  0  0  0  0  0  0
  190.7440  176.7660  145.1210 C   0  0  0  0  0  0  0  0  0  0  0  0
  185.7050  178.5530  139.9990 N   0  0  0  0  0  1  0  0  0  0  0  0
  191.6400  176.0990  142.9630 C   0  0  0  0  0  3  0  0  0  0  0  0
  184.6940  178.1590  145.9540 C   0  0  0  0  0  3  0  0  0  0  0  0
  185.8470  177.6920  145.3100 C   0  0  0  0  0  0  0  0  0  0  0  0
  184.5480  177.2480  143.2720 O   0  0  0  0  0  0  0  0  0  0  0  0
  189.3870  176.9700  143.1040 O   0  0  0  0  0  0  0  0  0  0  0  0
  187.1930  175.8920  141.5720 O   0  0  0  0  0  1  0  0  0  0  0  0
  187.0130  177.7370  143.0960 C   0  0  1  0  0  3  0  0  0  0  0  0
  184.5690  178.0780  142.1260 C   0  0  2  0  0  3  0  0  0  0  0  0
  194.7570  176.2520  146.5270 O   0  0  0  0  0  0  0  0  0  0  0  0
  194.9750  174.3480  145.1940 N   0  0  0  0  0  2  0  0  0  0  0  0
  194.2810  175.5280  145.6070 C   0  0  0  0  0  0  0  0  0  0  0  0
  196.1900  173.9550  145.7740 C   0  0  0  0  0  0  0  0  0  0  0  0
  197.1930  173.6320  146.2530 N   0  0  0  0  0  0  0  0  0  0  0  0
  183.1900  178.1870  141.5640 C   0  0  0  0  0  0  0  0  0  0  0  0
  182.2500  178.6000  142.2900 O   0  0  0  0  0  0  0  0  0  0  0  0
  182.9350  177.8360  140.2070 N   0  0  0  0  0  1  0  0  0  0  0  0
  1 27  1  0  0  0  0
  1  9  1  0  0  0  0
  2 21  1  6  0  0  0
  2 11  1  0  0  0  0
  4  3  2  0  0  0  0
  5 22  1  1  0  0  0
  5 23  1  0  0  0  0
  6 16  1  6  0  0  0
  6  5  1  0  0  0  0
  6 24  1  0  0  0  0
  7 15  1  0  0  0  0
 10  3  1  0  0  0  0
 11  8  1  1  0  0  0
 11 12  1  0  0  0  0
 12 10  2  0  0  0  0
 13 20  1  6  0  0  0
 13 19  1  0  0  0  0
 14  1  2  0  0  0  0
 15  9  2  0  0  0  0
 15  8  1  0  0  0  0
 17 14  1  0  0  0  0
 17  7  2  0  0  0  0
 18  4  1  0  0  0  0
 19 18  2  0  0  0  0
 19 12  1  0  0  0  0
 21  7  1  0  0  0  0
 23  2  1  0  0  0  0
 23 13  1  0  0  0  0
 24 20  1  0  0  0  0
 26 27  1  0  0  0  0
 26 28  1  0  0  0  0
 27 25  2  0  0  0  0
 28 29  3  0  0  0  0
 30 24  1  0  0  0  0
 30 31  2  0  0  0  0
 32 30  1  0  0  0  0
M  END
>  <MODEL>
1

>  <REMARK>
 VINA RESULT:      -8.9      0.000      0.000
  Name = 
  3 active torsions:
  status: ('A' for Active; 'I' for Inactive)
    1  A    between atoms: C_1  and  N_20
    2  A    between atoms: C_2  and  C_24
    3  A    between atoms: C_11  and  C_32
                            x       y       z     vdW  Elec       q    Type
                         _______ _______ _______ _____ _____    ______ ____

>  <TORSDO>
F 3

$$$$
=
 OpenBabel11052421263D

 32 36  0  0  1  0  0  0  0  0999 V2000
  189.9640  173.1400  139.1190 C   0  0  0  0  0  0  0  0  0  0  0  0
  188.9970  175.9920  143.2210 C   0  0  1  0  0  3  0  0  0  0  0  0
  192.1540  174.8310  146.7260 C   0  0  0  0  0  3  0  0  0  0  0  0
  191.3400  175.4350  147.6900 C   0  0  0  0  0  3  0  0  0  0  0  0
  186.7300  177.1300  143.9330 C   0  0  2  0  0  3  0  0  0  0  0  0
  186.1170  177.9400  145.0840 C   0  0  2  0  0  3  0  0  0  0  0  0
  188.8420  174.8260  141.0660 C   0  0  0  0  0  0  0  0  0  0  0  0
  190.7550  174.3140  142.6500 C   0  0  0  0  0  2  0  0  0  0  0  0
  190.6010  173.3080  140.3550 C   0  0  0  0  0  3  0  0  0  0  0  0
  191.6680  174.6130  145.4340 C   0  0  0  0  0  3  0  0  0  0  0  0
  189.7670  174.7600  143.7300 C   0  0  1  0  0  3  0  0  0  0  0  0
  190.3650  175.0090  145.0970 C   0  0  0  0  0  0  0  0  0  0  0  0
  188.1430  175.9790  145.6750 C   0  0  1  0  0  3  0  0  0  0  0  0
  188.7610  173.8160  138.8670 C   0  0  0  0  0  3  0  0  0  0  0  0
  190.0440  174.1350  141.3340 C   0  0  0  0  0  0  0  0  0  0  0  0
  185.9090  179.3090  144.6430 N   0  0  0  0  0  1  0  0  0  0  0  0
  188.2020  174.6550  139.8360 C   0  0  0  0  0  3  0  0  0  0  0  0
  190.0360  175.8180  147.3680 C   0  0  0  0  0  3  0  0  0  0  0  0
  189.5450  175.6070  146.0730 C   0  0  0  0  0  0  0  0  0  0  0  0
  187.3940  176.6100  146.7090 O   0  0  0  0  0  0  0  0  0  0  0  0
  188.2750  175.6620  142.0360 O   0  0  0  0  0  0  0  0  0  0  0  0
  185.9270  176.0190  143.6730 O   0  0  0  0  0  1  0  0  0  0  0  0
  188.1420  176.6890  144.3050 C   0  0  1  0  0  3  0  0  0  0  0  0
  187.0000  177.9230  146.3550 C   0  0  2  0  0  3  0  0  0  0  0  0
  191.6960  171.7560  138.2760 O   0  0  0  0  0  0  0  0  0  0  0  0
  189.8320  171.9810  136.8900 N   0  0  0  0  0  2  0  0  0  0  0  0
  190.5530  172.2610  138.0920 C   0  0  0  0  0  0  0  0  0  0  0  0
  190.3520  171.1560  135.8820 C   0  0  0  0  0  0  0  0  0  0  0  0
  190.7820  170.4740  135.0520 N   0  0  0  0  0  0  0  0  0  0  0  0
  186.2940  178.5590  147.5060 C   0  0  0  0  0  0  0  0  0  0  0  0
  186.9550  179.1730  148.3830 O   0  0  0  0  0  0  0  0  0  0  0  0
  184.8750  178.4840  147.6130 N   0  0  0  0  0  1  0  0  0  0  0  0
  1  9  1  0  0  0  0
  2 21  1  6  0  0  0
  2 11  1  0  0  0  0
  2 23  1  0  0  0  0
  3  4  1  0  0  0  0
  5 22  1  1  0  0  0
  5 23  1  0  0  0  0
  5  6  1  0  0  0  0
  6 16  1  6  0  0  0
  6 24  1  0  0  0  0
  7 15  1  0  0  0  0
  7 21  1  0  0  0  0
  9 15  2  0  0  0  0
 10  3  2  0  0  0  0
 11  8  1  6  0  0  0
 11 12  1  0  0  0  0
 12 10  1  0  0  0  0
 12 19  2  0  0  0  0
 13 19  1  1  0  0  0
 13 20  1  0  0  0  0
 14  1  2  0  0  0  0
 14 17  1  0  0  0  0
 15  8  1  0  0  0  0
 17  7  2  0  0  0  0
 18  4  2  0  0  0  0
 19 18  1  0  0  0  0
 23 13  1  0  0  0  0
 24 20  1  0  0  0  0
 24 30  1  0  0  0  0
 26 27  1  0  0  0  0
 27 25  2  0  0  0  0
 27  1  1  0  0  0  0
 28 26  1  0  0  0  0
 29 28  3  0  0  0  0
 30 32  1  0  0  0  0
 30 31  2  0  0  0  0
M  END
>  <MODEL>
2

>  <REMARK>
 VINA RESULT:      -8.1      4.409      6.414
  Name = 
  3 active torsions:
  status: ('A' for Active; 'I' for Inactive)
    1  A    between atoms: C_1  and  N_20
    2  A    between atoms: C_2  and  C_24
    3  A    between atoms: C_11  and  C_32
                            x       y       z     vdW  Elec       q    Type
                         _______ _______ _______ _____ _____    ______ ____

>  <TORSDO>
F 3

$$$$
=
 OpenBabel11052421263D

 32 36  0  0  1  0  0  0  0  0999 V2000
  181.4770  179.0740  141.4740 C   0  0  0  0  0  0  0  0  0  0  0  0
  185.7890  177.1370  143.3600 C   0  0  1  0  0  3  0  0  0  0  0  0
  186.2320  178.5010  148.0010 C   0  0  0  0  0  3  0  0  0  0  0  0
  187.5930  178.1840  147.9880 C   0  0  0  0  0  3  0  0  0  0  0  0
  187.9750  176.4330  142.0690 C   0  0  2  0  0  3  0  0  0  0  0  0
  189.4000  175.9230  142.3330 C   0  0  2  0  0  3  0  0  0  0  0  0
  184.0060  177.9130  141.8600 C   0  0  0  0  0  0  0  0  0  0  0  0
  183.9070  178.4560  144.3350 C   0  0  0  0  0  2  0  0  0  0  0  0
  182.0530  179.0500  142.7520 C   0  0  0  0  0  3  0  0  0  0  0  0
  185.5090  178.5450  146.8050 C   0  0  0  0  0  3  0  0  0  0  0  0
  185.4310  178.3350  144.2580 C   0  0  1  0  0  3  0  0  0  0  0  0
  186.1470  178.2610  145.5880 C   0  0  0  0  0  0  0  0  0  0  0  0
  188.1680  177.6910  144.2460 C   0  0  1  0  0  3  0  0  0  0  0  0
  182.1780  178.5180  140.3930 C   0  0  0  0  0  3  0  0  0  0  0  0
  183.3150  178.4850  142.9510 C   0  0  0  0  0  0  0  0  0  0  0  0
  189.4910  174.5340  141.9160 N   0  0  0  0  0  1  0  0  0  0  0  0
  183.4360  177.9410  140.5850 C   0  0  0  0  0  3  0  0  0  0  0  0
  188.2400  177.9140  146.7790 C   0  0  0  0  0  3  0  0  0  0  0  0
  187.5200  177.9510  145.5780 C   0  0  0  0  0  0  0  0  0  0  0  0
  189.5490  177.3520  144.3270 O   0  0  0  0  0  0  0  0  0  0  0  0
  185.2700  177.3390  142.0460 O   0  0  0  0  0  0  0  0  0  0  0  0
  188.0360  177.5720  141.2640 O   0  0  0  0  0  1  0  0  0  0  0  0
  187.2870  176.7550  143.3920 C   0  0  1  0  0  3  0  0  0  0  0  0
  189.8090  176.0560  143.8190 C   0  0  2  0  0  3  0  0  0  0  0  0
  179.1550  179.2510  141.9260 O   0  0  0  0  0  0  0  0  0  0  0  0
  179.9810  180.7410  140.3290 N   0  0  0  0  0  2  0  0  0  0  0  0
  180.1470  179.6760  141.2690 C   0  0  0  0  0  0  0  0  0  0  0  0
  178.7360  181.3430  140.0960 C   0  0  0  0  0  0  0  0  0  0  0  0
  177.7080  181.8390  139.9050 N   0  0  0  0  0  0  0  0  0  0  0  0
  191.2530  175.7270  144.0090 C   0  0  0  0  0  0  0  0  0  0  0  0
  191.5900  174.8640  144.8600 O   0  0  0  0  0  0  0  0  0  0  0  0
  192.2500  176.3760  143.2250 N   0  0  0  0  0  1  0  0  0  0  0  0
  1  9  1  0  0  0  0
  2 21  1  6  0  0  0
  2 23  1  0  0  0  0
  2 11  1  0  0  0  0
  4  3  1  0  0  0  0
  5 22  1  6  0  0  0
  5  6  1  0  0  0  0
  5 23  1  0  0  0  0
  6 16  1  1  0  0  0
  6 24  1  0  0  0  0
  7 21  1  0  0  0  0
  7 15  1  0  0  0  0
  9 15  2  0  0  0  0
 10  3  2  0  0  0  0
 11  8  1  1  0  0  0
 11 12  1  0  0  0  0
 12 10  1  0  0  0  0
 13 20  1  1  0  0  0
 13 19  1  0  0  0  0
 14 17  1  0  0  0  0
 14  1  2  0  0  0  0
 15  8  1  0  0  0  0
 17  7  2  0  0  0  0
 18  4  2  0  0  0  0
 19 12  2  0  0  0  0
 19 18  1  0  0  0  0
 23 13  1  0  0  0  0
 24 30  1  0  0  0  0
 24 20  1  0  0  0  0
 26 27  1  0  0  0  0
 27  1  1  0  0  0  0
 27 25  2  0  0  0  0
 28 26  1  0  0  0  0
 29 28  3  0  0  0  0
 30 31  2  0  0  0  0
 32 30  1  0  0  0  0
M  END
>  <MODEL>
3

>  <REMARK>
 VINA RESULT:      -8.1      2.594      9.316
  Name = 
  3 active torsions:
  status: ('A' for Active; 'I' for Inactive)
    1  A    between atoms: C_1  and  N_20
    2  A    between atoms: C_2  and  C_24
    3  A    between atoms: C_11  and  C_32
                            x       y       z     vdW  Elec       q    Type
                         _______ _______ _______ _____ _____    ______ ____

>  <TORSDO>
F 3

$$$$
=
 OpenBabel11052421263D

 32 36  0  0  1  0  0  0  0  0999 V2000
  185.3950  177.7640  143.4430 C   0  0  0  0  0  0  0  0  0  0  0  0
  189.9140  175.4270  143.5530 C   0  0  1  0  0  3  0  0  0  0  0  0
  189.9770  171.9590  140.1520 C   0  0  0  0  0  3  0  0  0  0  0  0
  191.0760  171.3480  140.7630 C   0  0  0  0  0  3  0  0  0  0  0  0
  191.6030  175.2100  145.5640 C   0  0  2  0  0  3  0  0  0  0  0  0
  192.9350  174.5400  145.9310 C   0  0  2  0  0  3  0  0  0  0  0  0
  187.9390  176.7750  144.1090 C   0  0  0  0  0  0  0  0  0  0  0  0
  187.9000  175.2400  142.0910 C   0  0  0  0  0  2  0  0  0  0  0  0
  186.0010  176.7860  142.6430 C   0  0  0  0  0  3  0  0  0  0  0  0
  189.2780  172.9720  140.8150 C   0  0  0  0  0  3  0  0  0  0  0  0
  188.9410  174.4420  142.8780 C   0  0  1  0  0  3  0  0  0  0  0  0
  189.6830  173.3850  142.0930 C   0  0  0  0  0  0  0  0  0  0  0  0
  191.1570  173.2100  144.0950 C   0  0  1  0  0  3  0  0  0  0  0  0
  186.0690  178.2390  144.5790 C   0  0  0  0  0  3  0  0  0  0  0  0
  187.2610  176.2790  142.9740 C   0  0  0  0  0  0  0  0  0  0  0  0
  193.9670  175.5580  146.0270 N   0  0  0  0  0  1  0  0  0  0  0  0
  187.3340  177.7460  144.9100 C   0  0  0  0  0  3  0  0  0  0  0  0
  191.4770  171.7420  142.0420 C   0  0  0  0  0  3  0  0  0  0  0  0
  190.7840  172.7590  142.7100 C   0  0  0  0  0  0  0  0  0  0  0  0
  192.3010  172.5520  144.6320 O   0  0  0  0  0  0  0  0  0  0  0  0
  189.2040  176.2800  144.4500 O   0  0  0  0  0  0  0  0  0  0  0  0
  190.6410  174.8770  146.5200 O   0  0  0  0  0  1  0  0  0  0  0  0
  191.1560  174.7510  144.1800 C   0  0  1  0  0  3  0  0  0  0  0  0
  193.3530  173.4580  144.9070 C   0  0  2  0  0  3  0  0  0  0  0  0
  183.4580  179.0570  143.8940 O   0  0  0  0  0  0  0  0  0  0  0  0
  183.4590  177.9370  141.8460 N   0  0  0  0  0  2  0  0  0  0  0  0
  184.0640  178.2910  143.0930 C   0  0  0  0  0  0  0  0  0  0  0  0
  182.1940  178.4080  141.4700 C   0  0  0  0  0  0  0  0  0  0  0  0
  181.1490  178.7980  141.1580 N   0  0  0  0  0  0  0  0  0  0  0  0
  194.5490  172.7020  145.3860 C   0  0  0  0  0  0  0  0  0  0  0  0
  194.3970  171.6940  146.1230 O   0  0  0  0  0  0  0  0  0  0  0  0
  195.8600  173.1090  145.0050 N   0  0  0  0  0  1  0  0  0  0  0  0
  1 14  1  0  0  0  0
  2 23  1  0  0  0  0
  2 21  1  1  0  0  0
  3  4  2  0  0  0  0
  3 10  1  0  0  0  0
  4 18  1  0  0  0  0
  5  6  1  0  0  0  0
  5 22  1  1  0  0  0
  6 16  1  6  0  0  0
  7 21  1  0  0  0  0
  7 17  1  0  0  0  0
  8 15  1  0  0  0  0
  9 15  1  0  0  0  0
  9  1  2  0  0  0  0
 10 12  2  0  0  0  0
 11  8  1  6  0  0  0
 11  2  1  0  0  0  0
 12 19  1  0  0  0  0
 12 11  1  0  0  0  0
 13 19  1  6  0  0  0
 13 23  1  0  0  0  0
 13 20  1  0  0  0  0
 14 17  2  0  0  0  0
 15  7  2  0  0  0  0
 18 19  2  0  0  0  0
 20 24  1  0  0  0  0
 23  5  1  0  0  0  0
 24 30  1  0  0  0  0
 24  6  1  0  0  0  0
 26 27  1  0  0  0  0
 27  1  1  0  0  0  0
 27 25  2  0  0  0  0
 28 26  1  0  0  0  0
 29 28  3  0  0  0  0
 30 31  2  0  0  0  0
 32 30  1  0  0  0  0
M  END
>  <MODEL>
4

>  <REMARK>
 VINA RESULT:      -8.0      2.819      9.492
  Name = 
  3 active torsions:
  status: ('A' for Active; 'I' for Inactive)
    1  A    between atoms: C_1  and  N_20
    2  A    between atoms: C_2  and  C_24
    3  A    between atoms: C_11  and  C_32
                            x       y       z     vdW  Elec       q    Type
                         _______ _______ _______ _____ _____    ______ ____

>  <TORSDO>
F 3

$$$$
=
 OpenBabel11052421263D

 32 36  0  0  1  0  0  0  0  0999 V2000
  185.4730  177.9850  143.1650 C   0  0  0  0  0  0  0  0  0  0  0  0
  190.2970  176.3660  143.1490 C   0  0  1  0  0  3  0  0  0  0  0  0
  190.7800  172.8840  139.7960 C   0  0  0  0  0  3  0  0  0  0  0  0
  191.9780  172.4590  140.3770 C   0  0  0  0  0  3  0  0  0  0  0  0
  192.0640  176.4480  145.1020 C   0  0  2  0  0  3  0  0  0  0  0  0
  193.4940  175.9960  145.4320 C   0  0  2  0  0  3  0  0  0  0  0  0
  188.1580  177.4080  143.7550 C   0  0  0  0  0  0  0  0  0  0  0  0
  188.2890  175.8470  141.7610 C   0  0  0  0  0  2  0  0  0  0  0  0
  186.1950  177.0950  142.3580 C   0  0  0  0  0  3  0  0  0  0  0  0
  189.9550  173.7910  140.4700 C   0  0  0  0  0  3  0  0  0  0  0  0
  189.4650  175.2320  142.5230 C   0  0  1  0  0  3  0  0  0  0  0  0
  190.3340  174.2850  141.7270 C   0  0  0  0  0  0  0  0  0  0  0  0
  191.8810  174.3760  143.6780 C   0  0  1  0  0  3  0  0  0  0  0  0
  186.1030  178.5780  144.2690 C   0  0  0  0  0  3  0  0  0  0  0  0
  187.5270  176.7930  142.6510 C   0  0  0  0  0  0  0  0  0  0  0  0
  194.3610  177.1610  145.4770 N   0  0  0  0  0  1  0  0  0  0  0  0
  187.4380  178.2910  144.5630 C   0  0  0  0  0  3  0  0  0  0  0  0
  192.3560  172.9350  141.6360 C   0  0  0  0  0  3  0  0  0  0  0  0
  191.5370  173.8470  142.3130 C   0  0  0  0  0  0  0  0  0  0  0  0
  193.1290  173.9100  144.1830 O   0  0  0  0  0  0  0  0  0  0  0  0
  189.4940  177.1180  144.0580 O   0  0  0  0  0  0  0  0  0  0  0  0
  191.1960  175.9910  146.0960 O   0  0  0  0  0  1  0  0  0  0  0  0
  191.6470  175.9000  143.7410 C   0  0  1  0  0  3  0  0  0  0  0  0
  194.0390  174.9710  144.4090 C   0  0  2  0  0  3  0  0  0  0  0  0
  183.3240  178.8100  143.7380 O   0  0  0  0  0  0  0  0  0  0  0  0
  183.5420  178.0180  141.5530 N   0  0  0  0  0  2  0  0  0  0  0  0
  184.0660  178.2960  142.8540 C   0  0  0  0  0  0  0  0  0  0  0  0
  182.2100  178.2910  141.2100 C   0  0  0  0  0  0  0  0  0  0  0  0
  181.1110  178.5170  140.9270 N   0  0  0  0  0  0  0  0  0  0  0  0
  195.3510  174.4150  144.8560 C   0  0  0  0  0  0  0  0  0  0  0  0
  195.3850  173.5440  145.7630 O   0  0  0  0  0  0  0  0  0  0  0  0
  196.5650  174.8570  144.2540 N   0  0  0  0  0  1  0  0  0  0  0  0
  1 14  1  0  0  0  0
  2 23  1  0  0  0  0
  2 21  1  1  0  0  0
  3  4  2  0  0  0  0
  3 10  1  0  0  0  0
  4 18  1  0  0  0  0
  5  6  1  0  0  0  0
  5 22  1  1  0  0  0
  6 16  1  6  0  0  0
  7 21  1  0  0  0  0
  7 17  1  0  0  0  0
  8 15  1  0  0  0  0
  9 15  1  0  0  0  0
  9  1  2  0  0  0  0
 10 12  2  0  0  0  0
 11  8  1  6  0  0  0
 11  2  1  0  0  0  0
 12 19  1  0  0  0  0
 12 11  1  0  0  0  0
 13 19  1  6  0  0  0
 13 23  1  0  0  0  0
 13 20  1  0  0  0  0
 14 17  2  0  0  0  0
 15  7  2  0  0  0  0
 18 19  2  0  0  0  0
 20 24  1  0  0  0  0
 23  5  1  0  0  0  0
 24 30  1  0  0  0  0
 24  6  1  0  0  0  0
 26 27  1  0  0  0  0
 27  1  1  0  0  0  0
 27 25  2  0  0  0  0
 28 26  1  0  0  0  0
 29 28  3  0  0  0  0
 30 31  2  0  0  0  0
 32 30  1  0  0  0  0
M  END
>  <MODEL>
5

>  <REMARK>
 VINA RESULT:      -7.9      2.260      9.479
  Name = 
  3 active torsions:
  status: ('A' for Active; 'I' for Inactive)
    1  A    between atoms: C_1  and  N_20
    2  A    between atoms: C_2  and  C_24
    3  A    between atoms: C_11  and  C_32
                            x       y       z     vdW  Elec       q    Type
                         _______ _______ _______ _____ _____    ______ ____

>  <TORSDO>
F 3

$$$$
=
 OpenBabel11052421263D

 32 36  0  0  1  0  0  0  0  0999 V2000
  182.8640  178.5400  142.3130 C   0  0  0  0  0  0  0  0  0  0  0  0
  187.5150  177.3160  143.9760 C   0  0  1  0  0  3  0  0  0  0  0  0
  189.5940  174.3140  140.7720 C   0  0  0  0  0  3  0  0  0  0  0  0
  190.5390  173.9170  141.7230 C   0  0  0  0  0  3  0  0  0  0  0  0
  188.4230  177.2980  146.4490 C   0  0  2  0  0  3  0  0  0  0  0  0
  189.6770  176.9220  147.2530 C   0  0  2  0  0  3  0  0  0  0  0  0
  185.1960  178.1060  143.8190 C   0  0  0  0  0  0  0  0  0  0  0  0
  186.2280  176.8130  141.8970 C   0  0  0  0  0  2  0  0  0  0  0  0
  183.9290  177.8130  141.7650 C   0  0  0  0  0  3  0  0  0  0  0  0
  188.4810  175.0650  141.1590 C   0  0  0  0  0  3  0  0  0  0  0  0
  187.1080  176.2050  142.9900 C   0  0  1  0  0  3  0  0  0  0  0  0
  188.3130  175.4320  142.5030 C   0  0  0  0  0  0  0  0  0  0  0  0
  189.0180  175.4050  144.8930 C   0  0  1  0  0  3  0  0  0  0  0  0
  182.9720  179.0410  143.6190 C   0  0  0  0  0  3  0  0  0  0  0  0
  185.0890  177.5830  142.5110 C   0  0  0  0  0  0  0  0  0  0  0  0
  190.3240  178.1370  147.7170 N   0  0  0  0  0  1  0  0  0  0  0  0
  184.1320  178.8250  144.3680 C   0  0  0  0  0  3  0  0  0  0  0  0
  190.3720  174.2640  143.0660 C   0  0  0  0  0  3  0  0  0  0  0  0
  189.2610  175.0210  143.4590 C   0  0  0  0  0  0  0  0  0  0  0  0
  190.0410  174.9810  145.7890 O   0  0  0  0  0  0  0  0  0  0  0  0
  186.3530  177.8870  144.5760 O   0  0  0  0  0  0  0  0  0  0  0  0
  187.3130  176.6570  147.0020 O   0  0  0  0  0  1  0  0  0  0  0  0
  188.6000  176.8870  144.9910 C   0  0  1  0  0  3  0  0  0  0  0  0
  190.6740  176.0740  146.4280 C   0  0  2  0  0  3  0  0  0  0  0  0
  181.6080  178.4540  140.3020 O   0  0  0  0  0  0  0  0  0  0  0  0
  180.4930  179.3650  142.1390 N   0  0  0  0  0  2  0  0  0  0  0  0
  181.6410  178.7750  141.5230 C   0  0  0  0  0  0  0  0  0  0  0  0
  179.3100  179.6130  141.4300 C   0  0  0  0  0  0  0  0  0  0  0  0
  178.3330  179.8180  140.8440 N   0  0  0  0  0  0  0  0  0  0  0  0
  191.7880  175.5720  147.2870 C   0  0  0  0  0  0  0  0  0  0  0  0
  191.5290  175.0160  148.3850 O   0  0  0  0  0  0  0  0  0  0  0  0
  193.1420  175.7100  146.8660 N   0  0  0  0  0  1  0  0  0  0  0  0
  1 14  1  0  0  0  0
  2 21  1  1  0  0  0
  2 23  1  0  0  0  0
  3 10  2  0  0  0  0
  3  4  1  0  0  0  0
  4 18  2  0  0  0  0
  5 22  1  1  0  0  0
  5  6  1  0  0  0  0
  6 16  1  6  0  0  0
  7 17  1  0  0  0  0
  7 21  1  0  0  0  0
  8 15  1  0  0  0  0
  9  1  2  0  0  0  0
  9 15  1  0  0  0  0
 10 12  1  0  0  0  0
 11  8  1  6  0  0  0
 11  2  1  0  0  0  0
 12 11  1  0  0  0  0
 12 19  2  0  0  0  0
 13 19  1  6  0  0  0
 13 23  1  0  0  0  0
 13 20  1  0  0  0  0
 14 17  2  0  0  0  0
 15  7  2  0  0  0  0
 18 19  1  0  0  0  0
 20 24  1  0  0  0  0
 23  5  1  0  0  0  0
 24  6  1  0  0  0  0
 24 30  1  0  0  0  0
 25 27  2  0  0  0  0
 27 26  1  0  0  0  0
 27  1  1  0  0  0  0
 28 26  1  0  0  0  0
 29 28  3  0  0  0  0
 30 31  2  0  0  0  0
 32 30  1  0  0  0  0
M  END
>  <MODEL>
6

>  <REMARK>
 VINA RESULT:      -7.8      2.708      9.572
  Name = 
  3 active torsions:
  status: ('A' for Active; 'I' for Inactive)
    1  A    between atoms: C_1  and  N_20
    2  A    between atoms: C_2  and  C_24
    3  A    between atoms: C_11  and  C_32
                            x       y       z     vdW  Elec       q    Type
                         _______ _______ _______ _____ _____    ______ ____

>  <TORSDO>
F 3

$$$$
=
 OpenBabel11052421263D

 32 36  0  0  1  0  0  0  0  0999 V2000
  187.0360  177.0530  143.7770 C   0  0  0  0  0  0  0  0  0  0  0  0
  191.5060  174.6210  143.7050 C   0  0  1  0  0  3  0  0  0  0  0  0
  190.8240  170.1190  142.0140 C   0  0  0  0  0  3  0  0  0  0  0  0
  192.0570  169.7120  142.5340 C   0  0  0  0  0  3  0  0  0  0  0  0
  193.6460  175.0740  145.1740 C   0  0  2  0  0  3  0  0  0  0  0  0
  195.0460  174.5030  145.4430 C   0  0  2  0  0  3  0  0  0  0  0  0
  189.6930  176.2170  144.1470 C   0  0  0  0  0  0  0  0  0  0  0  0
  189.1990  174.0310  142.9580 C   0  0  0  0  0  2  0  0  0  0  0  0
  187.4530  175.8020  143.3020 C   0  0  0  0  0  3  0  0  0  0  0  0
  190.2820  171.3550  142.3770 C   0  0  0  0  0  3  0  0  0  0  0  0
  190.4250  173.5260  143.7210 C   0  0  1  0  0  3  0  0  0  0  0  0
  190.9790  172.1970  143.2560 C   0  0  0  0  0  0  0  0  0  0  0  0
  192.9070  172.7010  144.7530 C   0  0  1  0  0  3  0  0  0  0  0  0
  187.9560  177.8770  144.4410 C   0  0  0  0  0  3  0  0  0  0  0  0
  188.7690  175.3730  143.4920 C   0  0  0  0  0  0  0  0  0  0  0  0
  196.0400  175.4040  144.8860 N   0  0  0  0  0  1  0  0  0  0  0  0
  189.2780  177.4610  144.6260 C   0  0  0  0  0  3  0  0  0  0  0  0
  192.7510  170.5380  143.4220 C   0  0  0  0  0  3  0  0  0  0  0  0
  192.2150  171.7800  143.7850 C   0  0  0  0  0  0  0  0  0  0  0  0
  194.1660  172.2200  145.2130 O   0  0  0  0  0  0  0  0  0  0  0  0
  191.0160  175.8020  144.3400 O   0  0  0  0  0  0  0  0  0  0  0  0
  192.9610  175.2030  146.3840 O   0  0  0  0  0  1  0  0  0  0  0  0
  192.8830  174.1510  144.2290 C   0  0  1  0  0  3  0  0  0  0  0  0
  195.2280  173.0840  144.8540 C   0  0  2  0  0  3  0  0  0  0  0  0
  184.9410  177.8270  144.5730 O   0  0  0  0  0  0  0  0  0  0  0  0
  185.0940  177.5580  142.2600 N   0  0  0  0  0  2  0  0  0  0  0  0
  185.6450  177.4980  143.5780 C   0  0  0  0  0  0  0  0  0  0  0  0
  183.7760  177.9700  142.0200 C   0  0  0  0  0  0  0  0  0  0  0  0
  182.6870  178.3090  141.8220 N   0  0  0  0  0  0  0  0  0  0  0  0
  196.5260  172.4870  145.2890 C   0  0  0  0  0  0  0  0  0  0  0  0
  196.8150  172.4410  146.5120 O   0  0  0  0  0  0  0  0  0  0  0  0
  197.4350  171.9580  144.3270 N   0  0  0  0  0  1  0  0  0  0  0  0
  1 14  1  0  0  0  0
  2 11  1  0  0  0  0
  2 23  1  0  0  0  0
  2 21  1  1  0  0  0
  3 10  2  0  0  0  0
  3  4  1  0  0  0  0
  4 18  2  0  0  0  0
  5  6  1  0  0  0  0
  5 22  1  1  0  0  0
  6 16  1  6  0  0  0
  7 21  1  0  0  0  0
  7 17  1  0  0  0  0
  8 15  1  0  0  0  0
  9 15  1  0  0  0  0
  9  1  2  0  0  0  0
 10 12  1  0  0  0  0
 11  8  1  6  0  0  0
 12 11  1  0  0  0  0
 12 19  2  0  0  0  0
 13 19  1  6  0  0  0
 13 20  1  0  0  0  0
 14 17  2  0  0  0  0
 15  7  2  0  0  0  0
 18 19  1  0  0  0  0
 23 13  1  0  0  0  0
 23  5  1  0  0  0  0
 24 20  1  0  0  0  0
 24 30  1  0  0  0  0
 24  6  1  0  0  0  0
 26 27  1  0  0  0  0
 27  1  1  0  0  0  0
 27 25  2  0  0  0  0
 28 26  1  0  0  0  0
 29 28  3  0  0  0  0
 30 31  2  0  0  0  0
 32 30  1  0  0  0  0
M  END
>  <MODEL>
7

>  <REMARK>
 VINA RESULT:      -7.6      2.968      9.781
  Name = 
  3 active torsions:
  status: ('A' for Active; 'I' for Inactive)
    1  A    between atoms: C_1  and  N_20
    2  A    between atoms: C_2  and  C_24
    3  A    between atoms: C_11  and  C_32
                            x       y       z     vdW  Elec       q    Type
                         _______ _______ _______ _____ _____    ______ ____

>  <TORSDO>
F 3

$$$$
=
 OpenBabel11052421263D

 32 36  0  0  1  0  0  0  0  0999 V2000
  185.3300  177.8620  142.1180 C   0  0  0  0  0  0  0  0  0  0  0  0
  189.9180  176.1450  143.4950 C   0  0  1  0  0  3  0  0  0  0  0  0
  189.7950  174.9160  148.1930 C   0  0  0  0  0  3  0  0  0  0  0  0
  191.1920  174.9370  148.2590 C   0  0  0  0  0  3  0  0  0  0  0  0
  192.2640  176.6870  142.4250 C   0  0  2  0  0  3  0  0  0  0  0  0
  193.7600  176.4160  142.6400 C   0  0  2  0  0  3  0  0  0  0  0  0
  188.0570  177.2130  142.3020 C   0  0  0  0  0  0  0  0  0  0  0  0
  187.7180  176.3380  144.6580 C   0  0  0  0  0  2  0  0  0  0  0  0
  185.8390  177.2860  143.2900 C   0  0  0  0  0  3  0  0  0  0  0  0
  189.1370  175.4360  147.0750 C   0  0  0  0  0  3  0  0  0  0  0  0
  189.2210  176.5870  144.7950 C   0  0  1  0  0  3  0  0  0  0  0  0
  189.8760  175.9710  146.0100 C   0  0  0  0  0  0  0  0  0  0  0  0
  192.0290  176.6180  144.9340 C   0  0  1  0  0  3  0  0  0  0  0  0
  186.1960  178.1150  141.0440 C   0  0  0  0  0  3  0  0  0  0  0  0
  187.1960  176.9710  143.3950 C   0  0  0  0  0  0  0  0  0  0  0  0
  194.2300  175.5070  141.6080 N   0  0  0  0  0  1  0  0  0  0  0  0
  187.5530  177.7920  141.1350 C   0  0  0  0  0  3  0  0  0  0  0  0
  191.9360  175.4810  147.2090 C   0  0  0  0  0  3  0  0  0  0  0  0
  191.2820  175.9990  146.0840 C   0  0  0  0  0  0  0  0  0  0  0  0
  193.4460  176.5750  145.0720 O   0  0  0  0  0  0  0  0  0  0  0  0
  189.4190  176.8980  142.3910 O   0  0  0  0  0  0  0  0  0  0  0  0
  192.0560  178.0640  142.3210 O   0  0  0  0  0  1  0  0  0  0  0  0
  191.4610  176.1160  143.5900 C   0  0  1  0  0  3  0  0  0  0  0  0
  194.0580  175.8260  144.0390 C   0  0  2  0  0  3  0  0  0  0  0  0
  183.2870  178.6660  143.0170 O   0  0  0  0  0  0  0  0  0  0  0  0
  183.2010  177.9930  140.7830 N   0  0  0  0  0  2  0  0  0  0  0  0
  183.8980  178.1970  142.0150 C   0  0  0  0  0  0  0  0  0  0  0  0
  181.8390  178.2920  140.6380 C   0  0  0  0  0  0  0  0  0  0  0  0
  180.7150  178.5400  140.5160 N   0  0  0  0  0  0  0  0  0  0  0  0
  195.5290  175.7470  144.2840 C   0  0  0  0  0  0  0  0  0  0  0  0
  196.2800  176.6730  143.8850 O   0  0  0  0  0  0  0  0  0  0  0  0
  196.0860  174.6330  144.9770 N   0  0  0  0  0  1  0  0  0  0  0  0
  1  9  1  0  0  0  0
  2 21  1  6  0  0  0
  2 23  1  0  0  0  0
  2 11  1  0  0  0  0
  3  4  1  0  0  0  0
  5 22  1  1  0  0  0
  5  6  1  0  0  0  0
  5 23  1  0  0  0  0
  6 16  1  6  0  0  0
  6 24  1  0  0  0  0
  7 21  1  0  0  0  0
  7 15  1  0  0  0  0
  9 15  2  0  0  0  0
 10  3  2  0  0  0  0
 11  8  1  6  0  0  0
 11 12  1  0  0  0  0
 12 19  2  0  0  0  0
 12 10  1  0  0  0  0
 13 20  1  1  0  0  0
 13 19  1  0  0  0  0
 14 17  1  0  0  0  0
 14  1  2  0  0  0  0
 15  8  1  0  0  0  0
 17  7  2  0  0  0  0
 18  4  2  0  0  0  0
 19 18  1  0  0  0  0
 23 13  1  0  0  0  0
 24 30  1  0  0  0  0
 24 20  1  0  0  0  0
 26 27  1  0  0  0  0
 27  1  1  0  0  0  0
 27 25  2  0  0  0  0
 28 26  1  0  0  0  0
 29 28  3  0  0  0  0
 30 32  1  0  0  0  0
 31 30  2  0  0  0  0
M  END
>  <MODEL>
8

>  <REMARK>
 VINA RESULT:      -7.5      1.931      8.826
  Name = 
  3 active torsions:
  status: ('A' for Active; 'I' for Inactive)
    1  A    between atoms: C_1  and  N_20
    2  A    between atoms: C_2  and  C_24
    3  A    between atoms: C_11  and  C_32
                            x       y       z     vdW  Elec       q    Type
                         _______ _______ _______ _____ _____    ______ ____

>  <TORSDO>
F 3

$$$$
=
 OpenBabel11052421263D

 32 36  0  0  1  0  0  0  0  0999 V2000
  194.2530  173.0420  145.0210 C   0  0  0  0  0  0  0  0  0  0  0  0
  189.6920  175.0600  144.0070 C   0  0  1  0  0  3  0  0  0  0  0  0
  188.5460  174.1210  139.3820 C   0  0  0  0  0  3  0  0  0  0  0  0
  187.5670  175.1190  139.3970 C   0  0  0  0  0  3  0  0  0  0  0  0
  188.4980  177.0930  145.1840 C   0  0  2  0  0  3  0  0  0  0  0  0
  187.2320  177.9550  145.0720 C   0  0  2  0  0  3  0  0  0  0  0  0
  191.8530  174.5030  145.0320 C   0  0  0  0  0  0  0  0  0  0  0  0
  191.2930  173.6520  142.7090 C   0  0  0  0  0  2  0  0  0  0  0  0
  193.3960  172.9960  143.9120 C   0  0  0  0  0  3  0  0  0  0  0  0
  189.4650  174.0210  140.4300 C   0  0  0  0  0  3  0  0  0  0  0  0
  190.3940  174.8890  142.6480 C   0  0  1  0  0  3  0  0  0  0  0  0
  189.4020  174.9170  141.5070 C   0  0  0  0  0  0  0  0  0  0  0  0
  188.4180  176.8890  142.6720 C   0  0  1  0  0  3  0  0  0  0  0  0
  193.9020  173.8270  146.1290 C   0  0  0  0  0  3  0  0  0  0  0  0
  192.2060  173.7290  143.9040 C   0  0  0  0  0  0  0  0  0  0  0  0
  186.3430  177.6380  146.1760 N   0  0  0  0  0  1  0  0  0  0  0  0
  192.7080  174.5540  146.1340 C   0  0  0  0  0  3  0  0  0  0  0  0
  187.5060  176.0260  140.4590 C   0  0  0  0  0  3  0  0  0  0  0  0
  188.4210  175.9280  141.5150 C   0  0  0  0  0  0  0  0  0  0  0  0
  187.3740  177.8570  142.6200 O   0  0  0  0  0  0  0  0  0  0  0  0
  190.6620  175.2390  145.0390 O   0  0  0  0  0  0  0  0  0  0  0  0
  189.6200  177.9230  145.2030 O   0  0  0  0  0  1  0  0  0  0  0  0
  188.5730  176.1280  144.0050 C   0  0  1  0  0  3  0  0  0  0  0  0
  186.4970  177.7520  143.7260 C   0  0  2  0  0  3  0  0  0  0  0  0
  196.5050  172.6880  144.3650 O   0  0  0  0  0  0  0  0  0  0  0  0
  195.6010  171.0530  145.7640 N   0  0  0  0  0  2  0  0  0  0  0  0
  195.5090  172.2710  145.0210 C   0  0  0  0  0  0  0  0  0  0  0  0
  196.7720  170.2820  145.7920 C   0  0  0  0  0  0  0  0  0  0  0  0
  197.7380  169.6450  145.8150 N   0  0  0  0  0  0  0  0  0  0  0  0
  185.3810  178.7330  143.5710 C   0  0  0  0  0  0  0  0  0  0  0  0
  185.5900  179.9550  143.7830 O   0  0  0  0  0  0  0  0  0  0  0  0
  184.0850  178.2950  143.1750 N   0  0  0  0  0  1  0  0  0  0  0  0
  1 14  1  0  0  0  0
  2 21  1  1  0  0  0
  3  4  2  0  0  0  0
  3 10  1  0  0  0  0
  4 18  1  0  0  0  0
  5 22  1  6  0  0  0
  6  5  1  0  0  0  0
  6 16  1  1  0  0  0
  7 21  1  0  0  0  0
  7 17  1  0  0  0  0
  8 15  1  0  0  0  0
  9  1  2  0  0  0  0
 10 12  2  0  0  0  0
 11  8  1  1  0  0  0
 11  2  1  0  0  0  0
 12 19  1  0  0  0  0
 12 11  1  0  0  0  0
 13 19  1  6  0  0  0
 13 23  1  0  0  0  0
 14 17  2  0  0  0  0
 15  9  1  0  0  0  0
 15  7  2  0  0  0  0
 18 19  2  0  0  0  0
 20 13  1  0  0  0  0
 20 24  1  0  0  0  0
 23  2  1  0  0  0  0
 23  5  1  0  0  0  0
 24  6  1  0  0  0  0
 25 27  2  0  0  0  0
 26 28  1  0  0  0  0
 27  1  1  0  0  0  0
 27 26  1  0  0  0  0
 28 29  3  0  0  0  0
 30 24  1  0  0  0  0
 30 31  2  0  0  0  0
 32 30  1  0  0  0  0
M  END
>  <MODEL>
9

>  <REMARK>
 VINA RESULT:      -7.2      2.789      4.742
  Name = 
  3 active torsions:
  status: ('A' for Active; 'I' for Inactive)
    1  A    between atoms: C_1  and  N_20
    2  A    between atoms: C_2  and  C_24
    3  A    between atoms: C_11  and  C_32
                            x       y       z     vdW  Elec       q    Type
                         _______ _______ _______ _____ _____    ______ ____

>  <TORSDO>
F 3

$$$$
