=
 OpenBabel11052417123D

 30 31  0  0  1  0  0  0  0  0999 V2000
  185.8020  179.1780  145.1790 C   0  0  0  0  0  0  0  0  0  0  0  0
  185.0890  178.9640  146.4850 C   0  0  0  0  0  2  0  0  0  0  0  0
  185.6000  180.1890  144.5280 O   0  0  0  0  0  0  0  0  0  0  0  0
  187.6300  177.6410  145.7960 C   0  0  1  0  0  3  0  0  0  0  0  0
  186.0690  178.4760  147.5540 C   0  0  0  0  0  2  0  0  0  0  0  0
  186.7080  178.1070  144.6520 C   0  0  1  0  0  3  0  0  0  0  0  0
  186.8680  177.2660  147.0670 C   0  0  0  0  0  2  0  0  0  0  0  0
  191.2340  176.2700  145.1660 C   0  0  0  0  0  2  0  0  0  0  0  0
  191.2070  175.3380  146.2250 O   0  0  0  0  0  0  0  0  0  0  0  0
  190.1710  177.3480  145.3580 C   0  0  1  0  0  3  0  0  0  0  0  0
  188.7820  175.5030  146.3870 C   0  0  0  0  0  2  0  0  0  0  0  0
  190.2640  178.3100  144.1890 C   0  0  0  0  0  1  0  0  0  0  0  0
  189.9990  174.6020  146.1670 C   0  0  1  0  0  3  0  0  0  0  0  0
  188.7820  176.6910  145.4250 C   0  0  1  0  0  3  0  0  0  0  0  0
  189.8810  173.8430  144.9250 N   0  0  0  0  0  2  0  0  0  0  0  0
  191.4910  172.0930  144.5060 O   0  0  0  0  0  0  0  0  0  0  0  0
  190.2200  172.4840  144.8590 N   0  0  0  0  0  0  0  0  0  0  0  0
  189.3640  171.6200  145.1370 O   0  0  0  0  0  0  0  0  0  0  0  0
  185.6880  176.7560  143.9660 S   0  0  0  0  0  0  0  0  0  0  0  0
  185.4990  177.6080  142.3760 C   0  0  0  0  0  2  0  0  0  0  0  0
  186.8210  178.2320  141.9720 C   0  0  0  0  0  2  0  0  0  0  0  0
  187.3550  177.5490  140.7240 C   0  0  2  0  0  3  0  0  0  0  0  0
  186.4120  177.6310  139.6990 O   0  0  0  0  0  1  0  0  0  0  0  0
  187.6780  176.0850  140.9920 C   0  0  0  0  0  2  0  0  0  0  0  0
  189.6420  174.8070  141.9130 C   0  0  0  0  0  3  0  0  0  0  0  0
  188.8840  175.9100  141.8720 C   0  0  0  0  0  3  0  0  0  0  0  0
  189.4040  173.5950  141.0610 C   0  0  2  0  0  3  0  0  0  0  0  0
  188.4140  172.6670  141.7400 C   0  0  0  0  0  1  0  0  0  0  0  0
  190.7060  172.8600  140.7350 C   0  0  0  0  0  2  0  0  0  0  0  0
  191.9030  173.7970  140.6390 C   0  0  0  0  0  1  0  0  0  0  0  0
  1  2  1  0  0  0  0
  2  5  1  0  0  0  0
  3  1  2  0  0  0  0
  4  7  1  1  0  0  0
  6 19  1  1  0  0  0
  6  1  1  0  0  0  0
  6  4  1  0  0  0  0
  7  5  1  0  0  0  0
  8 10  1  0  0  0  0
  8  9  1  0  0  0  0
 10 12  1  6  0  0  0
 10 14  1  0  0  0  0
 13 15  1  6  0  0  0
 13  9  1  0  0  0  0
 13 11  1  0  0  0  0
 14  4  1  0  0  0  0
 14 11  1  1  0  0  0
 16 17  2  0  0  0  0
 17 15  1  0  0  0  0
 17 18  2  0  0  0  0
 20 19  1  0  0  0  0
 21 20  1  0  0  0  0
 22 23  1  6  0  0  0
 22 24  1  0  0  0  0
 22 21  1  0  0  0  0
 24 26  1  0  0  0  0
 26 25  2  0  0  0  0
 27 28  1  1  0  0  0
 27 25  1  0  0  0  0
 29 27  1  0  0  0  0
 30 29  1  0  0  0  0
M  END
>  <MODEL>
1

>  <REMARK>
 VINA RESULT:      -6.3      0.000      0.000
  Name = 
  11 active torsions:
  status: ('A' for Active; 'I' for Inactive)
    1  A    between atoms: C_1  and  C_4
    2  A    between atoms: C_1  and  S_5
    3  A    between atoms: C_4  and  C_27
    4  A    between atoms: S_5  and  C_22
    5  A    between atoms: C_6  and  C_17
    6  A    between atoms: C_8  and  C_13
    7  A    between atoms: C_8  and  C_27
    8  A    between atoms: C_9  and  C_17
    9  A    between atoms: N_15  and  N_16
   10  A    between atoms: N_16  and  C_25
   11  A    between atoms: C_19  and  C_29
                            x       y       z     vdW  Elec       q    Type
                         _______ _______ _______ _____ _____    ______ ____

>  <TORSDO>
F 11

$$$$
=
 OpenBabel11052417123D

 30 31  0  0  1  0  0  0  0  0999 V2000
  194.5320  176.8810  145.0410 C   0  0  0  0  0  0  0  0  0  0  0  0
  195.6090  176.3160  144.1590 C   0  0  0  0  0  2  0  0  0  0  0  0
  194.7880  177.7760  145.8280 O   0  0  0  0  0  0  0  0  0  0  0  0
  192.7390  176.1380  143.5170 C   0  0  1  0  0  3  0  0  0  0  0  0
  195.1030  176.1750  142.7220 C   0  0  0  0  0  2  0  0  0  0  0  0
  193.1560  176.2860  144.9930 C   0  0  1  0  0  3  0  0  0  0  0  0
  193.7810  175.4080  142.6690 C   0  0  0  0  0  2  0  0  0  0  0  0
  189.0320  176.2990  142.2940 C   0  0  0  0  0  2  0  0  0  0  0  0
  189.1770  175.3050  141.3050 O   0  0  0  0  0  0  0  0  0  0  0  0
  190.3880  176.8700  142.6990 C   0  0  1  0  0  3  0  0  0  0  0  0
  191.2590  174.5300  142.3020 C   0  0  0  0  0  2  0  0  0  0  0  0
  190.1510  177.9300  143.7590 C   0  0  0  0  0  1  0  0  0  0  0  0
  189.8360  174.1840  141.8630 C   0  0  1  0  0  3  0  0  0  0  0  0
  191.2790  175.7390  143.2380 C   0  0  1  0  0  3  0  0  0  0  0  0
  189.0710  173.5900  142.9570 N   0  0  0  0  0  2  0  0  0  0  0  0
  189.3230  172.0050  144.7610 O   0  0  0  0  0  0  0  0  0  0  0  0
  189.3310  172.2900  143.4150 N   0  0  0  0  0  0  0  0  0  0  0  0
  189.5570  171.3800  142.5930 O   0  0  0  0  0  0  0  0  0  0  0  0
  193.1710  174.6960  145.8920 S   0  0  0  0  0  0  0  0  0  0  0  0
  192.3160  175.4120  147.3220 C   0  0  0  0  0  2  0  0  0  0  0  0
  191.1890  176.3090  146.8470 C   0  0  0  0  0  2  0  0  0  0  0  0
  189.8560  175.7630  147.3310 C   0  0  2  0  0  3  0  0  0  0  0  0
  189.6390  174.4940  146.7920 O   0  0  0  0  0  1  0  0  0  0  0  0
  188.7070  176.6800  146.9340 C   0  0  0  0  0  2  0  0  0  0  0  0
  186.8220  176.7310  145.2650 C   0  0  0  0  0  3  0  0  0  0  0  0
  187.8820  176.1190  145.8080 C   0  0  0  0  0  3  0  0  0  0  0  0
  186.3240  178.0810  145.6910 C   0  0  2  0  0  3  0  0  0  0  0  0
  185.0340  177.9360  146.4770 C   0  0  0  0  0  1  0  0  0  0  0  0
  186.1350  179.0230  144.5000 C   0  0  0  0  0  2  0  0  0  0  0  0
  184.7050  179.5270  144.3680 C   0  0  0  0  0  1  0  0  0  0  0  0
  1  3  2  0  0  0  0
  2  1  1  0  0  0  0
  4  7  1  1  0  0  0
  4  6  1  0  0  0  0
  5  2  1  0  0  0  0
  6  1  1  0  0  0  0
  6 19  1  6  0  0  0
  7  5  1  0  0  0  0
  8 10  1  0  0  0  0
  9 13  1  0  0  0  0
  9  8  1  0  0  0  0
 10 14  1  0  0  0  0
 10 12  1  1  0  0  0
 13 11  1  0  0  0  0
 13 15  1  1  0  0  0
 14 11  1  6  0  0  0
 14  4  1  0  0  0  0
 15 17  1  0  0  0  0
 17 16  2  0  0  0  0
 18 17  2  0  0  0  0
 19 20  1  0  0  0  0
 21 20  1  0  0  0  0
 21 22  1  0  0  0  0
 22 23  1  6  0  0  0
 24 22  1  0  0  0  0
 25 27  1  0  0  0  0
 25 26  2  0  0  0  0
 26 24  1  0  0  0  0
 27 28  1  6  0  0  0
 29 27  1  0  0  0  0
 30 29  1  0  0  0  0
M  END
>  <MODEL>
2

>  <REMARK>
 VINA RESULT:      -6.1      2.707      6.705
  Name = 
  11 active torsions:
  status: ('A' for Active; 'I' for Inactive)
    1  A    between atoms: C_1  and  C_4
    2  A    between atoms: C_1  and  S_5
    3  A    between atoms: C_4  and  C_27
    4  A    between atoms: S_5  and  C_22
    5  A    between atoms: C_6  and  C_17
    6  A    between atoms: C_8  and  C_13
    7  A    between atoms: C_8  and  C_27
    8  A    between atoms: C_9  and  C_17
    9  A    between atoms: N_15  and  N_16
   10  A    between atoms: N_16  and  C_25
   11  A    between atoms: C_19  and  C_29
                            x       y       z     vdW  Elec       q    Type
                         _______ _______ _______ _____ _____    ______ ____

>  <TORSDO>
F 11

$$$$
=
 OpenBabel11052417123D

 30 31  0  0  1  0  0  0  0  0999 V2000
  189.6720  174.9750  145.7440 C   0  0  0  0  0  0  0  0  0  0  0  0
  190.6990  175.9720  146.2020 C   0  0  0  0  0  2  0  0  0  0  0  0
  189.7580  173.8060  146.0810 O   0  0  0  0  0  0  0  0  0  0  0  0
  187.9790  176.7270  145.3550 C   0  0  1  0  0  3  0  0  0  0  0  0
  190.0170  177.2510  146.6950 C   0  0  0  0  0  2  0  0  0  0  0  0
  188.5830  175.4160  144.8130 C   0  0  1  0  0  3  0  0  0  0  0  0
  189.0330  177.7930  145.6570 C   0  0  0  0  0  2  0  0  0  0  0  0
  184.5690  178.5440  144.7780 C   0  0  0  0  0  2  0  0  0  0  0  0
  185.0830  179.5090  143.8870 O   0  0  0  0  0  0  0  0  0  0  0  0
  185.6850  177.9130  145.6060 C   0  0  1  0  0  3  0  0  0  0  0  0
  187.1000  178.1910  143.5290 C   0  0  0  0  0  2  0  0  0  0  0  0
  185.0570  176.8930  146.5380 C   0  0  0  0  0  1  0  0  0  0  0  0
  185.8750  178.8630  142.9080 C   0  0  1  0  0  3  0  0  0  0  0  0
  186.7060  177.2490  144.6670 C   0  0  1  0  0  3  0  0  0  0  0  0
  185.0960  177.9180  142.1110 N   0  0  0  0  0  2  0  0  0  0  0  0
  183.6790  178.4110  140.2190 O   0  0  0  0  0  0  0  0  0  0  0  0
  184.9160  178.0920  140.7320 N   0  0  0  0  0  0  0  0  0  0  0  0
  185.8900  177.9690  139.9630 O   0  0  0  0  0  0  0  0  0  0  0  0
  189.2780  175.5930  143.1340 S   0  0  0  0  0  0  0  0  0  0  0  0
  189.2910  173.7990  142.8710 C   0  0  0  0  0  2  0  0  0  0  0  0
  190.7230  173.3030  142.8060 C   0  0  0  0  0  2  0  0  0  0  0  0
  191.6260  174.4040  142.2710 C   0  0  2  0  0  3  0  0  0  0  0  0
  191.9820  174.1250  140.9520 O   0  0  0  0  0  1  0  0  0  0  0  0
  192.8880  174.5390  143.1130 C   0  0  0  0  0  2  0  0  0  0  0  0
  193.7180  173.7470  145.3540 C   0  0  0  0  0  3  0  0  0  0  0  0
  192.8810  173.6350  144.3150 C   0  0  0  0  0  3  0  0  0  0  0  0
  194.7680  174.8130  145.4750 C   0  0  2  0  0  3  0  0  0  0  0  0
  196.1040  174.1900  145.8310 C   0  0  0  0  0  1  0  0  0  0  0  0
  194.3770  175.8870  146.4920 C   0  0  0  0  0  2  0  0  0  0  0  0
  194.5620  177.3010  145.9560 C   0  0  0  0  0  1  0  0  0  0  0  0
  1  3  2  0  0  0  0
  1  2  1  0  0  0  0
  2  5  1  0  0  0  0
  4  7  1  6  0  0  0
  6 19  1  6  0  0  0
  6  4  1  0  0  0  0
  6  1  1  0  0  0  0
  7  5  1  0  0  0  0
  8 10  1  0  0  0  0
  9  8  1  0  0  0  0
 10 12  1  1  0  0  0
 13 15  1  1  0  0  0
 13 11  1  0  0  0  0
 13  9  1  0  0  0  0
 14 11  1  6  0  0  0
 14  4  1  0  0  0  0
 14 10  1  0  0  0  0
 16 17  2  0  0  0  0
 17 15  1  0  0  0  0
 18 17  2  0  0  0  0
 20 19  1  0  0  0  0
 21 20  1  0  0  0  0
 22 23  1  6  0  0  0
 22 21  1  0  0  0  0
 22 24  1  0  0  0  0
 24 26  1  0  0  0  0
 25 27  1  0  0  0  0
 26 25  2  0  0  0  0
 27 28  1  1  0  0  0
 27 29  1  0  0  0  0
 30 29  1  0  0  0  0
M  END
>  <MODEL>
3

>  <REMARK>
 VINA RESULT:      -6.1      3.062      6.349
  Name = 
  11 active torsions:
  status: ('A' for Active; 'I' for Inactive)
    1  A    between atoms: C_1  and  C_4
    2  A    between atoms: C_1  and  S_5
    3  A    between atoms: C_4  and  C_27
    4  A    between atoms: S_5  and  C_22
    5  A    between atoms: C_6  and  C_17
    6  A    between atoms: C_8  and  C_13
    7  A    between atoms: C_8  and  C_27
    8  A    between atoms: C_9  and  C_17
    9  A    between atoms: N_15  and  N_16
   10  A    between atoms: N_16  and  C_25
   11  A    between atoms: C_19  and  C_29
                            x       y       z     vdW  Elec       q    Type
                         _______ _______ _______ _____ _____    ______ ____

>  <TORSDO>
F 11

$$$$
=
 OpenBabel11052417123D

 30 31  0  0  1  0  0  0  0  0999 V2000
  190.3440  177.1210  145.4280 C   0  0  0  0  0  0  0  0  0  0  0  0
  189.8600  176.8750  146.8290 C   0  0  0  0  0  2  0  0  0  0  0  0
  189.9440  178.0860  144.8000 O   0  0  0  0  0  0  0  0  0  0  0  0
  192.3940  175.7940  145.7840 C   0  0  1  0  0  3  0  0  0  0  0  0
  191.0330  176.5210  147.7450 C   0  0  0  0  0  2  0  0  0  0  0  0
  191.2690  176.1300  144.7860 C   0  0  1  0  0  3  0  0  0  0  0  0
  191.8710  175.3820  147.1610 C   0  0  0  0  0  2  0  0  0  0  0  0
  196.0280  174.5000  145.1660 C   0  0  0  0  0  2  0  0  0  0  0  0
  195.8470  173.2750  145.8410 O   0  0  0  0  0  0  0  0  0  0  0  0
  194.9650  175.5140  145.5790 C   0  0  1  0  0  3  0  0  0  0  0  0
  193.4250  173.5170  145.7600 C   0  0  0  0  0  2  0  0  0  0  0  0
  195.2260  176.8010  144.8180 C   0  0  0  0  0  1  0  0  0  0  0  0
  194.6460  172.6710  145.3980 C   0  0  1  0  0  3  0  0  0  0  0  0
  193.5700  174.9540  145.2570 C   0  0  1  0  0  3  0  0  0  0  0  0
  194.6820  172.3700  143.9690 N   0  0  0  0  0  2  0  0  0  0  0  0
  192.9050  172.6910  142.3650 O   0  0  0  0  0  0  0  0  0  0  0  0
  193.5500  171.8990  143.2880 N   0  0  0  0  0  0  0  0  0  0  0  0
  193.1310  170.7460  143.5120 O   0  0  0  0  0  0  0  0  0  0  0  0
  190.3030  174.6650  144.2810 S   0  0  0  0  0  0  0  0  0  0  0  0
  189.6220  175.5200  142.8340 C   0  0  0  0  0  2  0  0  0  0  0  0
  188.1120  175.3740  142.8190 C   0  0  0  0  0  2  0  0  0  0  0  0
  187.4990  176.4530  141.9410 C   0  0  2  0  0  3  0  0  0  0  0  0
  188.4530  177.4280  141.6510 O   0  0  0  0  0  1  0  0  0  0  0  0
  186.3060  177.1080  142.6250 C   0  0  0  0  0  2  0  0  0  0  0  0
  186.1600  178.5850  144.6590 C   0  0  0  0  0  3  0  0  0  0  0  0
  186.6990  178.2890  143.4690 C   0  0  0  0  0  3  0  0  0  0  0  0
  185.1020  177.7600  145.3300 C   0  0  2  0  0  3  0  0  0  0  0  0
  184.0890  178.6620  146.0080 C   0  0  0  0  0  1  0  0  0  0  0  0
  185.7000  176.7630  146.3250 C   0  0  0  0  0  2  0  0  0  0  0  0
  186.1320  177.4200  147.6290 C   0  0  0  0  0  1  0  0  0  0  0  0
  1  2  1  0  0  0  0
  2  5  1  0  0  0  0
  3  1  2  0  0  0  0
  4  7  1  1  0  0  0
  6 19  1  1  0  0  0
  6  1  1  0  0  0  0
  6  4  1  0  0  0  0
  7  5  1  0  0  0  0
  8 10  1  0  0  0  0
  8  9  1  0  0  0  0
 10 12  1  6  0  0  0
 13 15  1  6  0  0  0
 13 11  1  0  0  0  0
 13  9  1  0  0  0  0
 14 10  1  0  0  0  0
 14 11  1  1  0  0  0
 14  4  1  0  0  0  0
 16 17  2  0  0  0  0
 17 18  2  0  0  0  0
 17 15  1  0  0  0  0
 20 19  1  0  0  0  0
 21 20  1  0  0  0  0
 22 23  1  1  0  0  0
 22 24  1  0  0  0  0
 22 21  1  0  0  0  0
 24 26  1  0  0  0  0
 25 27  1  0  0  0  0
 26 25  2  0  0  0  0
 27 28  1  1  0  0  0
 27 29  1  0  0  0  0
 29 30  1  0  0  0  0
M  END
>  <MODEL>
4

>  <REMARK>
 VINA RESULT:      -6.0      2.866      5.312
  Name = 
  11 active torsions:
  status: ('A' for Active; 'I' for Inactive)
    1  A    between atoms: C_1  and  C_4
    2  A    between atoms: C_1  and  S_5
    3  A    between atoms: C_4  and  C_27
    4  A    between atoms: S_5  and  C_22
    5  A    between atoms: C_6  and  C_17
    6  A    between atoms: C_8  and  C_13
    7  A    between atoms: C_8  and  C_27
    8  A    between atoms: C_9  and  C_17
    9  A    between atoms: N_15  and  N_16
   10  A    between atoms: N_16  and  C_25
   11  A    between atoms: C_19  and  C_29
                            x       y       z     vdW  Elec       q    Type
                         _______ _______ _______ _____ _____    ______ ____

>  <TORSDO>
F 11

$$$$
=
 OpenBabel11052417123D

 30 31  0  0  1  0  0  0  0  0999 V2000
  186.0820  178.6530  145.4050 C   0  0  0  0  0  0  0  0  0  0  0  0
  185.4050  178.0720  146.6140 C   0  0  0  0  0  2  0  0  0  0  0  0
  185.8120  179.7820  145.0340 O   0  0  0  0  0  0  0  0  0  0  0  0
  188.0040  177.1190  145.6030 C   0  0  1  0  0  3  0  0  0  0  0  0
  186.4300  177.3860  147.5210 C   0  0  0  0  0  2  0  0  0  0  0  0
  187.0370  177.8060  144.6190 C   0  0  1  0  0  3  0  0  0  0  0  0
  187.2860  176.3880  146.7380 C   0  0  0  0  0  2  0  0  0  0  0  0
  191.6660  176.1740  144.6220 C   0  0  0  0  0  2  0  0  0  0  0  0
  191.7180  175.0100  145.4170 O   0  0  0  0  0  0  0  0  0  0  0  0
  190.5460  177.1020  145.0840 C   0  0  1  0  0  3  0  0  0  0  0  0
  189.2930  174.9770  145.6370 C   0  0  0  0  0  2  0  0  0  0  0  0
  190.5550  178.3270  144.1880 C   0  0  0  0  0  1  0  0  0  0  0  0
  190.5540  174.2370  145.1900 C   0  0  1  0  0  3  0  0  0  0  0  0
  189.2000  176.3640  144.9990 C   0  0  1  0  0  3  0  0  0  0  0  0
  190.4510  173.8010  143.7990 N   0  0  0  0  0  2  0  0  0  0  0  0
  188.4380  173.6690  142.4740 O   0  0  0  0  0  0  0  0  0  0  0  0
  189.3400  173.0840  143.3340 N   0  0  0  0  0  0  0  0  0  0  0  0
  189.1740  171.9010  143.6920 O   0  0  0  0  0  0  0  0  0  0  0  0
  186.0820  176.6170  143.6140 S   0  0  0  0  0  0  0  0  0  0  0  0
  185.6970  177.8730  142.3630 C   0  0  0  0  0  2  0  0  0  0  0  0
  184.1930  177.9830  142.1970 C   0  0  0  0  0  2  0  0  0  0  0  0
  183.8310  177.9260  140.7220 C   0  0  2  0  0  3  0  0  0  0  0  0
  184.4410  178.9800  140.0430 O   0  0  0  0  0  1  0  0  0  0  0  0
  182.3230  178.0070  140.5210 C   0  0  0  0  0  2  0  0  0  0  0  0
  180.5030  179.3720  141.6000 C   0  0  0  0  0  3  0  0  0  0  0  0
  181.6160  178.6330  141.6910 C   0  0  0  0  0  3  0  0  0  0  0  0
  179.7900  179.6570  140.3110 C   0  0  2  0  0  3  0  0  0  0  0  0
  179.5460  181.1480  140.1680 C   0  0  0  0  0  1  0  0  0  0  0  0
  178.4790  178.8750  140.1980 C   0  0  0  0  0  2  0  0  0  0  0  0
  178.6540  177.5250  139.5170 C   0  0  0  0  0  1  0  0  0  0  0  0
  1  2  1  0  0  0  0
  2  5  1  0  0  0  0
  3  1  2  0  0  0  0
  4  7  1  6  0  0  0
  6 19  1  1  0  0  0
  6  1  1  0  0  0  0
  6  4  1  0  0  0  0
  7  5  1  0  0  0  0
  8 10  1  0  0  0  0
  8  9  1  0  0  0  0
 10 12  1  6  0  0  0
 13 15  1  6  0  0  0
 13  9  1  0  0  0  0
 13 11  1  0  0  0  0
 14 10  1  0  0  0  0
 14  4  1  0  0  0  0
 14 11  1  1  0  0  0
 16 17  2  0  0  0  0
 17 18  2  0  0  0  0
 17 15  1  0  0  0  0
 20 19  1  0  0  0  0
 21 20  1  0  0  0  0
 22 23  1  6  0  0  0
 22 21  1  0  0  0  0
 24 22  1  0  0  0  0
 24 26  1  0  0  0  0
 25 26  2  0  0  0  0
 27 28  1  1  0  0  0
 27 25  1  0  0  0  0
 29 27  1  0  0  0  0
 30 29  1  0  0  0  0
M  END
>  <MODEL>
5

>  <REMARK>
 VINA RESULT:      -6.0      3.189      5.524
  Name = 
  11 active torsions:
  status: ('A' for Active; 'I' for Inactive)
    1  A    between atoms: C_1  and  C_4
    2  A    between atoms: C_1  and  S_5
    3  A    between atoms: C_4  and  C_27
    4  A    between atoms: S_5  and  C_22
    5  A    between atoms: C_6  and  C_17
    6  A    between atoms: C_8  and  C_13
    7  A    between atoms: C_8  and  C_27
    8  A    between atoms: C_9  and  C_17
    9  A    between atoms: N_15  and  N_16
   10  A    between atoms: N_16  and  C_25
   11  A    between atoms: C_19  and  C_29
                            x       y       z     vdW  Elec       q    Type
                         _______ _______ _______ _____ _____    ______ ____

>  <TORSDO>
F 11

$$$$
=
 OpenBabel11052417123D

 30 31  0  0  1  0  0  0  0  0999 V2000
  189.6630  174.9960  145.1520 C   0  0  0  0  0  0  0  0  0  0  0  0
  190.7240  175.9620  145.5990 C   0  0  0  0  0  2  0  0  0  0  0  0
  189.7970  173.8010  145.3510 O   0  0  0  0  0  0  0  0  0  0  0  0
  187.9200  176.7420  145.1390 C   0  0  1  0  0  3  0  0  0  0  0  0
  190.0890  177.1660  146.2970 C   0  0  0  0  0  2  0  0  0  0  0  0
  188.4730  175.5090  144.3990 C   0  0  1  0  0  3  0  0  0  0  0  0
  188.9900  177.7930  145.4360 C   0  0  0  0  0  2  0  0  0  0  0  0
  184.4670  178.5700  145.1260 C   0  0  0  0  0  2  0  0  0  0  0  0
  184.8710  179.6060  144.2580 O   0  0  0  0  0  0  0  0  0  0  0  0
  185.6750  177.8860  145.7600 C   0  0  1  0  0  3  0  0  0  0  0  0
  186.8270  178.3370  143.5550 C   0  0  0  0  0  2  0  0  0  0  0  0
  185.1640  176.7910  146.6780 C   0  0  0  0  0  1  0  0  0  0  0  0
  185.5360  179.0460  143.1410 C   0  0  1  0  0  3  0  0  0  0  0  0
  186.5730  177.3060  144.6550 C   0  0  1  0  0  3  0  0  0  0  0  0
  184.6650  178.1600  142.3740 N   0  0  0  0  0  2  0  0  0  0  0  0
  183.3510  178.2910  140.3520 O   0  0  0  0  0  0  0  0  0  0  0  0
  184.5770  178.2440  140.9770 N   0  0  0  0  0  0  0  0  0  0  0  0
  185.6200  178.2900  140.2950 O   0  0  0  0  0  0  0  0  0  0  0  0
  188.9760  175.8760  142.6820 S   0  0  0  0  0  0  0  0  0  0  0  0
  188.3870  174.2670  142.0870 C   0  0  0  0  0  2  0  0  0  0  0  0
  189.5370  173.5050  141.4550 C   0  0  0  0  0  2  0  0  0  0  0  0
  189.6130  172.1050  142.0420 C   0  0  2  0  0  3  0  0  0  0  0  0
  188.5740  171.9160  142.9530 O   0  0  0  0  0  1  0  0  0  0  0  0
  190.9440  171.8730  142.7440 C   0  0  0  0  0  2  0  0  0  0  0  0
  192.8100  173.4080  143.4520 C   0  0  0  0  0  3  0  0  0  0  0  0
  191.9090  173.0090  142.5450 C   0  0  0  0  0  3  0  0  0  0  0  0
  192.9990  172.7560  144.7900 C   0  0  2  0  0  3  0  0  0  0  0  0
  193.6280  173.7350  145.7630 C   0  0  0  0  0  1  0  0  0  0  0  0
  193.8300  171.4750  144.6890 C   0  0  0  0  0  2  0  0  0  0  0  0
  194.9140  171.3900  145.7540 C   0  0  0  0  0  1  0  0  0  0  0  0
  1  3  2  0  0  0  0
  1  2  1  0  0  0  0
  2  5  1  0  0  0  0
  4  7  1  6  0  0  0
  6 19  1  6  0  0  0
  6  4  1  0  0  0  0
  6  1  1  0  0  0  0
  7  5  1  0  0  0  0
  8 10  1  0  0  0  0
  9  8  1  0  0  0  0
 10 12  1  1  0  0  0
 13 15  1  1  0  0  0
 13 11  1  0  0  0  0
 13  9  1  0  0  0  0
 14 11  1  6  0  0  0
 14  4  1  0  0  0  0
 14 10  1  0  0  0  0
 16 17  2  0  0  0  0
 17 15  1  0  0  0  0
 18 17  2  0  0  0  0
 20 19  1  0  0  0  0
 21 22  1  0  0  0  0
 21 20  1  0  0  0  0
 22 24  1  0  0  0  0
 22 23  1  1  0  0  0
 25 27  1  0  0  0  0
 26 24  1  0  0  0  0
 26 25  2  0  0  0  0
 27 28  1  1  0  0  0
 29 27  1  0  0  0  0
 29 30  1  0  0  0  0
M  END
>  <MODEL>
6

>  <REMARK>
 VINA RESULT:      -5.7      3.057      6.061
  Name = 
  11 active torsions:
  status: ('A' for Active; 'I' for Inactive)
    1  A    between atoms: C_1  and  C_4
    2  A    between atoms: C_1  and  S_5
    3  A    between atoms: C_4  and  C_27
    4  A    between atoms: S_5  and  C_22
    5  A    between atoms: C_6  and  C_17
    6  A    between atoms: C_8  and  C_13
    7  A    between atoms: C_8  and  C_27
    8  A    between atoms: C_9  and  C_17
    9  A    between atoms: N_15  and  N_16
   10  A    between atoms: N_16  and  C_25
   11  A    between atoms: C_19  and  C_29
                            x       y       z     vdW  Elec       q    Type
                         _______ _______ _______ _____ _____    ______ ____

>  <TORSDO>
F 11

$$$$
=
 OpenBabel11052417123D

 30 31  0  0  1  0  0  0  0  0999 V2000
  190.4890  173.8500  141.6830 C   0  0  0  0  0  0  0  0  0  0  0  0
  189.6710  172.6520  141.2910 C   0  0  0  0  0  2  0  0  0  0  0  0
  191.6270  173.9810  141.2670 O   0  0  0  0  0  0  0  0  0  0  0  0
  188.4820  175.1900  142.1990 C   0  0  1  0  0  3  0  0  0  0  0  0
  188.2580  173.0780  140.8910 C   0  0  0  0  0  2  0  0  0  0  0  0
  189.9160  174.8470  142.6460 C   0  0  1  0  0  3  0  0  0  0  0  0
  187.6130  173.9540  141.9670 C   0  0  0  0  0  2  0  0  0  0  0  0
  186.7290  178.6190  142.8590 C   0  0  0  0  0  2  0  0  0  0  0  0
  185.4660  178.0650  143.1560 O   0  0  0  0  0  0  0  0  0  0  0  0
  187.5940  177.6260  142.0870 C   0  0  1  0  0  3  0  0  0  0  0  0
  186.4430  175.8580  143.4820 C   0  0  0  0  0  2  0  0  0  0  0  0
  188.9280  178.2910  141.8020 C   0  0  0  0  0  1  0  0  0  0  0  0
  185.6280  177.0060  144.0810 C   0  0  1  0  0  3  0  0  0  0  0  0
  187.7800  176.3500  142.9260 C   0  0  1  0  0  3  0  0  0  0  0  0
  186.2030  177.4650  145.3430 N   0  0  0  0  0  2  0  0  0  0  0  0
  185.9340  177.1460  147.7210 O   0  0  0  0  0  0  0  0  0  0  0  0
  185.4310  177.5620  146.5090 N   0  0  0  0  0  0  0  0  0  0  0  0
  184.2820  178.0440  146.4510 O   0  0  0  0  0  0  0  0  0  0  0  0
  189.9880  174.1460  144.3310 S   0  0  0  0  0  0  0  0  0  0  0  0
  191.6960  174.7080  144.5720 C   0  0  0  0  0  2  0  0  0  0  0  0
  191.9130  175.0690  146.0290 C   0  0  0  0  0  2  0  0  0  0  0  0
  192.5460  176.4480  146.1290 C   0  0  2  0  0  3  0  0  0  0  0  0
  192.4430  177.1070  144.9050 O   0  0  0  0  0  1  0  0  0  0  0  0
  194.0130  176.3530  146.5250 C   0  0  0  0  0  2  0  0  0  0  0  0
  195.6910  175.2920  144.9750 C   0  0  0  0  0  3  0  0  0  0  0  0
  194.9340  176.3360  145.3360 C   0  0  0  0  0  3  0  0  0  0  0  0
  195.7050  173.9780  145.6980 C   0  0  2  0  0  3  0  0  0  0  0  0
  197.1220  173.6290  146.1160 C   0  0  0  0  0  1  0  0  0  0  0  0
  195.0910  172.8560  144.8580 C   0  0  0  0  0  2  0  0  0  0  0  0
  194.2250  171.9110  145.6790 C   0  0  0  0  0  1  0  0  0  0  0  0
  1  6  1  0  0  0  0
  2  1  1  0  0  0  0
  3  1  2  0  0  0  0
  4  7  1  1  0  0  0
  4  6  1  0  0  0  0
  4 14  1  0  0  0  0
  5  2  1  0  0  0  0
  5  7  1  0  0  0  0
  6 19  1  1  0  0  0
  8  9  1  0  0  0  0
  9 13  1  0  0  0  0
 10 12  1  1  0  0  0
 10  8  1  0  0  0  0
 10 14  1  0  0  0  0
 11 13  1  0  0  0  0
 13 15  1  1  0  0  0
 14 11  1  6  0  0  0
 15 17  1  0  0  0  0
 17 16  2  0  0  0  0
 18 17  2  0  0  0  0
 19 20  1  0  0  0  0
 20 21  1  0  0  0  0
 21 22  1  0  0  0  0
 22 23  1  6  0  0  0
 22 24  1  0  0  0  0
 25 26  2  0  0  0  0
 25 27  1  0  0  0  0
 26 24  1  0  0  0  0
 27 28  1  6  0  0  0
 29 30  1  0  0  0  0
 29 27  1  0  0  0  0
M  END
>  <MODEL>
7

>  <REMARK>
 VINA RESULT:      -5.5      3.373      6.858
  Name = 
  11 active torsions:
  status: ('A' for Active; 'I' for Inactive)
    1  A    between atoms: C_1  and  C_4
    2  A    between atoms: C_1  and  S_5
    3  A    between atoms: C_4  and  C_27
    4  A    between atoms: S_5  and  C_22
    5  A    between atoms: C_6  and  C_17
    6  A    between atoms: C_8  and  C_13
    7  A    between atoms: C_8  and  C_27
    8  A    between atoms: C_9  and  C_17
    9  A    between atoms: N_15  and  N_16
   10  A    between atoms: N_16  and  C_25
   11  A    between atoms: C_19  and  C_29
                            x       y       z     vdW  Elec       q    Type
                         _______ _______ _______ _____ _____    ______ ____

>  <TORSDO>
F 11

$$$$
=
 OpenBabel11052417123D

 30 31  0  0  1  0  0  0  0  0999 V2000
  190.1580  175.0130  145.4320 C   0  0  0  0  0  0  0  0  0  0  0  0
  190.9140  175.9310  146.3510 C   0  0  0  0  0  2  0  0  0  0  0  0
  190.4250  173.8240  145.3950 O   0  0  0  0  0  0  0  0  0  0  0  0
  188.2200  176.5360  145.3210 C   0  0  1  0  0  3  0  0  0  0  0  0
  189.9480  176.8570  147.0920 C   0  0  0  0  0  2  0  0  0  0  0  0
  189.1220  175.5850  144.5110 C   0  0  1  0  0  3  0  0  0  0  0  0
  189.0070  177.5740  146.1210 C   0  0  0  0  0  2  0  0  0  0  0  0
  184.8450  178.4060  144.7060 C   0  0  0  0  0  2  0  0  0  0  0  0
  185.3820  179.3550  143.8120 O   0  0  0  0  0  0  0  0  0  0  0  0
  185.9440  177.7620  145.5470 C   0  0  1  0  0  3  0  0  0  0  0  0
  187.3790  178.0010  143.4780 C   0  0  0  0  0  2  0  0  0  0  0  0
  185.2920  176.7610  146.4820 C   0  0  0  0  0  1  0  0  0  0  0  0
  186.1700  178.6900  142.8430 C   0  0  1  0  0  3  0  0  0  0  0  0
  186.9610  177.0740  144.6200 C   0  0  1  0  0  3  0  0  0  0  0  0
  185.3810  177.7520  142.0480 N   0  0  0  0  0  2  0  0  0  0  0  0
  184.0170  178.3500  140.1470 O   0  0  0  0  0  0  0  0  0  0  0  0
  185.2170  177.9170  140.6650 N   0  0  0  0  0  0  0  0  0  0  0  0
  186.1710  177.6810  139.8980 O   0  0  0  0  0  0  0  0  0  0  0  0
  189.9650  176.4160  143.1200 S   0  0  0  0  0  0  0  0  0  0  0  0
  189.9270  174.9140  142.1030 C   0  0  0  0  0  2  0  0  0  0  0  0
  188.6240  174.1730  142.3380 C   0  0  0  0  0  2  0  0  0  0  0  0
  188.7800  172.7160  141.9330 C   0  0  2  0  0  3  0  0  0  0  0  0
  188.8740  171.9150  143.0710 O   0  0  0  0  0  1  0  0  0  0  0  0
  190.0200  172.5120  141.0720 C   0  0  0  0  0  2  0  0  0  0  0  0
  189.5550  172.1240  138.6280 C   0  0  0  0  0  3  0  0  0  0  0  0
  189.7530  171.6540  139.8670 C   0  0  0  0  0  3  0  0  0  0  0  0
  189.5980  173.5800  138.2670 C   0  0  2  0  0  3  0  0  0  0  0  0
  188.1930  174.1520  138.2400 C   0  0  0  0  0  1  0  0  0  0  0  0
  190.3120  173.8180  136.9340 C   0  0  0  0  0  2  0  0  0  0  0  0
  191.7720  174.2130  137.1100 C   0  0  0  0  0  1  0  0  0  0  0  0
  1  2  1  0  0  0  0
  2  5  1  0  0  0  0
  3  1  2  0  0  0  0
  4  7  1  6  0  0  0
  6 19  1  6  0  0  0
  6  4  1  0  0  0  0
  6  1  1  0  0  0  0
  7  5  1  0  0  0  0
  8 10  1  0  0  0  0
  9  8  1  0  0  0  0
 10 12  1  1  0  0  0
 13 15  1  1  0  0  0
 13 11  1  0  0  0  0
 13  9  1  0  0  0  0
 14 11  1  6  0  0  0
 14  4  1  0  0  0  0
 14 10  1  0  0  0  0
 16 17  2  0  0  0  0
 17 15  1  0  0  0  0
 18 17  2  0  0  0  0
 20 21  1  0  0  0  0
 20 19  1  0  0  0  0
 22 21  1  0  0  0  0
 22 23  1  1  0  0  0
 24 22  1  0  0  0  0
 25 26  2  0  0  0  0
 26 24  1  0  0  0  0
 27 28  1  6  0  0  0
 27 25  1  0  0  0  0
 29 30  1  0  0  0  0
 29 27  1  0  0  0  0
M  END
>  <MODEL>
8

>  <REMARK>
 VINA RESULT:      -5.5      2.667      5.638
  Name = 
  11 active torsions:
  status: ('A' for Active; 'I' for Inactive)
    1  A    between atoms: C_1  and  C_4
    2  A    between atoms: C_1  and  S_5
    3  A    between atoms: C_4  and  C_27
    4  A    between atoms: S_5  and  C_22
    5  A    between atoms: C_6  and  C_17
    6  A    between atoms: C_8  and  C_13
    7  A    between atoms: C_8  and  C_27
    8  A    between atoms: C_9  and  C_17
    9  A    between atoms: N_15  and  N_16
   10  A    between atoms: N_16  and  C_25
   11  A    between atoms: C_19  and  C_29
                            x       y       z     vdW  Elec       q    Type
                         _______ _______ _______ _____ _____    ______ ____

>  <TORSDO>
F 11

$$$$
=
 OpenBabel11052417123D

 30 31  0  0  1  0  0  0  0  0999 V2000
  190.3740  174.0490  145.3730 C   0  0  0  0  0  0  0  0  0  0  0  0
  189.9050  172.8270  144.6360 C   0  0  0  0  0  2  0  0  0  0  0  0
  189.7830  174.4310  146.3680 O   0  0  0  0  0  0  0  0  0  0  0  0
  192.6630  173.8510  144.4730 C   0  0  1  0  0  3  0  0  0  0  0  0
  191.0910  171.9220  144.2940 C   0  0  0  0  0  2  0  0  0  0  0  0
  191.5320  174.8340  144.8320 C   0  0  1  0  0  3  0  0  0  0  0  0
  192.1980  172.7000  143.5800 C   0  0  0  0  0  2  0  0  0  0  0  0
  196.3890  175.0030  144.7010 C   0  0  0  0  0  2  0  0  0  0  0  0
  196.8690  174.0870  143.7420 O   0  0  0  0  0  0  0  0  0  0  0  0
  195.0350  174.5640  145.2490 C   0  0  1  0  0  3  0  0  0  0  0  0
  194.6140  173.6740  142.9200 C   0  0  0  0  0  2  0  0  0  0  0  0
  194.5880  175.5920  146.2720 C   0  0  0  0  0  1  0  0  0  0  0  0
  196.0370  174.1320  142.5970 C   0  0  1  0  0  3  0  0  0  0  0  0
  194.0250  174.4570  144.0940 C   0  0  1  0  0  3  0  0  0  0  0  0
  196.0430  175.4510  141.9690 N   0  0  0  0  0  2  0  0  0  0  0  0
  195.1450  175.6570  139.7370 O   0  0  0  0  0  0  0  0  0  0  0  0
  196.2260  175.6070  140.5880 N   0  0  0  0  0  0  0  0  0  0  0  0
  197.3800  175.7140  140.1270 O   0  0  0  0  0  0  0  0  0  0  0  0
  190.9620  175.8150  143.4020 S   0  0  0  0  0  0  0  0  0  0  0  0
  191.2500  177.3830  144.2690 C   0  0  0  0  0  2  0  0  0  0  0  0
  190.0330  178.2770  144.1220 C   0  0  0  0  0  2  0  0  0  0  0  0
  188.9790  177.5800  143.2780 C   0  0  2  0  0  3  0  0  0  0  0  0
  188.8710  178.2120  142.0390 O   0  0  0  0  0  1  0  0  0  0  0  0
  187.6220  177.5940  143.9680 C   0  0  0  0  0  2  0  0  0  0  0  0
  186.9470  176.8610  146.2800 C   0  0  0  0  0  3  0  0  0  0  0  0
  187.5410  176.6140  145.1060 C   0  0  0  0  0  3  0  0  0  0  0  0
  186.2540  178.1490  146.6150 C   0  0  2  0  0  3  0  0  0  0  0  0
  186.6990  178.6410  147.9790 C   0  0  0  0  0  1  0  0  0  0  0  0
  184.7310  178.0110  146.5540 C   0  0  0  0  0  2  0  0  0  0  0  0
  184.1050  178.8710  145.4640 C   0  0  0  0  0  1  0  0  0  0  0  0
  1  3  2  0  0  0  0
  2  1  1  0  0  0  0
  4  7  1  6  0  0  0
  4  6  1  0  0  0  0
  5  2  1  0  0  0  0
  6 19  1  6  0  0  0
  6  1  1  0  0  0  0
  7  5  1  0  0  0  0
  8 10  1  0  0  0  0
  9  8  1  0  0  0  0
 10 12  1  1  0  0  0
 13 15  1  1  0  0  0
 13 11  1  0  0  0  0
 13  9  1  0  0  0  0
 14 11  1  6  0  0  0
 14  4  1  0  0  0  0
 14 10  1  0  0  0  0
 16 17  2  0  0  0  0
 17 15  1  0  0  0  0
 18 17  2  0  0  0  0
 19 20  1  0  0  0  0
 21 20  1  0  0  0  0
 22 23  1  6  0  0  0
 22 24  1  0  0  0  0
 22 21  1  0  0  0  0
 24 26  1  0  0  0  0
 25 27  1  0  0  0  0
 26 25  2  0  0  0  0
 27 28  1  1  0  0  0
 29 27  1  0  0  0  0
 30 29  1  0  0  0  0
M  END
>  <MODEL>
9

>  <REMARK>
 VINA RESULT:      -5.5      3.922      6.865
  Name = 
  11 active torsions:
  status: ('A' for Active; 'I' for Inactive)
    1  A    between atoms: C_1  and  C_4
    2  A    between atoms: C_1  and  S_5
    3  A    between atoms: C_4  and  C_27
    4  A    between atoms: S_5  and  C_22
    5  A    between atoms: C_6  and  C_17
    6  A    between atoms: C_8  and  C_13
    7  A    between atoms: C_8  and  C_27
    8  A    between atoms: C_9  and  C_17
    9  A    between atoms: N_15  and  N_16
   10  A    between atoms: N_16  and  C_25
   11  A    between atoms: C_19  and  C_29
                            x       y       z     vdW  Elec       q    Type
                         _______ _______ _______ _____ _____    ______ ____

>  <TORSDO>
F 11

$$$$
