=
 OpenBabel11052417353D

 25 27  0  0  1  0  0  0  0  0999 V2000
  188.7820  176.6230  143.1600 C   0  0  0  0  0  0  0  0  0  0  0  0
  187.5900  177.3490  143.0280 C   0  0  0  0  0  0  0  0  0  0  0  0
  188.4800  175.7110  140.9560 C   0  0  0  0  0  3  0  0  0  0  0  0
  189.6340  176.5720  144.3860 C   0  0  1  0  0  3  0  0  0  0  0  0
  187.3210  176.4170  140.8270 N   0  0  0  0  0  0  0  0  0  0  0  0
  190.5770  175.3720  144.2330 C   0  0  2  0  0  3  0  0  0  0  0  0
  185.6500  177.9380  141.6660 C   0  0  0  0  0  0  0  0  0  0  0  0
  184.8460  177.8340  140.4160 C   0  0  0  0  0  1  0  0  0  0  0  0
  187.1100  178.1700  144.0550 C   0  0  0  0  0  3  0  0  0  0  0  0
  189.2200  175.8180  142.1320 C   0  0  0  0  0  0  0  0  0  0  0  0
  190.7080  174.9040  142.4620 S   0  0  0  0  0  0  0  0  0  0  0  0
  185.1870  178.7570  142.7030 C   0  0  0  0  0  3  0  0  0  0  0  0
  185.9150  178.8770  143.8910 C   0  0  0  0  0  0  0  0  0  0  0  0
  186.8560  177.2300  141.8220 C   0  0  0  0  0  0  0  0  0  0  0  0
  189.6280  173.3000  145.6300 C   0  0  0  0  0  3  0  0  0  0  0  0
  190.0580  174.2360  145.0020 C   0  0  0  0  0  0  0  0  0  0  0  0
  191.0220  178.3440  143.6210 O   0  0  0  0  0  0  0  0  0  0  0  0
  190.4170  177.8400  144.5570 C   0  0  0  0  0  3  0  0  0  0  0  0
  185.4050  179.7420  144.9890 C   0  0  0  0  0  2  0  0  0  0  0  0
  184.3350  179.0090  145.7820 C   0  0  0  0  0  2  0  0  0  0  0  0
  184.8750  178.5860  147.1360 C   0  0  2  0  0  3  0  0  0  0  0  0
  185.8890  179.4580  147.5280 O   0  0  0  0  0  1  0  0  0  0  0  0
  185.4030  177.1910  147.0900 C   0  0  0  0  0  0  0  0  0  0  0  0
  184.9990  176.3980  146.1990 O   0  0  0  0  0  0  0  0  0  0  0  0
  186.3350  176.7600  148.0260 O   0  0  0  0  0  1  0  0  0  0  0  0
  1  4  1  0  0  0  0
  2  1  1  0  0  0  0
  2  9  1  0  0  0  0
  3 10  1  0  0  0  0
  4 18  1  6  0  0  0
  5  3  2  0  0  0  0
  5 14  1  0  0  0  0
  6  4  1  0  0  0  0
  6 16  1  1  0  0  0
  7 14  1  0  0  0  0
  7 12  2  0  0  0  0
  8  7  1  0  0  0  0
 10 11  1  0  0  0  0
 10  1  2  0  0  0  0
 11  6  1  0  0  0  0
 12 13  1  0  0  0  0
 13  9  2  0  0  0  0
 13 19  1  0  0  0  0
 14  2  2  0  0  0  0
 16 15  3  0  0  0  0
 17 18  2  0  0  0  0
 19 20  1  0  0  0  0
 20 21  1  0  0  0  0
 21 22  1  6  0  0  0
 23 21  1  0  0  0  0
 23 25  1  0  0  0  0
 24 23  2  0  0  0  0
M  END
>  <MODEL>
1

>  <REMARK>
 VINA RESULT:      -6.5      0.000      0.000
  Name = 
  6 active torsions:
  status: ('A' for Active; 'I' for Inactive)
    1  A    between atoms: C_2  and  C_21
    2  A    between atoms: C_5  and  C_22
    3  A    between atoms: C_6  and  C_15
    4  A    between atoms: C_6  and  C_23
    5  A    between atoms: C_10  and  C_11
    6  A    between atoms: C_15  and  C_21
                            x       y       z     vdW  Elec       q    Type
                         _______ _______ _______ _____ _____    ______ ____

>  <TORSDO>
F 6

$$$$
=
 OpenBabel11052417353D

 25 27  0  0  1  0  0  0  0  0999 V2000
  188.7640  175.7640  144.5590 C   0  0  0  0  0  0  0  0  0  0  0  0
  187.7850  176.6810  144.9680 C   0  0  0  0  0  0  0  0  0  0  0  0
  189.0080  175.0020  146.8270 C   0  0  0  0  0  3  0  0  0  0  0  0
  189.3040  175.6350  143.1730 C   0  0  1  0  0  3  0  0  0  0  0  0
  188.0560  175.8940  147.2240 N   0  0  0  0  0  0  0  0  0  0  0  0
  190.6040  174.8260  143.2670 C   0  0  2  0  0  3  0  0  0  0  0  0
  186.4660  177.6490  146.7810 C   0  0  0  0  0  0  0  0  0  0  0  0
  186.0760  177.7370  148.2160 C   0  0  0  0  0  1  0  0  0  0  0  0
  187.1620  177.5470  144.0610 C   0  0  0  0  0  3  0  0  0  0  0  0
  189.3630  174.9340  145.4810 C   0  0  0  0  0  0  0  0  0  0  0  0
  190.6330  173.8710  144.8350 S   0  0  0  0  0  0  0  0  0  0  0  0
  185.8500  178.5040  145.8590 C   0  0  0  0  0  3  0  0  0  0  0  0
  186.1930  178.4520  144.5040 C   0  0  0  0  0  0  0  0  0  0  0  0
  187.4360  176.7310  146.3400 C   0  0  0  0  0  0  0  0  0  0  0  0
  192.6970  176.4870  143.1970 C   0  0  0  0  0  3  0  0  0  0  0  0
  191.7540  175.7350  143.2260 C   0  0  0  0  0  0  0  0  0  0  0  0
  188.4880  173.7920  141.9110 O   0  0  0  0  0  0  0  0  0  0  0  0
  188.3220  174.9510  142.2680 C   0  0  0  0  0  3  0  0  0  0  0  0
  185.5390  179.3750  143.5370 C   0  0  0  0  0  2  0  0  0  0  0  0
  184.1180  178.9190  143.2530 C   0  0  0  0  0  2  0  0  0  0  0  0
  184.0790  178.0520  142.0070 C   0  0  2  0  0  3  0  0  0  0  0  0
  185.1210  178.4110  141.1550 O   0  0  0  0  0  1  0  0  0  0  0  0
  182.7750  178.1980  141.2950 C   0  0  0  0  0  0  0  0  0  0  0  0
  182.6910  177.8920  140.0770 O   0  0  0  0  0  0  0  0  0  0  0  0
  181.6560  178.6740  141.9660 O   0  0  0  0  0  1  0  0  0  0  0  0
  1  2  2  0  0  0  0
  1 10  1  0  0  0  0
  2 14  1  0  0  0  0
  3  5  1  0  0  0  0
  4 18  1  6  0  0  0
  4  6  1  0  0  0  0
  4  1  1  0  0  0  0
  6 16  1  1  0  0  0
  6 11  1  0  0  0  0
  7  8  1  0  0  0  0
  9 13  2  0  0  0  0
  9  2  1  0  0  0  0
 10  3  2  0  0  0  0
 11 10  1  0  0  0  0
 12  7  2  0  0  0  0
 13 12  1  0  0  0  0
 14  7  1  0  0  0  0
 14  5  2  0  0  0  0
 15 16  3  0  0  0  0
 17 18  2  0  0  0  0
 19 13  1  0  0  0  0
 20 19  1  0  0  0  0
 21 22  1  6  0  0  0
 21 20  1  0  0  0  0
 23 25  1  0  0  0  0
 23 21  1  0  0  0  0
 24 23  2  0  0  0  0
M  END
>  <MODEL>
2

>  <REMARK>
 VINA RESULT:      -6.5      3.116      4.635
  Name = 
  6 active torsions:
  status: ('A' for Active; 'I' for Inactive)
    1  A    between atoms: C_2  and  C_21
    2  A    between atoms: C_5  and  C_22
    3  A    between atoms: C_6  and  C_15
    4  A    between atoms: C_6  and  C_23
    5  A    between atoms: C_10  and  C_11
    6  A    between atoms: C_15  and  C_21
                            x       y       z     vdW  Elec       q    Type
                         _______ _______ _______ _____ _____    ______ ____

>  <TORSDO>
F 6

$$$$
=
 OpenBabel11052417353D

 25 27  0  0  1  0  0  0  0  0999 V2000
  189.0040  175.4760  144.4860 C   0  0  0  0  0  0  0  0  0  0  0  0
  187.9640  176.3550  144.8230 C   0  0  0  0  0  0  0  0  0  0  0  0
  189.2520  174.8710  146.8010 C   0  0  0  0  0  3  0  0  0  0  0  0
  189.5750  175.2950  143.1190 C   0  0  1  0  0  3  0  0  0  0  0  0
  188.2410  175.7250  147.1280 N   0  0  0  0  0  0  0  0  0  0  0  0
  190.9200  174.5750  143.2820 C   0  0  2  0  0  3  0  0  0  0  0  0
  186.5560  177.3490  146.5530 C   0  0  0  0  0  0  0  0  0  0  0  0
  186.1360  177.5000  147.9750 C   0  0  0  0  0  1  0  0  0  0  0  0
  187.3070  177.1230  143.8550 C   0  0  0  0  0  3  0  0  0  0  0  0
  189.6340  174.7420  145.4670 C   0  0  0  0  0  0  0  0  0  0  0  0
  190.9770  173.7210  144.9070 S   0  0  0  0  0  0  0  0  0  0  0  0
  185.9070  178.1070  145.5710 C   0  0  0  0  0  3  0  0  0  0  0  0
  186.2770  177.9920  144.2270 C   0  0  0  0  0  0  0  0  0  0  0  0
  187.5880  176.4670  146.1850 C   0  0  0  0  0  0  0  0  0  0  0  0
  192.9110  176.3520  143.1410 C   0  0  0  0  0  3  0  0  0  0  0  0
  192.0130  175.5480  143.2010 C   0  0  0  0  0  0  0  0  0  0  0  0
  188.5070  174.7710  141.0610 O   0  0  0  0  0  0  0  0  0  0  0  0
  188.6530  174.4980  142.2440 C   0  0  0  0  0  3  0  0  0  0  0  0
  185.5870  178.8130  143.1950 C   0  0  0  0  0  2  0  0  0  0  0  0
  184.8190  177.9180  142.2380 C   0  0  0  0  0  2  0  0  0  0  0  0
  184.9770  178.4090  140.8100 C   0  0  2  0  0  3  0  0  0  0  0  0
  183.7980  178.1810  140.1040 O   0  0  0  0  0  1  0  0  0  0  0  0
  186.1120  177.7180  140.1290 C   0  0  0  0  0  0  0  0  0  0  0  0
  187.2830  177.8580  140.5690 O   0  0  0  0  0  1  0  0  0  0  0  0
  185.8840  176.9260  139.0110 O   0  0  0  0  0  0  0  0  0  0  0  0
  1  2  2  0  0  0  0
  1 10  1  0  0  0  0
  2 14  1  0  0  0  0
  3  5  1  0  0  0  0
  4 18  1  6  0  0  0
  4  6  1  0  0  0  0
  4  1  1  0  0  0  0
  6 16  1  1  0  0  0
  6 11  1  0  0  0  0
  7  8  1  0  0  0  0
  9 13  2  0  0  0  0
  9  2  1  0  0  0  0
 10  3  2  0  0  0  0
 11 10  1  0  0  0  0
 12  7  2  0  0  0  0
 13 12  1  0  0  0  0
 14  7  1  0  0  0  0
 14  5  2  0  0  0  0
 15 16  3  0  0  0  0
 17 18  2  0  0  0  0
 19 13  1  0  0  0  0
 20 19  1  0  0  0  0
 21 22  1  6  0  0  0
 21 20  1  0  0  0  0
 23 24  1  0  0  0  0
 23 21  1  0  0  0  0
 25 23  2  0  0  0  0
M  END
>  <MODEL>
3

>  <REMARK>
 VINA RESULT:      -6.4      3.231      4.873
  Name = 
  6 active torsions:
  status: ('A' for Active; 'I' for Inactive)
    1  A    between atoms: C_2  and  C_21
    2  A    between atoms: C_5  and  C_22
    3  A    between atoms: C_6  and  C_15
    4  A    between atoms: C_6  and  C_23
    5  A    between atoms: C_10  and  C_11
    6  A    between atoms: C_15  and  C_21
                            x       y       z     vdW  Elec       q    Type
                         _______ _______ _______ _____ _____    ______ ____

>  <TORSDO>
F 6

$$$$
=
 OpenBabel11052417353D

 25 27  0  0  1  0  0  0  0  0999 V2000
  191.7570  176.3620  145.1280 C   0  0  0  0  0  0  0  0  0  0  0  0
  190.4180  176.6810  144.8600 C   0  0  0  0  0  0  0  0  0  0  0  0
  192.3840  177.1200  142.9330 C   0  0  0  0  0  3  0  0  0  0  0  0
  192.2590  175.7090  146.3740 C   0  0  1  0  0  3  0  0  0  0  0  0
  191.0820  177.4300  142.6740 N   0  0  0  0  0  0  0  0  0  0  0  0
  193.6700  175.1880  146.0740 C   0  0  2  0  0  3  0  0  0  0  0  0
  188.7560  177.5470  143.2950 C   0  0  0  0  0  0  0  0  0  0  0  0
  188.3730  178.1180  141.9720 C   0  0  0  0  0  1  0  0  0  0  0  0
  189.4060  176.4600  145.8020 C   0  0  0  0  0  3  0  0  0  0  0  0
  192.7250  176.5850  144.1740 C   0  0  0  0  0  0  0  0  0  0  0  0
  194.3670  176.0710  144.6230 S   0  0  0  0  0  0  0  0  0  0  0  0
  187.7580  177.3230  144.2500 C   0  0  0  0  0  3  0  0  0  0  0  0
  188.0800  176.7860  145.5000 C   0  0  0  0  0  0  0  0  0  0  0  0
  190.0930  177.2290  143.5950 C   0  0  0  0  0  0  0  0  0  0  0  0
  193.5720  172.5660  145.5650 C   0  0  0  0  0  3  0  0  0  0  0  0
  193.6150  173.7500  145.7920 C   0  0  0  0  0  0  0  0  0  0  0  0
  191.4390  176.6370  148.4030 O   0  0  0  0  0  0  0  0  0  0  0  0
  192.2860  176.6750  147.5220 C   0  0  0  0  0  3  0  0  0  0  0  0
  187.0070  176.5420  146.5020 C   0  0  0  0  0  2  0  0  0  0  0  0
  185.6610  176.9740  145.9450 C   0  0  0  0  0  2  0  0  0  0  0  0
  185.3470  178.3990  146.3630 C   0  0  2  0  0  3  0  0  0  0  0  0
  184.4640  178.3870  147.4410 O   0  0  0  0  0  1  0  0  0  0  0  0
  184.7480  179.1690  145.2340 C   0  0  0  0  0  0  0  0  0  0  0  0
  183.5240  179.0410  144.9690 O   0  0  0  0  0  1  0  0  0  0  0  0
  185.5340  180.0210  144.4690 O   0  0  0  0  0  0  0  0  0  0  0  0
  1  4  1  0  0  0  0
  2  1  1  0  0  0  0
  2  9  1  0  0  0  0
  3 10  1  0  0  0  0
  4 18  1  1  0  0  0
  5  3  2  0  0  0  0
  5 14  1  0  0  0  0
  6 16  1  6  0  0  0
  6  4  1  0  0  0  0
  7 14  1  0  0  0  0
  7 12  2  0  0  0  0
  8  7  1  0  0  0  0
 10 11  1  0  0  0  0
 10  1  2  0  0  0  0
 11  6  1  0  0  0  0
 12 13  1  0  0  0  0
 13  9  2  0  0  0  0
 13 19  1  0  0  0  0
 14  2  2  0  0  0  0
 15 16  3  0  0  0  0
 18 17  2  0  0  0  0
 20 21  1  0  0  0  0
 20 19  1  0  0  0  0
 21 22  1  1  0  0  0
 23 21  1  0  0  0  0
 24 23  1  0  0  0  0
 25 23  2  0  0  0  0
M  END
>  <MODEL>
4

>  <REMARK>
 VINA RESULT:      -6.2      2.723      3.671
  Name = 
  6 active torsions:
  status: ('A' for Active; 'I' for Inactive)
    1  A    between atoms: C_2  and  C_21
    2  A    between atoms: C_5  and  C_22
    3  A    between atoms: C_6  and  C_15
    4  A    between atoms: C_6  and  C_23
    5  A    between atoms: C_10  and  C_11
    6  A    between atoms: C_15  and  C_21
                            x       y       z     vdW  Elec       q    Type
                         _______ _______ _______ _____ _____    ______ ____

>  <TORSDO>
F 6

$$$$
=
 OpenBabel11052417353D

 25 27  0  0  1  0  0  0  0  0999 V2000
  187.2590  177.3750  143.0460 C   0  0  0  0  0  0  0  0  0  0  0  0
  187.0190  177.6420  144.4020 C   0  0  0  0  0  0  0  0  0  0  0  0
  184.9490  177.8130  142.5430 C   0  0  0  0  0  3  0  0  0  0  0  0
  188.5570  176.9110  142.4720 C   0  0  1  0  0  3  0  0  0  0  0  0
  184.7160  178.0740  143.8610 N   0  0  0  0  0  0  0  0  0  0  0  0
  188.2620  176.3620  141.0700 C   0  0  2  0  0  3  0  0  0  0  0  0
  185.4350  178.2620  146.1530 C   0  0  0  0  0  0  0  0  0  0  0  0
  184.0660  178.6350  146.6110 C   0  0  0  0  0  1  0  0  0  0  0  0
  188.0340  177.5520  145.3610 C   0  0  0  0  0  3  0  0  0  0  0  0
  186.2330  177.4640  142.1310 C   0  0  0  0  0  0  0  0  0  0  0  0
  186.6640  177.0330  140.4620 S   0  0  0  0  0  0  0  0  0  0  0  0
  186.4630  178.1710  147.0980 C   0  0  0  0  0  3  0  0  0  0  0  0
  187.7590  177.8220  146.7050 C   0  0  0  0  0  0  0  0  0  0  0  0
  185.7070  178.0000  144.7980 C   0  0  0  0  0  0  0  0  0  0  0  0
  188.1320  173.6940  141.1660 C   0  0  0  0  0  3  0  0  0  0  0  0
  188.1910  174.8980  141.1190 C   0  0  0  0  0  0  0  0  0  0  0  0
  190.7080  177.8790  142.7690 O   0  0  0  0  0  0  0  0  0  0  0  0
  189.5520  178.0320  142.4000 C   0  0  0  0  0  3  0  0  0  0  0  0
  188.8400  177.7160  147.7220 C   0  0  0  0  0  2  0  0  0  0  0  0
  190.1480  177.3180  147.0600 C   0  0  0  0  0  2  0  0  0  0  0  0
  190.6330  175.9860  147.6030 C   0  0  2  0  0  3  0  0  0  0  0  0
  191.9920  175.8390  147.3360 O   0  0  0  0  0  1  0  0  0  0  0  0
  189.8770  174.8530  146.9930 C   0  0  0  0  0  0  0  0  0  0  0  0
  188.9410  174.3080  147.6360 O   0  0  0  0  0  1  0  0  0  0  0  0
  190.2020  174.3910  145.7240 O   0  0  0  0  0  0  0  0  0  0  0  0
  1  2  1  0  0  0  0
  2 14  2  0  0  0  0
  2  9  1  0  0  0  0
  3  5  2  0  0  0  0
  4 18  1  6  0  0  0
  4  1  1  0  0  0  0
  5 14  1  0  0  0  0
  6 16  1  1  0  0  0
  6  4  1  0  0  0  0
  7  8  1  0  0  0  0
  7 12  2  0  0  0  0
  9 13  2  0  0  0  0
 10  3  1  0  0  0  0
 10  1  2  0  0  0  0
 11  6  1  0  0  0  0
 11 10  1  0  0  0  0
 13 12  1  0  0  0  0
 13 19  1  0  0  0  0
 14  7  1  0  0  0  0
 16 15  3  0  0  0  0
 18 17  2  0  0  0  0
 20 21  1  0  0  0  0
 20 19  1  0  0  0  0
 21 22  1  6  0  0  0
 23 21  1  0  0  0  0
 23 24  1  0  0  0  0
 25 23  2  0  0  0  0
M  END
>  <MODEL>
5

>  <REMARK>
 VINA RESULT:      -6.0      2.540      4.390
  Name = 
  6 active torsions:
  status: ('A' for Active; 'I' for Inactive)
    1  A    between atoms: C_2  and  C_21
    2  A    between atoms: C_5  and  C_22
    3  A    between atoms: C_6  and  C_15
    4  A    between atoms: C_6  and  C_23
    5  A    between atoms: C_10  and  C_11
    6  A    between atoms: C_15  and  C_21
                            x       y       z     vdW  Elec       q    Type
                         _______ _______ _______ _____ _____    ______ ____

>  <TORSDO>
F 6

$$$$
=
 OpenBabel11052417353D

 25 27  0  0  1  0  0  0  0  0999 V2000
  186.7090  177.5050  145.2630 C   0  0  0  0  0  0  0  0  0  0  0  0
  187.4760  177.5690  144.0910 C   0  0  0  0  0  0  0  0  0  0  0  0
  184.6950  177.6940  143.9630 C   0  0  0  0  0  3  0  0  0  0  0  0
  187.2540  177.4480  146.6520 C   0  0  1  0  0  3  0  0  0  0  0  0
  185.4410  177.7560  142.8240 N   0  0  0  0  0  0  0  0  0  0  0  0
  186.1030  177.8010  147.6040 C   0  0  2  0  0  3  0  0  0  0  0  0
  187.5500  177.7740  141.6590 C   0  0  0  0  0  0  0  0  0  0  0  0
  186.8820  177.9160  140.3340 C   0  0  0  0  0  1  0  0  0  0  0  0
  188.8750  177.5210  144.1230 C   0  0  0  0  0  3  0  0  0  0  0  0
  185.3350  177.5640  145.1940 C   0  0  0  0  0  0  0  0  0  0  0  0
  184.4940  177.5410  146.7600 S   0  0  0  0  0  0  0  0  0  0  0  0
  188.9480  177.7220  141.7100 C   0  0  0  0  0  3  0  0  0  0  0  0
  189.6090  177.5920  142.9350 C   0  0  0  0  0  0  0  0  0  0  0  0
  186.8050  177.6970  142.8500 C   0  0  0  0  0  0  0  0  0  0  0  0
  186.3160  180.3570  148.3540 C   0  0  0  0  0  3  0  0  0  0  0  0
  186.2180  179.2020  148.0190 C   0  0  0  0  0  0  0  0  0  0  0  0
  188.9790  175.9300  147.2610 O   0  0  0  0  0  0  0  0  0  0  0  0
  187.8020  176.0880  146.9680 C   0  0  0  0  0  3  0  0  0  0  0  0
  191.0960  177.5490  142.9750 C   0  0  0  0  0  2  0  0  0  0  0  0
  191.5810  177.4710  144.4130 C   0  0  0  0  0  2  0  0  0  0  0  0
  192.8470  176.6360  144.5010 C   0  0  2  0  0  3  0  0  0  0  0  0
  192.6400  175.4080  143.8770 O   0  0  0  0  0  1  0  0  0  0  0  0
  193.2460  176.4170  145.9220 C   0  0  0  0  0  0  0  0  0  0  0  0
  192.6120  175.5900  146.6290 O   0  0  0  0  0  1  0  0  0  0  0  0
  194.3080  177.1230  146.4710 O   0  0  0  0  0  0  0  0  0  0  0  0
  1  4  1  0  0  0  0
  2  9  1  0  0  0  0
  2  1  2  0  0  0  0
  3 10  2  0  0  0  0
  4 18  1  1  0  0  0
  4  6  1  0  0  0  0
  5 14  2  0  0  0  0
  5  3  1  0  0  0  0
  6 16  1  6  0  0  0
  7 12  2  0  0  0  0
  7 14  1  0  0  0  0
  8  7  1  0  0  0  0
 10  1  1  0  0  0  0
 10 11  1  0  0  0  0
 11  6  1  0  0  0  0
 12 13  1  0  0  0  0
 13 19  1  0  0  0  0
 13  9  2  0  0  0  0
 14  2  1  0  0  0  0
 16 15  3  0  0  0  0
 18 17  2  0  0  0  0
 19 20  1  0  0  0  0
 20 21  1  0  0  0  0
 21 22  1  1  0  0  0
 21 23  1  0  0  0  0
 23 25  2  0  0  0  0
 23 24  1  0  0  0  0
M  END
>  <MODEL>
6

>  <REMARK>
 VINA RESULT:      -6.0      2.849      5.743
  Name = 
  6 active torsions:
  status: ('A' for Active; 'I' for Inactive)
    1  A    between atoms: C_2  and  C_21
    2  A    between atoms: C_5  and  C_22
    3  A    between atoms: C_6  and  C_15
    4  A    between atoms: C_6  and  C_23
    5  A    between atoms: C_10  and  C_11
    6  A    between atoms: C_15  and  C_21
                            x       y       z     vdW  Elec       q    Type
                         _______ _______ _______ _____ _____    ______ ____

>  <TORSDO>
F 6

$$$$
=
 OpenBabel11052417353D

 25 27  0  0  1  0  0  0  0  0999 V2000
  189.8620  175.7110  143.6730 C   0  0  0  0  0  0  0  0  0  0  0  0
  189.0000  175.9080  142.5840 C   0  0  0  0  0  0  0  0  0  0  0  0
  190.7530  173.7400  142.6210 C   0  0  0  0  0  3  0  0  0  0  0  0
  189.8910  176.5400  144.9150 C   0  0  1  0  0  3  0  0  0  0  0  0
  189.9150  173.9320  141.5620 N   0  0  0  0  0  0  0  0  0  0  0  0
  190.6650  175.7430  145.9730 C   0  0  2  0  0  3  0  0  0  0  0  0
  188.1840  175.1510  140.4110 C   0  0  0  0  0  0  0  0  0  0  0  0
  188.1950  174.1970  139.2660 C   0  0  0  0  0  1  0  0  0  0  0  0
  188.1000  176.9790  142.5420 C   0  0  0  0  0  3  0  0  0  0  0  0
  190.7290  174.6400  143.6850 C   0  0  0  0  0  0  0  0  0  0  0  0
  191.7120  174.4750  145.1560 S   0  0  0  0  0  0  0  0  0  0  0  0
  187.2930  176.2300  140.3840 C   0  0  0  0  0  3  0  0  0  0  0  0
  187.2530  177.1430  141.4420 C   0  0  0  0  0  0  0  0  0  0  0  0
  189.0450  174.9840  141.5110 C   0  0  0  0  0  0  0  0  0  0  0  0
  188.9490  174.5400  147.6310 C   0  0  0  0  0  3  0  0  0  0  0  0
  189.7220  175.0860  146.8830 C   0  0  0  0  0  0  0  0  0  0  0  0
  191.6630  177.9400  144.1730 O   0  0  0  0  0  0  0  0  0  0  0  0
  190.5480  177.8660  144.6690 C   0  0  0  0  0  3  0  0  0  0  0  0
  186.2920  178.2790  141.4060 C   0  0  0  0  0  2  0  0  0  0  0  0
  185.0390  177.9330  142.1920 C   0  0  0  0  0  2  0  0  0  0  0  0
  184.8730  178.8800  143.3680 C   0  0  2  0  0  3  0  0  0  0  0  0
  185.9410  179.7740  143.4030 O   0  0  0  0  0  1  0  0  0  0  0  0
  184.8070  178.1280  144.6560 C   0  0  0  0  0  0  0  0  0  0  0  0
  184.1070  178.5710  145.6030 O   0  0  0  0  0  1  0  0  0  0  0  0
  185.5170  176.9450  144.8170 O   0  0  0  0  0  0  0  0  0  0  0  0
  1 10  1  0  0  0  0
  1  4  1  0  0  0  0
  2  1  2  0  0  0  0
  3 10  2  0  0  0  0
  4 18  1  6  0  0  0
  4  6  1  0  0  0  0
  5  3  1  0  0  0  0
  6 16  1  1  0  0  0
  7 14  1  0  0  0  0
  8  7  1  0  0  0  0
  9  2  1  0  0  0  0
 10 11  1  0  0  0  0
 11  6  1  0  0  0  0
 12  7  2  0  0  0  0
 12 13  1  0  0  0  0
 13  9  2  0  0  0  0
 14  5  2  0  0  0  0
 14  2  1  0  0  0  0
 16 15  3  0  0  0  0
 17 18  2  0  0  0  0
 19 13  1  0  0  0  0
 19 20  1  0  0  0  0
 20 21  1  0  0  0  0
 21 22  1  1  0  0  0
 21 23  1  0  0  0  0
 23 25  2  0  0  0  0
 23 24  1  0  0  0  0
M  END
>  <MODEL>
7

>  <REMARK>
 VINA RESULT:      -5.8      1.837      3.033
  Name = 
  6 active torsions:
  status: ('A' for Active; 'I' for Inactive)
    1  A    between atoms: C_2  and  C_21
    2  A    between atoms: C_5  and  C_22
    3  A    between atoms: C_6  and  C_15
    4  A    between atoms: C_6  and  C_23
    5  A    between atoms: C_10  and  C_11
    6  A    between atoms: C_15  and  C_21
                            x       y       z     vdW  Elec       q    Type
                         _______ _______ _______ _____ _____    ______ ____

>  <TORSDO>
F 6

$$$$
=
 OpenBabel11052417353D

 25 27  0  0  1  0  0  0  0  0999 V2000
  193.6220  174.8150  144.3970 C   0  0  0  0  0  0  0  0  0  0  0  0
  192.2430  174.6050  144.5440 C   0  0  0  0  0  0  0  0  0  0  0  0
  193.5100  174.0170  142.1310 C   0  0  0  0  0  3  0  0  0  0  0  0
  194.5470  175.2730  145.4760 C   0  0  1  0  0  3  0  0  0  0  0  0
  192.1690  173.8150  142.2730 N   0  0  0  0  0  0  0  0  0  0  0  0
  195.9760  174.9720  145.0050 C   0  0  2  0  0  3  0  0  0  0  0  0
  190.1340  173.8620  143.5630 C   0  0  0  0  0  0  0  0  0  0  0  0
  189.3350  173.3170  142.4290 C   0  0  0  0  0  1  0  0  0  0  0  0
  191.5800  174.8790  145.7460 C   0  0  0  0  0  3  0  0  0  0  0  0
  194.2420  174.5260  143.2020 C   0  0  0  0  0  0  0  0  0  0  0  0
  196.0020  174.7750  143.1800 S   0  0  0  0  0  0  0  0  0  0  0  0
  189.4870  174.1440  144.7720 C   0  0  0  0  0  3  0  0  0  0  0  0
  190.2050  174.6540  145.8580 C   0  0  0  0  0  0  0  0  0  0  0  0
  191.5160  174.0920  143.4410 C   0  0  0  0  0  0  0  0  0  0  0  0
  196.8410  172.7220  146.1610 C   0  0  0  0  0  3  0  0  0  0  0  0
  196.4540  173.7380  145.6370 C   0  0  0  0  0  0  0  0  0  0  0  0
  194.1960  177.1550  146.8850 O   0  0  0  0  0  0  0  0  0  0  0  0
  194.3800  176.7390  145.7500 C   0  0  0  0  0  3  0  0  0  0  0  0
  189.5060  174.9390  147.1410 C   0  0  0  0  0  2  0  0  0  0  0  0
  188.2100  175.6860  146.8800 C   0  0  0  0  0  2  0  0  0  0  0  0
  188.4790  177.1700  146.7100 C   0  0  2  0  0  3  0  0  0  0  0  0
  187.4880  177.9020  147.3600 O   0  0  0  0  0  1  0  0  0  0  0  0
  188.5140  177.5460  145.2660 C   0  0  0  0  0  0  0  0  0  0  0  0
  187.4540  177.5170  144.5860 O   0  0  0  0  0  0  0  0  0  0  0  0
  189.7080  177.9230  144.6650 O   0  0  0  0  0  1  0  0  0  0  0  0
  1  2  1  0  0  0  0
  1  4  1  0  0  0  0
  2  9  1  0  0  0  0
  3  5  2  0  0  0  0
  3 10  1  0  0  0  0
  4 18  1  6  0  0  0
  5 14  1  0  0  0  0
  6  4  1  0  0  0  0
  6 16  1  1  0  0  0
  7 12  2  0  0  0  0
  8  7  1  0  0  0  0
  9 13  2  0  0  0  0
 10  1  2  0  0  0  0
 11 10  1  0  0  0  0
 11  6  1  0  0  0  0
 12 13  1  0  0  0  0
 13 19  1  0  0  0  0
 14  7  1  0  0  0  0
 14  2  2  0  0  0  0
 16 15  3  0  0  0  0
 18 17  2  0  0  0  0
 20 19  1  0  0  0  0
 21 20  1  0  0  0  0
 21 22  1  1  0  0  0
 23 21  1  0  0  0  0
 24 23  2  0  0  0  0
 25 23  1  0  0  0  0
M  END
>  <MODEL>
8

>  <REMARK>
 VINA RESULT:      -5.7      3.671      5.462
  Name = 
  6 active torsions:
  status: ('A' for Active; 'I' for Inactive)
    1  A    between atoms: C_2  and  C_21
    2  A    between atoms: C_5  and  C_22
    3  A    between atoms: C_6  and  C_15
    4  A    between atoms: C_6  and  C_23
    5  A    between atoms: C_10  and  C_11
    6  A    between atoms: C_15  and  C_21
                            x       y       z     vdW  Elec       q    Type
                         _______ _______ _______ _____ _____    ______ ____

>  <TORSDO>
F 6

$$$$
=
 OpenBabel11052417353D

 25 27  0  0  1  0  0  0  0  0999 V2000
  189.3300  174.4530  141.6470 C   0  0  0  0  0  0  0  0  0  0  0  0
  188.9770  175.5910  142.3850 C   0  0  0  0  0  0  0  0  0  0  0  0
  191.6580  174.9190  142.0240 C   0  0  0  0  0  3  0  0  0  0  0  0
  188.3740  173.5540  140.9330 C   0  0  1  0  0  3  0  0  0  0  0  0
  191.3160  176.0260  142.7420 N   0  0  0  0  0  0  0  0  0  0  0  0
  189.1950  172.7110  139.9480 C   0  0  2  0  0  3  0  0  0  0  0  0
  189.6890  177.5390  143.6750 C   0  0  0  0  0  0  0  0  0  0  0  0
  190.7480  178.4030  144.2680 C   0  0  0  0  0  1  0  0  0  0  0  0
  187.6410  175.9630  142.5730 C   0  0  0  0  0  3  0  0  0  0  0  0
  190.6560  174.1220  141.4740 C   0  0  0  0  0  0  0  0  0  0  0  0
  190.9580  172.6940  140.4610 S   0  0  0  0  0  0  0  0  0  0  0  0
  188.3460  177.8930  143.8560 C   0  0  0  0  0  3  0  0  0  0  0  0
  187.3260  177.1070  143.3110 C   0  0  0  0  0  0  0  0  0  0  0  0
  190.0120  176.3840  142.9390 C   0  0  0  0  0  0  0  0  0  0  0  0
  188.9980  173.7480  137.4920 C   0  0  0  0  0  3  0  0  0  0  0  0
  189.0830  173.2790  138.6010 C   0  0  0  0  0  0  0  0  0  0  0  0
  188.2250  172.0450  142.7640 O   0  0  0  0  0  0  0  0  0  0  0  0
  187.6350  172.6710  141.8940 C   0  0  0  0  0  3  0  0  0  0  0  0
  185.9040  177.5030  143.5020 C   0  0  0  0  0  2  0  0  0  0  0  0
  185.7640  178.3910  144.7260 C   0  0  0  0  0  2  0  0  0  0  0  0
  185.1970  177.6020  145.8920 C   0  0  2  0  0  3  0  0  0  0  0  0
  184.0970  178.2750  146.4210 O   0  0  0  0  0  1  0  0  0  0  0  0
  186.2250  177.4060  146.9560 C   0  0  0  0  0  0  0  0  0  0  0  0
  187.0120  176.4260  146.8920 O   0  0  0  0  0  0  0  0  0  0  0  0
  186.3140  178.2940  148.0200 O   0  0  0  0  0  1  0  0  0  0  0  0
  1  2  1  0  0  0  0
  2  9  2  0  0  0  0
  2 14  1  0  0  0  0
  3  5  2  0  0  0  0
  4  1  1  0  0  0  0
  4 18  1  1  0  0  0
  5 14  1  0  0  0  0
  6 16  1  6  0  0  0
  6 11  1  0  0  0  0
  6  4  1  0  0  0  0
  7 12  1  0  0  0  0
  7  8  1  0  0  0  0
  9 13  1  0  0  0  0
 10  1  2  0  0  0  0
 10  3  1  0  0  0  0
 11 10  1  0  0  0  0
 13 19  1  0  0  0  0
 13 12  2  0  0  0  0
 14  7  2  0  0  0  0
 15 16  3  0  0  0  0
 18 17  2  0  0  0  0
 19 20  1  0  0  0  0
 20 21  1  0  0  0  0
 21 22  1  1  0  0  0
 21 23  1  0  0  0  0
 23 25  1  0  0  0  0
 24 23  2  0  0  0  0
M  END
>  <MODEL>
9

>  <REMARK>
 VINA RESULT:      -5.6      2.518      4.207
  Name = 
  6 active torsions:
  status: ('A' for Active; 'I' for Inactive)
    1  A    between atoms: C_2  and  C_21
    2  A    between atoms: C_5  and  C_22
    3  A    between atoms: C_6  and  C_15
    4  A    between atoms: C_6  and  C_23
    5  A    between atoms: C_10  and  C_11
    6  A    between atoms: C_15  and  C_21
                            x       y       z     vdW  Elec       q    Type
                         _______ _______ _______ _____ _____    ______ ____

>  <TORSDO>
F 6

$$$$
