=
 OpenBabel11052421033D

 43 48  0  0  1  0  0  0  0  0999 V2000
  184.8520  178.3620  144.4060 C   0  0  1  0  0  3  0  0  0  0  0  0
  188.6950  175.0240  143.5860 C   0  0  0  0  0  0  0  0  0  0  0  0
  190.6390  175.3640  145.6720 C   0  0  2  0  0  3  0  0  0  0  0  0
  186.4240  176.6620  143.4140 C   0  0  0  0  0  0  0  0  0  0  0  0
  186.0700  178.8800  145.1630 C   0  0  0  0  0  2  0  0  0  0  0  0
  184.1100  179.4330  143.9140 O   0  0  0  0  0  1  0  0  0  0  0  0
  187.2680  176.7590  144.5380 C   0  0  0  0  0  0  0  0  0  0  0  0
  185.2770  177.5100  143.3000 N   0  0  0  0  0  2  0  0  0  0  0  0
  186.9010  177.6990  145.6620 C   0  0  0  0  0  2  0  0  0  0  0  0
  189.2460  175.9600  145.8840 C   0  0  0  0  0  2  0  0  0  0  0  0
  188.4080  175.9370  144.6300 C   0  0  0  0  0  0  0  0  0  0  0  0
  187.8580  174.9610  142.4680 C   0  0  0  0  0  3  0  0  0  0  0  0
  189.9400  174.1750  143.5890 C   0  0  2  0  0  3  0  0  0  0  0  0
  190.5240  174.0050  144.9930 C   0  0  0  0  0  2  0  0  0  0  0  0
  186.7280  175.7740  142.3830 C   0  0  0  0  0  3  0  0  0  0  0  0
  191.4350  175.2750  146.9750 C   0  0  2  0  0  3  0  0  0  0  0  0
  191.2590  176.5170  147.8430 C   0  0  0  0  0  1  0  0  0  0  0  0
  192.8450  175.0700  146.6720 N   0  0  0  0  0  2  0  0  0  0  0  0
  193.6530  176.0340  145.9940 C   0  0  0  0  0  0  0  0  0  0  0  0
  193.1790  177.1550  145.6690 O   0  0  0  0  0  0  0  0  0  0  0  0
  195.0620  175.6940  145.6410 C   0  0  0  0  0  2  0  0  0  0  0  0
  195.1690  175.2080  144.1950 C   0  0  2  0  0  0  0  0  0  0  0  0
  196.0440  175.9660  143.2610 C   0  0  1  0  0  0  0  0  0  0  0  0
  194.6460  176.1550  143.2910 O   0  0  0  0  0  0  0  0  0  0  0  0
  196.7090  177.0900  143.7580 O   0  0  0  0  0  1  0  0  0  0  0  0
  196.5110  175.4000  141.9520 C   0  0  0  0  0  0  0  0  0  0  0  0
  197.9370  173.7960  140.5990 C   0  0  0  0  0  2  0  0  0  0  0  0
  196.3990  175.3640  139.4530 C   0  0  0  0  0  2  0  0  0  0  0  0
  197.8220  174.8170  139.4770 C   0  0  0  0  0  2  0  0  0  0  0  0
  195.9780  175.8670  140.8080 C   0  0  0  0  0  3  0  0  0  0  0  0
  197.7120  174.4810  141.9470 C   0  0  0  0  0  2  0  0  0  0  0  0
  194.7250  173.7920  143.8270 C   0  0  0  0  0  2  0  0  0  0  0  0
  196.5340  172.4190  144.5740 O   0  0  0  0  0  1  0  0  0  0  0  0
  195.2120  172.7730  144.8440 C   0  0  0  0  0  2  0  0  0  0  0  0
  190.9120  174.7550  142.7220 O   0  0  0  0  0  0  0  0  0  0  0  0
  190.9920  172.6180  139.6800 C   0  0  0  0  0  3  0  0  0  0  0  0
  192.2300  172.9900  139.1340 C   0  0  0  0  0  0  0  0  0  0  0  0
  192.5640  174.5250  140.9840 C   0  0  0  0  0  3  0  0  0  0  0  0
  190.5450  173.1970  140.8710 C   0  0  0  0  0  3  0  0  0  0  0  0
  191.3320  174.1550  141.5300 C   0  0  0  0  0  0  0  0  0  0  0  0
  193.0110  173.9450  139.7920 C   0  0  0  0  0  3  0  0  0  0  0  0
  192.7060  172.4320  137.9450 O   0  0  0  0  0  0  0  0  0  0  0  0
  192.7090  171.0310  137.7030 C   0  0  0  0  0  1  0  0  0  0  0  0
  1  6  1  6  0  0  0
  1  5  1  0  0  0  0
  2 13  1  0  0  0  0
  2 11  1  0  0  0  0
  3 10  1  0  0  0  0
  3 16  1  1  0  0  0
  4  7  1  0  0  0  0
  5  9  1  0  0  0  0
  7 11  2  0  0  0  0
  7  9  1  0  0  0  0
  8  4  1  0  0  0  0
  8  1  1  0  0  0  0
 11 10  1  0  0  0  0
 12  2  2  0  0  0  0
 13 35  1  6  0  0  0
 13 14  1  0  0  0  0
 14  3  1  0  0  0  0
 15 12  1  0  0  0  0
 15  4  2  0  0  0  0
 16 17  1  6  0  0  0
 18 16  1  0  0  0  0
 19 18  1  0  0  0  0
 20 19  2  0  0  0  0
 21 19  1  0  0  0  0
 22 32  1  6  0  0  0
 22 21  1  0  0  0  0
 23 24  1  0  0  0  0
 23 25  1  1  0  0  0
 23 22  1  0  0  0  0
 24 22  1  0  0  0  0
 26 23  1  0  0  0  0
 27 31  1  0  0  0  0
 28 29  1  0  0  0  0
 28 30  1  0  0  0  0
 29 27  1  0  0  0  0
 30 26  2  0  0  0  0
 31 26  1  0  0  0  0
 32 34  1  0  0  0  0
 33 34  1  0  0  0  0
 36 39  1  0  0  0  0
 37 36  2  0  0  0  0
 37 41  1  0  0  0  0
 38 40  1  0  0  0  0
 39 40  2  0  0  0  0
 40 35  1  0  0  0  0
 41 38  2  0  0  0  0
 42 37  1  0  0  0  0
 43 42  1  0  0  0  0
M  END
>  <MODEL>
1

>  <REMARK>
 VINA RESULT:      -7.3      0.000      0.000
  Name = 
  10 active torsions:
  status: ('A' for Active; 'I' for Inactive)
    1  A    between atoms: O_1  and  C_34
    2  A    between atoms: O_1  and  C_35
    3  A    between atoms: C_2  and  N_6
    4  A    between atoms: C_2  and  C_13
    5  A    between atoms: C_3  and  C_4
    6  A    between atoms: C_3  and  C_12
    7  A    between atoms: C_4  and  C_15
    8  A    between atoms: C_11  and  C_14
    9  A    between atoms: C_15  and  C_42
   10  A    between atoms: C_19  and  O_25
                            x       y       z     vdW  Elec       q    Type
                         _______ _______ _______ _____ _____    ______ ____

>  <TORSDO>
F 10

$$$$
=
 OpenBabel11052421033D

 43 48  0  0  1  0  0  0  0  0999 V2000
  185.1860  179.0840  144.2260 C   0  0  1  0  0  3  0  0  0  0  0  0
  188.9300  175.8950  145.7710 C   0  0  0  0  0  0  0  0  0  0  0  0
  190.7240  175.4840  143.5670 C   0  0  2  0  0  3  0  0  0  0  0  0
  186.6040  177.4410  145.5020 C   0  0  0  0  0  0  0  0  0  0  0  0
  185.8040  178.4740  142.9730 C   0  0  0  0  0  2  0  0  0  0  0  0
  183.8190  179.2750  144.0320 O   0  0  0  0  0  1  0  0  0  0  0  0
  187.5340  177.3940  144.4450 C   0  0  0  0  0  0  0  0  0  0  0  0
  185.4010  178.2040  145.3690 N   0  0  0  0  0  2  0  0  0  0  0  0
  187.2940  178.2280  143.2090 C   0  0  0  0  0  2  0  0  0  0  0  0
  189.7520  176.6630  143.4920 C   0  0  0  0  0  2  0  0  0  0  0  0
  188.7050  176.6220  144.5760 C   0  0  0  0  0  0  0  0  0  0  0  0
  187.9830  175.9360  146.7980 C   0  0  0  0  0  3  0  0  0  0  0  0
  190.1220  174.9890  145.9400 C   0  0  2  0  0  3  0  0  0  0  0  0
  191.2630  175.3460  144.9850 C   0  0  0  0  0  2  0  0  0  0  0  0
  186.8280  176.7050  146.6660 C   0  0  0  0  0  3  0  0  0  0  0  0
  191.8570  175.6020  142.5450 C   0  0  2  0  0  3  0  0  0  0  0  0
  191.7970  174.5010  141.4910 C   0  0  0  0  0  1  0  0  0  0  0  0
  193.1400  175.5660  143.2350 N   0  0  0  0  0  2  0  0  0  0  0  0
  194.3630  176.0140  142.6470 C   0  0  0  0  0  0  0  0  0  0  0  0
  194.3730  176.5230  141.4940 O   0  0  0  0  0  0  0  0  0  0  0  0
  195.6420  175.8480  143.3950 C   0  0  0  0  0  2  0  0  0  0  0  0
  195.9680  174.3700  143.6150 C   0  0  2  0  0  0  0  0  0  0  0  0
  195.9980  173.8570  145.0110 C   0  0  1  0  0  0  0  0  0  0  0  0
  197.1780  174.2070  144.3200 O   0  0  0  0  0  0  0  0  0  0  0  0
  195.7390  174.7610  146.0440 O   0  0  0  0  0  1  0  0  0  0  0  0
  195.9450  172.3920  145.3340 C   0  0  0  0  0  0  0  0  0  0  0  0
  194.6580  170.2380  145.7090 C   0  0  0  0  0  2  0  0  0  0  0  0
  197.1290  170.2580  145.8850 C   0  0  0  0  0  2  0  0  0  0  0  0
  195.8410  169.8130  146.5670 C   0  0  0  0  0  2  0  0  0  0  0  0
  197.0940  171.7240  145.5420 C   0  0  0  0  0  3  0  0  0  0  0  0
  194.6000  171.7630  145.6270 C   0  0  0  0  0  2  0  0  0  0  0  0
  195.8710  173.3820  142.4530 C   0  0  0  0  0  2  0  0  0  0  0  0
  196.6520  174.1170  140.3160 O   0  0  0  0  0  1  0  0  0  0  0  0
  197.0540  173.5150  141.5070 C   0  0  0  0  0  2  0  0  0  0  0  0
  189.7210  173.6360  145.7410 O   0  0  0  0  0  0  0  0  0  0  0  0
  191.4570  171.4730  143.2640 C   0  0  0  0  0  3  0  0  0  0  0  0
  190.5240  171.4790  142.2150 C   0  0  0  0  0  0  0  0  0  0  0  0
  189.0810  172.9190  143.5320 C   0  0  0  0  0  3  0  0  0  0  0  0
  191.2010  172.1860  144.4390 C   0  0  0  0  0  3  0  0  0  0  0  0
  190.0090  172.9140  144.5780 C   0  0  0  0  0  0  0  0  0  0  0  0
  189.3380  172.2060  142.3570 C   0  0  0  0  0  3  0  0  0  0  0  0
  190.7480  170.7770  141.0280 O   0  0  0  0  0  0  0  0  0  0  0  0
  191.7990  171.1070  140.1290 C   0  0  0  0  0  1  0  0  0  0  0  0
  1  6  1  6  0  0  0
  1  8  1  0  0  0  0
  2 13  1  0  0  0  0
  2 12  1  0  0  0  0
  3 16  1  6  0  0  0
  3 14  1  0  0  0  0
  4 15  1  0  0  0  0
  5  9  1  0  0  0  0
  5  1  1  0  0  0  0
  7 11  1  0  0  0  0
  7  4  2  0  0  0  0
  8  4  1  0  0  0  0
  9  7  1  0  0  0  0
 10  3  1  0  0  0  0
 10 11  1  0  0  0  0
 11  2  2  0  0  0  0
 13 35  1  6  0  0  0
 14 13  1  0  0  0  0
 15 12  2  0  0  0  0
 16 17  1  6  0  0  0
 16 18  1  0  0  0  0
 19 18  1  0  0  0  0
 19 21  1  0  0  0  0
 20 19  2  0  0  0  0
 21 22  1  0  0  0  0
 22 32  1  6  0  0  0
 22 24  1  0  0  0  0
 22 23  1  0  0  0  0
 23 26  1  0  0  0  0
 23 25  1  1  0  0  0
 24 23  1  0  0  0  0
 26 30  2  0  0  0  0
 26 31  1  0  0  0  0
 27 29  1  0  0  0  0
 28 29  1  0  0  0  0
 30 28  1  0  0  0  0
 31 27  1  0  0  0  0
 33 34  1  0  0  0  0
 34 32  1  0  0  0  0
 36 39  1  0  0  0  0
 37 41  1  0  0  0  0
 37 36  2  0  0  0  0
 38 40  1  0  0  0  0
 39 40  2  0  0  0  0
 40 35  1  0  0  0  0
 41 38  2  0  0  0  0
 42 37  1  0  0  0  0
 43 42  1  0  0  0  0
M  END
>  <MODEL>
2

>  <REMARK>
 VINA RESULT:      -7.2      2.056      4.022
  Name = 
  10 active torsions:
  status: ('A' for Active; 'I' for Inactive)
    1  A    between atoms: O_1  and  C_34
    2  A    between atoms: O_1  and  C_35
    3  A    between atoms: C_2  and  N_6
    4  A    between atoms: C_2  and  C_13
    5  A    between atoms: C_3  and  C_4
    6  A    between atoms: C_3  and  C_12
    7  A    between atoms: C_4  and  C_15
    8  A    between atoms: C_11  and  C_14
    9  A    between atoms: C_15  and  C_42
   10  A    between atoms: C_19  and  O_25
                            x       y       z     vdW  Elec       q    Type
                         _______ _______ _______ _____ _____    ______ ____

>  <TORSDO>
F 10

$$$$
=
 OpenBabel11052421033D

 43 48  0  0  1  0  0  0  0  0999 V2000
  185.8560  178.1140  146.6400 C   0  0  1  0  0  3  0  0  0  0  0  0
  190.4630  176.2500  145.2710 C   0  0  0  0  0  0  0  0  0  0  0  0
  190.0970  174.5340  142.9970 C   0  0  2  0  0  3  0  0  0  0  0  0
  188.2870  177.4600  146.5620 C   0  0  0  0  0  0  0  0  0  0  0  0
  185.6070  176.8550  145.8170 C   0  0  0  0  0  2  0  0  0  0  0  0
  184.8900  178.2250  147.6370 O   0  0  0  0  0  1  0  0  0  0  0  0
  188.0780  176.7560  145.3600 C   0  0  0  0  0  0  0  0  0  0  0  0
  187.1830  178.0610  147.2460 N   0  0  0  0  0  2  0  0  0  0  0  0
  186.6960  176.7190  144.7530 C   0  0  0  0  0  2  0  0  0  0  0  0
  188.9630  175.4940  143.3630 C   0  0  0  0  0  2  0  0  0  0  0  0
  189.1680  176.1490  144.7060 C   0  0  0  0  0  0  0  0  0  0  0  0
  190.6440  176.9320  146.4770 C   0  0  0  0  0  3  0  0  0  0  0  0
  191.6550  175.5550  144.6620 C   0  0  2  0  0  3  0  0  0  0  0  0
  191.4420  175.2260  143.1830 C   0  0  0  0  0  2  0  0  0  0  0  0
  189.5640  177.5360  147.1180 C   0  0  0  0  0  3  0  0  0  0  0  0
  189.9460  173.9740  141.5810 C   0  0  2  0  0  3  0  0  0  0  0  0
  188.8320  172.9350  141.4900 C   0  0  0  0  0  1  0  0  0  0  0  0
  191.2110  173.3920  141.1510 N   0  0  0  0  0  2  0  0  0  0  0  0
  191.6120  173.3050  139.7820 C   0  0  0  0  0  0  0  0  0  0  0  0
  190.8920  173.7910  138.8690 O   0  0  0  0  0  0  0  0  0  0  0  0
  192.8810  172.6050  139.4320 C   0  0  0  0  0  2  0  0  0  0  0  0
  194.0040  172.9750  140.4010 C   0  0  2  0  0  0  0  0  0  0  0  0
  194.7290  174.2550  140.1810 C   0  0  1  0  0  0  0  0  0  0  0  0
  195.2550  173.0190  139.7500 O   0  0  0  0  0  0  0  0  0  0  0  0
  194.3480  175.0410  139.0900 O   0  0  0  0  0  1  0  0  0  0  0  0
  195.5790  174.8940  141.2400 C   0  0  0  0  0  0  0  0  0  0  0  0
  195.8750  176.4440  143.2260 C   0  0  0  0  0  2  0  0  0  0  0  0
  197.8070  175.1670  142.3460 C   0  0  0  0  0  2  0  0  0  0  0  0
  197.3290  176.5460  142.7880 C   0  0  0  0  0  2  0  0  0  0  0  0
  196.8810  174.5640  141.3230 C   0  0  0  0  0  3  0  0  0  0  0  0
  195.0020  176.0430  142.0370 C   0  0  0  0  0  2  0  0  0  0  0  0
  194.1120  172.2730  141.7540 C   0  0  0  0  0  2  0  0  0  0  0  0
  192.6220  170.4650  142.2310 O   0  0  0  0  0  1  0  0  0  0  0  0
  193.8410  170.7820  141.6320 C   0  0  0  0  0  2  0  0  0  0  0  0
  191.9340  174.3640  145.3940 O   0  0  0  0  0  0  0  0  0  0  0  0
  194.7130  171.8930  145.3910 C   0  0  0  0  0  3  0  0  0  0  0  0
  195.8050  172.7310  145.6660 C   0  0  0  0  0  0  0  0  0  0  0  0
  194.3010  174.6330  145.7550 C   0  0  0  0  0  3  0  0  0  0  0  0
  193.4230  172.4250  145.2990 C   0  0  0  0  0  3  0  0  0  0  0  0
  193.2110  173.8010  145.4820 C   0  0  0  0  0  0  0  0  0  0  0  0
  195.5910  174.1010  145.8470 C   0  0  0  0  0  3  0  0  0  0  0  0
  197.1070  172.2320  145.7630 O   0  0  0  0  0  0  0  0  0  0  0  0
  197.8750  171.8650  144.6250 C   0  0  0  0  0  1  0  0  0  0  0  0
  1  8  1  0  0  0  0
  1  6  1  1  0  0  0
  2 12  1  0  0  0  0
  3 16  1  6  0  0  0
  3 14  1  0  0  0  0
  3 10  1  0  0  0  0
  4 15  1  0  0  0  0
  4  8  1  0  0  0  0
  5  1  1  0  0  0  0
  7  4  2  0  0  0  0
  9  7  1  0  0  0  0
  9  5  1  0  0  0  0
 10 11  1  0  0  0  0
 11  2  2  0  0  0  0
 11  7  1  0  0  0  0
 12 15  2  0  0  0  0
 13  2  1  0  0  0  0
 13 35  1  1  0  0  0
 14 13  1  0  0  0  0
 16 17  1  1  0  0  0
 18 16  1  0  0  0  0
 19 18  1  0  0  0  0
 20 19  2  0  0  0  0
 21 19  1  0  0  0  0
 22 21  1  6  0  0  0
 22 32  1  0  0  0  0
 23 25  1  6  0  0  0
 23 22  1  0  0  0  0
 23 26  1  0  0  0  0
 24 23  1  0  0  0  0
 24 22  1  0  0  0  0
 26 30  2  0  0  0  0
 26 31  1  0  0  0  0
 28 29  1  0  0  0  0
 29 27  1  0  0  0  0
 30 28  1  0  0  0  0
 31 27  1  0  0  0  0
 34 32  1  0  0  0  0
 34 33  1  0  0  0  0
 35 40  1  0  0  0  0
 36 37  1  0  0  0  0
 37 42  1  0  0  0  0
 37 41  2  0  0  0  0
 38 41  1  0  0  0  0
 39 36  2  0  0  0  0
 39 40  1  0  0  0  0
 40 38  2  0  0  0  0
 43 42  1  0  0  0  0
M  END
>  <MODEL>
3

>  <REMARK>
 VINA RESULT:      -7.1      2.250      4.895
  Name = 
  10 active torsions:
  status: ('A' for Active; 'I' for Inactive)
    1  A    between atoms: O_1  and  C_34
    2  A    between atoms: O_1  and  C_35
    3  A    between atoms: C_2  and  N_6
    4  A    between atoms: C_2  and  C_13
    5  A    between atoms: C_3  and  C_4
    6  A    between atoms: C_3  and  C_12
    7  A    between atoms: C_4  and  C_15
    8  A    between atoms: C_11  and  C_14
    9  A    between atoms: C_15  and  C_42
   10  A    between atoms: C_19  and  O_25
                            x       y       z     vdW  Elec       q    Type
                         _______ _______ _______ _____ _____    ______ ____

>  <TORSDO>
F 10

$$$$
=
 OpenBabel11052421033D

 43 48  0  0  1  0  0  0  0  0999 V2000
  196.5030  175.8140  143.0710 C   0  0  1  0  0  3  0  0  0  0  0  0
  191.7760  175.4530  145.0950 C   0  0  0  0  0  0  0  0  0  0  0  0
  189.8710  175.5500  142.9480 C   0  0  2  0  0  3  0  0  0  0  0  0
  194.5270  175.7420  144.6310 C   0  0  0  0  0  0  0  0  0  0  0  0
  195.5270  176.3740  142.0420 C   0  0  0  0  0  2  0  0  0  0  0  0
  197.7020  176.5230  143.0200 O   0  0  0  0  0  1  0  0  0  0  0  0
  193.6450  175.6380  143.5380 C   0  0  0  0  0  0  0  0  0  0  0  0
  195.9300  175.9150  144.4100 N   0  0  0  0  0  2  0  0  0  0  0  0
  194.2020  175.6190  142.1350 C   0  0  0  0  0  2  0  0  0  0  0  0
  191.3330  175.2640  142.6000 C   0  0  0  0  0  2  0  0  0  0  0  0
  192.2620  175.4900  143.7660 C   0  0  0  0  0  0  0  0  0  0  0  0
  192.6660  175.5830  146.1650 C   0  0  0  0  0  3  0  0  0  0  0  0
  190.3020  175.3780  145.4030 C   0  0  2  0  0  3  0  0  0  0  0  0
  189.4920  174.8200  144.2310 C   0  0  0  0  0  2  0  0  0  0  0  0
  194.0330  175.7240  145.9350 C   0  0  0  0  0  3  0  0  0  0  0  0
  188.9230  175.1960  141.8010 C   0  0  2  0  0  3  0  0  0  0  0  0
  187.4980  174.9480  142.2880 C   0  0  0  0  0  1  0  0  0  0  0  0
  189.4250  174.0230  141.0990 N   0  0  0  0  0  2  0  0  0  0  0  0
  189.1260  173.7350  139.7310 C   0  0  0  0  0  0  0  0  0  0  0  0
  188.4410  174.5370  139.0410 O   0  0  0  0  0  0  0  0  0  0  0  0
  189.6050  172.4590  139.1270 C   0  0  0  0  0  2  0  0  0  0  0  0
  191.1330  172.4140  139.0650 C   0  0  2  0  0  0  0  0  0  0  0  0
  191.8090  173.0720  137.9160 C   0  0  1  0  0  0  0  0  0  0  0  0
  191.5840  171.6800  137.9490 O   0  0  0  0  0  0  0  0  0  0  0  0
  191.0070  173.6840  136.9490 O   0  0  0  0  0  1  0  0  0  0  0  0
  193.2720  173.4090  137.9240 C   0  0  0  0  0  0  0  0  0  0  0  0
  195.2150  174.8890  138.6120 C   0  0  0  0  0  2  0  0  0  0  0  0
  195.6190  172.8570  137.2550 C   0  0  0  0  0  2  0  0  0  0  0  0
  195.9190  174.3460  137.3770 C   0  0  0  0  0  2  0  0  0  0  0  0
  194.1380  172.5870  137.3050 C   0  0  0  0  0  3  0  0  0  0  0  0
  193.7000  174.7650  138.4400 C   0  0  0  0  0  2  0  0  0  0  0  0
  191.9410  172.0670  140.3160 C   0  0  0  0  0  2  0  0  0  0  0  0
  191.0080  171.2650  142.3660 O   0  0  0  0  0  1  0  0  0  0  0  0
  191.3340  170.8900  141.0630 C   0  0  0  0  0  2  0  0  0  0  0  0
  189.8240  176.6730  145.7560 O   0  0  0  0  0  0  0  0  0  0  0  0
  186.3600  176.7520  147.1040 C   0  0  0  0  0  3  0  0  0  0  0  0
  185.7440  177.6180  146.1880 C   0  0  0  0  0  0  0  0  0  0  0  0
  187.8520  177.8360  145.0060 C   0  0  0  0  0  3  0  0  0  0  0  0
  187.7130  176.4300  146.9700 C   0  0  0  0  0  3  0  0  0  0  0  0
  188.4670  176.9720  145.9170 C   0  0  0  0  0  0  0  0  0  0  0  0
  186.4980  178.1570  145.1400 C   0  0  0  0  0  3  0  0  0  0  0  0
  184.3930  177.9610  146.2930 O   0  0  0  0  0  0  0  0  0  0  0  0
  183.7900  178.9590  145.4810 C   0  0  0  0  0  1  0  0  0  0  0  0
  1  6  1  1  0  0  0
  1  8  1  0  0  0  0
  2 13  1  0  0  0  0
  2 12  1  0  0  0  0
  3 16  1  6  0  0  0
  3 14  1  0  0  0  0
  4 15  1  0  0  0  0
  5  9  1  0  0  0  0
  5  1  1  0  0  0  0
  7 11  1  0  0  0  0
  7  4  2  0  0  0  0
  8  4  1  0  0  0  0
  9  7  1  0  0  0  0
 10  3  1  0  0  0  0
 10 11  1  0  0  0  0
 11  2  2  0  0  0  0
 13 35  1  6  0  0  0
 14 13  1  0  0  0  0
 15 12  2  0  0  0  0
 16 17  1  1  0  0  0
 18 16  1  0  0  0  0
 19 18  1  0  0  0  0
 20 19  2  0  0  0  0
 21 19  1  0  0  0  0
 22 21  1  1  0  0  0
 22 32  1  0  0  0  0
 23 25  1  6  0  0  0
 23 26  1  0  0  0  0
 23 24  1  0  0  0  0
 23 22  1  0  0  0  0
 24 22  1  0  0  0  0
 26 31  1  0  0  0  0
 28 30  1  0  0  0  0
 28 29  1  0  0  0  0
 29 27  1  0  0  0  0
 30 26  2  0  0  0  0
 31 27  1  0  0  0  0
 32 34  1  0  0  0  0
 34 33  1  0  0  0  0
 35 40  1  0  0  0  0
 37 42  1  0  0  0  0
 37 36  2  0  0  0  0
 38 41  2  0  0  0  0
 38 40  1  0  0  0  0
 39 36  1  0  0  0  0
 40 39  2  0  0  0  0
 41 37  1  0  0  0  0
 43 42  1  0  0  0  0
M  END
>  <MODEL>
4

>  <REMARK>
 VINA RESULT:      -7.1      2.213      7.679
  Name = 
  10 active torsions:
  status: ('A' for Active; 'I' for Inactive)
    1  A    between atoms: O_1  and  C_34
    2  A    between atoms: O_1  and  C_35
    3  A    between atoms: C_2  and  N_6
    4  A    between atoms: C_2  and  C_13
    5  A    between atoms: C_3  and  C_4
    6  A    between atoms: C_3  and  C_12
    7  A    between atoms: C_4  and  C_15
    8  A    between atoms: C_11  and  C_14
    9  A    between atoms: C_15  and  C_42
   10  A    between atoms: C_19  and  O_25
                            x       y       z     vdW  Elec       q    Type
                         _______ _______ _______ _____ _____    ______ ____

>  <TORSDO>
F 10

$$$$
=
 OpenBabel11052421033D

 43 48  0  0  1  0  0  0  0  0999 V2000
  184.7830  178.3460  144.4590 C   0  0  1  0  0  3  0  0  0  0  0  0
  188.7170  175.1140  143.6530 C   0  0  0  0  0  0  0  0  0  0  0  0
  190.5830  175.4150  145.8150 C   0  0  2  0  0  3  0  0  0  0  0  0
  186.4210  176.7140  143.4620 C   0  0  0  0  0  0  0  0  0  0  0  0
  185.9640  178.8600  145.2740 C   0  0  0  0  0  2  0  0  0  0  0  0
  184.0360  179.4210  143.9800 O   0  0  0  0  0  1  0  0  0  0  0  0
  187.2240  176.7860  144.6170 C   0  0  0  0  0  0  0  0  0  0  0  0
  185.2610  177.5430  143.3390 N   0  0  0  0  0  2  0  0  0  0  0  0
  186.8010  177.6770  145.7600 C   0  0  0  0  0  2  0  0  0  0  0  0
  189.1710  175.9760  146.0000 C   0  0  0  0  0  2  0  0  0  0  0  0
  188.3770  175.9820  144.7190 C   0  0  0  0  0  0  0  0  0  0  0  0
  187.9190  175.0750  142.5060 C   0  0  0  0  0  3  0  0  0  0  0  0
  189.9780  174.2890  143.6680 C   0  0  2  0  0  3  0  0  0  0  0  0
  190.5180  174.0790  145.0850 C   0  0  0  0  0  2  0  0  0  0  0  0
  186.7770  175.8690  142.4110 C   0  0  0  0  0  3  0  0  0  0  0  0
  191.3360  175.2930  147.1410 C   0  0  2  0  0  3  0  0  0  0  0  0
  191.1920  176.5450  148.0010 C   0  0  0  0  0  1  0  0  0  0  0  0
  192.7430  175.0240  146.8790 N   0  0  0  0  0  2  0  0  0  0  0  0
  193.6090  175.9410  146.2060 C   0  0  0  0  0  0  0  0  0  0  0  0
  193.1920  177.0750  145.8510 O   0  0  0  0  0  0  0  0  0  0  0  0
  195.0110  175.5360  145.8960 C   0  0  0  0  0  2  0  0  0  0  0  0
  195.0960  174.8250  144.5450 C   0  0  2  0  0  0  0  0  0  0  0  0
  195.1150  173.3380  144.5340 C   0  0  1  0  0  0  0  0  0  0  0  0
  196.2980  174.0980  144.4190 O   0  0  0  0  0  0  0  0  0  0  0  0
  195.0660  172.6750  145.7630 O   0  0  0  0  0  1  0  0  0  0  0  0
  194.8360  172.5360  143.2960 C   0  0  0  0  0  0  0  0  0  0  0  0
  193.3010  171.1140  141.8600 C   0  0  0  0  0  2  0  0  0  0  0  0
  195.5920  171.6460  141.0830 C   0  0  0  0  0  2  0  0  0  0  0  0
  194.5780  170.5250  141.2770 C   0  0  0  0  0  2  0  0  0  0  0  0
  195.7860  172.4400  142.3480 C   0  0  0  0  0  3  0  0  0  0  0  0
  193.5830  171.6890  143.2490 C   0  0  0  0  0  2  0  0  0  0  0  0
  194.7740  175.5830  143.2580 C   0  0  0  0  0  2  0  0  0  0  0  0
  195.7390  176.7880  141.4320 O   0  0  0  0  0  1  0  0  0  0  0  0
  195.9960  176.3070  142.7150 C   0  0  0  0  0  2  0  0  0  0  0  0
  190.9660  174.9180  142.8560 O   0  0  0  0  0  0  0  0  0  0  0  0
  193.0740  174.1680  139.8860 C   0  0  0  0  0  3  0  0  0  0  0  0
  192.2300  173.2950  139.1830 C   0  0  0  0  0  0  0  0  0  0  0  0
  190.5660  173.5210  140.9350 C   0  0  0  0  0  3  0  0  0  0  0  0
  192.6640  174.7140  141.1060 C   0  0  0  0  0  3  0  0  0  0  0  0
  191.4050  174.3920  141.6370 C   0  0  0  0  0  0  0  0  0  0  0  0
  190.9760  172.9760  139.7140 C   0  0  0  0  0  3  0  0  0  0  0  0
  192.6080  172.7320  137.9610 O   0  0  0  0  0  0  0  0  0  0  0  0
  191.7310  172.6610  136.8450 C   0  0  0  0  0  1  0  0  0  0  0  0
  1  6  1  6  0  0  0
  1  5  1  0  0  0  0
  2 13  1  0  0  0  0
  2 11  1  0  0  0  0
  3 10  1  0  0  0  0
  3 16  1  1  0  0  0
  4  7  1  0  0  0  0
  5  9  1  0  0  0  0
  7 11  2  0  0  0  0
  7  9  1  0  0  0  0
  8  4  1  0  0  0  0
  8  1  1  0  0  0  0
 11 10  1  0  0  0  0
 12  2  2  0  0  0  0
 13 35  1  6  0  0  0
 13 14  1  0  0  0  0
 14  3  1  0  0  0  0
 15 12  1  0  0  0  0
 15  4  2  0  0  0  0
 16 17  1  6  0  0  0
 18 16  1  0  0  0  0
 19 18  1  0  0  0  0
 20 19  2  0  0  0  0
 21 19  1  0  0  0  0
 22 32  1  6  0  0  0
 22 21  1  0  0  0  0
 23 22  1  0  0  0  0
 23 25  1  1  0  0  0
 24 23  1  0  0  0  0
 24 22  1  0  0  0  0
 26 23  1  0  0  0  0
 27 31  1  0  0  0  0
 28 29  1  0  0  0  0
 28 30  1  0  0  0  0
 29 27  1  0  0  0  0
 30 26  2  0  0  0  0
 31 26  1  0  0  0  0
 33 34  1  0  0  0  0
 34 32  1  0  0  0  0
 36 39  1  0  0  0  0
 37 41  1  0  0  0  0
 37 36  2  0  0  0  0
 38 40  1  0  0  0  0
 39 40  2  0  0  0  0
 40 35  1  0  0  0  0
 41 38  2  0  0  0  0
 42 37  1  0  0  0  0
 43 42  1  0  0  0  0
M  END
>  <MODEL>
5

>  <REMARK>
 VINA RESULT:      -7.0      1.290      2.444
  Name = 
  10 active torsions:
  status: ('A' for Active; 'I' for Inactive)
    1  A    between atoms: O_1  and  C_34
    2  A    between atoms: O_1  and  C_35
    3  A    between atoms: C_2  and  N_6
    4  A    between atoms: C_2  and  C_13
    5  A    between atoms: C_3  and  C_4
    6  A    between atoms: C_3  and  C_12
    7  A    between atoms: C_4  and  C_15
    8  A    between atoms: C_11  and  C_14
    9  A    between atoms: C_15  and  C_42
   10  A    between atoms: C_19  and  O_25
                            x       y       z     vdW  Elec       q    Type
                         _______ _______ _______ _____ _____    ______ ____

>  <TORSDO>
F 10

$$$$
=
 OpenBabel11052421033D

 43 48  0  0  1  0  0  0  0  0999 V2000
  191.7740  176.9060  147.7740 C   0  0  1  0  0  3  0  0  0  0  0  0
  193.4610  173.7740  144.0430 C   0  0  0  0  0  0  0  0  0  0  0  0
  191.2430  173.1440  142.3300 C   0  0  2  0  0  3  0  0  0  0  0  0
  193.1370  175.3420  146.3460 C   0  0  0  0  0  0  0  0  0  0  0  0
  190.5580  176.1820  147.2080 C   0  0  0  0  0  2  0  0  0  0  0  0
  191.6080  177.1100  149.1420 O   0  0  0  0  0  1  0  0  0  0  0  0
  192.0590  175.1890  145.4520 C   0  0  0  0  0  0  0  0  0  0  0  0
  192.9790  176.1180  147.5380 N   0  0  0  0  0  2  0  0  0  0  0  0
  190.7670  175.9240  145.7170 C   0  0  0  0  0  2  0  0  0  0  0  0
  191.1010  174.3350  143.2810 C   0  0  0  0  0  2  0  0  0  0  0  0
  192.2170  174.4050  144.2930 C   0  0  0  0  0  0  0  0  0  0  0  0
  194.5090  173.9190  144.9550 C   0  0  0  0  0  3  0  0  0  0  0  0
  193.6670  172.8590  142.8630 C   0  0  2  0  0  3  0  0  0  0  0  0
  192.6510  173.1110  141.7470 C   0  0  0  0  0  2  0  0  0  0  0  0
  194.3500  174.7000  146.0990 C   0  0  0  0  0  3  0  0  0  0  0  0
  190.1810  173.1530  141.2290 C   0  0  2  0  0  3  0  0  0  0  0  0
  190.7340  172.6690  139.8920 C   0  0  0  0  0  1  0  0  0  0  0  0
  189.6360  174.4970  141.0890 N   0  0  0  0  0  2  0  0  0  0  0  0
  188.3230  174.8630  141.5180 C   0  0  0  0  0  0  0  0  0  0  0  0
  187.5810  174.0280  142.1000 O   0  0  0  0  0  0  0  0  0  0  0  0
  187.8170  176.2390  141.2440 C   0  0  0  0  0  2  0  0  0  0  0  0
  187.7470  177.0690  142.5260 C   0  0  2  0  0  0  0  0  0  0  0  0
  186.4070  177.3620  143.1010 C   0  0  1  0  0  0  0  0  0  0  0  0
  187.0980  178.3020  142.3090 O   0  0  0  0  0  0  0  0  0  0  0  0
  185.2860  176.8700  142.4270 O   0  0  0  0  0  1  0  0  0  0  0  0
  186.2200  177.8390  144.5120 C   0  0  0  0  0  0  0  0  0  0  0  0
  186.2900  177.4620  147.0200 C   0  0  0  0  0  2  0  0  0  0  0  0
  185.6140  179.6650  146.1120 C   0  0  0  0  0  2  0  0  0  0  0  0
  185.2460  178.5660  147.1020 C   0  0  0  0  0  2  0  0  0  0  0  0
  185.8370  179.1100  144.7300 C   0  0  0  0  0  3  0  0  0  0  0  0
  186.2600  176.8220  145.6320 C   0  0  0  0  0  2  0  0  0  0  0  0
  188.9930  177.2480  143.3930 C   0  0  0  0  0  2  0  0  0  0  0  0
  190.9860  178.5680  143.4610 O   0  0  0  0  0  1  0  0  0  0  0  0
  190.1370  177.8670  142.6050 C   0  0  0  0  0  2  0  0  0  0  0  0
  193.5930  171.5030  143.2960 O   0  0  0  0  0  0  0  0  0  0  0  0
  195.1050  169.7600  146.2120 C   0  0  0  0  0  3  0  0  0  0  0  0
  196.4580  169.7610  145.8410 C   0  0  0  0  0  0  0  0  0  0  0  0
  195.8780  170.9190  143.7900 C   0  0  0  0  0  3  0  0  0  0  0  0
  194.1450  170.3370  145.3750 C   0  0  0  0  0  3  0  0  0  0  0  0
  194.5290  170.9210  144.1570 C   0  0  0  0  0  0  0  0  0  0  0  0
  196.8370  170.3430  144.6280 C   0  0  0  0  0  3  0  0  0  0  0  0
  197.4430  169.1930  146.6540 O   0  0  0  0  0  0  0  0  0  0  0  0
  197.1330  168.3880  147.7850 C   0  0  0  0  0  1  0  0  0  0  0  0
  1  6  1  1  0  0  0
  2 11  2  0  0  0  0
  2 12  1  0  0  0  0
  3 16  1  6  0  0  0
  3 10  1  0  0  0  0
  4  8  1  0  0  0  0
  5  1  1  0  0  0  0
  7  9  1  0  0  0  0
  7  4  2  0  0  0  0
  8  1  1  0  0  0  0
  9  5  1  0  0  0  0
 10 11  1  0  0  0  0
 11  7  1  0  0  0  0
 12 15  2  0  0  0  0
 13 35  1  1  0  0  0
 13  2  1  0  0  0  0
 14  3  1  0  0  0  0
 14 13  1  0  0  0  0
 15  4  1  0  0  0  0
 16 17  1  6  0  0  0
 18 16  1  0  0  0  0
 18 19  1  0  0  0  0
 19 20  2  0  0  0  0
 21 19  1  0  0  0  0
 22 21  1  6  0  0  0
 22 23  1  0  0  0  0
 22 32  1  0  0  0  0
 23 25  1  6  0  0  0
 23 26  1  0  0  0  0
 24 22  1  0  0  0  0
 24 23  1  0  0  0  0
 26 30  2  0  0  0  0
 26 31  1  0  0  0  0
 27 29  1  0  0  0  0
 28 29  1  0  0  0  0
 30 28  1  0  0  0  0
 31 27  1  0  0  0  0
 34 32  1  0  0  0  0
 34 33  1  0  0  0  0
 35 40  1  0  0  0  0
 37 36  1  0  0  0  0
 37 42  1  0  0  0  0
 38 40  2  0  0  0  0
 38 41  1  0  0  0  0
 39 36  2  0  0  0  0
 40 39  1  0  0  0  0
 41 37  2  0  0  0  0
 42 43  1  0  0  0  0
M  END
>  <MODEL>
6

>  <REMARK>
 VINA RESULT:      -6.9      2.918      8.340
  Name = 
  10 active torsions:
  status: ('A' for Active; 'I' for Inactive)
    1  A    between atoms: O_1  and  C_34
    2  A    between atoms: O_1  and  C_35
    3  A    between atoms: C_2  and  N_6
    4  A    between atoms: C_2  and  C_13
    5  A    between atoms: C_3  and  C_4
    6  A    between atoms: C_3  and  C_12
    7  A    between atoms: C_4  and  C_15
    8  A    between atoms: C_11  and  C_14
    9  A    between atoms: C_15  and  C_42
   10  A    between atoms: C_19  and  O_25
                            x       y       z     vdW  Elec       q    Type
                         _______ _______ _______ _____ _____    ______ ____

>  <TORSDO>
F 10

$$$$
=
 OpenBabel11052421033D

 43 48  0  0  1  0  0  0  0  0999 V2000
  190.7850  170.3650  139.7700 C   0  0  1  0  0  3  0  0  0  0  0  0
  188.6840  174.9560  140.8120 C   0  0  0  0  0  0  0  0  0  0  0  0
  189.6300  175.8120  143.3850 C   0  0  2  0  0  3  0  0  0  0  0  0
  189.3780  172.4530  139.7510 C   0  0  0  0  0  0  0  0  0  0  0  0
  190.8570  170.5620  141.2800 C   0  0  0  0  0  2  0  0  0  0  0  0
  190.5690  169.0200  139.4790 O   0  0  0  0  0  1  0  0  0  0  0  0
  189.9880  172.8970  140.9410 C   0  0  0  0  0  0  0  0  0  0  0  0
  189.7020  171.1680  139.2120 N   0  0  0  0  0  2  0  0  0  0  0  0
  191.0520  172.0460  141.5910 C   0  0  0  0  0  2  0  0  0  0  0  0
  190.3800  174.6770  142.6850 C   0  0  0  0  0  2  0  0  0  0  0  0
  189.6450  174.1550  141.4760 C   0  0  0  0  0  0  0  0  0  0  0  0
  188.0740  174.4860  139.6460 C   0  0  0  0  0  3  0  0  0  0  0  0
  188.2170  176.2730  141.3770 C   0  0  2  0  0  3  0  0  0  0  0  0
  189.2200  176.8690  142.3670 C   0  0  0  0  0  2  0  0  0  0  0  0
  188.4190  173.2430  139.1170 C   0  0  0  0  0  3  0  0  0  0  0  0
  190.4400  176.4210  144.5310 C   0  0  2  0  0  3  0  0  0  0  0  0
  189.9230  177.8000  144.9310 C   0  0  0  0  0  1  0  0  0  0  0  0
  191.8420  176.5030  144.1450 N   0  0  0  0  0  2  0  0  0  0  0  0
  192.9230  176.3310  145.0640 C   0  0  0  0  0  0  0  0  0  0  0  0
  192.7020  176.0390  146.2690 O   0  0  0  0  0  0  0  0  0  0  0  0
  194.3250  176.5300  144.5950 C   0  0  0  0  0  2  0  0  0  0  0  0
  194.9650  175.2040  144.1810 C   0  0  2  0  0  0  0  0  0  0  0  0
  195.6570  174.4020  145.2260 C   0  0  1  0  0  0  0  0  0  0  0  0
  196.3660  175.2360  144.3360 O   0  0  0  0  0  0  0  0  0  0  0  0
  195.6930  174.9150  146.5250 O   0  0  0  0  0  1  0  0  0  0  0  0
  195.9980  172.9530  145.0370 C   0  0  0  0  0  0  0  0  0  0  0  0
  195.3430  170.5040  144.9320 C   0  0  0  0  0  2  0  0  0  0  0  0
  197.6960  171.1790  144.5560 C   0  0  0  0  0  2  0  0  0  0  0  0
  196.7880  170.2170  145.3120 C   0  0  0  0  0  2  0  0  0  0  0  0
  197.2660  172.6100  144.7480 C   0  0  0  0  0  3  0  0  0  0  0  0
  194.9570  171.9120  145.3860 C   0  0  0  0  0  2  0  0  0  0  0  0
  194.5710  174.5410  142.8620 C   0  0  0  0  0  2  0  0  0  0  0  0
  195.5420  175.7810  141.0620 O   0  0  0  0  0  1  0  0  0  0  0  0
  194.3550  175.5710  141.7630 C   0  0  0  0  0  2  0  0  0  0  0  0
  186.9520  176.0970  142.0080 O   0  0  0  0  0  0  0  0  0  0  0  0
  185.9630  177.1210  145.4430 C   0  0  0  0  0  3  0  0  0  0  0  0
  185.6590  178.4750  145.2330 C   0  0  0  0  0  0  0  0  0  0  0  0
  186.2200  178.2170  142.8860 C   0  0  0  0  0  3  0  0  0  0  0  0
  186.3920  176.3210  144.3790 C   0  0  0  0  0  3  0  0  0  0  0  0
  186.5220  176.8680  143.0930 C   0  0  0  0  0  0  0  0  0  0  0  0
  185.7900  179.0160  143.9500 C   0  0  0  0  0  3  0  0  0  0  0  0
  185.2280  179.3010  146.2740 O   0  0  0  0  0  0  0  0  0  0  0  0
  185.5190  179.0300  147.6390 C   0  0  0  0  0  1  0  0  0  0  0  0
  1  6  1  1  0  0  0
  1  5  1  0  0  0  0
  2 13  1  0  0  0  0
  2 11  1  0  0  0  0
  3 16  1  1  0  0  0
  4  7  1  0  0  0  0
  5  9  1  0  0  0  0
  7 11  2  0  0  0  0
  7  9  1  0  0  0  0
  8  4  1  0  0  0  0
  8  1  1  0  0  0  0
 10  3  1  0  0  0  0
 11 10  1  0  0  0  0
 12  2  2  0  0  0  0
 13 35  1  1  0  0  0
 13 14  1  0  0  0  0
 14  3  1  0  0  0  0
 15 12  1  0  0  0  0
 15  4  2  0  0  0  0
 16 17  1  6  0  0  0
 18 16  1  0  0  0  0
 18 19  1  0  0  0  0
 19 20  2  0  0  0  0
 21 19  1  0  0  0  0
 22 32  1  6  0  0  0
 22 24  1  0  0  0  0
 22 21  1  0  0  0  0
 22 23  1  0  0  0  0
 23 25  1  1  0  0  0
 24 23  1  0  0  0  0
 26 23  1  0  0  0  0
 26 31  1  0  0  0  0
 27 29  1  0  0  0  0
 27 31  1  0  0  0  0
 28 30  1  0  0  0  0
 28 29  1  0  0  0  0
 30 26  2  0  0  0  0
 33 34  1  0  0  0  0
 34 32  1  0  0  0  0
 35 40  1  0  0  0  0
 37 36  1  0  0  0  0
 37 42  1  0  0  0  0
 38 40  2  0  0  0  0
 38 41  1  0  0  0  0
 39 36  2  0  0  0  0
 40 39  1  0  0  0  0
 41 37  2  0  0  0  0
 42 43  1  0  0  0  0
M  END
>  <MODEL>
7

>  <REMARK>
 VINA RESULT:      -6.9      2.493      6.550
  Name = 
  10 active torsions:
  status: ('A' for Active; 'I' for Inactive)
    1  A    between atoms: O_1  and  C_34
    2  A    between atoms: O_1  and  C_35
    3  A    between atoms: C_2  and  N_6
    4  A    between atoms: C_2  and  C_13
    5  A    between atoms: C_3  and  C_4
    6  A    between atoms: C_3  and  C_12
    7  A    between atoms: C_4  and  C_15
    8  A    between atoms: C_11  and  C_14
    9  A    between atoms: C_15  and  C_42
   10  A    between atoms: C_19  and  O_25
                            x       y       z     vdW  Elec       q    Type
                         _______ _______ _______ _____ _____    ______ ____

>  <TORSDO>
F 10

$$$$
=
 OpenBabel11052421033D

 43 48  0  0  1  0  0  0  0  0999 V2000
  191.4850  169.4870  136.9810 C   0  0  1  0  0  3  0  0  0  0  0  0
  190.2290  173.5880  139.8410 C   0  0  0  0  0  0  0  0  0  0  0  0
  191.0690  173.0900  142.5410 C   0  0  2  0  0  3  0  0  0  0  0  0
  190.5200  171.6520  137.8320 C   0  0  0  0  0  0  0  0  0  0  0  0
  191.4470  169.0290  138.4350 C   0  0  0  0  0  2  0  0  0  0  0  0
  191.0400  168.4610  136.1510 O   0  0  0  0  0  1  0  0  0  0  0  0
  191.0870  171.4270  139.1020 C   0  0  0  0  0  0  0  0  0  0  0  0
  190.6380  170.6620  136.8050 N   0  0  0  0  0  2  0  0  0  0  0  0
  191.8960  170.1750  139.3410 C   0  0  0  0  0  2  0  0  0  0  0  0
  191.6480  172.2070  141.4340 C   0  0  0  0  0  2  0  0  0  0  0  0
  190.9450  172.3970  140.1130 C   0  0  0  0  0  0  0  0  0  0  0  0
  189.6530  173.7800  138.5820 C   0  0  0  0  0  3  0  0  0  0  0  0
  189.9750  174.6270  140.9030 C   0  0  2  0  0  3  0  0  0  0  0  0
  190.9740  174.5320  142.0580 C   0  0  0  0  0  2  0  0  0  0  0  0
  189.7990  172.8200  137.5820 C   0  0  0  0  0  3  0  0  0  0  0  0
  191.8680  172.9860  143.8420 C   0  0  2  0  0  3  0  0  0  0  0  0
  192.1900  171.5390  144.2040 C   0  0  0  0  0  1  0  0  0  0  0  0
  191.1240  173.6200  144.9220 N   0  0  0  0  0  2  0  0  0  0  0  0
  191.5450  174.8230  145.5680 C   0  0  0  0  0  0  0  0  0  0  0  0
  192.5790  175.4320  145.1820 O   0  0  0  0  0  0  0  0  0  0  0  0
  190.7690  175.3440  146.7300 C   0  0  0  0  0  2  0  0  0  0  0  0
  189.6060  176.2230  146.2700 C   0  0  2  0  0  0  0  0  0  0  0  0
  188.2580  175.9630  146.8440 C   0  0  1  0  0  0  0  0  0  0  0  0
  188.6340  175.4730  145.5750 O   0  0  0  0  0  0  0  0  0  0  0  0
  188.1320  174.9190  147.7640 O   0  0  0  0  0  1  0  0  0  0  0  0
  187.1380  176.9570  146.7570 C   0  0  0  0  0  0  0  0  0  0  0  0
  185.8960  178.9970  147.6150 C   0  0  0  0  0  2  0  0  0  0  0  0
  185.1000  177.8170  145.5870 C   0  0  0  0  0  2  0  0  0  0  0  0
  184.6740  178.4020  146.9290 C   0  0  0  0  0  2  0  0  0  0  0  0
  186.2590  176.8690  145.7420 C   0  0  0  0  0  3  0  0  0  0  0  0
  186.9050  177.8910  147.9240 C   0  0  0  0  0  2  0  0  0  0  0  0
  189.8800  177.5530  145.5680 C   0  0  0  0  0  2  0  0  0  0  0  0
  188.9570  177.9590  143.4000 O   0  0  0  0  0  1  0  0  0  0  0  0
  190.0320  177.3690  144.0660 C   0  0  0  0  0  2  0  0  0  0  0  0
  188.6440  174.4880  141.3950 O   0  0  0  0  0  0  0  0  0  0  0  0
  185.9160  176.8280  142.3460 C   0  0  0  0  0  3  0  0  0  0  0  0
  185.8170  177.6000  141.1780 C   0  0  0  0  0  0  0  0  0  0  0  0
  187.5970  176.2860  140.1810 C   0  0  0  0  0  3  0  0  0  0  0  0
  186.8500  175.7910  142.4290 C   0  0  0  0  0  3  0  0  0  0  0  0
  187.6970  175.5150  141.3430 C   0  0  0  0  0  0  0  0  0  0  0  0
  186.6610  177.3220  140.0990 C   0  0  0  0  0  3  0  0  0  0  0  0
  184.8940  178.6430  141.0630 O   0  0  0  0  0  0  0  0  0  0  0  0
  183.5510  178.4360  140.6460 C   0  0  0  0  0  1  0  0  0  0  0  0
  1  6  1  6  0  0  0
  1  5  1  0  0  0  0
  2 11  1  0  0  0  0
  2 13  1  0  0  0  0
  3 16  1  1  0  0  0
  4  7  1  0  0  0  0
  5  9  1  0  0  0  0
  7  9  1  0  0  0  0
  7 11  2  0  0  0  0
  8  1  1  0  0  0  0
  8  4  1  0  0  0  0
 10  3  1  0  0  0  0
 11 10  1  0  0  0  0
 12  2  2  0  0  0  0
 13 35  1  1  0  0  0
 13 14  1  0  0  0  0
 14  3  1  0  0  0  0
 15  4  2  0  0  0  0
 15 12  1  0  0  0  0
 16 17  1  1  0  0  0
 16 18  1  0  0  0  0
 18 19  1  0  0  0  0
 19 21  1  0  0  0  0
 20 19  2  0  0  0  0
 22 32  1  6  0  0  0
 22 21  1  0  0  0  0
 22 23  1  0  0  0  0
 23 25  1  1  0  0  0
 24 22  1  0  0  0  0
 24 23  1  0  0  0  0
 26 23  1  0  0  0  0
 26 31  1  0  0  0  0
 27 31  1  0  0  0  0
 28 30  1  0  0  0  0
 28 29  1  0  0  0  0
 29 27  1  0  0  0  0
 30 26  2  0  0  0  0
 33 34  1  0  0  0  0
 34 32  1  0  0  0  0
 36 39  1  0  0  0  0
 37 36  2  0  0  0  0
 38 40  1  0  0  0  0
 40 35  1  0  0  0  0
 40 39  2  0  0  0  0
 41 38  2  0  0  0  0
 41 37  1  0  0  0  0
 42 37  1  0  0  0  0
 43 42  1  0  0  0  0
M  END
>  <MODEL>
8

>  <REMARK>
 VINA RESULT:      -6.9      3.462      8.625
  Name = 
  10 active torsions:
  status: ('A' for Active; 'I' for Inactive)
    1  A    between atoms: O_1  and  C_34
    2  A    between atoms: O_1  and  C_35
    3  A    between atoms: C_2  and  N_6
    4  A    between atoms: C_2  and  C_13
    5  A    between atoms: C_3  and  C_4
    6  A    between atoms: C_3  and  C_12
    7  A    between atoms: C_4  and  C_15
    8  A    between atoms: C_11  and  C_14
    9  A    between atoms: C_15  and  C_42
   10  A    between atoms: C_19  and  O_25
                            x       y       z     vdW  Elec       q    Type
                         _______ _______ _______ _____ _____    ______ ____

>  <TORSDO>
F 10

$$$$
=
 OpenBabel11052421033D

 43 48  0  0  1  0  0  0  0  0999 V2000
  195.0360  168.7650  139.4830 C   0  0  1  0  0  3  0  0  0  0  0  0
  192.1110  171.4740  142.7520 C   0  0  0  0  0  0  0  0  0  0  0  0
  190.0830  172.8250  141.2330 C   0  0  2  0  0  3  0  0  0  0  0  0
  194.1020  169.9390  141.5060 C   0  0  0  0  0  0  0  0  0  0  0  0
  194.3320  169.8460  138.6700 C   0  0  0  0  0  2  0  0  0  0  0  0
  196.3100  168.5390  138.9670 O   0  0  0  0  0  1  0  0  0  0  0  0
  193.0380  170.4540  140.7380 C   0  0  0  0  0  0  0  0  0  0  0  0
  195.1380  169.1770  140.8790 N   0  0  0  0  0  2  0  0  0  0  0  0
  192.9530  170.1160  139.2690 C   0  0  0  0  0  2  0  0  0  0  0  0
  190.8380  171.6760  140.5610 C   0  0  0  0  0  2  0  0  0  0  0  0
  192.0340  171.2230  141.3600 C   0  0  0  0  0  0  0  0  0  0  0  0
  193.1880  170.9750  143.4900 C   0  0  0  0  0  3  0  0  0  0  0  0
  191.1140  172.3550  143.4590 C   0  0  2  0  0  3  0  0  0  0  0  0
  189.7980  172.4770  142.6880 C   0  0  0  0  0  2  0  0  0  0  0  0
  194.1770  170.2100  142.8720 C   0  0  0  0  0  3  0  0  0  0  0  0
  188.8020  173.1920  140.4820 C   0  0  2  0  0  3  0  0  0  0  0  0
  188.8270  172.7130  139.0330 C   0  0  0  0  0  1  0  0  0  0  0  0
  188.6050  174.6340  140.5300 N   0  0  0  0  0  2  0  0  0  0  0  0
  187.7560  175.2820  141.4790 C   0  0  0  0  0  0  0  0  0  0  0  0
  187.1670  174.6180  142.3730 O   0  0  0  0  0  0  0  0  0  0  0  0
  187.5420  176.7560  141.3880 C   0  0  0  0  0  2  0  0  0  0  0  0
  187.5340  177.4010  142.7740 C   0  0  2  0  0  0  0  0  0  0  0  0
  186.2250  177.5890  143.4550 C   0  0  1  0  0  0  0  0  0  0  0  0
  186.8630  178.6410  142.7640 O   0  0  0  0  0  0  0  0  0  0  0  0
  185.0740  177.1760  142.7800 O   0  0  0  0  0  1  0  0  0  0  0  0
  186.1120  177.8650  144.9260 C   0  0  0  0  0  0  0  0  0  0  0  0
  186.3330  177.1530  147.3510 C   0  0  0  0  0  2  0  0  0  0  0  0
  185.5670  179.4410  146.7910 C   0  0  0  0  0  2  0  0  0  0  0  0
  185.2770  178.2100  147.6410 C   0  0  0  0  0  2  0  0  0  0  0  0
  185.7190  179.0850  145.3360 C   0  0  0  0  0  3  0  0  0  0  0  0
  186.2340  176.7080  145.8920 C   0  0  0  0  0  2  0  0  0  0  0  0
  188.8240  177.4810  143.5900 C   0  0  0  0  0  2  0  0  0  0  0  0
  191.0610  177.3120  142.7630 O   0  0  0  0  0  1  0  0  0  0  0  0
  189.9430  178.1440  142.8020 C   0  0  0  0  0  2  0  0  0  0  0  0
  191.6830  173.6460  143.6650 O   0  0  0  0  0  0  0  0  0  0  0  0
  189.8380  175.1810  146.5050 C   0  0  0  0  0  3  0  0  0  0  0  0
  190.7810  176.1210  146.9490 C   0  0  0  0  0  0  0  0  0  0  0  0
  192.3000  175.3960  145.2010 C   0  0  0  0  0  3  0  0  0  0  0  0
  190.1260  174.3550  145.4150 C   0  0  0  0  0  3  0  0  0  0  0  0
  191.3620  174.4590  144.7570 C   0  0  0  0  0  0  0  0  0  0  0  0
  192.0110  176.2230  146.2920 C   0  0  0  0  0  3  0  0  0  0  0  0
  190.5250  176.9620  148.0360 O   0  0  0  0  0  0  0  0  0  0  0  0
  191.5620  177.5440  148.8150 C   0  0  0  0  0  1  0  0  0  0  0  0
  1  6  1  6  0  0  0
  1  8  1  0  0  0  0
  2 13  1  0  0  0  0
  2 12  1  0  0  0  0
  3 16  1  6  0  0  0
  3 14  1  0  0  0  0
  4 15  1  0  0  0  0
  5  9  1  0  0  0  0
  5  1  1  0  0  0  0
  7 11  1  0  0  0  0
  7  4  2  0  0  0  0
  8  4  1  0  0  0  0
  9  7  1  0  0  0  0
 10  3  1  0  0  0  0
 10 11  1  0  0  0  0
 11  2  2  0  0  0  0
 13 35  1  6  0  0  0
 14 13  1  0  0  0  0
 15 12  2  0  0  0  0
 16 17  1  6  0  0  0
 16 18  1  0  0  0  0
 18 19  1  0  0  0  0
 19 20  2  0  0  0  0
 21 19  1  0  0  0  0
 22 21  1  6  0  0  0
 22 23  1  0  0  0  0
 22 32  1  0  0  0  0
 23 25  1  6  0  0  0
 23 26  1  0  0  0  0
 24 22  1  0  0  0  0
 24 23  1  0  0  0  0
 26 30  2  0  0  0  0
 26 31  1  0  0  0  0
 27 29  1  0  0  0  0
 28 29  1  0  0  0  0
 30 28  1  0  0  0  0
 31 27  1  0  0  0  0
 33 34  1  0  0  0  0
 34 32  1  0  0  0  0
 35 40  1  0  0  0  0
 36 37  1  0  0  0  0
 37 42  1  0  0  0  0
 38 41  1  0  0  0  0
 39 36  2  0  0  0  0
 40 38  2  0  0  0  0
 40 39  1  0  0  0  0
 41 37  2  0  0  0  0
 42 43  1  0  0  0  0
M  END
>  <MODEL>
9

>  <REMARK>
 VINA RESULT:      -6.9      3.492      9.615
  Name = 
  10 active torsions:
  status: ('A' for Active; 'I' for Inactive)
    1  A    between atoms: O_1  and  C_34
    2  A    between atoms: O_1  and  C_35
    3  A    between atoms: C_2  and  N_6
    4  A    between atoms: C_2  and  C_13
    5  A    between atoms: C_3  and  C_4
    6  A    between atoms: C_3  and  C_12
    7  A    between atoms: C_4  and  C_15
    8  A    between atoms: C_11  and  C_14
    9  A    between atoms: C_15  and  C_42
   10  A    between atoms: C_19  and  O_25
                            x       y       z     vdW  Elec       q    Type
                         _______ _______ _______ _____ _____    ______ ____

>  <TORSDO>
F 10

$$$$
