=
 OpenBabel11052417323D

 25 27  0  0  1  0  0  0  0  0999 V2000
  187.9090  176.7490  146.0370 C   0  0  0  0  0  0  0  0  0  0  0  0
  187.8690  175.1790  147.8850 O   0  0  0  0  0  1  0  0  0  0  0  0
  189.9870  175.9250  146.9920 C   0  0  0  0  0  0  0  0  0  0  0  0
  190.6620  175.1320  147.9130 O   0  0  0  0  0  1  0  0  0  0  0  0
  188.6510  177.5260  145.1330 C   0  0  0  0  0  3  0  0  0  0  0  0
  190.7150  176.6950  146.0820 C   0  0  0  0  0  3  0  0  0  0  0  0
  190.0470  177.5000  145.1550 C   0  0  0  0  0  0  0  0  0  0  0  0
  188.5850  175.9490  146.9740 C   0  0  0  0  0  0  0  0  0  0  0  0
  186.3970  176.7750  146.0160 C   0  0  2  0  0  3  0  0  0  0  0  0
  186.6760  178.5290  147.9360 C   0  0  0  0  0  1  0  0  0  0  0  0
  185.8770  177.1640  144.6740 C   0  0  0  0  0  0  0  0  0  0  0  0
  184.7830  178.3040  142.3920 C   0  0  0  0  0  3  0  0  0  0  0  0
  185.1700  178.3330  144.7600 C   0  0  0  0  0  0  0  0  0  0  0  0
  184.6100  178.9340  143.6350 C   0  0  0  0  0  3  0  0  0  0  0  0
  185.5060  177.0990  142.3000 C   0  0  0  0  0  3  0  0  0  0  0  0
  185.7420  177.8400  146.9510 C   0  0  1  0  0  3  0  0  0  0  0  0
  185.0930  178.8220  146.0830 N   0  0  0  0  0  2  0  0  0  0  0  0
  186.0640  176.5170  143.4510 C   0  0  0  0  0  3  0  0  0  0  0  0
  190.8150  178.2980  144.1610 C   0  0  0  0  0  2  0  0  0  0  0  0
  190.7610  177.6170  142.8040 C   0  0  0  0  0  2  0  0  0  0  0  0
  191.6170  176.3610  142.8050 C   0  0  0  0  0  2  0  0  0  0  0  0
  190.9740  175.3020  142.0370 N   0  0  0  0  0  2  0  0  0  0  0  0
  189.5660  175.2790  142.4010 C   0  0  1  0  0  3  0  0  0  0  0  0
  188.7650  174.9390  141.2380 N   0  0  0  0  0  1  0  0  0  0  0  0
  189.3420  174.2400  143.4810 C   0  0  0  0  0  1  0  0  0  0  0  0
  1  8  1  0  0  0  0
  3  4  1  0  0  0  0
  5  7  1  0  0  0  0
  5  1  2  0  0  0  0
  6  3  1  0  0  0  0
  7  6  2  0  0  0  0
  8  3  2  0  0  0  0
  8  2  1  0  0  0  0
  9  1  1  6  0  0  0
  9 16  1  0  0  0  0
 11 13  1  0  0  0  0
 11  9  1  0  0  0  0
 12 14  1  0  0  0  0
 13 17  1  0  0  0  0
 14 13  2  0  0  0  0
 15 12  2  0  0  0  0
 15 18  1  0  0  0  0
 16 10  1  6  0  0  0
 17 16  1  0  0  0  0
 18 11  2  0  0  0  0
 19  7  1  0  0  0  0
 20 21  1  0  0  0  0
 20 19  1  0  0  0  0
 22 23  1  0  0  0  0
 22 21  1  0  0  0  0
 23 25  1  1  0  0  0
 24 23  1  0  0  0  0
M  END
>  <MODEL>
1

>  <REMARK>
 VINA RESULT:      -6.7      0.000      0.000
  Name = 
  6 active torsions:
  status: ('A' for Active; 'I' for Inactive)
    1  A    between atoms: C_1  and  C_3
    2  A    between atoms: C_2  and  N_25
    3  A    between atoms: C_6  and  C_15
    4  A    between atoms: C_6  and  C_23
    5  A    between atoms: C_15  and  C_21
    6  A    between atoms: C_21  and  N_25
                            x       y       z     vdW  Elec       q    Type
                         _______ _______ _______ _____ _____    ______ ____

>  <TORSDO>
F 6

$$$$
=
 OpenBabel11052417323D

 25 27  0  0  1  0  0  0  0  0999 V2000
  188.6690  175.7270  144.7250 C   0  0  0  0  0  0  0  0  0  0  0  0
  189.6930  173.5540  145.0620 O   0  0  0  0  0  1  0  0  0  0  0  0
  189.5550  174.4800  142.8340 C   0  0  0  0  0  0  0  0  0  0  0  0
  190.1800  173.3510  142.3190 O   0  0  0  0  0  1  0  0  0  0  0  0
  188.2970  176.7590  143.8490 C   0  0  0  0  0  3  0  0  0  0  0  0
  189.1710  175.5090  141.9720 C   0  0  0  0  0  3  0  0  0  0  0  0
  188.5460  176.6520  142.4790 C   0  0  0  0  0  0  0  0  0  0  0  0
  189.3070  174.5840  144.2100 C   0  0  0  0  0  0  0  0  0  0  0  0
  188.4000  175.8400  146.2080 C   0  0  2  0  0  3  0  0  0  0  0  0
  190.7820  176.9200  146.2770 C   0  0  0  0  0  1  0  0  0  0  0  0
  187.1740  176.6410  146.4810 C   0  0  0  0  0  0  0  0  0  0  0  0
  185.1950  178.4700  147.1510 C   0  0  0  0  0  3  0  0  0  0  0  0
  187.4900  177.7660  147.1920 C   0  0  0  0  0  0  0  0  0  0  0  0
  186.5230  178.7070  147.5420 C   0  0  0  0  0  3  0  0  0  0  0  0
  184.8660  177.3100  146.4230 C   0  0  0  0  0  3  0  0  0  0  0  0
  189.4900  176.6100  147.0200 C   0  0  1  0  0  3  0  0  0  0  0  0
  188.8660  177.8400  147.5040 N   0  0  0  0  0  2  0  0  0  0  0  0
  185.8610  176.3810  146.0790 C   0  0  0  0  0  3  0  0  0  0  0  0
  188.1050  177.7380  141.5620 C   0  0  0  0  0  2  0  0  0  0  0  0
  186.9990  177.2260  140.6550 C   0  0  0  0  0  2  0  0  0  0  0  0
  185.7240  178.0250  140.8700 C   0  0  0  0  0  2  0  0  0  0  0  0
  185.1280  177.7010  142.1610 N   0  0  0  0  0  2  0  0  0  0  0  0
  184.6890  178.9450  142.7750 C   0  0  1  0  0  3  0  0  0  0  0  0
  183.5100  178.7000  143.5870 N   0  0  0  0  0  1  0  0  0  0  0  0
  185.7960  179.4890  143.6540 C   0  0  0  0  0  1  0  0  0  0  0  0
  3  8  2  0  0  0  0
  4  3  1  0  0  0  0
  5  1  2  0  0  0  0
  6  7  2  0  0  0  0
  6  3  1  0  0  0  0
  7  5  1  0  0  0  0
  8  1  1  0  0  0  0
  8  2  1  0  0  0  0
  9  1  1  6  0  0  0
  9 11  1  0  0  0  0
  9 16  1  0  0  0  0
 11 13  1  0  0  0  0
 12 14  1  0  0  0  0
 13 17  1  0  0  0  0
 13 14  2  0  0  0  0
 15 12  2  0  0  0  0
 16 10  1  6  0  0  0
 16 17  1  0  0  0  0
 18 15  1  0  0  0  0
 18 11  2  0  0  0  0
 19  7  1  0  0  0  0
 20 21  1  0  0  0  0
 20 19  1  0  0  0  0
 21 22  1  0  0  0  0
 22 23  1  0  0  0  0
 23 24  1  0  0  0  0
 23 25  1  1  0  0  0
M  END
>  <MODEL>
2

>  <REMARK>
 VINA RESULT:      -6.6      2.363      4.459
  Name = 
  6 active torsions:
  status: ('A' for Active; 'I' for Inactive)
    1  A    between atoms: C_1  and  C_3
    2  A    between atoms: C_2  and  N_25
    3  A    between atoms: C_6  and  C_15
    4  A    between atoms: C_6  and  C_23
    5  A    between atoms: C_15  and  C_21
    6  A    between atoms: C_21  and  N_25
                            x       y       z     vdW  Elec       q    Type
                         _______ _______ _______ _____ _____    ______ ____

>  <TORSDO>
F 6

$$$$
=
 OpenBabel11052417323D

 25 27  0  0  1  0  0  0  0  0999 V2000
  188.0940  177.2240  145.9530 C   0  0  0  0  0  0  0  0  0  0  0  0
  187.4780  178.2890  148.0430 O   0  0  0  0  0  1  0  0  0  0  0  0
  185.7840  177.8590  146.3730 C   0  0  0  0  0  0  0  0  0  0  0  0
  184.8180  178.4230  147.1980 O   0  0  0  0  0  1  0  0  0  0  0  0
  187.7100  176.7200  144.7000 C   0  0  0  0  0  3  0  0  0  0  0  0
  185.4170  177.3620  145.1200 C   0  0  0  0  0  3  0  0  0  0  0  0
  186.3780  176.7870  144.2850 C   0  0  0  0  0  0  0  0  0  0  0  0
  187.1200  177.7920  146.7940 C   0  0  0  0  0  0  0  0  0  0  0  0
  189.5350  177.1520  146.4050 C   0  0  2  0  0  3  0  0  0  0  0  0
  188.7940  174.8870  147.4840 C   0  0  0  0  0  1  0  0  0  0  0  0
  190.4720  177.1940  145.2470 C   0  0  0  0  0  0  0  0  0  0  0  0
  192.2990  176.8060  143.1920 C   0  0  0  0  0  3  0  0  0  0  0  0
  191.1970  176.0350  145.1800 C   0  0  0  0  0  0  0  0  0  0  0  0
  192.1190  175.8060  144.1610 C   0  0  0  0  0  3  0  0  0  0  0  0
  191.5580  178.0030  143.2610 C   0  0  0  0  0  3  0  0  0  0  0  0
  189.9390  175.8210  147.1140 C   0  0  1  0  0  3  0  0  0  0  0  0
  190.8910  175.1450  146.2350 N   0  0  0  0  0  2  0  0  0  0  0  0
  190.6310  178.2050  144.2960 C   0  0  0  0  0  3  0  0  0  0  0  0
  185.9990  176.2860  142.9360 C   0  0  0  0  0  2  0  0  0  0  0  0
  186.9020  176.9080  141.8850 C   0  0  0  0  0  2  0  0  0  0  0  0
  187.6840  175.8310  141.1510 C   0  0  0  0  0  2  0  0  0  0  0  0
  189.0160  175.6850  141.7240 N   0  0  0  0  0  2  0  0  0  0  0  0
  189.3510  174.2690  141.7200 C   0  0  1  0  0  3  0  0  0  0  0  0
  190.7210  174.0910  141.2700 N   0  0  0  0  0  1  0  0  0  0  0  0
  189.2110  173.7150  143.1230 C   0  0  0  0  0  1  0  0  0  0  0  0
  1  8  1  0  0  0  0
  3  8  2  0  0  0  0
  3  4  1  0  0  0  0
  5  1  2  0  0  0  0
  6  3  1  0  0  0  0
  7  5  1  0  0  0  0
  7  6  2  0  0  0  0
  8  2  1  0  0  0  0
  9  1  1  6  0  0  0
  9 16  1  0  0  0  0
 11  9  1  0  0  0  0
 12 15  2  0  0  0  0
 12 14  1  0  0  0  0
 13 11  1  0  0  0  0
 13 17  1  0  0  0  0
 14 13  2  0  0  0  0
 15 18  1  0  0  0  0
 16 10  1  6  0  0  0
 17 16  1  0  0  0  0
 18 11  2  0  0  0  0
 19  7  1  0  0  0  0
 20 19  1  0  0  0  0
 21 22  1  0  0  0  0
 21 20  1  0  0  0  0
 23 22  1  0  0  0  0
 23 25  1  1  0  0  0
 24 23  1  0  0  0  0
M  END
>  <MODEL>
3

>  <REMARK>
 VINA RESULT:      -6.5      2.035      4.698
  Name = 
  6 active torsions:
  status: ('A' for Active; 'I' for Inactive)
    1  A    between atoms: C_1  and  C_3
    2  A    between atoms: C_2  and  N_25
    3  A    between atoms: C_6  and  C_15
    4  A    between atoms: C_6  and  C_23
    5  A    between atoms: C_15  and  C_21
    6  A    between atoms: C_21  and  N_25
                            x       y       z     vdW  Elec       q    Type
                         _______ _______ _______ _____ _____    ______ ____

>  <TORSDO>
F 6

$$$$
=
 OpenBabel11052417323D

 25 27  0  0  1  0  0  0  0  0999 V2000
  189.4560  176.4620  144.7630 C   0  0  0  0  0  0  0  0  0  0  0  0
  191.7540  176.7630  145.4800 O   0  0  0  0  0  1  0  0  0  0  0  0
  189.9560  177.0400  147.0710 C   0  0  0  0  0  0  0  0  0  0  0  0
  190.8760  177.3340  148.0700 O   0  0  0  0  0  1  0  0  0  0  0  0
  188.0880  176.4500  145.0800 C   0  0  0  0  0  3  0  0  0  0  0  0
  188.5920  177.0340  147.3720 C   0  0  0  0  0  3  0  0  0  0  0  0
  187.6570  176.7330  146.3770 C   0  0  0  0  0  0  0  0  0  0  0  0
  190.3930  176.7550  145.7700 C   0  0  0  0  0  0  0  0  0  0  0  0
  189.9260  176.1560  143.3590 C   0  0  2  0  0  3  0  0  0  0  0  0
  189.8810  173.6730  144.1820 C   0  0  0  0  0  1  0  0  0  0  0  0
  188.9610  176.6560  142.3390 C   0  0  0  0  0  0  0  0  0  0  0  0
  187.0610  177.1210  140.3690 C   0  0  0  0  0  3  0  0  0  0  0  0
  188.4510  175.6130  141.6150 C   0  0  0  0  0  0  0  0  0  0  0  0
  187.4940  175.8100  140.6220 C   0  0  0  0  0  3  0  0  0  0  0  0
  187.5870  178.1980  141.1090 C   0  0  0  0  0  3  0  0  0  0  0  0
  190.0220  174.6360  143.0110 C   0  0  1  0  0  3  0  0  0  0  0  0
  189.0010  174.3690  141.9990 N   0  0  0  0  0  2  0  0  0  0  0  0
  188.5470  177.9700  142.1090 C   0  0  0  0  0  3  0  0  0  0  0  0
  186.2010  176.7560  146.6820 C   0  0  0  0  0  2  0  0  0  0  0  0
  185.8410  178.0640  147.3660 C   0  0  0  0  0  2  0  0  0  0  0  0
  185.4720  179.1190  146.3360 C   0  0  0  0  0  2  0  0  0  0  0  0
  184.2490  178.7460  145.6360 N   0  0  0  0  0  2  0  0  0  0  0  0
  184.4090  179.1060  144.2350 C   0  0  1  0  0  3  0  0  0  0  0  0
  185.4900  180.0650  144.0970 N   0  0  0  0  0  1  0  0  0  0  0  0
  184.7380  177.8640  143.4320 C   0  0  0  0  0  1  0  0  0  0  0  0
  1  5  2  0  0  0  0
  1  8  1  0  0  0  0
  2  8  1  0  0  0  0
  3  6  1  0  0  0  0
  3  4  1  0  0  0  0
  5  7  1  0  0  0  0
  7 19  1  0  0  0  0
  7  6  2  0  0  0  0
  8  3  2  0  0  0  0
  9  1  1  1  0  0  0
 11  9  1  0  0  0  0
 12 14  2  0  0  0  0
 12 15  1  0  0  0  0
 13 17  1  0  0  0  0
 13 11  2  0  0  0  0
 14 13  1  0  0  0  0
 15 18  2  0  0  0  0
 16  9  1  0  0  0  0
 16 10  1  1  0  0  0
 17 16  1  0  0  0  0
 18 11  1  0  0  0  0
 19 20  1  0  0  0  0
 21 20  1  0  0  0  0
 22 21  1  0  0  0  0
 23 25  1  6  0  0  0
 23 22  1  0  0  0  0
 24 23  1  0  0  0  0
M  END
>  <MODEL>
4

>  <REMARK>
 VINA RESULT:      -6.5      1.632      5.074
  Name = 
  6 active torsions:
  status: ('A' for Active; 'I' for Inactive)
    1  A    between atoms: C_1  and  C_3
    2  A    between atoms: C_2  and  N_25
    3  A    between atoms: C_6  and  C_15
    4  A    between atoms: C_6  and  C_23
    5  A    between atoms: C_15  and  C_21
    6  A    between atoms: C_21  and  N_25
                            x       y       z     vdW  Elec       q    Type
                         _______ _______ _______ _____ _____    ______ ____

>  <TORSDO>
F 6

$$$$
=
 OpenBabel11052417323D

 25 27  0  0  1  0  0  0  0  0999 V2000
  187.3970  176.6270  142.4460 C   0  0  0  0  0  0  0  0  0  0  0  0
  186.8910  177.4570  140.2240 O   0  0  0  0  0  1  0  0  0  0  0  0
  185.3260  177.8300  142.0270 C   0  0  0  0  0  0  0  0  0  0  0  0
  184.4720  178.4980  141.1570 O   0  0  0  0  0  1  0  0  0  0  0  0
  187.0280  176.4930  143.7940 C   0  0  0  0  0  3  0  0  0  0  0  0
  184.9650  177.6820  143.3680 C   0  0  0  0  0  3  0  0  0  0  0  0
  185.8180  177.0190  144.2540 C   0  0  0  0  0  0  0  0  0  0  0  0
  186.5400  177.3050  141.5620 C   0  0  0  0  0  0  0  0  0  0  0  0
  188.7060  176.0590  141.9450 C   0  0  2  0  0  3  0  0  0  0  0  0
  189.7640  178.0120  143.3270 C   0  0  0  0  0  1  0  0  0  0  0  0
  188.8750  174.6360  142.3530 C   0  0  0  0  0  0  0  0  0  0  0  0
  189.5280  172.1550  143.4130 C   0  0  0  0  0  3  0  0  0  0  0  0
  189.9660  174.5010  143.1670 C   0  0  0  0  0  0  0  0  0  0  0  0
  190.3210  173.2720  143.7190 C   0  0  0  0  0  3  0  0  0  0  0  0
  188.4060  172.2880  142.5710 C   0  0  0  0  0  3  0  0  0  0  0  0
  189.9860  176.7310  142.5360 C   0  0  1  0  0  3  0  0  0  0  0  0
  190.6480  175.7230  143.3630 N   0  0  0  0  0  2  0  0  0  0  0  0
  188.0690  173.5410  142.0330 C   0  0  0  0  0  3  0  0  0  0  0  0
  185.4260  176.8290  145.6770 C   0  0  0  0  0  2  0  0  0  0  0  0
  186.3020  177.6900  146.5700 C   0  0  0  0  0  2  0  0  0  0  0  0
  187.4120  176.8560  147.1890 C   0  0  0  0  0  2  0  0  0  0  0  0
  188.7150  177.4370  146.8920 N   0  0  0  0  0  2  0  0  0  0  0  0
  189.6540  176.3440  146.6870 C   0  0  1  0  0  3  0  0  0  0  0  0
  190.7330  176.4390  147.6560 N   0  0  0  0  0  1  0  0  0  0  0  0
  188.9360  175.0230  146.8690 C   0  0  0  0  0  1  0  0  0  0  0  0
  1  5  1  0  0  0  0
  2  8  1  0  0  0  0
  3  6  2  0  0  0  0
  4  3  1  0  0  0  0
  5  7  2  0  0  0  0
  6  7  1  0  0  0  0
  7 19  1  0  0  0  0
  8  3  1  0  0  0  0
  8  1  2  0  0  0  0
  9 11  1  0  0  0  0
  9  1  1  1  0  0  0
  9 16  1  0  0  0  0
 11 13  1  0  0  0  0
 12 14  1  0  0  0  0
 13 17  1  0  0  0  0
 13 14  2  0  0  0  0
 15 12  2  0  0  0  0
 16 10  1  1  0  0  0
 16 17  1  0  0  0  0
 18 11  2  0  0  0  0
 18 15  1  0  0  0  0
 19 20  1  0  0  0  0
 20 21  1  0  0  0  0
 22 21  1  0  0  0  0
 23 25  1  1  0  0  0
 23 22  1  0  0  0  0
 23 24  1  0  0  0  0
M  END
>  <MODEL>
5

>  <REMARK>
 VINA RESULT:      -6.3      2.950      6.050
  Name = 
  6 active torsions:
  status: ('A' for Active; 'I' for Inactive)
    1  A    between atoms: C_1  and  C_3
    2  A    between atoms: C_2  and  N_25
    3  A    between atoms: C_6  and  C_15
    4  A    between atoms: C_6  and  C_23
    5  A    between atoms: C_15  and  C_21
    6  A    between atoms: C_21  and  N_25
                            x       y       z     vdW  Elec       q    Type
                         _______ _______ _______ _____ _____    ______ ____

>  <TORSDO>
F 6

$$$$
=
 OpenBabel11052417323D

 25 27  0  0  1  0  0  0  0  0999 V2000
  189.9370  175.2320  145.6250 C   0  0  0  0  0  0  0  0  0  0  0  0
  188.8850  174.5350  147.6970 O   0  0  0  0  0  1  0  0  0  0  0  0
  187.8690  176.2770  146.3650 C   0  0  0  0  0  0  0  0  0  0  0  0
  186.8420  176.3970  147.2930 O   0  0  0  0  0  1  0  0  0  0  0  0
  189.9250  176.0530  144.4860 C   0  0  0  0  0  3  0  0  0  0  0  0
  187.8740  177.0940  145.2320 C   0  0  0  0  0  3  0  0  0  0  0  0
  188.8990  176.9790  144.2890 C   0  0  0  0  0  0  0  0  0  0  0  0
  188.8980  175.3450  146.5660 C   0  0  0  0  0  0  0  0  0  0  0  0
  191.0470  174.2280  145.8410 C   0  0  2  0  0  3  0  0  0  0  0  0
  190.0730  173.1030  143.6900 C   0  0  0  0  0  1  0  0  0  0  0  0
  192.3850  174.8850  145.8400 C   0  0  0  0  0  0  0  0  0  0  0  0
  194.9370  175.8900  145.4090 C   0  0  0  0  0  3  0  0  0  0  0  0
  193.1450  174.4110  144.8060 C   0  0  0  0  0  0  0  0  0  0  0  0
  194.4280  174.8950  144.5590 C   0  0  0  0  0  3  0  0  0  0  0  0
  194.1580  176.3770  146.4780 C   0  0  0  0  0  3  0  0  0  0  0  0
  191.1980  173.1580  144.7140 C   0  0  1  0  0  3  0  0  0  0  0  0
  192.4790  173.4140  144.0580 N   0  0  0  0  0  2  0  0  0  0  0  0
  192.8660  175.8750  146.7000 C   0  0  0  0  0  3  0  0  0  0  0  0
  188.9270  177.8690  143.0970 C   0  0  0  0  0  2  0  0  0  0  0  0
  188.3300  177.1460  141.9020 C   0  0  0  0  0  2  0  0  0  0  0  0
  186.9020  177.6080  141.6610 C   0  0  0  0  0  2  0  0  0  0  0  0
  186.6650  178.8960  142.3010 N   0  0  0  0  0  2  0  0  0  0  0  0
  185.3350  178.8640  142.8900 C   0  0  1  0  0  3  0  0  0  0  0  0
  184.9590  177.4900  143.1750 N   0  0  0  0  0  1  0  0  0  0  0  0
  185.3370  179.6580  144.1810 C   0  0  0  0  0  1  0  0  0  0  0  0
  1  8  1  0  0  0  0
  3  8  2  0  0  0  0
  3  4  1  0  0  0  0
  5  1  2  0  0  0  0
  6  3  1  0  0  0  0
  7  5  1  0  0  0  0
  7  6  2  0  0  0  0
  8  2  1  0  0  0  0
  9  1  1  6  0  0  0
 11  9  1  0  0  0  0
 11 18  1  0  0  0  0
 12 15  1  0  0  0  0
 13 11  2  0  0  0  0
 14 13  1  0  0  0  0
 14 12  2  0  0  0  0
 15 18  2  0  0  0  0
 16 10  1  6  0  0  0
 16  9  1  0  0  0  0
 17 16  1  0  0  0  0
 17 13  1  0  0  0  0
 19  7  1  0  0  0  0
 20 19  1  0  0  0  0
 21 20  1  0  0  0  0
 21 22  1  0  0  0  0
 22 23  1  0  0  0  0
 23 24  1  0  0  0  0
 23 25  1  1  0  0  0
M  END
>  <MODEL>
6

>  <REMARK>
 VINA RESULT:      -6.3      2.376      6.188
  Name = 
  6 active torsions:
  status: ('A' for Active; 'I' for Inactive)
    1  A    between atoms: C_1  and  C_3
    2  A    between atoms: C_2  and  N_25
    3  A    between atoms: C_6  and  C_15
    4  A    between atoms: C_6  and  C_23
    5  A    between atoms: C_15  and  C_21
    6  A    between atoms: C_21  and  N_25
                            x       y       z     vdW  Elec       q    Type
                         _______ _______ _______ _____ _____    ______ ____

>  <TORSDO>
F 6

$$$$
=
 OpenBabel11052417323D

 25 27  0  0  1  0  0  0  0  0999 V2000
  188.3980  177.1630  146.2980 C   0  0  0  0  0  0  0  0  0  0  0  0
  188.4190  178.4960  148.3250 O   0  0  0  0  0  1  0  0  0  0  0  0
  186.3780  178.2910  147.0470 C   0  0  0  0  0  0  0  0  0  0  0  0
  185.7170  179.1060  147.9580 O   0  0  0  0  0  1  0  0  0  0  0  0
  187.6870  176.6500  145.2030 C   0  0  0  0  0  3  0  0  0  0  0  0
  185.6830  177.7820  145.9470 C   0  0  0  0  0  3  0  0  0  0  0  0
  186.3360  176.9560  145.0270 C   0  0  0  0  0  0  0  0  0  0  0  0
  187.7340  177.9840  147.2270 C   0  0  0  0  0  0  0  0  0  0  0  0
  189.8620  176.8330  146.4910 C   0  0  2  0  0  3  0  0  0  0  0  0
  188.9410  174.5900  147.4730 C   0  0  0  0  0  1  0  0  0  0  0  0
  190.6040  176.8720  145.2000 C   0  0  0  0  0  0  0  0  0  0  0  0
  192.0070  176.4630  142.8390 C   0  0  0  0  0  3  0  0  0  0  0  0
  191.1140  175.6360  144.9080 C   0  0  0  0  0  0  0  0  0  0  0  0
  191.8200  175.3950  143.7310 C   0  0  0  0  0  3  0  0  0  0  0  0
  191.4880  177.7380  143.1390 C   0  0  0  0  0  3  0  0  0  0  0  0
  190.1510  175.3860  147.0000 C   0  0  1  0  0  3  0  0  0  0  0  0
  190.8350  174.6850  145.9150 N   0  0  0  0  0  2  0  0  0  0  0  0
  190.7760  177.9520  144.3300 C   0  0  0  0  0  3  0  0  0  0  0  0
  185.6110  176.4370  143.8360 C   0  0  0  0  0  2  0  0  0  0  0  0
  184.9460  177.5860  143.0980 C   0  0  0  0  0  2  0  0  0  0  0  0
  185.9000  178.1830  142.0760 C   0  0  0  0  0  2  0  0  0  0  0  0
  186.3370  177.1660  141.1280 N   0  0  0  0  0  2  0  0  0  0  0  0
  187.7920  177.1920  141.0850 C   0  0  1  0  0  3  0  0  0  0  0  0
  188.2850  178.2950  141.8910 N   0  0  0  0  0  1  0  0  0  0  0  0
  188.3350  175.8890  141.6360 C   0  0  0  0  0  1  0  0  0  0  0  0
  1  8  1  0  0  0  0
  3  8  2  0  0  0  0
  3  4  1  0  0  0  0
  5  1  2  0  0  0  0
  6  3  1  0  0  0  0
  7  5  1  0  0  0  0
  7  6  2  0  0  0  0
  8  2  1  0  0  0  0
  9  1  1  6  0  0  0
  9 16  1  0  0  0  0
 11  9  1  0  0  0  0
 12 15  2  0  0  0  0
 12 14  1  0  0  0  0
 13 11  1  0  0  0  0
 13 17  1  0  0  0  0
 14 13  2  0  0  0  0
 15 18  1  0  0  0  0
 16 10  1  6  0  0  0
 17 16  1  0  0  0  0
 18 11  2  0  0  0  0
 19  7  1  0  0  0  0
 20 19  1  0  0  0  0
 21 20  1  0  0  0  0
 22 21  1  0  0  0  0
 23 22  1  0  0  0  0
 23 25  1  1  0  0  0
 23 24  1  0  0  0  0
M  END
>  <MODEL>
7

>  <REMARK>
 VINA RESULT:      -6.3      2.083      5.015
  Name = 
  6 active torsions:
  status: ('A' for Active; 'I' for Inactive)
    1  A    between atoms: C_1  and  C_3
    2  A    between atoms: C_2  and  N_25
    3  A    between atoms: C_6  and  C_15
    4  A    between atoms: C_6  and  C_23
    5  A    between atoms: C_15  and  C_21
    6  A    between atoms: C_21  and  N_25
                            x       y       z     vdW  Elec       q    Type
                         _______ _______ _______ _____ _____    ______ ____

>  <TORSDO>
F 6

$$$$
=
 OpenBabel11052417323D

 25 27  0  0  1  0  0  0  0  0999 V2000
  187.8240  176.7770  146.0430 C   0  0  0  0  0  0  0  0  0  0  0  0
  187.8180  175.2000  147.8860 O   0  0  0  0  0  1  0  0  0  0  0  0
  189.9170  175.8990  146.9140 C   0  0  0  0  0  0  0  0  0  0  0  0
  190.6090  175.0860  147.8040 O   0  0  0  0  0  1  0  0  0  0  0  0
  188.5490  177.5400  145.1140 C   0  0  0  0  0  3  0  0  0  0  0  0
  190.6270  176.6550  145.9780 C   0  0  0  0  0  3  0  0  0  0  0  0
  189.9440  177.4810  145.0810 C   0  0  0  0  0  0  0  0  0  0  0  0
  188.5170  175.9570  146.9510 C   0  0  0  0  0  0  0  0  0  0  0  0
  186.3140  176.8390  146.0810 C   0  0  2  0  0  3  0  0  0  0  0  0
  186.7100  178.5760  147.9970 C   0  0  0  0  0  1  0  0  0  0  0  0
  185.7510  177.2480  144.7630 C   0  0  0  0  0  0  0  0  0  0  0  0
  184.5970  178.4260  142.5300 C   0  0  0  0  0  3  0  0  0  0  0  0
  185.0760  178.4330  144.8810 C   0  0  0  0  0  0  0  0  0  0  0  0
  184.4880  179.0530  143.7810 C   0  0  0  0  0  3  0  0  0  0  0  0
  185.2860  177.2040  142.4050 C   0  0  0  0  0  3  0  0  0  0  0  0
  185.7210  177.9150  147.0460 C   0  0  1  0  0  3  0  0  0  0  0  0
  185.0630  178.9170  146.2090 N   0  0  0  0  0  2  0  0  0  0  0  0
  185.8740  176.6030  143.5300 C   0  0  0  0  0  3  0  0  0  0  0  0
  190.6920  178.2640  144.0610 C   0  0  0  0  0  2  0  0  0  0  0  0
  190.8280  177.4480  142.7860 C   0  0  0  0  0  2  0  0  0  0  0  0
  192.1640  176.7230  142.7600 C   0  0  0  0  0  2  0  0  0  0  0  0
  191.9650  175.2810  142.8430 N   0  0  0  0  0  2  0  0  0  0  0  0
  193.0460  174.7270  143.6440 C   0  0  1  0  0  3  0  0  0  0  0  0
  193.7620  175.8010  144.3100 N   0  0  0  0  0  1  0  0  0  0  0  0
  192.4690  173.7910  144.6870 C   0  0  0  0  0  1  0  0  0  0  0  0
  1  8  1  0  0  0  0
  3  8  2  0  0  0  0
  3  4  1  0  0  0  0
  5  1  2  0  0  0  0
  6  3  1  0  0  0  0
  7  5  1  0  0  0  0
  7  6  2  0  0  0  0
  8  2  1  0  0  0  0
  9  1  1  6  0  0  0
  9 16  1  0  0  0  0
 11 13  1  0  0  0  0
 11  9  1  0  0  0  0
 12 14  1  0  0  0  0
 13 17  1  0  0  0  0
 14 13  2  0  0  0  0
 15 12  2  0  0  0  0
 15 18  1  0  0  0  0
 16 10  1  6  0  0  0
 17 16  1  0  0  0  0
 18 11  2  0  0  0  0
 19  7  1  0  0  0  0
 20 19  1  0  0  0  0
 21 20  1  0  0  0  0
 21 22  1  0  0  0  0
 22 23  1  0  0  0  0
 23 24  1  0  0  0  0
 23 25  1  1  0  0  0
M  END
>  <MODEL>
8

>  <REMARK>
 VINA RESULT:      -6.3      1.156      1.589
  Name = 
  6 active torsions:
  status: ('A' for Active; 'I' for Inactive)
    1  A    between atoms: C_1  and  C_3
    2  A    between atoms: C_2  and  N_25
    3  A    between atoms: C_6  and  C_15
    4  A    between atoms: C_6  and  C_23
    5  A    between atoms: C_15  and  C_21
    6  A    between atoms: C_21  and  N_25
                            x       y       z     vdW  Elec       q    Type
                         _______ _______ _______ _____ _____    ______ ____

>  <TORSDO>
F 6

$$$$
=
 OpenBabel11052417323D

 25 27  0  0  1  0  0  0  0  0999 V2000
  187.6260  177.3480  143.5120 C   0  0  0  0  0  0  0  0  0  0  0  0
  186.2350  179.2810  143.0490 O   0  0  0  0  0  1  0  0  0  0  0  0
  186.5620  177.6030  141.3410 C   0  0  0  0  0  0  0  0  0  0  0  0
  185.7560  178.3230  140.4680 O   0  0  0  0  0  1  0  0  0  0  0  0
  188.1850  176.1350  143.0780 C   0  0  0  0  0  3  0  0  0  0  0  0
  187.1310  176.3990  140.9180 C   0  0  0  0  0  3  0  0  0  0  0  0
  187.9380  175.6610  141.7880 C   0  0  0  0  0  0  0  0  0  0  0  0
  186.8060  178.0810  142.6360 C   0  0  0  0  0  0  0  0  0  0  0  0
  187.8910  177.8640  144.9090 C   0  0  2  0  0  3  0  0  0  0  0  0
  185.5700  176.7860  145.4490 C   0  0  0  0  0  1  0  0  0  0  0  0
  189.1570  177.3070  145.4650 C   0  0  0  0  0  0  0  0  0  0  0  0
  191.2250  176.0140  146.7900 C   0  0  0  0  0  3  0  0  0  0  0  0
  188.8970  176.5550  146.5770 C   0  0  0  0  0  0  0  0  0  0  0  0
  189.9100  175.8890  147.2650 C   0  0  0  0  0  3  0  0  0  0  0  0
  191.4980  176.7910  145.6470 C   0  0  0  0  0  3  0  0  0  0  0  0
  186.8390  177.4370  145.9810 C   0  0  1  0  0  3  0  0  0  0  0  0
  187.5240  176.5440  146.9140 N   0  0  0  0  0  2  0  0  0  0  0  0
  190.4560  177.4470  144.9710 C   0  0  0  0  0  3  0  0  0  0  0  0
  188.5730  174.3950  141.3340 C   0  0  0  0  0  2  0  0  0  0  0  0
  187.9050  173.2120  142.0130 C   0  0  0  0  0  2  0  0  0  0  0  0
  188.9430  172.3310  142.6880 C   0  0  0  0  0  2  0  0  0  0  0  0
  190.2880  172.8300  142.4250 N   0  0  0  0  0  2  0  0  0  0  0  0
  191.0160  172.8360  143.6840 C   0  0  1  0  0  3  0  0  0  0  0  0
  192.0440  173.8620  143.6500 N   0  0  0  0  0  1  0  0  0  0  0  0
  190.0560  173.1290  144.8190 C   0  0  0  0  0  1  0  0  0  0  0  0
  3  8  1  0  0  0  0
  4  3  1  0  0  0  0
  5  1  1  0  0  0  0
  6  3  2  0  0  0  0
  6  7  1  0  0  0  0
  7  5  2  0  0  0  0
  8  2  1  0  0  0  0
  8  1  2  0  0  0  0
  9  1  1  6  0  0  0
  9 11  1  0  0  0  0
  9 16  1  0  0  0  0
 11 13  1  0  0  0  0
 12 14  1  0  0  0  0
 13 17  1  0  0  0  0
 13 14  2  0  0  0  0
 15 12  2  0  0  0  0
 16 10  1  6  0  0  0
 16 17  1  0  0  0  0
 18 11  2  0  0  0  0
 18 15  1  0  0  0  0
 19  7  1  0  0  0  0
 19 20  1  0  0  0  0
 20 21  1  0  0  0  0
 22 21  1  0  0  0  0
 22 23  1  0  0  0  0
 23 25  1  1  0  0  0
 24 23  1  0  0  0  0
M  END
>  <MODEL>
9

>  <REMARK>
 VINA RESULT:      -6.2      2.703      5.069
  Name = 
  6 active torsions:
  status: ('A' for Active; 'I' for Inactive)
    1  A    between atoms: C_1  and  C_3
    2  A    between atoms: C_2  and  N_25
    3  A    between atoms: C_6  and  C_15
    4  A    between atoms: C_6  and  C_23
    5  A    between atoms: C_15  and  C_21
    6  A    between atoms: C_21  and  N_25
                            x       y       z     vdW  Elec       q    Type
                         _______ _______ _______ _____ _____    ______ ____

>  <TORSDO>
F 6

$$$$
