=
 OpenBabel11052417233D

 30 32  0  0  1  0  0  0  0  0999 V2000
  189.4760  176.4640  146.7670 C   0  0  2  0  0  3  0  0  0  0  0  0
  191.4360  174.9510  146.5380 C   0  0  0  0  0  3  0  0  0  0  0  0
  190.8530  174.4400  142.3720 N   0  0  0  0  0  2  0  0  0  0  0  0
  189.6950  177.4230  143.2660 O   0  0  0  0  0  1  0  0  0  0  0  0
  188.0090  176.0630  146.6010 C   0  0  0  0  0  2  0  0  0  0  0  0
  186.0410  178.4330  145.9930 C   0  0  2  0  0  3  0  0  0  0  0  0
  186.8400  178.2250  147.2760 C   0  0  0  0  0  2  0  0  0  0  0  0
  185.8920  176.0710  147.6870 F   0  0  0  0  0  0  0  0  0  0  0  0
  187.2690  175.9340  142.0000 C   0  0  2  0  0  3  0  0  0  0  0  0
  189.6140  174.8340  141.7740 C   0  0  0  0  0  0  0  0  0  0  0  0
  187.0920  176.7520  147.6060 C   0  0  1  0  0  3  0  0  0  0  0  0
  186.9940  178.4600  144.8010 C   0  0  0  0  0  2  0  0  0  0  0  0
  192.3180  174.1620  145.7980 C   0  0  0  0  0  3  0  0  0  0  0  0
  186.1050  176.0870  143.0020 C   0  0  0  0  0  2  0  0  0  0  0  0
  185.3040  179.7550  146.0990 C   0  0  0  0  0  1  0  0  0  0  0  0
  189.6660  177.8110  146.4530 O   0  0  0  0  0  1  0  0  0  0  0  0
  191.0830  174.6580  143.7740 C   0  0  0  0  0  0  0  0  0  0  0  0
  192.1450  174.0120  144.4210 C   0  0  0  0  0  0  0  0  0  0  0  0
  186.2860  178.6180  143.4580 C   0  0  0  0  0  2  0  0  0  0  0  0
  190.3730  175.6110  145.9130 C   0  0  0  0  0  0  0  0  0  0  0  0
  189.1380  176.2520  143.7840 C   0  0  1  0  0  3  0  0  0  0  0  0
  189.4180  174.6490  140.5430 O   0  0  0  0  0  0  0  0  0  0  0  0
  188.5390  175.3900  142.6680 C   0  0  1  0  0  3  0  0  0  0  0  0
  184.5510  177.7340  141.8820 C   0  0  0  0  0  1  0  0  0  0  0  0
  193.0230  173.2090  143.7020 O   0  0  0  0  0  1  0  0  0  0  0  0
  190.2040  175.4800  144.5150 C   0  0  0  0  0  0  0  0  0  0  0  0
  185.3840  177.4370  143.1150 C   0  0  1  0  0  3  0  0  0  0  0  0
  187.4450  176.9780  140.9330 C   0  0  0  0  0  0  0  0  0  0  0  0
  186.8350  176.7870  139.6620 N   0  0  0  0  0  1  0  0  0  0  0  0
  188.1160  178.0220  141.1470 O   0  0  0  0  0  0  0  0  0  0  0  0
  1 16  1  6  0  0  0
  3 17  1  0  0  0  0
  5  1  1  0  0  0  0
  5 11  1  0  0  0  0
  6 15  1  1  0  0  0
  6  7  1  0  0  0  0
  7 11  1  0  0  0  0
  9 28  1  1  0  0  0
  9 23  1  0  0  0  0
  9 14  1  0  0  0  0
 10  3  1  0  0  0  0
 11  8  1  6  0  0  0
 12  6  1  0  0  0  0
 13  2  2  0  0  0  0
 14 27  1  0  0  0  0
 17 18  2  0  0  0  0
 17 26  1  0  0  0  0
 18 13  1  0  0  0  0
 19 12  1  0  0  0  0
 20  2  1  0  0  0  0
 20  1  1  0  0  0  0
 21  4  1  6  0  0  0
 21 26  1  0  0  0  0
 22 10  2  0  0  0  0
 23 10  1  6  0  0  0
 23 21  1  0  0  0  0
 25 18  1  0  0  0  0
 26 20  2  0  0  0  0
 27 24  1  6  0  0  0
 27 19  1  0  0  0  0
 28 30  2  0  0  0  0
 29 28  1  0  0  0  0
M  END
>  <MODEL>
1

>  <REMARK>
 VINA RESULT:      -8.2      0.000      0.000
  Name = 
  1 active torsions:
  status: ('A' for Active; 'I' for Inactive)
    1  A    between atoms: C_7  and  C_10
                            x       y       z     vdW  Elec       q    Type
                         _______ _______ _______ _____ _____    ______ ____

>  <TORSDO>
F 1

$$$$
=
 OpenBabel11052417233D

 30 32  0  0  1  0  0  0  0  0999 V2000
  187.9340  175.6470  142.7410 C   0  0  2  0  0  3  0  0  0  0  0  0
  186.3500  176.7640  144.2990 C   0  0  0  0  0  3  0  0  0  0  0  0
  189.3400  177.4520  147.2200 N   0  0  0  0  0  2  0  0  0  0  0  0
  190.7590  177.3990  144.2170 O   0  0  0  0  0  1  0  0  0  0  0  0
  188.6100  174.2940  142.9660 C   0  0  0  0  0  2  0  0  0  0  0  0
  191.2070  173.8030  141.2700 C   0  0  2  0  0  3  0  0  0  0  0  0
  189.7890  173.9660  140.7310 C   0  0  0  0  0  2  0  0  0  0  0  0
  188.9370  172.1390  142.0130 F   0  0  0  0  0  0  0  0  0  0  0  0
  192.1760  175.1520  145.8450 C   0  0  2  0  0  3  0  0  0  0  0  0
  190.5920  176.7630  147.1330 C   0  0  0  0  0  0  0  0  0  0  0  0
  188.7080  173.4640  141.6910 C   0  0  1  0  0  3  0  0  0  0  0  0
  191.5700  175.0210  142.1150 C   0  0  0  0  0  2  0  0  0  0  0  0
  186.0340  177.4350  145.4820 C   0  0  0  0  0  3  0  0  0  0  0  0
  192.1420  173.8930  144.9540 C   0  0  0  0  0  2  0  0  0  0  0  0
  192.1550  173.6870  140.0910 C   0  0  0  0  0  1  0  0  0  0  0  0
  188.7130  176.4680  141.9230 O   0  0  0  0  0  1  0  0  0  0  0  0
  188.3390  177.2680  146.2070 C   0  0  0  0  0  0  0  0  0  0  0  0
  187.0220  177.6870  146.4360 C   0  0  0  0  0  0  0  0  0  0  0  0
  192.9590  174.9350  142.7410 C   0  0  0  0  0  2  0  0  0  0  0  0
  187.6590  176.3430  144.0450 C   0  0  0  0  0  0  0  0  0  0  0  0
  190.1100  176.2710  144.7240 C   0  0  1  0  0  3  0  0  0  0  0  0
  191.4720  176.9330  148.0190 O   0  0  0  0  0  0  0  0  0  0  0  0
  190.7850  175.7820  146.0090 C   0  0  1  0  0  3  0  0  0  0  0  0
  194.5330  173.6270  144.1860 C   0  0  0  0  0  1  0  0  0  0  0  0
  186.6860  178.3410  147.6140 O   0  0  0  0  0  1  0  0  0  0  0  0
  188.6690  176.6130  144.9980 C   0  0  0  0  0  0  0  0  0  0  0  0
  193.0910  173.7990  143.7510 C   0  0  1  0  0  3  0  0  0  0  0  0
  193.3460  176.0880  145.7300 C   0  0  0  0  0  0  0  0  0  0  0  0
  194.4700  175.9070  146.5840 N   0  0  0  0  0  1  0  0  0  0  0  0
  193.3530  177.0220  144.8860 O   0  0  0  0  0  0  0  0  0  0  0  0
  1 16  1  6  0  0  0
  1  5  1  0  0  0  0
  1 20  1  0  0  0  0
  2 13  1  0  0  0  0
  6 15  1  6  0  0  0
  6 12  1  0  0  0  0
  7  6  1  0  0  0  0
  7 11  1  0  0  0  0
  9 28  1  6  0  0  0
  9 23  1  0  0  0  0
 10  3  1  0  0  0  0
 10 22  2  0  0  0  0
 11  8  1  1  0  0  0
 11  5  1  0  0  0  0
 12 19  1  0  0  0  0
 13 18  2  0  0  0  0
 14  9  1  0  0  0  0
 17 18  1  0  0  0  0
 17  3  1  0  0  0  0
 18 25  1  0  0  0  0
 19 27  1  0  0  0  0
 20  2  2  0  0  0  0
 20 26  1  0  0  0  0
 21  4  1  1  0  0  0
 21 26  1  0  0  0  0
 21 23  1  0  0  0  0
 23 10  1  1  0  0  0
 26 17  2  0  0  0  0
 27 24  1  1  0  0  0
 27 14  1  0  0  0  0
 28 29  1  0  0  0  0
 30 28  2  0  0  0  0
M  END
>  <MODEL>
2

>  <REMARK>
 VINA RESULT:      -8.1      2.826      6.855
  Name = 
  1 active torsions:
  status: ('A' for Active; 'I' for Inactive)
    1  A    between atoms: C_7  and  C_10
                            x       y       z     vdW  Elec       q    Type
                         _______ _______ _______ _____ _____    ______ ____

>  <TORSDO>
F 1

$$$$
=
 OpenBabel11052417233D

 30 32  0  0  1  0  0  0  0  0999 V2000
  187.0540  176.1510  141.6570 C   0  0  2  0  0  3  0  0  0  0  0  0
  185.0170  177.4230  142.3010 C   0  0  0  0  0  3  0  0  0  0  0  0
  186.4700  178.2390  146.1970 N   0  0  0  0  0  2  0  0  0  0  0  0
  189.0490  177.9250  144.1270 O   0  0  0  0  0  1  0  0  0  0  0  0
  187.4850  174.7990  142.2290 C   0  0  0  0  0  2  0  0  0  0  0  0
  190.5290  174.1130  141.8720 C   0  0  2  0  0  3  0  0  0  0  0  0
  189.4990  174.2750  140.7580 C   0  0  0  0  0  2  0  0  0  0  0  0
  188.0710  172.5720  141.6320 F   0  0  0  0  0  0  0  0  0  0  0  0
  189.4830  175.7650  146.3290 C   0  0  2  0  0  3  0  0  0  0  0  0
  187.5920  177.5100  146.7040 C   0  0  0  0  0  0  0  0  0  0  0  0
  188.0810  173.8760  141.1720 C   0  0  1  0  0  3  0  0  0  0  0  0
  190.5570  175.3780  142.7240 C   0  0  0  0  0  2  0  0  0  0  0  0
  184.2560  178.1880  143.1880 C   0  0  0  0  0  3  0  0  0  0  0  0
  189.7680  174.4460  145.5820 C   0  0  0  0  0  2  0  0  0  0  0  0
  191.8870  173.8830  141.2360 C   0  0  0  0  0  1  0  0  0  0  0  0
  188.1580  176.8870  141.2210 O   0  0  0  0  0  1  0  0  0  0  0  0
  186.0010  178.0100  144.8580 C   0  0  0  0  0  0  0  0  0  0  0  0
  184.7420  178.4810  144.4630 C   0  0  0  0  0  0  0  0  0  0  0  0
  191.5270  175.2990  143.9000 C   0  0  0  0  0  2  0  0  0  0  0  0
  186.2790  176.9480  142.6700 C   0  0  0  0  0  0  0  0  0  0  0  0
  188.1810  176.8570  144.3580 C   0  0  1  0  0  3  0  0  0  0  0  0
  188.0060  177.7200  147.8750 O   0  0  0  0  0  0  0  0  0  0  0  0
  188.1990  176.4450  145.8320 C   0  0  1  0  0  3  0  0  0  0  0  0
  192.2360  174.0570  145.9560 C   0  0  0  0  0  1  0  0  0  0  0  0
  183.9650  179.2300  145.3380 O   0  0  0  0  0  1  0  0  0  0  0  0
  186.7860  177.2590  143.9530 C   0  0  0  0  0  0  0  0  0  0  0  0
  191.1400  174.2370  144.9240 C   0  0  1  0  0  3  0  0  0  0  0  0
  190.6390  176.6570  146.6890 C   0  0  0  0  0  0  0  0  0  0  0  0
  191.2010  176.5760  147.9930 N   0  0  0  0  0  1  0  0  0  0  0  0
  191.1220  177.4650  145.8540 O   0  0  0  0  0  0  0  0  0  0  0  0
  1 16  1  1  0  0  0
  1  5  1  0  0  0  0
  1 20  1  0  0  0  0
  2 20  2  0  0  0  0
  2 13  1  0  0  0  0
  3 10  1  0  0  0  0
  6 15  1  6  0  0  0
  6 12  1  0  0  0  0
  7 11  1  0  0  0  0
  7  6  1  0  0  0  0
  9 28  1  6  0  0  0
 10 22  2  0  0  0  0
 11  8  1  1  0  0  0
 11  5  1  0  0  0  0
 12 19  1  0  0  0  0
 13 18  2  0  0  0  0
 14  9  1  0  0  0  0
 17  3  1  0  0  0  0
 18 17  1  0  0  0  0
 18 25  1  0  0  0  0
 19 27  1  0  0  0  0
 20 26  1  0  0  0  0
 21  4  1  1  0  0  0
 21 23  1  0  0  0  0
 23  9  1  0  0  0  0
 23 10  1  1  0  0  0
 26 21  1  0  0  0  0
 26 17  2  0  0  0  0
 27 14  1  0  0  0  0
 27 24  1  1  0  0  0
 28 29  1  0  0  0  0
 30 28  2  0  0  0  0
M  END
>  <MODEL>
3

>  <REMARK>
 VINA RESULT:      -8.1      2.687      6.870
  Name = 
  1 active torsions:
  status: ('A' for Active; 'I' for Inactive)
    1  A    between atoms: C_7  and  C_10
                            x       y       z     vdW  Elec       q    Type
                         _______ _______ _______ _____ _____    ______ ____

>  <TORSDO>
F 1

$$$$
=
 OpenBabel11052417233D

 30 32  0  0  1  0  0  0  0  0999 V2000
  191.2050  173.9280  145.1470 C   0  0  2  0  0  3  0  0  0  0  0  0
  191.9500  172.1360  143.5930 C   0  0  0  0  0  3  0  0  0  0  0  0
  189.5820  173.5970  140.3970 N   0  0  0  0  0  2  0  0  0  0  0  0
  190.4230  176.1370  142.3660 O   0  0  0  0  0  1  0  0  0  0  0  0
  189.7950  174.0910  145.7190 C   0  0  0  0  0  2  0  0  0  0  0  0
  189.1090  176.9700  146.7700 C   0  0  2  0  0  3  0  0  0  0  0  0
  190.1560  176.0200  147.3450 C   0  0  0  0  0  2  0  0  0  0  0  0
  188.5660  174.2820  147.7470 F   0  0  0  0  0  0  0  0  0  0  0  0
  187.3080  176.1080  142.3310 C   0  0  2  0  0  3  0  0  0  0  0  0
  188.5500  174.5540  140.6570 C   0  0  0  0  0  0  0  0  0  0  0  0
  189.7980  174.5410  147.1750 C   0  0  1  0  0  3  0  0  0  0  0  0
  189.3950  177.2000  145.2890 C   0  0  0  0  0  2  0  0  0  0  0  0
  191.9800  171.5000  142.3500 C   0  0  0  0  0  3  0  0  0  0  0  0
  186.8640  176.1730  143.8070 C   0  0  0  0  0  2  0  0  0  0  0  0
  189.1900  178.2820  147.5260 C   0  0  0  0  0  1  0  0  0  0  0  0
  191.8600  175.1590  145.0670 O   0  0  0  0  0  1  0  0  0  0  0  0
  190.4270  173.1340  141.4630 C   0  0  0  0  0  0  0  0  0  0  0  0
  191.2210  171.9930  141.2870 C   0  0  0  0  0  0  0  0  0  0  0  0
  188.3730  178.1050  144.6050 C   0  0  0  0  0  2  0  0  0  0  0  0
  191.1710  173.2800  143.7910 C   0  0  0  0  0  0  0  0  0  0  0  0
  189.6440  175.0830  142.8480 C   0  0  1  0  0  3  0  0  0  0  0  0
  187.8170  174.9640  139.7180 O   0  0  0  0  0  0  0  0  0  0  0  0
  188.3220  174.9830  142.0800 C   0  0  1  0  0  3  0  0  0  0  0  0
  185.9610  178.5170  144.0680 C   0  0  0  0  0  1  0  0  0  0  0  0
  191.2490  171.3390  140.0620 O   0  0  0  0  0  1  0  0  0  0  0  0
  190.4160  173.7970  142.7120 C   0  0  0  0  0  0  0  0  0  0  0  0
  186.9720  177.5030  144.5660 C   0  0  1  0  0  3  0  0  0  0  0  0
  187.5070  177.3950  141.5790 C   0  0  0  0  0  0  0  0  0  0  0  0
  186.4420  177.9160  140.7930 N   0  0  0  0  0  1  0  0  0  0  0  0
  188.5970  178.0230  141.6400 O   0  0  0  0  0  0  0  0  0  0  0  0
  1 16  1  6  0  0  0
  1  5  1  0  0  0  0
  2 20  1  0  0  0  0
  3 10  1  0  0  0  0
  3 17  1  0  0  0  0
  5 11  1  0  0  0  0
  6  7  1  0  0  0  0
  6 15  1  1  0  0  0
  9 28  1  1  0  0  0
  9 14  1  0  0  0  0
 11  7  1  0  0  0  0
 11  8  1  6  0  0  0
 12  6  1  0  0  0  0
 13  2  2  0  0  0  0
 14 27  1  0  0  0  0
 17 26  1  0  0  0  0
 18 17  2  0  0  0  0
 18 13  1  0  0  0  0
 19 12  1  0  0  0  0
 20  1  1  0  0  0  0
 21  4  1  6  0  0  0
 22 10  2  0  0  0  0
 23 10  1  6  0  0  0
 23  9  1  0  0  0  0
 23 21  1  0  0  0  0
 25 18  1  0  0  0  0
 26 21  1  0  0  0  0
 26 20  2  0  0  0  0
 27 24  1  6  0  0  0
 27 19  1  0  0  0  0
 28 30  2  0  0  0  0
 29 28  1  0  0  0  0
M  END
>  <MODEL>
4

>  <REMARK>
 VINA RESULT:      -7.8      1.882      2.875
  Name = 
  1 active torsions:
  status: ('A' for Active; 'I' for Inactive)
    1  A    between atoms: C_7  and  C_10
                            x       y       z     vdW  Elec       q    Type
                         _______ _______ _______ _____ _____    ______ ____

>  <TORSDO>
F 1

$$$$
=
 OpenBabel11052417233D

 30 32  0  0  1  0  0  0  0  0999 V2000
  187.3570  175.6260  141.6260 C   0  0  2  0  0  3  0  0  0  0  0  0
  188.5670  174.4010  139.8330 C   0  0  0  0  0  3  0  0  0  0  0  0
  191.9960  173.7820  142.2450 N   0  0  0  0  0  2  0  0  0  0  0  0
  189.3200  173.9740  144.2040 O   0  0  0  0  0  1  0  0  0  0  0  0
  187.7280  177.0040  142.1790 C   0  0  0  0  0  2  0  0  0  0  0  0
  186.5660  177.6550  145.0230 C   0  0  2  0  0  3  0  0  0  0  0  0
  185.7630  177.4400  143.7430 C   0  0  0  0  0  2  0  0  0  0  0  0
  186.8860  179.1940  142.5730 F   0  0  0  0  0  0  0  0  0  0  0  0
  191.2220  176.2440  145.1700 C   0  0  2  0  0  3  0  0  0  0  0  0
  192.1590  174.5310  143.4540 C   0  0  0  0  0  0  0  0  0  0  0  0
  186.5070  177.8680  142.4760 C   0  0  1  0  0  3  0  0  0  0  0  0
  187.4470  176.4360  145.2790 C   0  0  0  0  0  2  0  0  0  0  0  0
  189.6590  173.6870  139.3320 C   0  0  0  0  0  3  0  0  0  0  0  0
  190.3590  177.5210  145.2430 C   0  0  0  0  0  2  0  0  0  0  0  0
  185.5910  177.8440  146.1710 C   0  0  0  0  0  1  0  0  0  0  0  0
  186.6910  174.8630  142.5880 O   0  0  0  0  0  1  0  0  0  0  0  0
  190.8130  173.9440  141.4460 C   0  0  0  0  0  0  0  0  0  0  0  0
  190.7800  173.4590  140.1320 C   0  0  0  0  0  0  0  0  0  0  0  0
  188.3280  176.5720  146.5180 C   0  0  0  0  0  2  0  0  0  0  0  0
  188.5750  174.8880  141.1440 C   0  0  0  0  0  0  0  0  0  0  0  0
  189.7110  175.0570  143.4150 C   0  0  1  0  0  3  0  0  0  0  0  0
  193.1950  174.3800  144.1560 O   0  0  0  0  0  0  0  0  0  0  0  0
  191.1080  175.5460  143.8080 C   0  0  1  0  0  3  0  0  0  0  0  0
  190.0660  177.9160  147.7210 C   0  0  0  0  0  1  0  0  0  0  0  0
  191.8630  172.7620  139.6120 O   0  0  0  0  0  1  0  0  0  0  0  0
  189.6990  174.6420  141.9670 C   0  0  0  0  0  0  0  0  0  0  0  0
  189.3610  177.6880  146.3980 C   0  0  1  0  0  3  0  0  0  0  0  0
  191.3190  175.3660  146.3870 C   0  0  0  0  0  0  0  0  0  0  0  0
  192.4340  175.5050  147.2600 N   0  0  0  0  0  1  0  0  0  0  0  0
  190.4270  174.5180  146.6510 O   0  0  0  0  0  0  0  0  0  0  0  0
  1  5  1  0  0  0  0
  1 16  1  1  0  0  0
  2 20  1  0  0  0  0
  3 10  1  0  0  0  0
  5 11  1  0  0  0  0
  6 12  1  0  0  0  0
  6 15  1  1  0  0  0
  7  6  1  0  0  0  0
  9 14  1  0  0  0  0
  9 28  1  1  0  0  0
 10 22  2  0  0  0  0
 11  8  1  1  0  0  0
 11  7  1  0  0  0  0
 12 19  1  0  0  0  0
 13  2  2  0  0  0  0
 13 18  1  0  0  0  0
 14 27  1  0  0  0  0
 17 26  1  0  0  0  0
 17  3  1  0  0  0  0
 18 17  2  0  0  0  0
 20  1  1  0  0  0  0
 20 26  2  0  0  0  0
 21 23  1  0  0  0  0
 21  4  1  1  0  0  0
 23 10  1  1  0  0  0
 23  9  1  0  0  0  0
 25 18  1  0  0  0  0
 26 21  1  0  0  0  0
 27 19  1  0  0  0  0
 27 24  1  1  0  0  0
 28 30  2  0  0  0  0
 28 29  1  0  0  0  0
M  END
>  <MODEL>
5

>  <REMARK>
 VINA RESULT:      -7.6      2.354      5.041
  Name = 
  1 active torsions:
  status: ('A' for Active; 'I' for Inactive)
    1  A    between atoms: C_7  and  C_10
                            x       y       z     vdW  Elec       q    Type
                         _______ _______ _______ _____ _____    ______ ____

>  <TORSDO>
F 1

$$$$
=
 OpenBabel11052417233D

 30 32  0  0  1  0  0  0  0  0999 V2000
  190.2460  176.1240  146.1650 C   0  0  2  0  0  3  0  0  0  0  0  0
  188.0220  177.2120  145.9300 C   0  0  0  0  0  3  0  0  0  0  0  0
  187.3290  175.5090  142.1130 N   0  0  0  0  0  2  0  0  0  0  0  0
  189.2920  173.4770  143.8600 O   0  0  0  0  0  1  0  0  0  0  0  0
  191.4930  176.4420  145.3380 C   0  0  0  0  0  2  0  0  0  0  0  0
  193.6780  174.1880  145.2990 C   0  0  2  0  0  3  0  0  0  0  0  0
  193.2330  174.9980  146.5130 C   0  0  0  0  0  2  0  0  0  0  0  0
  193.7760  177.0900  145.4960 F   0  0  0  0  0  0  0  0  0  0  0  0
  190.9100  174.1940  141.2950 C   0  0  2  0  0  3  0  0  0  0  0  0
  188.4140  174.9160  141.3920 C   0  0  0  0  0  0  0  0  0  0  0  0
  192.7720  176.4160  146.1660 C   0  0  1  0  0  3  0  0  0  0  0  0
  192.4650  173.5060  144.6730 C   0  0  0  0  0  2  0  0  0  0  0  0
  186.8250  177.4630  145.2570 C   0  0  0  0  0  3  0  0  0  0  0  0
  192.3060  174.6340  141.7810 C   0  0  0  0  0  2  0  0  0  0  0  0
  194.6790  173.1460  145.7620 C   0  0  0  0  0  1  0  0  0  0  0  0
  190.2680  174.8030  146.6170 O   0  0  0  0  0  1  0  0  0  0  0  0
  187.5400  176.0410  143.4310 C   0  0  0  0  0  0  0  0  0  0  0  0
  186.5820  176.8830  144.0110 C   0  0  0  0  0  0  0  0  0  0  0  0
  192.7990  172.7030  143.4180 C   0  0  0  0  0  2  0  0  0  0  0  0
  188.9900  176.3690  145.3740 C   0  0  0  0  0  0  0  0  0  0  0  0
  189.7070  174.7690  143.5320 C   0  0  1  0  0  3  0  0  0  0  0  0
  188.2230  174.4420  140.2390 O   0  0  0  0  0  0  0  0  0  0  0  0
  189.7830  174.9510  142.0130 C   0  0  1  0  0  3  0  0  0  0  0  0
  193.8110  172.7130  141.1270 C   0  0  0  0  0  1  0  0  0  0  0  0
  185.3920  177.1570  143.3470 O   0  0  0  0  0  1  0  0  0  0  0  0
  188.7420  175.7620  144.1220 C   0  0  0  0  0  0  0  0  0  0  0  0
  193.3010  173.5710  142.2690 C   0  0  1  0  0  3  0  0  0  0  0  0
  190.6760  172.7410  140.9880 C   0  0  0  0  0  0  0  0  0  0  0  0
  190.8540  172.2730  139.6570 N   0  0  0  0  0  1  0  0  0  0  0  0
  190.3350  171.9310  141.8900 O   0  0  0  0  0  0  0  0  0  0  0  0
  1 16  1  6  0  0  0
  3 17  1  0  0  0  0
  5  1  1  0  0  0  0
  5 11  1  0  0  0  0
  6 15  1  1  0  0  0
  6  7  1  0  0  0  0
  9 28  1  1  0  0  0
  9 14  1  0  0  0  0
  9 23  1  0  0  0  0
 10  3  1  0  0  0  0
 11  8  1  6  0  0  0
 11  7  1  0  0  0  0
 12  6  1  0  0  0  0
 13  2  2  0  0  0  0
 14 27  1  0  0  0  0
 17 18  2  0  0  0  0
 17 26  1  0  0  0  0
 18 13  1  0  0  0  0
 19 12  1  0  0  0  0
 20  2  1  0  0  0  0
 20  1  1  0  0  0  0
 21  4  1  6  0  0  0
 21 26  1  0  0  0  0
 22 10  2  0  0  0  0
 23 10  1  6  0  0  0
 23 21  1  0  0  0  0
 25 18  1  0  0  0  0
 26 20  2  0  0  0  0
 27 24  1  6  0  0  0
 27 19  1  0  0  0  0
 28 30  2  0  0  0  0
 29 28  1  0  0  0  0
M  END
>  <MODEL>
6

>  <REMARK>
 VINA RESULT:      -7.5      2.606      6.068
  Name = 
  1 active torsions:
  status: ('A' for Active; 'I' for Inactive)
    1  A    between atoms: C_7  and  C_10
                            x       y       z     vdW  Elec       q    Type
                         _______ _______ _______ _____ _____    ______ ____

>  <TORSDO>
F 1

$$$$
=
 OpenBabel11052417233D

 30 32  0  0  1  0  0  0  0  0999 V2000
  187.5150  177.1390  142.8500 C   0  0  2  0  0  3  0  0  0  0  0  0
  186.5910  177.5170  140.5730 C   0  0  0  0  0  3  0  0  0  0  0  0
  188.5110  174.0970  138.9690 N   0  0  0  0  0  2  0  0  0  0  0  0
  187.9100  173.5830  142.1960 O   0  0  0  0  0  1  0  0  0  0  0  0
  188.9860  177.2630  143.2540 C   0  0  0  0  0  2  0  0  0  0  0  0
  189.7760  175.7480  145.8890 C   0  0  2  0  0  3  0  0  0  0  0  0
  188.8220  176.9340  145.7760 C   0  0  0  0  0  2  0  0  0  0  0  0
  190.4660  178.3460  144.7700 F   0  0  0  0  0  0  0  0  0  0  0  0
  190.9950  173.2910  141.8680 C   0  0  2  0  0  3  0  0  0  0  0  0
  189.5600  173.4600  139.7060 C   0  0  0  0  0  0  0  0  0  0  0  0
  189.1680  177.8900  144.6320 C   0  0  1  0  0  3  0  0  0  0  0  0
  189.2990  174.6250  144.9730 C   0  0  0  0  0  2  0  0  0  0  0  0
  186.4060  177.1720  139.2320 C   0  0  0  0  0  3  0  0  0  0  0  0
  191.6260  174.1760  142.9620 C   0  0  0  0  0  2  0  0  0  0  0  0
  189.7830  175.2770  147.3310 C   0  0  0  0  0  1  0  0  0  0  0  0
  186.8450  176.2290  143.6710 O   0  0  0  0  0  1  0  0  0  0  0  0
  187.8160  175.2250  139.5260 C   0  0  0  0  0  0  0  0  0  0  0  0
  187.0160  176.0320  138.7070 C   0  0  0  0  0  0  0  0  0  0  0  0
  190.2160  173.4040  144.9780 C   0  0  0  0  0  2  0  0  0  0  0  0
  187.3790  176.7220  141.4120 C   0  0  0  0  0  0  0  0  0  0  0  0
  188.7540  174.6140  141.7780 C   0  0  1  0  0  3  0  0  0  0  0  0
  190.1620  172.4660  139.2180 O   0  0  0  0  0  0  0  0  0  0  0  0
  189.9660  174.0580  141.0240 C   0  0  1  0  0  3  0  0  0  0  0  0
  192.5340  172.5180  144.6370 C   0  0  0  0  0  1  0  0  0  0  0  0
  186.8350  175.7140  137.3660 O   0  0  0  0  0  1  0  0  0  0  0  0
  187.9830  175.5540  140.8910 C   0  0  0  0  0  0  0  0  0  0  0  0
  191.6050  173.6970  144.4210 C   0  0  1  0  0  3  0  0  0  0  0  0
  190.6880  171.8550  142.1880 C   0  0  0  0  0  0  0  0  0  0  0  0
  191.6400  170.8490  141.8620 N   0  0  0  0  0  1  0  0  0  0  0  0
  189.6080  171.5280  142.7470 O   0  0  0  0  0  0  0  0  0  0  0  0
  1  5  1  0  0  0  0
  1 16  1  1  0  0  0
  2 20  1  0  0  0  0
  3 17  1  0  0  0  0
  3 10  1  0  0  0  0
  5 11  1  0  0  0  0
  6 15  1  1  0  0  0
  7  6  1  0  0  0  0
  9 28  1  1  0  0  0
  9 14  1  0  0  0  0
 11  8  1  1  0  0  0
 11  7  1  0  0  0  0
 12 19  1  0  0  0  0
 12  6  1  0  0  0  0
 13  2  2  0  0  0  0
 14 27  1  0  0  0  0
 17 26  1  0  0  0  0
 18 13  1  0  0  0  0
 18 17  2  0  0  0  0
 20  1  1  0  0  0  0
 21  4  1  6  0  0  0
 22 10  2  0  0  0  0
 23 10  1  6  0  0  0
 23 21  1  0  0  0  0
 23  9  1  0  0  0  0
 25 18  1  0  0  0  0
 26 20  2  0  0  0  0
 26 21  1  0  0  0  0
 27 24  1  6  0  0  0
 27 19  1  0  0  0  0
 28 30  2  0  0  0  0
 29 28  1  0  0  0  0
M  END
>  <MODEL>
7

>  <REMARK>
 VINA RESULT:      -7.3      2.616      5.869
  Name = 
  1 active torsions:
  status: ('A' for Active; 'I' for Inactive)
    1  A    between atoms: C_7  and  C_10
                            x       y       z     vdW  Elec       q    Type
                         _______ _______ _______ _____ _____    ______ ____

>  <TORSDO>
F 1

$$$$
=
 OpenBabel11052417233D

 30 32  0  0  1  0  0  0  0  0999 V2000
  191.0540  177.0930  145.4530 C   0  0  2  0  0  3  0  0  0  0  0  0
  193.3200  176.7910  146.4320 C   0  0  0  0  0  3  0  0  0  0  0  0
  194.2160  173.4900  143.9300 N   0  0  0  0  0  2  0  0  0  0  0  0
  192.0800  175.4880  142.3550 O   0  0  0  0  0  1  0  0  0  0  0  0
  189.8760  176.1290  145.6030 C   0  0  0  0  0  2  0  0  0  0  0  0
  187.6310  176.4210  143.4270 C   0  0  2  0  0  3  0  0  0  0  0  0
  188.0180  177.4600  144.4740 C   0  0  0  0  0  2  0  0  0  0  0  0
  187.6070  175.9800  146.3040 F   0  0  0  0  0  0  0  0  0  0  0  0
  190.6600  172.7200  142.5220 C   0  0  2  0  0  3  0  0  0  0  0  0
  193.1650  172.8370  143.2110 C   0  0  0  0  0  0  0  0  0  0  0  0
  188.5430  176.8500  145.7760 C   0  0  1  0  0  3  0  0  0  0  0  0
  188.8620  176.0450  142.6070 C   0  0  0  0  0  2  0  0  0  0  0  0
  194.5660  176.1670  146.5130 C   0  0  0  0  0  3  0  0  0  0  0  0
  189.2480  172.9980  143.0780 C   0  0  0  0  0  2  0  0  0  0  0  0
  186.5700  177.0240  142.5250 C   0  0  0  0  0  1  0  0  0  0  0  0
  190.9620  177.8170  144.2630 O   0  0  0  0  0  1  0  0  0  0  0  0
  193.9330  174.6430  144.7390 C   0  0  0  0  0  0  0  0  0  0  0  0
  194.8750  175.0960  145.6730 C   0  0  0  0  0  0  0  0  0  0  0  0
  188.5900  174.9720  141.5560 C   0  0  0  0  0  2  0  0  0  0  0  0
  192.3660  176.3610  145.5030 C   0  0  0  0  0  0  0  0  0  0  0  0
  191.7270  174.8600  143.5510 C   0  0  1  0  0  3  0  0  0  0  0  0
  193.4180  171.8310  142.4950 O   0  0  0  0  0  0  0  0  0  0  0  0
  191.7590  173.3360  143.4000 C   0  0  1  0  0  3  0  0  0  0  0  0
  187.7340  172.6660  141.0830 C   0  0  0  0  0  1  0  0  0  0  0  0
  196.1140  174.4760  145.7780 O   0  0  0  0  0  1  0  0  0  0  0  0
  192.6800  175.2900  144.6350 C   0  0  0  0  0  0  0  0  0  0  0  0
  188.1910  173.6300  142.1610 C   0  0  1  0  0  3  0  0  0  0  0  0
  190.8710  172.7510  141.0340 C   0  0  0  0  0  0  0  0  0  0  0  0
  190.7480  171.5460  140.2870 N   0  0  0  0  0  1  0  0  0  0  0  0
  191.1440  173.8250  140.4370 O   0  0  0  0  0  0  0  0  0  0  0  0
  1 16  1  6  0  0  0
  1 20  1  0  0  0  0
  1  5  1  0  0  0  0
  2 13  1  0  0  0  0
  3 17  1  0  0  0  0
  5 11  1  0  0  0  0
  6 15  1  6  0  0  0
  6  7  1  0  0  0  0
  7 11  1  0  0  0  0
  9 28  1  6  0  0  0
  9 14  1  0  0  0  0
  9 23  1  0  0  0  0
 10  3  1  0  0  0  0
 11  8  1  6  0  0  0
 12  6  1  0  0  0  0
 17 18  1  0  0  0  0
 18 25  1  0  0  0  0
 18 13  2  0  0  0  0
 19 27  1  0  0  0  0
 19 12  1  0  0  0  0
 20  2  2  0  0  0  0
 21  4  1  6  0  0  0
 21 26  1  0  0  0  0
 22 10  2  0  0  0  0
 23 10  1  6  0  0  0
 23 21  1  0  0  0  0
 26 17  2  0  0  0  0
 26 20  1  0  0  0  0
 27 24  1  6  0  0  0
 27 14  1  0  0  0  0
 29 28  1  0  0  0  0
 30 28  2  0  0  0  0
M  END
>  <MODEL>
8

>  <REMARK>
 VINA RESULT:      -7.3      2.357      3.940
  Name = 
  1 active torsions:
  status: ('A' for Active; 'I' for Inactive)
    1  A    between atoms: C_7  and  C_10
                            x       y       z     vdW  Elec       q    Type
                         _______ _______ _______ _____ _____    ______ ____

>  <TORSDO>
F 1

$$$$
=
 OpenBabel11052417233D

 30 32  0  0  1  0  0  0  0  0999 V2000
  188.2300  174.8570  142.1600 C   0  0  2  0  0  3  0  0  0  0  0  0
  186.3300  176.1350  143.1290 C   0  0  0  0  0  3  0  0  0  0  0  0
  188.6370  177.5500  146.3890 N   0  0  0  0  0  2  0  0  0  0  0  0
  190.6420  177.0360  143.7910 O   0  0  0  0  0  1  0  0  0  0  0  0
  188.8830  173.6170  142.7730 C   0  0  0  0  0  2  0  0  0  0  0  0
  191.7850  172.9950  141.7470 C   0  0  2  0  0  3  0  0  0  0  0  0
  190.5040  172.9600  140.9190 C   0  0  0  0  0  2  0  0  0  0  0  0
  189.4590  171.3490  142.3400 F   0  0  0  0  0  0  0  0  0  0  0  0
  191.7560  175.2290  146.0710 C   0  0  2  0  0  3  0  0  0  0  0  0
  189.8980  176.9410  146.6840 C   0  0  0  0  0  0  0  0  0  0  0  0
  189.2640  172.5740  141.7280 C   0  0  1  0  0  3  0  0  0  0  0  0
  191.9330  174.3700  142.3930 C   0  0  0  0  0  2  0  0  0  0  0  0
  185.7590  176.9910  144.0730 C   0  0  0  0  0  3  0  0  0  0  0  0
  191.9410  173.8280  145.4530 C   0  0  0  0  0  2  0  0  0  0  0  0
  192.9580  172.7260  140.8220 C   0  0  0  0  0  1  0  0  0  0  0  0
  189.1380  175.5620  141.3660 O   0  0  0  0  0  1  0  0  0  0  0  0
  187.8700  177.1150  145.2540 C   0  0  0  0  0  0  0  0  0  0  0  0
  186.5230  177.4800  145.1340 C   0  0  0  0  0  0  0  0  0  0  0  0
  193.1660  174.4940  143.2840 C   0  0  0  0  0  2  0  0  0  0  0  0
  187.6750  175.7630  143.2240 C   0  0  0  0  0  0  0  0  0  0  0  0
  189.9350  175.9810  144.3710 C   0  0  1  0  0  3  0  0  0  0  0  0
  190.5720  177.3310  147.6750 O   0  0  0  0  0  0  0  0  0  0  0  0
  190.3450  175.7840  145.8330 C   0  0  1  0  0  3  0  0  0  0  0  0
  194.4460  173.5840  145.2360 C   0  0  0  0  0  1  0  0  0  0  0  0
  185.9350  178.3180  146.0740 O   0  0  0  0  0  1  0  0  0  0  0  0
  188.4590  176.2710  144.2850 C   0  0  0  0  0  0  0  0  0  0  0  0
  193.1190  173.5760  144.5020 C   0  0  1  0  0  3  0  0  0  0  0  0
  192.8990  176.2030  146.0080 C   0  0  0  0  0  0  0  0  0  0  0  0
  193.0400  177.0390  144.8650 N   0  0  0  0  0  1  0  0  0  0  0  0
  193.7270  176.2980  146.9510 O   0  0  0  0  0  0  0  0  0  0  0  0
  1 16  1  1  0  0  0
  1  5  1  0  0  0  0
  1 20  1  0  0  0  0
  2 20  2  0  0  0  0
  2 13  1  0  0  0  0
  3 10  1  0  0  0  0
  6 15  1  6  0  0  0
  6 12  1  0  0  0  0
  7 11  1  0  0  0  0
  7  6  1  0  0  0  0
  9 28  1  6  0  0  0
 10 22  2  0  0  0  0
 11  8  1  1  0  0  0
 11  5  1  0  0  0  0
 12 19  1  0  0  0  0
 13 18  2  0  0  0  0
 14  9  1  0  0  0  0
 17  3  1  0  0  0  0
 18 17  1  0  0  0  0
 18 25  1  0  0  0  0
 19 27  1  0  0  0  0
 20 26  1  0  0  0  0
 21  4  1  1  0  0  0
 21 23  1  0  0  0  0
 23  9  1  0  0  0  0
 23 10  1  1  0  0  0
 26 21  1  0  0  0  0
 26 17  2  0  0  0  0
 27 24  1  1  0  0  0
 27 14  1  0  0  0  0
 28 30  2  0  0  0  0
 29 28  1  0  0  0  0
M  END
>  <MODEL>
9

>  <REMARK>
 VINA RESULT:      -7.2      2.690      7.008
  Name = 
  1 active torsions:
  status: ('A' for Active; 'I' for Inactive)
    1  A    between atoms: C_7  and  C_10
                            x       y       z     vdW  Elec       q    Type
                         _______ _______ _______ _____ _____    ______ ____

>  <TORSDO>
F 1

$$$$
