=
 OpenBabel11052420483D

 43 48  0  0  1  0  0  0  0  0999 V2000
  196.0530  176.6860  143.7670 C   0  0  0  0  0  0  0  0  0  0  0  0
  191.5630  174.8720  145.3590 C   0  0  2  0  0  3  0  0  0  0  0  0
  190.6280  173.3020  143.2410 C   0  0  0  0  0  0  0  0  0  0  0  0
  194.1260  176.1050  145.1200 C   0  0  0  0  0  0  0  0  0  0  0  0
  195.7060  175.7010  142.8400 C   0  0  0  0  0  3  0  0  0  0  0  0
  197.1560  177.4460  143.5670 F   0  0  0  0  0  0  0  0  0  0  0  0
  193.7520  175.1310  144.1620 C   0  0  0  0  0  0  0  0  0  0  0  0
  195.2640  176.8890  144.9020 C   0  0  0  0  0  3  0  0  0  0  0  0
  194.5660  174.9210  143.0410 C   0  0  0  0  0  3  0  0  0  0  0  0
  191.9210  173.8370  143.2120 O   0  0  0  0  0  0  0  0  0  0  0  0
  192.5750  174.2270  144.4190 C   0  0  2  0  0  3  0  0  0  0  0  0
  192.2830  175.2760  146.6400 C   0  0  0  0  0  2  0  0  0  0  0  0
  190.4430  173.8620  145.6110 C   0  0  2  0  0  3  0  0  0  0  0  0
  189.9340  173.3220  144.3450 N   0  0  0  0  0  0  0  0  0  0  0  0
  193.2670  176.4010  146.3250 C   0  0  0  0  0  2  0  0  0  0  0  0
  190.0560  172.7170  141.9890 C   0  0  1  0  0  3  0  0  0  0  0  0
  189.9870  171.2070  142.1230 C   0  0  0  0  0  1  0  0  0  0  0  0
  188.7270  173.2570  141.7230 N   0  0  0  0  0  2  0  0  0  0  0  0
  188.4050  173.9920  140.5420 C   0  0  0  0  0  0  0  0  0  0  0  0
  188.3720  173.1880  139.1140 S   0  0  0  0  0  0  0  0  0  0  0  0
  188.1080  175.3960  140.6290 N   0  0  0  0  0  2  0  0  0  0  0  0
  188.1220  176.2340  141.8260 C   0  0  1  0  0  3  0  0  0  0  0  0
  190.9530  177.9190  143.1350 C   0  0  0  0  0  2  0  0  0  0  0  0
  189.4100  176.2460  142.4280 O   0  0  0  0  0  0  0  0  0  0  0  0
  187.8060  177.7090  141.5040 C   0  0  2  0  0  3  0  0  0  0  0  0
  188.8880  178.4400  142.0680 O   0  0  0  0  0  0  0  0  0  0  0  0
  189.8100  177.5540  142.5810 C   0  0  0  0  0  0  0  0  0  0  0  0
  186.4770  178.9510  143.2560 C   0  0  0  0  0  3  0  0  0  0  0  0
  186.5090  178.1340  142.1150 C   0  0  0  0  0  0  0  0  0  0  0  0
  182.9260  177.7640  141.4640 F   0  0  0  0  0  0  0  0  0  0  0  0
  184.0570  178.9550  143.1930 C   0  0  0  0  0  3  0  0  0  0  0  0
  184.0860  178.1390  142.0590 C   0  0  0  0  0  0  0  0  0  0  0  0
  185.2530  179.3580  143.7940 C   0  0  0  0  0  3  0  0  0  0  0  0
  185.3090  177.7330  141.5190 C   0  0  0  0  0  3  0  0  0  0  0  0
  189.3040  174.5200  146.3760 C   0  0  0  0  0  2  0  0  0  0  0  0
  188.5560  178.1310  147.1700 C   0  0  0  0  0  2  0  0  0  0  0  0
  187.0800  177.7410  147.0590 C   0  0  0  0  0  0  0  0  0  0  0  0
  186.5410  177.6270  148.3270 F   0  0  0  0  0  0  0  0  0  0  0  0
  187.9200  176.2440  145.3510 O   0  0  0  0  0  0  0  0  0  0  0  0
  189.4420  176.8920  147.2100 C   0  0  0  0  0  2  0  0  0  0  0  0
  189.1600  175.9890  145.9950 C   0  0  1  0  0  3  0  0  0  0  0  0
  186.4070  178.7330  146.3700 F   0  0  0  0  0  0  0  0  0  0  0  0
  186.9120  176.4060  146.3240 C   0  0  0  0  0  2  0  0  0  0  0  0
  1  8  1  0  0  0  0
  2 13  1  0  0  0  0
  2 12  1  1  0  0  0
  3 14  2  0  0  0  0
  4 15  1  0  0  0  0
  5  9  1  0  0  0  0
  5  1  2  0  0  0  0
  6  1  1  0  0  0  0
  7 11  1  0  0  0  0
  7  4  1  0  0  0  0
  8  4  2  0  0  0  0
  9  7  2  0  0  0  0
 10  3  1  0  0  0  0
 11 10  1  6  0  0  0
 11  2  1  0  0  0  0
 13 35  1  6  0  0  0
 14 13  1  0  0  0  0
 15 12  1  0  0  0  0
 16 17  1  1  0  0  0
 16  3  1  0  0  0  0
 18 16  1  0  0  0  0
 19 21  1  0  0  0  0
 19 18  1  0  0  0  0
 20 19  2  0  0  0  0
 22 21  1  6  0  0  0
 22 24  1  0  0  0  0
 24 27  1  0  0  0  0
 25 22  1  0  0  0  0
 25 26  1  0  0  0  0
 25 29  1  1  0  0  0
 26 27  1  0  0  0  0
 27 23  2  0  0  0  0
 28 33  1  0  0  0  0
 29 28  2  0  0  0  0
 30 32  1  0  0  0  0
 31 33  2  0  0  0  0
 32 31  1  0  0  0  0
 34 32  2  0  0  0  0
 34 29  1  0  0  0  0
 36 40  1  0  0  0  0
 37 36  1  0  0  0  0
 37 38  1  0  0  0  0
 39 41  1  0  0  0  0
 39 43  1  0  0  0  0
 41 35  1  1  0  0  0
 41 40  1  0  0  0  0
 42 37  1  0  0  0  0
 43 37  1  0  0  0  0
M  END
>  <MODEL>
1

>  <REMARK>
 VINA RESULT:      -9.1      0.000      0.000
  Name = 
  8 active torsions:
  status: ('A' for Active; 'I' for Inactive)
    1  A    between atoms: C_1  and  C_34
    2  A    between atoms: C_1  and  C_35
    3  A    between atoms: C_2  and  N_6
    4  A    between atoms: C_2  and  C_13
    5  A    between atoms: N_3  and  C_4
    6  A    between atoms: N_3  and  C_12
    7  A    between atoms: N_6  and  C_12
    8  A    between atoms: C_14  and  C_22
                            x       y       z     vdW  Elec       q    Type
                         _______ _______ _______ _____ _____    ______ ____

>  <TORSDO>
F 8

$$$$
=
 OpenBabel11052420483D

 43 48  0  0  1  0  0  0  0  0999 V2000
  186.1370  177.3180  144.9860 C   0  0  0  0  0  0  0  0  0  0  0  0
  190.8750  176.3940  143.3490 C   0  0  2  0  0  3  0  0  0  0  0  0
  190.5990  174.3510  141.4590 C   0  0  0  0  0  0  0  0  0  0  0  0
  188.5240  177.4450  144.5800 C   0  0  0  0  0  0  0  0  0  0  0  0
  185.9830  176.4980  143.8660 C   0  0  0  0  0  3  0  0  0  0  0  0
  185.0550  177.6590  145.7280 F   0  0  0  0  0  0  0  0  0  0  0  0
  188.3760  176.5840  143.4650 C   0  0  0  0  0  0  0  0  0  0  0  0
  187.4030  177.7880  145.3440 C   0  0  0  0  0  3  0  0  0  0  0  0
  187.0970  176.1400  143.1030 C   0  0  0  0  0  3  0  0  0  0  0  0
  189.4690  174.9690  142.0080 O   0  0  0  0  0  0  0  0  0  0  0  0
  189.5600  176.2690  142.5880 C   0  0  2  0  0  3  0  0  0  0  0  0
  190.9500  177.7910  143.9550 C   0  0  0  0  0  2  0  0  0  0  0  0
  192.0150  176.1210  142.3670 C   0  0  2  0  0  3  0  0  0  0  0  0
  191.7820  174.8730  141.6330 N   0  0  0  0  0  0  0  0  0  0  0  0
  189.8810  177.9220  145.0380 C   0  0  0  0  0  2  0  0  0  0  0  0
  190.4280  173.0850  140.6800 C   0  0  1  0  0  3  0  0  0  0  0  0
  191.6890  172.8100  139.8820 C   0  0  0  0  0  1  0  0  0  0  0  0
  190.1430  171.9640  141.5690 N   0  0  0  0  0  2  0  0  0  0  0  0
  191.1200  170.9880  141.9320 C   0  0  0  0  0  0  0  0  0  0  0  0
  190.9050  169.4460  141.4170 S   0  0  0  0  0  0  0  0  0  0  0  0
  192.2600  171.3720  142.7190 N   0  0  0  0  0  2  0  0  0  0  0  0
  192.3480  171.4540  144.1750 C   0  0  1  0  0  3  0  0  0  0  0  0
  195.1420  170.4880  146.1320 C   0  0  0  0  0  2  0  0  0  0  0  0
  193.2450  170.4780  144.6890 O   0  0  0  0  0  0  0  0  0  0  0  0
  192.9050  172.8130  144.6470 C   0  0  2  0  0  3  0  0  0  0  0  0
  193.9980  172.4780  145.4940 O   0  0  0  0  0  0  0  0  0  0  0  0
  194.1760  171.1120  145.4790 C   0  0  0  0  0  0  0  0  0  0  0  0
  190.5050  173.3460  145.2210 C   0  0  0  0  0  3  0  0  0  0  0  0
  191.8750  173.5910  145.4000 C   0  0  0  0  0  0  0  0  0  0  0  0
  191.7510  176.2030  147.9620 F   0  0  0  0  0  0  0  0  0  0  0  0
  189.9800  175.0320  146.8770 C   0  0  0  0  0  3  0  0  0  0  0  0
  191.3430  175.2800  147.0550 C   0  0  0  0  0  0  0  0  0  0  0  0
  189.5600  174.0660  145.9570 C   0  0  0  0  0  3  0  0  0  0  0  0
  192.2890  174.5580  146.3220 C   0  0  0  0  0  3  0  0  0  0  0  0
  193.3390  176.0310  143.1120 C   0  0  0  0  0  2  0  0  0  0  0  0
  196.7870  174.5980  142.5710 C   0  0  0  0  0  2  0  0  0  0  0  0
  197.1590  175.9770  142.0200 C   0  0  0  0  0  0  0  0  0  0  0  0
  197.8850  176.6690  142.9720 F   0  0  0  0  0  0  0  0  0  0  0  0
  194.8730  175.9370  141.2210 O   0  0  0  0  0  0  0  0  0  0  0  0
  195.4340  174.6430  143.2720 C   0  0  0  0  0  2  0  0  0  0  0  0
  194.3580  175.2110  142.3280 C   0  0  1  0  0  3  0  0  0  0  0  0
  197.9390  175.8100  140.8910 F   0  0  0  0  0  0  0  0  0  0  0  0
  195.9090  176.7880  141.6600 C   0  0  0  0  0  2  0  0  0  0  0  0
  1  8  1  0  0  0  0
  1  6  1  0  0  0  0
  2 12  1  6  0  0  0
  3 14  2  0  0  0  0
  3 10  1  0  0  0  0
  4 15  1  0  0  0  0
  4  8  2  0  0  0  0
  5  1  2  0  0  0  0
  7  4  1  0  0  0  0
  9  7  2  0  0  0  0
  9  5  1  0  0  0  0
 11 10  1  1  0  0  0
 11  2  1  0  0  0  0
 11  7  1  0  0  0  0
 12 15  1  0  0  0  0
 13 35  1  1  0  0  0
 13  2  1  0  0  0  0
 14 13  1  0  0  0  0
 16 17  1  1  0  0  0
 16  3  1  0  0  0  0
 16 18  1  0  0  0  0
 18 19  1  0  0  0  0
 19 21  1  0  0  0  0
 20 19  2  0  0  0  0
 22 21  1  6  0  0  0
 22 25  1  0  0  0  0
 22 24  1  0  0  0  0
 24 27  1  0  0  0  0
 25 29  1  1  0  0  0
 25 26  1  0  0  0  0
 27 26  1  0  0  0  0
 27 23  2  0  0  0  0
 28 29  2  0  0  0  0
 28 33  1  0  0  0  0
 29 34  1  0  0  0  0
 31 32  1  0  0  0  0
 32 30  1  0  0  0  0
 33 31  2  0  0  0  0
 34 32  2  0  0  0  0
 36 40  1  0  0  0  0
 37 36  1  0  0  0  0
 37 38  1  0  0  0  0
 39 43  1  0  0  0  0
 39 41  1  0  0  0  0
 41 35  1  1  0  0  0
 41 40  1  0  0  0  0
 42 37  1  0  0  0  0
 43 37  1  0  0  0  0
M  END
>  <MODEL>
2

>  <REMARK>
 VINA RESULT:      -8.8      2.445      7.604
  Name = 
  8 active torsions:
  status: ('A' for Active; 'I' for Inactive)
    1  A    between atoms: C_1  and  C_34
    2  A    between atoms: C_1  and  C_35
    3  A    between atoms: C_2  and  N_6
    4  A    between atoms: C_2  and  C_13
    5  A    between atoms: N_3  and  C_4
    6  A    between atoms: N_3  and  C_12
    7  A    between atoms: N_6  and  C_12
    8  A    between atoms: C_14  and  C_22
                            x       y       z     vdW  Elec       q    Type
                         _______ _______ _______ _____ _____    ______ ____

>  <TORSDO>
F 8

$$$$
=
 OpenBabel11052420483D

 43 48  0  0  1  0  0  0  0  0999 V2000
  195.7310  173.9720  145.8480 C   0  0  0  0  0  0  0  0  0  0  0  0
  190.9470  175.6390  145.2840 C   0  0  2  0  0  3  0  0  0  0  0  0
  189.7340  173.7860  143.5760 C   0  0  0  0  0  0  0  0  0  0  0  0
  193.6530  175.2000  146.0790 C   0  0  0  0  0  0  0  0  0  0  0  0
  195.0500  172.9260  145.2210 C   0  0  0  0  0  3  0  0  0  0  0  0
  197.0680  173.8870  146.0440 F   0  0  0  0  0  0  0  0  0  0  0  0
  192.9660  174.1570  145.4110 C   0  0  0  0  0  0  0  0  0  0  0  0
  195.0350  175.1060  146.2730 C   0  0  0  0  0  3  0  0  0  0  0  0
  193.6720  173.0140  145.0120 C   0  0  0  0  0  3  0  0  0  0  0  0
  191.0210  173.5550  144.0760 O   0  0  0  0  0  0  0  0  0  0  0  0
  191.4670  174.2070  145.2640 C   0  0  2  0  0  3  0  0  0  0  0  0
  191.4330  176.3110  146.5630 C   0  0  0  0  0  2  0  0  0  0  0  0
  189.4210  175.5860  145.1960 C   0  0  2  0  0  3  0  0  0  0  0  0
  188.9930  174.7340  144.0820 N   0  0  0  0  0  0  0  0  0  0  0  0
  192.9510  176.4690  146.4960 C   0  0  0  0  0  2  0  0  0  0  0  0
  189.2280  172.9370  142.4530 C   0  0  1  0  0  3  0  0  0  0  0  0
  187.8740  173.4530  142.0000 C   0  0  0  0  0  1  0  0  0  0  0  0
  190.1660  172.9420  141.3350 N   0  0  0  0  0  2  0  0  0  0  0  0
  190.8530  171.7740  140.8870 C   0  0  0  0  0  0  0  0  0  0  0  0
  190.3940  171.1030  139.4640 S   0  0  0  0  0  0  0  0  0  0  0  0
  191.9240  171.2250  141.6740 N   0  0  0  0  0  2  0  0  0  0  0  0
  193.3430  171.5600  141.5990 C   0  0  1  0  0  3  0  0  0  0  0  0
  195.6650  170.2090  139.2860 C   0  0  0  0  0  2  0  0  0  0  0  0
  194.0960  170.4820  141.0590 O   0  0  0  0  0  0  0  0  0  0  0  0
  193.6080  172.7560  140.6610 C   0  0  2  0  0  3  0  0  0  0  0  0
  194.5880  172.2840  139.7450 O   0  0  0  0  0  0  0  0  0  0  0  0
  194.8340  170.9520  139.9960 C   0  0  0  0  0  0  0  0  0  0  0  0
  195.4900  174.0810  141.7000 C   0  0  0  0  0  3  0  0  0  0  0  0
  194.1220  173.9380  141.4180 C   0  0  0  0  0  0  0  0  0  0  0  0
  192.8170  177.0280  142.8840 F   0  0  0  0  0  0  0  0  0  0  0  0
  195.0500  176.1990  142.7880 C   0  0  0  0  0  3  0  0  0  0  0  0
  193.6880  176.0570  142.5100 C   0  0  0  0  0  0  0  0  0  0  0  0
  195.9520  175.2090  142.3850 C   0  0  0  0  0  3  0  0  0  0  0  0
  193.2260  174.9320  141.8230 C   0  0  0  0  0  3  0  0  0  0  0  0
  188.8570  176.9880  145.0060 C   0  0  0  0  0  2  0  0  0  0  0  0
  185.4800  178.6500  145.2560 C   0  0  0  0  0  2  0  0  0  0  0  0
  185.6630  178.5560  146.7740 C   0  0  0  0  0  0  0  0  0  0  0  0
  186.0160  179.7970  147.2700 F   0  0  0  0  0  0  0  0  0  0  0  0
  186.7930  176.4920  146.2010 O   0  0  0  0  0  0  0  0  0  0  0  0
  186.7850  178.3390  144.5340 C   0  0  0  0  0  2  0  0  0  0  0  0
  187.3330  176.9700  144.9780 C   0  0  1  0  0  3  0  0  0  0  0  0
  184.4650  178.1660  147.3440 F   0  0  0  0  0  0  0  0  0  0  0  0
  186.7550  177.5440  147.1400 C   0  0  0  0  0  2  0  0  0  0  0  0
  1  6  1  0  0  0  0
  1  8  1  0  0  0  0
  2 12  1  1  0  0  0
  3 10  1  0  0  0  0
  3 14  2  0  0  0  0
  4  8  2  0  0  0  0
  4 15  1  0  0  0  0
  5  1  2  0  0  0  0
  7  4  1  0  0  0  0
  9  5  1  0  0  0  0
  9  7  2  0  0  0  0
 11 10  1  6  0  0  0
 11  2  1  0  0  0  0
 11  7  1  0  0  0  0
 13 35  1  6  0  0  0
 13  2  1  0  0  0  0
 14 13  1  0  0  0  0
 15 12  1  0  0  0  0
 16 17  1  6  0  0  0
 16  3  1  0  0  0  0
 18 16  1  0  0  0  0
 19 18  1  0  0  0  0
 19 21  1  0  0  0  0
 20 19  2  0  0  0  0
 22 21  1  6  0  0  0
 23 27  2  0  0  0  0
 24 22  1  0  0  0  0
 25 29  1  1  0  0  0
 25 22  1  0  0  0  0
 26 27  1  0  0  0  0
 26 25  1  0  0  0  0
 27 24  1  0  0  0  0
 28 33  1  0  0  0  0
 29 28  2  0  0  0  0
 29 34  1  0  0  0  0
 32 31  1  0  0  0  0
 32 30  1  0  0  0  0
 33 31  2  0  0  0  0
 34 32  2  0  0  0  0
 36 37  1  0  0  0  0
 37 43  1  0  0  0  0
 37 38  1  0  0  0  0
 37 42  1  0  0  0  0
 39 43  1  0  0  0  0
 40 41  1  0  0  0  0
 40 36  1  0  0  0  0
 41 35  1  1  0  0  0
 41 39  1  0  0  0  0
M  END
>  <MODEL>
3

>  <REMARK>
 VINA RESULT:      -8.8      2.492      5.563
  Name = 
  8 active torsions:
  status: ('A' for Active; 'I' for Inactive)
    1  A    between atoms: C_1  and  C_34
    2  A    between atoms: C_1  and  C_35
    3  A    between atoms: C_2  and  N_6
    4  A    between atoms: C_2  and  C_13
    5  A    between atoms: N_3  and  C_4
    6  A    between atoms: N_3  and  C_12
    7  A    between atoms: N_6  and  C_12
    8  A    between atoms: C_14  and  C_22
                            x       y       z     vdW  Elec       q    Type
                         _______ _______ _______ _____ _____    ______ ____

>  <TORSDO>
F 8

$$$$
=
 OpenBabel11052420483D

 43 48  0  0  1  0  0  0  0  0999 V2000
  189.5780  177.6790  144.5210 C   0  0  0  0  0  0  0  0  0  0  0  0
  194.1220  175.4440  145.1070 C   0  0  2  0  0  3  0  0  0  0  0  0
  195.3800  175.7050  142.6230 C   0  0  0  0  0  0  0  0  0  0  0  0
  191.5380  176.6040  145.4610 C   0  0  0  0  0  0  0  0  0  0  0  0
  190.3090  178.0330  143.3850 C   0  0  0  0  0  3  0  0  0  0  0  0
  188.2730  178.0290  144.6210 F   0  0  0  0  0  0  0  0  0  0  0  0
  192.2720  176.9290  144.2940 C   0  0  0  0  0  0  0  0  0  0  0  0
  190.1890  176.9640  145.5540 C   0  0  0  0  0  3  0  0  0  0  0  0
  191.6530  177.6680  143.2760 C   0  0  0  0  0  3  0  0  0  0  0  0
  194.1620  176.3490  142.8740 O   0  0  0  0  0  0  0  0  0  0  0  0
  193.7430  176.6170  144.2110 C   0  0  2  0  0  3  0  0  0  0  0  0
  193.6680  175.7560  146.5280 C   0  0  0  0  0  2  0  0  0  0  0  0
  195.6350  175.2440  145.0070 C   0  0  2  0  0  3  0  0  0  0  0  0
  196.0600  175.1810  143.6050 N   0  0  0  0  0  0  0  0  0  0  0  0
  192.1410  175.7770  146.5700 C   0  0  0  0  0  2  0  0  0  0  0  0
  195.8810  175.6240  141.2160 C   0  0  1  0  0  3  0  0  0  0  0  0
  197.3990  175.6010  141.2220 C   0  0  0  0  0  1  0  0  0  0  0  0
  195.3640  174.4350  140.5480 N   0  0  0  0  0  2  0  0  0  0  0  0
  194.3870  174.4860  139.5080 C   0  0  0  0  0  0  0  0  0  0  0  0
  194.8940  174.8100  137.9840 S   0  0  0  0  0  0  0  0  0  0  0  0
  193.0030  174.2430  139.8120 N   0  0  0  0  0  2  0  0  0  0  0  0
  192.4410  173.1220  140.5620 C   0  0  1  0  0  3  0  0  0  0  0  0
  194.0700  170.0380  141.1940 C   0  0  0  0  0  2  0  0  0  0  0  0
  193.0050  171.8880  140.1350 O   0  0  0  0  0  0  0  0  0  0  0  0
  192.7530  173.2170  142.0690 C   0  0  2  0  0  3  0  0  0  0  0  0
  193.3550  171.9690  142.3910 O   0  0  0  0  0  0  0  0  0  0  0  0
  193.5010  171.2300  141.2380 C   0  0  0  0  0  0  0  0  0  0  0  0
  191.3680  172.8640  144.1500 C   0  0  0  0  0  3  0  0  0  0  0  0
  191.5080  173.4230  142.8710 C   0  0  0  0  0  0  0  0  0  0  0  0
  188.3320  175.2210  142.5810 F   0  0  0  0  0  0  0  0  0  0  0  0
  189.1810  173.8830  144.3630 C   0  0  0  0  0  3  0  0  0  0  0  0
  189.3180  174.4370  143.0880 C   0  0  0  0  0  0  0  0  0  0  0  0
  190.2060  173.0920  144.8930 C   0  0  0  0  0  3  0  0  0  0  0  0
  190.4800  174.2120  142.3450 C   0  0  0  0  0  3  0  0  0  0  0  0
  196.0430  173.9620  145.7190 C   0  0  0  0  0  2  0  0  0  0  0  0
  194.5770  170.4940  145.4910 C   0  0  0  0  0  2  0  0  0  0  0  0
  195.9710  169.9930  145.8820 C   0  0  0  0  0  0  0  0  0  0  0  0
  195.9660  169.6200  147.2130 F   0  0  0  0  0  0  0  0  0  0  0  0
  196.6870  171.9060  144.5810 O   0  0  0  0  0  0  0  0  0  0  0  0
  194.4660  171.9990  145.6990 C   0  0  0  0  0  2  0  0  0  0  0  0
  195.5890  172.7310  144.9420 C   0  0  1  0  0  3  0  0  0  0  0  0
  196.2830  168.8920  145.1060 F   0  0  0  0  0  0  0  0  0  0  0  0
  197.0310  171.0800  145.6720 C   0  0  0  0  0  2  0  0  0  0  0  0
  1  6  1  0  0  0  0
  1  8  1  0  0  0  0
  2 12  1  1  0  0  0
  3 10  1  0  0  0  0
  3 14  2  0  0  0  0
  4  8  2  0  0  0  0
  4 15  1  0  0  0  0
  5  1  2  0  0  0  0
  7  4  1  0  0  0  0
  9  5  1  0  0  0  0
  9  7  2  0  0  0  0
 11 10  1  6  0  0  0
 11  7  1  0  0  0  0
 11  2  1  0  0  0  0
 12 15  1  0  0  0  0
 13  2  1  0  0  0  0
 13 35  1  1  0  0  0
 14 13  1  0  0  0  0
 16 17  1  1  0  0  0
 16  3  1  0  0  0  0
 18 16  1  0  0  0  0
 19 21  1  0  0  0  0
 19 18  1  0  0  0  0
 20 19  2  0  0  0  0
 22 21  1  6  0  0  0
 22 25  1  0  0  0  0
 23 27  2  0  0  0  0
 24 22  1  0  0  0  0
 24 27  1  0  0  0  0
 25 26  1  0  0  0  0
 25 29  1  1  0  0  0
 27 26  1  0  0  0  0
 28 33  1  0  0  0  0
 29 28  2  0  0  0  0
 30 32  1  0  0  0  0
 31 33  2  0  0  0  0
 32 31  1  0  0  0  0
 34 29  1  0  0  0  0
 34 32  2  0  0  0  0
 36 40  1  0  0  0  0
 36 37  1  0  0  0  0
 37 38  1  0  0  0  0
 39 41  1  0  0  0  0
 39 43  1  0  0  0  0
 41 40  1  0  0  0  0
 41 35  1  1  0  0  0
 42 37  1  0  0  0  0
 43 37  1  0  0  0  0
M  END
>  <MODEL>
4

>  <REMARK>
 VINA RESULT:      -8.6      3.772      7.209
  Name = 
  8 active torsions:
  status: ('A' for Active; 'I' for Inactive)
    1  A    between atoms: C_1  and  C_34
    2  A    between atoms: C_1  and  C_35
    3  A    between atoms: C_2  and  N_6
    4  A    between atoms: C_2  and  C_13
    5  A    between atoms: N_3  and  C_4
    6  A    between atoms: N_3  and  C_12
    7  A    between atoms: N_6  and  C_12
    8  A    between atoms: C_14  and  C_22
                            x       y       z     vdW  Elec       q    Type
                         _______ _______ _______ _____ _____    ______ ____

>  <TORSDO>
F 8

$$$$
=
 OpenBabel11052420483D

 43 48  0  0  1  0  0  0  0  0999 V2000
  183.9620  178.6660  143.6650 C   0  0  0  0  0  0  0  0  0  0  0  0
  188.0060  176.2950  145.6690 C   0  0  2  0  0  3  0  0  0  0  0  0
  189.1570  174.9030  143.5340 C   0  0  0  0  0  0  0  0  0  0  0  0
  185.7210  177.9300  145.1630 C   0  0  0  0  0  0  0  0  0  0  0  0
  184.6870  178.1890  142.5700 C   0  0  0  0  0  3  0  0  0  0  0  0
  182.7580  179.2560  143.4740 F   0  0  0  0  0  0  0  0  0  0  0  0
  186.4410  177.4130  144.0580 C   0  0  0  0  0  0  0  0  0  0  0  0
  184.4760  178.5340  144.9580 C   0  0  0  0  0  3  0  0  0  0  0  0
  185.9250  177.5740  142.7650 C   0  0  0  0  0  3  0  0  0  0  0  0
  188.1030  175.7980  143.3130 O   0  0  0  0  0  0  0  0  0  0  0  0
  187.8170  176.8310  144.2540 C   0  0  2  0  0  3  0  0  0  0  0  0
  187.6980  177.4170  146.6540 C   0  0  0  0  0  2  0  0  0  0  0  0
  189.4430  175.7870  145.7920 C   0  0  2  0  0  3  0  0  0  0  0  0
  189.7720  174.8840  144.6840 N   0  0  0  0  0  0  0  0  0  0  0  0
  186.2090  177.7510  146.5800 C   0  0  0  0  0  2  0  0  0  0  0  0
  189.5570  173.9680  142.4370 C   0  0  1  0  0  3  0  0  0  0  0  0
  188.3890  173.7750  141.4870 C   0  0  0  0  0  1  0  0  0  0  0  0
  190.7130  174.4840  141.7110 N   0  0  0  0  0  2  0  0  0  0  0  0
  192.0240  173.9320  141.8380 C   0  0  0  0  0  0  0  0  0  0  0  0
  192.1660  172.3730  142.3220 S   0  0  0  0  0  0  0  0  0  0  0  0
  193.1740  174.7390  141.5320 N   0  0  0  0  0  2  0  0  0  0  0  0
  194.5790  174.3470  141.6030 C   0  0  1  0  0  3  0  0  0  0  0  0
  197.1970  175.6760  139.6170 C   0  0  0  0  0  2  0  0  0  0  0  0
  195.2310  174.5500  140.3560 O   0  0  0  0  0  0  0  0  0  0  0  0
  195.3670  175.1950  142.6220 C   0  0  2  0  0  3  0  0  0  0  0  0
  196.4730  175.7040  141.8860 O   0  0  0  0  0  0  0  0  0  0  0  0
  196.3500  175.3230  140.5680 C   0  0  0  0  0  0  0  0  0  0  0  0
  197.1020  174.5710  144.3470 C   0  0  0  0  0  3  0  0  0  0  0  0
  195.8380  174.3650  143.7720 C   0  0  0  0  0  0  0  0  0  0  0  0
  194.5640  171.6850  145.9160 F   0  0  0  0  0  0  0  0  0  0  0  0
  196.6570  172.8260  145.9660 C   0  0  0  0  0  3  0  0  0  0  0  0
  195.4000  172.6180  145.3930 C   0  0  0  0  0  0  0  0  0  0  0  0
  197.5100  173.8020  145.4410 C   0  0  0  0  0  3  0  0  0  0  0  0
  194.9900  173.3880  144.3020 C   0  0  0  0  0  3  0  0  0  0  0  0
  189.6300  175.0560  147.1140 C   0  0  0  0  0  2  0  0  0  0  0  0
  192.8210  177.0590  147.3090 C   0  0  0  0  0  2  0  0  0  0  0  0
  193.4320  175.9760  146.4150 C   0  0  0  0  0  0  0  0  0  0  0  0
  193.5250  176.4510  145.1200 F   0  0  0  0  0  0  0  0  0  0  0  0
  191.9440  174.5340  147.6690 O   0  0  0  0  0  0  0  0  0  0  0  0
  191.3040  176.9200  147.3680 C   0  0  0  0  0  2  0  0  0  0  0  0
  190.9110  175.4990  147.8110 C   0  0  1  0  0  3  0  0  0  0  0  0
  194.6990  175.6780  146.8790 F   0  0  0  0  0  0  0  0  0  0  0  0
  192.5760  174.7040  146.4200 C   0  0  0  0  0  2  0  0  0  0  0  0
  1  8  1  0  0  0  0
  2 13  1  0  0  0  0
  2 12  1  1  0  0  0
  3 14  2  0  0  0  0
  4 15  1  0  0  0  0
  5  9  1  0  0  0  0
  5  1  2  0  0  0  0
  6  1  1  0  0  0  0
  7 11  1  0  0  0  0
  7  4  1  0  0  0  0
  8  4  2  0  0  0  0
  9  7  2  0  0  0  0
 10  3  1  0  0  0  0
 11 10  1  6  0  0  0
 11  2  1  0  0  0  0
 13 35  1  1  0  0  0
 14 13  1  0  0  0  0
 15 12  1  0  0  0  0
 16 17  1  6  0  0  0
 16  3  1  0  0  0  0
 18 19  1  0  0  0  0
 18 16  1  0  0  0  0
 19 20  2  0  0  0  0
 21 19  1  0  0  0  0
 22 21  1  6  0  0  0
 22 25  1  0  0  0  0
 23 27  2  0  0  0  0
 24 27  1  0  0  0  0
 24 22  1  0  0  0  0
 25 29  1  1  0  0  0
 26 25  1  0  0  0  0
 27 26  1  0  0  0  0
 28 33  1  0  0  0  0
 29 34  1  0  0  0  0
 29 28  2  0  0  0  0
 32 30  1  0  0  0  0
 32 31  1  0  0  0  0
 33 31  2  0  0  0  0
 34 32  2  0  0  0  0
 36 40  1  0  0  0  0
 37 43  1  0  0  0  0
 37 42  1  0  0  0  0
 37 36  1  0  0  0  0
 38 37  1  0  0  0  0
 39 41  1  0  0  0  0
 40 41  1  0  0  0  0
 41 35  1  6  0  0  0
 43 39  1  0  0  0  0
M  END
>  <MODEL>
5

>  <REMARK>
 VINA RESULT:      -8.5      2.759      8.015
  Name = 
  8 active torsions:
  status: ('A' for Active; 'I' for Inactive)
    1  A    between atoms: C_1  and  C_34
    2  A    between atoms: C_1  and  C_35
    3  A    between atoms: C_2  and  N_6
    4  A    between atoms: C_2  and  C_13
    5  A    between atoms: N_3  and  C_4
    6  A    between atoms: N_3  and  C_12
    7  A    between atoms: N_6  and  C_12
    8  A    between atoms: C_14  and  C_22
                            x       y       z     vdW  Elec       q    Type
                         _______ _______ _______ _____ _____    ______ ____

>  <TORSDO>
F 8

$$$$
=
 OpenBabel11052420483D

 43 48  0  0  1  0  0  0  0  0999 V2000
  188.5530  177.4460  145.1370 C   0  0  0  0  0  0  0  0  0  0  0  0
  193.3270  175.6820  145.4380 C   0  0  2  0  0  3  0  0  0  0  0  0
  194.3890  176.0360  142.8750 C   0  0  0  0  0  0  0  0  0  0  0  0
  190.6680  176.5830  145.9530 C   0  0  0  0  0  0  0  0  0  0  0  0
  189.1710  177.8560  143.9540 C   0  0  0  0  0  3  0  0  0  0  0  0
  187.2290  177.6650  145.3210 F   0  0  0  0  0  0  0  0  0  0  0  0
  191.2880  176.9660  144.7390 C   0  0  0  0  0  0  0  0  0  0  0  0
  189.2990  176.8080  146.1330 C   0  0  0  0  0  3  0  0  0  0  0  0
  190.5340  177.6250  143.7590 C   0  0  0  0  0  3  0  0  0  0  0  0
  193.1320  176.5580  143.2010 O   0  0  0  0  0  0  0  0  0  0  0  0
  192.7750  176.8010  144.5620 C   0  0  2  0  0  3  0  0  0  0  0  0
  192.9360  175.9660  146.8840 C   0  0  0  0  0  2  0  0  0  0  0  0
  194.8420  175.6330  145.2400 C   0  0  2  0  0  3  0  0  0  0  0  0
  195.1800  175.5950  143.8140 N   0  0  0  0  0  0  0  0  0  0  0  0
  191.4210  175.8350  147.0260 C   0  0  0  0  0  2  0  0  0  0  0  0
  194.8050  175.9880  141.4390 C   0  0  1  0  0  3  0  0  0  0  0  0
  196.0770  176.7940  141.2540 C   0  0  0  0  0  1  0  0  0  0  0  0
  195.0160  174.6110  141.0060 N   0  0  0  0  0  2  0  0  0  0  0  0
  194.3740  174.0450  139.8630 C   0  0  0  0  0  0  0  0  0  0  0  0
  195.2360  173.0210  138.9170 S   0  0  0  0  0  0  0  0  0  0  0  0
  193.0020  174.3680  139.5780 N   0  0  0  0  0  2  0  0  0  0  0  0
  191.8190  173.5690  139.8840 C   0  0  1  0  0  3  0  0  0  0  0  0
  191.0040  170.4430  138.4250 C   0  0  0  0  0  2  0  0  0  0  0  0
  191.4490  172.7580  138.7760 O   0  0  0  0  0  0  0  0  0  0  0  0
  192.0660  172.5880  141.0480 C   0  0  2  0  0  3  0  0  0  0  0  0
  191.6910  171.3160  140.5320 O   0  0  0  0  0  0  0  0  0  0  0  0
  191.3550  171.4520  139.2030 C   0  0  0  0  0  0  0  0  0  0  0  0
  191.6000  172.5130  143.5280 C   0  0  0  0  0  3  0  0  0  0  0  0
  191.2360  172.9370  142.2400 C   0  0  0  0  0  0  0  0  0  0  0  0
  188.2210  174.8670  143.0050 F   0  0  0  0  0  0  0  0  0  0  0  0
  189.6820  173.6640  144.4550 C   0  0  0  0  0  3  0  0  0  0  0  0
  189.3170  174.0850  143.1740 C   0  0  0  0  0  0  0  0  0  0  0  0
  190.8230  172.8750  144.6320 C   0  0  0  0  0  3  0  0  0  0  0  0
  190.0940  173.7260  142.0700 C   0  0  0  0  0  3  0  0  0  0  0  0
  195.4230  174.4070  145.9320 C   0  0  0  0  0  2  0  0  0  0  0  0
  194.8090  170.7160  145.4510 C   0  0  0  0  0  2  0  0  0  0  0  0
  196.2830  170.5300  145.8230 C   0  0  0  0  0  0  0  0  0  0  0  0
  196.3710  170.0750  147.1260 F   0  0  0  0  0  0  0  0  0  0  0  0
  196.5260  172.6430  144.6650 O   0  0  0  0  0  0  0  0  0  0  0  0
  194.3490  172.1360  145.7590 C   0  0  0  0  0  2  0  0  0  0  0  0
  195.2660  173.1610  145.0670 C   0  0  1  0  0  3  0  0  0  0  0  0
  196.8410  169.5890  144.9780 F   0  0  0  0  0  0  0  0  0  0  0  0
  197.0580  171.8470  145.7010 C   0  0  0  0  0  2  0  0  0  0  0  0
  1  6  1  0  0  0  0
  1  8  1  0  0  0  0
  2 12  1  1  0  0  0
  3 10  1  0  0  0  0
  3 14  2  0  0  0  0
  4  8  2  0  0  0  0
  4 15  1  0  0  0  0
  5  1  2  0  0  0  0
  7  4  1  0  0  0  0
  9  5  1  0  0  0  0
  9  7  2  0  0  0  0
 11 10  1  6  0  0  0
 11  7  1  0  0  0  0
 11  2  1  0  0  0  0
 12 15  1  0  0  0  0
 13  2  1  0  0  0  0
 13 35  1  1  0  0  0
 14 13  1  0  0  0  0
 16 17  1  1  0  0  0
 16  3  1  0  0  0  0
 18 16  1  0  0  0  0
 19 18  1  0  0  0  0
 20 19  2  0  0  0  0
 21 19  1  0  0  0  0
 22 21  1  6  0  0  0
 22 25  1  0  0  0  0
 23 27  2  0  0  0  0
 24 27  1  0  0  0  0
 24 22  1  0  0  0  0
 25 29  1  1  0  0  0
 26 25  1  0  0  0  0
 27 26  1  0  0  0  0
 28 33  1  0  0  0  0
 29 28  2  0  0  0  0
 30 32  1  0  0  0  0
 31 33  2  0  0  0  0
 32 31  1  0  0  0  0
 34 29  1  0  0  0  0
 34 32  2  0  0  0  0
 36 40  1  0  0  0  0
 36 37  1  0  0  0  0
 37 38  1  0  0  0  0
 39 41  1  0  0  0  0
 39 43  1  0  0  0  0
 41 40  1  0  0  0  0
 41 35  1  1  0  0  0
 42 37  1  0  0  0  0
 43 37  1  0  0  0  0
M  END
>  <MODEL>
6

>  <REMARK>
 VINA RESULT:      -8.5      3.592      7.220
  Name = 
  8 active torsions:
  status: ('A' for Active; 'I' for Inactive)
    1  A    between atoms: C_1  and  C_34
    2  A    between atoms: C_1  and  C_35
    3  A    between atoms: C_2  and  N_6
    4  A    between atoms: C_2  and  C_13
    5  A    between atoms: N_3  and  C_4
    6  A    between atoms: N_3  and  C_12
    7  A    between atoms: N_6  and  C_12
    8  A    between atoms: C_14  and  C_22
                            x       y       z     vdW  Elec       q    Type
                         _______ _______ _______ _____ _____    ______ ____

>  <TORSDO>
F 8

$$$$
=
 OpenBabel11052420483D

 43 48  0  0  1  0  0  0  0  0999 V2000
  188.4350  175.8000  146.0900 C   0  0  0  0  0  0  0  0  0  0  0  0
  191.2460  173.4970  142.5150 C   0  0  2  0  0  3  0  0  0  0  0  0
  192.7940  171.6290  143.9070 C   0  0  0  0  0  0  0  0  0  0  0  0
  189.3560  175.0640  143.9710 C   0  0  0  0  0  0  0  0  0  0  0  0
  189.0080  174.6980  146.7290 C   0  0  0  0  0  3  0  0  0  0  0  0
  187.7070  176.6920  146.8030 F   0  0  0  0  0  0  0  0  0  0  0  0
  189.9700  173.9660  144.6230 C   0  0  0  0  0  0  0  0  0  0  0  0
  188.6110  175.9840  144.7160 C   0  0  0  0  0  3  0  0  0  0  0  0
  189.7650  173.7800  145.9970 C   0  0  0  0  0  3  0  0  0  0  0  0
  191.7820  172.3420  144.5620 O   0  0  0  0  0  0  0  0  0  0  0  0
  190.7100  172.9260  143.8230 C   0  0  2  0  0  3  0  0  0  0  0  0
  190.0830  174.1110  141.7440 C   0  0  0  0  0  2  0  0  0  0  0  0
  191.9210  172.3590  141.7470 C   0  0  2  0  0  3  0  0  0  0  0  0
  192.8710  171.6440  142.6060 N   0  0  0  0  0  0  0  0  0  0  0  0
  189.5740  175.3350  142.5020 C   0  0  0  0  0  2  0  0  0  0  0  0
  193.7840  170.8600  144.7240 C   0  0  1  0  0  3  0  0  0  0  0  0
  193.3680  169.4020  144.7800 C   0  0  0  0  0  1  0  0  0  0  0  0
  195.1240  170.9770  144.1600 N   0  0  0  0  0  2  0  0  0  0  0  0
  196.2070  171.6090  144.8440 C   0  0  0  0  0  0  0  0  0  0  0  0
  197.7300  171.0900  144.5330 S   0  0  0  0  0  0  0  0  0  0  0  0
  195.9440  172.6800  145.7670 N   0  0  0  0  0  2  0  0  0  0  0  0
  195.9400  174.1130  145.4880 C   0  0  1  0  0  3  0  0  0  0  0  0
  197.9380  175.7490  143.0590 C   0  0  0  0  0  2  0  0  0  0  0  0
  197.1950  174.5380  144.9720 O   0  0  0  0  0  0  0  0  0  0  0  0
  194.9040  174.4910  144.4090 C   0  0  2  0  0  3  0  0  0  0  0  0
  195.6470  175.2110  143.4330 O   0  0  0  0  0  0  0  0  0  0  0  0
  196.9790  175.2010  143.7860 C   0  0  0  0  0  0  0  0  0  0  0  0
  193.4320  175.2340  146.3210 C   0  0  0  0  0  3  0  0  0  0  0  0
  193.8150  175.3440  144.9750 C   0  0  0  0  0  0  0  0  0  0  0  0
  191.6000  178.0430  143.8730 F   0  0  0  0  0  0  0  0  0  0  0  0
  191.8100  177.0050  146.0100 C   0  0  0  0  0  3  0  0  0  0  0  0
  192.1880  177.1140  144.6690 C   0  0  0  0  0  0  0  0  0  0  0  0
  192.4300  176.0620  146.8360 C   0  0  0  0  0  3  0  0  0  0  0  0
  193.1910  176.2890  144.1540 C   0  0  0  0  0  3  0  0  0  0  0  0
  192.6520  172.9090  140.5300 C   0  0  0  0  0  2  0  0  0  0  0  0
  195.2050  175.6560  140.1280 C   0  0  0  0  0  2  0  0  0  0  0  0
  195.8150  174.7850  139.0260 C   0  0  0  0  0  0  0  0  0  0  0  0
  195.4610  175.2960  137.7910 F   0  0  0  0  0  0  0  0  0  0  0  0
  195.0860  172.9840  140.4710 O   0  0  0  0  0  0  0  0  0  0  0  0
  193.8330  175.1330  140.5350 C   0  0  0  0  0  2  0  0  0  0  0  0
  193.9210  173.6490  140.9370 C   0  0  1  0  0  3  0  0  0  0  0  0
  197.1920  174.8110  139.1470 F   0  0  0  0  0  0  0  0  0  0  0  0
  195.3220  173.3370  139.1260 C   0  0  0  0  0  2  0  0  0  0  0  0
  1  5  1  0  0  0  0
  1  6  1  0  0  0  0
  2 12  1  6  0  0  0
  2 11  1  0  0  0  0
  3 10  1  0  0  0  0
  3 16  1  0  0  0  0
  4  7  2  0  0  0  0
  4  8  1  0  0  0  0
  7  9  1  0  0  0  0
  8  1  2  0  0  0  0
  9  5  2  0  0  0  0
 11 10  1  1  0  0  0
 11  7  1  0  0  0  0
 12 15  1  0  0  0  0
 13 35  1  6  0  0  0
 13  2  1  0  0  0  0
 13 14  1  0  0  0  0
 14  3  2  0  0  0  0
 15  4  1  0  0  0  0
 16 17  1  6  0  0  0
 18 16  1  0  0  0  0
 18 19  1  0  0  0  0
 19 21  1  0  0  0  0
 20 19  2  0  0  0  0
 22 21  1  6  0  0  0
 23 27  2  0  0  0  0
 24 22  1  0  0  0  0
 25 29  1  1  0  0  0
 25 22  1  0  0  0  0
 26 27  1  0  0  0  0
 26 25  1  0  0  0  0
 27 24  1  0  0  0  0
 28 33  1  0  0  0  0
 29 28  2  0  0  0  0
 30 32  1  0  0  0  0
 31 33  2  0  0  0  0
 32 31  1  0  0  0  0
 34 32  2  0  0  0  0
 34 29  1  0  0  0  0
 36 40  1  0  0  0  0
 37 43  1  0  0  0  0
 37 42  1  0  0  0  0
 37 36  1  0  0  0  0
 38 37  1  0  0  0  0
 39 41  1  0  0  0  0
 40 41  1  0  0  0  0
 41 35  1  6  0  0  0
 43 39  1  0  0  0  0
M  END
>  <MODEL>
7

>  <REMARK>
 VINA RESULT:      -8.4      3.796      8.041
  Name = 
  8 active torsions:
  status: ('A' for Active; 'I' for Inactive)
    1  A    between atoms: C_1  and  C_34
    2  A    between atoms: C_1  and  C_35
    3  A    between atoms: C_2  and  N_6
    4  A    between atoms: C_2  and  C_13
    5  A    between atoms: N_3  and  C_4
    6  A    between atoms: N_3  and  C_12
    7  A    between atoms: N_6  and  C_12
    8  A    between atoms: C_14  and  C_22
                            x       y       z     vdW  Elec       q    Type
                         _______ _______ _______ _____ _____    ______ ____

>  <TORSDO>
F 8

$$$$
=
 OpenBabel11052420483D

 43 48  0  0  1  0  0  0  0  0999 V2000
  186.1200  178.8110  144.1850 C   0  0  0  0  0  0  0  0  0  0  0  0
  188.7370  175.2970  141.5790 C   0  0  2  0  0  3  0  0  0  0  0  0
  189.7530  173.5640  143.5250 C   0  0  0  0  0  0  0  0  0  0  0  0
  187.0680  177.4590  142.4090 C   0  0  0  0  0  0  0  0  0  0  0  0
  186.4040  177.8050  145.1110 C   0  0  0  0  0  3  0  0  0  0  0  0
  185.5200  179.9550  144.5920 F   0  0  0  0  0  0  0  0  0  0  0  0
  187.3910  176.4530  143.3520 C   0  0  0  0  0  0  0  0  0  0  0  0
  186.4530  178.6400  142.8380 C   0  0  0  0  0  3  0  0  0  0  0  0
  187.0290  176.6270  144.6950 C   0  0  0  0  0  3  0  0  0  0  0  0
  188.8450  174.5720  143.8740 O   0  0  0  0  0  0  0  0  0  0  0  0
  187.9810  175.1450  142.8940 C   0  0  2  0  0  3  0  0  0  0  0  0
  187.7930  175.9070  140.5490 C   0  0  0  0  0  2  0  0  0  0  0  0
  189.2420  173.9150  141.1630 C   0  0  2  0  0  3  0  0  0  0  0  0
  189.9500  173.2640  142.2710 N   0  0  0  0  0  0  0  0  0  0  0  0
  187.4680  177.3420  140.9580 C   0  0  0  0  0  2  0  0  0  0  0  0
  190.4930  172.8460  144.6090 C   0  0  1  0  0  3  0  0  0  0  0  0
  189.5230  171.9860  145.3980 C   0  0  0  0  0  1  0  0  0  0  0  0
  191.5570  172.0190  144.0500 N   0  0  0  0  0  2  0  0  0  0  0  0
  192.9390  172.2200  144.3460 C   0  0  0  0  0  0  0  0  0  0  0  0
  194.0470  171.3720  143.4870 S   0  0  0  0  0  0  0  0  0  0  0  0
  193.3250  173.1570  145.3660 N   0  0  0  0  0  2  0  0  0  0  0  0
  193.7050  174.5570  145.1890 C   0  0  1  0  0  3  0  0  0  0  0  0
  196.7420  175.7090  143.7690 C   0  0  0  0  0  2  0  0  0  0  0  0
  195.1180  174.7080  145.1990 O   0  0  0  0  0  0  0  0  0  0  0  0
  193.2410  175.1160  143.8280 C   0  0  2  0  0  3  0  0  0  0  0  0
  194.4200  175.6520  143.2390 O   0  0  0  0  0  0  0  0  0  0  0  0
  195.4940  175.3800  144.0580 C   0  0  0  0  0  0  0  0  0  0  0  0
  191.8290  177.0070  142.9300 C   0  0  0  0  0  3  0  0  0  0  0  0
  192.2080  176.1820  144.0010 C   0  0  0  0  0  0  0  0  0  0  0  0
  189.9900  177.4430  146.6260 F   0  0  0  0  0  0  0  0  0  0  0  0
  190.2240  178.1290  144.3540 C   0  0  0  0  0  3  0  0  0  0  0  0
  190.6020  177.3110  145.4220 C   0  0  0  0  0  0  0  0  0  0  0  0
  190.8410  177.9790  143.1080 C   0  0  0  0  0  3  0  0  0  0  0  0
  191.5880  176.3370  145.2450 C   0  0  0  0  0  3  0  0  0  0  0  0
  190.1750  174.0340  139.9660 C   0  0  0  0  0  2  0  0  0  0  0  0
  191.0060  171.9330  136.9460 C   0  0  0  0  0  2  0  0  0  0  0  0
  189.6120  172.3040  136.4340 C   0  0  0  0  0  0  0  0  0  0  0  0
  189.7280  173.2780  135.4590 F   0  0  0  0  0  0  0  0  0  0  0  0
  189.0580  172.2170  138.7900 O   0  0  0  0  0  0  0  0  0  0  0  0
  191.3910  172.7940  138.1430 C   0  0  0  0  0  2  0  0  0  0  0  0
  190.3150  172.7010  139.2410 C   0  0  1  0  0  3  0  0  0  0  0  0
  189.0250  171.1810  135.8830 F   0  0  0  0  0  0  0  0  0  0  0  0
  188.7270  172.8370  137.5670 C   0  0  0  0  0  2  0  0  0  0  0  0
  1  6  1  0  0  0  0
  1  5  1  0  0  0  0
  2 12  1  6  0  0  0
  2 11  1  0  0  0  0
  3 10  1  0  0  0  0
  3 16  1  0  0  0  0
  4  8  1  0  0  0  0
  4  7  2  0  0  0  0
  7  9  1  0  0  0  0
  8  1  2  0  0  0  0
  9  5  2  0  0  0  0
 11  7  1  1  0  0  0
 11 10  1  0  0  0  0
 12 15  1  0  0  0  0
 13 35  1  6  0  0  0
 13  2  1  0  0  0  0
 13 14  1  0  0  0  0
 14  3  2  0  0  0  0
 15  4  1  0  0  0  0
 16 17  1  6  0  0  0
 18 19  1  0  0  0  0
 18 16  1  0  0  0  0
 19 21  1  0  0  0  0
 20 19  2  0  0  0  0
 22 24  1  0  0  0  0
 22 21  1  6  0  0  0
 23 27  2  0  0  0  0
 25 29  1  1  0  0  0
 25 22  1  0  0  0  0
 26 25  1  0  0  0  0
 26 27  1  0  0  0  0
 27 24  1  0  0  0  0
 28 33  2  0  0  0  0
 28 29  1  0  0  0  0
 29 34  2  0  0  0  0
 31 32  2  0  0  0  0
 32 30  1  0  0  0  0
 33 31  1  0  0  0  0
 34 32  1  0  0  0  0
 36 40  1  0  0  0  0
 37 36  1  0  0  0  0
 37 43  1  0  0  0  0
 38 37  1  0  0  0  0
 39 41  1  0  0  0  0
 40 41  1  0  0  0  0
 41 35  1  6  0  0  0
 42 37  1  0  0  0  0
 43 39  1  0  0  0  0
M  END
>  <MODEL>
8

>  <REMARK>
 VINA RESULT:      -8.4      3.401      7.745
  Name = 
  8 active torsions:
  status: ('A' for Active; 'I' for Inactive)
    1  A    between atoms: C_1  and  C_34
    2  A    between atoms: C_1  and  C_35
    3  A    between atoms: C_2  and  N_6
    4  A    between atoms: C_2  and  C_13
    5  A    between atoms: N_3  and  C_4
    6  A    between atoms: N_3  and  C_12
    7  A    between atoms: N_6  and  C_12
    8  A    between atoms: C_14  and  C_22
                            x       y       z     vdW  Elec       q    Type
                         _______ _______ _______ _____ _____    ______ ____

>  <TORSDO>
F 8

$$$$
=
 OpenBabel11052420483D

 43 48  0  0  1  0  0  0  0  0999 V2000
  184.7120  178.3240  145.9340 C   0  0  0  0  0  0  0  0  0  0  0  0
  188.5880  175.8920  143.6870 C   0  0  2  0  0  3  0  0  0  0  0  0
  190.6140  175.8300  145.6130 C   0  0  0  0  0  0  0  0  0  0  0  0
  186.0750  177.0540  144.3810 C   0  0  0  0  0  0  0  0  0  0  0  0
  185.6200  178.0550  146.9610 C   0  0  0  0  0  3  0  0  0  0  0  0
  183.6080  179.0680  146.1850 F   0  0  0  0  0  0  0  0  0  0  0  0
  187.0160  176.8110  145.4120 C   0  0  0  0  0  0  0  0  0  0  0  0
  184.9400  177.8270  144.6480 C   0  0  0  0  0  3  0  0  0  0  0  0
  186.7630  177.2940  146.7030 C   0  0  0  0  0  3  0  0  0  0  0  0
  189.3340  176.2920  145.9430 O   0  0  0  0  0  0  0  0  0  0  0  0
  188.2020  175.9160  145.1610 C   0  0  2  0  0  3  0  0  0  0  0  0
  187.3640  175.4850  142.8740 C   0  0  0  0  0  2  0  0  0  0  0  0
  189.7510  174.9140  143.5210 C   0  0  2  0  0  3  0  0  0  0  0  0
  190.8160  175.2030  144.4880 N   0  0  0  0  0  0  0  0  0  0  0  0
  186.3150  176.5920  142.9650 C   0  0  0  0  0  2  0  0  0  0  0  0
  191.7410  176.0730  146.5660 C   0  0  1  0  0  3  0  0  0  0  0  0
  191.2840  175.7610  147.9790 C   0  0  0  0  0  1  0  0  0  0  0  0
  192.8980  175.2530  146.2220 N   0  0  0  0  0  2  0  0  0  0  0  0
  194.2310  175.7640  146.1770 C   0  0  0  0  0  0  0  0  0  0  0  0
  194.4470  177.3340  145.7620 S   0  0  0  0  0  0  0  0  0  0  0  0
  195.3380  174.9070  146.5050 N   0  0  0  0  0  2  0  0  0  0  0  0
  196.2840  174.2850  145.5810 C   0  0  1  0  0  3  0  0  0  0  0  0
  197.1880  170.8570  145.5470 C   0  0  0  0  0  2  0  0  0  0  0  0
  196.8920  173.1400  146.1650 O   0  0  0  0  0  0  0  0  0  0  0  0
  195.5940  173.7760  144.3000 C   0  0  2  0  0  3  0  0  0  0  0  0
  195.9790  172.4100  144.2030 O   0  0  0  0  0  0  0  0  0  0  0  0
  196.7180  172.0710  145.3150 C   0  0  0  0  0  0  0  0  0  0  0  0
  197.2800  174.2540  142.4820 C   0  0  0  0  0  3  0  0  0  0  0  0
  196.0500  174.5370  143.0960 C   0  0  0  0  0  0  0  0  0  0  0  0
  194.7970  177.1760  140.8910 F   0  0  0  0  0  0  0  0  0  0  0  0
  196.8390  175.9470  140.8080 C   0  0  0  0  0  3  0  0  0  0  0  0
  195.6150  176.2320  141.4200 C   0  0  0  0  0  0  0  0  0  0  0  0
  197.6730  174.9590  141.3410 C   0  0  0  0  0  3  0  0  0  0  0  0
  195.2200  175.5250  142.5590 C   0  0  0  0  0  3  0  0  0  0  0  0
  190.3130  175.0000  142.1080 C   0  0  0  0  0  2  0  0  0  0  0  0
  190.2660  171.2300  142.2190 C   0  0  0  0  0  2  0  0  0  0  0  0
  191.7380  171.3280  142.6290 C   0  0  0  0  0  0  0  0  0  0  0  0
  191.8490  171.1020  143.9880 F   0  0  0  0  0  0  0  0  0  0  0  0
  191.7050  173.2450  141.1500 O   0  0  0  0  0  0  0  0  0  0  0  0
  189.5910  172.5950  142.2910 C   0  0  0  0  0  2  0  0  0  0  0  0
  190.3700  173.6250  141.4530 C   0  0  1  0  0  3  0  0  0  0  0  0
  192.4550  170.3610  141.9500 F   0  0  0  0  0  0  0  0  0  0  0  0
  192.3140  172.7110  142.3040 C   0  0  0  0  0  2  0  0  0  0  0  0
  1  6  1  0  0  0  0
  1  5  1  0  0  0  0
  2 12  1  6  0  0  0
  2 11  1  0  0  0  0
  3 10  1  0  0  0  0
  3 16  1  0  0  0  0
  4  8  1  0  0  0  0
  4  7  2  0  0  0  0
  7  9  1  0  0  0  0
  8  1  2  0  0  0  0
  9  5  2  0  0  0  0
 11  7  1  6  0  0  0
 11 10  1  0  0  0  0
 12 15  1  0  0  0  0
 13 35  1  6  0  0  0
 13  2  1  0  0  0  0
 13 14  1  0  0  0  0
 14  3  2  0  0  0  0
 15  4  1  0  0  0  0
 16 17  1  1  0  0  0
 18 16  1  0  0  0  0
 19 18  1  0  0  0  0
 19 21  1  0  0  0  0
 20 19  2  0  0  0  0
 22 24  1  0  0  0  0
 22 21  1  1  0  0  0
 25 29  1  6  0  0  0
 25 22  1  0  0  0  0
 26 25  1  0  0  0  0
 26 27  1  0  0  0  0
 27 23  2  0  0  0  0
 27 24  1  0  0  0  0
 28 29  1  0  0  0  0
 30 32  1  0  0  0  0
 31 33  1  0  0  0  0
 31 32  2  0  0  0  0
 32 34  1  0  0  0  0
 33 28  2  0  0  0  0
 34 29  2  0  0  0  0
 36 40  1  0  0  0  0
 36 37  1  0  0  0  0
 37 38  1  0  0  0  0
 39 41  1  0  0  0  0
 39 43  1  0  0  0  0
 41 35  1  1  0  0  0
 41 40  1  0  0  0  0
 42 37  1  0  0  0  0
 43 37  1  0  0  0  0
M  END
>  <MODEL>
9

>  <REMARK>
 VINA RESULT:      -8.4      3.453      8.875
  Name = 
  8 active torsions:
  status: ('A' for Active; 'I' for Inactive)
    1  A    between atoms: C_1  and  C_34
    2  A    between atoms: C_1  and  C_35
    3  A    between atoms: C_2  and  N_6
    4  A    between atoms: C_2  and  C_13
    5  A    between atoms: N_3  and  C_4
    6  A    between atoms: N_3  and  C_12
    7  A    between atoms: N_6  and  C_12
    8  A    between atoms: C_14  and  C_22
                            x       y       z     vdW  Elec       q    Type
                         _______ _______ _______ _____ _____    ______ ____

>  <TORSDO>
F 8

$$$$
