=
 OpenBabel11052417373D

 25 28  0  0  1  0  0  0  0  0999 V2000
  188.8050  176.1610  144.1690 C   0  0  0  0  0  0  0  0  0  0  0  0
  187.8380  177.0050  143.6110 C   0  0  0  0  0  0  0  0  0  0  0  0
  188.6800  174.6640  142.3010 C   0  0  0  0  0  3  0  0  0  0  0  0
  189.5350  176.2480  145.4210 C   0  0  2  0  0  3  0  0  0  0  0  0
  185.9340  178.4600  144.3740 C   0  0  2  0  0  3  0  0  0  0  0  0
  191.1650  175.9310  147.6450 C   0  0  0  0  0  3  0  0  0  0  0  0
  187.7440  175.4800  141.7420 N   0  0  0  0  0  0  0  0  0  0  0  0
  190.3760  175.1540  145.5110 C   0  0  0  0  0  0  0  0  0  0  0  0
  191.2030  174.9720  146.6190 C   0  0  0  0  0  3  0  0  0  0  0  0
  186.2080  177.4270  141.6570 C   0  0  2  0  0  3  0  0  0  0  0  0
  186.2580  177.2860  140.1450 C   0  0  0  0  0  1  0  0  0  0  0  0
  187.4470  178.2630  144.3400 C   0  0  0  0  0  2  0  0  0  0  0  0
  190.3070  177.0440  147.5510 C   0  0  0  0  0  3  0  0  0  0  0  0
  189.2210  175.0120  143.5300 C   0  0  0  0  0  0  0  0  0  0  0  0
  190.2550  174.2620  144.3130 C   0  0  0  0  0  3  0  0  0  0  0  0
  186.2680  178.7860  141.9860 O   0  0  0  0  0  0  0  0  0  0  0  0
  189.4800  177.2110  146.4300 C   0  0  0  0  0  3  0  0  0  0  0  0
  185.3650  178.9690  143.0440 C   0  0  0  0  0  2  0  0  0  0  0  0
  187.3190  176.6420  142.3310 C   0  0  0  0  0  0  0  0  0  0  0  0
  185.4580  179.2980  145.5680 C   0  0  0  0  0  2  0  0  0  0  0  0
  184.0850  177.5080  146.4430 F   0  0  0  0  0  0  0  0  0  0  0  0
  184.9610  178.5200  146.7950 C   0  0  1  0  0  3  0  0  0  0  0  0
  186.0670  178.0070  147.6570 C   0  0  0  0  0  0  0  0  0  0  0  0
  186.8820  178.8910  148.3550 O   0  0  0  0  0  1  0  0  0  0  0  0
  186.2470  176.7670  147.7760 O   0  0  0  0  0  0  0  0  0  0  0  0
  1  4  1  0  0  0  0
  2  1  1  0  0  0  0
  2 12  1  0  0  0  0
  3 14  1  0  0  0  0
  4  8  1  0  0  0  0
  4 17  1  1  0  0  0
  5 20  1  1  0  0  0
  7  3  2  0  0  0  0
  7 19  1  0  0  0  0
  8  9  1  0  0  0  0
  9  6  2  0  0  0  0
 10 11  1  6  0  0  0
 10 16  1  0  0  0  0
 10 19  1  0  0  0  0
 12  5  1  0  0  0  0
 13  6  1  0  0  0  0
 14  1  2  0  0  0  0
 14 15  1  0  0  0  0
 15  8  2  0  0  0  0
 16 18  1  0  0  0  0
 17 13  2  0  0  0  0
 18  5  1  0  0  0  0
 19  2  2  0  0  0  0
 20 22  1  0  0  0  0
 22 21  1  6  0  0  0
 22 23  1  0  0  0  0
 23 25  2  0  0  0  0
 23 24  1  0  0  0  0
M  END
>  <MODEL>
1

>  <REMARK>
 VINA RESULT:      -8.0      0.000      0.000
  Name = 
  3 active torsions:
  status: ('A' for Active; 'I' for Inactive)
    1  A    between atoms: C_2  and  C_25
    2  A    between atoms: C_6  and  C_15
    3  A    between atoms: C_15  and  C_25
                            x       y       z     vdW  Elec       q    Type
                         _______ _______ _______ _____ _____    ______ ____

>  <TORSDO>
F 3

$$$$
=
 OpenBabel11052417373D

 25 28  0  0  1  0  0  0  0  0999 V2000
  187.1900  177.0890  143.5770 C   0  0  0  0  0  0  0  0  0  0  0  0
  188.0540  176.0610  143.1810 C   0  0  0  0  0  0  0  0  0  0  0  0
  186.5900  177.5560  141.3030 C   0  0  0  0  0  3  0  0  0  0  0  0
  186.8640  177.6040  144.8950 C   0  0  2  0  0  3  0  0  0  0  0  0
  190.2610  175.0780  143.8770 C   0  0  2  0  0  3  0  0  0  0  0  0
  185.9120  178.9450  147.1290 C   0  0  0  0  0  3  0  0  0  0  0  0
  187.4210  176.5540  140.9040 N   0  0  0  0  0  0  0  0  0  0  0  0
  185.9560  178.6360  144.7450 C   0  0  0  0  0  0  0  0  0  0  0  0
  185.4630  179.3250  145.8540 C   0  0  0  0  0  3  0  0  0  0  0  0
  189.0960  174.7520  141.2200 C   0  0  2  0  0  3  0  0  0  0  0  0
  188.6000  174.1830  139.9010 C   0  0  0  0  0  1  0  0  0  0  0  0
  188.7890  175.2710  144.2300 C   0  0  0  0  0  2  0  0  0  0  0  0
  186.8370  177.8940  147.2780 C   0  0  0  0  0  3  0  0  0  0  0  0
  186.4690  177.8240  142.6590 C   0  0  0  0  0  0  0  0  0  0  0  0
  185.6180  178.8740  143.3060 C   0  0  0  0  0  3  0  0  0  0  0  0
  189.3020  173.6980  142.1170 O   0  0  0  0  0  0  0  0  0  0  0  0
  187.3240  177.2120  146.1520 C   0  0  0  0  0  3  0  0  0  0  0  0
  190.4850  174.0010  142.8080 C   0  0  0  0  0  2  0  0  0  0  0  0
  188.1360  175.7830  141.7830 C   0  0  0  0  0  0  0  0  0  0  0  0
  191.1580  174.8720  145.1050 C   0  0  0  0  0  2  0  0  0  0  0  0
  190.9450  177.2650  145.3920 F   0  0  0  0  0  0  0  0  0  0  0  0
  191.3940  176.1020  145.9930 C   0  0  1  0  0  3  0  0  0  0  0  0
  190.8390  175.9510  147.3710 C   0  0  0  0  0  0  0  0  0  0  0  0
  189.8630  174.9980  147.6350 O   0  0  0  0  0  0  0  0  0  0  0  0
  191.2760  176.6730  148.3050 O   0  0  0  0  0  1  0  0  0  0  0  0
  1  4  1  0  0  0  0
  2  1  1  0  0  0  0
  2 12  1  0  0  0  0
  3 14  1  0  0  0  0
  4 17  1  6  0  0  0
  5 12  1  0  0  0  0
  5 20  1  1  0  0  0
  6 13  1  0  0  0  0
  7  3  2  0  0  0  0
  7 19  1  0  0  0  0
  8  4  1  0  0  0  0
  8  9  1  0  0  0  0
  9  6  2  0  0  0  0
 10 11  1  6  0  0  0
 10 19  1  0  0  0  0
 10 16  1  0  0  0  0
 14 15  1  0  0  0  0
 14  1  2  0  0  0  0
 15  8  2  0  0  0  0
 16 18  1  0  0  0  0
 17 13  2  0  0  0  0
 18  5  1  0  0  0  0
 19  2  2  0  0  0  0
 20 22  1  0  0  0  0
 22 21  1  6  0  0  0
 22 23  1  0  0  0  0
 23 24  2  0  0  0  0
 23 25  1  0  0  0  0
M  END
>  <MODEL>
2

>  <REMARK>
 VINA RESULT:      -7.8      2.469      4.958
  Name = 
  3 active torsions:
  status: ('A' for Active; 'I' for Inactive)
    1  A    between atoms: C_2  and  C_25
    2  A    between atoms: C_6  and  C_15
    3  A    between atoms: C_15  and  C_25
                            x       y       z     vdW  Elec       q    Type
                         _______ _______ _______ _____ _____    ______ ____

>  <TORSDO>
F 3

$$$$
=
 OpenBabel11052417373D

 25 28  0  0  1  0  0  0  0  0999 V2000
  187.4860  177.0970  144.0590 C   0  0  0  0  0  0  0  0  0  0  0  0
  188.4260  176.0780  143.8630 C   0  0  0  0  0  0  0  0  0  0  0  0
  187.2380  177.4190  141.6960 C   0  0  0  0  0  3  0  0  0  0  0  0
  186.9470  177.6720  145.2780 C   0  0  2  0  0  3  0  0  0  0  0  0
  190.5210  175.2080  144.9490 C   0  0  2  0  0  3  0  0  0  0  0  0
  185.6250  179.1010  147.2550 C   0  0  0  0  0  3  0  0  0  0  0  0
  188.1450  176.4240  141.4910 N   0  0  0  0  0  0  0  0  0  0  0  0
  186.0480  178.6640  144.9290 C   0  0  0  0  0  0  0  0  0  0  0  0
  185.3720  179.3960  145.9050 C   0  0  0  0  0  3  0  0  0  0  0  0
  189.7930  174.6980  142.1670 C   0  0  2  0  0  3  0  0  0  0  0  0
  189.5230  174.0420  140.8240 C   0  0  0  0  0  1  0  0  0  0  0  0
  189.0070  175.3720  145.0580 C   0  0  0  0  0  2  0  0  0  0  0  0
  186.5410  178.0920  147.6070 C   0  0  0  0  0  3  0  0  0  0  0  0
  186.9010  177.7570  142.9990 C   0  0  0  0  0  0  0  0  0  0  0  0
  185.9340  178.8120  143.4430 C   0  0  0  0  0  3  0  0  0  0  0  0
  189.8810  173.7020  143.1470 O   0  0  0  0  0  0  0  0  0  0  0  0
  187.2130  177.3650  146.6120 C   0  0  0  0  0  3  0  0  0  0  0  0
  190.9350  174.0820  143.9930 C   0  0  0  0  0  2  0  0  0  0  0  0
  188.7320  175.7270  142.5140 C   0  0  0  0  0  0  0  0  0  0  0  0
  191.2190  175.0990  146.3110 C   0  0  0  0  0  2  0  0  0  0  0  0
  191.7440  176.6600  148.0840 F   0  0  0  0  0  0  0  0  0  0  0  0
  192.0180  176.3270  146.7690 C   0  0  1  0  0  3  0  0  0  0  0  0
  193.4870  176.1980  146.5350 C   0  0  0  0  0  0  0  0  0  0  0  0
  194.0070  175.0490  145.9510 O   0  0  0  0  0  0  0  0  0  0  0  0
  194.2570  177.1450  146.8440 O   0  0  0  0  0  1  0  0  0  0  0  0
  1  4  1  0  0  0  0
  2  1  1  0  0  0  0
  2 12  1  0  0  0  0
  3 14  1  0  0  0  0
  4 17  1  1  0  0  0
  5 12  1  0  0  0  0
  5 20  1  1  0  0  0
  6 13  1  0  0  0  0
  7  3  2  0  0  0  0
  7 19  1  0  0  0  0
  8  4  1  0  0  0  0
  8  9  1  0  0  0  0
  9  6  2  0  0  0  0
 10 11  1  6  0  0  0
 10 19  1  0  0  0  0
 10 16  1  0  0  0  0
 14 15  1  0  0  0  0
 14  1  2  0  0  0  0
 15  8  2  0  0  0  0
 16 18  1  0  0  0  0
 17 13  2  0  0  0  0
 18  5  1  0  0  0  0
 19  2  2  0  0  0  0
 20 22  1  0  0  0  0
 22 21  1  1  0  0  0
 23 22  1  0  0  0  0
 23 25  1  0  0  0  0
 24 23  2  0  0  0  0
M  END
>  <MODEL>
3

>  <REMARK>
 VINA RESULT:      -7.6      3.199      5.559
  Name = 
  3 active torsions:
  status: ('A' for Active; 'I' for Inactive)
    1  A    between atoms: C_2  and  C_25
    2  A    between atoms: C_6  and  C_15
    3  A    between atoms: C_15  and  C_25
                            x       y       z     vdW  Elec       q    Type
                         _______ _______ _______ _____ _____    ______ ____

>  <TORSDO>
F 3

$$$$
=
 OpenBabel11052417373D

 25 28  0  0  1  0  0  0  0  0999 V2000
  186.9740  176.7340  144.5810 C   0  0  0  0  0  0  0  0  0  0  0  0
  188.1960  176.0610  144.6990 C   0  0  0  0  0  0  0  0  0  0  0  0
  186.6770  176.7580  146.9600 C   0  0  0  0  0  3  0  0  0  0  0  0
  186.2470  177.1880  143.4090 C   0  0  0  0  0  0  0  0  0  0  0  0
  189.5120  174.3090  143.4660 C   0  0  2  0  0  3  0  0  0  0  0  0
  184.4780  178.2360  141.5460 C   0  0  0  0  0  3  0  0  0  0  0  0
  187.8670  176.1100  147.0900 N   0  0  0  0  0  0  0  0  0  0  0  0
  185.0790  177.7970  143.8320 C   0  0  0  0  0  0  0  0  0  0  0  0
  184.1740  178.3300  142.9140 C   0  0  0  0  0  2  0  0  0  0  0  0
  189.9180  174.9730  146.2790 C   0  0  2  0  0  3  0  0  0  0  0  0
  190.5330  175.3160  147.6260 C   0  0  0  0  0  1  0  0  0  0  0  0
  188.9840  175.7400  143.4570 C   0  0  0  0  0  2  0  0  0  0  0  0
  185.6680  177.6160  141.1190 C   0  0  0  0  0  3  0  0  0  0  0  0
  186.2270  177.0790  145.6880 C   0  0  0  0  0  0  0  0  0  0  0  0
  184.9550  177.7840  145.3250 C   0  0  0  0  0  3  0  0  0  0  0  0
  190.8750  175.1880  145.2800 O   0  0  0  0  0  0  0  0  0  0  0  0
  186.5670  177.0830  142.0550 C   0  0  0  0  0  3  0  0  0  0  0  0
  190.7340  174.1260  144.3740 C   0  0  0  0  0  2  0  0  0  0  0  0
  188.6530  175.7710  146.0200 C   0  0  0  0  0  0  0  0  0  0  0  0
  189.7430  173.7390  142.0600 C   0  0  0  0  0  2  0  0  0  0  0  0
  187.3830  173.2100  142.1340 F   0  0  0  0  0  0  0  0  0  0  0  0
  188.5420  173.0490  141.3960 C   0  0  1  0  0  3  0  0  0  0  0  0
  188.3430  173.4510  139.9720 C   0  0  0  0  0  0  0  0  0  0  0  0
  188.1540  172.4860  138.9900 O   0  0  0  0  0  0  0  0  0  0  0  0
  188.3180  174.6710  139.6620 O   0  0  0  0  0  1  0  0  0  0  0  0
  1  2  2  0  0  0  0
  1 14  1  0  0  0  0
  2 19  1  0  0  0  0
  3  7  1  0  0  0  0
  4  8  1  0  0  0  0
  4  1  1  0  0  0  0
  5 20  1  6  0  0  0
  5 18  1  0  0  0  0
  6  9  1  0  0  0  0
  8 15  2  0  0  0  0
  9  8  1  0  0  0  0
 10 11  1  1  0  0  0
 12  5  1  0  0  0  0
 12  2  1  0  0  0  0
 13  6  2  0  0  0  0
 13 17  1  0  0  0  0
 14  3  2  0  0  0  0
 15 14  1  0  0  0  0
 16 10  1  0  0  0  0
 17  4  2  0  0  0  0
 18 16  1  0  0  0  0
 19 10  1  0  0  0  0
 19  7  2  0  0  0  0
 22 20  1  0  0  0  0
 22 21  1  1  0  0  0
 23 22  1  0  0  0  0
 24 23  2  0  0  0  0
 25 23  1  0  0  0  0
M  END
>  <MODEL>
4

>  <REMARK>
 VINA RESULT:      -7.6      2.994      6.861
  Name = 
  3 active torsions:
  status: ('A' for Active; 'I' for Inactive)
    1  A    between atoms: C_2  and  C_25
    2  A    between atoms: C_6  and  C_15
    3  A    between atoms: C_15  and  C_25
                            x       y       z     vdW  Elec       q    Type
                         _______ _______ _______ _____ _____    ______ ____

>  <TORSDO>
F 3

$$$$
=
 OpenBabel11052417373D

 25 28  0  0  1  0  0  0  0  0999 V2000
  187.5560  176.5200  145.6690 C   0  0  0  0  0  0  0  0  0  0  0  0
  188.5110  176.1010  144.7350 C   0  0  0  0  0  0  0  0  0  0  0  0
  188.5770  175.2170  147.4040 C   0  0  0  0  0  3  0  0  0  0  0  0
  186.4120  177.4030  145.5290 C   0  0  0  0  0  0  0  0  0  0  0  0
  188.6360  175.5280  142.2900 C   0  0  2  0  0  3  0  0  0  0  0  0
  184.1430  178.9760  145.8070 C   0  0  0  0  0  3  0  0  0  0  0  0
  189.5170  174.8070  146.5080 N   0  0  0  0  0  0  0  0  0  0  0  0
  185.7760  177.4870  146.7540 C   0  0  0  0  0  0  0  0  0  0  0  0
  184.6340  178.2710  146.9190 C   0  0  0  0  0  3  0  0  0  0  0  0
  190.5840  174.6390  144.2750 C   0  0  2  0  0  3  0  0  0  0  0  0
  191.8690  174.3040  145.0140 C   0  0  0  0  0  1  0  0  0  0  0  0
  188.4480  176.6310  143.3280 C   0  0  0  0  0  2  0  0  0  0  0  0
  184.7920  178.8870  144.5610 C   0  0  0  0  0  3  0  0  0  0  0  0
  187.5850  176.0890  146.9790 C   0  0  2  0  0  3  0  0  0  0  0  0
  186.4640  176.6570  147.7950 C   0  0  0  0  0  3  0  0  0  0  0  0
  190.8850  175.5110  143.2210 O   0  0  0  0  0  0  0  0  0  0  0  0
  185.9400  178.0940  144.4120 C   0  0  0  0  0  3  0  0  0  0  0  0
  190.0990  175.0920  142.1360 C   0  0  0  0  0  2  0  0  0  0  0  0
  189.5400  175.2300  145.2040 C   0  0  0  0  0  0  0  0  0  0  0  0
  187.9800  175.8470  140.9400 C   0  0  0  0  0  2  0  0  0  0  0  0
  188.1730  178.2500  140.7340 F   0  0  0  0  0  0  0  0  0  0  0  0
  187.2720  177.2040  140.8280 C   0  0  1  0  0  3  0  0  0  0  0  0
  186.2620  177.2550  139.7290 C   0  0  0  0  0  0  0  0  0  0  0  0
  186.5500  176.7080  138.4850 O   0  0  0  0  0  0  0  0  0  0  0  0
  185.1330  177.7720  139.9380 O   0  0  0  0  0  1  0  0  0  0  0  0
  1 14  1  0  0  0  0
  2 19  2  0  0  0  0
  2  1  1  0  0  0  0
  4  1  2  0  0  0  0
  4  8  1  0  0  0  0
  5 20  1  6  0  0  0
  5 12  1  0  0  0  0
  6  9  2  0  0  0  0
  7  3  2  0  0  0  0
  8  9  1  0  0  0  0
  8 15  2  0  0  0  0
 10 11  1  1  0  0  0
 10 19  1  0  0  0  0
 12  2  1  0  0  0  0
 13  6  1  0  0  0  0
 14  3  1  6  0  0  0
 14 15  1  0  0  0  0
 16 10  1  0  0  0  0
 17 13  2  0  0  0  0
 17  4  1  0  0  0  0
 18  5  1  0  0  0  0
 18 16  1  0  0  0  0
 19  7  1  0  0  0  0
 22 21  1  6  0  0  0
 22 20  1  0  0  0  0
 23 25  1  0  0  0  0
 23 22  1  0  0  0  0
 24 23  2  0  0  0  0
M  END
>  <MODEL>
5

>  <REMARK>
 VINA RESULT:      -7.6      2.970      5.980
  Name = 
  3 active torsions:
  status: ('A' for Active; 'I' for Inactive)
    1  A    between atoms: C_2  and  C_25
    2  A    between atoms: C_6  and  C_15
    3  A    between atoms: C_15  and  C_25
                            x       y       z     vdW  Elec       q    Type
                         _______ _______ _______ _____ _____    ______ ____

>  <TORSDO>
F 3

$$$$
=
 OpenBabel11052417373D

 25 28  0  0  1  0  0  0  0  0999 V2000
  188.1560  176.4290  144.8830 C   0  0  0  0  0  0  0  0  0  0  0  0
  188.9540  175.6300  144.0550 C   0  0  0  0  0  0  0  0  0  0  0  0
  188.9460  175.3030  146.8480 C   0  0  0  0  0  3  0  0  0  0  0  0
  187.2280  177.4980  144.5650 C   0  0  0  0  0  0  0  0  0  0  0  0
  188.8390  174.5670  141.7780 C   0  0  2  0  0  3  0  0  0  0  0  0
  185.3730  179.5620  144.5160 C   0  0  0  0  0  3  0  0  0  0  0  0
  189.7320  174.5240  146.0540 N   0  0  0  0  0  0  0  0  0  0  0  0
  186.6830  177.9650  145.7470 C   0  0  0  0  0  0  0  0  0  0  0  0
  185.7480  179.0000  145.7480 C   0  0  0  0  0  3  0  0  0  0  0  0
  190.6340  173.6800  143.9030 C   0  0  2  0  0  3  0  0  0  0  0  0
  191.8470  173.2210  144.6950 C   0  0  0  0  0  1  0  0  0  0  0  0
  188.9430  175.8690  142.5680 C   0  0  0  0  0  2  0  0  0  0  0  0
  185.9290  179.0840  143.3140 C   0  0  0  0  0  3  0  0  0  0  0  0
  188.1500  176.2720  146.2530 C   0  0  2  0  0  3  0  0  0  0  0  0
  187.2190  177.2270  146.9360 C   0  0  0  0  0  3  0  0  0  0  0  0
  191.0690  174.2350  142.6930 O   0  0  0  0  0  0  0  0  0  0  0  0
  186.8680  178.0410  143.3310 C   0  0  0  0  0  3  0  0  0  0  0  0
  190.1620  173.7940  141.7170 C   0  0  0  0  0  2  0  0  0  0  0  0
  189.7870  174.6620  144.6920 C   0  0  0  0  0  0  0  0  0  0  0  0
  188.2070  174.7490  140.3910 C   0  0  0  0  0  2  0  0  0  0  0  0
  187.8250  172.5260  139.5140 F   0  0  0  0  0  0  0  0  0  0  0  0
  188.5560  173.6880  139.3380 C   0  0  1  0  0  3  0  0  0  0  0  0
  188.4510  174.1900  137.9360 C   0  0  0  0  0  0  0  0  0  0  0  0
  187.4510  175.0890  137.5850 O   0  0  0  0  0  1  0  0  0  0  0  0
  189.2890  173.8190  137.0720 O   0  0  0  0  0  0  0  0  0  0  0  0
  1 14  1  0  0  0  0
  2 19  2  0  0  0  0
  2  1  1  0  0  0  0
  4  1  2  0  0  0  0
  4  8  1  0  0  0  0
  5 20  1  6  0  0  0
  5 12  1  0  0  0  0
  6  9  2  0  0  0  0
  7  3  2  0  0  0  0
  8  9  1  0  0  0  0
  8 15  2  0  0  0  0
 10 19  1  0  0  0  0
 10 11  1  1  0  0  0
 12  2  1  0  0  0  0
 13 17  2  0  0  0  0
 13  6  1  0  0  0  0
 14  3  1  6  0  0  0
 14 15  1  0  0  0  0
 16 10  1  0  0  0  0
 17  4  1  0  0  0  0
 18  5  1  0  0  0  0
 18 16  1  0  0  0  0
 19  7  1  0  0  0  0
 22 21  1  6  0  0  0
 22 20  1  0  0  0  0
 23 22  1  0  0  0  0
 24 23  1  0  0  0  0
 25 23  2  0  0  0  0
M  END
>  <MODEL>
6

>  <REMARK>
 VINA RESULT:      -7.4      3.588      6.772
  Name = 
  3 active torsions:
  status: ('A' for Active; 'I' for Inactive)
    1  A    between atoms: C_2  and  C_25
    2  A    between atoms: C_6  and  C_15
    3  A    between atoms: C_15  and  C_25
                            x       y       z     vdW  Elec       q    Type
                         _______ _______ _______ _____ _____    ______ ____

>  <TORSDO>
F 3

$$$$
=
 OpenBabel11052417373D

 25 28  0  0  1  0  0  0  0  0999 V2000
  186.4220  177.1040  143.8360 C   0  0  0  0  0  0  0  0  0  0  0  0
  187.5350  176.3720  143.4040 C   0  0  0  0  0  0  0  0  0  0  0  0
  185.6130  177.3360  141.5910 C   0  0  0  0  0  3  0  0  0  0  0  0
  186.0150  177.5200  145.1660 C   0  0  2  0  0  3  0  0  0  0  0  0
  189.9620  176.0980  144.0010 C   0  0  2  0  0  3  0  0  0  0  0  0
  184.8030  178.5530  147.4390 C   0  0  0  0  0  3  0  0  0  0  0  0
  186.6870  176.6190  141.1570 N   0  0  0  0  0  0  0  0  0  0  0  0
  184.8360  178.2330  145.0560 C   0  0  0  0  0  0  0  0  0  0  0  0
  184.2080  178.7630  146.1840 C   0  0  0  0  0  3  0  0  0  0  0  0
  188.8340  175.4000  141.4000 C   0  0  2  0  0  3  0  0  0  0  0  0
  188.4730  174.6890  140.1070 C   0  0  0  0  0  1  0  0  0  0  0  0
  188.5150  175.8530  144.4210 C   0  0  0  0  0  2  0  0  0  0  0  0
  186.0050  177.8270  147.5470 C   0  0  0  0  0  3  0  0  0  0  0  0
  185.4770  177.5780  142.9500 C   0  0  0  0  0  0  0  0  0  0  0  0
  184.3810  178.3380  143.6330 C   0  0  0  0  0  3  0  0  0  0  0  0
  189.3810  174.4680  142.2900 O   0  0  0  0  0  0  0  0  0  0  0  0
  186.6230  177.3010  146.4030 C   0  0  0  0  0  3  0  0  0  0  0  0
  190.4500  175.1200  142.9250 C   0  0  0  0  0  2  0  0  0  0  0  0
  187.6350  176.1090  142.0040 C   0  0  0  0  0  0  0  0  0  0  0  0
  190.9310  176.1870  145.1880 C   0  0  0  0  0  2  0  0  0  0  0  0
  193.2040  176.7630  144.5920 F   0  0  0  0  0  0  0  0  0  0  0  0
  192.3690  175.7140  144.9320 C   0  0  1  0  0  3  0  0  0  0  0  0
  192.9350  174.9090  146.0550 C   0  0  0  0  0  0  0  0  0  0  0  0
  192.3410  174.9410  147.3110 O   0  0  0  0  0  1  0  0  0  0  0  0
  193.9400  174.1770  145.8580 O   0  0  0  0  0  0  0  0  0  0  0  0
  1  4  1  0  0  0  0
  2  1  1  0  0  0  0
  2 12  1  0  0  0  0
  3 14  1  0  0  0  0
  4 17  1  6  0  0  0
  5 12  1  0  0  0  0
  5 20  1  1  0  0  0
  6 13  1  0  0  0  0
  7  3  2  0  0  0  0
  7 19  1  0  0  0  0
  8  4  1  0  0  0  0
  8  9  1  0  0  0  0
  9  6  2  0  0  0  0
 10 11  1  6  0  0  0
 10 19  1  0  0  0  0
 10 16  1  0  0  0  0
 14 15  1  0  0  0  0
 14  1  2  0  0  0  0
 15  8  2  0  0  0  0
 16 18  1  0  0  0  0
 17 13  2  0  0  0  0
 18  5  1  0  0  0  0
 19  2  2  0  0  0  0
 22 21  1  1  0  0  0
 22 20  1  0  0  0  0
 22 23  1  0  0  0  0
 23 24  1  0  0  0  0
 25 23  2  0  0  0  0
M  END
>  <MODEL>
7

>  <REMARK>
 VINA RESULT:      -7.1      3.237      5.593
  Name = 
  3 active torsions:
  status: ('A' for Active; 'I' for Inactive)
    1  A    between atoms: C_2  and  C_25
    2  A    between atoms: C_6  and  C_15
    3  A    between atoms: C_15  and  C_25
                            x       y       z     vdW  Elec       q    Type
                         _______ _______ _______ _____ _____    ______ ____

>  <TORSDO>
F 3

$$$$
=
 OpenBabel11052417373D

 25 28  0  0  1  0  0  0  0  0999 V2000
  188.4500  177.2490  145.2840 C   0  0  0  0  0  0  0  0  0  0  0  0
  189.5040  176.7560  144.5060 C   0  0  0  0  0  0  0  0  0  0  0  0
  189.8140  177.2530  147.2560 C   0  0  0  0  0  3  0  0  0  0  0  0
  187.0820  177.5840  144.9310 C   0  0  0  0  0  0  0  0  0  0  0  0
  189.8470  175.1950  142.5640 C   0  0  2  0  0  3  0  0  0  0  0  0
  184.4190  178.3540  144.8030 C   0  0  0  0  0  3  0  0  0  0  0  0
  190.8500  176.7810  146.5090 N   0  0  0  0  0  0  0  0  0  0  0  0
  186.4350  178.0250  146.0710 C   0  0  0  0  0  0  0  0  0  0  0  0
  185.0970  178.4170  146.0320 C   0  0  0  0  0  3  0  0  0  0  0  0
  191.9480  175.9380  144.4500 C   0  0  2  0  0  3  0  0  0  0  0  0
  193.2600  176.3770  145.0780 C   0  0  0  0  0  1  0  0  0  0  0  0
  189.2920  176.5380  143.0310 C   0  0  0  0  0  2  0  0  0  0  0  0
  185.0800  177.9040  143.6440 C   0  0  0  0  0  3  0  0  0  0  0  0
  188.5980  177.4950  146.6330 C   0  0  2  0  0  3  0  0  0  0  0  0
  187.3410  178.0100  147.2640 C   0  0  0  0  0  3  0  0  0  0  0  0
  191.9630  176.2760  143.0920 O   0  0  0  0  0  0  0  0  0  0  0  0
  186.4270  177.5120  143.7010 C   0  0  0  0  0  3  0  0  0  0  0  0
  191.3740  175.1960  142.4170 C   0  0  0  0  0  2  0  0  0  0  0  0
  190.7540  176.5460  145.1620 C   0  0  0  0  0  0  0  0  0  0  0  0
  189.1440  174.6500  141.3140 C   0  0  0  0  0  2  0  0  0  0  0  0
  187.8180  172.9030  140.2910 F   0  0  0  0  0  0  0  0  0  0  0  0
  188.3690  173.3350  141.4840 C   0  0  1  0  0  3  0  0  0  0  0  0
  189.1720  172.2570  142.1350 C   0  0  0  0  0  0  0  0  0  0  0  0
  190.1930  171.6230  141.4370 O   0  0  0  0  0  0  0  0  0  0  0  0
  188.9420  171.9390  143.3300 O   0  0  0  0  0  1  0  0  0  0  0  0
  1 14  1  0  0  0  0
  2 19  2  0  0  0  0
  2  1  1  0  0  0  0
  4  1  2  0  0  0  0
  4  8  1  0  0  0  0
  5 20  1  6  0  0  0
  5 12  1  0  0  0  0
  6  9  2  0  0  0  0
  7  3  2  0  0  0  0
  8 15  2  0  0  0  0
  9  8  1  0  0  0  0
 10 11  1  1  0  0  0
 10 19  1  0  0  0  0
 12  2  1  0  0  0  0
 13 17  2  0  0  0  0
 13  6  1  0  0  0  0
 14  3  1  1  0  0  0
 14 15  1  0  0  0  0
 16 10  1  0  0  0  0
 17  4  1  0  0  0  0
 18  5  1  0  0  0  0
 18 16  1  0  0  0  0
 19  7  1  0  0  0  0
 20 22  1  0  0  0  0
 22 21  1  6  0  0  0
 22 23  1  0  0  0  0
 23 25  1  0  0  0  0
 24 23  2  0  0  0  0
M  END
>  <MODEL>
8

>  <REMARK>
 VINA RESULT:      -7.0      3.540      6.371
  Name = 
  3 active torsions:
  status: ('A' for Active; 'I' for Inactive)
    1  A    between atoms: C_2  and  C_25
    2  A    between atoms: C_6  and  C_15
    3  A    between atoms: C_15  and  C_25
                            x       y       z     vdW  Elec       q    Type
                         _______ _______ _______ _____ _____    ______ ____

>  <TORSDO>
F 3

$$$$
=
 OpenBabel11052417373D

 25 28  0  0  1  0  0  0  0  0999 V2000
  189.0690  176.8590  145.1380 C   0  0  0  0  0  0  0  0  0  0  0  0
  190.3020  176.4540  144.6120 C   0  0  0  0  0  0  0  0  0  0  0  0
  190.0060  177.1080  147.3300 C   0  0  0  0  0  3  0  0  0  0  0  0
  187.7720  177.0200  144.5060 C   0  0  2  0  0  3  0  0  0  0  0  0
  191.1820  174.8560  142.8810 C   0  0  2  0  0  3  0  0  0  0  0  0
  185.1230  177.4750  143.8160 C   0  0  0  0  0  3  0  0  0  0  0  0
  191.2130  176.7230  146.8300 N   0  0  0  0  0  0  0  0  0  0  0  0
  186.8690  177.4360  145.4680 C   0  0  0  0  0  0  0  0  0  0  0  0
  185.5330  177.6710  145.1450 C   0  0  0  0  0  3  0  0  0  0  0  0
  192.7790  175.9180  145.0830 C   0  0  2  0  0  3  0  0  0  0  0  0
  193.8880  176.5310  145.9210 C   0  0  0  0  0  1  0  0  0  0  0  0
  190.4110  176.1470  143.1420 C   0  0  0  0  0  2  0  0  0  0  0  0
  186.0440  177.0510  142.8390 C   0  0  0  0  0  3  0  0  0  0  0  0
  188.9200  177.1810  146.4700 C   0  0  0  0  0  0  0  0  0  0  0  0
  187.5160  177.5780  146.8110 C   0  0  0  0  0  3  0  0  0  0  0  0
  193.0290  176.1930  143.7330 O   0  0  0  0  0  0  0  0  0  0  0  0
  187.3850  176.8180  143.1800 C   0  0  0  0  0  3  0  0  0  0  0  0
  192.7000  175.0230  143.0310 C   0  0  0  0  0  2  0  0  0  0  0  0
  191.4110  176.4180  145.5090 C   0  0  0  0  0  0  0  0  0  0  0  0
  190.8010  174.1790  141.5580 C   0  0  0  0  0  2  0  0  0  0  0  0
  188.9190  173.3220  142.8140 F   0  0  0  0  0  0  0  0  0  0  0  0
  189.5330  173.3140  141.5740 C   0  0  1  0  0  3  0  0  0  0  0  0
  188.5690  173.6600  140.4870 C   0  0  0  0  0  0  0  0  0  0  0  0
  188.2270  174.9850  140.2460 O   0  0  0  0  0  1  0  0  0  0  0  0
  188.0830  172.7490  139.7670 O   0  0  0  0  0  0  0  0  0  0  0  0
  1 14  1  0  0  0  0
  2  1  2  0  0  0  0
  2 19  1  0  0  0  0
  4 17  1  1  0  0  0
  4  1  1  0  0  0  0
  4  8  1  0  0  0  0
  5 20  1  6  0  0  0
  5 18  1  0  0  0  0
  5 12  1  0  0  0  0
  6  9  2  0  0  0  0
  7  3  1  0  0  0  0
  8 15  2  0  0  0  0
  9  8  1  0  0  0  0
 10 19  1  0  0  0  0
 10 11  1  1  0  0  0
 12  2  1  0  0  0  0
 13 17  2  0  0  0  0
 13  6  1  0  0  0  0
 14 15  1  0  0  0  0
 14  3  2  0  0  0  0
 16 10  1  0  0  0  0
 18 16  1  0  0  0  0
 19  7  2  0  0  0  0
 20 22  1  0  0  0  0
 22 21  1  1  0  0  0
 23 22  1  0  0  0  0
 24 23  1  0  0  0  0
 25 23  2  0  0  0  0
M  END
>  <MODEL>
9

>  <REMARK>
 VINA RESULT:      -6.8      3.406      6.615
  Name = 
  3 active torsions:
  status: ('A' for Active; 'I' for Inactive)
    1  A    between atoms: C_2  and  C_25
    2  A    between atoms: C_6  and  C_15
    3  A    between atoms: C_15  and  C_25
                            x       y       z     vdW  Elec       q    Type
                         _______ _______ _______ _____ _____    ______ ____

>  <TORSDO>
F 3

$$$$
