=
 OpenBabel11052417343D

 25 28  0  0  1  0  0  0  0  0999 V2000
  187.9130  176.7960  145.5370 C   0  0  0  0  0  0  0  0  0  0  0  0
  189.1310  176.9400  144.8620 C   0  0  0  0  0  0  0  0  0  0  0  0
  188.9570  175.6460  147.3880 C   0  0  0  0  0  3  0  0  0  0  0  0
  186.5430  177.2370  145.1370 C   0  0  1  0  0  3  0  0  0  0  0  0
  184.4050  178.8000  146.1930 C   0  0  0  0  0  3  0  0  0  0  0  0
  190.1890  175.7560  146.7290 C   0  0  0  0  0  3  0  0  0  0  0  0
  185.7400  176.8390  146.3000 N   0  0  0  0  0  0  0  0  0  0  0  0
  184.5620  177.5610  146.6600 C   0  0  0  0  0  3  0  0  0  0  0  0
  185.4730  179.4020  145.3690 C   0  0  0  0  0  3  0  0  0  0  0  0
  187.8340  176.1640  146.7550 C   0  0  0  0  0  0  0  0  0  0  0  0
  186.5120  176.1720  147.2610 N   0  0  0  0  0  2  0  0  0  0  0  0
  186.4740  178.6880  144.9380 N   0  0  0  0  0  0  0  0  0  0  0  0
  190.2920  176.3870  145.4710 C   0  0  0  0  0  0  0  0  0  0  0  0
  191.5610  176.3640  144.8170 N   0  0  0  0  0  0  0  0  0  0  0  0
  192.4510  175.8410  143.7400 C   0  0  0  0  0  2  0  0  0  0  0  0
  192.9690  176.8020  144.5790 C   0  0  0  0  0  2  0  0  0  0  0  0
  189.1470  177.6460  143.6130 N   0  0  0  0  0  2  0  0  0  0  0  0
  188.8440  177.0480  142.3240 C   0  0  0  0  0  2  0  0  0  0  0  0
  188.3110  178.1080  141.3750 C   0  0  0  0  0  2  0  0  0  0  0  0
  186.9800  178.5170  141.7920 N   0  0  0  0  0  2  0  0  0  0  0  0
  186.0320  177.5750  141.2150 C   0  0  2  0  0  3  0  0  0  0  0  0
  186.2920  177.4160  139.8520 O   0  0  0  0  0  1  0  0  0  0  0  0
  184.6400  178.0710  141.4100 C   0  0  0  0  0  0  0  0  0  0  0  0
  183.9850  178.7130  140.3690 O   0  0  0  0  0  0  0  0  0  0  0  0
  184.0530  177.9090  142.5130 O   0  0  0  0  0  1  0  0  0  0  0  0
  1 10  1  0  0  0  0
  2 13  1  0  0  0  0
  2  1  2  0  0  0  0
  4 12  1  1  0  0  0
  4  1  1  0  0  0  0
  4  7  1  0  0  0  0
  5  8  2  0  0  0  0
  6  3  1  0  0  0  0
  7  8  1  0  0  0  0
  7 11  1  0  0  0  0
  9  5  1  0  0  0  0
 10 11  1  0  0  0  0
 10  3  2  0  0  0  0
 12  9  2  0  0  0  0
 13  6  2  0  0  0  0
 14 13  1  0  0  0  0
 15 16  1  0  0  0  0
 15 14  1  0  0  0  0
 16 14  1  0  0  0  0
 17  2  1  0  0  0  0
 18 17  1  0  0  0  0
 19 20  1  0  0  0  0
 19 18  1  0  0  0  0
 21 22  1  6  0  0  0
 21 23  1  0  0  0  0
 21 20  1  0  0  0  0
 23 25  1  0  0  0  0
 24 23  2  0  0  0  0
M  END
>  <MODEL>
1

>  <REMARK>
 VINA RESULT:      -6.3      0.000      0.000
  Name = 
  7 active torsions:
  status: ('A' for Active; 'I' for Inactive)
    1  A    between atoms: C_2  and  C_21
    2  A    between atoms: C_3  and  N_16
    3  A    between atoms: C_6  and  N_15
    4  A    between atoms: C_6  and  C_23
    5  A    between atoms: N_13  and  C_24
    6  A    between atoms: N_15  and  C_21
    7  A    between atoms: N_16  and  C_23
                            x       y       z     vdW  Elec       q    Type
                         _______ _______ _______ _____ _____    ______ ____

>  <TORSDO>
F 7

$$$$
=
 OpenBabel11052417343D

 25 28  0  0  1  0  0  0  0  0999 V2000
  187.0750  177.2700  143.3190 C   0  0  0  0  0  0  0  0  0  0  0  0
  187.6910  176.1490  142.7520 C   0  0  0  0  0  0  0  0  0  0  0  0
  186.3420  178.0850  141.1650 C   0  0  0  0  0  3  0  0  0  0  0  0
  186.9850  177.6880  144.7510 C   0  0  1  0  0  3  0  0  0  0  0  0
  184.9800  178.3760  146.6560 C   0  0  0  0  0  3  0  0  0  0  0  0
  186.9680  176.9840  140.5640 C   0  0  0  0  0  3  0  0  0  0  0  0
  186.1640  178.9020  144.6670 N   0  0  0  0  0  0  0  0  0  0  0  0
  185.3190  179.2920  145.7490 C   0  0  0  0  0  3  0  0  0  0  0  0
  185.4410  176.9840  146.4850 C   0  0  0  0  0  3  0  0  0  0  0  0
  186.4290  178.2060  142.5470 C   0  0  0  0  0  0  0  0  0  0  0  0
  185.8510  179.2260  143.3400 N   0  0  0  0  0  2  0  0  0  0  0  0
  186.3180  176.6730  145.5730 N   0  0  0  0  0  0  0  0  0  0  0  0
  187.6490  176.0190  141.3350 C   0  0  0  0  0  0  0  0  0  0  0  0
  188.3490  174.9860  140.6410 N   0  0  0  0  0  0  0  0  0  0  0  0
  188.5310  174.1370  139.4270 C   0  0  0  0  0  2  0  0  0  0  0  0
  189.4250  173.9660  140.4600 C   0  0  0  0  0  2  0  0  0  0  0  0
  188.3130  175.1910  143.6210 N   0  0  0  0  0  2  0  0  0  0  0  0
  189.7080  175.2280  144.0250 C   0  0  0  0  0  2  0  0  0  0  0  0
  189.9240  174.3150  145.2190 C   0  0  0  0  0  2  0  0  0  0  0  0
  190.9930  174.8390  146.0540 N   0  0  0  0  0  2  0  0  0  0  0  0
  190.4090  175.2030  147.3360 C   0  0  2  0  0  3  0  0  0  0  0  0
  189.0510  174.8790  147.3480 O   0  0  0  0  0  1  0  0  0  0  0  0
  190.5820  176.6640  147.5770 C   0  0  0  0  0  0  0  0  0  0  0  0
  189.7680  177.5720  146.9140 O   0  0  0  0  0  0  0  0  0  0  0  0
  191.4590  177.0800  148.3800 O   0  0  0  0  0  1  0  0  0  0  0  0
  2  1  1  0  0  0  0
  2 17  1  0  0  0  0
  3 10  1  0  0  0  0
  4  1  1  6  0  0  0
  4 12  1  0  0  0  0
  6  3  2  0  0  0  0
  6 13  1  0  0  0  0
  7  4  1  0  0  0  0
  7  8  1  0  0  0  0
  8  5  2  0  0  0  0
  9  5  1  0  0  0  0
 10  1  2  0  0  0  0
 10 11  1  0  0  0  0
 11  7  1  0  0  0  0
 12  9  2  0  0  0  0
 13  2  2  0  0  0  0
 14 13  1  0  0  0  0
 15 16  1  0  0  0  0
 15 14  1  0  0  0  0
 16 14  1  0  0  0  0
 17 18  1  0  0  0  0
 18 19  1  0  0  0  0
 19 20  1  0  0  0  0
 20 21  1  0  0  0  0
 21 22  1  6  0  0  0
 21 23  1  0  0  0  0
 23 25  1  0  0  0  0
 24 23  2  0  0  0  0
M  END
>  <MODEL>
2

>  <REMARK>
 VINA RESULT:      -6.2      3.393      5.602
  Name = 
  7 active torsions:
  status: ('A' for Active; 'I' for Inactive)
    1  A    between atoms: C_2  and  C_21
    2  A    between atoms: C_3  and  N_16
    3  A    between atoms: C_6  and  N_15
    4  A    between atoms: C_6  and  C_23
    5  A    between atoms: N_13  and  C_24
    6  A    between atoms: N_15  and  C_21
    7  A    between atoms: N_16  and  C_23
                            x       y       z     vdW  Elec       q    Type
                         _______ _______ _______ _____ _____    ______ ____

>  <TORSDO>
F 7

$$$$
=
 OpenBabel11052417343D

 25 28  0  0  1  0  0  0  0  0999 V2000
  187.0220  176.8360  144.3200 C   0  0  0  0  0  0  0  0  0  0  0  0
  188.2420  176.4500  144.8870 C   0  0  0  0  0  0  0  0  0  0  0  0
  186.2950  177.9100  146.3580 C   0  0  0  0  0  3  0  0  0  0  0  0
  186.4930  176.5970  142.9430 C   0  0  1  0  0  3  0  0  0  0  0  0
  185.4540  178.1070  140.7590 C   0  0  0  0  0  3  0  0  0  0  0  0
  187.4980  177.5210  146.9630 C   0  0  0  0  0  3  0  0  0  0  0  0
  185.2070  177.3060  142.9800 N   0  0  0  0  0  0  0  0  0  0  0  0
  184.6500  177.8770  141.7970 C   0  0  0  0  0  3  0  0  0  0  0  0
  186.8970  177.8170  140.8850 C   0  0  0  0  0  3  0  0  0  0  0  0
  186.0820  177.5370  145.0370 C   0  0  0  0  0  0  0  0  0  0  0  0
  184.9500  177.8490  144.2460 N   0  0  0  0  0  2  0  0  0  0  0  0
  187.3670  177.1740  141.9160 N   0  0  0  0  0  0  0  0  0  0  0  0
  188.4710  176.7890  146.2510 C   0  0  0  0  0  0  0  0  0  0  0  0
  189.6210  176.3380  146.9670 N   0  0  0  0  0  0  0  0  0  0  0  0
  190.8790  176.6370  147.7120 C   0  0  0  0  0  2  0  0  0  0  0  0
  190.5050  175.3160  147.6040 C   0  0  0  0  0  2  0  0  0  0  0  0
  189.1940  175.7560  144.0690 N   0  0  0  0  0  2  0  0  0  0  0  0
  190.3860  176.3590  143.4970 C   0  0  0  0  0  2  0  0  0  0  0  0
  191.6260  175.7020  144.0780 C   0  0  0  0  0  2  0  0  0  0  0  0
  192.5350  176.7210  144.5760 N   0  0  0  0  0  2  0  0  0  0  0  0
  193.8830  176.1770  144.5050 C   0  0  2  0  0  3  0  0  0  0  0  0
  193.8450  174.8830  143.9810 O   0  0  0  0  0  1  0  0  0  0  0  0
  194.4950  176.1540  145.8640 C   0  0  0  0  0  0  0  0  0  0  0  0
  194.2450  177.1940  146.7480 O   0  0  0  0  0  1  0  0  0  0  0  0
  195.2320  175.1970  146.2170 O   0  0  0  0  0  0  0  0  0  0  0  0
  1  2  2  0  0  0  0
  1 10  1  0  0  0  0
  2 13  1  0  0  0  0
  3  6  1  0  0  0  0
  4 12  1  6  0  0  0
  4  7  1  0  0  0  0
  4  1  1  0  0  0  0
  5  9  1  0  0  0  0
  5  8  2  0  0  0  0
  7 11  1  0  0  0  0
  8  7  1  0  0  0  0
  9 12  2  0  0  0  0
 10  3  2  0  0  0  0
 11 10  1  0  0  0  0
 13  6  2  0  0  0  0
 13 14  1  0  0  0  0
 14 16  1  0  0  0  0
 14 15  1  0  0  0  0
 16 15  1  0  0  0  0
 17  2  1  0  0  0  0
 18 17  1  0  0  0  0
 18 19  1  0  0  0  0
 19 20  1  0  0  0  0
 21 22  1  1  0  0  0
 21 20  1  0  0  0  0
 21 23  1  0  0  0  0
 23 25  2  0  0  0  0
 23 24  1  0  0  0  0
M  END
>  <MODEL>
3

>  <REMARK>
 VINA RESULT:      -6.1      3.849      5.832
  Name = 
  7 active torsions:
  status: ('A' for Active; 'I' for Inactive)
    1  A    between atoms: C_2  and  C_21
    2  A    between atoms: C_3  and  N_16
    3  A    between atoms: C_6  and  N_15
    4  A    between atoms: C_6  and  C_23
    5  A    between atoms: N_13  and  C_24
    6  A    between atoms: N_15  and  C_21
    7  A    between atoms: N_16  and  C_23
                            x       y       z     vdW  Elec       q    Type
                         _______ _______ _______ _____ _____    ______ ____

>  <TORSDO>
F 7

$$$$
=
 OpenBabel11052417343D

 25 28  0  0  1  0  0  0  0  0999 V2000
  186.6200  176.9460  144.3110 C   0  0  0  0  0  0  0  0  0  0  0  0
  187.8410  176.4890  144.8200 C   0  0  0  0  0  0  0  0  0  0  0  0
  186.0750  178.0930  146.3670 C   0  0  0  0  0  3  0  0  0  0  0  0
  186.0030  176.7230  142.9690 C   0  0  1  0  0  3  0  0  0  0  0  0
  184.9470  178.2680  140.8180 C   0  0  0  0  0  3  0  0  0  0  0  0
  187.2820  177.6340  146.9140 C   0  0  0  0  0  3  0  0  0  0  0  0
  184.7700  177.5150  143.0630 N   0  0  0  0  0  0  0  0  0  0  0  0
  184.1870  178.1050  141.9010 C   0  0  0  0  0  3  0  0  0  0  0  0
  186.3730  177.8870  140.8720 C   0  0  0  0  0  3  0  0  0  0  0  0
  185.7680  177.7160  145.0660 C   0  0  0  0  0  0  0  0  0  0  0  0
  184.6170  178.0900  144.3310 N   0  0  0  0  0  2  0  0  0  0  0  0
  186.8560  177.2280  141.8870 N   0  0  0  0  0  0  0  0  0  0  0  0
  188.1660  176.8300  146.1640 C   0  0  0  0  0  0  0  0  0  0  0  0
  189.3210  176.3160  146.8250 N   0  0  0  0  0  0  0  0  0  0  0  0
  190.0790  175.1640  147.3960 C   0  0  0  0  0  2  0  0  0  0  0  0
  190.6820  176.4010  147.4360 C   0  0  0  0  0  2  0  0  0  0  0  0
  188.7010  175.7230  143.9640 N   0  0  0  0  0  2  0  0  0  0  0  0
  189.9370  176.2160  143.3800 C   0  0  0  0  0  2  0  0  0  0  0  0
  190.5510  175.1480  142.4930 C   0  0  0  0  0  2  0  0  0  0  0  0
  189.5520  174.6420  141.5660 N   0  0  0  0  0  2  0  0  0  0  0  0
  189.7100  173.1970  141.4970 C   0  0  2  0  0  3  0  0  0  0  0  0
  189.5840  172.7690  140.1740 O   0  0  0  0  0  1  0  0  0  0  0  0
  188.6790  172.5330  142.3440 C   0  0  0  0  0  0  0  0  0  0  0  0
  187.3370  172.6360  142.0040 O   0  0  0  0  0  0  0  0  0  0  0  0
  189.0160  171.8750  143.3640 O   0  0  0  0  0  1  0  0  0  0  0  0
  1  2  2  0  0  0  0
  1 10  1  0  0  0  0
  2 13  1  0  0  0  0
  3  6  1  0  0  0  0
  4 12  1  6  0  0  0
  4  7  1  0  0  0  0
  4  1  1  0  0  0  0
  5  9  1  0  0  0  0
  5  8  2  0  0  0  0
  7 11  1  0  0  0  0
  8  7  1  0  0  0  0
  9 12  2  0  0  0  0
 10  3  2  0  0  0  0
 11 10  1  0  0  0  0
 13 14  1  0  0  0  0
 13  6  2  0  0  0  0
 14 15  1  0  0  0  0
 14 16  1  0  0  0  0
 15 16  1  0  0  0  0
 17  2  1  0  0  0  0
 18 17  1  0  0  0  0
 19 18  1  0  0  0  0
 20 19  1  0  0  0  0
 21 22  1  6  0  0  0
 21 20  1  0  0  0  0
 21 23  1  0  0  0  0
 23 25  1  0  0  0  0
 24 23  2  0  0  0  0
M  END
>  <MODEL>
4

>  <REMARK>
 VINA RESULT:      -6.1      2.901      4.378
  Name = 
  7 active torsions:
  status: ('A' for Active; 'I' for Inactive)
    1  A    between atoms: C_2  and  C_21
    2  A    between atoms: C_3  and  N_16
    3  A    between atoms: C_6  and  N_15
    4  A    between atoms: C_6  and  C_23
    5  A    between atoms: N_13  and  C_24
    6  A    between atoms: N_15  and  C_21
    7  A    between atoms: N_16  and  C_23
                            x       y       z     vdW  Elec       q    Type
                         _______ _______ _______ _____ _____    ______ ____

>  <TORSDO>
F 7

$$$$
=
 OpenBabel11052417343D

 25 28  0  0  1  0  0  0  0  0999 V2000
  187.3430  177.3750  143.8760 C   0  0  0  0  0  0  0  0  0  0  0  0
  188.4330  176.5100  144.0230 C   0  0  0  0  0  0  0  0  0  0  0  0
  187.1160  176.8540  141.5270 C   0  0  0  0  0  3  0  0  0  0  0  0
  186.6720  178.2450  144.8880 C   0  0  1  0  0  3  0  0  0  0  0  0
  184.0550  178.6940  145.9250 C   0  0  0  0  0  3  0  0  0  0  0  0
  188.2190  175.9960  141.6360 C   0  0  0  0  0  3  0  0  0  0  0  0
  185.5770  178.8360  144.1090 N   0  0  0  0  0  0  0  0  0  0  0  0
  184.3530  179.2170  144.7360 C   0  0  0  0  0  3  0  0  0  0  0  0
  184.9680  177.7010  146.5270 C   0  0  0  0  0  3  0  0  0  0  0  0
  186.7130  177.5420  142.6660 C   0  0  0  0  0  0  0  0  0  0  0  0
  185.6170  178.4320  142.7680 N   0  0  0  0  0  2  0  0  0  0  0  0
  186.1410  177.4650  146.0110 N   0  0  0  0  0  0  0  0  0  0  0  0
  188.8900  175.8200  142.8650 C   0  0  0  0  0  0  0  0  0  0  0  0
  190.0670  175.0130  142.8700 N   0  0  0  0  0  0  0  0  0  0  0  0
  191.5410  174.8760  142.6840 C   0  0  0  0  0  2  0  0  0  0  0  0
  190.8460  173.7560  143.0810 C   0  0  0  0  0  2  0  0  0  0  0  0
  189.0180  176.3540  145.3240 N   0  0  0  0  0  2  0  0  0  0  0  0
  188.7220  175.2620  146.2360 C   0  0  0  0  0  2  0  0  0  0  0  0
  189.8650  175.0860  147.2200 C   0  0  0  0  0  2  0  0  0  0  0  0
  191.1260  175.0090  146.5020 N   0  0  0  0  0  2  0  0  0  0  0  0
  192.1160  175.7450  147.2750 C   0  0  2  0  0  3  0  0  0  0  0  0
  191.4880  176.7410  148.0230 O   0  0  0  0  0  1  0  0  0  0  0  0
  193.1220  176.3560  146.3610 C   0  0  0  0  0  0  0  0  0  0  0  0
  192.7050  176.9680  145.1880 O   0  0  0  0  0  0  0  0  0  0  0  0
  194.3480  176.3250  146.6480 O   0  0  0  0  0  1  0  0  0  0  0  0
  1  2  1  0  0  0  0
  2 17  1  0  0  0  0
  3  6  2  0  0  0  0
  3 10  1  0  0  0  0
  4  1  1  6  0  0  0
  4 12  1  0  0  0  0
  5  9  1  0  0  0  0
  6 13  1  0  0  0  0
  7  8  1  0  0  0  0
  7  4  1  0  0  0  0
  8  5  2  0  0  0  0
 10 11  1  0  0  0  0
 10  1  2  0  0  0  0
 11  7  1  0  0  0  0
 12  9  2  0  0  0  0
 13 14  1  0  0  0  0
 13  2  2  0  0  0  0
 14 16  1  0  0  0  0
 15 14  1  0  0  0  0
 15 16  1  0  0  0  0
 17 18  1  0  0  0  0
 18 19  1  0  0  0  0
 20 19  1  0  0  0  0
 20 21  1  0  0  0  0
 21 22  1  6  0  0  0
 23 25  1  0  0  0  0
 23 21  1  0  0  0  0
 24 23  2  0  0  0  0
M  END
>  <MODEL>
5

>  <REMARK>
 VINA RESULT:      -5.9      3.613      5.652
  Name = 
  7 active torsions:
  status: ('A' for Active; 'I' for Inactive)
    1  A    between atoms: C_2  and  C_21
    2  A    between atoms: C_3  and  N_16
    3  A    between atoms: C_6  and  N_15
    4  A    between atoms: C_6  and  C_23
    5  A    between atoms: N_13  and  C_24
    6  A    between atoms: N_15  and  C_21
    7  A    between atoms: N_16  and  C_23
                            x       y       z     vdW  Elec       q    Type
                         _______ _______ _______ _____ _____    ______ ____

>  <TORSDO>
F 7

$$$$
=
 OpenBabel11052417343D

 25 28  0  0  1  0  0  0  0  0999 V2000
  187.3090  177.4220  143.7260 C   0  0  0  0  0  0  0  0  0  0  0  0
  188.3510  176.4940  143.8400 C   0  0  0  0  0  0  0  0  0  0  0  0
  187.1500  177.1040  141.3360 C   0  0  0  0  0  3  0  0  0  0  0  0
  186.6420  178.2410  144.7820 C   0  0  1  0  0  3  0  0  0  0  0  0
  184.0100  178.7370  145.7590 C   0  0  0  0  0  3  0  0  0  0  0  0
  188.2060  176.1840  141.4130 C   0  0  0  0  0  3  0  0  0  0  0  0
  185.6070  178.9470  144.0150 N   0  0  0  0  0  0  0  0  0  0  0  0
  184.3790  179.3380  144.6280 C   0  0  0  0  0  3  0  0  0  0  0  0
  184.8500  177.6540  146.3090 C   0  0  0  0  0  3  0  0  0  0  0  0
  186.7370  177.7170  142.5120 C   0  0  0  0  0  0  0  0  0  0  0  0
  185.6820  178.6500  142.6480 N   0  0  0  0  0  2  0  0  0  0  0  0
  186.0290  177.4010  145.8170 N   0  0  0  0  0  0  0  0  0  0  0  0
  188.8190  175.8770  142.6460 C   0  0  0  0  0  0  0  0  0  0  0  0
  189.9550  175.0130  142.6270 N   0  0  0  0  0  0  0  0  0  0  0  0
  191.3720  174.7480  142.2410 C   0  0  0  0  0  2  0  0  0  0  0  0
  190.7190  173.7730  142.9610 C   0  0  0  0  0  2  0  0  0  0  0  0
  188.8750  176.2040  145.1440 N   0  0  0  0  0  2  0  0  0  0  0  0
  189.8320  177.0370  145.8520 C   0  0  0  0  0  2  0  0  0  0  0  0
  191.0780  176.2310  146.1760 C   0  0  0  0  0  2  0  0  0  0  0  0
  192.1870  176.6850  145.3530 N   0  0  0  0  0  2  0  0  0  0  0  0
  193.1700  175.6140  145.3130 C   0  0  2  0  0  3  0  0  0  0  0  0
  192.6360  174.4590  145.8870 O   0  0  0  0  0  1  0  0  0  0  0  0
  194.3980  176.0240  146.0520 C   0  0  0  0  0  0  0  0  0  0  0  0
  195.4190  175.1060  146.2560 O   0  0  0  0  0  0  0  0  0  0  0  0
  194.5180  177.1990  146.4900 O   0  0  0  0  0  1  0  0  0  0  0  0
  1  2  1  0  0  0  0
  2 17  1  0  0  0  0
  3  6  2  0  0  0  0
  3 10  1  0  0  0  0
  4  1  1  6  0  0  0
  4 12  1  0  0  0  0
  5  9  1  0  0  0  0
  6 13  1  0  0  0  0
  7  8  1  0  0  0  0
  7  4  1  0  0  0  0
  8  5  2  0  0  0  0
 10 11  1  0  0  0  0
 10  1  2  0  0  0  0
 11  7  1  0  0  0  0
 12  9  2  0  0  0  0
 13  2  2  0  0  0  0
 14 13  1  0  0  0  0
 14 16  1  0  0  0  0
 15 14  1  0  0  0  0
 15 16  1  0  0  0  0
 17 18  1  0  0  0  0
 18 19  1  0  0  0  0
 20 19  1  0  0  0  0
 21 20  1  0  0  0  0
 21 22  1  1  0  0  0
 21 23  1  0  0  0  0
 23 24  2  0  0  0  0
 23 25  1  0  0  0  0
M  END
>  <MODEL>
6

>  <REMARK>
 VINA RESULT:      -5.9      3.907      5.913
  Name = 
  7 active torsions:
  status: ('A' for Active; 'I' for Inactive)
    1  A    between atoms: C_2  and  C_21
    2  A    between atoms: C_3  and  N_16
    3  A    between atoms: C_6  and  N_15
    4  A    between atoms: C_6  and  C_23
    5  A    between atoms: N_13  and  C_24
    6  A    between atoms: N_15  and  C_21
    7  A    between atoms: N_16  and  C_23
                            x       y       z     vdW  Elec       q    Type
                         _______ _______ _______ _____ _____    ______ ____

>  <TORSDO>
F 7

$$$$
=
 OpenBabel11052417343D

 25 28  0  0  1  0  0  0  0  0999 V2000
  188.8750  176.5770  142.8120 C   0  0  0  0  0  0  0  0  0  0  0  0
  189.5750  176.5340  144.0230 C   0  0  0  0  0  0  0  0  0  0  0  0
  189.5170  174.3180  142.2420 C   0  0  0  0  0  3  0  0  0  0  0  0
  188.0710  177.6850  142.2140 C   0  0  1  0  0  3  0  0  0  0  0  0
  185.4410  178.1110  141.1990 C   0  0  0  0  0  3  0  0  0  0  0  0
  190.2460  174.2500  143.4380 C   0  0  0  0  0  3  0  0  0  0  0  0
  187.5620  177.0660  140.9830 N   0  0  0  0  0  0  0  0  0  0  0  0
  186.3130  177.4700  140.4220 C   0  0  0  0  0  3  0  0  0  0  0  0
  185.7690  178.3340  142.6210 C   0  0  0  0  0  3  0  0  0  0  0  0
  188.8550  175.5050  141.9530 C   0  0  0  0  0  0  0  0  0  0  0  0
  188.0540  175.7650  140.8150 N   0  0  0  0  0  2  0  0  0  0  0  0
  186.9600  178.0830  143.0850 N   0  0  0  0  0  0  0  0  0  0  0  0
  190.2920  175.3430  144.3290 C   0  0  0  0  0  0  0  0  0  0  0  0
  191.1410  175.2340  145.4720 N   0  0  0  0  0  0  0  0  0  0  0  0
  192.5050  175.2540  146.0770 C   0  0  0  0  0  2  0  0  0  0  0  0
  191.4370  175.0740  146.9270 C   0  0  0  0  0  2  0  0  0  0  0  0
  189.5200  177.6750  144.8920 N   0  0  0  0  0  2  0  0  0  0  0  0
  188.9330  177.6720  146.2210 C   0  0  0  0  0  2  0  0  0  0  0  0
  187.7850  176.6800  146.2770 C   0  0  0  0  0  2  0  0  0  0  0  0
  186.8960  177.0160  147.3770 N   0  0  0  0  0  2  0  0  0  0  0  0
  185.5480  177.1160  146.8360 C   0  0  2  0  0  3  0  0  0  0  0  0
  185.5040  176.5390  145.5660 O   0  0  0  0  0  1  0  0  0  0  0  0
  185.1380  178.5470  146.7560 C   0  0  0  0  0  0  0  0  0  0  0  0
  184.0320  178.9050  145.9990 O   0  0  0  0  0  0  0  0  0  0  0  0
  185.7860  179.4330  147.3740 O   0  0  0  0  0  1  0  0  0  0  0  0
  1  2  1  0  0  0  0
  2 13  2  0  0  0  0
  2 17  1  0  0  0  0
  3  6  2  0  0  0  0
  4  1  1  1  0  0  0
  4 12  1  0  0  0  0
  5  9  1  0  0  0  0
  6 13  1  0  0  0  0
  7  4  1  0  0  0  0
  8  7  1  0  0  0  0
  8  5  2  0  0  0  0
  9 12  2  0  0  0  0
 10  3  1  0  0  0  0
 10  1  2  0  0  0  0
 11  7  1  0  0  0  0
 11 10  1  0  0  0  0
 13 14  1  0  0  0  0
 14 15  1  0  0  0  0
 14 16  1  0  0  0  0
 15 16  1  0  0  0  0
 17 18  1  0  0  0  0
 18 19  1  0  0  0  0
 19 20  1  0  0  0  0
 21 22  1  6  0  0  0
 21 20  1  0  0  0  0
 23 21  1  0  0  0  0
 23 25  1  0  0  0  0
 24 23  2  0  0  0  0
M  END
>  <MODEL>
7

>  <REMARK>
 VINA RESULT:      -5.9      2.218      4.462
  Name = 
  7 active torsions:
  status: ('A' for Active; 'I' for Inactive)
    1  A    between atoms: C_2  and  C_21
    2  A    between atoms: C_3  and  N_16
    3  A    between atoms: C_6  and  N_15
    4  A    between atoms: C_6  and  C_23
    5  A    between atoms: N_13  and  C_24
    6  A    between atoms: N_15  and  C_21
    7  A    between atoms: N_16  and  C_23
                            x       y       z     vdW  Elec       q    Type
                         _______ _______ _______ _____ _____    ______ ____

>  <TORSDO>
F 7

$$$$
=
 OpenBabel11052417343D

 25 28  0  0  1  0  0  0  0  0999 V2000
  187.4040  177.0850  144.4650 C   0  0  0  0  0  0  0  0  0  0  0  0
  188.6880  176.5280  144.4990 C   0  0  0  0  0  0  0  0  0  0  0  0
  186.7670  175.7570  142.5490 C   0  0  0  0  0  3  0  0  0  0  0  0
  186.7890  178.1200  145.3500 C   0  0  1  0  0  3  0  0  0  0  0  0
  184.4750  178.4340  146.9850 C   0  0  0  0  0  3  0  0  0  0  0  0
  188.0510  175.1950  142.5430 C   0  0  0  0  0  3  0  0  0  0  0  0
  185.4230  178.2060  144.8200 N   0  0  0  0  0  0  0  0  0  0  0  0
  184.3290  178.5600  145.6660 C   0  0  0  0  0  3  0  0  0  0  0  0
  185.7360  177.8840  147.5230 C   0  0  0  0  0  3  0  0  0  0  0  0
  186.4820  176.7130  143.5160 C   0  0  0  0  0  0  0  0  0  0  0  0
  185.2470  177.3780  143.7030 N   0  0  0  0  0  2  0  0  0  0  0  0
  186.7700  177.6940  146.7530 N   0  0  0  0  0  0  0  0  0  0  0  0
  189.0200  175.5730  143.4980 C   0  0  0  0  0  0  0  0  0  0  0  0
  190.3350  175.0350  143.3600 N   0  0  0  0  0  0  0  0  0  0  0  0
  191.3120  173.9330  143.5970 C   0  0  0  0  0  2  0  0  0  0  0  0
  191.7510  175.0260  142.8830 C   0  0  0  0  0  2  0  0  0  0  0  0
  189.5870  176.9340  145.5410 N   0  0  0  0  0  2  0  0  0  0  0  0
  189.9660  176.1040  146.6730 C   0  0  0  0  0  2  0  0  0  0  0  0
  191.3740  176.4550  147.1210 C   0  0  0  0  0  2  0  0  0  0  0  0
  192.2780  175.3610  146.8050 N   0  0  0  0  0  2  0  0  0  0  0  0
  193.5390  175.9470  146.3740 C   0  0  2  0  0  3  0  0  0  0  0  0
  193.3040  176.9050  145.3860 O   0  0  0  0  0  1  0  0  0  0  0  0
  194.4380  174.8830  145.8440 C   0  0  0  0  0  0  0  0  0  0  0  0
  195.7410  175.1980  145.4840 O   0  0  0  0  0  0  0  0  0  0  0  0
  194.0250  173.6990  145.7230 O   0  0  0  0  0  1  0  0  0  0  0  0
  1  2  1  0  0  0  0
  2 17  1  0  0  0  0
  3 10  1  0  0  0  0
  4  1  1  6  0  0  0
  4 12  1  0  0  0  0
  5  9  1  0  0  0  0
  6  3  2  0  0  0  0
  6 13  1  0  0  0  0
  7  4  1  0  0  0  0
  7  8  1  0  0  0  0
  8  5  2  0  0  0  0
 10 11  1  0  0  0  0
 10  1  2  0  0  0  0
 11  7  1  0  0  0  0
 12  9  2  0  0  0  0
 13  2  2  0  0  0  0
 14 13  1  0  0  0  0
 14 15  1  0  0  0  0
 16 14  1  0  0  0  0
 16 15  1  0  0  0  0
 17 18  1  0  0  0  0
 18 19  1  0  0  0  0
 20 19  1  0  0  0  0
 21 22  1  6  0  0  0
 21 20  1  0  0  0  0
 23 21  1  0  0  0  0
 24 23  2  0  0  0  0
 25 23  1  0  0  0  0
M  END
>  <MODEL>
8

>  <REMARK>
 VINA RESULT:      -5.8      3.901      5.844
  Name = 
  7 active torsions:
  status: ('A' for Active; 'I' for Inactive)
    1  A    between atoms: C_2  and  C_21
    2  A    between atoms: C_3  and  N_16
    3  A    between atoms: C_6  and  N_15
    4  A    between atoms: C_6  and  C_23
    5  A    between atoms: N_13  and  C_24
    6  A    between atoms: N_15  and  C_21
    7  A    between atoms: N_16  and  C_23
                            x       y       z     vdW  Elec       q    Type
                         _______ _______ _______ _____ _____    ______ ____

>  <TORSDO>
F 7

$$$$
=
 OpenBabel11052417343D

 25 28  0  0  1  0  0  0  0  0999 V2000
  187.6140  176.9170  145.1050 C   0  0  0  0  0  0  0  0  0  0  0  0
  188.7340  176.9800  144.2690 C   0  0  0  0  0  0  0  0  0  0  0  0
  188.9320  176.1670  146.9860 C   0  0  0  0  0  3  0  0  0  0  0  0
  186.1820  177.2250  144.8070 C   0  0  1  0  0  3  0  0  0  0  0  0
  184.0920  178.8740  145.8260 C   0  0  0  0  0  3  0  0  0  0  0  0
  190.0710  176.2000  146.1690 C   0  0  0  0  0  3  0  0  0  0  0  0
  185.5440  177.0180  146.1140 N   0  0  0  0  0  0  0  0  0  0  0  0
  184.3760  177.7500  146.4830 C   0  0  0  0  0  3  0  0  0  0  0  0
  185.0190  179.3540  144.7820 C   0  0  0  0  0  3  0  0  0  0  0  0
  187.7140  176.5170  146.4160 C   0  0  0  0  0  0  0  0  0  0  0  0
  186.4610  176.5690  147.0730 N   0  0  0  0  0  2  0  0  0  0  0  0
  186.0040  178.6110  144.3630 N   0  0  0  0  0  0  0  0  0  0  0  0
  189.9890  176.5920  144.8170 C   0  0  0  0  0  0  0  0  0  0  0  0
  191.1720  176.4970  144.0240 N   0  0  0  0  0  0  0  0  0  0  0  0
  192.0080  176.9780  142.8850 C   0  0  0  0  0  2  0  0  0  0  0  0
  192.5160  175.9570  143.6560 C   0  0  0  0  0  2  0  0  0  0  0  0
  188.5630  177.4450  142.9220 N   0  0  0  0  0  2  0  0  0  0  0  0
  188.4600  176.5800  141.7580 C   0  0  0  0  0  2  0  0  0  0  0  0
  187.7160  175.3080  142.1250 C   0  0  0  0  0  2  0  0  0  0  0  0
  188.3600  174.1640  141.5000 N   0  0  0  0  0  2  0  0  0  0  0  0
  189.6540  173.9850  142.1420 C   0  0  2  0  0  3  0  0  0  0  0  0
  190.6260  173.7070  141.1800 O   0  0  0  0  0  1  0  0  0  0  0  0
  189.5820  172.8670  143.1260 C   0  0  0  0  0  0  0  0  0  0  0  0
  189.9500  173.0860  144.4460 O   0  0  0  0  0  1  0  0  0  0  0  0
  189.1850  171.7260  142.7690 O   0  0  0  0  0  0  0  0  0  0  0  0
  1 10  1  0  0  0  0
  2 13  1  0  0  0  0
  2  1  2  0  0  0  0
  4 12  1  1  0  0  0
  4  1  1  0  0  0  0
  4  7  1  0  0  0  0
  5  8  2  0  0  0  0
  6  3  1  0  0  0  0
  7  8  1  0  0  0  0
  7 11  1  0  0  0  0
  9  5  1  0  0  0  0
 10  3  2  0  0  0  0
 10 11  1  0  0  0  0
 12  9  2  0  0  0  0
 13  6  2  0  0  0  0
 14 13  1  0  0  0  0
 15 16  1  0  0  0  0
 15 14  1  0  0  0  0
 16 14  1  0  0  0  0
 17  2  1  0  0  0  0
 18 19  1  0  0  0  0
 18 17  1  0  0  0  0
 20 19  1  0  0  0  0
 20 21  1  0  0  0  0
 21 22  1  6  0  0  0
 21 23  1  0  0  0  0
 23 24  1  0  0  0  0
 25 23  2  0  0  0  0
M  END
>  <MODEL>
9

>  <REMARK>
 VINA RESULT:      -5.8      2.845      3.491
  Name = 
  7 active torsions:
  status: ('A' for Active; 'I' for Inactive)
    1  A    between atoms: C_2  and  C_21
    2  A    between atoms: C_3  and  N_16
    3  A    between atoms: C_6  and  N_15
    4  A    between atoms: C_6  and  C_23
    5  A    between atoms: N_13  and  C_24
    6  A    between atoms: N_15  and  C_21
    7  A    between atoms: N_16  and  C_23
                            x       y       z     vdW  Elec       q    Type
                         _______ _______ _______ _____ _____    ______ ____

>  <TORSDO>
F 7

$$$$
