=
 OpenBabel11052417323D

 25 28  0  0  1  0  0  0  0  0999 V2000
  187.3710  177.9220  144.2550 C   0  0  0  0  0  0  0  0  0  0  0  0
  188.8300  177.6700  144.5430 C   0  0  1  0  0  3  0  0  0  0  0  0
  187.7240  177.7970  141.7380 C   0  0  0  0  0  2  0  0  0  0  0  0
  186.3730  178.1610  145.2110 C   0  0  0  0  0  0  0  0  0  0  0  0
  190.8590  175.3950  146.7700 N   0  0  0  0  0  2  0  0  0  0  0  0
  184.1510  178.6720  146.8210 C   0  0  0  0  0  3  0  0  0  0  0  0
  189.1750  178.1550  142.0560 C   0  0  0  0  0  2  0  0  0  0  0  0
  185.1230  178.3950  144.6480 C   0  0  0  0  0  0  0  0  0  0  0  0
  183.9980  178.6520  145.4260 C   0  0  0  0  0  3  0  0  0  0  0  0
  190.8970  176.9010  143.3890 C   0  0  0  0  0  0  0  0  0  0  0  0
  191.6980  176.9450  142.4180 O   0  0  0  0  0  0  0  0  0  0  0  0
  188.9930  176.4300  145.4270 C   0  0  0  0  0  2  0  0  0  0  0  0
  185.4120  178.4410  147.4040 C   0  0  0  0  0  3  0  0  0  0  0  0
  186.8840  178.0110  142.9530 C   0  0  0  0  0  0  0  0  0  0  0  0
  185.2260  178.3300  142.9700 S   0  0  0  0  0  0  0  0  0  0  0  0
  191.2840  176.2460  144.6000 N   0  0  0  0  0  0  0  0  0  0  0  0
  186.5330  178.1840  146.5990 C   0  0  0  0  0  3  0  0  0  0  0  0
  190.4420  176.0570  145.5760 C   0  0  0  0  0  0  0  0  0  0  0  0
  189.6000  177.5040  143.2980 N   0  0  0  0  0  0  0  0  0  0  0  0
  192.2340  174.9680  146.9860 C   0  0  0  0  0  2  0  0  0  0  0  0
  193.1450  176.1810  147.0910 C   0  0  0  0  0  2  0  0  0  0  0  0
  194.4990  175.9130  146.4430 C   0  0  0  0  0  2  0  0  0  0  0  0
  194.7620  176.8620  145.3170 C   0  0  0  0  0  0  0  0  0  0  0  0
  194.9180  178.1840  145.5790 F   0  0  0  0  0  0  0  0  0  0  0  0
  194.9910  176.4030  144.0880 C   0  0  0  0  0  2  0  0  0  0  0  0
  1  2  1  0  0  0  0
  1  4  1  0  0  0  0
  2 12  1  1  0  0  0
  3  7  1  0  0  0  0
  3 14  1  0  0  0  0
  4 17  1  0  0  0  0
  5 20  1  0  0  0  0
  6 13  1  0  0  0  0
  7 19  1  0  0  0  0
  8  4  2  0  0  0  0
  8  9  1  0  0  0  0
  9  6  2  0  0  0  0
 10 16  1  0  0  0  0
 11 10  2  0  0  0  0
 12 18  1  0  0  0  0
 14 15  1  0  0  0  0
 14  1  2  0  0  0  0
 15  8  1  0  0  0  0
 16 18  2  0  0  0  0
 17 13  2  0  0  0  0
 18  5  1  0  0  0  0
 19 10  1  0  0  0  0
 19  2  1  0  0  0  0
 20 21  1  0  0  0  0
 22 21  1  0  0  0  0
 23 24  1  0  0  0  0
 23 22  1  0  0  0  0
 25 23  2  0  0  0  0
M  END
>  <MODEL>
1

>  <REMARK>
 VINA RESULT:      -7.5      0.000      0.000
  Name = 
  4 active torsions:
  status: ('A' for Active; 'I' for Inactive)
    1  A    between atoms: C_2  and  C_25
    2  A    between atoms: N_6  and  C_15
    3  A    between atoms: C_15  and  C_21
    4  A    between atoms: C_21  and  C_25
                            x       y       z     vdW  Elec       q    Type
                         _______ _______ _______ _____ _____    ______ ____

>  <TORSDO>
F 4

$$$$
=
 OpenBabel11052417323D

 25 28  0  0  1  0  0  0  0  0999 V2000
  185.7940  177.6140  143.6790 C   0  0  0  0  0  0  0  0  0  0  0  0
  186.5070  177.1150  144.9100 C   0  0  1  0  0  3  0  0  0  0  0  0
  183.9930  178.7780  145.0480 C   0  0  0  0  0  2  0  0  0  0  0  0
  186.1630  177.3510  142.3510 C   0  0  0  0  0  0  0  0  0  0  0  0
  190.0420  177.0710  146.2350 N   0  0  0  0  0  2  0  0  0  0  0  0
  186.5950  177.0320  139.6130 C   0  0  0  0  0  3  0  0  0  0  0  0
  184.3710  177.7860  146.1470 C   0  0  0  0  0  2  0  0  0  0  0  0
  185.2950  177.9150  141.4230 C   0  0  0  0  0  0  0  0  0  0  0  0
  185.4860  177.7730  140.0510 C   0  0  0  0  0  3  0  0  0  0  0  0
  186.5440  177.4800  147.3730 C   0  0  0  0  0  0  0  0  0  0  0  0
  185.9510  177.6010  148.4780 O   0  0  0  0  0  0  0  0  0  0  0  0
  187.9550  177.6110  144.9250 C   0  0  0  0  0  2  0  0  0  0  0  0
  187.4780  176.4530  140.5420 C   0  0  0  0  0  3  0  0  0  0  0  0
  184.6150  178.3520  143.7600 C   0  0  0  0  0  0  0  0  0  0  0  0
  184.0530  178.7280  142.2130 S   0  0  0  0  0  0  0  0  0  0  0  0
  187.9580  177.2710  147.3440 N   0  0  0  0  0  0  0  0  0  0  0  0
  187.2660  176.6090  141.9210 C   0  0  0  0  0  3  0  0  0  0  0  0
  188.6290  177.2780  146.2280 C   0  0  0  0  0  0  0  0  0  0  0  0
  185.8170  177.5450  146.1390 N   0  0  0  0  0  0  0  0  0  0  0  0
  190.7820  176.7770  147.4530 C   0  0  0  0  0  2  0  0  0  0  0  0
  191.8670  175.7510  147.1700 C   0  0  0  0  0  2  0  0  0  0  0  0
  192.7150  176.1600  145.9710 C   0  0  0  0  0  2  0  0  0  0  0  0
  194.1460  176.3620  146.3570 C   0  0  0  0  0  0  0  0  0  0  0  0
  194.5010  177.4760  147.0470 F   0  0  0  0  0  0  0  0  0  0  0  0
  195.0400  175.3960  146.1620 C   0  0  0  0  0  2  0  0  0  0  0  0
  1 14  2  0  0  0  0
  1  2  1  0  0  0  0
  2 12  1  1  0  0  0
  2 19  1  0  0  0  0
  3  7  1  0  0  0  0
  4  1  1  0  0  0  0
  5 20  1  0  0  0  0
  6  9  2  0  0  0  0
  6 13  1  0  0  0  0
  8 15  1  0  0  0  0
  8  4  2  0  0  0  0
  9  8  1  0  0  0  0
 10 11  2  0  0  0  0
 12 18  1  0  0  0  0
 13 17  2  0  0  0  0
 14  3  1  0  0  0  0
 15 14  1  0  0  0  0
 16 10  1  0  0  0  0
 17  4  1  0  0  0  0
 18  5  1  0  0  0  0
 18 16  2  0  0  0  0
 19  7  1  0  0  0  0
 19 10  1  0  0  0  0
 21 20  1  0  0  0  0
 22 23  1  0  0  0  0
 22 21  1  0  0  0  0
 23 24  1  0  0  0  0
 25 23  2  0  0  0  0
M  END
>  <MODEL>
2

>  <REMARK>
 VINA RESULT:      -7.5      2.493      4.264
  Name = 
  4 active torsions:
  status: ('A' for Active; 'I' for Inactive)
    1  A    between atoms: C_2  and  C_25
    2  A    between atoms: N_6  and  C_15
    3  A    between atoms: C_15  and  C_21
    4  A    between atoms: C_21  and  C_25
                            x       y       z     vdW  Elec       q    Type
                         _______ _______ _______ _____ _____    ______ ____

>  <TORSDO>
F 4

$$$$
=
 OpenBabel11052417323D

 25 28  0  0  1  0  0  0  0  0999 V2000
  186.7220  177.3790  143.6670 C   0  0  0  0  0  0  0  0  0  0  0  0
  185.7120  177.2020  142.5620 C   0  0  1  0  0  3  0  0  0  0  0  0
  188.6280  177.7630  142.0270 C   0  0  0  0  0  2  0  0  0  0  0  0
  186.4640  177.2740  145.0430 C   0  0  0  0  0  0  0  0  0  0  0  0
  182.2870  178.5370  141.7010 N   0  0  0  0  0  2  0  0  0  0  0  0
  186.3180  177.1330  147.8260 C   0  0  0  0  0  3  0  0  0  0  0  0
  187.7520  177.0000  141.0340 C   0  0  0  0  0  2  0  0  0  0  0  0
  187.5990  177.4530  145.8250 C   0  0  0  0  0  0  0  0  0  0  0  0
  187.5560  177.3890  147.2160 C   0  0  0  0  0  3  0  0  0  0  0  0
  185.4840  177.5650  140.1100 C   0  0  0  0  0  0  0  0  0  0  0  0
  185.9220  177.4520  138.9340 O   0  0  0  0  0  0  0  0  0  0  0  0
  184.5770  178.2200  142.7080 C   0  0  0  0  0  2  0  0  0  0  0  0
  185.1630  176.9460  147.0450 C   0  0  0  0  0  3  0  0  0  0  0  0
  188.0710  177.6040  143.4020 C   0  0  0  0  0  0  0  0  0  0  0  0
  188.9380  177.7260  144.8450 S   0  0  0  0  0  0  0  0  0  0  0  0
  184.1160  177.9190  140.3280 N   0  0  0  0  0  0  0  0  0  0  0  0
  185.2290  177.0150  145.6440 C   0  0  0  0  0  3  0  0  0  0  0  0
  183.6570  178.1800  141.5180 C   0  0  0  0  0  0  0  0  0  0  0  0
  186.3410  177.3370  141.2360 N   0  0  0  0  0  0  0  0  0  0  0  0
  181.3330  178.5580  140.6020 C   0  0  0  0  0  2  0  0  0  0  0  0
  179.9660  178.9900  141.1060 C   0  0  0  0  0  2  0  0  0  0  0  0
  179.0170  177.8020  141.2170 C   0  0  0  0  0  2  0  0  0  0  0  0
  178.5630  177.5940  142.6270 C   0  0  0  0  0  0  0  0  0  0  0  0
  178.4540  176.3330  143.1150 F   0  0  0  0  0  0  0  0  0  0  0  0
  178.4100  178.6320  143.4460 C   0  0  0  0  0  2  0  0  0  0  0  0
  1  4  1  0  0  0  0
  2 12  1  1  0  0  0
  2  1  1  0  0  0  0
  3 14  1  0  0  0  0
  4 17  2  0  0  0  0
  4  8  1  0  0  0  0
  7 19  1  0  0  0  0
  7  3  1  0  0  0  0
  8  9  2  0  0  0  0
  9  6  1  0  0  0  0
 10 16  1  0  0  0  0
 10 19  1  0  0  0  0
 11 10  2  0  0  0  0
 13  6  2  0  0  0  0
 14  1  2  0  0  0  0
 14 15  1  0  0  0  0
 15  8  1  0  0  0  0
 16 18  2  0  0  0  0
 17 13  1  0  0  0  0
 18  5  1  0  0  0  0
 18 12  1  0  0  0  0
 19  2  1  0  0  0  0
 20 21  1  0  0  0  0
 20  5  1  0  0  0  0
 21 22  1  0  0  0  0
 22 23  1  0  0  0  0
 23 24  1  0  0  0  0
 23 25  2  0  0  0  0
M  END
>  <MODEL>
3

>  <REMARK>
 VINA RESULT:      -7.4      5.291      8.837
  Name = 
  4 active torsions:
  status: ('A' for Active; 'I' for Inactive)
    1  A    between atoms: C_2  and  C_25
    2  A    between atoms: N_6  and  C_15
    3  A    between atoms: C_15  and  C_21
    4  A    between atoms: C_21  and  C_25
                            x       y       z     vdW  Elec       q    Type
                         _______ _______ _______ _____ _____    ______ ____

>  <TORSDO>
F 4

$$$$
=
 OpenBabel11052417323D

 25 28  0  0  1  0  0  0  0  0999 V2000
  187.8230  176.7220  145.0950 C   0  0  0  0  0  0  0  0  0  0  0  0
  186.8370  177.6670  144.4560 C   0  0  1  0  0  3  0  0  0  0  0  0
  186.5080  176.6290  147.2710 C   0  0  0  0  0  2  0  0  0  0  0  0
  189.0050  176.2450  144.5080 C   0  0  0  0  0  0  0  0  0  0  0  0
  184.9370  177.9010  141.2020 N   0  0  0  0  0  2  0  0  0  0  0  0
  191.4110  175.1120  143.6620 C   0  0  0  0  0  3  0  0  0  0  0  0
  185.9360  177.9760  146.8300 C   0  0  0  0  0  2  0  0  0  0  0  0
  189.7350  175.4140  145.3500 C   0  0  0  0  0  0  0  0  0  0  0  0
  190.9380  174.8340  144.9550 C   0  0  0  0  0  3  0  0  0  0  0  0
  184.5430  178.5640  144.8220 C   0  0  0  0  0  0  0  0  0  0  0  0
  183.6680  179.0820  145.5660 O   0  0  0  0  0  0  0  0  0  0  0  0
  186.2760  177.0610  143.1670 C   0  0  0  0  0  2  0  0  0  0  0  0
  190.6830  175.9550  142.8020 C   0  0  0  0  0  3  0  0  0  0  0  0
  187.6740  176.2800  146.4080 C   0  0  0  0  0  0  0  0  0  0  0  0
  188.9550  175.2660  146.8320 S   0  0  0  0  0  0  0  0  0  0  0  0
  184.3520  178.5470  143.4060 N   0  0  0  0  0  0  0  0  0  0  0  0
  189.4720  176.5280  143.2210 C   0  0  0  0  0  3  0  0  0  0  0  0
  185.1600  177.9030  142.6130 C   0  0  0  0  0  0  0  0  0  0  0  0
  185.7350  177.9930  145.3790 N   0  0  0  0  0  0  0  0  0  0  0  0
  183.8610  178.6600  140.5820 C   0  0  0  0  0  2  0  0  0  0  0  0
  182.6360  177.7770  140.4060 C   0  0  0  0  0  2  0  0  0  0  0  0
  181.4890  178.2400  141.2980 C   0  0  0  0  0  2  0  0  0  0  0  0
  180.3800  178.8410  140.4950 C   0  0  0  0  0  0  0  0  0  0  0  0
  179.5570  178.0320  139.7810 F   0  0  0  0  0  0  0  0  0  0  0  0
  180.1020  180.1390  140.5930 C   0  0  0  0  0  2  0  0  0  0  0  0
  1 14  2  0  0  0  0
  2 12  1  6  0  0  0
  2  1  1  0  0  0  0
  2 19  1  0  0  0  0
  4  1  1  0  0  0  0
  4  8  1  0  0  0  0
  5 18  1  0  0  0  0
  6  9  1  0  0  0  0
  7  3  1  0  0  0  0
  8 15  1  0  0  0  0
  9  8  2  0  0  0  0
 10 19  1  0  0  0  0
 10 11  2  0  0  0  0
 13 17  1  0  0  0  0
 13  6  2  0  0  0  0
 14 15  1  0  0  0  0
 14  3  1  0  0  0  0
 16 10  1  0  0  0  0
 17  4  2  0  0  0  0
 18 12  1  0  0  0  0
 18 16  2  0  0  0  0
 19  7  1  0  0  0  0
 20  5  1  0  0  0  0
 21 20  1  0  0  0  0
 21 22  1  0  0  0  0
 23 25  2  0  0  0  0
 23 22  1  0  0  0  0
 24 23  1  0  0  0  0
M  END
>  <MODEL>
4

>  <REMARK>
 VINA RESULT:      -7.3      5.006      8.817
  Name = 
  4 active torsions:
  status: ('A' for Active; 'I' for Inactive)
    1  A    between atoms: C_2  and  C_25
    2  A    between atoms: N_6  and  C_15
    3  A    between atoms: C_15  and  C_21
    4  A    between atoms: C_21  and  C_25
                            x       y       z     vdW  Elec       q    Type
                         _______ _______ _______ _____ _____    ______ ____

>  <TORSDO>
F 4

$$$$
=
 OpenBabel11052417323D

 25 28  0  0  1  0  0  0  0  0999 V2000
  185.7860  177.6200  143.6600 C   0  0  0  0  0  0  0  0  0  0  0  0
  186.5510  177.1150  144.8570 C   0  0  1  0  0  3  0  0  0  0  0  0
  184.0080  178.7220  145.1090 C   0  0  0  0  0  2  0  0  0  0  0  0
  186.1150  177.3880  142.3160 C   0  0  0  0  0  0  0  0  0  0  0  0
  190.1290  177.1250  146.0620 N   0  0  0  0  0  2  0  0  0  0  0  0
  186.4610  177.1250  139.5590 C   0  0  0  0  0  3  0  0  0  0  0  0
  184.4440  177.7200  146.1770 C   0  0  0  0  0  2  0  0  0  0  0  0
  185.2050  177.9490  141.4270 C   0  0  0  0  0  0  0  0  0  0  0  0
  185.3520  177.8340  140.0470 C   0  0  0  0  0  3  0  0  0  0  0  0
  186.6630  177.4390  147.3230 C   0  0  0  0  0  0  0  0  0  0  0  0
  186.1060  177.5290  148.4500 O   0  0  0  0  0  0  0  0  0  0  0  0
  187.9880  177.6420  144.8320 C   0  0  0  0  0  2  0  0  0  0  0  0
  187.3870  176.5490  140.4480 C   0  0  0  0  0  3  0  0  0  0  0  0
  184.5950  178.3310  143.7930 C   0  0  0  0  0  0  0  0  0  0  0  0
  183.9740  178.7220  142.2730 S   0  0  0  0  0  0  0  0  0  0  0  0
  188.0800  177.2610  147.2440 N   0  0  0  0  0  0  0  0  0  0  0  0
  187.2190  176.6770  141.8360 C   0  0  0  0  0  3  0  0  0  0  0  0
  188.7120  177.3010  146.1060 C   0  0  0  0  0  0  0  0  0  0  0  0
  185.8930  177.5100  146.1160 N   0  0  0  0  0  0  0  0  0  0  0  0
  190.9150  176.8260  147.2500 C   0  0  0  0  0  2  0  0  0  0  0  0
  191.4220  175.3940  147.1920 C   0  0  0  0  0  2  0  0  0  0  0  0
  191.1770  174.7750  145.8210 C   0  0  0  0  0  2  0  0  0  0  0  0
  190.0380  173.8060  145.8550 C   0  0  0  0  0  0  0  0  0  0  0  0
  189.0620  173.9530  146.7860 F   0  0  0  0  0  0  0  0  0  0  0  0
  189.8980  172.8970  144.8930 C   0  0  0  0  0  2  0  0  0  0  0  0
  1 14  2  0  0  0  0
  1  2  1  0  0  0  0
  2 12  1  1  0  0  0
  2 19  1  0  0  0  0
  3  7  1  0  0  0  0
  4  1  1  0  0  0  0
  5 18  1  0  0  0  0
  5 20  1  0  0  0  0
  6  9  2  0  0  0  0
  6 13  1  0  0  0  0
  8 15  1  0  0  0  0
  8  4  2  0  0  0  0
  9  8  1  0  0  0  0
 10 11  2  0  0  0  0
 12 18  1  0  0  0  0
 13 17  2  0  0  0  0
 14  3  1  0  0  0  0
 15 14  1  0  0  0  0
 16 10  1  0  0  0  0
 17  4  1  0  0  0  0
 18 16  2  0  0  0  0
 19  7  1  0  0  0  0
 19 10  1  0  0  0  0
 21 20  1  0  0  0  0
 22 23  1  0  0  0  0
 22 21  1  0  0  0  0
 23 24  1  0  0  0  0
 25 23  2  0  0  0  0
M  END
>  <MODEL>
5

>  <REMARK>
 VINA RESULT:      -7.3      2.994      4.794
  Name = 
  4 active torsions:
  status: ('A' for Active; 'I' for Inactive)
    1  A    between atoms: C_2  and  C_25
    2  A    between atoms: N_6  and  C_15
    3  A    between atoms: C_15  and  C_21
    4  A    between atoms: C_21  and  C_25
                            x       y       z     vdW  Elec       q    Type
                         _______ _______ _______ _____ _____    ______ ____

>  <TORSDO>
F 4

$$$$
=
 OpenBabel11052417323D

 25 28  0  0  1  0  0  0  0  0999 V2000
  185.8770  177.9390  143.8250 C   0  0  0  0  0  0  0  0  0  0  0  0
  186.8650  177.4460  142.7990 C   0  0  1  0  0  3  0  0  0  0  0  0
  184.1040  178.4170  142.0650 C   0  0  0  0  0  2  0  0  0  0  0  0
  186.1080  178.0480  145.2050 C   0  0  0  0  0  0  0  0  0  0  0  0
  189.1120  174.4470  142.3370 N   0  0  0  0  0  2  0  0  0  0  0  0
  186.2190  178.4000  147.9710 C   0  0  0  0  0  3  0  0  0  0  0  0
  185.2790  178.5020  141.0920 C   0  0  0  0  0  2  0  0  0  0  0  0
  185.0230  178.5690  145.9010 C   0  0  0  0  0  0  0  0  0  0  0  0
  185.0490  178.7550  147.2810 C   0  0  0  0  0  3  0  0  0  0  0  0
  186.9460  176.7490  140.4100 C   0  0  0  0  0  0  0  0  0  0  0  0
  186.6680  176.9410  139.1960 O   0  0  0  0  0  0  0  0  0  0  0  0
  187.2950  176.0120  143.1190 C   0  0  0  0  0  2  0  0  0  0  0  0
  187.3260  177.8750  147.2780 C   0  0  0  0  0  3  0  0  0  0  0  0
  184.6180  178.4160  143.4650 C   0  0  0  0  0  0  0  0  0  0  0  0
  183.7700  178.9210  144.8350 S   0  0  0  0  0  0  0  0  0  0  0  0
  187.9190  175.7650  140.7700 N   0  0  0  0  0  0  0  0  0  0  0  0
  187.2770  177.6970  145.8870 C   0  0  0  0  0  3  0  0  0  0  0  0
  188.1360  175.4380  142.0120 C   0  0  0  0  0  0  0  0  0  0  0  0
  186.3000  177.5090  141.4390 N   0  0  0  0  0  0  0  0  0  0  0  0
  189.9480  173.8150  141.3270 C   0  0  0  0  0  2  0  0  0  0  0  0
  190.2760  172.3890  141.7410 C   0  0  0  0  0  2  0  0  0  0  0  0
  189.3620  171.9160  142.8660 C   0  0  0  0  0  2  0  0  0  0  0  0
  190.0530  171.9750  144.1910 C   0  0  0  0  0  0  0  0  0  0  0  0
  189.3180  171.9140  145.3310 F   0  0  0  0  0  0  0  0  0  0  0  0
  191.3810  171.9360  144.2620 C   0  0  0  0  0  2  0  0  0  0  0  0
  1  4  1  0  0  0  0
  2 12  1  1  0  0  0
  2  1  1  0  0  0  0
  3 14  1  0  0  0  0
  4 17  2  0  0  0  0
  4  8  1  0  0  0  0
  7 19  1  0  0  0  0
  7  3  1  0  0  0  0
  8  9  2  0  0  0  0
  9  6  1  0  0  0  0
 10 16  1  0  0  0  0
 10 19  1  0  0  0  0
 11 10  2  0  0  0  0
 13  6  2  0  0  0  0
 14  1  2  0  0  0  0
 14 15  1  0  0  0  0
 15  8  1  0  0  0  0
 16 18  2  0  0  0  0
 17 13  1  0  0  0  0
 18  5  1  0  0  0  0
 18 12  1  0  0  0  0
 19  2  1  0  0  0  0
 20 21  1  0  0  0  0
 20  5  1  0  0  0  0
 21 22  1  0  0  0  0
 22 23  1  0  0  0  0
 23 25  2  0  0  0  0
 23 24  1  0  0  0  0
M  END
>  <MODEL>
6

>  <REMARK>
 VINA RESULT:      -7.2      3.773      4.539
  Name = 
  4 active torsions:
  status: ('A' for Active; 'I' for Inactive)
    1  A    between atoms: C_2  and  C_25
    2  A    between atoms: N_6  and  C_15
    3  A    between atoms: C_15  and  C_21
    4  A    between atoms: C_21  and  C_25
                            x       y       z     vdW  Elec       q    Type
                         _______ _______ _______ _____ _____    ______ ____

>  <TORSDO>
F 4

$$$$
=
 OpenBabel11052417323D

 25 28  0  0  1  0  0  0  0  0999 V2000
  185.9860  177.8270  143.8140 C   0  0  0  0  0  0  0  0  0  0  0  0
  186.9780  177.3280  142.7940 C   0  0  1  0  0  3  0  0  0  0  0  0
  184.2170  178.2900  142.0460 C   0  0  0  0  0  2  0  0  0  0  0  0
  186.2140  177.9460  145.1940 C   0  0  0  0  0  0  0  0  0  0  0  0
  189.2310  174.3300  142.3590 N   0  0  0  0  0  2  0  0  0  0  0  0
  186.3170  178.3170  147.9580 C   0  0  0  0  0  3  0  0  0  0  0  0
  185.3950  178.3700  141.0760 C   0  0  0  0  0  2  0  0  0  0  0  0
  185.1260  178.4700  145.8830 C   0  0  0  0  0  0  0  0  0  0  0  0
  185.1490  178.6660  147.2610 C   0  0  0  0  0  3  0  0  0  0  0  0
  187.0660  176.6140  140.4110 C   0  0  0  0  0  0  0  0  0  0  0  0
  186.7920  176.7970  139.1950 O   0  0  0  0  0  0  0  0  0  0  0  0
  187.4090  175.8970  143.1250 C   0  0  0  0  0  2  0  0  0  0  0  0
  187.4260  177.7890  147.2710 C   0  0  0  0  0  3  0  0  0  0  0  0
  184.7280  178.3000  143.4480 C   0  0  0  0  0  0  0  0  0  0  0  0
  183.8760  178.8130  144.8120 S   0  0  0  0  0  0  0  0  0  0  0  0
  188.0400  175.6350  140.7800 N   0  0  0  0  0  0  0  0  0  0  0  0
  187.3810  177.6010  145.8810 C   0  0  0  0  0  3  0  0  0  0  0  0
  188.2540  175.3170  142.0240 C   0  0  0  0  0  0  0  0  0  0  0  0
  186.4160  177.3810  141.4330 N   0  0  0  0  0  0  0  0  0  0  0  0
  190.0700  173.6910  141.3560 C   0  0  0  0  0  2  0  0  0  0  0  0
  191.5070  174.1660  141.5000 C   0  0  0  0  0  2  0  0  0  0  0  0
  191.7530  174.7750  142.8750 C   0  0  0  0  0  2  0  0  0  0  0  0
  192.2180  176.1920  142.7700 C   0  0  0  0  0  0  0  0  0  0  0  0
  193.3980  176.4650  142.1560 F   0  0  0  0  0  0  0  0  0  0  0  0
  191.4220  177.1930  143.1380 C   0  0  0  0  0  2  0  0  0  0  0  0
  1  4  1  0  0  0  0
  2 12  1  1  0  0  0
  2  1  1  0  0  0  0
  3 14  1  0  0  0  0
  4 17  2  0  0  0  0
  4  8  1  0  0  0  0
  7 19  1  0  0  0  0
  7  3  1  0  0  0  0
  8  9  2  0  0  0  0
  9  6  1  0  0  0  0
 10 16  1  0  0  0  0
 10 19  1  0  0  0  0
 11 10  2  0  0  0  0
 13  6  2  0  0  0  0
 14  1  2  0  0  0  0
 14 15  1  0  0  0  0
 15  8  1  0  0  0  0
 16 18  2  0  0  0  0
 17 13  1  0  0  0  0
 18  5  1  0  0  0  0
 18 12  1  0  0  0  0
 19  2  1  0  0  0  0
 20 21  1  0  0  0  0
 20  5  1  0  0  0  0
 21 22  1  0  0  0  0
 23 22  1  0  0  0  0
 23 25  2  0  0  0  0
 24 23  1  0  0  0  0
M  END
>  <MODEL>
7

>  <REMARK>
 VINA RESULT:      -7.1      2.937      3.765
  Name = 
  4 active torsions:
  status: ('A' for Active; 'I' for Inactive)
    1  A    between atoms: C_2  and  C_25
    2  A    between atoms: N_6  and  C_15
    3  A    between atoms: C_15  and  C_21
    4  A    between atoms: C_21  and  C_25
                            x       y       z     vdW  Elec       q    Type
                         _______ _______ _______ _____ _____    ______ ____

>  <TORSDO>
F 4

$$$$
=
 OpenBabel11052417323D

 25 28  0  0  1  0  0  0  0  0999 V2000
  187.5420  176.8690  144.1610 C   0  0  0  0  0  0  0  0  0  0  0  0
  188.6290  175.8920  144.5320 C   0  0  1  0  0  3  0  0  0  0  0  0
  187.0840  177.4680  146.5910 C   0  0  0  0  0  2  0  0  0  0  0  0
  187.0890  177.1420  142.8610 C   0  0  0  0  0  0  0  0  0  0  0  0
  192.1840  175.1750  143.4840 N   0  0  0  0  0  2  0  0  0  0  0  0
  185.9450  177.9200  140.4380 C   0  0  0  0  0  3  0  0  0  0  0  0
  187.7000  176.1060  146.9060 C   0  0  0  0  0  2  0  0  0  0  0  0
  186.0500  178.0650  142.8280 C   0  0  0  0  0  0  0  0  0  0  0  0
  185.4600  178.4720  141.6340 C   0  0  0  0  0  3  0  0  0  0  0  0
  190.0250  175.2450  146.4890 C   0  0  0  0  0  0  0  0  0  0  0  0
  190.1430  174.9410  147.7070 O   0  0  0  0  0  0  0  0  0  0  0  0
  189.9470  176.2790  143.8580 C   0  0  0  0  0  2  0  0  0  0  0  0
  186.9940  176.9820  140.4580 C   0  0  0  0  0  3  0  0  0  0  0  0
  186.8160  177.5640  145.1260 C   0  0  0  0  0  0  0  0  0  0  0  0
  185.6580  178.5480  144.3900 S   0  0  0  0  0  0  0  0  0  0  0  0
  191.1090  175.0050  145.5890 N   0  0  0  0  0  0  0  0  0  0  0  0
  187.5730  176.5860  141.6740 C   0  0  0  0  0  3  0  0  0  0  0  0
  191.0820  175.4270  144.3570 C   0  0  0  0  0  0  0  0  0  0  0  0
  188.8120  175.8270  145.9930 N   0  0  0  0  0  0  0  0  0  0  0  0
  193.3390  174.3890  143.8930 C   0  0  0  0  0  2  0  0  0  0  0  0
  194.6130  175.1940  143.6930 C   0  0  0  0  0  2  0  0  0  0  0  0
  194.6340  176.4280  144.5870 C   0  0  0  0  0  2  0  0  0  0  0  0
  194.5660  176.0560  146.0340 C   0  0  0  0  0  0  0  0  0  0  0  0
  195.3740  175.0760  146.5110 F   0  0  0  0  0  0  0  0  0  0  0  0
  193.8330  176.7750  146.8810 C   0  0  0  0  0  2  0  0  0  0  0  0
  1  2  1  0  0  0  0
  1 14  2  0  0  0  0
  2 12  1  6  0  0  0
  2 19  1  0  0  0  0
  3  7  1  0  0  0  0
  4  1  1  0  0  0  0
  5 20  1  0  0  0  0
  5 18  1  0  0  0  0
  6 13  2  0  0  0  0
  6  9  1  0  0  0  0
  8  4  1  0  0  0  0
  8 15  1  0  0  0  0
  9  8  2  0  0  0  0
 10 11  2  0  0  0  0
 12 18  1  0  0  0  0
 13 17  1  0  0  0  0
 14  3  1  0  0  0  0
 15 14  1  0  0  0  0
 16 10  1  0  0  0  0
 17  4  2  0  0  0  0
 18 16  2  0  0  0  0
 19 10  1  0  0  0  0
 19  7  1  0  0  0  0
 21 20  1  0  0  0  0
 21 22  1  0  0  0  0
 22 23  1  0  0  0  0
 23 24  1  0  0  0  0
 23 25  2  0  0  0  0
M  END
>  <MODEL>
8

>  <REMARK>
 VINA RESULT:      -7.1      2.134      3.734
  Name = 
  4 active torsions:
  status: ('A' for Active; 'I' for Inactive)
    1  A    between atoms: C_2  and  C_25
    2  A    between atoms: N_6  and  C_15
    3  A    between atoms: C_15  and  C_21
    4  A    between atoms: C_21  and  C_25
                            x       y       z     vdW  Elec       q    Type
                         _______ _______ _______ _____ _____    ______ ____

>  <TORSDO>
F 4

$$$$
=
 OpenBabel11052417323D

 25 28  0  0  1  0  0  0  0  0999 V2000
  186.0830  177.8680  143.8570 C   0  0  0  0  0  0  0  0  0  0  0  0
  187.0470  177.3720  142.8090 C   0  0  1  0  0  3  0  0  0  0  0  0
  184.2460  178.2790  142.1440 C   0  0  0  0  0  2  0  0  0  0  0  0
  186.3550  178.0070  145.2260 C   0  0  0  0  0  0  0  0  0  0  0  0
  189.3360  174.4080  142.3320 N   0  0  0  0  0  2  0  0  0  0  0  0
  186.5460  178.4150  147.9800 C   0  0  0  0  0  3  0  0  0  0  0  0
  185.3890  178.3660  141.1340 C   0  0  0  0  0  2  0  0  0  0  0  0
  185.2830  178.5220  145.9460 C   0  0  0  0  0  0  0  0  0  0  0  0
  185.3490  178.7350  147.3200 C   0  0  0  0  0  3  0  0  0  0  0  0
  187.0670  176.6310  140.4320 C   0  0  0  0  0  0  0  0  0  0  0  0
  186.7480  176.7940  139.2240 O   0  0  0  0  0  0  0  0  0  0  0  0
  187.5140  175.9530  143.1420 C   0  0  0  0  0  2  0  0  0  0  0  0
  187.6410  177.8970  147.2620 C   0  0  0  0  0  3  0  0  0  0  0  0
  184.8050  178.3140  143.5270 C   0  0  0  0  0  0  0  0  0  0  0  0
  183.9910  178.8300  144.9140 S   0  0  0  0  0  0  0  0  0  0  0  0
  188.0690  175.6720  140.7790 N   0  0  0  0  0  0  0  0  0  0  0  0
  187.5510  177.6910  145.8770 C   0  0  0  0  0  3  0  0  0  0  0  0
  188.3320  175.3740  142.0200 C   0  0  0  0  0  0  0  0  0  0  0  0
  186.4390  177.3990  141.4670 N   0  0  0  0  0  0  0  0  0  0  0  0
  190.1510  173.7710  141.3080 C   0  0  0  0  0  2  0  0  0  0  0  0
  189.8140  172.2910  141.2190 C   0  0  0  0  0  2  0  0  0  0  0  0
  190.0490  171.7540  139.8120 C   0  0  0  0  0  2  0  0  0  0  0  0
  189.0390  172.2890  138.8470 C   0  0  0  0  0  0  0  0  0  0  0  0
  187.8160  172.6660  139.2990 F   0  0  0  0  0  0  0  0  0  0  0  0
  189.3770  172.5350  137.5830 C   0  0  0  0  0  2  0  0  0  0  0  0
  1  4  1  0  0  0  0
  2 12  1  1  0  0  0
  2  1  1  0  0  0  0
  3 14  1  0  0  0  0
  4 17  2  0  0  0  0
  4  8  1  0  0  0  0
  7 19  1  0  0  0  0
  7  3  1  0  0  0  0
  8  9  2  0  0  0  0
  9  6  1  0  0  0  0
 10 16  1  0  0  0  0
 10 19  1  0  0  0  0
 11 10  2  0  0  0  0
 13  6  2  0  0  0  0
 14  1  2  0  0  0  0
 14 15  1  0  0  0  0
 15  8  1  0  0  0  0
 16 18  2  0  0  0  0
 17 13  1  0  0  0  0
 18  5  1  0  0  0  0
 18 12  1  0  0  0  0
 19  2  1  0  0  0  0
 20  5  1  0  0  0  0
 21 20  1  0  0  0  0
 22 21  1  0  0  0  0
 23 24  1  0  0  0  0
 23 22  1  0  0  0  0
 25 23  2  0  0  0  0
M  END
>  <MODEL>
9

>  <REMARK>
 VINA RESULT:      -7.0      4.243      5.280
  Name = 
  4 active torsions:
  status: ('A' for Active; 'I' for Inactive)
    1  A    between atoms: C_2  and  C_25
    2  A    between atoms: N_6  and  C_15
    3  A    between atoms: C_15  and  C_21
    4  A    between atoms: C_21  and  C_25
                            x       y       z     vdW  Elec       q    Type
                         _______ _______ _______ _____ _____    ______ ____

>  <TORSDO>
F 4

$$$$
