=
 OpenBabel11052420113D

 37 42  0  0  1  0  0  0  0  0999 V2000
  186.8630  173.9670  142.1760 F   0  0  0  0  0  0  0  0  0  0  0  0
  191.0260  176.5410  143.0090 C   0  0  2  0  0  3  0  0  0  0  0  0
  192.4500  176.5070  146.3040 O   0  0  0  0  0  1  0  0  0  0  0  0
  188.9980  175.1780  142.6850 C   0  0  2  0  0  3  0  0  0  0  0  0
  191.0580  176.2830  144.4390 N   0  0  1  0  0  0  0  0  0  0  0  0
  189.5700  176.5920  142.6440 C   0  0  1  0  0  3  0  0  0  0  0  0
  192.4050  176.6030  144.9120 C   0  0  2  0  0  3  0  0  0  0  0  0
  189.8180  174.2480  141.7990 C   0  0  0  0  0  2  0  0  0  0  0  0
  189.0030  177.3810  143.8100 C   0  0  1  0  0  3  0  0  0  0  0  0
  186.6900  176.1220  143.2600 C   0  0  2  0  0  3  0  0  0  0  0  0
  191.8890  173.2590  141.4170 C   0  0  0  0  0  1  0  0  0  0  0  0
  191.1860  174.1570  142.3220 N   0  0  0  0  0  0  0  0  0  0  0  0
  187.5090  177.1100  144.1410 C   0  0  2  0  0  3  0  0  0  0  0  0
  191.8200  175.4840  142.2340 C   0  0  2  0  0  3  0  0  0  0  0  0
  190.0190  177.1760  144.9620 C   0  0  1  0  0  3  0  0  0  0  0  0
  187.5030  175.1750  142.3850 C   0  0  2  0  0  0  0  0  0  0  0  0
  193.3930  175.5780  144.2910 C   0  0  1  0  0  3  0  0  0  0  0  0
  186.8420  176.3970  141.7660 C   0  0  0  0  0  2  0  0  0  0  0  0
  193.2700  175.4920  142.7560 C   0  0  0  0  0  2  0  0  0  0  0  0
  194.8040  175.7820  144.6580 N   0  0  0  0  0  0  0  0  0  0  0  0
  195.1720  175.2190  145.9700 C   0  0  0  0  0  2  0  0  0  0  0  0
  196.1930  174.0870  145.8950 C   0  0  0  0  0  1  0  0  0  0  0  0
  195.7000  175.3630  143.5830 C   0  0  0  0  0  2  0  0  0  0  0  0
  196.7160  176.6080  141.6780 O   0  0  0  0  0  0  0  0  0  0  0  0
  196.8010  177.4640  143.8030 O   0  0  0  0  0  1  0  0  0  0  0  0
  196.4230  176.5430  143.0330 C   0  0  0  0  0  0  0  0  0  0  0  0
  186.7690  178.4280  144.3230 C   0  0  0  0  0  2  0  0  0  0  0  0
  185.3560  178.1860  144.5750 N   0  0  0  0  0  0  0  0  0  0  0  0
  184.6200  179.3200  144.0260 C   0  0  0  0  0  1  0  0  0  0  0  0
  185.1560  178.0940  146.0270 C   0  0  2  0  0  3  0  0  0  0  0  0
  185.9030  177.1140  147.8830 C   0  0  0  0  0  2  0  0  0  0  0  0
  185.8890  179.2020  146.7510 C   0  0  0  0  0  2  0  0  0  0  0  0
  185.5760  176.8540  146.5450 O   0  0  0  0  0  0  0  0  0  0  0  0
  186.4080  178.5350  147.9890 C   0  0  0  0  0  2  0  0  0  0  0  0
  189.3930  176.5640  146.2150 C   0  0  0  0  0  2  0  0  0  0  0  0
  189.0500  174.4990  147.3670 O   0  0  0  0  0  1  0  0  0  0  0  0
  189.4220  175.0470  146.1400 C   0  0  0  0  0  2  0  0  0  0  0  0
  1 16  1  0  0  0  0
  2  5  1  0  0  0  0
  5  7  1  0  0  0  0
  5 15  1  0  0  0  0
  6  4  1  0  0  0  0
  6  2  1  0  0  0  0
  6  9  1  0  0  0  0
  7  3  1  0  0  0  0
  8 12  1  0  0  0  0
  8  4  1  0  0  0  0
  9 13  1  0  0  0  0
  9 15  1  0  0  0  0
 10 13  1  0  0  0  0
 11 12  1  0  0  0  0
 13 27  1  0  0  0  0
 14 12  1  0  0  0  0
 14 19  1  0  0  0  0
 14  2  1  0  0  0  0
 15 35  1  0  0  0  0
 16  4  1  0  0  0  0
 16 10  1  0  0  0  0
 17 20  1  0  0  0  0
 17  7  1  0  0  0  0
 18 16  1  0  0  0  0
 18 10  1  0  0  0  0
 19 17  1  0  0  0  0
 20 21  1  0  0  0  0
 22 21  1  0  0  0  0
 23 20  1  0  0  0  0
 24 26  2  0  0  0  0
 26 23  1  0  0  0  0
 26 25  1  0  0  0  0
 27 28  1  0  0  0  0
 28 30  1  0  0  0  0
 29 28  1  0  0  0  0
 30 33  1  0  0  0  0
 30 32  1  0  0  0  0
 31 34  1  0  0  0  0
 32 34  1  0  0  0  0
 33 31  1  0  0  0  0
 37 35  1  0  0  0  0
 37 36  1  0  0  0  0
M  END
>  <MODEL>
1

>  <REMARK>
 VINA RESULT:      -7.7      0.000      0.000
  Name = 
  9 active torsions:
  status: ('A' for Active; 'I' for Inactive)
    1  A    between atoms: N_1  and  C_5
    2  A    between atoms: N_1  and  C_23
    3  A    between atoms: C_2  and  N_6
    4  A    between atoms: N_6  and  C_8
    5  A    between atoms: N_6  and  C_31
    6  A    between atoms: C_8  and  C_19
    7  A    between atoms: C_23  and  C_25
    8  A    between atoms: C_29  and  C_33
    9  A    between atoms: C_33  and  C_36
                            x       y       z     vdW  Elec       q    Type
                         _______ _______ _______ _____ _____    ______ ____

>  <TORSDO>
F 9

$$$$
=
 OpenBabel11052420113D

 37 42  0  0  1  0  0  0  0  0999 V2000
  191.7470  174.8850  148.2100 F   0  0  0  0  0  0  0  0  0  0  0  0
  189.5910  176.9860  144.2620 C   0  0  2  0  0  3  0  0  0  0  0  0
  187.4460  174.9840  142.1930 O   0  0  0  0  0  1  0  0  0  0  0  0
  190.5580  175.8660  146.2330 C   0  0  2  0  0  3  0  0  0  0  0  0
  188.9910  175.7570  143.7680 N   0  0  1  0  0  0  0  0  0  0  0  0
  190.8770  176.5680  144.9170 C   0  0  1  0  0  3  0  0  0  0  0  0
  187.9580  176.1310  142.8040 C   0  0  2  0  0  3  0  0  0  0  0  0
  189.6840  176.7530  147.1110 C   0  0  0  0  0  2  0  0  0  0  0  0
  191.3900  175.5400  143.9270 C   0  0  1  0  0  3  0  0  0  0  0  0
  192.7060  174.4900  146.0250 C   0  0  2  0  0  3  0  0  0  0  0  0
  187.6400  177.8380  147.3480 C   0  0  0  0  0  1  0  0  0  0  0  0
  188.3980  176.9850  146.4440 N   0  0  0  0  0  0  0  0  0  0  0  0
  192.3210  174.4450  144.5170 C   0  0  2  0  0  3  0  0  0  0  0  0
  188.6350  177.7350  145.1970 C   0  0  2  0  0  3  0  0  0  0  0  0
  190.1280  175.0480  143.1720 C   0  0  1  0  0  3  0  0  0  0  0  0
  191.8260  175.3610  146.9140 C   0  0  2  0  0  0  0  0  0  0  0  0
  186.8200  176.8600  143.5690 C   0  0  1  0  0  3  0  0  0  0  0  0
  193.1890  175.8690  146.4700 C   0  0  0  0  0  2  0  0  0  0  0  0
  187.3390  178.0350  144.4220 C   0  0  0  0  0  2  0  0  0  0  0  0
  185.7060  177.3220  142.7250 N   0  0  0  0  0  0  0  0  0  0  0  0
  184.5200  177.7620  143.4830 C   0  0  0  0  0  2  0  0  0  0  0  0
  184.4270  179.2750  143.6650 C   0  0  0  0  0  1  0  0  0  0  0  0
  186.1540  178.3040  141.7410 C   0  0  0  0  0  2  0  0  0  0  0  0
  184.3290  178.1040  140.0560 O   0  0  0  0  0  1  0  0  0  0  0  0
  186.4560  177.4140  139.5530 O   0  0  0  0  0  0  0  0  0  0  0  0
  185.6650  177.9270  140.3860 C   0  0  0  0  0  0  0  0  0  0  0  0
  193.5540  174.2820  143.6390 C   0  0  0  0  0  2  0  0  0  0  0  0
  193.8060  175.5030  142.8870 N   0  0  0  0  0  0  0  0  0  0  0  0
  193.7700  175.1530  141.4720 C   0  0  0  0  0  1  0  0  0  0  0  0
  195.1330  176.0080  143.2620 C   0  0  2  0  0  3  0  0  0  0  0  0
  197.2150  175.3910  143.7620 C   0  0  0  0  0  2  0  0  0  0  0  0
  195.9310  176.4060  142.0400 C   0  0  0  0  0  2  0  0  0  0  0  0
  195.8720  175.0670  144.0040 O   0  0  0  0  0  0  0  0  0  0  0  0
  197.3270  175.9710  142.3700 C   0  0  0  0  0  2  0  0  0  0  0  0
  189.9120  173.5390  143.2820 C   0  0  0  0  0  2  0  0  0  0  0  0
  190.4610  173.8120  140.9740 O   0  0  0  0  0  1  0  0  0  0  0  0
  190.2240  172.8570  141.9620 C   0  0  0  0  0  2  0  0  0  0  0  0
  2  6  1  0  0  0  0
  2 14  1  0  0  0  0
  3  7  1  0  0  0  0
  4 16  1  0  0  0  0
  4  8  1  0  0  0  0
  5  2  1  0  0  0  0
  6  4  1  0  0  0  0
  7 17  1  0  0  0  0
  7  5  1  0  0  0  0
  9 13  1  0  0  0  0
  9  6  1  0  0  0  0
 10 18  1  0  0  0  0
 10 16  1  0  0  0  0
 12  8  1  0  0  0  0
 12 11  1  0  0  0  0
 13 10  1  0  0  0  0
 14 12  1  0  0  0  0
 15 35  1  0  0  0  0
 15  5  1  0  0  0  0
 15  9  1  0  0  0  0
 16  1  1  0  0  0  0
 17 19  1  0  0  0  0
 18 16  1  0  0  0  0
 19 14  1  0  0  0  0
 20 21  1  0  0  0  0
 20 17  1  0  0  0  0
 21 22  1  0  0  0  0
 23 20  1  0  0  0  0
 24 26  1  0  0  0  0
 25 26  2  0  0  0  0
 26 23  1  0  0  0  0
 27 13  1  0  0  0  0
 28 30  1  0  0  0  0
 28 27  1  0  0  0  0
 29 28  1  0  0  0  0
 30 33  1  0  0  0  0
 31 33  1  0  0  0  0
 32 34  1  0  0  0  0
 32 30  1  0  0  0  0
 34 31  1  0  0  0  0
 36 37  1  0  0  0  0
 37 35  1  0  0  0  0
M  END
>  <MODEL>
2

>  <REMARK>
 VINA RESULT:      -7.6      2.908      8.234
  Name = 
  9 active torsions:
  status: ('A' for Active; 'I' for Inactive)
    1  A    between atoms: N_1  and  C_5
    2  A    between atoms: N_1  and  C_23
    3  A    between atoms: C_2  and  N_6
    4  A    between atoms: N_6  and  C_8
    5  A    between atoms: N_6  and  C_31
    6  A    between atoms: C_8  and  C_19
    7  A    between atoms: C_23  and  C_25
    8  A    between atoms: C_29  and  C_33
    9  A    between atoms: C_33  and  C_36
                            x       y       z     vdW  Elec       q    Type
                         _______ _______ _______ _____ _____    ______ ____

>  <TORSDO>
F 9

$$$$
=
 OpenBabel11052420113D

 37 42  0  0  1  0  0  0  0  0999 V2000
  193.4510  174.2250  146.4700 F   0  0  0  0  0  0  0  0  0  0  0  0
  190.3100  176.6460  143.4830 C   0  0  2  0  0  3  0  0  0  0  0  0
  187.4130  174.9160  142.2540 O   0  0  0  0  0  1  0  0  0  0  0  0
  191.7690  175.3760  145.0110 C   0  0  2  0  0  3  0  0  0  0  0  0
  189.4640  175.4930  143.2180 N   0  0  1  0  0  0  0  0  0  0  0  0
  191.6940  176.0910  143.6660 C   0  0  1  0  0  3  0  0  0  0  0  0
  188.2080  175.9920  142.6580 C   0  0  2  0  0  3  0  0  0  0  0  0
  191.3300  176.3080  146.1330 C   0  0  0  0  0  2  0  0  0  0  0  0
  191.7440  175.0560  142.5590 C   0  0  1  0  0  3  0  0  0  0  0  0
  193.5800  173.8200  144.0890 C   0  0  2  0  0  3  0  0  0  0  0  0
  189.5980  177.5640  147.0470 C   0  0  0  0  0  1  0  0  0  0  0  0
  189.9230  176.6770  145.9390 N   0  0  0  0  0  0  0  0  0  0  0  0
  192.7090  173.8610  142.7990 C   0  0  2  0  0  3  0  0  0  0  0  0
  189.8000  177.4450  144.6870 C   0  0  2  0  0  3  0  0  0  0  0  0
  190.2610  174.7050  142.2720 C   0  0  1  0  0  3  0  0  0  0  0  0
  193.1370  174.7360  145.2240 C   0  0  2  0  0  0  0  0  0  0  0  0
  187.4690  176.7930  143.7640 C   0  0  1  0  0  3  0  0  0  0  0  0
  194.3140  175.1340  144.3480 C   0  0  0  0  0  2  0  0  0  0  0  0
  188.3540  177.8870  144.3940 C   0  0  0  0  0  2  0  0  0  0  0  0
  186.1860  177.3820  143.3460 N   0  0  0  0  0  0  0  0  0  0  0  0
  185.3090  177.7710  144.4660 C   0  0  0  0  0  2  0  0  0  0  0  0
  185.3560  176.8110  145.6520 C   0  0  0  0  0  1  0  0  0  0  0  0
  186.3840  178.4550  142.3740 C   0  0  0  0  0  2  0  0  0  0  0  0
  184.2620  178.3750  141.0690 O   0  0  0  0  0  1  0  0  0  0  0  0
  186.2310  177.6690  140.1310 O   0  0  0  0  0  0  0  0  0  0  0  0
  185.6320  178.1550  141.1250 C   0  0  0  0  0  0  0  0  0  0  0  0
  193.5540  173.6180  141.5560 C   0  0  0  0  0  2  0  0  0  0  0  0
  193.3770  174.7030  140.6020 N   0  0  0  0  0  0  0  0  0  0  0  0
  192.9400  174.1040  139.3460 C   0  0  0  0  0  1  0  0  0  0  0  0
  194.6680  175.3810  140.4300 C   0  0  2  0  0  3  0  0  0  0  0  0
  196.0950  176.7970  141.3910 C   0  0  0  0  0  2  0  0  0  0  0  0
  195.8130  174.4960  140.8720 C   0  0  0  0  0  2  0  0  0  0  0  0
  194.7310  176.5970  141.1380 O   0  0  0  0  0  0  0  0  0  0  0  0
  196.7610  175.4470  141.5370 C   0  0  0  0  0  2  0  0  0  0  0  0
  189.9500  173.2190  142.4460 C   0  0  0  0  0  2  0  0  0  0  0  0
  189.5600  173.5260  140.1100 O   0  0  0  0  0  1  0  0  0  0  0  0
  189.7360  172.5570  141.0970 C   0  0  0  0  0  2  0  0  0  0  0  0
  2  6  1  0  0  0  0
  2 14  1  0  0  0  0
  3  7  1  0  0  0  0
  4 16  1  0  0  0  0
  4  8  1  0  0  0  0
  5  2  1  0  0  0  0
  6  4  1  0  0  0  0
  7  5  1  0  0  0  0
  7 17  1  0  0  0  0
  9 13  1  0  0  0  0
  9  6  1  0  0  0  0
 10 18  1  0  0  0  0
 10 16  1  0  0  0  0
 12  8  1  0  0  0  0
 12 11  1  0  0  0  0
 13 10  1  0  0  0  0
 14 12  1  0  0  0  0
 15 35  1  0  0  0  0
 15  9  1  0  0  0  0
 15  5  1  0  0  0  0
 16  1  1  0  0  0  0
 17 19  1  0  0  0  0
 18 16  1  0  0  0  0
 19 14  1  0  0  0  0
 20 17  1  0  0  0  0
 20 21  1  0  0  0  0
 21 22  1  0  0  0  0
 23 20  1  0  0  0  0
 24 26  1  0  0  0  0
 25 26  2  0  0  0  0
 26 23  1  0  0  0  0
 27 13  1  0  0  0  0
 28 27  1  0  0  0  0
 29 28  1  0  0  0  0
 30 28  1  0  0  0  0
 30 32  1  0  0  0  0
 30 33  1  0  0  0  0
 31 34  1  0  0  0  0
 32 34  1  0  0  0  0
 33 31  1  0  0  0  0
 36 37  1  0  0  0  0
 37 35  1  0  0  0  0
M  END
>  <MODEL>
3

>  <REMARK>
 VINA RESULT:      -7.4      2.898      8.184
  Name = 
  9 active torsions:
  status: ('A' for Active; 'I' for Inactive)
    1  A    between atoms: N_1  and  C_5
    2  A    between atoms: N_1  and  C_23
    3  A    between atoms: C_2  and  N_6
    4  A    between atoms: N_6  and  C_8
    5  A    between atoms: N_6  and  C_31
    6  A    between atoms: C_8  and  C_19
    7  A    between atoms: C_23  and  C_25
    8  A    between atoms: C_29  and  C_33
    9  A    between atoms: C_33  and  C_36
                            x       y       z     vdW  Elec       q    Type
                         _______ _______ _______ _____ _____    ______ ____

>  <TORSDO>
F 9

$$$$
=
 OpenBabel11052420113D

 37 42  0  0  1  0  0  0  0  0999 V2000
  188.0100  172.8470  142.4670 F   0  0  0  0  0  0  0  0  0  0  0  0
  192.3100  175.3200  142.6800 C   0  0  2  0  0  3  0  0  0  0  0  0
  193.5870  176.2930  145.8920 O   0  0  0  0  0  1  0  0  0  0  0  0
  190.2040  174.0390  142.6890 C   0  0  2  0  0  3  0  0  0  0  0  0
  192.2630  175.5450  144.1160 N   0  0  1  0  0  0  0  0  0  0  0  0
  190.8780  175.3280  142.2270 C   0  0  1  0  0  3  0  0  0  0  0  0
  193.6080  175.9290  144.5430 C   0  0  2  0  0  3  0  0  0  0  0  0
  190.9910  172.8270  142.2080 C   0  0  0  0  0  2  0  0  0  0  0  0
  190.3210  176.4860  143.0340 C   0  0  1  0  0  3  0  0  0  0  0  0
  187.9480  175.2440  142.7780 C   0  0  2  0  0  3  0  0  0  0  0  0
  192.9990  171.6550  142.3010 C   0  0  0  0  0  1  0  0  0  0  0  0
  192.3260  172.8370  142.8190 N   0  0  0  0  0  0  0  0  0  0  0  0
  188.7980  176.4210  143.3400 C   0  0  2  0  0  3  0  0  0  0  0  0
  193.0580  174.0250  142.3440 C   0  0  2  0  0  3  0  0  0  0  0  0
  191.2700  176.6160  144.2530 C   0  0  1  0  0  3  0  0  0  0  0  0
  188.7270  174.0190  142.3120 C   0  0  2  0  0  0  0  0  0  0  0  0
  194.5450  174.7050  144.3540 C   0  0  1  0  0  3  0  0  0  0  0  0
  188.1830  175.0040  141.2880 C   0  0  0  0  0  2  0  0  0  0  0  0
  194.4800  174.1250  142.9270 C   0  0  0  0  0  2  0  0  0  0  0  0
  195.9500  174.9400  144.7240 N   0  0  0  0  0  0  0  0  0  0  0  0
  196.4080  174.1510  145.8820 C   0  0  0  0  0  2  0  0  0  0  0  0
  196.9680  172.7790  145.5150 C   0  0  0  0  0  1  0  0  0  0  0  0
  196.8330  174.8230  143.5650 C   0  0  0  0  0  2  0  0  0  0  0  0
  197.0490  176.1860  141.4900 O   0  0  0  0  0  0  0  0  0  0  0  0
  196.9740  177.2000  143.5440 O   0  0  0  0  0  1  0  0  0  0  0  0
  196.9420  176.1360  142.8730 C   0  0  0  0  0  0  0  0  0  0  0  0
  188.1500  177.7640  143.0350 C   0  0  0  0  0  2  0  0  0  0  0  0
  186.7440  177.7450  143.4140 N   0  0  0  0  0  0  0  0  0  0  0  0
  186.0800  178.8000  142.6560 C   0  0  0  0  0  1  0  0  0  0  0  0
  186.6520  178.0090  144.8560 C   0  0  2  0  0  3  0  0  0  0  0  0
  185.4260  179.0080  146.4250 C   0  0  0  0  0  2  0  0  0  0  0  0
  185.9860  176.8600  145.5800 C   0  0  0  0  0  2  0  0  0  0  0  0
  185.9490  179.1960  145.1380 O   0  0  0  0  0  0  0  0  0  0  0  0
  185.1460  177.5350  146.6210 C   0  0  0  0  0  2  0  0  0  0  0  0
  190.5490  176.4850  145.5940 C   0  0  0  0  0  2  0  0  0  0  0  0
  189.3180  174.5150  146.1490 O   0  0  0  0  0  1  0  0  0  0  0  0
  190.6040  175.0510  146.0920 C   0  0  0  0  0  2  0  0  0  0  0  0
  2  5  1  0  0  0  0
  5 15  1  0  0  0  0
  5  7  1  0  0  0  0
  6  2  1  0  0  0  0
  6  4  1  0  0  0  0
  6  9  1  0  0  0  0
  7  3  1  0  0  0  0
  8  4  1  0  0  0  0
  8 12  1  0  0  0  0
  9 13  1  0  0  0  0
  9 15  1  0  0  0  0
 10 13  1  0  0  0  0
 11 12  1  0  0  0  0
 14  2  1  0  0  0  0
 14 12  1  0  0  0  0
 14 19  1  0  0  0  0
 15 35  1  0  0  0  0
 16  1  1  0  0  0  0
 16  4  1  0  0  0  0
 16 10  1  0  0  0  0
 17  7  1  0  0  0  0
 17 20  1  0  0  0  0
 18 16  1  0  0  0  0
 18 10  1  0  0  0  0
 19 17  1  0  0  0  0
 20 21  1  0  0  0  0
 22 21  1  0  0  0  0
 23 20  1  0  0  0  0
 24 26  2  0  0  0  0
 26 25  1  0  0  0  0
 26 23  1  0  0  0  0
 27 13  1  0  0  0  0
 27 28  1  0  0  0  0
 28 30  1  0  0  0  0
 29 28  1  0  0  0  0
 30 33  1  0  0  0  0
 30 32  1  0  0  0  0
 31 34  1  0  0  0  0
 32 34  1  0  0  0  0
 33 31  1  0  0  0  0
 35 37  1  0  0  0  0
 37 36  1  0  0  0  0
M  END
>  <MODEL>
4

>  <REMARK>
 VINA RESULT:      -7.2      1.315      1.729
  Name = 
  9 active torsions:
  status: ('A' for Active; 'I' for Inactive)
    1  A    between atoms: N_1  and  C_5
    2  A    between atoms: N_1  and  C_23
    3  A    between atoms: C_2  and  N_6
    4  A    between atoms: N_6  and  C_8
    5  A    between atoms: N_6  and  C_31
    6  A    between atoms: C_8  and  C_19
    7  A    between atoms: C_23  and  C_25
    8  A    between atoms: C_29  and  C_33
    9  A    between atoms: C_33  and  C_36
                            x       y       z     vdW  Elec       q    Type
                         _______ _______ _______ _____ _____    ______ ____

>  <TORSDO>
F 9

$$$$
=
 OpenBabel11052420113D

 37 42  0  0  1  0  0  0  0  0999 V2000
  192.7230  176.6260  147.1680 F   0  0  0  0  0  0  0  0  0  0  0  0
  190.3870  173.5490  144.0500 C   0  0  2  0  0  3  0  0  0  0  0  0
  189.2030  174.8350  140.9150 O   0  0  0  0  0  1  0  0  0  0  0  0
  191.5920  175.1420  145.4950 C   0  0  2  0  0  3  0  0  0  0  0  0
  190.0460  174.5760  143.0800 N   0  0  1  0  0  0  0  0  0  0  0  0
  190.3680  174.2380  145.3850 C   0  0  1  0  0  3  0  0  0  0  0  0
  189.6750  173.8990  141.8380 C   0  0  2  0  0  3  0  0  0  0  0  0
  192.8650  174.3460  145.2360 C   0  0  0  0  0  2  0  0  0  0  0  0
  189.1310  175.1050  145.2490 C   0  0  1  0  0  3  0  0  0  0  0  0
  190.3080  176.6970  147.0710 C   0  0  2  0  0  3  0  0  0  0  0  0
  194.0930  173.0920  143.7090 C   0  0  0  0  0  1  0  0  0  0  0  0
  192.8500  173.8350  143.8600 N   0  0  0  0  0  0  0  0  0  0  0  0
  189.1190  176.3990  146.1110 C   0  0  2  0  0  3  0  0  0  0  0  0
  191.7290  172.8890  143.7150 C   0  0  2  0  0  3  0  0  0  0  0  0
  188.9350  175.2850  143.7220 C   0  0  1  0  0  3  0  0  0  0  0  0
  191.5920  175.9180  146.8080 C   0  0  2  0  0  0  0  0  0  0  0  0
  190.9420  173.2050  141.2670 C   0  0  1  0  0  3  0  0  0  0  0  0
  190.6740  175.4990  147.9470 C   0  0  0  0  0  2  0  0  0  0  0  0
  191.6310  172.2900  142.2990 C   0  0  0  0  0  2  0  0  0  0  0  0
  190.7240  172.4560  140.0180 N   0  0  0  0  0  0  0  0  0  0  0  0
  191.5520  172.9180  138.8880 C   0  0  0  0  0  2  0  0  0  0  0  0
  190.7950  173.7730  137.8740 C   0  0  0  0  0  1  0  0  0  0  0  0
  190.8110  171.0140  140.2380 C   0  0  0  0  0  2  0  0  0  0  0  0
  191.4070  169.4530  138.3900 O   0  0  0  0  0  0  0  0  0  0  0  0
  189.3460  170.4540  138.4450 O   0  0  0  0  0  1  0  0  0  0  0  0
  190.4700  170.2860  138.9850 C   0  0  0  0  0  0  0  0  0  0  0  0
  187.7840  176.5320  146.8300 C   0  0  0  0  0  2  0  0  0  0  0  0
  187.2660  177.8860  146.6900 N   0  0  0  0  0  0  0  0  0  0  0  0
  186.8660  178.3330  148.0200 C   0  0  0  0  0  1  0  0  0  0  0  0
  186.1090  177.8460  145.7870 C   0  0  2  0  0  3  0  0  0  0  0  0
  184.0640  178.6640  145.4510 C   0  0  0  0  0  2  0  0  0  0  0  0
  186.2870  178.7990  144.6260 C   0  0  0  0  0  2  0  0  0  0  0  0
  184.9050  178.1530  146.4490 O   0  0  0  0  0  0  0  0  0  0  0  0
  184.9150  179.3630  144.4150 C   0  0  0  0  0  2  0  0  0  0  0  0
  188.9340  176.7500  143.2840 C   0  0  0  0  0  2  0  0  0  0  0  0
  190.7130  178.2870  143.7020 O   0  0  0  0  0  1  0  0  0  0  0  0
  190.3370  177.1980  142.9160 C   0  0  0  0  0  2  0  0  0  0  0  0
  2  6  1  0  0  0  0
  3  7  1  0  0  0  0
  4 16  1  0  0  0  0
  5 15  1  0  0  0  0
  5  2  1  0  0  0  0
  6  4  1  0  0  0  0
  7  5  1  0  0  0  0
  8  4  1  0  0  0  0
  9  6  1  0  0  0  0
  9 13  1  0  0  0  0
 10 18  1  0  0  0  0
 11 12  1  0  0  0  0
 12  8  1  0  0  0  0
 13 27  1  0  0  0  0
 13 10  1  0  0  0  0
 14 12  1  0  0  0  0
 14  2  1  0  0  0  0
 15  9  1  0  0  0  0
 16 10  1  0  0  0  0
 16  1  1  0  0  0  0
 16 18  1  0  0  0  0
 17  7  1  0  0  0  0
 17 19  1  0  0  0  0
 19 14  1  0  0  0  0
 20 23  1  0  0  0  0
 20 17  1  0  0  0  0
 21 20  1  0  0  0  0
 22 21  1  0  0  0  0
 24 26  2  0  0  0  0
 25 26  1  0  0  0  0
 26 23  1  0  0  0  0
 28 27  1  0  0  0  0
 28 29  1  0  0  0  0
 30 33  1  0  0  0  0
 30 28  1  0  0  0  0
 31 33  1  0  0  0  0
 32 30  1  0  0  0  0
 34 32  1  0  0  0  0
 34 31  1  0  0  0  0
 35 15  1  0  0  0  0
 37 35  1  0  0  0  0
 37 36  1  0  0  0  0
M  END
>  <MODEL>
5

>  <REMARK>
 VINA RESULT:      -7.0      3.406      5.471
  Name = 
  9 active torsions:
  status: ('A' for Active; 'I' for Inactive)
    1  A    between atoms: N_1  and  C_5
    2  A    between atoms: N_1  and  C_23
    3  A    between atoms: C_2  and  N_6
    4  A    between atoms: N_6  and  C_8
    5  A    between atoms: N_6  and  C_31
    6  A    between atoms: C_8  and  C_19
    7  A    between atoms: C_23  and  C_25
    8  A    between atoms: C_29  and  C_33
    9  A    between atoms: C_33  and  C_36
                            x       y       z     vdW  Elec       q    Type
                         _______ _______ _______ _____ _____    ______ ____

>  <TORSDO>
F 9

$$$$
=
 OpenBabel11052420113D

 37 42  0  0  1  0  0  0  0  0999 V2000
  192.5140  176.7820  147.0590 F   0  0  0  0  0  0  0  0  0  0  0  0
  190.8000  173.2780  143.9880 C   0  0  2  0  0  3  0  0  0  0  0  0
  190.0780  174.1640  140.5850 O   0  0  0  0  0  1  0  0  0  0  0  0
  191.7100  175.0740  145.4110 C   0  0  2  0  0  3  0  0  0  0  0  0
  190.5810  174.1780  142.8680 N   0  0  1  0  0  0  0  0  0  0  0  0
  190.5490  174.1020  145.2180 C   0  0  1  0  0  3  0  0  0  0  0  0
  190.4320  173.3560  141.6680 C   0  0  2  0  0  3  0  0  0  0  0  0
  193.0340  174.3200  145.4390 C   0  0  0  0  0  2  0  0  0  0  0  0
  189.3200  174.8860  144.8000 C   0  0  1  0  0  3  0  0  0  0  0  0
  190.1430  176.7190  146.5900 C   0  0  2  0  0  3  0  0  0  0  0  0
  194.5270  172.9760  144.2660 C   0  0  0  0  0  1  0  0  0  0  0  0
  193.2510  173.6680  144.1430 N   0  0  0  0  0  0  0  0  0  0  0  0
  189.1300  176.2610  145.5000 C   0  0  2  0  0  3  0  0  0  0  0  0
  192.2000  172.6560  143.9360 C   0  0  2  0  0  3  0  0  0  0  0  0
  189.3590  174.8940  143.2500 C   0  0  1  0  0  3  0  0  0  0  0  0
  191.4780  175.9830  146.6130 C   0  0  2  0  0  0  0  0  0  0  0  0
  191.7940  172.6700  141.3770 C   0  0  1  0  0  3  0  0  0  0  0  0
  190.4080  175.6410  147.6390 C   0  0  0  0  0  2  0  0  0  0  0  0
  192.3450  171.9060  142.5980 C   0  0  0  0  0  2  0  0  0  0  0  0
  191.8010  171.7840  140.2010 N   0  0  0  0  0  0  0  0  0  0  0  0
  193.1400  171.2940  139.8250 C   0  0  0  0  0  2  0  0  0  0  0  0
  193.5800  171.7090  138.4230 C   0  0  0  0  0  1  0  0  0  0  0  0
  190.8160  170.7130  140.3360 C   0  0  0  0  0  2  0  0  0  0  0  0
  189.2040  171.5480  138.6280 O   0  0  0  0  0  1  0  0  0  0  0  0
  190.1850  169.4890  138.3920 O   0  0  0  0  0  0  0  0  0  0  0  0
  190.0650  170.5490  139.0600 C   0  0  0  0  0  0  0  0  0  0  0  0
  187.6950  176.4020  145.9880 C   0  0  0  0  0  2  0  0  0  0  0  0
  187.3460  177.8080  146.1390 N   0  0  0  0  0  0  0  0  0  0  0  0
  186.4880  177.9150  147.3140 C   0  0  0  0  0  1  0  0  0  0  0  0
  186.6280  178.2370  144.9320 C   0  0  2  0  0  3  0  0  0  0  0  0
  184.8150  177.8620  143.6930 C   0  0  0  0  0  2  0  0  0  0  0  0
  185.7420  179.4290  145.2180 C   0  0  0  0  0  2  0  0  0  0  0  0
  185.8420  177.2050  144.3840 O   0  0  0  0  0  0  0  0  0  0  0  0
  184.5150  179.1640  144.4000 C   0  0  0  0  0  2  0  0  0  0  0  0
  189.3770  176.3020  142.6560 C   0  0  0  0  0  2  0  0  0  0  0  0
  187.2230  175.4950  142.0110 O   0  0  0  0  0  1  0  0  0  0  0  0
  188.1050  176.5660  141.8700 C   0  0  0  0  0  2  0  0  0  0  0  0
  2  6  1  0  0  0  0
  3  7  1  0  0  0  0
  4  8  1  0  0  0  0
  4 16  1  0  0  0  0
  5 15  1  0  0  0  0
  5  2  1  0  0  0  0
  6  4  1  0  0  0  0
  7  5  1  0  0  0  0
  9  6  1  0  0  0  0
  9 13  1  0  0  0  0
 10 16  1  0  0  0  0
 10 18  1  0  0  0  0
 12 11  1  0  0  0  0
 12  8  1  0  0  0  0
 13 27  1  0  0  0  0
 13 10  1  0  0  0  0
 14  2  1  0  0  0  0
 14 12  1  0  0  0  0
 15  9  1  0  0  0  0
 16  1  1  0  0  0  0
 16 18  1  0  0  0  0
 17  7  1  0  0  0  0
 17 19  1  0  0  0  0
 19 14  1  0  0  0  0
 20 23  1  0  0  0  0
 20 17  1  0  0  0  0
 21 20  1  0  0  0  0
 22 21  1  0  0  0  0
 24 26  1  0  0  0  0
 25 26  2  0  0  0  0
 26 23  1  0  0  0  0
 27 28  1  0  0  0  0
 28 29  1  0  0  0  0
 30 32  1  0  0  0  0
 30 28  1  0  0  0  0
 31 33  1  0  0  0  0
 31 34  1  0  0  0  0
 33 30  1  0  0  0  0
 34 32  1  0  0  0  0
 35 15  1  0  0  0  0
 37 36  1  0  0  0  0
 37 35  1  0  0  0  0
M  END
>  <MODEL>
6

>  <REMARK>
 VINA RESULT:      -6.9      3.508      5.426
  Name = 
  9 active torsions:
  status: ('A' for Active; 'I' for Inactive)
    1  A    between atoms: N_1  and  C_5
    2  A    between atoms: N_1  and  C_23
    3  A    between atoms: C_2  and  N_6
    4  A    between atoms: N_6  and  C_8
    5  A    between atoms: N_6  and  C_31
    6  A    between atoms: C_8  and  C_19
    7  A    between atoms: C_23  and  C_25
    8  A    between atoms: C_29  and  C_33
    9  A    between atoms: C_33  and  C_36
                            x       y       z     vdW  Elec       q    Type
                         _______ _______ _______ _____ _____    ______ ____

>  <TORSDO>
F 9

$$$$
=
 OpenBabel11052420113D

 37 42  0  0  1  0  0  0  0  0999 V2000
  191.4640  173.7550  139.7820 F   0  0  0  0  0  0  0  0  0  0  0  0
  188.4920  174.9570  143.5740 C   0  0  2  0  0  3  0  0  0  0  0  0
  189.3720  177.7580  145.6390 O   0  0  0  0  0  1  0  0  0  0  0  0
  189.9970  174.4860  141.6790 C   0  0  2  0  0  3  0  0  0  0  0  0
  189.3540  176.0060  144.0910 N   0  0  1  0  0  0  0  0  0  0  0  0
  189.4190  173.9350  142.9790 C   0  0  1  0  0  3  0  0  0  0  0  0
  188.5540  176.8190  145.0050 C   0  0  2  0  0  3  0  0  0  0  0  0
  188.8780  174.9160  140.7400 C   0  0  0  0  0  2  0  0  0  0  0  0
  190.5180  173.8930  144.0240 C   0  0  1  0  0  3  0  0  0  0  0  0
  192.1050  173.0720  142.0120 C   0  0  2  0  0  3  0  0  0  0  0  0
  187.0790  176.3510  140.3930 C   0  0  0  0  0  1  0  0  0  0  0  0
  188.1200  176.0130  141.3540 N   0  0  0  0  0  0  0  0  0  0  0  0
  191.9210  173.4680  143.5060 C   0  0  2  0  0  3  0  0  0  0  0  0
  187.4700  175.5160  142.5790 C   0  0  2  0  0  3  0  0  0  0  0  0
  190.4300  175.2580  144.7520 C   0  0  1  0  0  3  0  0  0  0  0  0
  190.9980  173.5150  141.0610 C   0  0  2  0  0  0  0  0  0  0  0  0
  187.4690  177.5580  144.1750 C   0  0  1  0  0  3  0  0  0  0  0  0
  191.0560  172.0700  141.5330 C   0  0  0  0  0  2  0  0  0  0  0  0
  186.6400  176.5970  143.2980 C   0  0  0  0  0  2  0  0  0  0  0  0
  186.5610  178.4080  144.9620 N   0  0  0  0  0  0  0  0  0  0  0  0
  185.8510  179.4280  144.1670 C   0  0  0  0  0  2  0  0  0  0  0  0
  184.3300  179.3150  144.2300 C   0  0  0  0  0  1  0  0  0  0  0  0
  185.6670  177.6060  145.7940 C   0  0  0  0  0  2  0  0  0  0  0  0
  185.8270  179.2530  147.6570 O   0  0  0  0  0  0  0  0  0  0  0  0
  186.1410  177.0170  148.0530 O   0  0  0  0  0  1  0  0  0  0  0  0
  185.8790  177.9330  147.2310 C   0  0  0  0  0  0  0  0  0  0  0  0
  192.5210  172.4190  144.4320 C   0  0  0  0  0  2  0  0  0  0  0  0
  193.9330  172.2260  144.1320 N   0  0  0  0  0  0  0  0  0  0  0  0
  194.1700  170.7880  144.0780 C   0  0  0  0  0  1  0  0  0  0  0  0
  194.7200  172.8400  145.2110 C   0  0  2  0  0  3  0  0  0  0  0  0
  196.7400  172.9040  146.1460 C   0  0  0  0  0  2  0  0  0  0  0  0
  195.2710  174.1840  144.7880 C   0  0  0  0  0  2  0  0  0  0  0  0
  195.7850  172.0190  145.6270 O   0  0  0  0  0  0  0  0  0  0  0  0
  196.6380  174.2160  145.4010 C   0  0  0  0  0  2  0  0  0  0  0  0
  191.7300  176.0590  144.6900 C   0  0  0  0  0  2  0  0  0  0  0  0
  192.2150  175.0380  146.7940 O   0  0  0  0  0  1  0  0  0  0  0  0
  192.3180  176.2310  146.0790 C   0  0  0  0  0  2  0  0  0  0  0  0
  1 16  1  0  0  0  0
  2  5  1  0  0  0  0
  4  6  1  0  0  0  0
  5 15  1  0  0  0  0
  5  7  1  0  0  0  0
  6  2  1  0  0  0  0
  6  9  1  0  0  0  0
  7  3  1  0  0  0  0
  8 12  1  0  0  0  0
  8  4  1  0  0  0  0
  9 15  1  0  0  0  0
 10 13  1  0  0  0  0
 11 12  1  0  0  0  0
 12 14  1  0  0  0  0
 13  9  1  0  0  0  0
 13 27  1  0  0  0  0
 14 19  1  0  0  0  0
 14  2  1  0  0  0  0
 16 18  1  0  0  0  0
 16  4  1  0  0  0  0
 16 10  1  0  0  0  0
 17 20  1  0  0  0  0
 17  7  1  0  0  0  0
 18 10  1  0  0  0  0
 19 17  1  0  0  0  0
 20 23  1  0  0  0  0
 21 22  1  0  0  0  0
 21 20  1  0  0  0  0
 23 26  1  0  0  0  0
 26 24  2  0  0  0  0
 26 25  1  0  0  0  0
 28 27  1  0  0  0  0
 28 30  1  0  0  0  0
 29 28  1  0  0  0  0
 30 33  1  0  0  0  0
 32 30  1  0  0  0  0
 32 34  1  0  0  0  0
 33 31  1  0  0  0  0
 34 31  1  0  0  0  0
 35 15  1  0  0  0  0
 35 37  1  0  0  0  0
 37 36  1  0  0  0  0
M  END
>  <MODEL>
7

>  <REMARK>
 VINA RESULT:      -6.9      2.333      7.826
  Name = 
  9 active torsions:
  status: ('A' for Active; 'I' for Inactive)
    1  A    between atoms: N_1  and  C_5
    2  A    between atoms: N_1  and  C_23
    3  A    between atoms: C_2  and  N_6
    4  A    between atoms: N_6  and  C_8
    5  A    between atoms: N_6  and  C_31
    6  A    between atoms: C_8  and  C_19
    7  A    between atoms: C_23  and  C_25
    8  A    between atoms: C_29  and  C_33
    9  A    between atoms: C_33  and  C_36
                            x       y       z     vdW  Elec       q    Type
                         _______ _______ _______ _____ _____    ______ ____

>  <TORSDO>
F 9

$$$$
=
 OpenBabel11052420113D

 37 42  0  0  1  0  0  0  0  0999 V2000
  187.9400  179.0000  148.2890 F   0  0  0  0  0  0  0  0  0  0  0  0
  189.4510  175.2740  145.3760 C   0  0  2  0  0  3  0  0  0  0  0  0
  190.9840  176.0550  142.2260 O   0  0  0  0  0  1  0  0  0  0  0  0
  188.7980  177.1960  146.7760 C   0  0  2  0  0  3  0  0  0  0  0  0
  189.8420  176.1240  144.2650 N   0  0  1  0  0  0  0  0  0  0  0  0
  188.2870  175.9700  146.0230 C   0  0  1  0  0  3  0  0  0  0  0  0
  190.6950  175.3280  143.3830 C   0  0  2  0  0  3  0  0  0  0  0  0
  189.8940  176.7970  147.7560 C   0  0  0  0  0  2  0  0  0  0  0  0
  187.5100  176.4340  144.8050 C   0  0  1  0  0  3  0  0  0  0  0  0
  186.5460  178.3590  146.4200 C   0  0  2  0  0  3  0  0  0  0  0  0
  192.0260  175.9070  148.0260 C   0  0  0  0  0  1  0  0  0  0  0  0
  191.0410  176.2600  147.0150 N   0  0  0  0  0  0  0  0  0  0  0  0
  186.6260  177.6960  145.0130 C   0  0  2  0  0  3  0  0  0  0  0  0
  190.6270  175.0240  146.3270 C   0  0  2  0  0  3  0  0  0  0  0  0
  188.5570  176.4990  143.6640 C   0  0  1  0  0  3  0  0  0  0  0  0
  187.6500  177.9810  147.4010 C   0  0  2  0  0  0  0  0  0  0  0  0
  192.0150  175.0150  144.1390 C   0  0  1  0  0  3  0  0  0  0  0  0
  186.2720  177.3500  147.5330 C   0  0  0  0  0  2  0  0  0  0  0  0
  191.7680  174.3760  145.5210 C   0  0  0  0  0  2  0  0  0  0  0  0
  192.9780  174.1950  143.3850 N   0  0  0  0  0  0  0  0  0  0  0  0
  194.2290  174.8980  143.0430 C   0  0  0  0  0  2  0  0  0  0  0  0
  194.4700  176.1660  143.8580 C   0  0  0  0  0  1  0  0  0  0  0  0
  193.2040  172.9060  144.0350 C   0  0  0  0  0  2  0  0  0  0  0  0
  192.3520  170.5800  143.7710 O   0  0  0  0  0  1  0  0  0  0  0  0
  192.4770  171.9840  141.9630 O   0  0  0  0  0  0  0  0  0  0  0  0
  192.6470  171.8090  143.1980 C   0  0  0  0  0  0  0  0  0  0  0  0
  185.2370  177.4580  144.4370 C   0  0  0  0  0  2  0  0  0  0  0  0
  184.9150  178.4800  143.4510 N   0  0  0  0  0  0  0  0  0  0  0  0
  184.2540  179.5700  144.1610 C   0  0  0  0  0  1  0  0  0  0  0  0
  184.0120  177.8900  142.4550 C   0  0  2  0  0  3  0  0  0  0  0  0
  182.2080  178.2850  141.2080 C   0  0  0  0  0  2  0  0  0  0  0  0
  184.5660  178.0450  141.0550 C   0  0  0  0  0  2  0  0  0  0  0  0
  182.7230  178.4550  142.5010 O   0  0  0  0  0  0  0  0  0  0  0  0
  183.3540  178.3310  140.2230 C   0  0  0  0  0  2  0  0  0  0  0  0
  188.6680  177.8850  143.0270 C   0  0  0  0  0  2  0  0  0  0  0  0
  187.7760  176.5620  141.2500 O   0  0  0  0  0  1  0  0  0  0  0  0
  188.1860  177.8510  141.5880 C   0  0  0  0  0  2  0  0  0  0  0  0
  2  6  1  0  0  0  0
  2 14  1  0  0  0  0
  3  7  1  0  0  0  0
  4 16  1  0  0  0  0
  4  8  1  0  0  0  0
  5  2  1  0  0  0  0
  6  4  1  0  0  0  0
  7 17  1  0  0  0  0
  7  5  1  0  0  0  0
  9 13  1  0  0  0  0
  9  6  1  0  0  0  0
 10 16  1  0  0  0  0
 10 18  1  0  0  0  0
 12  8  1  0  0  0  0
 12 11  1  0  0  0  0
 13 10  1  0  0  0  0
 14 12  1  0  0  0  0
 15  5  1  0  0  0  0
 15  9  1  0  0  0  0
 16 18  1  0  0  0  0
 16  1  1  0  0  0  0
 17 19  1  0  0  0  0
 19 14  1  0  0  0  0
 20 23  1  0  0  0  0
 20 17  1  0  0  0  0
 21 20  1  0  0  0  0
 21 22  1  0  0  0  0
 25 26  2  0  0  0  0
 26 24  1  0  0  0  0
 26 23  1  0  0  0  0
 27 13  1  0  0  0  0
 28 29  1  0  0  0  0
 28 27  1  0  0  0  0
 30 33  1  0  0  0  0
 30 28  1  0  0  0  0
 31 33  1  0  0  0  0
 32 30  1  0  0  0  0
 34 32  1  0  0  0  0
 34 31  1  0  0  0  0
 35 15  1  0  0  0  0
 36 37  1  0  0  0  0
 37 35  1  0  0  0  0
M  END
>  <MODEL>
8

>  <REMARK>
 VINA RESULT:      -6.9      3.026      4.836
  Name = 
  9 active torsions:
  status: ('A' for Active; 'I' for Inactive)
    1  A    between atoms: N_1  and  C_5
    2  A    between atoms: N_1  and  C_23
    3  A    between atoms: C_2  and  N_6
    4  A    between atoms: N_6  and  C_8
    5  A    between atoms: N_6  and  C_31
    6  A    between atoms: C_8  and  C_19
    7  A    between atoms: C_23  and  C_25
    8  A    between atoms: C_29  and  C_33
    9  A    between atoms: C_33  and  C_36
                            x       y       z     vdW  Elec       q    Type
                         _______ _______ _______ _____ _____    ______ ____

>  <TORSDO>
F 9

$$$$
=
 OpenBabel11052420113D

 37 42  0  0  1  0  0  0  0  0999 V2000
  191.2430  178.8510  143.8850 F   0  0  0  0  0  0  0  0  0  0  0  0
  191.3960  174.0240  145.0400 C   0  0  2  0  0  3  0  0  0  0  0  0
  191.3040  171.6080  142.3860 O   0  0  0  0  0  1  0  0  0  0  0  0
  191.3830  176.3930  144.3560 C   0  0  2  0  0  3  0  0  0  0  0  0
  191.2100  173.5550  143.6760 N   0  0  1  0  0  0  0  0  0  0  0  0
  190.6290  175.3130  145.1270 C   0  0  1  0  0  3  0  0  0  0  0  0
  191.5970  172.1460  143.6420 C   0  0  2  0  0  3  0  0  0  0  0  0
  192.8180  176.4990  144.8570 C   0  0  0  0  0  2  0  0  0  0  0  0
  189.3680  174.9570  144.3620 C   0  0  1  0  0  3  0  0  0  0  0  0
  189.1750  177.5960  143.8730 C   0  0  2  0  0  3  0  0  0  0  0  0
  194.8700  175.4330  145.1080 C   0  0  0  0  0  1  0  0  0  0  0  0
  193.5210  175.2380  144.5960 N   0  0  0  0  0  0  0  0  0  0  0  0
  188.6320  176.1490  143.6890 C   0  0  2  0  0  3  0  0  0  0  0  0
  192.8830  174.1660  145.3810 C   0  0  2  0  0  3  0  0  0  0  0  0
  189.7800  173.7820  143.4380 C   0  0  1  0  0  3  0  0  0  0  0  0
  190.6170  177.7120  144.3570 C   0  0  2  0  0  0  0  0  0  0  0  0
  193.1260  172.0560  143.8970 C   0  0  1  0  0  3  0  0  0  0  0  0
  189.4720  177.9340  145.3330 C   0  0  0  0  0  2  0  0  0  0  0  0
  193.5560  172.7950  145.1810 C   0  0  0  0  0  2  0  0  0  0  0  0
  193.6700  170.6880  143.9140 N   0  0  0  0  0  0  0  0  0  0  0  0
  194.6210  170.4050  142.8220 C   0  0  0  0  0  2  0  0  0  0  0  0
  196.0070  171.0090  143.0350 C   0  0  0  0  0  1  0  0  0  0  0  0
  194.1910  170.3380  145.2330 C   0  0  0  0  0  2  0  0  0  0  0  0
  195.3780  168.1690  145.5440 O   0  0  0  0  0  1  0  0  0  0  0  0
  193.0910  168.2320  145.3970 O   0  0  0  0  0  0  0  0  0  0  0  0
  194.1820  168.8600  145.4080 C   0  0  0  0  0  0  0  0  0  0  0  0
  187.1420  176.0780  143.9940 C   0  0  0  0  0  2  0  0  0  0  0  0
  186.3650  176.3950  142.8040 N   0  0  0  0  0  0  0  0  0  0  0  0
  187.3070  176.8260  141.7770 C   0  0  0  0  0  1  0  0  0  0  0  0
  185.4330  177.4800  143.1390 C   0  0  2  0  0  3  0  0  0  0  0  0
  184.7510  178.8190  144.7840 C   0  0  0  0  0  2  0  0  0  0  0  0
  186.0090  178.8290  142.7690 C   0  0  0  0  0  2  0  0  0  0  0  0
  185.0910  177.4880  144.5050 O   0  0  0  0  0  0  0  0  0  0  0  0
  185.5680  179.7230  143.8880 C   0  0  0  0  0  2  0  0  0  0  0  0
  189.5420  174.0710  141.9560 C   0  0  0  0  0  2  0  0  0  0  0  0
  188.0050  172.2930  142.3860 O   0  0  0  0  0  1  0  0  0  0  0  0
  188.4000  173.2230  141.4240 C   0  0  0  0  0  2  0  0  0  0  0  0
  1 16  1  0  0  0  0
  2  6  1  0  0  0  0
  2 14  1  0  0  0  0
  3  7  1  0  0  0  0
  4 16  1  0  0  0  0
  4  8  1  0  0  0  0
  4  6  1  0  0  0  0
  5  2  1  0  0  0  0
  7  5  1  0  0  0  0
  7 17  1  0  0  0  0
  9  6  1  0  0  0  0
 10 16  1  0  0  0  0
 10 18  1  0  0  0  0
 12  8  1  0  0  0  0
 12 11  1  0  0  0  0
 12 14  1  0  0  0  0
 13 10  1  0  0  0  0
 13 27  1  0  0  0  0
 13  9  1  0  0  0  0
 15  5  1  0  0  0  0
 15  9  1  0  0  0  0
 16 18  1  0  0  0  0
 17 20  1  0  0  0  0
 17 19  1  0  0  0  0
 19 14  1  0  0  0  0
 20 23  1  0  0  0  0
 21 22  1  0  0  0  0
 21 20  1  0  0  0  0
 23 26  1  0  0  0  0
 25 26  2  0  0  0  0
 26 24  1  0  0  0  0
 28 30  1  0  0  0  0
 28 27  1  0  0  0  0
 29 28  1  0  0  0  0
 30 33  1  0  0  0  0
 32 30  1  0  0  0  0
 32 34  1  0  0  0  0
 33 31  1  0  0  0  0
 34 31  1  0  0  0  0
 35 15  1  0  0  0  0
 37 35  1  0  0  0  0
 37 36  1  0  0  0  0
M  END
>  <MODEL>
9

>  <REMARK>
 VINA RESULT:      -6.8      3.436      4.834
  Name = 
  9 active torsions:
  status: ('A' for Active; 'I' for Inactive)
    1  A    between atoms: N_1  and  C_5
    2  A    between atoms: N_1  and  C_23
    3  A    between atoms: C_2  and  N_6
    4  A    between atoms: N_6  and  C_8
    5  A    between atoms: N_6  and  C_31
    6  A    between atoms: C_8  and  C_19
    7  A    between atoms: C_23  and  C_25
    8  A    between atoms: C_29  and  C_33
    9  A    between atoms: C_33  and  C_36
                            x       y       z     vdW  Elec       q    Type
                         _______ _______ _______ _____ _____    ______ ____

>  <TORSDO>
F 9

$$$$
