=
 OpenBabel11052418243D

 27 31  0  0  1  0  0  0  0  0999 V2000
  189.8800  173.8410  144.9700 C   0  0  0  0  0  2  0  0  0  0  0  0
  188.5260  175.5660  143.6920 C   0  0  0  0  0  0  0  0  0  0  0  0
  188.2520  176.1310  146.1980 C   0  0  0  0  0  2  0  0  0  0  0  0
  184.7780  178.0360  142.8660 S   0  0  0  0  0  0  0  0  0  0  0  0
  184.1470  179.3170  145.0900 O   0  0  0  0  0  0  0  0  0  0  0  0
  188.0360  175.7280  142.3810 C   0  0  0  0  0  3  0  0  0  0  0  0
  185.8360  177.6870  145.4440 C   0  0  1  0  0  3  0  0  0  0  0  0
  191.4380  177.8650  149.0910 O   0  0  0  0  0  0  0  0  0  0  0  0
  185.1300  176.7540  146.3060 N   0  0  0  0  0  1  0  0  0  0  0  0
  190.9710  177.1090  148.2000 C   0  0  0  0  0  0  0  0  0  0  0  0
  186.6670  176.9400  144.4530 C   0  0  0  0  0  0  0  0  0  0  0  0
  189.7430  174.8120  143.8810 N   0  0  0  0  0  0  0  0  0  0  0  0
  184.8480  178.4410  144.6120 C   0  0  0  0  0  0  0  0  0  0  0  0
  186.2370  177.0510  143.1410 C   0  0  0  0  0  0  0  0  0  0  0  0
  190.9680  174.2750  145.9510 C   0  0  0  0  0  2  0  0  0  0  0  0
  187.8300  176.2090  144.7570 C   0  0  0  0  0  0  0  0  0  0  0  0
  189.9300  177.5100  147.3300 N   0  0  0  0  0  2  0  0  0  0  0  0
  186.9180  176.4570  142.1310 N   0  0  0  0  0  0  0  0  0  0  0  0
  191.4500  175.7310  147.9610 C   0  0  0  0  0  2  0  0  0  0  0  0
  190.3880  175.2040  147.0040 C   0  0  1  0  0  3  0  0  0  0  0  0
  189.7250  176.4320  146.3830 C   0  0  1  0  0  3  0  0  0  0  0  0
  192.8730  174.9180  141.1580 N   0  0  0  0  0  2  0  0  0  0  0  0
  190.7820  174.8950  142.8480 C   0  0  0  0  0  3  0  0  0  0  0  0
  191.8480  175.9340  143.2020 C   0  0  0  0  0  2  0  0  0  0  0  0
  192.9930  175.9660  142.1750 C   0  0  0  0  0  2  0  0  0  0  0  0
  192.7400  173.6290  141.8310 C   0  0  0  0  0  2  0  0  0  0  0  0
  191.3820  173.5180  142.5310 C   0  0  0  0  0  2  0  0  0  0  0  0
  1 15  1  0  0  0  0
  2 12  1  0  0  0  0
  2 16  1  0  0  0  0
  4 14  1  0  0  0  0
  4 13  1  0  0  0  0
  6  2  2  0  0  0  0
  7  9  1  1  0  0  0
 10  8  2  0  0  0  0
 11 16  2  0  0  0  0
 11  7  1  0  0  0  0
 12  1  1  0  0  0  0
 13  5  2  0  0  0  0
 13  7  1  0  0  0  0
 14 11  1  0  0  0  0
 16  3  1  0  0  0  0
 17 10  1  0  0  0  0
 18  6  1  0  0  0  0
 18 14  2  0  0  0  0
 19 10  1  0  0  0  0
 20 15  1  6  0  0  0
 20 19  1  0  0  0  0
 21  3  1  1  0  0  0
 21 20  1  0  0  0  0
 21 17  1  0  0  0  0
 22 26  1  0  0  0  0
 22 25  1  0  0  0  0
 23 24  1  0  0  0  0
 23 12  1  0  0  0  0
 25 24  1  0  0  0  0
 26 27  1  0  0  0  0
 27 23  1  0  0  0  0
M  END
>  <MODEL>
1

>  <REMARK>
 VINA RESULT:      -7.9      0.000      0.000
  Name = 
  1 active torsions:
  status: ('A' for Active; 'I' for Inactive)
    1  A    between atoms: C_9  and  N_15
                            x       y       z     vdW  Elec       q    Type
                         _______ _______ _______ _____ _____    ______ ____

>  <TORSDO>
F 1

$$$$
=
 OpenBabel11052418243D

 27 31  0  0  1  0  0  0  0  0999 V2000
  190.1820  172.9740  144.2030 C   0  0  0  0  0  2  0  0  0  0  0  0
  188.7050  174.8420  143.3250 C   0  0  0  0  0  0  0  0  0  0  0  0
  189.5280  175.5950  145.6560 C   0  0  0  0  0  2  0  0  0  0  0  0
  185.3460  177.9120  143.6710 S   0  0  0  0  0  0  0  0  0  0  0  0
  185.8390  179.4160  145.7870 O   0  0  0  0  0  0  0  0  0  0  0  0
  187.7690  175.0160  142.2870 C   0  0  0  0  0  3  0  0  0  0  0  0
  187.2690  177.5250  145.6800 C   0  0  1  0  0  3  0  0  0  0  0  0
  193.8130  176.8750  146.8880 O   0  0  0  0  0  0  0  0  0  0  0  0
  186.8300  176.7910  146.8560 N   0  0  0  0  0  1  0  0  0  0  0  0
  192.9270  176.1670  146.3430 C   0  0  0  0  0  0  0  0  0  0  0  0
  187.5220  176.5800  144.5520 C   0  0  0  0  0  0  0  0  0  0  0  0
  189.7730  173.8890  143.1340 N   0  0  0  0  0  0  0  0  0  0  0  0
  186.1570  178.3980  145.1950 C   0  0  0  0  0  0  0  0  0  0  0  0
  186.6320  176.6920  143.4960 C   0  0  0  0  0  0  0  0  0  0  0  0
  191.6200  173.2560  144.6380 C   0  0  0  0  0  2  0  0  0  0  0  0
  188.5890  175.6650  144.4840 C   0  0  0  0  0  0  0  0  0  0  0  0
  191.7000  176.7020  145.8870 N   0  0  0  0  0  2  0  0  0  0  0  0
  186.7640  175.9240  142.3880 N   0  0  0  0  0  0  0  0  0  0  0  0
  193.0640  174.7130  146.1160 C   0  0  0  0  0  2  0  0  0  0  0  0
  191.6460  174.3360  145.7060 C   0  0  1  0  0  3  0  0  0  0  0  0
  190.9820  175.6270  145.2320 C   0  0  1  0  0  3  0  0  0  0  0  0
  191.5320  173.2190  139.4350 N   0  0  0  0  0  2  0  0  0  0  0  0
  190.3210  173.7170  141.7840 C   0  0  0  0  0  3  0  0  0  0  0  0
  191.6820  174.4010  141.6350 C   0  0  0  0  0  2  0  0  0  0  0  0
  192.3120  174.1510  140.2550 C   0  0  0  0  0  2  0  0  0  0  0  0
  191.3180  171.9930  140.2010 C   0  0  0  0  0  2  0  0  0  0  0  0
  190.3540  172.2410  141.3650 C   0  0  0  0  0  2  0  0  0  0  0  0
  1 15  1  0  0  0  0
  2 16  1  0  0  0  0
  4 13  1  0  0  0  0
  6 18  1  0  0  0  0
  6  2  2  0  0  0  0
  7  9  1  1  0  0  0
 10  8  2  0  0  0  0
 11  7  1  0  0  0  0
 12  2  1  0  0  0  0
 12  1  1  0  0  0  0
 13  7  1  0  0  0  0
 13  5  2  0  0  0  0
 14  4  1  0  0  0  0
 14 11  1  0  0  0  0
 16 11  2  0  0  0  0
 16  3  1  0  0  0  0
 17 10  1  0  0  0  0
 18 14  2  0  0  0  0
 19 10  1  0  0  0  0
 20 15  1  6  0  0  0
 20 19  1  0  0  0  0
 21  3  1  1  0  0  0
 21 20  1  0  0  0  0
 21 17  1  0  0  0  0
 22 26  1  0  0  0  0
 22 25  1  0  0  0  0
 23 12  1  0  0  0  0
 24 23  1  0  0  0  0
 25 24  1  0  0  0  0
 26 27  1  0  0  0  0
 27 23  1  0  0  0  0
M  END
>  <MODEL>
2

>  <REMARK>
 VINA RESULT:      -7.2      1.682      1.906
  Name = 
  1 active torsions:
  status: ('A' for Active; 'I' for Inactive)
    1  A    between atoms: C_9  and  N_15
                            x       y       z     vdW  Elec       q    Type
                         _______ _______ _______ _____ _____    ______ ____

>  <TORSDO>
F 1

$$$$
=
 OpenBabel11052418243D

 27 31  0  0  1  0  0  0  0  0999 V2000
  190.6210  177.0890  143.3210 C   0  0  0  0  0  2  0  0  0  0  0  0
  188.2600  177.4670  144.1720 C   0  0  0  0  0  0  0  0  0  0  0  0
  188.0320  176.4930  141.7900 C   0  0  0  0  0  2  0  0  0  0  0  0
  183.9720  178.9890  143.8130 S   0  0  0  0  0  0  0  0  0  0  0  0
  182.9220  177.9400  141.6270 O   0  0  0  0  0  0  0  0  0  0  0  0
  187.6440  178.1620  145.2310 C   0  0  0  0  0  3  0  0  0  0  0  0
  185.2620  177.5700  141.7620 C   0  0  1  0  0  3  0  0  0  0  0  0
  188.9580  172.1710  140.3800 O   0  0  0  0  0  0  0  0  0  0  0  0
  185.7230  178.3560  140.6290 N   0  0  0  0  0  1  0  0  0  0  0  0
  189.1510  173.2610  140.9780 C   0  0  0  0  0  0  0  0  0  0  0  0
  186.1930  177.7420  142.9170 C   0  0  0  0  0  0  0  0  0  0  0  0
  189.6020  176.9690  144.3670 N   0  0  0  0  0  0  0  0  0  0  0  0
  183.9580  178.1140  142.2480 C   0  0  0  0  0  0  0  0  0  0  0  0
  185.6530  178.4260  143.9950 C   0  0  0  0  0  0  0  0  0  0  0  0
  191.0620  175.7100  142.8320 C   0  0  0  0  0  2  0  0  0  0  0  0
  187.5020  177.2330  142.9870 C   0  0  0  0  0  0  0  0  0  0  0  0
  188.0900  174.0680  141.4500 N   0  0  0  0  0  2  0  0  0  0  0  0
  186.3700  178.6220  145.1270 N   0  0  0  0  0  0  0  0  0  0  0  0
  190.4920  173.8180  141.2560 C   0  0  0  0  0  2  0  0  0  0  0  0
  190.1440  175.2250  141.7240 C   0  0  1  0  0  3  0  0  0  0  0  0
  188.6840  175.1780  142.1680 C   0  0  1  0  0  3  0  0  0  0  0  0
  190.8490  175.4410  148.0180 N   0  0  0  0  0  2  0  0  0  0  0  0
  189.9870  176.5070  145.7050 C   0  0  0  0  0  3  0  0  0  0  0  0
  189.3160  175.1780  146.0580 C   0  0  0  0  0  2  0  0  0  0  0  0
  189.7830  174.6330  147.4190 C   0  0  0  0  0  2  0  0  0  0  0  0
  191.9340  175.5720  147.0480 C   0  0  0  0  0  2  0  0  0  0  0  0
  191.5110  176.4640  145.8770 C   0  0  0  0  0  2  0  0  0  0  0  0
  1 12  1  0  0  0  0
  2 12  1  0  0  0  0
  2  6  1  0  0  0  0
  3 16  1  0  0  0  0
  4 14  1  0  0  0  0
  5 13  2  0  0  0  0
  7  9  1  6  0  0  0
  7 13  1  0  0  0  0
  7 11  1  0  0  0  0
  8 10  2  0  0  0  0
 10 19  1  0  0  0  0
 10 17  1  0  0  0  0
 11 16  1  0  0  0  0
 11 14  2  0  0  0  0
 12 23  1  0  0  0  0
 13  4  1  0  0  0  0
 14 18  1  0  0  0  0
 15  1  1  0  0  0  0
 16  2  2  0  0  0  0
 17 21  1  0  0  0  0
 18  6  2  0  0  0  0
 20 19  1  1  0  0  0
 20 21  1  0  0  0  0
 20 15  1  0  0  0  0
 21  3  1  6  0  0  0
 23 27  1  0  0  0  0
 23 24  1  0  0  0  0
 24 25  1  0  0  0  0
 25 22  1  0  0  0  0
 26 22  1  0  0  0  0
 27 26  1  0  0  0  0
M  END
>  <MODEL>
3

>  <REMARK>
 VINA RESULT:      -7.1      2.870      4.972
  Name = 
  1 active torsions:
  status: ('A' for Active; 'I' for Inactive)
    1  A    between atoms: C_9  and  N_15
                            x       y       z     vdW  Elec       q    Type
                         _______ _______ _______ _____ _____    ______ ____

>  <TORSDO>
F 1

$$$$
=
 OpenBabel11052418243D

 27 31  0  0  1  0  0  0  0  0999 V2000
  189.6270  177.8490  143.1790 C   0  0  0  0  0  2  0  0  0  0  0  0
  189.0030  175.6820  142.0130 C   0  0  0  0  0  0  0  0  0  0  0  0
  191.0520  175.1520  143.4950 C   0  0  0  0  0  2  0  0  0  0  0  0
  189.9270  171.9060  139.6220 S   0  0  0  0  0  0  0  0  0  0  0  0
  191.8010  170.5670  140.9170 O   0  0  0  0  0  0  0  0  0  0  0  0
  188.1910  175.2900  140.9300 C   0  0  0  0  0  3  0  0  0  0  0  0
  191.4770  172.7420  141.8090 C   0  0  1  0  0  3  0  0  0  0  0  0
  191.2350  174.9240  148.1250 O   0  0  0  0  0  0  0  0  0  0  0  0
  192.7570  173.3550  141.4920 N   0  0  0  0  0  1  0  0  0  0  0  0
  190.9370  175.4010  146.9990 C   0  0  0  0  0  0  0  0  0  0  0  0
  190.3710  173.7170  141.5740 C   0  0  0  0  0  0  0  0  0  0  0  0
  188.6290  176.8610  142.7590 N   0  0  0  0  0  0  0  0  0  0  0  0
  191.2060  171.6300  140.8480 C   0  0  0  0  0  0  0  0  0  0  0  0
  189.5350  173.3960  140.5170 C   0  0  0  0  0  0  0  0  0  0  0  0
  189.7170  177.9160  144.7030 C   0  0  0  0  0  2  0  0  0  0  0  0
  190.1150  174.8580  142.3560 C   0  0  0  0  0  0  0  0  0  0  0  0
  190.7380  174.5890  145.8580 N   0  0  0  0  0  2  0  0  0  0  0  0
  188.4660  174.1700  140.2120 N   0  0  0  0  0  0  0  0  0  0  0  0
  190.7600  176.8460  146.7410 C   0  0  0  0  0  2  0  0  0  0  0  0
  190.6950  176.8750  145.2200 C   0  0  1  0  0  3  0  0  0  0  0  0
  190.3140  175.4630  144.7810 C   0  0  1  0  0  3  0  0  0  0  0  0
  184.6720  177.9160  143.4300 N   0  0  0  0  0  2  0  0  0  0  0  0
  187.2020  177.1540  142.9300 C   0  0  0  0  0  3  0  0  0  0  0  0
  186.7150  176.7910  144.3350 C   0  0  0  0  0  2  0  0  0  0  0  0
  185.2440  177.1790  144.5600 C   0  0  0  0  0  2  0  0  0  0  0  0
  185.5310  179.0600  143.1380 C   0  0  0  0  0  2  0  0  0  0  0  0
  186.8670  178.6010  142.5450 C   0  0  0  0  0  2  0  0  0  0  0  0
  1 15  1  0  0  0  0
  2 16  1  0  0  0  0
  2 12  1  0  0  0  0
  4 14  1  0  0  0  0
  4 13  1  0  0  0  0
  6  2  2  0  0  0  0
  7  9  1  6  0  0  0
 10  8  2  0  0  0  0
 11  7  1  0  0  0  0
 11 16  2  0  0  0  0
 12 23  1  0  0  0  0
 12  1  1  0  0  0  0
 13  5  2  0  0  0  0
 13  7  1  0  0  0  0
 14 11  1  0  0  0  0
 16  3  1  0  0  0  0
 17 10  1  0  0  0  0
 18 14  2  0  0  0  0
 18  6  1  0  0  0  0
 19 10  1  0  0  0  0
 20 15  1  1  0  0  0
 20 19  1  0  0  0  0
 21  3  1  6  0  0  0
 21 20  1  0  0  0  0
 21 17  1  0  0  0  0
 22 25  1  0  0  0  0
 23 24  1  0  0  0  0
 24 25  1  0  0  0  0
 26 22  1  0  0  0  0
 27 23  1  0  0  0  0
 27 26  1  0  0  0  0
M  END
>  <MODEL>
4

>  <REMARK>
 VINA RESULT:      -7.0      3.247      6.100
  Name = 
  1 active torsions:
  status: ('A' for Active; 'I' for Inactive)
    1  A    between atoms: C_9  and  N_15
                            x       y       z     vdW  Elec       q    Type
                         _______ _______ _______ _____ _____    ______ ____

>  <TORSDO>
F 1

$$$$
=
 OpenBabel11052418243D

 27 31  0  0  1  0  0  0  0  0999 V2000
  190.3630  177.6160  143.3160 C   0  0  0  0  0  2  0  0  0  0  0  0
  189.5510  175.3850  142.4160 C   0  0  0  0  0  0  0  0  0  0  0  0
  192.1330  175.2890  142.3890 C   0  0  0  0  0  2  0  0  0  0  0  0
  189.5280  171.9430  139.4190 S   0  0  0  0  0  0  0  0  0  0  0  0
  191.9970  171.0240  139.2240 O   0  0  0  0  0  0  0  0  0  0  0  0
  188.3410  174.8440  141.9400 C   0  0  0  0  0  3  0  0  0  0  0  0
  191.8940  173.0600  140.4390 C   0  0  1  0  0  3  0  0  0  0  0  0
  195.0120  175.0280  146.0170 O   0  0  0  0  0  0  0  0  0  0  0  0
  192.6250  173.9430  139.5440 N   0  0  0  0  0  1  0  0  0  0  0  0
  194.0400  175.4480  145.3370 C   0  0  0  0  0  0  0  0  0  0  0  0
  190.7130  173.7740  141.0100 C   0  0  0  0  0  0  0  0  0  0  0  0
  189.4900  176.4410  143.4000 N   0  0  0  0  0  0  0  0  0  0  0  0
  191.3060  171.9320  139.6540 C   0  0  0  0  0  0  0  0  0  0  0  0
  189.4870  173.2960  140.5780 C   0  0  0  0  0  0  0  0  0  0  0  0
  191.3100  177.6740  144.5140 C   0  0  0  0  0  2  0  0  0  0  0  0
  190.7740  174.8180  141.9510 C   0  0  0  0  0  0  0  0  0  0  0  0
  193.3530  174.6320  144.4080 N   0  0  0  0  0  2  0  0  0  0  0  0
  188.3290  173.8230  141.0430 N   0  0  0  0  0  0  0  0  0  0  0  0
  193.5070  176.8230  145.4310 C   0  0  0  0  0  2  0  0  0  0  0  0
  192.5640  176.8640  144.2350 C   0  0  1  0  0  3  0  0  0  0  0  0
  192.2430  175.4100  143.8950 C   0  0  1  0  0  3  0  0  0  0  0  0
  186.5540  176.5980  146.3270 N   0  0  0  0  0  2  0  0  0  0  0  0
  188.4050  176.4130  144.3870 C   0  0  0  0  0  3  0  0  0  0  0  0
  188.9010  175.9460  145.7570 C   0  0  0  0  0  2  0  0  0  0  0  0
  187.7960  176.0000  146.8260 C   0  0  0  0  0  2  0  0  0  0  0  0
  186.8640  177.9040  145.7530 C   0  0  0  0  0  2  0  0  0  0  0  0
  187.6600  177.7520  144.4540 C   0  0  0  0  0  2  0  0  0  0  0  0
  1 12  1  0  0  0  0
  1 15  1  0  0  0  0
  2 12  1  0  0  0  0
  4 13  1  0  0  0  0
  4 14  1  0  0  0  0
  5 13  2  0  0  0  0
  6  2  2  0  0  0  0
  7  9  1  6  0  0  0
  7 11  1  0  0  0  0
 10 19  1  0  0  0  0
 10  8  2  0  0  0  0
 11 16  2  0  0  0  0
 12 23  1  0  0  0  0
 13  7  1  0  0  0  0
 14 11  1  0  0  0  0
 14 18  2  0  0  0  0
 16  3  1  0  0  0  0
 16  2  1  0  0  0  0
 17 10  1  0  0  0  0
 18  6  1  0  0  0  0
 20 15  1  1  0  0  0
 20 19  1  0  0  0  0
 21  3  1  6  0  0  0
 21 20  1  0  0  0  0
 21 17  1  0  0  0  0
 22 25  1  0  0  0  0
 23 27  1  0  0  0  0
 23 24  1  0  0  0  0
 24 25  1  0  0  0  0
 26 22  1  0  0  0  0
 27 26  1  0  0  0  0
M  END
>  <MODEL>
5

>  <REMARK>
 VINA RESULT:      -6.6      3.549      6.298
  Name = 
  1 active torsions:
  status: ('A' for Active; 'I' for Inactive)
    1  A    between atoms: C_9  and  N_15
                            x       y       z     vdW  Elec       q    Type
                         _______ _______ _______ _____ _____    ______ ____

>  <TORSDO>
F 1

$$$$
=
 OpenBabel11052418243D

 27 31  0  0  1  0  0  0  0  0999 V2000
  190.9880  173.9260  145.3300 C   0  0  0  0  0  2  0  0  0  0  0  0
  191.4780  174.1320  142.8480 C   0  0  0  0  0  0  0  0  0  0  0  0
  188.9510  174.5890  143.1350 C   0  0  0  0  0  2  0  0  0  0  0  0
  190.6840  173.2870  138.4330 S   0  0  0  0  0  0  0  0  0  0  0  0
  188.1910  173.9920  137.9110 O   0  0  0  0  0  0  0  0  0  0  0  0
  192.5280  173.7930  141.9720 C   0  0  0  0  0  3  0  0  0  0  0  0
  188.6530  173.9970  140.2380 C   0  0  1  0  0  3  0  0  0  0  0  0
  186.9280  178.2910  145.0650 O   0  0  0  0  0  0  0  0  0  0  0  0
  187.7860  172.9190  140.6850 N   0  0  0  0  0  1  0  0  0  0  0  0
  187.7460  177.3400  144.9600 C   0  0  0  0  0  0  0  0  0  0  0  0
  189.9620  173.9300  140.9540 C   0  0  0  0  0  0  0  0  0  0  0  0
  191.8020  174.4350  144.2230 N   0  0  0  0  0  0  0  0  0  0  0  0
  189.0020  173.7910  138.7990 C   0  0  0  0  0  0  0  0  0  0  0  0
  191.0410  173.5950  140.1520 C   0  0  0  0  0  0  0  0  0  0  0  0
  190.3300  175.0750  146.0920 C   0  0  0  0  0  2  0  0  0  0  0  0
  190.1580  174.2230  142.3160 C   0  0  0  0  0  0  0  0  0  0  0  0
  188.1730  176.8390  143.7090 N   0  0  0  0  0  2  0  0  0  0  0  0
  192.2950  173.5350  140.6590 N   0  0  0  0  0  0  0  0  0  0  0  0
  188.3500  176.6470  146.1180 C   0  0  0  0  0  2  0  0  0  0  0  0
  189.0090  175.4500  145.4430 C   0  0  1  0  0  3  0  0  0  0  0  0
  189.1790  175.8300  143.9740 C   0  0  1  0  0  3  0  0  0  0  0  0
  195.3120  176.3590  145.3170 N   0  0  0  0  0  2  0  0  0  0  0  0
  193.0740  175.1070  144.5070 C   0  0  0  0  0  3  0  0  0  0  0  0
  192.8700  176.5910  144.8220 C   0  0  0  0  0  2  0  0  0  0  0  0
  194.1840  177.2890  145.2140 C   0  0  0  0  0  2  0  0  0  0  0  0
  194.9410  175.2770  146.2250 C   0  0  0  0  0  2  0  0  0  0  0  0
  193.8740  174.3780  145.5940 C   0  0  0  0  0  2  0  0  0  0  0  0
  1 15  1  0  0  0  0
  2 12  1  0  0  0  0
  4 13  1  0  0  0  0
  4 14  1  0  0  0  0
  5 13  2  0  0  0  0
  6  2  2  0  0  0  0
  7  9  1  1  0  0  0
  7 11  1  0  0  0  0
 10  8  2  0  0  0  0
 10 19  1  0  0  0  0
 11 16  2  0  0  0  0
 12 23  1  0  0  0  0
 12  1  1  0  0  0  0
 13  7  1  0  0  0  0
 14 18  2  0  0  0  0
 14 11  1  0  0  0  0
 16  2  1  0  0  0  0
 16  3  1  0  0  0  0
 17 21  1  0  0  0  0
 17 10  1  0  0  0  0
 18  6  1  0  0  0  0
 20 15  1  1  0  0  0
 20 19  1  0  0  0  0
 21  3  1  6  0  0  0
 21 20  1  0  0  0  0
 22 26  1  0  0  0  0
 23 24  1  0  0  0  0
 23 27  1  0  0  0  0
 24 25  1  0  0  0  0
 25 22  1  0  0  0  0
 27 26  1  0  0  0  0
M  END
>  <MODEL>
6

>  <REMARK>
 VINA RESULT:      -6.5      3.451      5.185
  Name = 
  1 active torsions:
  status: ('A' for Active; 'I' for Inactive)
    1  A    between atoms: C_9  and  N_15
                            x       y       z     vdW  Elec       q    Type
                         _______ _______ _______ _____ _____    ______ ____

>  <TORSDO>
F 1

$$$$
=
 OpenBabel11052418243D

 27 31  0  0  1  0  0  0  0  0999 V2000
  189.6850  174.2220  144.6730 C   0  0  0  0  0  2  0  0  0  0  0  0
  191.0110  173.9030  142.5320 C   0  0  0  0  0  0  0  0  0  0  0  0
  188.6530  174.6850  141.8220 C   0  0  0  0  0  2  0  0  0  0  0  0
  191.6200  172.3380  138.2880 S   0  0  0  0  0  0  0  0  0  0  0  0
  189.6100  173.2070  136.8100 O   0  0  0  0  0  0  0  0  0  0  0  0
  192.2200  173.2900  142.1490 C   0  0  0  0  0  3  0  0  0  0  0  0
  189.2530  173.5970  139.1230 C   0  0  1  0  0  3  0  0  0  0  0  0
  186.7620  178.8860  142.3680 O   0  0  0  0  0  0  0  0  0  0  0  0
  188.1150  172.7250  139.3690 N   0  0  0  0  0  1  0  0  0  0  0  0
  187.3920  177.8470  142.6970 C   0  0  0  0  0  0  0  0  0  0  0  0
  190.2120  173.5200  140.2650 C   0  0  0  0  0  0  0  0  0  0  0  0
  190.8990  174.4200  143.8760 N   0  0  0  0  0  0  0  0  0  0  0  0
  190.0260  173.0860  137.9500 C   0  0  0  0  0  0  0  0  0  0  0  0
  191.4240  172.9210  139.9600 C   0  0  0  0  0  0  0  0  0  0  0  0
  189.0150  175.5600  144.9820 C   0  0  0  0  0  2  0  0  0  0  0  0
  189.9840  174.0390  141.5530 C   0  0  0  0  0  0  0  0  0  0  0  0
  188.1240  177.0760  141.7640 N   0  0  0  0  0  2  0  0  0  0  0  0
  192.4040  172.8180  140.8890 N   0  0  0  0  0  0  0  0  0  0  0  0
  187.4420  177.3200  144.0770 C   0  0  0  0  0  2  0  0  0  0  0  0
  188.0750  175.9520  143.8550 C   0  0  1  0  0  3  0  0  0  0  0  0
  188.7940  176.0280  142.5090 C   0  0  1  0  0  3  0  0  0  0  0  0
  194.1000  176.1800  145.8450 N   0  0  0  0  0  2  0  0  0  0  0  0
  192.0960  174.9880  144.5060 C   0  0  0  0  0  3  0  0  0  0  0  0
  192.2530  176.4750  144.1830 C   0  0  0  0  0  2  0  0  0  0  0  0
  193.4500  177.1070  144.9130 C   0  0  0  0  0  2  0  0  0  0  0  0
  193.0880  175.6480  146.7530 C   0  0  0  0  0  2  0  0  0  0  0  0
  192.1360  174.7040  146.0140 C   0  0  0  0  0  2  0  0  0  0  0  0
  1 15  1  0  0  0  0
  2 12  1  0  0  0  0
  4 14  1  0  0  0  0
  5 13  2  0  0  0  0
  6  2  1  0  0  0  0
  7  9  1  1  0  0  0
  7 11  1  0  0  0  0
  8 10  2  0  0  0  0
 10 19  1  0  0  0  0
 11 16  1  0  0  0  0
 12 23  1  0  0  0  0
 12  1  1  0  0  0  0
 13  4  1  0  0  0  0
 13  7  1  0  0  0  0
 14 11  2  0  0  0  0
 14 18  1  0  0  0  0
 16  3  1  0  0  0  0
 16  2  2  0  0  0  0
 17 21  1  0  0  0  0
 17 10  1  0  0  0  0
 18  6  2  0  0  0  0
 20 19  1  1  0  0  0
 20 15  1  0  0  0  0
 21  3  1  6  0  0  0
 21 20  1  0  0  0  0
 22 26  1  0  0  0  0
 23 27  1  0  0  0  0
 24 23  1  0  0  0  0
 24 25  1  0  0  0  0
 25 22  1  0  0  0  0
 27 26  1  0  0  0  0
M  END
>  <MODEL>
7

>  <REMARK>
 VINA RESULT:      -6.5      3.764      6.072
  Name = 
  1 active torsions:
  status: ('A' for Active; 'I' for Inactive)
    1  A    between atoms: C_9  and  N_15
                            x       y       z     vdW  Elec       q    Type
                         _______ _______ _______ _____ _____    ______ ____

>  <TORSDO>
F 1

$$$$
=
 OpenBabel11052418243D

 27 31  0  0  1  0  0  0  0  0999 V2000
  192.0640  176.1280  143.8570 C   0  0  0  0  0  2  0  0  0  0  0  0
  190.1770  174.9830  142.6020 C   0  0  0  0  0  0  0  0  0  0  0  0
  192.2500  173.4600  142.3550 C   0  0  0  0  0  2  0  0  0  0  0  0
  188.3550  172.8570  138.9970 S   0  0  0  0  0  0  0  0  0  0  0  0
  189.8780  170.7720  138.4340 O   0  0  0  0  0  0  0  0  0  0  0  0
  188.8980  175.3280  142.1240 C   0  0  0  0  0  3  0  0  0  0  0  0
  190.8860  172.2110  140.0290 C   0  0  1  0  0  3  0  0  0  0  0  0
  194.2980  170.8850  145.6250 O   0  0  0  0  0  0  0  0  0  0  0  0
  192.0300  172.6910  139.2710 N   0  0  0  0  0  1  0  0  0  0  0  0
  193.7680  171.9080  145.1190 C   0  0  0  0  0  0  0  0  0  0  0  0
  190.2900  173.3290  140.8200 C   0  0  0  0  0  0  0  0  0  0  0  0
  190.6770  175.6600  143.7760 N   0  0  0  0  0  0  0  0  0  0  0  0
  189.8010  171.8000  139.0860 C   0  0  0  0  0  0  0  0  0  0  0  0
  189.0310  173.7250  140.4000 C   0  0  0  0  0  0  0  0  0  0  0  0
  192.8190  175.3950  144.9650 C   0  0  0  0  0  2  0  0  0  0  0  0
  190.8860  173.9370  141.9400 C   0  0  0  0  0  0  0  0  0  0  0  0
  192.7860  171.8320  144.1040 N   0  0  0  0  0  2  0  0  0  0  0  0
  188.3540  174.7020  141.0490 N   0  0  0  0  0  0  0  0  0  0  0  0
  194.1030  173.2900  145.5220 C   0  0  0  0  0  2  0  0  0  0  0  0
  193.4070  174.0990  144.4350 C   0  0  1  0  0  3  0  0  0  0  0  0
  192.3360  173.1850  143.8420 C   0  0  1  0  0  3  0  0  0  0  0  0
  188.2030  176.7550  146.9230 N   0  0  0  0  0  2  0  0  0  0  0  0
  189.7200  176.0440  144.8190 C   0  0  0  0  0  3  0  0  0  0  0  0
  189.5170  174.9210  145.8400 C   0  0  0  0  0  2  0  0  0  0  0  0
  188.5890  175.3420  146.9920 C   0  0  0  0  0  2  0  0  0  0  0  0
  189.4160  177.5640  146.8360 C   0  0  0  0  0  2  0  0  0  0  0  0
  190.0980  177.3780  145.4770 C   0  0  0  0  0  2  0  0  0  0  0  0
  1 15  1  0  0  0  0
  2 12  1  0  0  0  0
  4 13  1  0  0  0  0
  4 14  1  0  0  0  0
  5 13  2  0  0  0  0
  6  2  1  0  0  0  0
  7  9  1  6  0  0  0
  7 11  1  0  0  0  0
 10 19  1  0  0  0  0
 10  8  2  0  0  0  0
 11 16  1  0  0  0  0
 12  1  1  0  0  0  0
 12 23  1  0  0  0  0
 13  7  1  0  0  0  0
 14 11  2  0  0  0  0
 14 18  1  0  0  0  0
 16  3  1  0  0  0  0
 16  2  2  0  0  0  0
 17 10  1  0  0  0  0
 18  6  2  0  0  0  0
 20 15  1  1  0  0  0
 20 19  1  0  0  0  0
 21  3  1  6  0  0  0
 21 17  1  0  0  0  0
 21 20  1  0  0  0  0
 22 25  1  0  0  0  0
 23 27  1  0  0  0  0
 23 24  1  0  0  0  0
 24 25  1  0  0  0  0
 26 22  1  0  0  0  0
 27 26  1  0  0  0  0
M  END
>  <MODEL>
8

>  <REMARK>
 VINA RESULT:      -6.4      3.866      6.325
  Name = 
  1 active torsions:
  status: ('A' for Active; 'I' for Inactive)
    1  A    between atoms: C_9  and  N_15
                            x       y       z     vdW  Elec       q    Type
                         _______ _______ _______ _____ _____    ______ ____

>  <TORSDO>
F 1

$$$$
=
 OpenBabel11052418243D

 27 31  0  0  1  0  0  0  0  0999 V2000
  191.6940  176.0470  142.7610 C   0  0  0  0  0  2  0  0  0  0  0  0
  190.2990  176.0930  144.8820 C   0  0  0  0  0  0  0  0  0  0  0  0
  188.6310  175.9720  142.9120 C   0  0  0  0  0  2  0  0  0  0  0  0
  186.8830  177.6040  147.5040 S   0  0  0  0  0  0  0  0  0  0  0  0
  184.6370  177.3380  146.1370 O   0  0  0  0  0  0  0  0  0  0  0  0
  190.5030  176.3870  146.2440 C   0  0  0  0  0  3  0  0  0  0  0  0
  186.5540  176.9680  144.7890 C   0  0  1  0  0  3  0  0  0  0  0  0
  187.8160  172.3830  140.0880 O   0  0  0  0  0  0  0  0  0  0  0  0
  186.4570  178.0930  143.8730 N   0  0  0  0  0  1  0  0  0  0  0  0
  188.5030  173.2110  140.7410 C   0  0  0  0  0  0  0  0  0  0  0  0
  187.9770  176.7520  145.1870 C   0  0  0  0  0  0  0  0  0  0  0  0
  191.4100  175.5730  144.1180 N   0  0  0  0  0  0  0  0  0  0  0  0
  185.8540  177.3040  146.0660 C   0  0  0  0  0  0  0  0  0  0  0  0
  188.2500  177.0300  146.5160 C   0  0  0  0  0  0  0  0  0  0  0  0
  191.5310  174.9160  141.7460 C   0  0  0  0  0  2  0  0  0  0  0  0
  188.9900  176.2620  144.3430 C   0  0  0  0  0  0  0  0  0  0  0  0
  188.0440  173.8020  141.9410 N   0  0  0  0  0  2  0  0  0  0  0  0
  189.4910  176.8430  147.0270 N   0  0  0  0  0  0  0  0  0  0  0  0
  189.8540  173.6560  140.3360 C   0  0  0  0  0  2  0  0  0  0  0  0
  190.0860  174.8210  141.2890 C   0  0  1  0  0  3  0  0  0  0  0  0
  189.1270  174.6130  142.4590 C   0  0  1  0  0  3  0  0  0  0  0  0
  194.2610  173.0460  145.7630 N   0  0  0  0  0  2  0  0  0  0  0  0
  192.3690  174.6930  144.7950 C   0  0  0  0  0  3  0  0  0  0  0  0
  192.1810  173.2310  144.3850 C   0  0  0  0  0  2  0  0  0  0  0  0
  193.2400  172.3090  145.0130 C   0  0  0  0  0  2  0  0  0  0  0  0
  194.8330  174.0670  144.8890 C   0  0  0  0  0  2  0  0  0  0  0  0
  193.8140  175.1760  144.6100 C   0  0  0  0  0  2  0  0  0  0  0  0
  1 12  1  0  0  0  0
  2  6  1  0  0  0  0
  3 16  1  0  0  0  0
  6 18  2  0  0  0  0
  7  9  1  6  0  0  0
  7 11  1  0  0  0  0
  7 13  1  0  0  0  0
  8 10  2  0  0  0  0
 10 17  1  0  0  0  0
 11 14  2  0  0  0  0
 12 23  1  0  0  0  0
 12  2  1  0  0  0  0
 13  5  2  0  0  0  0
 13  4  1  0  0  0  0
 14 18  1  0  0  0  0
 14  4  1  0  0  0  0
 15  1  1  0  0  0  0
 16  2  2  0  0  0  0
 16 11  1  0  0  0  0
 17 21  1  0  0  0  0
 19 10  1  0  0  0  0
 20 19  1  6  0  0  0
 20 15  1  0  0  0  0
 20 21  1  0  0  0  0
 21  3  1  6  0  0  0
 24 23  1  0  0  0  0
 24 25  1  0  0  0  0
 25 22  1  0  0  0  0
 26 22  1  0  0  0  0
 27 23  1  0  0  0  0
 27 26  1  0  0  0  0
M  END
>  <MODEL>
9

>  <REMARK>
 VINA RESULT:      -6.4      2.926      4.806
  Name = 
  1 active torsions:
  status: ('A' for Active; 'I' for Inactive)
    1  A    between atoms: C_9  and  N_15
                            x       y       z     vdW  Elec       q    Type
                         _______ _______ _______ _____ _____    ______ ____

>  <TORSDO>
F 1

$$$$
