=
 OpenBabel11052419503D

 55 58  0  0  1  0  0  0  0  0999 V2000
  184.9280  178.4490  147.5030 C   0  0  0  0  0  2  0  0  0  0  0  0
  186.3990  178.0200  146.0840 C   0  0  2  0  0  0  0  0  0  0  0  0
  186.1820  176.6590  148.1520 O   0  0  0  0  0  1  0  0  0  0  0  0
  185.7360  179.3180  146.5810 C   0  0  0  0  0  2  0  0  0  0  0  0
  185.5140  177.1530  147.0080 C   0  0  1  0  0  3  0  0  0  0  0  0
  187.9590  177.6880  146.0460 C   0  0  0  0  0  2  0  0  0  0  0  0
  188.2880  176.1480  146.1130 C   0  0  0  0  0  2  0  0  0  0  0  0
  189.5340  176.0370  147.0450 C   0  0  0  0  0  2  0  0  0  0  0  0
  190.9360  174.6700  145.9400 O   0  0  0  0  0  0  0  0  0  0  0  0
  192.1780  175.1700  146.3910 C   0  0  1  0  0  3  0  0  0  0  0  0
  190.3560  174.8440  147.1810 N   0  0  0  0  0  0  0  0  0  0  0  0
  191.5950  175.2950  147.7690 C   0  0  0  0  0  2  0  0  0  0  0  0
  193.1660  174.1410  146.3330 O   0  0  0  0  0  0  0  0  0  0  0  0
  194.2120  174.3190  145.3860 C   0  0  0  0  0  0  0  0  0  0  0  0
  194.2950  175.4070  144.8160 O   0  0  0  0  0  0  0  0  0  0  0  0
  195.2270  173.2190  145.0210 C   0  0  2  0  0  3  0  0  0  0  0  0
  197.3800  174.2300  145.2210 O   0  0  0  0  0  1  0  0  0  0  0  0
  196.4820  173.7160  144.2870 C   0  0  0  0  0  2  0  0  0  0  0  0
  195.3330  171.2140  143.6310 O   0  0  0  0  0  1  0  0  0  0  0  0
  194.4590  172.1330  144.2320 C   0  0  2  0  0  3  0  0  0  0  0  0
  193.4160  172.6110  143.2000 C   0  0  1  0  0  3  0  0  0  0  0  0
  193.8640  172.5770  141.8570 O   0  0  0  0  0  0  0  0  0  0  0  0
  194.2010  173.8770  141.4400 C   0  0  0  0  0  2  0  0  0  0  0  0
  195.4640  173.9070  140.6800 C   0  0  0  0  0  0  0  0  0  0  0  0
  195.9870  172.7440  140.1120 O   0  0  0  0  0  0  0  0  0  0  0  0
  196.0540  175.0020  140.4940 O   0  0  0  0  0  1  0  0  0  0  0  0
  191.9350  172.1140  143.5090 C   0  0  0  0  0  2  0  0  0  0  0  0
  191.2900  170.7590  141.1630 C   0  0  0  0  0  1  0  0  0  0  0  0
  190.7560  172.2180  142.1110 S   0  0  0  0  0  0  0  0  0  0  0  0
  185.8230  177.7130  144.7100 C   0  0  0  0  0  2  0  0  0  0  0  0
  186.6010  178.4610  143.5860 C   0  0  0  0  0  2  0  0  0  0  0  0
  186.4980  177.9170  142.0210 C   0  0  2  0  0  3  0  0  0  0  0  0
  183.9170  178.2810  140.8960 C   0  0  0  0  0  0  0  0  0  0  0  0
  184.2090  179.0740  139.9010 O   0  0  0  0  0  0  0  0  0  0  0  0
  185.0200  177.8280  141.7720 N   0  0  0  0  0  2  0  0  0  0  0  0
  182.4460  177.8550  141.3100 C   0  0  0  0  0  2  0  0  0  0  0  0
  179.1680  178.3740  140.4820 O   0  0  0  0  0  0  0  0  0  0  0  0
  179.1560  178.4180  141.8170 O   0  0  0  0  0  0  0  0  0  0  0  0
  180.4140  178.8890  142.2280 C   0  0  0  0  0  2  0  0  0  0  0  0
  181.3610  178.8420  141.0440 C   0  0  0  0  0  3  0  0  0  0  0  0
  180.5010  178.1020  140.1290 C   0  0  0  0  0  2  0  0  0  0  0  0
  187.2610  176.5120  141.6100 C   0  0  1  0  0  3  0  0  0  0  0  0
  186.7910  177.1500  139.2280 N   0  0  0  0  0  2  0  0  0  0  0  0
  187.3900  175.7030  137.3520 C   0  0  0  0  0  2  0  0  0  0  0  0
  187.9170  174.8930  139.6320 C   0  0  0  0  0  0  0  0  0  0  0  0
  187.9180  174.5150  138.1640 C   0  0  0  0  0  2  0  0  0  0  0  0
  186.2590  176.4010  138.0920 C   0  0  0  0  0  2  0  0  0  0  0  0
  187.4230  176.1800  140.1670 N   0  0  0  0  0  0  0  0  0  0  0  0
  187.9950  173.8370  140.3900 O   0  0  0  0  0  0  0  0  0  0  0  0
  188.4910  175.2030  143.0370 O   0  0  0  0  0  0  0  0  0  0  0  0
  189.7250  177.2050  142.3560 N   0  0  0  0  0  2  0  0  0  0  0  0
  188.5480  176.2860  142.3600 C   0  0  0  0  0  0  0  0  0  0  0  0
  190.7720  176.7410  143.2330 C   0  0  1  0  0  3  0  0  0  0  0  0
  191.6270  175.8490  142.6010 O   0  0  0  0  0  1  0  0  0  0  0  0
  191.4300  177.8170  144.0070 C   0  0  0  0  0  1  0  0  0  0  0  0
  2 30  1  6  0  0  0
  2  4  1  0  0  0  0
  2  5  1  0  0  0  0
  4  1  1  0  0  0  0
  5  1  1  0  0  0  0
  5  3  1  1  0  0  0
  6  2  1  0  0  0  0
  6  7  1  0  0  0  0
  7  8  1  0  0  0  0
  8 11  1  0  0  0  0
  9 10  1  0  0  0  0
  9 11  1  0  0  0  0
 10 13  1  1  0  0  0
 10 12  1  0  0  0  0
 11 12  1  0  0  0  0
 14 13  1  0  0  0  0
 15 14  2  0  0  0  0
 16 18  1  6  0  0  0
 16 14  1  0  0  0  0
 18 17  1  0  0  0  0
 20 19  1  6  0  0  0
 20 16  1  0  0  0  0
 21 27  1  6  0  0  0
 21 20  1  0  0  0  0
 22 21  1  0  0  0  0
 23 22  1  0  0  0  0
 24 23  1  0  0  0  0
 25 24  2  0  0  0  0
 26 24  1  0  0  0  0
 28 29  1  0  0  0  0
 29 27  1  0  0  0  0
 31 30  1  0  0  0  0
 32 31  1  1  0  0  0
 33 36  1  0  0  0  0
 33 35  1  0  0  0  0
 34 33  2  0  0  0  0
 35 32  1  0  0  0  0
 37 38  1  0  0  0  0
 38 39  1  0  0  0  0
 40 36  1  0  0  0  0
 40 39  1  0  0  0  0
 41 37  1  0  0  0  0
 41 40  1  0  0  0  0
 42 32  1  0  0  0  0
 42 52  1  6  0  0  0
 43 48  1  0  0  0  0
 44 47  1  0  0  0  0
 44 46  1  0  0  0  0
 45 48  1  0  0  0  0
 45 49  2  0  0  0  0
 46 45  1  0  0  0  0
 47 43  1  0  0  0  0
 48 42  1  0  0  0  0
 51 52  1  0  0  0  0
 51 53  1  0  0  0  0
 52 50  2  0  0  0  0
 53 55  1  6  0  0  0
 54 53  1  0  0  0  0
M  END
>  <MODEL>
1

>  <REMARK>
 VINA RESULT:      -5.5      0.000      0.000
  Name = 
  25 active torsions:
  status: ('A' for Active; 'I' for Inactive)
    1  A    between atoms: C_1  and  C_29
    2  A    between atoms: C_2  and  C_28
    3  A    between atoms: C_2  and  C_31
    4  A    between atoms: C_3  and  S_25
    5  A    between atoms: C_3  and  C_38
    6  A    between atoms: C_4  and  N_40
    7  A    between atoms: C_6  and  C_14
    8  A    between atoms: C_6  and  C_20
    9  A    between atoms: C_6  and  C_53
   10  A    between atoms: O_7  and  C_20
   11  A    between atoms: O_7  and  C_22
   12  A    between atoms: C_13  and  C_48
   13  A    between atoms: C_14  and  C_38
   14  A    between atoms: O_21  and  C_29
   15  A    between atoms: O_21  and  C_38
   16  A    between atoms: N_26  and  C_49
   17  A    between atoms: C_27  and  C_31
   18  A    between atoms: C_27  and  C_54
   19  A    between atoms: C_28  and  C_33
   20  A    between atoms: C_33  and  C_49
   21  A    between atoms: C_33  and  N_52
   22  A    between atoms: N_35  and  C_51
   23  A    between atoms: C_39  and  C_48
   24  A    between atoms: C_45  and  C_49
   25  A    between atoms: C_51  and  C_54
                            x       y       z     vdW  Elec       q    Type
                         _______ _______ _______ _____ _____    ______ ____

>  <TORSDO>
F 25

$$$$
=
 OpenBabel11052419503D

 55 58  0  0  1  0  0  0  0  0999 V2000
  195.2100  176.2520  144.9680 C   0  0  0  0  0  2  0  0  0  0  0  0
  193.5090  175.0470  144.8390 C   0  0  2  0  0  0  0  0  0  0  0  0
  193.3320  177.5230  144.7250 O   0  0  0  0  0  1  0  0  0  0  0  0
  194.8450  174.9370  145.5970 C   0  0  0  0  0  2  0  0  0  0  0  0
  193.9380  176.3720  144.1700 C   0  0  1  0  0  3  0  0  0  0  0  0
  192.0410  174.9850  145.4600 C   0  0  0  0  0  2  0  0  0  0  0  0
  191.9380  175.5680  146.9210 C   0  0  0  0  0  2  0  0  0  0  0  0
  190.5180  175.1620  147.4240 C   0  0  0  0  0  2  0  0  0  0  0  0
  189.6270  177.1190  146.7670 O   0  0  0  0  0  0  0  0  0  0  0  0
  188.5750  176.6510  145.9470 C   0  0  1  0  0  3  0  0  0  0  0  0
  189.4370  176.1010  147.6800 N   0  0  0  0  0  0  0  0  0  0  0  0
  188.2970  175.5820  146.9630 C   0  0  0  0  0  2  0  0  0  0  0  0
  187.5250  177.6170  145.9040 O   0  0  0  0  0  0  0  0  0  0  0  0
  187.1990  178.1410  144.6220 C   0  0  0  0  0  0  0  0  0  0  0  0
  188.0340  178.0310  143.7250 O   0  0  0  0  0  0  0  0  0  0  0  0
  185.8700  178.8560  144.3090 C   0  0  2  0  0  3  0  0  0  0  0  0
  184.1380  178.6790  145.9410 O   0  0  0  0  0  1  0  0  0  0  0  0
  185.1820  179.5020  145.5220 C   0  0  0  0  0  2  0  0  0  0  0  0
  185.6010  176.5940  143.4290 O   0  0  0  0  0  1  0  0  0  0  0  0
  184.9660  177.8360  143.5780 C   0  0  2  0  0  3  0  0  0  0  0  0
  184.3500  178.2700  142.2320 C   0  0  1  0  0  3  0  0  0  0  0  0
  184.7110  177.4540  141.1330 O   0  0  0  0  0  0  0  0  0  0  0  0
  185.7210  178.0870  140.3870 C   0  0  0  0  0  2  0  0  0  0  0  0
  186.7150  177.1280  139.8720 C   0  0  0  0  0  0  0  0  0  0  0  0
  187.6710  176.5610  140.7160 O   0  0  0  0  0  1  0  0  0  0  0  0
  186.6690  176.7700  138.6660 O   0  0  0  0  0  0  0  0  0  0  0  0
  182.8350  178.7480  142.3460 C   0  0  0  0  0  2  0  0  0  0  0  0
  180.2530  179.2240  141.4150 C   0  0  0  0  0  1  0  0  0  0  0  0
  181.7680  178.3480  140.9120 S   0  0  0  0  0  0  0  0  0  0  0  0
  193.5640  174.0690  143.6750 C   0  0  0  0  0  2  0  0  0  0  0  0
  192.1950  173.9840  142.9360 C   0  0  0  0  0  2  0  0  0  0  0  0
  191.7480  172.5610  142.2080 C   0  0  2  0  0  3  0  0  0  0  0  0
  192.7580  170.0720  143.1290 C   0  0  0  0  0  0  0  0  0  0  0  0
  192.4190  169.3030  142.1300 O   0  0  0  0  0  0  0  0  0  0  0  0
  192.4080  171.5080  143.0500 N   0  0  0  0  0  2  0  0  0  0  0  0
  193.4160  169.5630  144.4790 C   0  0  0  0  0  2  0  0  0  0  0  0
  196.3260  170.6910  143.0780 O   0  0  0  0  0  0  0  0  0  0  0  0
  195.9790  171.6830  143.9010 O   0  0  0  0  0  0  0  0  0  0  0  0
  195.2630  171.1100  144.9650 C   0  0  0  0  0  2  0  0  0  0  0  0
  194.8970  169.6850  144.5920 C   0  0  0  0  0  3  0  0  0  0  0  0
  195.3020  169.7350  143.1930 C   0  0  0  0  0  2  0  0  0  0  0  0
  192.0790  172.3420  140.6060 C   0  0  1  0  0  3  0  0  0  0  0  0
  189.8640  173.4110  140.0990 N   0  0  0  0  0  2  0  0  0  0  0  0
  188.6690  172.9980  138.0080 C   0  0  0  0  0  2  0  0  0  0  0  0
  190.8310  171.8360  138.3360 C   0  0  0  0  0  0  0  0  0  0  0  0
  189.6310  171.9590  137.4190 C   0  0  0  0  0  2  0  0  0  0  0  0
  188.6250  172.8910  139.5250 C   0  0  0  0  0  2  0  0  0  0  0  0
  190.9910  172.5640  139.6120 N   0  0  0  0  0  0  0  0  0  0  0  0
  191.4900  170.7370  138.1040 O   0  0  0  0  0  0  0  0  0  0  0  0
  194.3650  172.2700  140.4360 O   0  0  0  0  0  0  0  0  0  0  0  0
  193.4540  174.3490  139.5160 N   0  0  0  0  0  2  0  0  0  0  0  0
  193.3550  173.0050  140.1600 C   0  0  0  0  0  0  0  0  0  0  0  0
  194.8240  174.7310  139.2760 C   0  0  1  0  0  3  0  0  0  0  0  0
  194.9920  175.3230  138.0330 O   0  0  0  0  0  1  0  0  0  0  0  0
  195.4600  175.4350  140.4110 C   0  0  0  0  0  1  0  0  0  0  0  0
  1  4  1  0  0  0  0
  2 30  1  6  0  0  0
  2  6  1  0  0  0  0
  2  4  1  0  0  0  0
  5  3  1  1  0  0  0
  5  2  1  0  0  0  0
  5  1  1  0  0  0  0
  6  7  1  0  0  0  0
  7  8  1  0  0  0  0
  8 11  1  0  0  0  0
  9 11  1  0  0  0  0
 10 13  1  1  0  0  0
 10  9  1  0  0  0  0
 10 12  1  0  0  0  0
 12 11  1  0  0  0  0
 14 13  1  0  0  0  0
 15 14  2  0  0  0  0
 16 14  1  0  0  0  0
 16 18  1  1  0  0  0
 18 17  1  0  0  0  0
 20 19  1  6  0  0  0
 20 16  1  0  0  0  0
 21 27  1  1  0  0  0
 21 20  1  0  0  0  0
 22 21  1  0  0  0  0
 23 22  1  0  0  0  0
 24 23  1  0  0  0  0
 24 25  1  0  0  0  0
 26 24  2  0  0  0  0
 29 28  1  0  0  0  0
 29 27  1  0  0  0  0
 31 30  1  0  0  0  0
 32 31  1  1  0  0  0
 32 35  1  0  0  0  0
 33 36  1  0  0  0  0
 34 33  2  0  0  0  0
 35 33  1  0  0  0  0
 36 40  1  0  0  0  0
 37 41  1  0  0  0  0
 37 38  1  0  0  0  0
 38 39  1  0  0  0  0
 40 39  1  0  0  0  0
 41 40  1  0  0  0  0
 42 52  1  6  0  0  0
 42 32  1  0  0  0  0
 44 47  1  0  0  0  0
 45 48  1  0  0  0  0
 46 44  1  0  0  0  0
 46 45  1  0  0  0  0
 47 43  1  0  0  0  0
 48 43  1  0  0  0  0
 48 42  1  0  0  0  0
 49 45  2  0  0  0  0
 51 52  1  0  0  0  0
 52 50  2  0  0  0  0
 53 51  1  0  0  0  0
 53 55  1  1  0  0  0
 54 53  1  0  0  0  0
M  END
>  <MODEL>
2

>  <REMARK>
 VINA RESULT:      -5.3      2.998      9.687
  Name = 
  25 active torsions:
  status: ('A' for Active; 'I' for Inactive)
    1  A    between atoms: C_1  and  C_29
    2  A    between atoms: C_2  and  C_28
    3  A    between atoms: C_2  and  C_31
    4  A    between atoms: C_3  and  S_25
    5  A    between atoms: C_3  and  C_38
    6  A    between atoms: C_4  and  N_40
    7  A    between atoms: C_6  and  C_14
    8  A    between atoms: C_6  and  C_20
    9  A    between atoms: C_6  and  C_53
   10  A    between atoms: O_7  and  C_20
   11  A    between atoms: O_7  and  C_22
   12  A    between atoms: C_13  and  C_48
   13  A    between atoms: C_14  and  C_38
   14  A    between atoms: O_21  and  C_29
   15  A    between atoms: O_21  and  C_38
   16  A    between atoms: N_26  and  C_49
   17  A    between atoms: C_27  and  C_31
   18  A    between atoms: C_27  and  C_54
   19  A    between atoms: C_28  and  C_33
   20  A    between atoms: C_33  and  C_49
   21  A    between atoms: C_33  and  N_52
   22  A    between atoms: N_35  and  C_51
   23  A    between atoms: C_39  and  C_48
   24  A    between atoms: C_45  and  C_49
   25  A    between atoms: C_51  and  C_54
                            x       y       z     vdW  Elec       q    Type
                         _______ _______ _______ _____ _____    ______ ____

>  <TORSDO>
F 25

$$$$
=
 OpenBabel11052419503D

 55 58  0  0  1  0  0  0  0  0999 V2000
  186.2510  177.7480  144.4130 C   0  0  0  0  0  2  0  0  0  0  0  0
  187.9610  177.1910  143.3520 C   0  0  2  0  0  0  0  0  0  0  0  0
  186.0830  178.3620  142.2230 O   0  0  0  0  0  1  0  0  0  0  0  0
  187.1860  176.5780  144.5330 C   0  0  0  0  0  2  0  0  0  0  0  0
  187.0100  178.4060  143.2900 C   0  0  1  0  0  3  0  0  0  0  0  0
  188.3310  176.4830  141.9710 C   0  0  0  0  0  2  0  0  0  0  0  0
  187.4250  175.2400  141.6260 C   0  0  0  0  0  2  0  0  0  0  0  0
  188.3440  173.9960  141.8270 C   0  0  0  0  0  2  0  0  0  0  0  0
  188.2210  173.3410  139.6800 O   0  0  0  0  0  0  0  0  0  0  0  0
  189.5920  173.1440  139.4000 C   0  0  1  0  0  3  0  0  0  0  0  0
  188.3550  172.8310  140.9560 N   0  0  0  0  0  0  0  0  0  0  0  0
  189.7480  172.5130  140.7530 C   0  0  0  0  0  2  0  0  0  0  0  0
  189.7420  172.1840  138.3550 O   0  0  0  0  0  0  0  0  0  0  0  0
  190.8380  172.3780  137.4690 C   0  0  0  0  0  0  0  0  0  0  0  0
  191.5690  173.3490  137.6590 O   0  0  0  0  0  0  0  0  0  0  0  0
  191.1420  171.4510  136.2760 C   0  0  2  0  0  3  0  0  0  0  0  0
  189.8380  172.3950  134.5140 O   0  0  0  0  0  1  0  0  0  0  0  0
  189.9730  171.2510  135.2990 C   0  0  0  0  0  2  0  0  0  0  0  0
  190.6700  169.1410  136.9110 O   0  0  0  0  0  1  0  0  0  0  0  0
  191.6740  170.1200  136.8560 C   0  0  2  0  0  3  0  0  0  0  0  0
  192.4160  170.1810  138.2070 C   0  0  1  0  0  3  0  0  0  0  0  0
  191.7050  169.6090  139.2910 O   0  0  0  0  0  0  0  0  0  0  0  0
  192.5840  168.8490  140.0830 C   0  0  0  0  0  2  0  0  0  0  0  0
  192.1940  168.8530  141.5050 C   0  0  0  0  0  0  0  0  0  0  0  0
  190.8610  169.0270  141.8830 O   0  0  0  0  0  0  0  0  0  0  0  0
  193.0630  168.6440  142.3910 O   0  0  0  0  0  1  0  0  0  0  0  0
  193.9770  169.8860  138.0950 C   0  0  0  0  0  2  0  0  0  0  0  0
  196.5900  170.8210  137.8710 C   0  0  0  0  0  1  0  0  0  0  0  0
  195.0770  171.1550  138.8260 S   0  0  0  0  0  0  0  0  0  0  0  0
  189.2330  177.8090  143.9140 C   0  0  0  0  0  2  0  0  0  0  0  0
  190.4990  177.2840  143.1710 C   0  0  0  0  0  2  0  0  0  0  0  0
  191.9930  177.4810  143.8660 C   0  0  2  0  0  3  0  0  0  0  0  0
  193.2010  175.8430  141.8870 C   0  0  0  0  0  0  0  0  0  0  0  0
  192.3350  174.8680  141.8360 O   0  0  0  0  0  0  0  0  0  0  0  0
  192.9410  176.9550  142.8280 N   0  0  0  0  0  2  0  0  0  0  0  0
  194.5770  175.8730  141.0990 C   0  0  0  0  0  2  0  0  0  0  0  0
  195.3500  174.8210  137.9370 O   0  0  0  0  0  0  0  0  0  0  0  0
  196.5430  174.9050  138.5310 O   0  0  0  0  0  0  0  0  0  0  0  0
  196.3440  174.6580  139.9000 C   0  0  0  0  0  2  0  0  0  0  0  0
  194.8570  174.7230  140.1940 C   0  0  0  0  0  3  0  0  0  0  0  0
  194.4200  175.2420  138.9040 C   0  0  0  0  0  2  0  0  0  0  0  0
  192.2840  176.8040  145.3430 C   0  0  1  0  0  3  0  0  0  0  0  0
  191.3120  174.5040  145.0820 N   0  0  0  0  0  2  0  0  0  0  0  0
  189.4810  173.6990  146.4850 C   0  0  0  0  0  2  0  0  0  0  0  0
  190.2920  176.0050  146.8790 C   0  0  0  0  0  0  0  0  0  0  0  0
  189.2340  174.9930  147.2710 C   0  0  0  0  0  2  0  0  0  0  0  0
  189.9380  174.0090  145.0680 C   0  0  0  0  0  2  0  0  0  0  0  0
  191.3380  175.7750  145.8600 N   0  0  0  0  0  0  0  0  0  0  0  0
  189.9350  177.2120  147.2140 O   0  0  0  0  0  0  0  0  0  0  0  0
  194.3280  177.1530  146.3240 O   0  0  0  0  0  0  0  0  0  0  0  0
  194.3490  175.1880  144.8630 N   0  0  0  0  0  2  0  0  0  0  0  0
  193.7110  176.3620  145.5310 C   0  0  0  0  0  0  0  0  0  0  0  0
  195.7480  175.0740  145.1950 C   0  0  1  0  0  3  0  0  0  0  0  0
  196.0050  173.9830  146.0120 O   0  0  0  0  0  1  0  0  0  0  0  0
  196.6550  175.2340  144.0370 C   0  0  0  0  0  1  0  0  0  0  0  0
  1  4  1  0  0  0  0
  2  6  1  6  0  0  0
  2 30  1  0  0  0  0
  2  4  1  0  0  0  0
  5  3  1  6  0  0  0
  5  2  1  0  0  0  0
  5  1  1  0  0  0  0
  7  8  1  0  0  0  0
  7  6  1  0  0  0  0
  9 11  1  0  0  0  0
 10 13  1  6  0  0  0
 10  9  1  0  0  0  0
 10 12  1  0  0  0  0
 11  8  1  0  0  0  0
 12 11  1  0  0  0  0
 14 15  2  0  0  0  0
 14 13  1  0  0  0  0
 16 18  1  1  0  0  0
 16 20  1  0  0  0  0
 16 14  1  0  0  0  0
 17 18  1  0  0  0  0
 20 19  1  1  0  0  0
 20 21  1  0  0  0  0
 21 27  1  6  0  0  0
 21 22  1  0  0  0  0
 22 23  1  0  0  0  0
 23 24  1  0  0  0  0
 24 25  2  0  0  0  0
 24 26  1  0  0  0  0
 27 29  1  0  0  0  0
 28 29  1  0  0  0  0
 31 30  1  0  0  0  0
 32 31  1  6  0  0  0
 32 42  1  0  0  0  0
 33 35  1  0  0  0  0
 34 33  2  0  0  0  0
 35 32  1  0  0  0  0
 36 33  1  0  0  0  0
 37 38  1  0  0  0  0
 37 41  1  0  0  0  0
 38 39  1  0  0  0  0
 39 40  1  0  0  0  0
 40 36  1  0  0  0  0
 41 40  1  0  0  0  0
 42 52  1  6  0  0  0
 42 48  1  0  0  0  0
 43 48  1  0  0  0  0
 44 46  1  0  0  0  0
 45 49  2  0  0  0  0
 45 46  1  0  0  0  0
 47 43  1  0  0  0  0
 47 44  1  0  0  0  0
 48 45  1  0  0  0  0
 51 53  1  0  0  0  0
 51 52  1  0  0  0  0
 52 50  2  0  0  0  0
 53 55  1  6  0  0  0
 53 54  1  0  0  0  0
M  END
>  <MODEL>
3

>  <REMARK>
 VINA RESULT:      -5.2      3.377      8.461
  Name = 
  25 active torsions:
  status: ('A' for Active; 'I' for Inactive)
    1  A    between atoms: C_1  and  C_29
    2  A    between atoms: C_2  and  C_28
    3  A    between atoms: C_2  and  C_31
    4  A    between atoms: C_3  and  S_25
    5  A    between atoms: C_3  and  C_38
    6  A    between atoms: C_4  and  N_40
    7  A    between atoms: C_6  and  C_14
    8  A    between atoms: C_6  and  C_20
    9  A    between atoms: C_6  and  C_53
   10  A    between atoms: O_7  and  C_20
   11  A    between atoms: O_7  and  C_22
   12  A    between atoms: C_13  and  C_48
   13  A    between atoms: C_14  and  C_38
   14  A    between atoms: O_21  and  C_29
   15  A    between atoms: O_21  and  C_38
   16  A    between atoms: N_26  and  C_49
   17  A    between atoms: C_27  and  C_31
   18  A    between atoms: C_27  and  C_54
   19  A    between atoms: C_28  and  C_33
   20  A    between atoms: C_33  and  C_49
   21  A    between atoms: C_33  and  N_52
   22  A    between atoms: N_35  and  C_51
   23  A    between atoms: C_39  and  C_48
   24  A    between atoms: C_45  and  C_49
   25  A    between atoms: C_51  and  C_54
                            x       y       z     vdW  Elec       q    Type
                         _______ _______ _______ _____ _____    ______ ____

>  <TORSDO>
F 25

$$$$
=
 OpenBabel11052419503D

 55 58  0  0  1  0  0  0  0  0999 V2000
  189.3900  173.9760  140.6550 C   0  0  0  0  0  2  0  0  0  0  0  0
  190.3910  172.3530  141.5070 C   0  0  2  0  0  0  0  0  0  0  0  0
  188.0210  172.8360  142.0790 O   0  0  0  0  0  1  0  0  0  0  0  0
  190.8220  173.7630  141.0600 C   0  0  0  0  0  2  0  0  0  0  0  0
  188.9400  172.5890  141.0320 C   0  0  1  0  0  3  0  0  0  0  0  0
  190.5900  171.6970  142.9470 C   0  0  0  0  0  2  0  0  0  0  0  0
  191.7720  172.3240  143.7800 C   0  0  0  0  0  2  0  0  0  0  0  0
  191.0880  173.2730  144.8120 C   0  0  0  0  0  2  0  0  0  0  0  0
  189.4280  174.0500  146.1150 O   0  0  0  0  0  0  0  0  0  0  0  0
  189.3430  175.3800  145.6440 C   0  0  1  0  0  3  0  0  0  0  0  0
  189.6620  173.5600  144.8450 N   0  0  0  0  0  0  0  0  0  0  0  0
  189.5170  174.8650  144.2440 C   0  0  0  0  0  2  0  0  0  0  0  0
  188.0260  175.8870  145.8540 O   0  0  0  0  0  0  0  0  0  0  0  0
  187.8980  177.3010  145.9400 C   0  0  0  0  0  0  0  0  0  0  0  0
  188.9210  177.9640  146.1080 O   0  0  0  0  0  0  0  0  0  0  0  0
  186.5480  178.0400  145.8560 C   0  0  2  0  0  3  0  0  0  0  0  0
  184.7690  178.0090  147.4480 O   0  0  0  0  0  1  0  0  0  0  0  0
  185.3500  177.2620  146.4230 C   0  0  0  0  0  2  0  0  0  0  0  0
  185.8630  179.7720  144.2770 O   0  0  0  0  0  1  0  0  0  0  0  0
  186.3490  178.4590  144.3810 C   0  0  2  0  0  3  0  0  0  0  0  0
  185.5140  177.5220  143.4840 C   0  0  1  0  0  3  0  0  0  0  0  0
  184.2580  178.0500  143.0970 O   0  0  0  0  0  0  0  0  0  0  0  0
  184.2310  178.2280  141.7030 C   0  0  0  0  0  2  0  0  0  0  0  0
  182.8600  178.1640  141.1620 C   0  0  0  0  0  0  0  0  0  0  0  0
  181.7810  178.6880  141.8760 O   0  0  0  0  0  1  0  0  0  0  0  0
  182.6640  177.6790  140.0170 O   0  0  0  0  0  0  0  0  0  0  0  0
  186.3740  176.7510  142.3880 C   0  0  0  0  0  2  0  0  0  0  0  0
  189.0030  177.6570  142.2310 C   0  0  0  0  0  1  0  0  0  0  0  0
  187.4310  177.8050  141.3250 S   0  0  0  0  0  0  0  0  0  0  0  0
  190.9110  171.3680  140.4710 C   0  0  0  0  0  2  0  0  0  0  0  0
  192.2700  170.7450  140.9080 C   0  0  0  0  0  2  0  0  0  0  0  0
  193.6830  171.3460  140.2760 C   0  0  2  0  0  3  0  0  0  0  0  0
  195.5170  172.3490  142.1970 C   0  0  0  0  0  0  0  0  0  0  0  0
  196.5880  171.6800  141.8640 O   0  0  0  0  0  0  0  0  0  0  0  0
  194.2820  172.1180  141.4150 N   0  0  0  0  0  2  0  0  0  0  0  0
  195.4050  173.3080  143.4550 C   0  0  0  0  0  2  0  0  0  0  0  0
  196.0990  176.6060  142.8710 O   0  0  0  0  0  0  0  0  0  0  0  0
  195.6880  176.6010  144.1420 O   0  0  0  0  0  0  0  0  0  0  0  0
  196.0200  175.3470  144.6810 C   0  0  0  0  0  2  0  0  0  0  0  0
  196.3990  174.4150  143.5460 C   0  0  0  0  0  3  0  0  0  0  0  0
  195.9940  175.2720  142.4390 C   0  0  0  0  0  2  0  0  0  0  0  0
  193.6220  172.2560  138.9000 C   0  0  1  0  0  3  0  0  0  0  0  0
  196.0550  172.1100  138.2960 N   0  0  0  0  0  2  0  0  0  0  0  0
  197.3990  174.0960  137.8260 C   0  0  0  0  0  2  0  0  0  0  0  0
  195.0210  174.4430  138.4250 C   0  0  0  0  0  0  0  0  0  0  0  0
  196.3290  175.1510  138.1340 C   0  0  0  0  0  2  0  0  0  0  0  0
  197.2240  172.8760  138.7190 C   0  0  0  0  0  2  0  0  0  0  0  0
  194.8510  172.9740  138.4610 N   0  0  0  0  0  0  0  0  0  0  0  0
  194.1870  175.2290  139.0420 O   0  0  0  0  0  0  0  0  0  0  0  0
  193.2530  170.3020  137.7560 O   0  0  0  0  0  0  0  0  0  0  0  0
  192.1380  172.2010  136.6860 N   0  0  0  0  0  2  0  0  0  0  0  0
  192.9710  171.5490  137.7410 C   0  0  0  0  0  0  0  0  0  0  0  0
  191.7200  171.2630  135.6740 C   0  0  1  0  0  3  0  0  0  0  0  0
  190.3730  171.3890  135.3670 O   0  0  0  0  0  1  0  0  0  0  0  0
  192.6360  171.1830  134.5130 C   0  0  0  0  0  1  0  0  0  0  0  0
  1  5  1  0  0  0  0
  1  4  1  0  0  0  0
  2 30  1  6  0  0  0
  2  6  1  0  0  0  0
  4  2  1  0  0  0  0
  5  2  1  0  0  0  0
  5  3  1  1  0  0  0
  6  7  1  0  0  0  0
  7  8  1  0  0  0  0
  8 11  1  0  0  0  0
 10 13  1  6  0  0  0
 10  9  1  0  0  0  0
 11  9  1  0  0  0  0
 12 11  1  0  0  0  0
 12 10  1  0  0  0  0
 13 14  1  0  0  0  0
 14 15  2  0  0  0  0
 16 14  1  0  0  0  0
 16 18  1  6  0  0  0
 18 17  1  0  0  0  0
 20 19  1  1  0  0  0
 20 16  1  0  0  0  0
 21 27  1  6  0  0  0
 21 20  1  0  0  0  0
 22 21  1  0  0  0  0
 23 22  1  0  0  0  0
 24 23  1  0  0  0  0
 24 25  1  0  0  0  0
 26 24  2  0  0  0  0
 29 28  1  0  0  0  0
 29 27  1  0  0  0  0
 30 31  1  0  0  0  0
 32 31  1  1  0  0  0
 32 35  1  0  0  0  0
 33 36  1  0  0  0  0
 34 33  2  0  0  0  0
 35 33  1  0  0  0  0
 36 40  1  0  0  0  0
 37 38  1  0  0  0  0
 38 39  1  0  0  0  0
 40 39  1  0  0  0  0
 41 37  1  0  0  0  0
 41 40  1  0  0  0  0
 42 52  1  6  0  0  0
 42 32  1  0  0  0  0
 43 48  1  0  0  0  0
 43 47  1  0  0  0  0
 44 46  1  0  0  0  0
 44 47  1  0  0  0  0
 45 48  1  0  0  0  0
 45 49  2  0  0  0  0
 46 45  1  0  0  0  0
 48 42  1  0  0  0  0
 51 52  1  0  0  0  0
 52 50  2  0  0  0  0
 53 55  1  6  0  0  0
 53 51  1  0  0  0  0
 54 53  1  0  0  0  0
M  END
>  <MODEL>
4

>  <REMARK>
 VINA RESULT:      -5.1      3.446     10.318
  Name = 
  25 active torsions:
  status: ('A' for Active; 'I' for Inactive)
    1  A    between atoms: C_1  and  C_29
    2  A    between atoms: C_2  and  C_28
    3  A    between atoms: C_2  and  C_31
    4  A    between atoms: C_3  and  S_25
    5  A    between atoms: C_3  and  C_38
    6  A    between atoms: C_4  and  N_40
    7  A    between atoms: C_6  and  C_14
    8  A    between atoms: C_6  and  C_20
    9  A    between atoms: C_6  and  C_53
   10  A    between atoms: O_7  and  C_20
   11  A    between atoms: O_7  and  C_22
   12  A    between atoms: C_13  and  C_48
   13  A    between atoms: C_14  and  C_38
   14  A    between atoms: O_21  and  C_29
   15  A    between atoms: O_21  and  C_38
   16  A    between atoms: N_26  and  C_49
   17  A    between atoms: C_27  and  C_31
   18  A    between atoms: C_27  and  C_54
   19  A    between atoms: C_28  and  C_33
   20  A    between atoms: C_33  and  C_49
   21  A    between atoms: C_33  and  N_52
   22  A    between atoms: N_35  and  C_51
   23  A    between atoms: C_39  and  C_48
   24  A    between atoms: C_45  and  C_49
   25  A    between atoms: C_51  and  C_54
                            x       y       z     vdW  Elec       q    Type
                         _______ _______ _______ _____ _____    ______ ____

>  <TORSDO>
F 25

$$$$
=
 OpenBabel11052419503D

 55 58  0  0  1  0  0  0  0  0999 V2000
  188.8780  174.1150  140.7910 C   0  0  0  0  0  2  0  0  0  0  0  0
  190.4820  172.8780  141.2990 C   0  0  2  0  0  0  0  0  0  0  0  0
  188.1980  172.4270  142.1650 O   0  0  0  0  0  1  0  0  0  0  0  0
  190.3390  174.3860  141.0180 C   0  0  0  0  0  2  0  0  0  0  0  0
  188.9860  172.6280  141.0080 C   0  0  1  0  0  3  0  0  0  0  0  0
  191.0970  172.1960  142.6040 C   0  0  0  0  0  2  0  0  0  0  0  0
  191.8690  173.1960  143.5470 C   0  0  0  0  0  2  0  0  0  0  0  0
  191.1320  173.1150  144.9190 C   0  0  0  0  0  2  0  0  0  0  0  0
  189.6070  173.8120  146.4170 O   0  0  0  0  0  0  0  0  0  0  0  0
  189.4630  175.1610  146.0170 C   0  0  1  0  0  3  0  0  0  0  0  0
  189.7140  173.3820  145.1090 N   0  0  0  0  0  0  0  0  0  0  0  0
  189.4980  174.7100  144.5860 C   0  0  0  0  0  2  0  0  0  0  0  0
  188.1700  175.6410  146.3820 O   0  0  0  0  0  0  0  0  0  0  0  0
  187.9820  177.0500  146.3400 C   0  0  0  0  0  0  0  0  0  0  0  0
  188.9440  177.7690  146.6100 O   0  0  0  0  0  0  0  0  0  0  0  0
  186.6370  177.7190  145.9960 C   0  0  2  0  0  3  0  0  0  0  0  0
  185.9530  177.5660  148.2770 O   0  0  0  0  0  1  0  0  0  0  0  0
  185.4920  177.4060  146.9710 C   0  0  0  0  0  2  0  0  0  0  0  0
  186.2140  175.9520  144.3640 O   0  0  0  0  0  1  0  0  0  0  0  0
  186.3010  177.3430  144.5340 C   0  0  2  0  0  3  0  0  0  0  0  0
  187.1850  177.9490  143.4240 C   0  0  1  0  0  3  0  0  0  0  0  0
  188.2640  177.1250  143.0210 O   0  0  0  0  0  0  0  0  0  0  0  0
  189.2300  177.9040  142.3600 C   0  0  0  0  0  2  0  0  0  0  0  0
  190.5320  177.8780  143.0510 C   0  0  0  0  0  0  0  0  0  0  0  0
  190.7450  178.6260  144.2100 O   0  0  0  0  0  1  0  0  0  0  0  0
  191.4490  177.1290  142.6250 O   0  0  0  0  0  0  0  0  0  0  0  0
  186.3610  178.7120  142.2950 C   0  0  0  0  0  2  0  0  0  0  0  0
  184.3180  178.3760  140.4320 C   0  0  0  0  0  1  0  0  0  0  0  0
  184.5680  178.3420  142.2350 S   0  0  0  0  0  0  0  0  0  0  0  0
  191.1530  172.2510  140.0860 C   0  0  0  0  0  2  0  0  0  0  0  0
  192.4580  171.4970  140.4820 C   0  0  0  0  0  2  0  0  0  0  0  0
  193.9080  171.9810  139.8340 C   0  0  2  0  0  3  0  0  0  0  0  0
  195.8700  172.8760  141.6800 C   0  0  0  0  0  0  0  0  0  0  0  0
  196.9110  172.2180  141.2470 O   0  0  0  0  0  0  0  0  0  0  0  0
  194.5860  172.6930  140.9690 N   0  0  0  0  0  2  0  0  0  0  0  0
  195.8480  173.7720  142.9880 C   0  0  0  0  0  2  0  0  0  0  0  0
  196.0970  176.3910  140.8000 O   0  0  0  0  0  0  0  0  0  0  0  0
  194.8130  176.4200  141.1670 O   0  0  0  0  0  0  0  0  0  0  0  0
  194.7410  175.9050  142.4720 C   0  0  0  0  0  2  0  0  0  0  0  0
  196.0620  175.2360  142.8030 C   0  0  0  0  0  3  0  0  0  0  0  0
  196.6520  175.2870  141.4720 C   0  0  0  0  0  2  0  0  0  0  0  0
  193.9050  172.9030  138.4640 C   0  0  1  0  0  3  0  0  0  0  0  0
  194.8750  175.1040  137.7460 N   0  0  0  0  0  2  0  0  0  0  0  0
  197.2470  175.3720  137.2240 C   0  0  0  0  0  2  0  0  0  0  0  0
  196.4730  173.1170  137.8950 C   0  0  0  0  0  0  0  0  0  0  0  0
  197.6650  173.9050  137.3890 C   0  0  0  0  0  2  0  0  0  0  0  0
  195.8240  175.4700  136.6970 C   0  0  0  0  0  2  0  0  0  0  0  0
  195.1270  173.6840  138.1230 N   0  0  0  0  0  0  0  0  0  0  0  0
  196.6390  171.8400  137.7070 O   0  0  0  0  0  0  0  0  0  0  0  0
  192.7910  172.9930  136.4610 O   0  0  0  0  0  0  0  0  0  0  0  0
  193.4780  170.7090  137.0110 N   0  0  0  0  0  2  0  0  0  0  0  0
  193.3770  172.1790  137.2540 C   0  0  0  0  0  0  0  0  0  0  0  0
  192.8090  170.3160  135.7950 C   0  0  1  0  0  3  0  0  0  0  0  0
  193.6470  169.6160  134.9400 O   0  0  0  0  0  1  0  0  0  0  0  0
  191.4720  169.7200  136.0100 C   0  0  0  0  0  1  0  0  0  0  0  0
  1  5  1  0  0  0  0
  1  4  1  0  0  0  0
  2 30  1  6  0  0  0
  2  6  1  0  0  0  0
  4  2  1  0  0  0  0
  5  2  1  0  0  0  0
  5  3  1  1  0  0  0
  6  7  1  0  0  0  0
  7  8  1  0  0  0  0
  8 11  1  0  0  0  0
 10 13  1  1  0  0  0
 10  9  1  0  0  0  0
 11  9  1  0  0  0  0
 12 11  1  0  0  0  0
 12 10  1  0  0  0  0
 14 13  1  0  0  0  0
 14 15  2  0  0  0  0
 16 14  1  0  0  0  0
 16 18  1  1  0  0  0
 18 17  1  0  0  0  0
 20 19  1  1  0  0  0
 20 16  1  0  0  0  0
 21 27  1  6  0  0  0
 21 20  1  0  0  0  0
 22 21  1  0  0  0  0
 23 22  1  0  0  0  0
 23 24  1  0  0  0  0
 24 25  1  0  0  0  0
 26 24  2  0  0  0  0
 28 29  1  0  0  0  0
 29 27  1  0  0  0  0
 30 31  1  0  0  0  0
 32 31  1  1  0  0  0
 32 35  1  0  0  0  0
 33 36  1  0  0  0  0
 34 33  2  0  0  0  0
 35 33  1  0  0  0  0
 37 38  1  0  0  0  0
 37 41  1  0  0  0  0
 38 39  1  0  0  0  0
 39 40  1  0  0  0  0
 40 36  1  0  0  0  0
 41 40  1  0  0  0  0
 42 52  1  6  0  0  0
 42 32  1  0  0  0  0
 43 48  1  0  0  0  0
 44 46  1  0  0  0  0
 45 48  1  0  0  0  0
 46 45  1  0  0  0  0
 47 44  1  0  0  0  0
 47 43  1  0  0  0  0
 48 42  1  0  0  0  0
 49 45  2  0  0  0  0
 50 52  2  0  0  0  0
 51 52  1  0  0  0  0
 53 55  1  1  0  0  0
 53 51  1  0  0  0  0
 54 53  1  0  0  0  0
M  END
>  <MODEL>
5

>  <REMARK>
 VINA RESULT:      -5.0      3.499      9.712
  Name = 
  25 active torsions:
  status: ('A' for Active; 'I' for Inactive)
    1  A    between atoms: C_1  and  C_29
    2  A    between atoms: C_2  and  C_28
    3  A    between atoms: C_2  and  C_31
    4  A    between atoms: C_3  and  S_25
    5  A    between atoms: C_3  and  C_38
    6  A    between atoms: C_4  and  N_40
    7  A    between atoms: C_6  and  C_14
    8  A    between atoms: C_6  and  C_20
    9  A    between atoms: C_6  and  C_53
   10  A    between atoms: O_7  and  C_20
   11  A    between atoms: O_7  and  C_22
   12  A    between atoms: C_13  and  C_48
   13  A    between atoms: C_14  and  C_38
   14  A    between atoms: O_21  and  C_29
   15  A    between atoms: O_21  and  C_38
   16  A    between atoms: N_26  and  C_49
   17  A    between atoms: C_27  and  C_31
   18  A    between atoms: C_27  and  C_54
   19  A    between atoms: C_28  and  C_33
   20  A    between atoms: C_33  and  C_49
   21  A    between atoms: C_33  and  N_52
   22  A    between atoms: N_35  and  C_51
   23  A    between atoms: C_39  and  C_48
   24  A    between atoms: C_45  and  C_49
   25  A    between atoms: C_51  and  C_54
                            x       y       z     vdW  Elec       q    Type
                         _______ _______ _______ _____ _____    ______ ____

>  <TORSDO>
F 25

$$$$
=
 OpenBabel11052419503D

 55 58  0  0  1  0  0  0  0  0999 V2000
  187.0010  177.5530  145.0350 C   0  0  0  0  0  2  0  0  0  0  0  0
  188.3620  176.9830  143.5580 C   0  0  2  0  0  0  0  0  0  0  0  0
  186.2960  178.2350  142.9770 O   0  0  0  0  0  1  0  0  0  0  0  0
  187.8970  176.3560  144.8850 C   0  0  0  0  0  2  0  0  0  0  0  0
  187.4670  178.2240  143.7700 C   0  0  1  0  0  3  0  0  0  0  0  0
  188.3420  176.3070  142.1130 C   0  0  0  0  0  2  0  0  0  0  0  0
  187.5580  174.9400  142.0570 C   0  0  0  0  0  2  0  0  0  0  0  0
  188.6580  173.8360  142.1240 C   0  0  0  0  0  2  0  0  0  0  0  0
  188.0710  172.7770  140.2290 O   0  0  0  0  0  0  0  0  0  0  0  0
  189.3450  172.5710  139.6530 C   0  0  1  0  0  3  0  0  0  0  0  0
  188.5480  172.5260  141.5000 N   0  0  0  0  0  0  0  0  0  0  0  0
  189.8710  172.2170  141.0140 C   0  0  0  0  0  2  0  0  0  0  0  0
  189.3120  171.4330  138.7930 O   0  0  0  0  0  0  0  0  0  0  0  0
  189.8620  171.6050  137.4920 C   0  0  0  0  0  0  0  0  0  0  0  0
  189.3200  172.4150  136.7410 O   0  0  0  0  0  0  0  0  0  0  0  0
  191.0790  170.8170  136.9710 C   0  0  2  0  0  3  0  0  0  0  0  0
  190.5580  168.7570  138.0590 O   0  0  0  0  0  1  0  0  0  0  0  0
  190.8490  169.3060  136.8110 C   0  0  0  0  0  2  0  0  0  0  0  0
  192.4340  172.5330  138.0580 O   0  0  0  0  0  1  0  0  0  0  0  0
  192.2690  171.1480  137.9020 C   0  0  2  0  0  3  0  0  0  0  0  0
  193.6280  170.4950  137.5770 C   0  0  1  0  0  3  0  0  0  0  0  0
  193.8320  169.2350  138.1900 O   0  0  0  0  0  0  0  0  0  0  0  0
  194.7000  169.3800  139.2870 C   0  0  0  0  0  2  0  0  0  0  0  0
  193.9700  169.4500  140.5660 C   0  0  0  0  0  0  0  0  0  0  0  0
  192.7280  168.8310  140.7190 O   0  0  0  0  0  0  0  0  0  0  0  0
  194.4950  170.0290  141.5520 O   0  0  0  0  0  1  0  0  0  0  0  0
  194.0770  170.6730  136.0590 C   0  0  0  0  0  2  0  0  0  0  0  0
  196.6860  171.3020  135.3160 C   0  0  0  0  0  1  0  0  0  0  0  0
  195.6390  169.8390  135.5920 S   0  0  0  0  0  0  0  0  0  0  0  0
  189.7550  177.5510  143.7860 C   0  0  0  0  0  2  0  0  0  0  0  0
  190.8220  176.8080  142.9260 C   0  0  0  0  0  2  0  0  0  0  0  0
  192.1180  176.0910  143.6750 C   0  0  2  0  0  3  0  0  0  0  0  0
  194.2670  175.5990  141.8860 C   0  0  0  0  0  0  0  0  0  0  0  0
  195.1870  176.3560  142.4190 O   0  0  0  0  0  0  0  0  0  0  0  0
  192.9380  175.5590  142.5360 N   0  0  0  0  0  2  0  0  0  0  0  0
  194.4270  174.8030  140.5240 C   0  0  0  0  0  2  0  0  0  0  0  0
  196.3450  172.7520  138.5700 O   0  0  0  0  0  0  0  0  0  0  0  0
  196.4040  173.9240  137.9330 O   0  0  0  0  0  0  0  0  0  0  0  0
  196.2690  174.9320  138.9020 C   0  0  0  0  0  2  0  0  0  0  0  0
  195.7910  174.3000  140.1960 C   0  0  0  0  0  3  0  0  0  0  0  0
  195.5030  172.9700  139.6750 C   0  0  0  0  0  2  0  0  0  0  0  0
  191.8420  174.9260  144.8120 C   0  0  1  0  0  3  0  0  0  0  0  0
  194.1760  174.5030  145.6340 N   0  0  0  0  0  2  0  0  0  0  0  0
  195.2110  172.2920  145.5290 C   0  0  0  0  0  2  0  0  0  0  0  0
  192.9070  172.5170  144.6490 C   0  0  0  0  0  0  0  0  0  0  0  0
  194.0760  171.5640  144.7980 C   0  0  0  0  0  2  0  0  0  0  0  0
  195.2950  173.7430  145.0820 C   0  0  0  0  0  2  0  0  0  0  0  0
  192.9130  173.9280  145.0900 N   0  0  0  0  0  0  0  0  0  0  0  0
  192.0750  172.1030  143.7380 O   0  0  0  0  0  0  0  0  0  0  0  0
  190.3560  174.6810  146.5420 O   0  0  0  0  0  0  0  0  0  0  0  0
  191.6540  176.7460  146.7500 N   0  0  0  0  0  2  0  0  0  0  0  0
  191.2640  175.4630  146.0940 C   0  0  0  0  0  0  0  0  0  0  0  0
  190.8630  177.0120  147.9270 C   0  0  1  0  0  3  0  0  0  0  0  0
  191.6460  177.3790  149.0120 O   0  0  0  0  0  1  0  0  0  0  0  0
  189.6790  177.8640  147.6750 C   0  0  0  0  0  1  0  0  0  0  0  0
  2  6  1  6  0  0  0
  2  5  1  0  0  0  0
  2 30  1  0  0  0  0
  2  4  1  0  0  0  0
  4  1  1  0  0  0  0
  5  3  1  6  0  0  0
  5  1  1  0  0  0  0
  7  6  1  0  0  0  0
  7  8  1  0  0  0  0
  9 11  1  0  0  0  0
 10 13  1  6  0  0  0
 10  9  1  0  0  0  0
 10 12  1  0  0  0  0
 11  8  1  0  0  0  0
 12 11  1  0  0  0  0
 14 13  1  0  0  0  0
 15 14  2  0  0  0  0
 16 18  1  1  0  0  0
 16 14  1  0  0  0  0
 16 20  1  0  0  0  0
 18 17  1  0  0  0  0
 20 19  1  6  0  0  0
 21 27  1  6  0  0  0
 21 20  1  0  0  0  0
 21 22  1  0  0  0  0
 22 23  1  0  0  0  0
 23 24  1  0  0  0  0
 24 25  2  0  0  0  0
 24 26  1  0  0  0  0
 28 29  1  0  0  0  0
 29 27  1  0  0  0  0
 31 30  1  0  0  0  0
 32 31  1  6  0  0  0
 32 42  1  0  0  0  0
 33 34  2  0  0  0  0
 33 35  1  0  0  0  0
 35 32  1  0  0  0  0
 36 33  1  0  0  0  0
 37 41  1  0  0  0  0
 38 37  1  0  0  0  0
 38 39  1  0  0  0  0
 39 40  1  0  0  0  0
 40 36  1  0  0  0  0
 41 40  1  0  0  0  0
 42 48  1  0  0  0  0
 42 52  1  1  0  0  0
 45 46  1  0  0  0  0
 45 48  1  0  0  0  0
 46 44  1  0  0  0  0
 47 44  1  0  0  0  0
 47 43  1  0  0  0  0
 48 43  1  0  0  0  0
 49 45  2  0  0  0  0
 51 53  1  0  0  0  0
 52 50  2  0  0  0  0
 52 51  1  0  0  0  0
 53 55  1  6  0  0  0
 53 54  1  0  0  0  0
M  END
>  <MODEL>
6

>  <REMARK>
 VINA RESULT:      -5.0      3.661      8.688
  Name = 
  25 active torsions:
  status: ('A' for Active; 'I' for Inactive)
    1  A    between atoms: C_1  and  C_29
    2  A    between atoms: C_2  and  C_28
    3  A    between atoms: C_2  and  C_31
    4  A    between atoms: C_3  and  S_25
    5  A    between atoms: C_3  and  C_38
    6  A    between atoms: C_4  and  N_40
    7  A    between atoms: C_6  and  C_14
    8  A    between atoms: C_6  and  C_20
    9  A    between atoms: C_6  and  C_53
   10  A    between atoms: O_7  and  C_20
   11  A    between atoms: O_7  and  C_22
   12  A    between atoms: C_13  and  C_48
   13  A    between atoms: C_14  and  C_38
   14  A    between atoms: O_21  and  C_29
   15  A    between atoms: O_21  and  C_38
   16  A    between atoms: N_26  and  C_49
   17  A    between atoms: C_27  and  C_31
   18  A    between atoms: C_27  and  C_54
   19  A    between atoms: C_28  and  C_33
   20  A    between atoms: C_33  and  C_49
   21  A    between atoms: C_33  and  N_52
   22  A    between atoms: N_35  and  C_51
   23  A    between atoms: C_39  and  C_48
   24  A    between atoms: C_45  and  C_49
   25  A    between atoms: C_51  and  C_54
                            x       y       z     vdW  Elec       q    Type
                         _______ _______ _______ _____ _____    ______ ____

>  <TORSDO>
F 25

$$$$
=
 OpenBabel11052419503D

 55 58  0  0  1  0  0  0  0  0999 V2000
  185.6590  178.0380  141.2200 C   0  0  0  0  0  2  0  0  0  0  0  0
  187.4620  177.1750  141.8250 C   0  0  2  0  0  0  0  0  0  0  0  0
  185.5770  177.4440  143.4210 O   0  0  0  0  0  1  0  0  0  0  0  0
  187.0880  178.2820  140.8220 C   0  0  0  0  0  2  0  0  0  0  0  0
  185.9790  176.9150  142.1720 C   0  0  1  0  0  3  0  0  0  0  0  0
  188.4880  177.2840  143.0420 C   0  0  0  0  0  2  0  0  0  0  0  0
  189.9910  177.0310  142.6360 C   0  0  0  0  0  2  0  0  0  0  0  0
  190.8260  177.4410  143.8880 C   0  0  0  0  0  2  0  0  0  0  0  0
  192.7380  177.0120  144.9910 O   0  0  0  0  0  0  0  0  0  0  0  0
  193.2460  175.9530  144.2050 C   0  0  1  0  0  3  0  0  0  0  0  0
  192.2620  177.6770  143.8780 N   0  0  0  0  0  0  0  0  0  0  0  0
  192.8080  176.6930  142.9750 C   0  0  0  0  0  2  0  0  0  0  0  0
  194.6690  175.9090  144.3100 O   0  0  0  0  0  0  0  0  0  0  0  0
  195.3290  174.9000  143.5550 C   0  0  0  0  0  0  0  0  0  0  0  0
  196.0310  175.2550  142.6080 O   0  0  0  0  0  0  0  0  0  0  0  0
  195.1930  173.3930  143.8460 C   0  0  2  0  0  3  0  0  0  0  0  0
  193.8210  172.5830  145.6240 O   0  0  0  0  0  1  0  0  0  0  0  0
  193.7880  172.9430  144.2770 C   0  0  0  0  0  2  0  0  0  0  0  0
  196.7520  174.1620  145.5610 O   0  0  0  0  0  1  0  0  0  0  0  0
  196.2840  173.0280  144.8790 C   0  0  2  0  0  3  0  0  0  0  0  0
  197.4790  172.1880  144.3830 C   0  0  1  0  0  3  0  0  0  0  0  0
  197.6010  170.9210  145.0030 O   0  0  0  0  0  0  0  0  0  0  0  0
  196.7620  170.8650  146.1300 C   0  0  0  0  0  2  0  0  0  0  0  0
  196.1460  169.5360  146.2970 C   0  0  0  0  0  0  0  0  0  0  0  0
  194.8550  169.4020  146.8110 O   0  0  0  0  0  1  0  0  0  0  0  0
  196.7690  168.5080  145.9230 O   0  0  0  0  0  0  0  0  0  0  0  0
  197.7180  172.2810  142.8110 C   0  0  0  0  0  2  0  0  0  0  0  0
  196.7780  171.5450  140.2950 C   0  0  0  0  0  1  0  0  0  0  0  0
  197.3080  170.7730  141.8560 S   0  0  0  0  0  0  0  0  0  0  0  0
  187.8240  175.9350  141.0200 C   0  0  0  0  0  2  0  0  0  0  0  0
  187.4700  174.6290  141.7940 C   0  0  0  0  0  2  0  0  0  0  0  0
  188.6140  173.4370  141.9460 C   0  0  2  0  0  3  0  0  0  0  0  0
  189.6510  173.2120  144.5800 C   0  0  0  0  0  0  0  0  0  0  0  0
  189.3190  171.9800  144.8530 O   0  0  0  0  0  0  0  0  0  0  0  0
  189.2860  173.7520  143.2510 N   0  0  0  0  0  2  0  0  0  0  0  0
  190.3140  174.2200  145.6090 C   0  0  0  0  0  2  0  0  0  0  0  0
  189.6740  176.8210  147.7370 O   0  0  0  0  0  0  0  0  0  0  0  0
  188.9340  177.1140  146.6650 O   0  0  0  0  0  0  0  0  0  0  0  0
  188.5760  175.8970  146.0620 C   0  0  0  0  0  2  0  0  0  0  0  0
  189.4240  174.7900  146.6600 C   0  0  0  0  0  3  0  0  0  0  0  0
  190.3480  175.6300  147.4120 C   0  0  0  0  0  2  0  0  0  0  0  0
  189.7190  173.2270  140.7380 C   0  0  1  0  0  3  0  0  0  0  0  0
  190.2680  170.9710  141.6920 N   0  0  0  0  0  2  0  0  0  0  0  0
  192.4750  169.9540  141.4380 C   0  0  0  0  0  2  0  0  0  0  0  0
  192.1310  172.1960  140.4450 C   0  0  0  0  0  0  0  0  0  0  0  0
  193.1640  171.1230  140.7250 C   0  0  0  0  0  2  0  0  0  0  0  0
  191.4290  170.4620  142.4180 C   0  0  0  0  0  2  0  0  0  0  0  0
  190.7130  172.1240  140.8580 N   0  0  0  0  0  0  0  0  0  0  0  0
  192.6970  173.3390  140.1870 O   0  0  0  0  0  0  0  0  0  0  0  0
  187.9680  172.6890  139.3570 O   0  0  0  0  0  0  0  0  0  0  0  0
  189.7620  173.8300  138.1410 N   0  0  0  0  0  2  0  0  0  0  0  0
  189.1140  173.2560  139.3590 C   0  0  0  0  0  0  0  0  0  0  0  0
  188.9550  173.6360  136.9610 C   0  0  1  0  0  3  0  0  0  0  0  0
  188.1760  174.7470  136.6720 O   0  0  0  0  0  1  0  0  0  0  0  0
  189.6930  173.0560  135.8170 C   0  0  0  0  0  1  0  0  0  0  0  0
  1  5  1  0  0  0  0
  2 30  1  6  0  0  0
  2  5  1  0  0  0  0
  2  6  1  0  0  0  0
  4  1  1  0  0  0  0
  4  2  1  0  0  0  0
  5  3  1  1  0  0  0
  7  6  1  0  0  0  0
  7  8  1  0  0  0  0
 10 13  1  6  0  0  0
 10  9  1  0  0  0  0
 11  8  1  0  0  0  0
 11  9  1  0  0  0  0
 12 11  1  0  0  0  0
 12 10  1  0  0  0  0
 14 16  1  0  0  0  0
 14 13  1  0  0  0  0
 15 14  2  0  0  0  0
 16 18  1  1  0  0  0
 16 20  1  0  0  0  0
 18 17  1  0  0  0  0
 20 19  1  6  0  0  0
 21 27  1  6  0  0  0
 21 20  1  0  0  0  0
 21 22  1  0  0  0  0
 22 23  1  0  0  0  0
 23 24  1  0  0  0  0
 24 25  1  0  0  0  0
 26 24  2  0  0  0  0
 28 29  1  0  0  0  0
 29 27  1  0  0  0  0
 30 31  1  0  0  0  0
 32 31  1  6  0  0  0
 32 35  1  0  0  0  0
 33 34  2  0  0  0  0
 33 36  1  0  0  0  0
 35 33  1  0  0  0  0
 36 40  1  0  0  0  0
 38 37  1  0  0  0  0
 39 40  1  0  0  0  0
 39 38  1  0  0  0  0
 40 41  1  0  0  0  0
 41 37  1  0  0  0  0
 42 52  1  6  0  0  0
 42 48  1  0  0  0  0
 42 32  1  0  0  0  0
 43 47  1  0  0  0  0
 44 47  1  0  0  0  0
 45 46  1  0  0  0  0
 45 48  1  0  0  0  0
 46 44  1  0  0  0  0
 48 43  1  0  0  0  0
 49 45  2  0  0  0  0
 50 52  2  0  0  0  0
 51 52  1  0  0  0  0
 53 55  1  6  0  0  0
 53 51  1  0  0  0  0
 54 53  1  0  0  0  0
M  END
>  <MODEL>
7

>  <REMARK>
 VINA RESULT:      -5.0      3.208      6.485
  Name = 
  25 active torsions:
  status: ('A' for Active; 'I' for Inactive)
    1  A    between atoms: C_1  and  C_29
    2  A    between atoms: C_2  and  C_28
    3  A    between atoms: C_2  and  C_31
    4  A    between atoms: C_3  and  S_25
    5  A    between atoms: C_3  and  C_38
    6  A    between atoms: C_4  and  N_40
    7  A    between atoms: C_6  and  C_14
    8  A    between atoms: C_6  and  C_20
    9  A    between atoms: C_6  and  C_53
   10  A    between atoms: O_7  and  C_20
   11  A    between atoms: O_7  and  C_22
   12  A    between atoms: C_13  and  C_48
   13  A    between atoms: C_14  and  C_38
   14  A    between atoms: O_21  and  C_29
   15  A    between atoms: O_21  and  C_38
   16  A    between atoms: N_26  and  C_49
   17  A    between atoms: C_27  and  C_31
   18  A    between atoms: C_27  and  C_54
   19  A    between atoms: C_28  and  C_33
   20  A    between atoms: C_33  and  C_49
   21  A    between atoms: C_33  and  N_52
   22  A    between atoms: N_35  and  C_51
   23  A    between atoms: C_39  and  C_48
   24  A    between atoms: C_45  and  C_49
   25  A    between atoms: C_51  and  C_54
                            x       y       z     vdW  Elec       q    Type
                         _______ _______ _______ _____ _____    ______ ____

>  <TORSDO>
F 25

$$$$
=
 OpenBabel11052419503D

 55 58  0  0  1  0  0  0  0  0999 V2000
  187.8620  177.5360  146.4950 C   0  0  0  0  0  2  0  0  0  0  0  0
  189.3260  176.0470  146.4710 C   0  0  2  0  0  0  0  0  0  0  0  0
  187.3020  175.8240  147.8940 O   0  0  0  0  0  1  0  0  0  0  0  0
  189.3560  177.5800  146.3340 C   0  0  0  0  0  2  0  0  0  0  0  0
  187.7850  176.0340  146.5820 C   0  0  1  0  0  3  0  0  0  0  0  0
  190.1410  175.1570  147.5140 C   0  0  0  0  0  2  0  0  0  0  0  0
  191.4760  175.8240  148.0200 C   0  0  0  0  0  2  0  0  0  0  0  0
  192.5440  175.4710  146.9400 C   0  0  0  0  0  2  0  0  0  0  0  0
  194.5510  176.1020  146.1480 O   0  0  0  0  0  0  0  0  0  0  0  0
  194.5060  175.5210  144.8600 C   0  0  1  0  0  3  0  0  0  0  0  0
  193.2160  176.4470  146.0960 N   0  0  0  0  0  0  0  0  0  0  0  0
  193.0730  175.9540  144.7470 C   0  0  0  0  0  2  0  0  0  0  0  0
  195.3450  176.2510  143.9660 O   0  0  0  0  0  0  0  0  0  0  0  0
  196.3870  175.5180  143.3340 C   0  0  0  0  0  0  0  0  0  0  0  0
  197.5480  175.7750  143.6520 O   0  0  0  0  0  0  0  0  0  0  0  0
  196.1400  174.4400  142.2620 C   0  0  2  0  0  3  0  0  0  0  0  0
  196.7460  172.1400  142.0570 O   0  0  0  0  0  1  0  0  0  0  0  0
  197.2830  173.4270  142.0890 C   0  0  0  0  0  2  0  0  0  0  0  0
  194.5400  175.8160  141.0340 O   0  0  0  0  0  1  0  0  0  0  0  0
  195.7860  175.1760  140.9490 C   0  0  2  0  0  3  0  0  0  0  0  0
  195.8680  174.3680  139.6370 C   0  0  1  0  0  3  0  0  0  0  0  0
  194.8710  173.3700  139.5020 O   0  0  0  0  0  0  0  0  0  0  0  0
  195.1460  172.5790  138.3720 C   0  0  0  0  0  2  0  0  0  0  0  0
  194.3890  171.3140  138.3840 C   0  0  0  0  0  0  0  0  0  0  0  0
  194.1050  170.6580  139.5830 O   0  0  0  0  0  1  0  0  0  0  0  0
  193.9440  170.8440  137.3050 O   0  0  0  0  0  0  0  0  0  0  0  0
  196.2230  175.2510  138.3610 C   0  0  0  0  0  2  0  0  0  0  0  0
  197.5800  175.1180  135.9330 C   0  0  0  0  0  1  0  0  0  0  0  0
  197.9290  175.0650  137.7190 S   0  0  0  0  0  0  0  0  0  0  0  0
  189.5520  175.4620  145.0840 C   0  0  0  0  0  2  0  0  0  0  0  0
  189.7330  173.9150  145.1400 C   0  0  0  0  0  2  0  0  0  0  0  0
  189.8640  173.0580  143.7250 C   0  0  2  0  0  3  0  0  0  0  0  0
  192.4050  171.7960  143.8280 C   0  0  0  0  0  0  0  0  0  0  0  0
  193.1270  172.6830  143.1990 O   0  0  0  0  0  0  0  0  0  0  0  0
  190.9620  172.0740  144.0050 N   0  0  0  0  0  2  0  0  0  0  0  0
  192.9330  170.3840  144.3190 C   0  0  0  0  0  2  0  0  0  0  0  0
  195.2710  168.5350  145.9980 O   0  0  0  0  0  0  0  0  0  0  0  0
  195.7220  168.5290  144.7410 O   0  0  0  0  0  0  0  0  0  0  0  0
  195.2930  169.7240  144.1400 C   0  0  0  0  0  2  0  0  0  0  0  0
  194.2440  170.3650  145.0270 C   0  0  0  0  0  3  0  0  0  0  0  0
  194.0660  169.2590  145.9590 C   0  0  0  0  0  2  0  0  0  0  0  0
  190.1330  173.8740  142.3160 C   0  0  1  0  0  3  0  0  0  0  0  0
  191.5100  173.3510  140.2830 N   0  0  0  0  0  2  0  0  0  0  0  0
  190.6850  171.9120  138.4890 C   0  0  0  0  0  2  0  0  0  0  0  0
  189.1730  172.3280  140.4050 C   0  0  0  0  0  0  0  0  0  0  0  0
  189.2710  171.6830  139.0370 C   0  0  0  0  0  2  0  0  0  0  0  0
  191.1880  173.2990  138.8590 C   0  0  0  0  0  2  0  0  0  0  0  0
  190.2580  173.0980  141.0500 N   0  0  0  0  0  0  0  0  0  0  0  0
  187.9310  172.4940  140.7580 O   0  0  0  0  0  0  0  0  0  0  0  0
  189.9110  176.1050  141.8320 O   0  0  0  0  0  0  0  0  0  0  0  0
  187.7460  175.0600  142.2970 N   0  0  0  0  0  2  0  0  0  0  0  0
  189.2300  175.0640  142.1280 C   0  0  0  0  0  0  0  0  0  0  0  0
  187.1800  176.3740  142.1180 C   0  0  1  0  0  3  0  0  0  0  0  0
  186.9480  176.6670  140.7820 O   0  0  0  0  0  1  0  0  0  0  0  0
  186.0660  176.6800  143.0420 C   0  0  0  0  0  1  0  0  0  0  0  0
  1  5  1  0  0  0  0
  2 30  1  6  0  0  0
  2  5  1  0  0  0  0
  2  6  1  0  0  0  0
  4  2  1  0  0  0  0
  4  1  1  0  0  0  0
  5  3  1  1  0  0  0
  6  7  1  0  0  0  0
  8  7  1  0  0  0  0
 10 13  1  6  0  0  0
 10  9  1  0  0  0  0
 11  9  1  0  0  0  0
 11  8  1  0  0  0  0
 12 10  1  0  0  0  0
 12 11  1  0  0  0  0
 14 15  2  0  0  0  0
 14 13  1  0  0  0  0
 16 18  1  6  0  0  0
 16 14  1  0  0  0  0
 17 18  1  0  0  0  0
 20 19  1  1  0  0  0
 20 16  1  0  0  0  0
 21 27  1  6  0  0  0
 21 20  1  0  0  0  0
 22 21  1  0  0  0  0
 23 24  1  0  0  0  0
 23 22  1  0  0  0  0
 24 25  1  0  0  0  0
 26 24  2  0  0  0  0
 28 29  1  0  0  0  0
 29 27  1  0  0  0  0
 30 31  1  0  0  0  0
 32 35  1  0  0  0  0
 32 31  1  1  0  0  0
 33 35  1  0  0  0  0
 33 36  1  0  0  0  0
 34 33  2  0  0  0  0
 36 40  1  0  0  0  0
 38 37  1  0  0  0  0
 39 38  1  0  0  0  0
 39 40  1  0  0  0  0
 40 41  1  0  0  0  0
 41 37  1  0  0  0  0
 42 52  1  6  0  0  0
 42 32  1  0  0  0  0
 43 48  1  0  0  0  0
 44 47  1  0  0  0  0
 44 46  1  0  0  0  0
 45 49  2  0  0  0  0
 45 48  1  0  0  0  0
 46 45  1  0  0  0  0
 47 43  1  0  0  0  0
 48 42  1  0  0  0  0
 50 52  2  0  0  0  0
 52 51  1  0  0  0  0
 53 51  1  0  0  0  0
 53 55  1  1  0  0  0
 54 53  1  0  0  0  0
M  END
>  <MODEL>
8

>  <REMARK>
 VINA RESULT:      -4.9      3.341      7.412
  Name = 
  25 active torsions:
  status: ('A' for Active; 'I' for Inactive)
    1  A    between atoms: C_1  and  C_29
    2  A    between atoms: C_2  and  C_28
    3  A    between atoms: C_2  and  C_31
    4  A    between atoms: C_3  and  S_25
    5  A    between atoms: C_3  and  C_38
    6  A    between atoms: C_4  and  N_40
    7  A    between atoms: C_6  and  C_14
    8  A    between atoms: C_6  and  C_20
    9  A    between atoms: C_6  and  C_53
   10  A    between atoms: O_7  and  C_20
   11  A    between atoms: O_7  and  C_22
   12  A    between atoms: C_13  and  C_48
   13  A    between atoms: C_14  and  C_38
   14  A    between atoms: O_21  and  C_29
   15  A    between atoms: O_21  and  C_38
   16  A    between atoms: N_26  and  C_49
   17  A    between atoms: C_27  and  C_31
   18  A    between atoms: C_27  and  C_54
   19  A    between atoms: C_28  and  C_33
   20  A    between atoms: C_33  and  C_49
   21  A    between atoms: C_33  and  N_52
   22  A    between atoms: N_35  and  C_51
   23  A    between atoms: C_39  and  C_48
   24  A    between atoms: C_45  and  C_49
   25  A    between atoms: C_51  and  C_54
                            x       y       z     vdW  Elec       q    Type
                         _______ _______ _______ _____ _____    ______ ____

>  <TORSDO>
F 25

$$$$
=
 OpenBabel11052419503D

 55 58  0  0  1  0  0  0  0  0999 V2000
  184.7140  178.4640  147.1680 C   0  0  0  0  0  2  0  0  0  0  0  0
  186.3700  177.9670  145.9970 C   0  0  2  0  0  0  0  0  0  0  0  0
  185.9170  176.7870  148.1360 O   0  0  0  0  0  1  0  0  0  0  0  0
  185.6140  179.2790  146.2820 C   0  0  0  0  0  2  0  0  0  0  0  0
  185.3940  177.1530  146.8740 C   0  0  1  0  0  3  0  0  0  0  0  0
  187.9300  177.6920  146.1920 C   0  0  0  0  0  2  0  0  0  0  0  0
  188.3190  176.1650  146.1670 C   0  0  0  0  0  2  0  0  0  0  0  0
  189.3270  175.9810  147.3430 C   0  0  0  0  0  2  0  0  0  0  0  0
  190.7930  174.7240  146.1910 O   0  0  0  0  0  0  0  0  0  0  0  0
  192.0050  175.3470  146.5660 C   0  0  1  0  0  3  0  0  0  0  0  0
  190.2640  174.8740  147.4580 N   0  0  0  0  0  0  0  0  0  0  0  0
  191.4830  175.4520  147.9700 C   0  0  0  0  0  2  0  0  0  0  0  0
  193.0800  174.4140  146.4760 O   0  0  0  0  0  0  0  0  0  0  0  0
  194.1140  174.7260  145.5500 C   0  0  0  0  0  0  0  0  0  0  0  0
  193.9910  175.7430  144.8680 O   0  0  0  0  0  0  0  0  0  0  0  0
  195.3640  173.8470  145.3420 C   0  0  2  0  0  3  0  0  0  0  0  0
  197.7410  173.7740  145.1340 O   0  0  0  0  0  1  0  0  0  0  0  0
  196.6420  174.6200  144.9800 C   0  0  0  0  0  2  0  0  0  0  0  0
  194.8360  173.3280  143.0150 O   0  0  0  0  0  1  0  0  0  0  0  0
  194.9950  172.7720  144.2940 C   0  0  2  0  0  3  0  0  0  0  0  0
  193.8000  171.8500  144.6130 C   0  0  1  0  0  3  0  0  0  0  0  0
  192.9270  171.6260  143.5200 O   0  0  0  0  0  0  0  0  0  0  0  0
  191.8700  172.5530  143.5640 C   0  0  0  0  0  2  0  0  0  0  0  0
  190.5530  171.8960  143.4770 C   0  0  0  0  0  0  0  0  0  0  0  0
  190.2160  171.1040  142.3780 O   0  0  0  0  0  0  0  0  0  0  0  0
  189.7380  172.0040  144.4300 O   0  0  0  0  0  1  0  0  0  0  0  0
  194.1770  170.6100  145.5390 C   0  0  0  0  0  2  0  0  0  0  0  0
  192.8440  168.8190  143.8750 C   0  0  0  0  0  1  0  0  0  0  0  0
  194.4710  169.0280  144.6640 S   0  0  0  0  0  0  0  0  0  0  0  0
  185.9900  177.5190  144.5940 C   0  0  0  0  0  2  0  0  0  0  0  0
  186.0980  178.6900  143.5720 C   0  0  0  0  0  2  0  0  0  0  0  0
  186.2640  178.3490  141.9560 C   0  0  2  0  0  3  0  0  0  0  0  0
  183.4260  178.3430  141.8640 C   0  0  0  0  0  0  0  0  0  0  0  0
  183.1550  178.6630  143.1000 O   0  0  0  0  0  0  0  0  0  0  0  0
  184.8480  178.2350  141.4690 N   0  0  0  0  0  2  0  0  0  0  0  0
  182.3440  177.9440  140.7750 C   0  0  0  0  0  2  0  0  0  0  0  0
  179.5150  179.8650  140.8630 O   0  0  0  0  0  0  0  0  0  0  0  0
  179.3560  179.1380  139.7540 O   0  0  0  0  0  0  0  0  0  0  0  0
  180.0280  177.9210  139.9550 C   0  0  0  0  0  2  0  0  0  0  0  0
  180.9130  178.0520  141.1800 C   0  0  0  0  0  3  0  0  0  0  0  0
  180.7660  179.4870  141.3820 C   0  0  0  0  0  2  0  0  0  0  0  0
  187.1620  177.0410  141.5010 C   0  0  1  0  0  3  0  0  0  0  0  0
  186.3400  177.4980  139.1740 N   0  0  0  0  0  2  0  0  0  0  0  0
  186.8730  176.0310  137.2940 C   0  0  0  0  0  2  0  0  0  0  0  0
  187.7580  175.4020  139.5200 C   0  0  0  0  0  0  0  0  0  0  0  0
  187.6280  174.9500  138.0790 C   0  0  0  0  0  2  0  0  0  0  0  0
  185.7660  176.6380  138.1420 C   0  0  0  0  0  2  0  0  0  0  0  0
  187.1870  176.6530  140.0630 N   0  0  0  0  0  0  0  0  0  0  0  0
  188.0470  174.4020  140.3030 O   0  0  0  0  0  0  0  0  0  0  0  0
  189.2150  178.0480  141.6760 O   0  0  0  0  0  0  0  0  0  0  0  0
  189.1090  175.9800  142.9810 N   0  0  0  0  0  2  0  0  0  0  0  0
  188.5510  177.0340  142.0830 C   0  0  0  0  0  0  0  0  0  0  0  0
  190.4920  176.2260  143.3050 C   0  0  1  0  0  3  0  0  0  0  0  0
  191.3460  175.8410  142.2820 O   0  0  0  0  0  1  0  0  0  0  0  0
  190.7460  177.5660  143.8800 C   0  0  0  0  0  1  0  0  0  0  0  0
  2 30  1  6  0  0  0
  2  6  1  0  0  0  0
  2  4  1  0  0  0  0
  2  5  1  0  0  0  0
  4  1  1  0  0  0  0
  5  1  1  0  0  0  0
  5  3  1  1  0  0  0
  7  6  1  0  0  0  0
  7  8  1  0  0  0  0
  8 11  1  0  0  0  0
  9 10  1  0  0  0  0
  9 11  1  0  0  0  0
 10 13  1  1  0  0  0
 10 12  1  0  0  0  0
 11 12  1  0  0  0  0
 14 13  1  0  0  0  0
 15 14  2  0  0  0  0
 16 18  1  6  0  0  0
 16 14  1  0  0  0  0
 18 17  1  0  0  0  0
 20 19  1  6  0  0  0
 20 21  1  0  0  0  0
 20 16  1  0  0  0  0
 21 27  1  6  0  0  0
 22 23  1  0  0  0  0
 22 21  1  0  0  0  0
 24 23  1  0  0  0  0
 24 26  1  0  0  0  0
 25 24  2  0  0  0  0
 28 29  1  0  0  0  0
 29 27  1  0  0  0  0
 31 30  1  0  0  0  0
 32 31  1  1  0  0  0
 33 34  2  0  0  0  0
 35 33  1  0  0  0  0
 35 32  1  0  0  0  0
 36 40  1  0  0  0  0
 36 33  1  0  0  0  0
 37 41  1  0  0  0  0
 38 39  1  0  0  0  0
 38 37  1  0  0  0  0
 39 40  1  0  0  0  0
 40 41  1  0  0  0  0
 42 32  1  0  0  0  0
 42 52  1  6  0  0  0
 43 48  1  0  0  0  0
 44 46  1  0  0  0  0
 44 47  1  0  0  0  0
 45 48  1  0  0  0  0
 45 49  2  0  0  0  0
 46 45  1  0  0  0  0
 47 43  1  0  0  0  0
 48 42  1  0  0  0  0
 50 52  2  0  0  0  0
 51 53  1  0  0  0  0
 52 51  1  0  0  0  0
 53 55  1  6  0  0  0
 54 53  1  0  0  0  0
M  END
>  <MODEL>
9

>  <REMARK>
 VINA RESULT:      -4.8      1.556      2.233
  Name = 
  25 active torsions:
  status: ('A' for Active; 'I' for Inactive)
    1  A    between atoms: C_1  and  C_29
    2  A    between atoms: C_2  and  C_28
    3  A    between atoms: C_2  and  C_31
    4  A    between atoms: C_3  and  S_25
    5  A    between atoms: C_3  and  C_38
    6  A    between atoms: C_4  and  N_40
    7  A    between atoms: C_6  and  C_14
    8  A    between atoms: C_6  and  C_20
    9  A    between atoms: C_6  and  C_53
   10  A    between atoms: O_7  and  C_20
   11  A    between atoms: O_7  and  C_22
   12  A    between atoms: C_13  and  C_48
   13  A    between atoms: C_14  and  C_38
   14  A    between atoms: O_21  and  C_29
   15  A    between atoms: O_21  and  C_38
   16  A    between atoms: N_26  and  C_49
   17  A    between atoms: C_27  and  C_31
   18  A    between atoms: C_27  and  C_54
   19  A    between atoms: C_28  and  C_33
   20  A    between atoms: C_33  and  C_49
   21  A    between atoms: C_33  and  N_52
   22  A    between atoms: N_35  and  C_51
   23  A    between atoms: C_39  and  C_48
   24  A    between atoms: C_45  and  C_49
   25  A    between atoms: C_51  and  C_54
                            x       y       z     vdW  Elec       q    Type
                         _______ _______ _______ _____ _____    ______ ____

>  <TORSDO>
F 25

$$$$
