=
 OpenBabel11052421383D

 32 38  0  0  1  0  0  0  0  0999 V2000
  193.2430  175.8920  146.8270 C   0  0  1  0  0  3  0  0  0  0  0  0
  188.7510  177.2620  144.5080 C   0  0  0  0  0  0  0  0  0  0  0  0
  185.8640  178.9470  148.1810 C   0  0  0  0  0  2  0  0  0  0  0  0
  184.6580  178.4550  147.4020 C   0  0  0  0  0  2  0  0  0  0  0  0
  187.7730  177.1510  142.1380 C   0  0  0  0  0  0  0  0  0  0  0  0
  186.7900  177.5310  141.3060 C   0  0  0  0  0  0  0  0  0  0  0  0
  191.2310  176.9870  144.9710 C   0  0  1  0  0  3  0  0  0  0  0  0
  189.6870  177.3580  146.8800 C   0  0  0  0  0  2  0  0  0  0  0  0
  184.4550  177.8260  139.7270 C   0  0  0  0  0  3  0  0  0  0  0  0
  192.0150  176.6420  147.3390 C   0  0  0  0  0  2  0  0  0  0  0  0
  187.0640  178.0700  147.8530 C   0  0  0  0  0  2  0  0  0  0  0  0
  188.5450  177.4800  145.8950 C   0  0  0  0  0  0  0  0  0  0  0  0
  187.2910  177.9160  146.3650 C   0  0  0  0  0  0  0  0  0  0  0  0
  186.4410  177.9250  144.0870 C   0  0  0  0  0  0  0  0  0  0  0  0
  185.7110  177.3270  139.1310 C   0  0  0  0  0  3  0  0  0  0  0  0
  192.9890  174.5290  146.8030 F   0  0  0  0  0  0  0  0  0  0  0  0
  190.8410  176.5080  146.3690 C   0  0  2  0  0  3  0  0  0  0  0  0
  186.8100  177.1730  139.8740 C   0  0  0  0  0  3  0  0  0  0  0  0
  192.4590  176.2340  144.4650 C   0  0  0  0  0  2  0  0  0  0  0  0
  193.6270  176.4040  145.4380 C   0  0  2  0  0  3  0  0  0  0  0  0
  184.9030  178.6690  145.9140 C   0  0  0  0  0  2  0  0  0  0  0  0
  186.2310  178.1170  145.4560 C   0  0  0  0  0  0  0  0  0  0  0  0
  185.4020  178.1820  143.1850 O   0  0  0  0  0  0  0  0  0  0  0  0
  190.0750  176.7240  144.0190 C   0  0  0  0  0  2  0  0  0  0  0  0
  188.8410  176.4170  141.6270 O   0  0  0  0  0  1  0  0  0  0  0  0
  184.4190  178.2890  140.9820 C   0  0  0  0  0  3  0  0  0  0  0  0
  187.6820  177.4620  143.6000 C   0  0  0  0  0  0  0  0  0  0  0  0
  185.6720  178.4150  141.8060 C   0  0  2  0  0  3  0  0  0  0  0  0
  194.8640  175.6810  144.9280 C   0  0  0  0  0  2  0  0  0  0  0  0
  195.0900  175.9830  143.4580 C   0  0  0  0  0  3  0  0  0  0  0  0
  196.2490  175.1490  142.9530 C   0  0  0  0  0  2  0  0  0  0  0  0
  196.4580  176.6100  143.2890 C   0  0  0  0  0  2  0  0  0  0  0  0
  1 16  1  6  0  0  0
  1 10  1  0  0  0  0
  2 12  1  0  0  0  0
  4  3  1  0  0  0  0
  5 27  1  0  0  0  0
  6 28  1  0  0  0  0
  6  5  2  0  0  0  0
  7 24  1  6  0  0  0
  7 17  1  0  0  0  0
  9 26  2  0  0  0  0
 11  3  1  0  0  0  0
 12 13  2  0  0  0  0
 12  8  1  0  0  0  0
 13 11  1  0  0  0  0
 14 22  2  0  0  0  0
 15  9  1  0  0  0  0
 15 18  2  0  0  0  0
 17  8  1  1  0  0  0
 17 10  1  0  0  0  0
 18  6  1  0  0  0  0
 19  7  1  0  0  0  0
 19 20  1  0  0  0  0
 20 29  1  6  0  0  0
 20  1  1  0  0  0  0
 21  4  1  0  0  0  0
 22 21  1  0  0  0  0
 22 13  1  0  0  0  0
 23 14  1  0  0  0  0
 24  2  1  0  0  0  0
 25  5  1  0  0  0  0
 27 14  1  0  0  0  0
 27  2  2  0  0  0  0
 28 26  1  6  0  0  0
 28 23  1  0  0  0  0
 30 29  1  0  0  0  0
 31 32  1  0  0  0  0
 31 30  1  0  0  0  0
 32 30  1  0  0  0  0
M  END
>  <MODEL>
1

>  <REMARK>
 VINA RESULT:      -9.2      0.000      0.000
  Name = 
  2 active torsions:
  status: ('A' for Active; 'I' for Inactive)
    1  A    between atoms: C_1  and  C_10
    2  A    between atoms: C_10  and  C_24
                            x       y       z     vdW  Elec       q    Type
                         _______ _______ _______ _____ _____    ______ ____

>  <TORSDO>
F 2

$$$$
=
 OpenBabel11052421383D

 32 38  0  0  1  0  0  0  0  0999 V2000
  190.5780  172.3020  139.5700 C   0  0  1  0  0  3  0  0  0  0  0  0
  188.8610  175.3200  143.4890 C   0  0  0  0  0  0  0  0  0  0  0  0
  192.4860  175.2160  146.8830 C   0  0  0  0  0  2  0  0  0  0  0  0
  191.4280  175.3880  147.9560 C   0  0  0  0  0  2  0  0  0  0  0  0
  186.7140  176.6170  144.0350 C   0  0  0  0  0  0  0  0  0  0  0  0
  186.1120  177.5160  144.8300 C   0  0  0  0  0  0  0  0  0  0  0  0
  189.3910  174.4870  141.1510 C   0  0  1  0  0  3  0  0  0  0  0  0
  190.9960  174.0160  142.9870 C   0  0  0  0  0  2  0  0  0  0  0  0
  184.6830  178.9330  146.8260 C   0  0  0  0  0  3  0  0  0  0  0  0
  191.2650  172.8380  140.8240 C   0  0  0  0  0  2  0  0  0  0  0  0
  191.8790  174.4800  145.6960 C   0  0  0  0  0  2  0  0  0  0  0  0
  190.1080  174.8020  143.9270 C   0  0  0  0  0  0  0  0  0  0  0  0
  190.5860  175.1020  145.2170 C   0  0  0  0  0  0  0  0  0  0  0  0
  188.5960  176.4320  145.6450 C   0  0  0  0  0  0  0  0  0  0  0  0
  184.0650  178.6460  145.5150 C   0  0  0  0  0  3  0  0  0  0  0  0
  189.7880  171.2090  139.8940 F   0  0  0  0  0  0  0  0  0  0  0  0
  190.2470  173.4070  141.8120 C   0  0  2  0  0  3  0  0  0  0  0  0
  184.7300  177.9670  144.5760 C   0  0  0  0  0  3  0  0  0  0  0  0
  188.7080  173.9450  139.8990 C   0  0  0  0  0  2  0  0  0  0  0  0
  189.7470  173.4070  138.9150 C   0  0  2  0  0  3  0  0  0  0  0  0
  190.3360  176.3160  147.4390 C   0  0  0  0  0  2  0  0  0  0  0  0
  189.8140  175.9020  146.0840 C   0  0  0  0  0  0  0  0  0  0  0  0
  187.8630  177.2730  146.4910 O   0  0  0  0  0  0  0  0  0  0  0  0
  188.3200  174.9360  142.1330 C   0  0  0  0  0  2  0  0  0  0  0  0
  186.0180  176.1170  142.9370 O   0  0  0  0  0  1  0  0  0  0  0  0
  185.9730  178.6650  147.0570 C   0  0  0  0  0  3  0  0  0  0  0  0
  188.0880  176.1200  144.3670 C   0  0  0  0  0  0  0  0  0  0  0  0
  186.8750  178.1550  145.9660 C   0  0  2  0  0  3  0  0  0  0  0  0
  189.0780  172.8900  137.6510 C   0  0  0  0  0  2  0  0  0  0  0  0
  190.1060  172.2900  136.7110 C   0  0  0  0  0  3  0  0  0  0  0  0
  189.4290  171.9210  135.4060 C   0  0  0  0  0  2  0  0  0  0  0  0
  189.7340  170.8490  136.4300 C   0  0  0  0  0  2  0  0  0  0  0  0
  1 16  1  1  0  0  0
  1 10  1  0  0  0  0
  2 12  2  0  0  0  0
  2 27  1  0  0  0  0
  3  4  1  0  0  0  0
  5 27  1  0  0  0  0
  5  6  2  0  0  0  0
  6 28  1  0  0  0  0
  7 19  1  6  0  0  0
  7 17  1  0  0  0  0
  7 24  1  0  0  0  0
  8 12  1  0  0  0  0
  9 26  2  0  0  0  0
 11  3  1  0  0  0  0
 12 13  1  0  0  0  0
 13 11  1  0  0  0  0
 13 22  2  0  0  0  0
 14 22  1  0  0  0  0
 14 23  1  0  0  0  0
 15  9  1  0  0  0  0
 17 10  1  6  0  0  0
 17  8  1  0  0  0  0
 18  6  1  0  0  0  0
 18 15  2  0  0  0  0
 20 29  1  6  0  0  0
 20  1  1  0  0  0  0
 20 19  1  0  0  0  0
 21  4  1  0  0  0  0
 22 21  1  0  0  0  0
 24  2  1  0  0  0  0
 25  5  1  0  0  0  0
 27 14  2  0  0  0  0
 28 23  1  0  0  0  0
 28 26  1  1  0  0  0
 30 29  1  0  0  0  0
 31 32  1  0  0  0  0
 31 30  1  0  0  0  0
 32 30  1  0  0  0  0
M  END
>  <MODEL>
2

>  <REMARK>
 VINA RESULT:      -9.2      3.773      6.387
  Name = 
  2 active torsions:
  status: ('A' for Active; 'I' for Inactive)
    1  A    between atoms: C_1  and  C_10
    2  A    between atoms: C_10  and  C_24
                            x       y       z     vdW  Elec       q    Type
                         _______ _______ _______ _____ _____    ______ ____

>  <TORSDO>
F 2

$$$$
=
 OpenBabel11052421383D

 32 38  0  0  1  0  0  0  0  0999 V2000
  184.9920  179.3950  144.6010 C   0  0  1  0  0  3  0  0  0  0  0  0
  188.5720  175.6650  143.7670 C   0  0  0  0  0  0  0  0  0  0  0  0
  191.5110  175.7790  147.7700 C   0  0  0  0  0  2  0  0  0  0  0  0
  192.6580  175.3230  146.8880 C   0  0  0  0  0  2  0  0  0  0  0  0
  189.1520  174.0340  141.8720 C   0  0  0  0  0  0  0  0  0  0  0  0
  189.8630  172.9620  141.4860 C   0  0  0  0  0  0  0  0  0  0  0  0
  186.3450  176.8750  143.8880 C   0  0  1  0  0  3  0  0  0  0  0  0
  188.0380  177.2970  145.6550 C   0  0  0  0  0  2  0  0  0  0  0  0
  191.7670  171.1090  140.5010 C   0  0  0  0  0  3  0  0  0  0  0  0
  186.0640  178.7860  145.5030 C   0  0  0  0  0  2  0  0  0  0  0  0
  190.5270  176.5850  146.9330 C   0  0  0  0  0  2  0  0  0  0  0  0
  188.9400  176.2780  144.9930 C   0  0  0  0  0  0  0  0  0  0  0  0
  190.1070  175.8700  145.6670 C   0  0  0  0  0  0  0  0  0  0  0  0
  190.5490  174.2430  143.9150 C   0  0  0  0  0  0  0  0  0  0  0  0
  190.5940  171.4890  139.6890 C   0  0  0  0  0  3  0  0  0  0  0  0
  185.5660  180.3190  143.7410 F   0  0  0  0  0  0  0  0  0  0  0  0
  187.0620  177.9580  144.6940 C   0  0  2  0  0  3  0  0  0  0  0  0
  189.7010  172.3720  140.1430 C   0  0  0  0  0  3  0  0  0  0  0  0
  185.2750  177.4900  142.9890 C   0  0  0  0  0  2  0  0  0  0  0  0
  184.2740  178.2910  143.8230 C   0  0  2  0  0  3  0  0  0  0  0  0
  192.1320  174.3390  145.8510 C   0  0  0  0  0  2  0  0  0  0  0  0
  190.9240  174.8630  145.1120 C   0  0  0  0  0  0  0  0  0  0  0  0
  191.3330  173.2030  143.4000 O   0  0  0  0  0  0  0  0  0  0  0  0
  187.3610  176.1580  143.0130 C   0  0  0  0  0  2  0  0  0  0  0  0
  188.2300  174.5850  140.9860 O   0  0  0  0  0  1  0  0  0  0  0  0
  191.8900  171.5100  141.7720 C   0  0  0  0  0  3  0  0  0  0  0  0
  189.3990  174.6570  143.2120 C   0  0  0  0  0  0  0  0  0  0  0  0
  190.7950  172.2800  142.4590 C   0  0  2  0  0  3  0  0  0  0  0  0
  183.1880  178.8830  142.9390 C   0  0  0  0  0  2  0  0  0  0  0  0
  182.8160  177.9160  141.8310 C   0  0  0  0  0  3  0  0  0  0  0  0
  182.7720  178.6640  140.5130 C   0  0  0  0  0  2  0  0  0  0  0  0
  181.4860  178.3330  141.2390 C   0  0  0  0  0  2  0  0  0  0  0  0
  1 16  1  6  0  0  0
  1 10  1  0  0  0  0
  2 12  1  0  0  0  0
  4  3  1  0  0  0  0
  5 27  1  0  0  0  0
  6  5  2  0  0  0  0
  6 28  1  0  0  0  0
  7 19  1  6  0  0  0
  7 17  1  0  0  0  0
  9 26  2  0  0  0  0
 11  3  1  0  0  0  0
 12  8  1  0  0  0  0
 12 13  2  0  0  0  0
 13 11  1  0  0  0  0
 14 22  2  0  0  0  0
 15 18  2  0  0  0  0
 15  9  1  0  0  0  0
 17 10  1  1  0  0  0
 17  8  1  0  0  0  0
 18  6  1  0  0  0  0
 19 20  1  0  0  0  0
 20 29  1  6  0  0  0
 20  1  1  0  0  0  0
 21  4  1  0  0  0  0
 22 13  1  0  0  0  0
 22 21  1  0  0  0  0
 23 14  1  0  0  0  0
 24  2  1  0  0  0  0
 24  7  1  0  0  0  0
 25  5  1  0  0  0  0
 27  2  2  0  0  0  0
 27 14  1  0  0  0  0
 28 26  1  6  0  0  0
 28 23  1  0  0  0  0
 30 29  1  0  0  0  0
 31 32  1  0  0  0  0
 31 30  1  0  0  0  0
 32 30  1  0  0  0  0
M  END
>  <MODEL>
3

>  <REMARK>
 VINA RESULT:      -8.9      3.488      7.762
  Name = 
  2 active torsions:
  status: ('A' for Active; 'I' for Inactive)
    1  A    between atoms: C_1  and  C_10
    2  A    between atoms: C_10  and  C_24
                            x       y       z     vdW  Elec       q    Type
                         _______ _______ _______ _____ _____    ______ ____

>  <TORSDO>
F 2

$$$$
=
 OpenBabel11052421383D

 32 38  0  0  1  0  0  0  0  0999 V2000
  185.6500  177.3140  143.4560 C   0  0  1  0  0  3  0  0  0  0  0  0
  190.4240  175.1980  143.0570 C   0  0  0  0  0  0  0  0  0  0  0  0
  190.3340  172.5960  138.8270 C   0  0  0  0  0  2  0  0  0  0  0  0
  191.3300  171.6340  139.4470 C   0  0  0  0  0  2  0  0  0  0  0  0
  192.5520  175.1230  144.4910 C   0  0  0  0  0  0  0  0  0  0  0  0
  193.8550  174.8060  144.5590 C   0  0  0  0  0  0  0  0  0  0  0  0
  188.5660  176.8770  143.4650 C   0  0  1  0  0  3  0  0  0  0  0  0
  188.3130  175.2290  141.6230 C   0  0  0  0  0  2  0  0  0  0  0  0
  196.4010  173.6100  144.8990 C   0  0  0  0  0  3  0  0  0  0  0  0
  186.3440  176.5610  142.3220 C   0  0  0  0  0  2  0  0  0  0  0  0
  189.4720  173.2010  139.9270 C   0  0  0  0  0  2  0  0  0  0  0  0
  189.6940  174.7010  141.9460 C   0  0  0  0  0  0  0  0  0  0  0  0
  190.2890  173.7800  141.0620 C   0  0  0  0  0  0  0  0  0  0  0  0
  192.3340  173.8400  142.3760 C   0  0  0  0  0  0  0  0  0  0  0  0
  195.8630  174.5410  145.9120 C   0  0  0  0  0  3  0  0  0  0  0  0
  185.1920  176.4160  144.4080 F   0  0  0  0  0  0  0  0  0  0  0  0
  187.6160  175.8710  142.8140 C   0  0  2  0  0  3  0  0  0  0  0  0
  194.6570  175.0960  145.7630 C   0  0  0  0  0  3  0  0  0  0  0  0
  187.8660  177.6250  144.5960 C   0  0  0  0  0  2  0  0  0  0  0  0
  186.6130  178.3290  144.0750 C   0  0  2  0  0  3  0  0  0  0  0  0
  192.3040  172.4160  140.3190 C   0  0  0  0  0  2  0  0  0  0  0  0
  191.6060  173.3330  141.2940 C   0  0  0  0  0  0  0  0  0  0  0  0
  193.6610  173.4370  142.5660 O   0  0  0  0  0  0  0  0  0  0  0  0
  189.7570  176.1280  144.0410 C   0  0  0  0  0  2  0  0  0  0  0  0
  191.9560  175.7560  145.5800 O   0  0  0  0  0  1  0  0  0  0  0  0
  195.7750  173.4180  143.7320 C   0  0  0  0  0  3  0  0  0  0  0  0
  191.7460  174.7420  143.2870 C   0  0  0  0  0  0  0  0  0  0  0  0
  194.5540  174.2130  143.3580 C   0  0  2  0  0  3  0  0  0  0  0  0
  185.9250  179.1010  145.1900 C   0  0  0  0  0  2  0  0  0  0  0  0
  186.1280  178.4060  146.5240 C   0  0  0  0  0  3  0  0  0  0  0  0
  184.8300  178.4440  147.3050 C   0  0  0  0  0  2  0  0  0  0  0  0
  185.9410  179.4160  147.6380 C   0  0  0  0  0  2  0  0  0  0  0  0
  1 20  1  0  0  0  0
  1 16  1  1  0  0  0
  2 27  1  0  0  0  0
  2 24  1  0  0  0  0
  3  4  1  0  0  0  0
  3 11  1  0  0  0  0
  4 21  1  0  0  0  0
  5  6  2  0  0  0  0
  5 25  1  0  0  0  0
  6 18  1  0  0  0  0
  7 24  1  1  0  0  0
  7 19  1  0  0  0  0
  8 12  1  0  0  0  0
  9 15  1  0  0  0  0
 10 17  1  0  0  0  0
 10  1  1  0  0  0  0
 11 13  1  0  0  0  0
 12  2  2  0  0  0  0
 13 22  2  0  0  0  0
 13 12  1  0  0  0  0
 14 23  1  0  0  0  0
 14 27  2  0  0  0  0
 17  8  1  6  0  0  0
 17  7  1  0  0  0  0
 18 15  2  0  0  0  0
 20 19  1  0  0  0  0
 20 29  1  1  0  0  0
 21 22  1  0  0  0  0
 22 14  1  0  0  0  0
 23 28  1  0  0  0  0
 26  9  2  0  0  0  0
 27  5  1  0  0  0  0
 28 26  1  1  0  0  0
 28  6  1  0  0  0  0
 29 30  1  0  0  0  0
 30 31  1  0  0  0  0
 30 32  1  0  0  0  0
 31 32  1  0  0  0  0
M  END
>  <MODEL>
4

>  <REMARK>
 VINA RESULT:      -8.5      3.369      8.847
  Name = 
  2 active torsions:
  status: ('A' for Active; 'I' for Inactive)
    1  A    between atoms: C_1  and  C_10
    2  A    between atoms: C_10  and  C_24
                            x       y       z     vdW  Elec       q    Type
                         _______ _______ _______ _____ _____    ______ ____

>  <TORSDO>
F 2

$$$$
=
 OpenBabel11052421383D

 32 38  0  0  1  0  0  0  0  0999 V2000
  185.2400  178.2600  143.0180 C   0  0  1  0  0  3  0  0  0  0  0  0
  189.2710  174.9860  142.3390 C   0  0  0  0  0  0  0  0  0  0  0  0
  188.9970  173.5690  137.5860 C   0  0  0  0  0  2  0  0  0  0  0  0
  189.6100  172.2420  137.9910 C   0  0  0  0  0  2  0  0  0  0  0  0
  191.1050  173.9630  143.8150 C   0  0  0  0  0  0  0  0  0  0  0  0
  192.2540  173.2700  143.8660 C   0  0  0  0  0  0  0  0  0  0  0  0
  187.9030  176.9960  143.0650 C   0  0  1  0  0  3  0  0  0  0  0  0
  187.4400  175.9640  140.8540 C   0  0  0  0  0  2  0  0  0  0  0  0
  194.3180  171.3350  144.0200 C   0  0  0  0  0  3  0  0  0  0  0  0
  185.8370  177.6180  141.7670 C   0  0  0  0  0  2  0  0  0  0  0  0
  188.2040  174.1320  138.7590 C   0  0  0  0  0  2  0  0  0  0  0  0
  188.5750  174.9950  141.1020 C   0  0  0  0  0  0  0  0  0  0  0  0
  189.0010  174.1680  140.0440 C   0  0  0  0  0  0  0  0  0  0  0  0
  190.8080  173.3220  141.4330 C   0  0  0  0  0  0  0  0  0  0  0  0
  193.9330  172.1240  145.2080 C   0  0  0  0  0  3  0  0  0  0  0  0
  184.4410  177.3430  143.6850 F   0  0  0  0  0  0  0  0  0  0  0  0
  186.8030  176.4910  142.1310 C   0  0  2  0  0  3  0  0  0  0  0  0
  192.9520  173.0270  145.1440 C   0  0  0  0  0  3  0  0  0  0  0  0
  187.3000  177.6360  144.3130 C   0  0  0  0  0  2  0  0  0  0  0  0
  186.3580  178.7770  143.9250 C   0  0  2  0  0  3  0  0  0  0  0  0
  190.6460  172.4810  139.0820 C   0  0  0  0  0  2  0  0  0  0  0  0
  190.1090  173.3130  140.2220 C   0  0  0  0  0  0  0  0  0  0  0  0
  191.9420  172.5140  141.5830 O   0  0  0  0  0  0  0  0  0  0  0  0
  188.7650  175.8190  143.4930 C   0  0  0  0  0  2  0  0  0  0  0  0
  190.5750  174.4750  144.9960 O   0  0  0  0  0  1  0  0  0  0  0  0
  193.8120  171.6090  142.8120 C   0  0  0  0  0  3  0  0  0  0  0  0
  190.3800  174.1220  142.5130 C   0  0  0  0  0  0  0  0  0  0  0  0
  192.9080  172.7910  142.5920 C   0  0  2  0  0  3  0  0  0  0  0  0
  185.7750  179.4400  145.1630 C   0  0  0  0  0  2  0  0  0  0  0  0
  185.9610  178.5530  146.3800 C   0  0  0  0  0  3  0  0  0  0  0  0
  184.7140  178.6190  147.2380 C   0  0  0  0  0  2  0  0  0  0  0  0
  185.9410  179.4160  147.6250 C   0  0  0  0  0  2  0  0  0  0  0  0
  1 16  1  1  0  0  0
  1 20  1  0  0  0  0
  2 27  1  0  0  0  0
  2 24  1  0  0  0  0
  3  4  1  0  0  0  0
  3 11  1  0  0  0  0
  4 21  1  0  0  0  0
  5  6  2  0  0  0  0
  5 25  1  0  0  0  0
  6 18  1  0  0  0  0
  7 24  1  1  0  0  0
  7 19  1  0  0  0  0
  8 12  1  0  0  0  0
  9 15  1  0  0  0  0
 10 17  1  0  0  0  0
 10  1  1  0  0  0  0
 11 13  1  0  0  0  0
 12  2  2  0  0  0  0
 13 22  2  0  0  0  0
 13 12  1  0  0  0  0
 14 23  1  0  0  0  0
 14 27  2  0  0  0  0
 17  8  1  6  0  0  0
 17  7  1  0  0  0  0
 18 15  2  0  0  0  0
 20 19  1  0  0  0  0
 20 29  1  1  0  0  0
 21 22  1  0  0  0  0
 22 14  1  0  0  0  0
 23 28  1  0  0  0  0
 26  9  2  0  0  0  0
 27  5  1  0  0  0  0
 28 26  1  1  0  0  0
 28  6  1  0  0  0  0
 29 30  1  0  0  0  0
 30 31  1  0  0  0  0
 30 32  1  0  0  0  0
 31 32  1  0  0  0  0
M  END
>  <MODEL>
5

>  <REMARK>
 VINA RESULT:      -8.4      3.666      8.735
  Name = 
  2 active torsions:
  status: ('A' for Active; 'I' for Inactive)
    1  A    between atoms: C_1  and  C_10
    2  A    between atoms: C_10  and  C_24
                            x       y       z     vdW  Elec       q    Type
                         _______ _______ _______ _____ _____    ______ ____

>  <TORSDO>
F 2

$$$$
=
 OpenBabel11052421383D

 32 38  0  0  1  0  0  0  0  0999 V2000
  189.6910  177.3760  147.0740 C   0  0  1  0  0  3  0  0  0  0  0  0
  192.0700  173.3040  144.7980 C   0  0  0  0  0  0  0  0  0  0  0  0
  196.8160  173.6170  146.2290 C   0  0  0  0  0  2  0  0  0  0  0  0
  197.2110  172.9770  144.9100 C   0  0  0  0  0  2  0  0  0  0  0  0
  191.4060  171.4350  143.1680 C   0  0  0  0  0  0  0  0  0  0  0  0
  191.7480  170.2750  142.5850 C   0  0  0  0  0  0  0  0  0  0  0  0
  190.3540  174.6940  146.0470 C   0  0  1  0  0  3  0  0  0  0  0  0
  192.7670  175.1680  146.3950 C   0  0  0  0  0  2  0  0  0  0  0  0
  192.6900  168.1790  140.9270 C   0  0  0  0  0  3  0  0  0  0  0  0
  191.0900  176.7860  147.2400 C   0  0  0  0  0  2  0  0  0  0  0  0
  195.5260  174.4030  146.0360 C   0  0  0  0  0  2  0  0  0  0  0  0
  193.0960  174.0150  145.4720 C   0  0  0  0  0  0  0  0  0  0  0  0
  194.4350  173.5900  145.3740 C   0  0  0  0  0  0  0  0  0  0  0  0
  193.7460  171.7520  143.9390 C   0  0  0  0  0  0  0  0  0  0  0  0
  191.2630  168.5610  140.9230 C   0  0  0  0  0  3  0  0  0  0  0  0
  189.6390  178.1520  145.9260 F   0  0  0  0  0  0  0  0  0  0  0  0
  191.4090  175.7970  146.1180 C   0  0  2  0  0  3  0  0  0  0  0  0
  190.8160  169.5570  141.6930 C   0  0  0  0  0  3  0  0  0  0  0  0
  188.9580  175.2910  145.8820 C   0  0  0  0  0  2  0  0  0  0  0  0
  188.6520  176.2550  147.0280 C   0  0  2  0  0  3  0  0  0  0  0  0
  196.1710  171.9320  144.5300 C   0  0  0  0  0  2  0  0  0  0  0  0
  194.7600  172.4670  144.5850 C   0  0  0  0  0  0  0  0  0  0  0  0
  194.0690  170.6040  143.2060 O   0  0  0  0  0  0  0  0  0  0  0  0
  190.6470  173.8070  144.8470 C   0  0  0  0  0  2  0  0  0  0  0  0
  190.1370  171.9580  142.9340 O   0  0  0  0  0  1  0  0  0  0  0  0
  193.5460  168.7050  141.8100 C   0  0  0  0  0  3  0  0  0  0  0  0
  192.4030  172.1790  144.0030 C   0  0  0  0  0  0  0  0  0  0  0  0
  193.0760  169.6300  142.9000 C   0  0  2  0  0  3  0  0  0  0  0  0
  187.2520  176.8330  146.8880 C   0  0  0  0  0  2  0  0  0  0  0  0
  186.8010  176.7910  145.4390 C   0  0  0  0  0  3  0  0  0  0  0  0
  186.3940  178.1850  145.0060 C   0  0  0  0  0  2  0  0  0  0  0  0
  185.3360  177.1660  145.3690 C   0  0  0  0  0  2  0  0  0  0  0  0
  1 16  1  6  0  0  0
  1 10  1  0  0  0  0
  2 24  1  0  0  0  0
  2 12  1  0  0  0  0
  4  3  1  0  0  0  0
  5 27  1  0  0  0  0
  6 28  1  0  0  0  0
  6  5  2  0  0  0  0
  7 24  1  6  0  0  0
  7 17  1  0  0  0  0
  9 26  2  0  0  0  0
 11  3  1  0  0  0  0
 12  8  1  0  0  0  0
 13 12  2  0  0  0  0
 13 11  1  0  0  0  0
 14 27  1  0  0  0  0
 14 22  2  0  0  0  0
 15  9  1  0  0  0  0
 15 18  2  0  0  0  0
 17  8  1  1  0  0  0
 17 10  1  0  0  0  0
 18  6  1  0  0  0  0
 19  7  1  0  0  0  0
 19 20  1  0  0  0  0
 20 29  1  6  0  0  0
 20  1  1  0  0  0  0
 21 22  1  0  0  0  0
 21  4  1  0  0  0  0
 22 13  1  0  0  0  0
 23 14  1  0  0  0  0
 25  5  1  0  0  0  0
 27  2  2  0  0  0  0
 28 26  1  6  0  0  0
 28 23  1  0  0  0  0
 30 29  1  0  0  0  0
 31 32  1  0  0  0  0
 31 30  1  0  0  0  0
 32 30  1  0  0  0  0
M  END
>  <MODEL>
6

>  <REMARK>
 VINA RESULT:      -8.3      4.288      8.693
  Name = 
  2 active torsions:
  status: ('A' for Active; 'I' for Inactive)
    1  A    between atoms: C_1  and  C_10
    2  A    between atoms: C_10  and  C_24
                            x       y       z     vdW  Elec       q    Type
                         _______ _______ _______ _____ _____    ______ ____

>  <TORSDO>
F 2

$$$$
=
 OpenBabel11052421383D

 32 38  0  0  1  0  0  0  0  0999 V2000
  185.7240  178.9050  144.2950 C   0  0  1  0  0  3  0  0  0  0  0  0
  189.1330  175.0650  143.2670 C   0  0  0  0  0  0  0  0  0  0  0  0
  192.4240  175.2310  146.9830 C   0  0  0  0  0  2  0  0  0  0  0  0
  193.4770  174.7200  146.0170 C   0  0  0  0  0  2  0  0  0  0  0  0
  189.5040  173.3620  141.3820 C   0  0  0  0  0  0  0  0  0  0  0  0
  190.1540  172.2620  140.9690 C   0  0  0  0  0  0  0  0  0  0  0  0
  186.9520  176.3320  143.5470 C   0  0  1  0  0  3  0  0  0  0  0  0
  188.8070  176.7670  145.1400 C   0  0  0  0  0  2  0  0  0  0  0  0
  191.9210  170.3340  139.8790 C   0  0  0  0  0  3  0  0  0  0  0  0
  186.8590  178.2980  145.1170 C   0  0  0  0  0  2  0  0  0  0  0  0
  191.3850  176.0350  146.2120 C   0  0  0  0  0  2  0  0  0  0  0  0
  189.6240  175.7070  144.4330 C   0  0  0  0  0  0  0  0  0  0  0  0
  190.8380  175.2910  145.0130 C   0  0  0  0  0  0  0  0  0  0  0  0
  191.0840  173.6000  143.2830 C   0  0  0  0  0  0  0  0  0  0  0  0
  190.6870  170.7170  139.1630 C   0  0  0  0  0  3  0  0  0  0  0  0
  186.2370  179.7870  143.3560 F   0  0  0  0  0  0  0  0  0  0  0  0
  187.7620  177.4210  144.2490 C   0  0  2  0  0  3  0  0  0  0  0  0
  189.8580  171.6360  139.6660 C   0  0  0  0  0  3  0  0  0  0  0  0
  185.8190  176.9440  142.7280 C   0  0  0  0  0  2  0  0  0  0  0  0
  184.9150  177.7940  143.6210 C   0  0  2  0  0  3  0  0  0  0  0  0
  192.8370  173.7180  145.0650 C   0  0  0  0  0  2  0  0  0  0  0  0
  191.5790  174.2480  144.4200 C   0  0  0  0  0  0  0  0  0  0  0  0
  191.7960  172.5270  142.7340 O   0  0  0  0  0  0  0  0  0  0  0  0
  187.8690  175.5640  142.6080 C   0  0  0  0  0  2  0  0  0  0  0  0
  188.5170  173.9080  140.5640 O   0  0  0  0  0  1  0  0  0  0  0  0
  192.1670  170.7710  141.1190 C   0  0  0  0  0  3  0  0  0  0  0  0
  189.8850  174.0210  142.6730 C   0  0  0  0  0  0  0  0  0  0  0  0
  191.1560  171.5880  141.8760 C   0  0  2  0  0  3  0  0  0  0  0  0
  183.7660  178.3860  142.8190 C   0  0  0  0  0  2  0  0  0  0  0  0
  183.6950  177.7520  141.4420 C   0  0  0  0  0  3  0  0  0  0  0  0
  183.9260  178.8200  140.3920 C   0  0  0  0  0  2  0  0  0  0  0  0
  182.5210  178.3410  140.6890 C   0  0  0  0  0  2  0  0  0  0  0  0
  1 16  1  6  0  0  0
  1 10  1  0  0  0  0
  2 12  1  0  0  0  0
  4  3  1  0  0  0  0
  5 27  1  0  0  0  0
  6  5  2  0  0  0  0
  6 28  1  0  0  0  0
  7 24  1  6  0  0  0
  7 17  1  0  0  0  0
  9 26  2  0  0  0  0
 11  3  1  0  0  0  0
 12 13  2  0  0  0  0
 12  8  1  0  0  0  0
 13 11  1  0  0  0  0
 14 22  2  0  0  0  0
 15 18  2  0  0  0  0
 15  9  1  0  0  0  0
 17 10  1  1  0  0  0
 17  8  1  0  0  0  0
 18  6  1  0  0  0  0
 19  7  1  0  0  0  0
 19 20  1  0  0  0  0
 20 29  1  6  0  0  0
 20  1  1  0  0  0  0
 21  4  1  0  0  0  0
 22 13  1  0  0  0  0
 22 21  1  0  0  0  0
 23 14  1  0  0  0  0
 24  2  1  0  0  0  0
 25  5  1  0  0  0  0
 27  2  2  0  0  0  0
 27 14  1  0  0  0  0
 28 26  1  6  0  0  0
 28 23  1  0  0  0  0
 30 29  1  0  0  0  0
 31 32  1  0  0  0  0
 31 30  1  0  0  0  0
 32 30  1  0  0  0  0
M  END
>  <MODEL>
7

>  <REMARK>
 VINA RESULT:      -8.2      3.745      7.847
  Name = 
  2 active torsions:
  status: ('A' for Active; 'I' for Inactive)
    1  A    between atoms: C_1  and  C_10
    2  A    between atoms: C_10  and  C_24
                            x       y       z     vdW  Elec       q    Type
                         _______ _______ _______ _____ _____    ______ ____

>  <TORSDO>
F 2

$$$$
=
 OpenBabel11052421383D

 32 38  0  0  1  0  0  0  0  0999 V2000
  189.4390  172.4650  137.6500 C   0  0  1  0  0  3  0  0  0  0  0  0
  189.2840  174.9800  142.2410 C   0  0  0  0  0  0  0  0  0  0  0  0
  185.3630  178.0120  141.9210 C   0  0  0  0  0  2  0  0  0  0  0  0
  186.0870  178.9760  142.8430 C   0  0  0  0  0  2  0  0  0  0  0  0
  190.7230  175.0640  144.3660 C   0  0  0  0  0  0  0  0  0  0  0  0
  190.8270  175.4730  145.6400 C   0  0  0  0  0  0  0  0  0  0  0  0
  189.5020  173.1260  140.5230 C   0  0  1  0  0  3  0  0  0  0  0  0
  187.8510  174.9400  140.1300 C   0  0  0  0  0  2  0  0  0  0  0  0
  191.3020  176.8210  148.0880 C   0  0  0  0  0  3  0  0  0  0  0  0
  188.3950  173.3890  138.2760 C   0  0  0  0  0  2  0  0  0  0  0  0
  186.3890  177.2250  141.1160 C   0  0  0  0  0  2  0  0  0  0  0  0
  188.2320  175.5360  141.4680 C   0  0  0  0  0  0  0  0  0  0  0  0
  187.4560  176.5920  141.9830 C   0  0  0  0  0  0  0  0  0  0  0  0
  188.7590  176.5490  144.0340 C   0  0  0  0  0  0  0  0  0  0  0  0
  192.2060  175.7460  147.6300 C   0  0  0  0  0  3  0  0  0  0  0  0
  190.4820  173.2150  137.1290 F   0  0  0  0  0  0  0  0  0  0  0  0
  188.9630  174.1190  139.4930 C   0  0  2  0  0  3  0  0  0  0  0  0
  191.9940  175.1170  146.4710 C   0  0  0  0  0  3  0  0  0  0  0  0
  190.5430  172.2060  139.8910 C   0  0  0  0  0  2  0  0  0  0  0  0
  189.9460  171.4670  138.6930 C   0  0  2  0  0  3  0  0  0  0  0  0
  186.8700  178.1820  143.8810 C   0  0  0  0  0  2  0  0  0  0  0  0
  187.7380  177.1130  143.2620 C   0  0  0  0  0  0  0  0  0  0  0  0
  188.9960  177.0320  145.3270 O   0  0  0  0  0  0  0  0  0  0  0  0
  190.1590  173.8980  141.6550 C   0  0  0  0  0  2  0  0  0  0  0  0
  191.7340  174.2710  143.8280 O   0  0  0  0  0  1  0  0  0  0  0  0
  190.1610  177.0890  147.4410 C   0  0  0  0  0  3  0  0  0  0  0  0
  189.5650  175.5100  143.5250 C   0  0  0  0  0  0  0  0  0  0  0  0
  189.7000  176.2460  146.2830 C   0  0  2  0  0  3  0  0  0  0  0  0
  190.9680  170.5260  138.0750 C   0  0  0  0  0  2  0  0  0  0  0  0
  190.3290  169.6870  136.9840 C   0  0  0  0  0  3  0  0  0  0  0  0
  191.2260  168.5060  136.6770 C   0  0  0  0  0  2  0  0  0  0  0  0
  191.2200  169.7100  135.7600 C   0  0  0  0  0  2  0  0  0  0  0  0
  1 16  1  1  0  0  0
  1 10  1  0  0  0  0
  1 20  1  0  0  0  0
  2 27  1  0  0  0  0
  3  4  1  0  0  0  0
  4 21  1  0  0  0  0
  5  6  2  0  0  0  0
  6 28  1  0  0  0  0
  6 18  1  0  0  0  0
  7 19  1  6  0  0  0
  7 24  1  0  0  0  0
  8 12  1  0  0  0  0
 11  3  1  0  0  0  0
 11 13  1  0  0  0  0
 12 13  1  0  0  0  0
 12  2  2  0  0  0  0
 13 22  2  0  0  0  0
 14 23  1  0  0  0  0
 15  9  1  0  0  0  0
 17 10  1  6  0  0  0
 17  8  1  0  0  0  0
 17  7  1  0  0  0  0
 18 15  2  0  0  0  0
 20 29  1  6  0  0  0
 20 19  1  0  0  0  0
 22 21  1  0  0  0  0
 22 14  1  0  0  0  0
 23 28  1  0  0  0  0
 24  2  1  0  0  0  0
 25  5  1  0  0  0  0
 26  9  2  0  0  0  0
 27 14  2  0  0  0  0
 27  5  1  0  0  0  0
 28 26  1  1  0  0  0
 30 29  1  0  0  0  0
 31 30  1  0  0  0  0
 32 31  1  0  0  0  0
 32 30  1  0  0  0  0
M  END
>  <MODEL>
8

>  <REMARK>
 VINA RESULT:      -7.8      4.640      7.405
  Name = 
  2 active torsions:
  status: ('A' for Active; 'I' for Inactive)
    1  A    between atoms: C_1  and  C_10
    2  A    between atoms: C_10  and  C_24
                            x       y       z     vdW  Elec       q    Type
                         _______ _______ _______ _____ _____    ______ ____

>  <TORSDO>
F 2

$$$$
=
 OpenBabel11052421383D

 32 38  0  0  1  0  0  0  0  0999 V2000
  192.3990  172.3430  141.7290 C   0  0  1  0  0  3  0  0  0  0  0  0
  188.4230  175.3760  143.2850 C   0  0  0  0  0  0  0  0  0  0  0  0
  186.1510  176.7760  139.0960 C   0  0  0  0  0  2  0  0  0  0  0  0
  185.7620  178.0690  139.7900 C   0  0  0  0  0  2  0  0  0  0  0  0
  187.5510  176.3010  145.5160 C   0  0  0  0  0  0  0  0  0  0  0  0
  186.5560  176.9270  146.1640 C   0  0  0  0  0  0  0  0  0  0  0  0
  190.0730  173.4520  143.1620 C   0  0  1  0  0  3  0  0  0  0  0  0
  189.2840  174.4950  141.0500 C   0  0  0  0  0  2  0  0  0  0  0  0
  184.7630  178.7410  147.3980 C   0  0  0  0  0  3  0  0  0  0  0  0
  191.2130  172.9420  140.9750 C   0  0  0  0  0  2  0  0  0  0  0  0
  187.4610  176.2670  139.6850 C   0  0  0  0  0  2  0  0  0  0  0  0
  188.3870  175.3990  141.8670 C   0  0  0  0  0  0  0  0  0  0  0  0
  187.4370  176.1940  141.1960 C   0  0  0  0  0  0  0  0  0  0  0  0
  186.5540  176.9430  143.3340 C   0  0  0  0  0  0  0  0  0  0  0  0
  185.7430  177.9830  148.2030 C   0  0  0  0  0  3  0  0  0  0  0  0
  193.3770  173.3080  141.9160 F   0  0  0  0  0  0  0  0  0  0  0  0
  190.5110  174.0130  141.8090 C   0  0  2  0  0  3  0  0  0  0  0  0
  186.5990  177.1370  147.6240 C   0  0  0  0  0  3  0  0  0  0  0  0
  191.2620  172.8550  143.9100 C   0  0  0  0  0  2  0  0  0  0  0  0
  191.9310  171.7680  143.0680 C   0  0  2  0  0  3  0  0  0  0  0  0
  185.4460  177.7770  141.2510 C   0  0  0  0  0  2  0  0  0  0  0  0
  186.5330  176.9840  141.9350 C   0  0  0  0  0  0  0  0  0  0  0  0
  185.6150  177.6850  144.0610 O   0  0  0  0  0  0  0  0  0  0  0  0
  189.4900  174.5800  143.9980 C   0  0  0  0  0  2  0  0  0  0  0  0
  188.6380  175.8270  146.2470 O   0  0  0  0  0  1  0  0  0  0  0  0
  184.5940  178.4890  146.0950 C   0  0  0  0  0  3  0  0  0  0  0  0
  187.5150  176.1750  144.0230 C   0  0  0  0  0  0  0  0  0  0  0  0
  185.3180  177.3600  145.4150 C   0  0  2  0  0  3  0  0  0  0  0  0
  193.1000  171.1480  143.8170 C   0  0  0  0  0  2  0  0  0  0  0  0
  193.5130  172.0270  144.9830 C   0  0  0  0  0  3  0  0  0  0  0  0
  194.9630  172.4310  144.8110 C   0  0  0  0  0  2  0  0  0  0  0  0
  194.5960  171.3210  145.7720 C   0  0  0  0  0  2  0  0  0  0  0  0
  1 16  1  1  0  0  0
  1 20  1  0  0  0  0
  2 24  1  0  0  0  0
  2 27  1  0  0  0  0
  3 11  1  0  0  0  0
  3  4  1  0  0  0  0
  4 21  1  0  0  0  0
  5  6  2  0  0  0  0
  5 25  1  0  0  0  0
  6 18  1  0  0  0  0
  7 19  1  1  0  0  0
  7 24  1  0  0  0  0
  8 17  1  0  0  0  0
  8 12  1  0  0  0  0
  9 15  1  0  0  0  0
 10  1  1  0  0  0  0
 11 13  1  0  0  0  0
 12  2  2  0  0  0  0
 13 12  1  0  0  0  0
 13 22  2  0  0  0  0
 14 27  2  0  0  0  0
 14 23  1  0  0  0  0
 17 10  1  6  0  0  0
 17  7  1  0  0  0  0
 18 15  2  0  0  0  0
 20 29  1  1  0  0  0
 20 19  1  0  0  0  0
 21 22  1  0  0  0  0
 22 14  1  0  0  0  0
 23 28  1  0  0  0  0
 26  9  2  0  0  0  0
 27  5  1  0  0  0  0
 28 26  1  1  0  0  0
 28  6  1  0  0  0  0
 29 30  1  0  0  0  0
 30 32  1  0  0  0  0
 31 30  1  0  0  0  0
 31 32  1  0  0  0  0
M  END
>  <MODEL>
9

>  <REMARK>
 VINA RESULT:      -7.6      2.886      5.489
  Name = 
  2 active torsions:
  status: ('A' for Active; 'I' for Inactive)
    1  A    between atoms: C_1  and  C_10
    2  A    between atoms: C_10  and  C_24
                            x       y       z     vdW  Elec       q    Type
                         _______ _______ _______ _____ _____    ______ ____

>  <TORSDO>
F 2

$$$$
