=
 OpenBabel11052419233D

 55 60  0  0  1  0  0  0  0  0999 V2000
  189.8310  173.2660  143.3060 N   0  0  0  0  0  0  0  0  0  0  0  0
  193.1770  176.5250  144.2760 C   0  0  0  0  0  2  0  0  0  0  0  0
  191.7170  179.1590  143.8950 O   0  0  0  0  0  1  0  0  0  0  0  0
  187.0250  178.3800  144.7930 C   0  0  0  0  0  3  0  0  0  0  0  0
  185.7070  178.8480  144.7950 C   0  0  0  0  0  3  0  0  0  0  0  0
  186.4250  176.7030  143.1370 C   0  0  0  0  0  0  0  0  0  0  0  0
  185.1050  177.1730  143.1590 C   0  0  0  0  0  3  0  0  0  0  0  0
  189.7470  177.9310  143.3860 C   0  0  0  0  0  2  0  0  0  0  0  0
  184.7490  178.2450  143.9800 C   0  0  0  0  0  3  0  0  0  0  0  0
  190.8840  171.1150  143.0240 C   0  0  0  0  0  2  0  0  0  0  0  0
  187.4000  177.3080  143.9730 C   0  0  0  0  0  0  0  0  0  0  0  0
  193.0990  172.7640  144.0960 C   0  0  1  0  0  3  0  0  0  0  0  0
  189.6930  174.5820  143.8470 C   0  0  0  0  0  3  0  0  0  0  0  0
  191.7300  172.7670  144.7710 C   0  0  0  0  0  2  0  0  0  0  0  0
  188.2360  175.4480  141.9480 C   0  0  1  0  0  3  0  0  0  0  0  0
  194.0710  175.6860  143.6050 O   0  0  0  0  0  0  0  0  0  0  0  0
  186.7470  175.5010  142.2860 C   0  0  0  0  0  2  0  0  0  0  0  0
  192.0100  176.8600  143.3660 C   0  0  0  0  0  2  0  0  0  0  0  0
  191.1250  177.9040  144.0290 C   0  0  1  0  0  3  0  0  0  0  0  0
  192.2730  171.1060  142.3820 C   0  0  0  0  0  2  0  0  0  0  0  0
  195.0210  175.3300  144.5650 C   0  0  1  0  0  3  0  0  0  0  0  0
  190.6990  172.4080  143.7430 C   0  0  0  0  0  0  0  0  0  0  0  0
  188.8450  176.8540  143.9830 C   0  0  1  0  0  3  0  0  0  0  0  0
  189.0110  175.5610  143.2440 C   0  0  0  0  0  0  0  0  0  0  0  0
  195.3120  173.8390  144.5020 C   0  0  0  0  0  2  0  0  0  0  0  0
  194.1750  173.0470  145.1290 C   0  0  0  0  0  2  0  0  0  0  0  0
  193.3610  171.4130  143.4170 C   0  0  0  0  0  2  0  0  0  0  0  0
  187.9350  174.4390  139.6410 C   0  0  0  0  0  2  0  0  0  0  0  0
  189.7140  173.3240  138.5170 C   0  0  2  0  0  3  0  0  0  0  0  0
  190.1300  174.2780  140.7810 C   0  0  0  0  0  2  0  0  0  0  0  0
  190.4980  173.1540  139.8220 C   0  0  0  0  0  2  0  0  0  0  0  0
  188.2760  173.2950  138.7930 N   0  0  0  0  0  2  0  0  0  0  0  0
  188.6170  174.3020  141.0010 C   0  0  1  0  0  3  0  0  0  0  0  0
  190.0700  172.1950  137.5640 C   0  0  0  0  0  3  0  0  0  0  0  0
  190.5340  172.7810  136.2440 C   0  0  0  0  0  2  0  0  0  0  0  0
  189.1360  172.2150  136.3700 C   0  0  0  0  0  2  0  0  0  0  0  0
  196.3120  176.1020  144.3380 C   0  0  0  0  0  2  0  0  0  0  0  0
  196.5870  176.7560  141.5770 O   0  0  0  0  0  0  0  0  0  0  0  0
  197.1920  175.7280  141.9940 C   0  0  0  0  0  0  0  0  0  0  0  0
  197.1520  175.3880  143.3840 N   0  0  0  0  0  2  0  0  0  0  0  0
  197.9030  174.9060  141.1110 O   0  0  0  0  0  0  0  0  0  0  0  0
  197.3400  173.8130  140.3700 C   0  0  2  0  0  3  0  0  0  0  0  0
  197.9390  172.4520  140.7700 C   0  0  0  0  0  3  0  0  0  0  0  0
  197.8840  172.2990  142.1570 O   0  0  0  0  0  1  0  0  0  0  0  0
  197.2410  171.4060  140.1710 O   0  0  0  0  0  1  0  0  0  0  0  0
  197.8940  175.4580  138.5390 C   0  0  0  0  0  1  0  0  0  0  0  0
  197.2490  174.1010  138.8420 C   0  0  2  0  0  0  0  0  0  0  0  0
  195.4950  175.3000  137.6480 O   0  0  0  0  0  1  0  0  0  0  0  0
  195.7680  174.1500  138.3980 C   0  0  2  0  0  3  0  0  0  0  0  0
  194.7630  173.9980  139.5500 C   0  0  1  0  0  3  0  0  0  0  0  0
  193.8760  175.0800  139.5990 O   0  0  0  0  0  1  0  0  0  0  0  0
  193.9950  172.6860  139.4520 C   0  0  0  0  0  2  0  0  0  0  0  0
  194.0290  172.1820  138.1500 O   0  0  0  0  0  1  0  0  0  0  0  0
  197.9390  172.9950  138.0240 C   0  0  0  0  0  2  0  0  0  0  0  0
  197.0900  172.4340  137.0670 O   0  0  0  0  0  1  0  0  0  0  0  0
  1 22  2  0  0  0  0
  1 13  1  0  0  0  0
  4  5  1  0  0  0  0
  6  7  2  0  0  0  0
  6 11  1  0  0  0  0
  7  9  1  0  0  0  0
  8 19  1  0  0  0  0
  9  5  2  0  0  0  0
 10 22  1  0  0  0  0
 11 23  1  0  0  0  0
 11  4  2  0  0  0  0
 12 27  1  1  0  0  0
 12 14  1  0  0  0  0
 12 26  1  0  0  0  0
 15 17  1  1  0  0  0
 15 24  1  0  0  0  0
 16  2  1  0  0  0  0
 16 21  1  0  0  0  0
 17  6  1  0  0  0  0
 18 19  1  0  0  0  0
 18  2  1  0  0  0  0
 19  3  1  6  0  0  0
 20 10  1  0  0  0  0
 20 27  1  0  0  0  0
 21 37  1  6  0  0  0
 22 14  1  0  0  0  0
 23  8  1  6  0  0  0
 24 13  2  0  0  0  0
 24 23  1  0  0  0  0
 25 21  1  0  0  0  0
 25 26  1  0  0  0  0
 29 34  1  6  0  0  0
 29 32  1  0  0  0  0
 29 31  1  0  0  0  0
 30 33  1  0  0  0  0
 31 30  1  0  0  0  0
 32 28  1  0  0  0  0
 33 28  1  6  0  0  0
 33 15  1  0  0  0  0
 35 36  1  0  0  0  0
 35 34  1  0  0  0  0
 36 34  1  0  0  0  0
 38 39  2  0  0  0  0
 39 40  1  0  0  0  0
 40 37  1  0  0  0  0
 41 39  1  0  0  0  0
 42 43  1  6  0  0  0
 42 41  1  0  0  0  0
 43 44  1  0  0  0  0
 45 43  1  0  0  0  0
 47 46  1  6  0  0  0
 47 42  1  0  0  0  0
 49 48  1  1  0  0  0
 49 47  1  0  0  0  0
 49 50  1  0  0  0  0
 50 51  1  6  0  0  0
 52 50  1  0  0  0  0
 53 52  1  0  0  0  0
 54 47  1  0  0  0  0
 55 54  1  0  0  0  0
M  END
>  <MODEL>
1

>  <REMARK>
 VINA RESULT:      -6.7      0.000      0.000
  Name = 
  12 active torsions:
  status: ('A' for Active; 'I' for Inactive)
    1  A    between atoms: C_1  and  C_53
    2  A    between atoms: C_6  and  C_14
    3  A    between atoms: C_8  and  N_22
    4  A    between atoms: C_8  and  C_43
    5  A    between atoms: C_10  and  C_32
    6  A    between atoms: C_11  and  C_29
    7  A    between atoms: C_14  and  C_38
    8  A    between atoms: C_14  and  C_53
    9  A    between atoms: C_20  and  O_42
   10  A    between atoms: C_29  and  C_38
   11  A    between atoms: C_33  and  C_52
   12  A    between atoms: O_42  and  C_53
                            x       y       z     vdW  Elec       q    Type
                         _______ _______ _______ _____ _____    ______ ____

>  <TORSDO>
F 12

$$$$
=
 OpenBabel11052419233D

 55 60  0  0  1  0  0  0  0  0999 V2000
  189.2660  174.1090  143.5920 N   0  0  0  0  0  0  0  0  0  0  0  0
  193.9330  174.1700  142.6010 C   0  0  0  0  0  2  0  0  0  0  0  0
  194.9570  176.5280  144.2160 O   0  0  0  0  0  1  0  0  0  0  0  0
  192.0410  177.0660  148.0410 C   0  0  0  0  0  3  0  0  0  0  0  0
  191.6500  177.8070  149.1610 C   0  0  0  0  0  3  0  0  0  0  0  0
  189.8710  177.4750  147.0180 C   0  0  0  0  0  0  0  0  0  0  0  0
  189.4890  178.2030  148.1530 C   0  0  0  0  0  3  0  0  0  0  0  0
  192.7500  176.8570  145.0330 C   0  0  0  0  0  2  0  0  0  0  0  0
  190.3770  178.3740  149.2170 C   0  0  0  0  0  3  0  0  0  0  0  0
  188.1460  172.6610  142.0210 C   0  0  0  0  0  2  0  0  0  0  0  0
  191.1630  176.8880  146.9630 C   0  0  0  0  0  0  0  0  0  0  0  0
  191.0010  172.0880  141.4790 C   0  0  1  0  0  3  0  0  0  0  0  0
  190.3630  174.5490  144.3950 C   0  0  0  0  0  3  0  0  0  0  0  0
  190.4660  172.0850  142.9080 C   0  0  0  0  0  2  0  0  0  0  0  0
  189.5390  176.9500  144.5930 C   0  0  1  0  0  3  0  0  0  0  0  0
  193.5740  173.8410  141.2910 O   0  0  0  0  0  0  0  0  0  0  0  0
  188.8560  177.2610  145.9240 C   0  0  0  0  0  2  0  0  0  0  0  0
  193.2130  175.4380  143.0250 C   0  0  0  0  0  2  0  0  0  0  0  0
  193.7280  175.8920  144.3810 C   0  0  1  0  0  3  0  0  0  0  0  0
  188.7000  172.6300  140.5950 C   0  0  0  0  0  2  0  0  0  0  0  0
  194.1730  172.6010  141.0540 C   0  0  1  0  0  3  0  0  0  0  0  0
  189.2610  172.9770  142.9600 C   0  0  0  0  0  0  0  0  0  0  0  0
  191.6390  176.1020  145.7590 C   0  0  1  0  0  3  0  0  0  0  0  0
  190.5070  175.8080  144.8220 C   0  0  0  0  0  0  0  0  0  0  0  0
  193.1950  171.6570  140.3740 C   0  0  0  0  0  2  0  0  0  0  0  0
  192.1760  171.1330  141.3740 C   0  0  0  0  0  2  0  0  0  0  0  0
  189.9000  171.6830  140.4900 C   0  0  0  0  0  2  0  0  0  0  0  0
  187.1100  176.9020  143.8670 C   0  0  0  0  0  2  0  0  0  0  0  0
  186.4040  177.8200  141.7860 C   0  0  2  0  0  3  0  0  0  0  0  0
  188.8190  177.9270  142.3920 C   0  0  0  0  0  2  0  0  0  0  0  0
  187.8340  177.8040  141.2380 C   0  0  0  0  0  2  0  0  0  0  0  0
  186.2170  176.7090  142.7220 N   0  0  0  0  0  2  0  0  0  0  0  0
  188.5660  176.8170  143.4140 C   0  0  1  0  0  3  0  0  0  0  0  0
  185.4210  177.6840  140.6350 C   0  0  0  0  0  3  0  0  0  0  0  0
  184.6930  179.0000  140.4390 C   0  0  0  0  0  2  0  0  0  0  0  0
  184.0030  177.8540  141.1460 C   0  0  0  0  0  2  0  0  0  0  0  0
  195.4010  172.7710  140.1730 C   0  0  0  0  0  2  0  0  0  0  0  0
  195.4080  175.2360  138.7420 O   0  0  0  0  0  0  0  0  0  0  0  0
  194.9550  174.2190  138.1450 C   0  0  0  0  0  0  0  0  0  0  0  0
  194.9920  172.9380  138.7840 N   0  0  0  0  0  2  0  0  0  0  0  0
  194.4080  174.3230  136.8600 O   0  0  0  0  0  0  0  0  0  0  0  0
  194.0790  173.2130  136.0130 C   0  0  2  0  0  3  0  0  0  0  0  0
  194.7890  173.2740  134.6480 C   0  0  0  0  0  3  0  0  0  0  0  0
  195.4510  174.4960  134.5130 O   0  0  0  0  0  1  0  0  0  0  0  0
  195.7170  172.2420  134.5240 O   0  0  0  0  0  1  0  0  0  0  0  0
  192.1000  172.7190  134.5270 C   0  0  0  0  0  1  0  0  0  0  0  0
  192.5510  172.9110  135.9790 C   0  0  2  0  0  0  0  0  0  0  0  0
  191.3120  173.8000  137.8800 O   0  0  0  0  0  1  0  0  0  0  0  0
  191.7620  174.0940  136.5880 C   0  0  2  0  0  3  0  0  0  0  0  0
  190.6070  174.5960  135.7080 C   0  0  1  0  0  3  0  0  0  0  0  0
  189.3950  174.5920  136.4080 O   0  0  0  0  0  1  0  0  0  0  0  0
  190.8930  175.9830  135.1470 C   0  0  0  0  0  2  0  0  0  0  0  0
  192.1230  176.4630  135.6020 O   0  0  0  0  0  1  0  0  0  0  0  0
  192.2120  171.6570  136.8060 C   0  0  0  0  0  2  0  0  0  0  0  0
  193.1600  170.6430  136.6480 O   0  0  0  0  0  1  0  0  0  0  0  0
  1 13  1  0  0  0  0
  2 18  1  0  0  0  0
  4  5  1  0  0  0  0
  5  9  2  0  0  0  0
  6  7  2  0  0  0  0
  7  9  1  0  0  0  0
 10 22  1  0  0  0  0
 11  6  1  0  0  0  0
 11  4  2  0  0  0  0
 12 27  1  6  0  0  0
 12 14  1  0  0  0  0
 13 24  2  0  0  0  0
 14 22  1  0  0  0  0
 15 24  1  0  0  0  0
 15 17  1  1  0  0  0
 16  2  1  0  0  0  0
 17  6  1  0  0  0  0
 18 19  1  0  0  0  0
 19  3  1  6  0  0  0
 19  8  1  0  0  0  0
 20 10  1  0  0  0  0
 21 37  1  6  0  0  0
 21 16  1  0  0  0  0
 22  1  2  0  0  0  0
 23  8  1  6  0  0  0
 23 11  1  0  0  0  0
 24 23  1  0  0  0  0
 25 21  1  0  0  0  0
 25 26  1  0  0  0  0
 26 12  1  0  0  0  0
 27 20  1  0  0  0  0
 29 34  1  6  0  0  0
 29 32  1  0  0  0  0
 31 29  1  0  0  0  0
 31 30  1  0  0  0  0
 32 28  1  0  0  0  0
 33 30  1  6  0  0  0
 33 28  1  0  0  0  0
 33 15  1  0  0  0  0
 34 36  1  0  0  0  0
 35 34  1  0  0  0  0
 35 36  1  0  0  0  0
 39 38  2  0  0  0  0
 39 40  1  0  0  0  0
 40 37  1  0  0  0  0
 41 39  1  0  0  0  0
 42 43  1  6  0  0  0
 42 41  1  0  0  0  0
 44 43  1  0  0  0  0
 45 43  1  0  0  0  0
 47 46  1  6  0  0  0
 47 42  1  0  0  0  0
 47 49  1  0  0  0  0
 47 54  1  0  0  0  0
 49 48  1  1  0  0  0
 50 51  1  1  0  0  0
 50 49  1  0  0  0  0
 52 53  1  0  0  0  0
 52 50  1  0  0  0  0
 55 54  1  0  0  0  0
M  END
>  <MODEL>
2

>  <REMARK>
 VINA RESULT:      -6.6      2.696      5.242
  Name = 
  12 active torsions:
  status: ('A' for Active; 'I' for Inactive)
    1  A    between atoms: C_1  and  C_53
    2  A    between atoms: C_6  and  C_14
    3  A    between atoms: C_8  and  N_22
    4  A    between atoms: C_8  and  C_43
    5  A    between atoms: C_10  and  C_32
    6  A    between atoms: C_11  and  C_29
    7  A    between atoms: C_14  and  C_38
    8  A    between atoms: C_14  and  C_53
    9  A    between atoms: C_20  and  O_42
   10  A    between atoms: C_29  and  C_38
   11  A    between atoms: C_33  and  C_52
   12  A    between atoms: O_42  and  C_53
                            x       y       z     vdW  Elec       q    Type
                         _______ _______ _______ _____ _____    ______ ____

>  <TORSDO>
F 12

$$$$
=
 OpenBabel11052419233D

 55 60  0  0  1  0  0  0  0  0999 V2000
  189.2080  174.1140  143.4550 N   0  0  0  0  0  0  0  0  0  0  0  0
  193.8830  174.1240  142.5060 C   0  0  0  0  0  2  0  0  0  0  0  0
  194.9220  176.4580  144.1460 O   0  0  0  0  0  1  0  0  0  0  0  0
  191.9790  177.0070  147.9480 C   0  0  0  0  0  3  0  0  0  0  0  0
  191.5880  177.7450  149.0700 C   0  0  0  0  0  3  0  0  0  0  0  0
  189.8240  177.4500  146.9090 C   0  0  0  0  0  0  0  0  0  0  0  0
  189.4410  178.1750  148.0450 C   0  0  0  0  0  3  0  0  0  0  0  0
  192.7120  176.8100  144.9460 C   0  0  0  0  0  2  0  0  0  0  0  0
  190.3210  178.3280  149.1190 C   0  0  0  0  0  3  0  0  0  0  0  0
  188.0840  172.6910  141.8650 C   0  0  0  0  0  2  0  0  0  0  0  0
  191.1090  176.8480  146.8620 C   0  0  0  0  0  0  0  0  0  0  0  0
  190.9360  172.0870  141.3440 C   0  0  1  0  0  3  0  0  0  0  0  0
  190.3030  174.5360  144.2710 C   0  0  0  0  0  3  0  0  0  0  0  0
  190.3880  172.0810  142.7680 C   0  0  0  0  0  2  0  0  0  0  0  0
  189.5060  176.9450  144.4780 C   0  0  1  0  0  3  0  0  0  0  0  0
  193.5320  173.8090  141.1900 O   0  0  0  0  0  0  0  0  0  0  0  0
  188.8160  177.2560  145.8050 C   0  0  0  0  0  2  0  0  0  0  0  0
  193.1760  175.3980  142.9320 C   0  0  0  0  0  2  0  0  0  0  0  0
  193.6840  175.8360  144.2960 C   0  0  1  0  0  3  0  0  0  0  0  0
  188.6500  172.6630  140.4440 C   0  0  0  0  0  2  0  0  0  0  0  0
  194.1170  172.5630  140.9510 C   0  0  1  0  0  3  0  0  0  0  0  0
  189.1940  172.9870  142.8150 C   0  0  0  0  0  0  0  0  0  0  0  0
  191.5860  176.0640  145.6570 C   0  0  1  0  0  3  0  0  0  0  0  0
  190.4580  175.7900  144.7080 C   0  0  0  0  0  0  0  0  0  0  0  0
  193.1340  171.6350  140.2550 C   0  0  0  0  0  2  0  0  0  0  0  0
  192.1000  171.1170  141.2430 C   0  0  0  0  0  2  0  0  0  0  0  0
  189.8390  171.7020  140.3430 C   0  0  0  0  0  2  0  0  0  0  0  0
  187.0840  176.9370  143.7300 C   0  0  0  0  0  2  0  0  0  0  0  0
  186.4110  177.8750  141.6460 C   0  0  2  0  0  3  0  0  0  0  0  0
  188.8210  177.9430  142.2750 C   0  0  0  0  0  2  0  0  0  0  0  0
  187.8450  177.8410  141.1110 C   0  0  0  0  0  2  0  0  0  0  0  0
  186.1990  176.7630  142.5760 N   0  0  0  0  0  2  0  0  0  0  0  0
  188.5430  176.8330  143.2890 C   0  0  1  0  0  3  0  0  0  0  0  0
  185.4360  177.7590  140.4860 C   0  0  0  0  0  3  0  0  0  0  0  0
  184.6110  179.0280  140.3950 C   0  0  0  0  0  2  0  0  0  0  0  0
  184.0120  177.7810  141.0060 C   0  0  0  0  0  2  0  0  0  0  0  0
  195.3550  172.7230  140.0820 C   0  0  0  0  0  2  0  0  0  0  0  0
  195.3750  175.1830  138.6420 O   0  0  0  0  0  0  0  0  0  0  0  0
  194.9300  174.1640  138.0440 C   0  0  0  0  0  0  0  0  0  0  0  0
  194.9620  172.8850  138.6880 N   0  0  0  0  0  2  0  0  0  0  0  0
  194.3980  174.2630  136.7520 O   0  0  0  0  0  0  0  0  0  0  0  0
  193.7020  173.2130  136.0660 C   0  0  2  0  0  3  0  0  0  0  0  0
  194.3810  172.8160  134.7420 C   0  0  0  0  0  3  0  0  0  0  0  0
  195.4880  173.6350  134.5130 O   0  0  0  0  0  1  0  0  0  0  0  0
  194.8010  171.4870  134.7770 O   0  0  0  0  0  1  0  0  0  0  0  0
  191.6540  173.8630  137.3900 C   0  0  0  0  0  1  0  0  0  0  0  0
  192.1630  173.4450  136.0060 C   0  0  2  0  0  0  0  0  0  0  0  0
  190.4120  172.3900  134.6780 O   0  0  0  0  0  1  0  0  0  0  0  0
  191.4450  172.1400  135.5900 C   0  0  2  0  0  3  0  0  0  0  0  0
  190.9380  171.3000  136.7720 C   0  0  1  0  0  3  0  0  0  0  0  0
  189.6430  170.8220  136.5390 O   0  0  0  0  0  1  0  0  0  0  0  0
  191.8820  170.1460  137.0830 C   0  0  0  0  0  2  0  0  0  0  0  0
  191.3480  169.3140  138.0690 O   0  0  0  0  0  1  0  0  0  0  0  0
  191.8020  174.5210  134.9650 C   0  0  0  0  0  2  0  0  0  0  0  0
  191.1250  175.6040  135.5330 O   0  0  0  0  0  1  0  0  0  0  0  0
  1 13  1  0  0  0  0
  2 18  1  0  0  0  0
  4  5  1  0  0  0  0
  5  9  2  0  0  0  0
  6  7  2  0  0  0  0
  7  9  1  0  0  0  0
 10 22  1  0  0  0  0
 11  6  1  0  0  0  0
 11  4  2  0  0  0  0
 12 27  1  6  0  0  0
 12 14  1  0  0  0  0
 13 24  2  0  0  0  0
 14 22  1  0  0  0  0
 15 24  1  0  0  0  0
 15 17  1  1  0  0  0
 16  2  1  0  0  0  0
 17  6  1  0  0  0  0
 18 19  1  0  0  0  0
 19  3  1  6  0  0  0
 19  8  1  0  0  0  0
 20 10  1  0  0  0  0
 21 37  1  6  0  0  0
 21 16  1  0  0  0  0
 22  1  2  0  0  0  0
 23  8  1  6  0  0  0
 23 11  1  0  0  0  0
 24 23  1  0  0  0  0
 25 21  1  0  0  0  0
 25 26  1  0  0  0  0
 26 12  1  0  0  0  0
 27 20  1  0  0  0  0
 29 34  1  6  0  0  0
 29 32  1  0  0  0  0
 31 29  1  0  0  0  0
 31 30  1  0  0  0  0
 32 28  1  0  0  0  0
 33 30  1  6  0  0  0
 33 28  1  0  0  0  0
 33 15  1  0  0  0  0
 34 36  1  0  0  0  0
 35 34  1  0  0  0  0
 35 36  1  0  0  0  0
 39 38  2  0  0  0  0
 39 40  1  0  0  0  0
 40 37  1  0  0  0  0
 41 39  1  0  0  0  0
 42 43  1  6  0  0  0
 42 41  1  0  0  0  0
 43 45  1  0  0  0  0
 44 43  1  0  0  0  0
 47 42  1  0  0  0  0
 47 46  1  1  0  0  0
 49 48  1  6  0  0  0
 49 47  1  0  0  0  0
 49 50  1  0  0  0  0
 50 51  1  6  0  0  0
 50 52  1  0  0  0  0
 52 53  1  0  0  0  0
 54 55  1  0  0  0  0
 54 47  1  0  0  0  0
M  END
>  <MODEL>
3

>  <REMARK>
 VINA RESULT:      -6.5      2.770      5.315
  Name = 
  12 active torsions:
  status: ('A' for Active; 'I' for Inactive)
    1  A    between atoms: C_1  and  C_53
    2  A    between atoms: C_6  and  C_14
    3  A    between atoms: C_8  and  N_22
    4  A    between atoms: C_8  and  C_43
    5  A    between atoms: C_10  and  C_32
    6  A    between atoms: C_11  and  C_29
    7  A    between atoms: C_14  and  C_38
    8  A    between atoms: C_14  and  C_53
    9  A    between atoms: C_20  and  O_42
   10  A    between atoms: C_29  and  C_38
   11  A    between atoms: C_33  and  C_52
   12  A    between atoms: O_42  and  C_53
                            x       y       z     vdW  Elec       q    Type
                         _______ _______ _______ _____ _____    ______ ____

>  <TORSDO>
F 12

$$$$
=
 OpenBabel11052419233D

 55 60  0  0  1  0  0  0  0  0999 V2000
  193.7480  170.7640  141.6600 N   0  0  0  0  0  0  0  0  0  0  0  0
  190.5830  173.5290  139.4020 C   0  0  0  0  0  2  0  0  0  0  0  0
  192.0070  174.2550  136.8220 O   0  0  0  0  0  1  0  0  0  0  0  0
  195.0990  170.6770  135.7940 C   0  0  0  0  0  3  0  0  0  0  0  0
  196.1350  170.1730  135.0020 C   0  0  0  0  0  3  0  0  0  0  0  0
  196.5730  170.6580  137.7290 C   0  0  0  0  0  0  0  0  0  0  0  0
  197.5980  170.1410  136.9270 C   0  0  0  0  0  3  0  0  0  0  0  0
  193.8420  172.9190  137.5220 C   0  0  0  0  0  2  0  0  0  0  0  0
  197.3830  169.9050  135.5670 C   0  0  0  0  0  3  0  0  0  0  0  0
  193.0640  170.4970  143.9570 C   0  0  0  0  0  2  0  0  0  0  0  0
  195.3000  170.9220  137.1590 C   0  0  0  0  0  0  0  0  0  0  0  0
  190.6930  171.7900  142.7410 C   0  0  1  0  0  3  0  0  0  0  0  0
  193.5400  170.9560  140.2590 C   0  0  0  0  0  3  0  0  0  0  0  0
  191.3420  170.5770  142.0800 C   0  0  0  0  0  2  0  0  0  0  0  0
  195.8780  171.8590  139.8130 C   0  0  1  0  0  3  0  0  0  0  0  0
  190.2890  174.0740  140.6560 O   0  0  0  0  0  0  0  0  0  0  0  0
  196.8320  170.8330  139.2040 C   0  0  0  0  0  2  0  0  0  0  0  0
  192.0680  173.6640  139.1230 C   0  0  0  0  0  2  0  0  0  0  0  0
  192.3640  173.2300  137.6960 C   0  0  1  0  0  3  0  0  0  0  0  0
  192.3790  171.6960  144.6170 C   0  0  0  0  0  2  0  0  0  0  0  0
  188.9410  173.7740  140.8720 C   0  0  1  0  0  3  0  0  0  0  0  0
  192.7830  170.5320  142.4930 C   0  0  0  0  0  0  0  0  0  0  0  0
  194.1570  171.4940  137.9710 C   0  0  1  0  0  3  0  0  0  0  0  0
  194.4660  171.4630  139.4380 C   0  0  0  0  0  0  0  0  0  0  0  0
  188.7280  173.2570  142.2850 C   0  0  0  0  0  2  0  0  0  0  0  0
  189.2130  171.8200  142.4060 C   0  0  0  0  0  2  0  0  0  0  0  0
  190.8890  171.7430  144.2620 C   0  0  0  0  0  2  0  0  0  0  0  0
  197.6280  171.9850  141.6440 C   0  0  0  0  0  2  0  0  0  0  0  0
  197.5200  173.6170  143.3740 C   0  0  2  0  0  3  0  0  0  0  0  0
  195.7430  173.5940  141.6280 C   0  0  0  0  0  2  0  0  0  0  0  0
  196.0400  173.8920  143.0910 C   0  0  0  0  0  2  0  0  0  0  0  0
  197.8340  172.2190  143.0750 N   0  0  0  0  0  2  0  0  0  0  0  0
  196.1520  172.1590  141.2930 C   0  0  1  0  0  3  0  0  0  0  0  0
  197.8140  173.9020  144.8380 C   0  0  0  0  0  3  0  0  0  0  0  0
  197.1460  172.8470  145.6980 C   0  0  0  0  0  2  0  0  0  0  0  0
  196.5260  174.2210  145.5700 C   0  0  0  0  0  2  0  0  0  0  0  0
  188.0880  175.0150  140.6590 C   0  0  0  0  0  2  0  0  0  0  0  0
  187.9580  177.8520  140.9100 O   0  0  0  0  0  0  0  0  0  0  0  0
  187.9630  177.1730  141.9750 C   0  0  0  0  0  0  0  0  0  0  0  0
  187.9530  175.7430  141.9140 N   0  0  0  0  0  2  0  0  0  0  0  0
  187.9820  177.8020  143.2270 O   0  0  0  0  0  0  0  0  0  0  0  0
  187.8460  177.1290  144.4870 C   0  0  2  0  0  3  0  0  0  0  0  0
  186.6600  177.6540  145.3170 C   0  0  0  0  0  3  0  0  0  0  0  0
  186.2000  178.8570  144.7770 O   0  0  0  0  0  1  0  0  0  0  0  0
  185.6140  176.7340  145.3280 O   0  0  0  0  0  1  0  0  0  0  0  0
  190.1400  178.1210  144.8370 C   0  0  0  0  0  1  0  0  0  0  0  0
  189.2000  176.9810  145.2420 C   0  0  2  0  0  0  0  0  0  0  0  0
  189.3890  174.5870  145.6650 O   0  0  0  0  0  1  0  0  0  0  0  0
  189.8700  175.6360  144.8720 C   0  0  2  0  0  3  0  0  0  0  0  0
  191.4050  175.6750  144.8910 C   0  0  1  0  0  3  0  0  0  0  0  0
  191.9230  174.8920  145.9290 O   0  0  0  0  0  1  0  0  0  0  0  0
  191.9920  175.2380  143.5540 C   0  0  0  0  0  2  0  0  0  0  0  0
  191.6380  176.1280  142.5380 O   0  0  0  0  0  1  0  0  0  0  0  0
  188.9920  176.9870  146.7670 C   0  0  0  0  0  2  0  0  0  0  0  0
  190.0630  177.5720  147.4480 O   0  0  0  0  0  1  0  0  0  0  0  0
  1 22  2  0  0  0  0
  2 16  1  0  0  0  0
  4 11  1  0  0  0  0
  5  9  1  0  0  0  0
  5  4  2  0  0  0  0
  6 17  1  0  0  0  0
  7  6  1  0  0  0  0
  8 19  1  0  0  0  0
  9  7  2  0  0  0  0
 10 20  1  0  0  0  0
 11  6  2  0  0  0  0
 11 23  1  0  0  0  0
 12 14  1  6  0  0  0
 12 27  1  0  0  0  0
 13  1  1  0  0  0  0
 14 22  1  0  0  0  0
 15 17  1  1  0  0  0
 15 33  1  0  0  0  0
 16 21  1  0  0  0  0
 18  2  1  0  0  0  0
 19  3  1  6  0  0  0
 19 18  1  0  0  0  0
 21 37  1  1  0  0  0
 21 25  1  0  0  0  0
 22 10  1  0  0  0  0
 23  8  1  6  0  0  0
 23 24  1  0  0  0  0
 24 15  1  0  0  0  0
 24 13  2  0  0  0  0
 25 26  1  0  0  0  0
 26 12  1  0  0  0  0
 27 20  1  0  0  0  0
 28 32  1  0  0  0  0
 29 34  1  1  0  0  0
 30 31  1  0  0  0  0
 31 29  1  0  0  0  0
 32 29  1  0  0  0  0
 33 30  1  6  0  0  0
 33 28  1  0  0  0  0
 34 36  1  0  0  0  0
 34 35  1  0  0  0  0
 36 35  1  0  0  0  0
 37 40  1  0  0  0  0
 38 39  2  0  0  0  0
 39 41  1  0  0  0  0
 40 39  1  0  0  0  0
 42 41  1  6  0  0  0
 42 47  1  0  0  0  0
 42 43  1  0  0  0  0
 43 45  1  0  0  0  0
 44 43  1  0  0  0  0
 47 46  1  6  0  0  0
 47 54  1  0  0  0  0
 49 50  1  0  0  0  0
 49 47  1  0  0  0  0
 49 48  1  1  0  0  0
 50 51  1  1  0  0  0
 52 50  1  0  0  0  0
 53 52  1  0  0  0  0
 54 55  1  0  0  0  0
M  END
>  <MODEL>
4

>  <REMARK>
 VINA RESULT:      -6.4      2.847      9.649
  Name = 
  12 active torsions:
  status: ('A' for Active; 'I' for Inactive)
    1  A    between atoms: C_1  and  C_53
    2  A    between atoms: C_6  and  C_14
    3  A    between atoms: C_8  and  N_22
    4  A    between atoms: C_8  and  C_43
    5  A    between atoms: C_10  and  C_32
    6  A    between atoms: C_11  and  C_29
    7  A    between atoms: C_14  and  C_38
    8  A    between atoms: C_14  and  C_53
    9  A    between atoms: C_20  and  O_42
   10  A    between atoms: C_29  and  C_38
   11  A    between atoms: C_33  and  C_52
   12  A    between atoms: O_42  and  C_53
                            x       y       z     vdW  Elec       q    Type
                         _______ _______ _______ _____ _____    ______ ____

>  <TORSDO>
F 12

$$$$
=
 OpenBabel11052419233D

 55 60  0  0  1  0  0  0  0  0999 V2000
  193.8890  170.8190  141.5920 N   0  0  0  0  0  0  0  0  0  0  0  0
  190.7660  173.7930  139.5530 C   0  0  0  0  0  2  0  0  0  0  0  0
  192.2630  174.8120  137.1170 O   0  0  0  0  0  1  0  0  0  0  0  0
  195.4270  171.3950  135.8010 C   0  0  0  0  0  3  0  0  0  0  0  0
  196.4940  170.9910  134.9920 C   0  0  0  0  0  3  0  0  0  0  0  0
  196.8390  171.1730  137.7700 C   0  0  0  0  0  0  0  0  0  0  0  0
  197.8950  170.7570  136.9490 C   0  0  0  0  0  3  0  0  0  0  0  0
  194.0910  173.4210  137.7250 C   0  0  0  0  0  2  0  0  0  0  0  0
  197.7260  170.6720  135.5650 C   0  0  0  0  0  3  0  0  0  0  0  0
  193.1360  170.2920  143.8230 C   0  0  0  0  0  2  0  0  0  0  0  0
  195.5820  171.4880  137.1910 C   0  0  0  0  0  0  0  0  0  0  0  0
  190.7900  171.6930  142.6800 C   0  0  1  0  0  3  0  0  0  0  0  0
  193.7240  171.1630  140.2150 C   0  0  0  0  0  3  0  0  0  0  0  0
  191.4740  170.5670  141.9100 C   0  0  0  0  0  2  0  0  0  0  0  0
  196.0650  172.1300  139.9500 C   0  0  1  0  0  3  0  0  0  0  0  0
  190.4260  174.1920  140.8490 O   0  0  0  0  0  0  0  0  0  0  0  0
  197.0490  171.1840  139.2630 C   0  0  0  0  0  2  0  0  0  0  0  0
  192.2580  173.9700  139.3390 C   0  0  0  0  0  2  0  0  0  0  0  0
  192.6040  173.6990  137.8840 C   0  0  1  0  0  3  0  0  0  0  0  0
  192.4170  171.4050  144.5880 C   0  0  0  0  0  2  0  0  0  0  0  0
  189.0760  173.8590  140.9860 C   0  0  1  0  0  3  0  0  0  0  0  0
  192.9010  170.4880  142.3630 C   0  0  0  0  0  0  0  0  0  0  0  0
  194.4070  171.9570  138.0230 C   0  0  1  0  0  3  0  0  0  0  0  0
  194.6700  171.7660  139.4870 C   0  0  0  0  0  0  0  0  0  0  0  0
  188.8240  173.1860  142.3250 C   0  0  0  0  0  2  0  0  0  0  0  0
  189.3210  171.7490  142.3010 C   0  0  0  0  0  2  0  0  0  0  0  0
  190.9380  171.4790  144.1920 C   0  0  0  0  0  2  0  0  0  0  0  0
  197.7720  172.3580  141.8110 C   0  0  0  0  0  2  0  0  0  0  0  0
  197.3420  173.6650  143.7550 C   0  0  2  0  0  3  0  0  0  0  0  0
  195.5890  173.5170  141.9910 C   0  0  0  0  0  2  0  0  0  0  0  0
  195.8350  173.6580  143.4870 C   0  0  0  0  0  2  0  0  0  0  0  0
  197.9410  172.4220  143.2640 N   0  0  0  0  0  2  0  0  0  0  0  0
  196.2870  172.2640  141.4620 C   0  0  1  0  0  3  0  0  0  0  0  0
  197.5890  173.7920  145.2490 C   0  0  0  0  0  3  0  0  0  0  0  0
  196.8170  172.7100  145.9790 C   0  0  0  0  0  2  0  0  0  0  0  0
  196.2920  174.1280  145.9590 C   0  0  0  0  0  2  0  0  0  0  0  0
  188.2160  175.1090  140.8840 C   0  0  0  0  0  2  0  0  0  0  0  0
  189.2680  176.7890  142.9320 O   0  0  0  0  0  0  0  0  0  0  0  0
  188.1920  176.1750  143.1800 C   0  0  0  0  0  0  0  0  0  0  0  0
  187.5750  175.3740  142.1660 N   0  0  0  0  0  2  0  0  0  0  0  0
  187.5890  176.2610  144.4410 O   0  0  0  0  0  0  0  0  0  0  0  0
  187.6220  177.4170  145.2910 C   0  0  2  0  0  3  0  0  0  0  0  0
  188.4660  177.1970  146.5600 C   0  0  0  0  0  3  0  0  0  0  0  0
  188.3350  175.8770  146.9940 O   0  0  0  0  0  1  0  0  0  0  0  0
  189.8120  177.4610  146.3150 O   0  0  0  0  0  1  0  0  0  0  0  0
  185.1930  176.9470  145.7880 C   0  0  0  0  0  1  0  0  0  0  0  0
  186.2160  178.0520  145.5030 C   0  0  2  0  0  0  0  0  0  0  0  0
  185.4250  180.1340  144.5130 O   0  0  0  0  0  1  0  0  0  0  0  0
  185.7790  178.8100  144.2270 C   0  0  2  0  0  3  0  0  0  0  0  0
  184.6690  178.1080  143.4300 C   0  0  1  0  0  3  0  0  0  0  0  0
  183.4660  178.8230  143.4920 O   0  0  0  0  0  1  0  0  0  0  0  0
  185.0780  177.8830  141.9810 C   0  0  0  0  0  2  0  0  0  0  0  0
  186.1850  178.6660  141.6450 O   0  0  0  0  0  1  0  0  0  0  0  0
  186.2310  179.0680  146.6590 C   0  0  0  0  0  2  0  0  0  0  0  0
  185.1640  178.8830  147.5430 O   0  0  0  0  0  1  0  0  0  0  0  0
  1 22  2  0  0  0  0
  2 16  1  0  0  0  0
  4 11  1  0  0  0  0
  5  9  1  0  0  0  0
  5  4  2  0  0  0  0
  6 17  1  0  0  0  0
  7  6  1  0  0  0  0
  8 19  1  0  0  0  0
  9  7  2  0  0  0  0
 10 20  1  0  0  0  0
 11  6  2  0  0  0  0
 11 23  1  0  0  0  0
 12 14  1  6  0  0  0
 12 27  1  0  0  0  0
 13  1  1  0  0  0  0
 14 22  1  0  0  0  0
 15 17  1  1  0  0  0
 15 33  1  0  0  0  0
 16 21  1  0  0  0  0
 18  2  1  0  0  0  0
 19  3  1  6  0  0  0
 19 18  1  0  0  0  0
 21 37  1  1  0  0  0
 21 25  1  0  0  0  0
 22 10  1  0  0  0  0
 23  8  1  1  0  0  0
 23 24  1  0  0  0  0
 24 15  1  0  0  0  0
 24 13  2  0  0  0  0
 26 25  1  0  0  0  0
 26 12  1  0  0  0  0
 27 20  1  0  0  0  0
 28 32  1  0  0  0  0
 29 34  1  1  0  0  0
 30 31  1  0  0  0  0
 31 29  1  0  0  0  0
 32 29  1  0  0  0  0
 33 28  1  6  0  0  0
 33 30  1  0  0  0  0
 34 36  1  0  0  0  0
 34 35  1  0  0  0  0
 36 35  1  0  0  0  0
 37 40  1  0  0  0  0
 38 39  2  0  0  0  0
 39 41  1  0  0  0  0
 40 39  1  0  0  0  0
 42 41  1  1  0  0  0
 42 47  1  0  0  0  0
 42 43  1  0  0  0  0
 43 44  1  0  0  0  0
 45 43  1  0  0  0  0
 47 46  1  1  0  0  0
 47 54  1  0  0  0  0
 49 48  1  1  0  0  0
 49 47  1  0  0  0  0
 50 51  1  6  0  0  0
 50 49  1  0  0  0  0
 52 50  1  0  0  0  0
 53 52  1  0  0  0  0
 54 55  1  0  0  0  0
M  END
>  <MODEL>
5

>  <REMARK>
 VINA RESULT:      -6.3      3.049     10.258
  Name = 
  12 active torsions:
  status: ('A' for Active; 'I' for Inactive)
    1  A    between atoms: C_1  and  C_53
    2  A    between atoms: C_6  and  C_14
    3  A    between atoms: C_8  and  N_22
    4  A    between atoms: C_8  and  C_43
    5  A    between atoms: C_10  and  C_32
    6  A    between atoms: C_11  and  C_29
    7  A    between atoms: C_14  and  C_38
    8  A    between atoms: C_14  and  C_53
    9  A    between atoms: C_20  and  O_42
   10  A    between atoms: C_29  and  C_38
   11  A    between atoms: C_33  and  C_52
   12  A    between atoms: O_42  and  C_53
                            x       y       z     vdW  Elec       q    Type
                         _______ _______ _______ _____ _____    ______ ____

>  <TORSDO>
F 12

$$$$
=
 OpenBabel11052419233D

 55 60  0  0  1  0  0  0  0  0999 V2000
  189.5070  174.1180  143.8350 N   0  0  0  0  0  0  0  0  0  0  0  0
  194.2420  173.7800  143.3660 C   0  0  0  0  0  2  0  0  0  0  0  0
  195.2720  176.1380  144.9770 O   0  0  0  0  0  1  0  0  0  0  0  0
  192.0160  177.0930  148.4280 C   0  0  0  0  0  3  0  0  0  0  0  0
  191.5680  177.9190  149.4640 C   0  0  0  0  0  3  0  0  0  0  0  0
  190.0080  177.6080  147.1540 C   0  0  0  0  0  0  0  0  0  0  0  0
  189.5650  178.4210  148.2050 C   0  0  0  0  0  3  0  0  0  0  0  0
  193.0240  176.6730  145.5290 C   0  0  0  0  0  2  0  0  0  0  0  0
  190.3450  178.5820  149.3530 C   0  0  0  0  0  3  0  0  0  0  0  0
  188.4500  172.6760  142.2170 C   0  0  0  0  0  2  0  0  0  0  0  0
  191.2470  176.9240  147.2690 C   0  0  0  0  0  0  0  0  0  0  0  0
  191.2910  171.8650  142.0200 C   0  0  1  0  0  3  0  0  0  0  0  0
  190.5430  174.5180  144.7350 C   0  0  0  0  0  3  0  0  0  0  0  0
  190.6080  171.9780  143.3800 C   0  0  0  0  0  2  0  0  0  0  0  0
  189.8960  176.9800  144.7330 C   0  0  1  0  0  3  0  0  0  0  0  0
  194.0010  173.4100  142.0400 O   0  0  0  0  0  0  0  0  0  0  0  0
  189.1020  177.4110  145.9650 C   0  0  0  0  0  2  0  0  0  0  0  0
  193.5850  175.1190  143.6500 C   0  0  0  0  0  2  0  0  0  0  0  0
  193.9860  175.6040  145.0330 C   0  0  1  0  0  3  0  0  0  0  0  0
  189.1480  172.5290  140.8640 C   0  0  0  0  0  2  0  0  0  0  0  0
  194.5210  172.1180  141.9270 C   0  0  1  0  0  3  0  0  0  0  0  0
  189.4790  172.9580  143.2580 C   0  0  0  0  0  0  0  0  0  0  0  0
  191.7850  176.0420  146.1610 C   0  0  1  0  0  3  0  0  0  0  0  0
  190.7400  175.7830  145.1180 C   0  0  0  0  0  0  0  0  0  0  0  0
  193.5490  171.2140  141.1850 C   0  0  0  0  0  2  0  0  0  0  0  0
  192.3910  170.8210  142.0890 C   0  0  0  0  0  2  0  0  0  0  0  0
  190.2740  171.4910  140.9350 C   0  0  0  0  0  2  0  0  0  0  0  0
  187.5680  176.6530  143.7820 C   0  0  0  0  0  2  0  0  0  0  0  0
  186.8730  177.7210  141.7700 C   0  0  2  0  0  3  0  0  0  0  0  0
  189.1850  178.1210  142.6090 C   0  0  0  0  0  2  0  0  0  0  0  0
  188.3210  178.0030  141.3610 C   0  0  0  0  0  2  0  0  0  0  0  0
  186.8060  176.4790  142.5430 N   0  0  0  0  0  2  0  0  0  0  0  0
  189.0470  176.8580  143.4600 C   0  0  1  0  0  3  0  0  0  0  0  0
  186.0120  177.5900  140.5240 C   0  0  0  0  0  3  0  0  0  0  0  0
  185.0840  178.7850  140.4270 C   0  0  0  0  0  2  0  0  0  0  0  0
  184.5540  177.4560  140.9170 C   0  0  0  0  0  2  0  0  0  0  0  0
  195.8450  172.1490  141.1800 C   0  0  0  0  0  2  0  0  0  0  0  0
  196.4640  170.9560  138.6660 O   0  0  0  0  0  0  0  0  0  0  0  0
  196.0610  172.1520  138.6580 C   0  0  0  0  0  0  0  0  0  0  0  0
  195.6650  172.7840  139.8810 N   0  0  0  0  0  2  0  0  0  0  0  0
  195.9970  172.8810  137.4630 O   0  0  0  0  0  0  0  0  0  0  0  0
  194.7880  173.2280  136.7740 C   0  0  2  0  0  3  0  0  0  0  0  0
  194.5200  172.3300  135.5530 C   0  0  0  0  0  3  0  0  0  0  0  0
  195.5900  172.4150  134.6590 O   0  0  0  0  0  1  0  0  0  0  0  0
  194.3580  171.0010  135.9380 O   0  0  0  0  0  1  0  0  0  0  0  0
  194.1610  175.4290  137.8380 C   0  0  0  0  0  1  0  0  0  0  0  0
  194.6410  174.7620  136.5450 C   0  0  2  0  0  0  0  0  0  0  0  0
  194.0680  175.9800  134.5130 O   0  0  0  0  0  1  0  0  0  0  0  0
  193.6000  175.0350  135.4340 C   0  0  2  0  0  3  0  0  0  0  0  0
  192.2110  175.4260  135.9590 C   0  0  1  0  0  3  0  0  0  0  0  0
  191.7020  176.5390  135.2770 O   0  0  0  0  0  1  0  0  0  0  0  0
  191.2330  174.2600  135.8760 C   0  0  0  0  0  2  0  0  0  0  0  0
  190.2000  174.4070  136.8040 O   0  0  0  0  0  1  0  0  0  0  0  0
  195.9730  175.3880  136.0920 C   0  0  0  0  0  2  0  0  0  0  0  0
  196.6720  175.9730  137.1510 O   0  0  0  0  0  1  0  0  0  0  0  0
  1 13  1  0  0  0  0
  2 18  1  0  0  0  0
  4  5  1  0  0  0  0
  6 11  1  0  0  0  0
  6  7  2  0  0  0  0
  7  9  1  0  0  0  0
  9  5  2  0  0  0  0
 10 22  1  0  0  0  0
 11  4  2  0  0  0  0
 12 27  1  6  0  0  0
 12 26  1  0  0  0  0
 12 14  1  0  0  0  0
 13 24  2  0  0  0  0
 15 24  1  0  0  0  0
 15 17  1  1  0  0  0
 16  2  1  0  0  0  0
 17  6  1  0  0  0  0
 18 19  1  0  0  0  0
 19  3  1  6  0  0  0
 19  8  1  0  0  0  0
 20 27  1  0  0  0  0
 20 10  1  0  0  0  0
 21 37  1  6  0  0  0
 21 16  1  0  0  0  0
 22 14  1  0  0  0  0
 22  1  2  0  0  0  0
 23  8  1  6  0  0  0
 23 11  1  0  0  0  0
 24 23  1  0  0  0  0
 25 21  1  0  0  0  0
 25 26  1  0  0  0  0
 29 34  1  6  0  0  0
 29 32  1  0  0  0  0
 31 29  1  0  0  0  0
 31 30  1  0  0  0  0
 32 28  1  0  0  0  0
 33 30  1  6  0  0  0
 33 28  1  0  0  0  0
 33 15  1  0  0  0  0
 34 36  1  0  0  0  0
 35 34  1  0  0  0  0
 35 36  1  0  0  0  0
 39 38  2  0  0  0  0
 39 40  1  0  0  0  0
 40 37  1  0  0  0  0
 41 39  1  0  0  0  0
 42 43  1  6  0  0  0
 42 41  1  0  0  0  0
 43 45  1  0  0  0  0
 44 43  1  0  0  0  0
 47 42  1  0  0  0  0
 47 46  1  1  0  0  0
 49 48  1  6  0  0  0
 49 50  1  0  0  0  0
 49 47  1  0  0  0  0
 50 51  1  6  0  0  0
 52 50  1  0  0  0  0
 52 53  1  0  0  0  0
 54 47  1  0  0  0  0
 54 55  1  0  0  0  0
M  END
>  <MODEL>
6

>  <REMARK>
 VINA RESULT:      -5.6      2.700      4.886
  Name = 
  12 active torsions:
  status: ('A' for Active; 'I' for Inactive)
    1  A    between atoms: C_1  and  C_53
    2  A    between atoms: C_6  and  C_14
    3  A    between atoms: C_8  and  N_22
    4  A    between atoms: C_8  and  C_43
    5  A    between atoms: C_10  and  C_32
    6  A    between atoms: C_11  and  C_29
    7  A    between atoms: C_14  and  C_38
    8  A    between atoms: C_14  and  C_53
    9  A    between atoms: C_20  and  O_42
   10  A    between atoms: C_29  and  C_38
   11  A    between atoms: C_33  and  C_52
   12  A    between atoms: O_42  and  C_53
                            x       y       z     vdW  Elec       q    Type
                         _______ _______ _______ _____ _____    ______ ____

>  <TORSDO>
F 12

$$$$
=
 OpenBabel11052419233D

 55 60  0  0  1  0  0  0  0  0999 V2000
  191.7150  171.7310  135.9360 N   0  0  0  0  0  0  0  0  0  0  0  0
  190.3090  171.2580  140.4700 C   0  0  0  0  0  2  0  0  0  0  0  0
  188.7300  173.8010  140.9790 O   0  0  0  0  0  1  0  0  0  0  0  0
  186.9180  175.2770  136.7410 C   0  0  0  0  0  3  0  0  0  0  0  0
  186.2390  176.2460  135.9950 C   0  0  0  0  0  3  0  0  0  0  0  0
  188.9110  175.6400  135.3930 C   0  0  0  0  0  0  0  0  0  0  0  0
  188.2150  176.5980  134.6450 C   0  0  0  0  0  3  0  0  0  0  0  0
  189.1420  174.4420  138.7280 C   0  0  0  0  0  2  0  0  0  0  0  0
  186.8860  176.9050  134.9490 C   0  0  0  0  0  3  0  0  0  0  0  0
  193.4240  170.0940  135.4670 C   0  0  0  0  0  2  0  0  0  0  0  0
  188.2520  174.9600  136.4510 C   0  0  0  0  0  0  0  0  0  0  0  0
  192.4270  169.2200  138.1150 C   0  0  1  0  0  3  0  0  0  0  0  0
  190.5470  172.2360  136.5850 C   0  0  0  0  0  3  0  0  0  0  0  0
  191.4530  169.5310  136.9820 C   0  0  0  0  0  2  0  0  0  0  0  0
  191.0970  174.6840  136.1520 C   0  0  1  0  0  3  0  0  0  0  0  0
  191.5710  170.7110  140.7180 O   0  0  0  0  0  0  0  0  0  0  0  0
  190.3210  175.2940  134.9860 C   0  0  0  0  0  2  0  0  0  0  0  0
  190.4620  172.6330  139.8460 C   0  0  0  0  0  2  0  0  0  0  0  0
  189.1010  173.3000  139.7320 C   0  0  1  0  0  3  0  0  0  0  0  0
  194.3810  169.7500  136.6090 C   0  0  0  0  0  2  0  0  0  0  0  0
  191.3190  169.4080  141.1540 C   0  0  1  0  0  3  0  0  0  0  0  0
  192.1130  170.5020  136.0490 C   0  0  0  0  0  0  0  0  0  0  0  0
  188.9550  173.9240  137.3040 C   0  0  1  0  0  3  0  0  0  0  0  0
  190.2760  173.5390  136.7090 C   0  0  0  0  0  0  0  0  0  0  0  0
  192.2560  168.4250  140.4720 C   0  0  0  0  0  2  0  0  0  0  0  0
  191.8180  168.1790  139.0360 C   0  0  0  0  0  2  0  0  0  0  0  0
  193.7620  168.7150  137.5540 C   0  0  0  0  0  2  0  0  0  0  0  0
  193.1970  175.5150  135.0000 C   0  0  0  0  0  2  0  0  0  0  0  0
  195.3650  175.1190  135.9050 C   0  0  2  0  0  3  0  0  0  0  0  0
  193.3730  174.2550  137.1280 C   0  0  0  0  0  2  0  0  0  0  0  0
  194.8380  173.9980  136.8060 C   0  0  0  0  0  2  0  0  0  0  0  0
  194.5820  175.1730  134.6680 N   0  0  0  0  0  2  0  0  0  0  0  0
  192.5710  174.3990  135.8350 C   0  0  1  0  0  3  0  0  0  0  0  0
  196.8240  174.8550  135.5720 C   0  0  0  0  0  3  0  0  0  0  0  0
  197.6570  176.0550  135.9820 C   0  0  0  0  0  2  0  0  0  0  0  0
  197.3000  175.8450  134.5270 C   0  0  0  0  0  2  0  0  0  0  0  0
  191.5050  169.3150  142.6610 C   0  0  0  0  0  2  0  0  0  0  0  0
  190.9560  171.6910  144.1370 O   0  0  0  0  0  0  0  0  0  0  0  0
  192.1510  171.4930  143.7770 C   0  0  0  0  0  0  0  0  0  0  0  0
  192.5030  170.2840  143.0960 N   0  0  0  0  0  2  0  0  0  0  0  0
  193.1450  172.4470  144.0290 O   0  0  0  0  0  0  0  0  0  0  0  0
  193.0900  173.8200  143.6160 C   0  0  2  0  0  3  0  0  0  0  0  0
  193.9800  174.1090  142.3930 C   0  0  0  0  0  3  0  0  0  0  0  0
  195.0570  173.2220  142.3700 O   0  0  0  0  0  1  0  0  0  0  0  0
  193.2570  173.9730  141.2090 O   0  0  0  0  0  1  0  0  0  0  0  0
  193.6430  174.0540  146.0670 C   0  0  0  0  0  1  0  0  0  0  0  0
  193.2170  174.8150  144.8080 C   0  0  2  0  0  0  0  0  0  0  0  0
  191.3570  175.1590  146.3460 O   0  0  0  0  0  1  0  0  0  0  0  0
  191.8530  175.4930  145.0800 C   0  0  2  0  0  3  0  0  0  0  0  0
  190.7970  175.2360  143.9950 C   0  0  1  0  0  3  0  0  0  0  0  0
  189.5910  174.7930  144.5510 O   0  0  0  0  0  1  0  0  0  0  0  0
  190.5630  176.4730  143.1380 C   0  0  0  0  0  2  0  0  0  0  0  0
  190.2570  177.5810  143.9310 O   0  0  0  0  0  1  0  0  0  0  0  0
  194.2310  175.9310  144.4980 C   0  0  0  0  0  2  0  0  0  0  0  0
  194.6880  176.5700  145.6540 O   0  0  0  0  0  1  0  0  0  0  0  0
  1 22  2  0  0  0  0
  1 13  1  0  0  0  0
  2 16  1  0  0  0  0
  5  4  2  0  0  0  0
  6 11  2  0  0  0  0
  7  9  2  0  0  0  0
  7  6  1  0  0  0  0
  8 19  1  0  0  0  0
  9  5  1  0  0  0  0
 10 22  1  0  0  0  0
 10 20  1  0  0  0  0
 11  4  1  0  0  0  0
 11 23  1  0  0  0  0
 12 14  1  6  0  0  0
 12 26  1  0  0  0  0
 13 24  2  0  0  0  0
 15 17  1  6  0  0  0
 15 24  1  0  0  0  0
 16 21  1  0  0  0  0
 17  6  1  0  0  0  0
 18  2  1  0  0  0  0
 19 18  1  0  0  0  0
 19  3  1  1  0  0  0
 20 27  1  0  0  0  0
 21 37  1  1  0  0  0
 22 14  1  0  0  0  0
 23  8  1  1  0  0  0
 24 23  1  0  0  0  0
 25 21  1  0  0  0  0
 26 25  1  0  0  0  0
 27 12  1  0  0  0  0
 29 34  1  6  0  0  0
 29 31  1  0  0  0  0
 31 30  1  0  0  0  0
 32 28  1  0  0  0  0
 32 29  1  0  0  0  0
 33 28  1  6  0  0  0
 33 15  1  0  0  0  0
 33 30  1  0  0  0  0
 34 35  1  0  0  0  0
 36 34  1  0  0  0  0
 36 35  1  0  0  0  0
 37 40  1  0  0  0  0
 39 41  1  0  0  0  0
 39 38  2  0  0  0  0
 40 39  1  0  0  0  0
 42 43  1  6  0  0  0
 42 41  1  0  0  0  0
 42 47  1  0  0  0  0
 44 43  1  0  0  0  0
 45 43  1  0  0  0  0
 47 49  1  0  0  0  0
 47 46  1  1  0  0  0
 49 48  1  1  0  0  0
 50 51  1  1  0  0  0
 50 49  1  0  0  0  0
 52 53  1  0  0  0  0
 52 50  1  0  0  0  0
 54 47  1  0  0  0  0
 54 55  1  0  0  0  0
M  END
>  <MODEL>
7

>  <REMARK>
 VINA RESULT:      -5.3      3.264      7.370
  Name = 
  12 active torsions:
  status: ('A' for Active; 'I' for Inactive)
    1  A    between atoms: C_1  and  C_53
    2  A    between atoms: C_6  and  C_14
    3  A    between atoms: C_8  and  N_22
    4  A    between atoms: C_8  and  C_43
    5  A    between atoms: C_10  and  C_32
    6  A    between atoms: C_11  and  C_29
    7  A    between atoms: C_14  and  C_38
    8  A    between atoms: C_14  and  C_53
    9  A    between atoms: C_20  and  O_42
   10  A    between atoms: C_29  and  C_38
   11  A    between atoms: C_33  and  C_52
   12  A    between atoms: O_42  and  C_53
                            x       y       z     vdW  Elec       q    Type
                         _______ _______ _______ _____ _____    ______ ____

>  <TORSDO>
F 12

$$$$
=
 OpenBabel11052419233D

 55 60  0  0  1  0  0  0  0  0999 V2000
  193.1750  170.8610  142.0490 N   0  0  0  0  0  0  0  0  0  0  0  0
  190.3010  173.1380  138.9980 C   0  0  0  0  0  2  0  0  0  0  0  0
  191.9020  173.1620  136.4180 O   0  0  0  0  0  1  0  0  0  0  0  0
  194.8340  169.3120  136.4730 C   0  0  0  0  0  3  0  0  0  0  0  0
  195.8810  168.5890  135.8930 C   0  0  0  0  0  3  0  0  0  0  0  0
  196.1980  169.6950  138.4510 C   0  0  0  0  0  0  0  0  0  0  0  0
  197.2340  168.9570  137.8630 C   0  0  0  0  0  3  0  0  0  0  0  0
  193.6170  171.9550  137.5350 C   0  0  0  0  0  2  0  0  0  0  0  0
  197.0790  168.4120  136.5870 C   0  0  0  0  0  3  0  0  0  0  0  0
  192.3540  171.1820  144.2940 C   0  0  0  0  0  2  0  0  0  0  0  0
  194.9750  169.8680  137.7520 C   0  0  0  0  0  0  0  0  0  0  0  0
  190.1300  172.2460  142.6530 C   0  0  1  0  0  3  0  0  0  0  0  0
  193.0550  170.7200  140.6320 C   0  0  0  0  0  3  0  0  0  0  0  0
  190.7440  170.8840  142.3410 C   0  0  0  0  0  2  0  0  0  0  0  0
  195.4620  171.3890  140.1410 C   0  0  1  0  0  3  0  0  0  0  0  0
  189.9720  173.9790  140.0650 O   0  0  0  0  0  0  0  0  0  0  0  0
  196.3860  170.2060  139.8570 C   0  0  0  0  0  2  0  0  0  0  0  0
  191.8050  173.1380  138.7930 C   0  0  0  0  0  2  0  0  0  0  0  0
  192.1520  172.3630  137.5320 C   0  0  1  0  0  3  0  0  0  0  0  0
  191.7050  172.5320  144.6040 C   0  0  0  0  0  2  0  0  0  0  0  0
  188.6000  173.7980  140.2550 C   0  0  1  0  0  3  0  0  0  0  0  0
  192.1550  170.8770  142.8480 C   0  0  0  0  0  0  0  0  0  0  0  0
  193.8240  170.6670  138.3280 C   0  0  1  0  0  3  0  0  0  0  0  0
  194.0510  170.9750  139.7780 C   0  0  0  0  0  0  0  0  0  0  0  0
  188.2810  173.6440  141.7340 C   0  0  0  0  0  2  0  0  0  0  0  0
  188.6750  172.2590  142.2220 C   0  0  0  0  0  2  0  0  0  0  0  0
  190.2410  172.5570  144.1510 C   0  0  0  0  0  2  0  0  0  0  0  0
  197.1280  171.9250  141.9760 C   0  0  0  0  0  2  0  0  0  0  0  0
  196.9670  173.9160  143.2740 C   0  0  2  0  0  3  0  0  0  0  0  0
  195.2730  173.4980  141.4950 C   0  0  0  0  0  2  0  0  0  0  0  0
  195.5080  174.1260  142.8630 C   0  0  0  0  0  2  0  0  0  0  0  0
  197.2700  172.4840  143.3220 N   0  0  0  0  0  2  0  0  0  0  0  0
  195.6720  172.0220  141.5230 C   0  0  1  0  0  3  0  0  0  0  0  0
  197.1990  174.5300  144.6440 C   0  0  0  0  0  3  0  0  0  0  0  0
  197.1800  173.4360  145.6950 C   0  0  0  0  0  2  0  0  0  0  0  0
  195.9730  174.3290  145.5130 C   0  0  0  0  0  2  0  0  0  0  0  0
  187.8320  174.9870  139.6990 C   0  0  0  0  0  2  0  0  0  0  0  0
  186.5820  177.5280  139.3700 O   0  0  0  0  0  0  0  0  0  0  0  0
  186.9130  177.1900  140.5420 C   0  0  0  0  0  0  0  0  0  0  0  0
  187.4780  175.8970  140.7810 N   0  0  0  0  0  2  0  0  0  0  0  0
  186.7390  178.0690  141.6190 O   0  0  0  0  0  0  0  0  0  0  0  0
  185.7450  177.9270  142.6440 C   0  0  2  0  0  3  0  0  0  0  0  0
  184.4140  178.6100  142.2790 C   0  0  0  0  0  3  0  0  0  0  0  0
  184.0000  178.1960  141.0120 O   0  0  0  0  0  1  0  0  0  0  0  0
  183.4220  178.2930  143.2050 O   0  0  0  0  0  1  0  0  0  0  0  0
  187.7630  178.6650  143.9670 C   0  0  0  0  0  1  0  0  0  0  0  0
  186.3000  178.2210  144.0690 C   0  0  2  0  0  0  0  0  0  0  0  0
  184.9830  176.8080  145.5570 O   0  0  0  0  0  1  0  0  0  0  0  0
  186.2320  176.9430  144.9390 C   0  0  2  0  0  3  0  0  0  0  0  0
  187.3660  176.8240  145.9680 C   0  0  1  0  0  3  0  0  0  0  0  0
  186.8640  176.7400  147.2720 O   0  0  0  0  0  1  0  0  0  0  0  0
  188.2710  175.6360  145.6690 C   0  0  0  0  0  2  0  0  0  0  0  0
  189.3870  176.0310  144.9280 O   0  0  0  0  0  1  0  0  0  0  0  0
  185.4690  179.3050  144.7790 C   0  0  0  0  0  2  0  0  0  0  0  0
  185.6150  180.5610  144.1840 O   0  0  0  0  0  1  0  0  0  0  0  0
  1 22  2  0  0  0  0
  2 16  1  0  0  0  0
  4 11  1  0  0  0  0
  5  4  2  0  0  0  0
  5  9  1  0  0  0  0
  6 17  1  0  0  0  0
  7  6  1  0  0  0  0
  9  7  2  0  0  0  0
 10 20  1  0  0  0  0
 11 23  1  0  0  0  0
 11  6  2  0  0  0  0
 12 26  1  1  0  0  0
 12 27  1  0  0  0  0
 13  1  1  0  0  0  0
 14 12  1  0  0  0  0
 14 22  1  0  0  0  0
 15 17  1  1  0  0  0
 15 33  1  0  0  0  0
 16 21  1  0  0  0  0
 18  2  1  0  0  0  0
 19  3  1  6  0  0  0
 19  8  1  0  0  0  0
 19 18  1  0  0  0  0
 21 37  1  1  0  0  0
 21 25  1  0  0  0  0
 22 10  1  0  0  0  0
 23  8  1  6  0  0  0
 23 24  1  0  0  0  0
 24 15  1  0  0  0  0
 24 13  2  0  0  0  0
 25 26  1  0  0  0  0
 27 20  1  0  0  0  0
 28 32  1  0  0  0  0
 29 32  1  0  0  0  0
 29 34  1  1  0  0  0
 30 31  1  0  0  0  0
 31 29  1  0  0  0  0
 33 30  1  6  0  0  0
 33 28  1  0  0  0  0
 34 36  1  0  0  0  0
 34 35  1  0  0  0  0
 36 35  1  0  0  0  0
 37 40  1  0  0  0  0
 38 39  2  0  0  0  0
 39 40  1  0  0  0  0
 39 41  1  0  0  0  0
 42 41  1  6  0  0  0
 42 47  1  0  0  0  0
 43 42  1  0  0  0  0
 43 45  1  0  0  0  0
 44 43  1  0  0  0  0
 47 46  1  6  0  0  0
 47 54  1  0  0  0  0
 47 49  1  0  0  0  0
 49 48  1  1  0  0  0
 49 50  1  0  0  0  0
 50 51  1  1  0  0  0
 52 50  1  0  0  0  0
 53 52  1  0  0  0  0
 55 54  1  0  0  0  0
M  END
>  <MODEL>
8

>  <REMARK>
 VINA RESULT:      -5.0      3.443     10.448
  Name = 
  12 active torsions:
  status: ('A' for Active; 'I' for Inactive)
    1  A    between atoms: C_1  and  C_53
    2  A    between atoms: C_6  and  C_14
    3  A    between atoms: C_8  and  N_22
    4  A    between atoms: C_8  and  C_43
    5  A    between atoms: C_10  and  C_32
    6  A    between atoms: C_11  and  C_29
    7  A    between atoms: C_14  and  C_38
    8  A    between atoms: C_14  and  C_53
    9  A    between atoms: C_20  and  O_42
   10  A    between atoms: C_29  and  C_38
   11  A    between atoms: C_33  and  C_52
   12  A    between atoms: O_42  and  C_53
                            x       y       z     vdW  Elec       q    Type
                         _______ _______ _______ _____ _____    ______ ____

>  <TORSDO>
F 12

$$$$
=
 OpenBabel11052419233D

 55 60  0  0  1  0  0  0  0  0999 V2000
  192.2270  172.1670  135.6710 N   0  0  0  0  0  0  0  0  0  0  0  0
  190.3130  171.0990  139.9080 C   0  0  0  0  0  2  0  0  0  0  0  0
  188.5480  173.4960  140.5000 O   0  0  0  0  0  1  0  0  0  0  0  0
  187.1810  175.3960  136.2640 C   0  0  0  0  0  3  0  0  0  0  0  0
  186.5440  176.4190  135.5540 C   0  0  0  0  0  3  0  0  0  0  0  0
  189.2980  175.9970  135.2280 C   0  0  0  0  0  0  0  0  0  0  0  0
  188.6450  177.0090  134.5130 C   0  0  0  0  0  3  0  0  0  0  0  0
  189.1920  174.4190  138.4070 C   0  0  0  0  0  2  0  0  0  0  0  0
  187.2750  177.2240  134.6800 C   0  0  0  0  0  3  0  0  0  0  0  0
  194.0660  170.6690  135.2360 C   0  0  0  0  0  2  0  0  0  0  0  0
  188.5550  175.1700  136.1110 C   0  0  0  0  0  0  0  0  0  0  0  0
  192.8070  169.4440  137.6210 C   0  0  1  0  0  3  0  0  0  0  0  0
  190.9630  172.5430  136.2210 C   0  0  0  0  0  3  0  0  0  0  0  0
  191.9610  169.8500  136.4180 C   0  0  0  0  0  2  0  0  0  0  0  0
  191.4260  175.0450  136.1420 C   0  0  1  0  0  3  0  0  0  0  0  0
  191.5650  170.5770  140.2480 O   0  0  0  0  0  0  0  0  0  0  0  0
  190.7630  175.7600  134.9650 C   0  0  0  0  0  2  0  0  0  0  0  0
  190.4650  172.5440  139.4680 C   0  0  0  0  0  2  0  0  0  0  0  0
  189.0930  173.1640  139.2620 C   0  0  1  0  0  3  0  0  0  0  0  0
  194.8970  170.2290  136.4430 C   0  0  0  0  0  2  0  0  0  0  0  0
  191.3330  169.2220  140.4990 C   0  0  1  0  0  3  0  0  0  0  0  0
  192.6740  170.9510  135.6920 C   0  0  0  0  0  0  0  0  0  0  0  0
  189.2060  174.0680  136.9210 C   0  0  1  0  0  3  0  0  0  0  0  0
  190.6080  173.8110  136.4570 C   0  0  0  0  0  0  0  0  0  0  0  0
  192.3980  168.3660  139.8320 C   0  0  0  0  0  2  0  0  0  0  0  0
  192.1500  168.2770  138.3340 C   0  0  0  0  0  2  0  0  0  0  0  0
  194.2260  169.0640  137.1790 C   0  0  0  0  0  2  0  0  0  0  0  0
  193.5410  175.8950  135.0320 C   0  0  0  0  0  2  0  0  0  0  0  0
  195.6470  175.8490  136.1440 C   0  0  2  0  0  3  0  0  0  0  0  0
  193.6360  174.9900  137.3380 C   0  0  0  0  0  2  0  0  0  0  0  0
  195.1410  174.8300  137.1680 C   0  0  0  0  0  2  0  0  0  0  0  0
  194.9740  175.6430  134.8600 N   0  0  0  0  0  2  0  0  0  0  0  0
  192.9410  174.8600  135.9820 C   0  0  1  0  0  3  0  0  0  0  0  0
  197.1470  175.6810  135.9640 C   0  0  0  0  0  3  0  0  0  0  0  0
  197.5230  174.2340  136.2150 C   0  0  0  0  0  2  0  0  0  0  0  0
  197.7820  175.2770  137.2800 C   0  0  0  0  0  2  0  0  0  0  0  0
  191.3420  168.9560  141.9960 C   0  0  0  0  0  2  0  0  0  0  0  0
  192.8670  168.7240  144.3930 O   0  0  0  0  0  0  0  0  0  0  0  0
  192.6870  169.8850  143.9290 C   0  0  0  0  0  0  0  0  0  0  0  0
  191.9920  170.0610  142.6890 N   0  0  0  0  0  2  0  0  0  0  0  0
  193.1560  171.0130  144.6140 O   0  0  0  0  0  0  0  0  0  0  0  0
  194.4040  171.6720  144.3570 C   0  0  2  0  0  3  0  0  0  0  0  0
  195.5940  170.9810  145.0470 C   0  0  0  0  0  3  0  0  0  0  0  0
  195.1750  170.4030  146.2470 O   0  0  0  0  0  1  0  0  0  0  0  0
  196.1350  169.9890  144.2320 O   0  0  0  0  0  1  0  0  0  0  0  0
  193.0560  173.5780  145.3130 C   0  0  0  0  0  1  0  0  0  0  0  0
  194.3170  173.2180  144.5210 C   0  0  2  0  0  0  0  0  0  0  0  0
  192.9530  174.3920  142.8770 O   0  0  0  0  0  1  0  0  0  0  0  0
  194.2380  173.8970  143.1330 C   0  0  2  0  0  3  0  0  0  0  0  0
  194.7230  173.0130  141.9750 C   0  0  1  0  0  3  0  0  0  0  0  0
  193.8280  173.0450  140.8990 O   0  0  0  0  0  1  0  0  0  0  0  0
  196.1200  173.4110  141.5160 C   0  0  0  0  0  2  0  0  0  0  0  0
  197.0940  172.6280  142.1390 O   0  0  0  0  0  1  0  0  0  0  0  0
  195.5630  173.7740  145.2340 C   0  0  0  0  0  2  0  0  0  0  0  0
  195.9840  174.9930  144.6970 O   0  0  0  0  0  1  0  0  0  0  0  0
  1 22  2  0  0  0  0
  1 13  1  0  0  0  0
  2 16  1  0  0  0  0
  5  4  2  0  0  0  0
  6 11  2  0  0  0  0
  7  9  2  0  0  0  0
  7  6  1  0  0  0  0
  8 19  1  0  0  0  0
  9  5  1  0  0  0  0
 10 22  1  0  0  0  0
 10 20  1  0  0  0  0
 11  4  1  0  0  0  0
 11 23  1  0  0  0  0
 12 14  1  6  0  0  0
 12 26  1  0  0  0  0
 13 24  2  0  0  0  0
 15 17  1  6  0  0  0
 15 24  1  0  0  0  0
 16 21  1  0  0  0  0
 17  6  1  0  0  0  0
 18  2  1  0  0  0  0
 19 18  1  0  0  0  0
 19  3  1  1  0  0  0
 20 27  1  0  0  0  0
 21 37  1  1  0  0  0
 22 14  1  0  0  0  0
 23  8  1  1  0  0  0
 24 23  1  0  0  0  0
 25 21  1  0  0  0  0
 26 25  1  0  0  0  0
 27 12  1  0  0  0  0
 29 34  1  6  0  0  0
 29 31  1  0  0  0  0
 31 30  1  0  0  0  0
 32 28  1  0  0  0  0
 32 29  1  0  0  0  0
 33 28  1  6  0  0  0
 33 15  1  0  0  0  0
 33 30  1  0  0  0  0
 34 35  1  0  0  0  0
 34 36  1  0  0  0  0
 35 36  1  0  0  0  0
 37 40  1  0  0  0  0
 39 38  2  0  0  0  0
 39 41  1  0  0  0  0
 40 39  1  0  0  0  0
 42 47  1  0  0  0  0
 42 41  1  1  0  0  0
 42 43  1  0  0  0  0
 43 44  1  0  0  0  0
 45 43  1  0  0  0  0
 47 54  1  0  0  0  0
 47 46  1  1  0  0  0
 49 48  1  6  0  0  0
 49 47  1  0  0  0  0
 50 51  1  6  0  0  0
 50 49  1  0  0  0  0
 52 50  1  0  0  0  0
 52 53  1  0  0  0  0
 55 54  1  0  0  0  0
M  END
>  <MODEL>
9

>  <REMARK>
 VINA RESULT:      -4.8      3.838      7.303
  Name = 
  12 active torsions:
  status: ('A' for Active; 'I' for Inactive)
    1  A    between atoms: C_1  and  C_53
    2  A    between atoms: C_6  and  C_14
    3  A    between atoms: C_8  and  N_22
    4  A    between atoms: C_8  and  C_43
    5  A    between atoms: C_10  and  C_32
    6  A    between atoms: C_11  and  C_29
    7  A    between atoms: C_14  and  C_38
    8  A    between atoms: C_14  and  C_53
    9  A    between atoms: C_20  and  O_42
   10  A    between atoms: C_29  and  C_38
   11  A    between atoms: C_33  and  C_52
   12  A    between atoms: O_42  and  C_53
                            x       y       z     vdW  Elec       q    Type
                         _______ _______ _______ _____ _____    ______ ____

>  <TORSDO>
F 12

$$$$
