=
 OpenBabel11052417343D

 25 28  0  0  1  0  0  0  0  0999 V2000
  187.0680  177.6960  144.1320 C   0  0  0  0  0  0  0  0  0  0  0  0
  188.3740  177.3260  143.8110 C   0  0  0  0  0  0  0  0  0  0  0  0
  186.2320  176.7420  142.0930 C   0  0  0  0  0  3  0  0  0  0  0  0
  186.5350  178.4920  145.2680 C   0  0  1  0  0  3  0  0  0  0  0  0
  184.4300  178.4680  147.2350 C   0  0  0  0  0  3  0  0  0  0  0  0
  187.5050  176.3610  141.7780 N   0  0  0  0  0  0  0  0  0  0  0  0
  185.0680  178.4650  144.9210 C   0  0  0  0  0  0  0  0  0  0  0  0
  184.0700  178.7070  145.9660 C   0  0  0  0  0  3  0  0  0  0  0  0
  189.9330  176.1370  142.1890 C   0  0  2  0  0  3  0  0  0  0  0  0
  190.0480  174.7870  142.5240 O   0  0  0  0  0  1  0  0  0  0  0  0
  189.5210  177.7180  144.7010 C   0  0  0  0  0  2  0  0  0  0  0  0
  185.7790  177.9280  147.5560 C   0  0  0  0  0  3  0  0  0  0  0  0
  186.0260  177.4320  143.2820 C   0  0  0  0  0  0  0  0  0  0  0  0
  184.7840  177.8770  143.8010 N   0  0  0  0  0  0  0  0  0  0  0  0
  191.0490  176.9300  142.8630 C   0  0  0  0  0  2  0  0  0  0  0  0
  186.7490  177.8750  146.6270 C   0  0  0  0  0  3  0  0  0  0  0  0
  190.7650  177.0690  144.2850 N   0  0  0  0  0  0  0  0  0  0  0  0
  188.5740  176.6400  142.5860 C   0  0  0  0  0  0  0  0  0  0  0  0
  191.7920  176.7350  145.2240 C   0  0  0  0  0  3  0  0  0  0  0  0
  192.9950  176.3940  144.8420 C   0  0  0  0  0  0  0  0  0  0  0  0
  194.1950  176.0570  144.4540 C   0  0  0  0  0  0  0  0  0  0  0  0
  194.5590  176.2510  143.1270 O   0  0  0  0  0  1  0  0  0  0  0  0
  195.1560  175.4780  145.4020 C   0  0  0  0  0  0  0  0  0  0  0  0
  196.3270  174.8820  144.9470 O   0  0  0  0  0  0  0  0  0  0  0  0
  194.9230  175.5210  146.6380 O   0  0  0  0  0  1  0  0  0  0  0  0
  1  4  1  0  0  0  0
  2  1  1  0  0  0  0
  2 11  1  0  0  0  0
  3 13  1  0  0  0  0
  4 16  1  1  0  0  0
  5 12  1  0  0  0  0
  6  3  2  0  0  0  0
  6 18  1  0  0  0  0
  7  4  1  0  0  0  0
  7  8  1  0  0  0  0
  8  5  2  0  0  0  0
  9 10  1  1  0  0  0
  9 18  1  0  0  0  0
  9 15  1  0  0  0  0
 13 14  1  0  0  0  0
 13  1  2  0  0  0  0
 14  7  2  0  0  0  0
 15 17  1  0  0  0  0
 16 12  2  0  0  0  0
 17 11  1  0  0  0  0
 17 19  1  0  0  0  0
 18  2  2  0  0  0  0
 20 19  2  0  0  0  0
 21 20  2  0  0  0  0
 21 23  1  0  0  0  0
 22 21  1  0  0  0  0
 23 25  1  0  0  0  0
 24 23  2  0  0  0  0
M  END
>  <MODEL>
1

>  <REMARK>
 VINA RESULT:      -7.8      0.000      0.000
  Name = 
  2 active torsions:
  status: ('A' for Active; 'I' for Inactive)
    1  A    between atoms: C_2  and  C_21
    2  A    between atoms: C_6  and  N_23
                            x       y       z     vdW  Elec       q    Type
                         _______ _______ _______ _____ _____    ______ ____

>  <TORSDO>
F 2

$$$$
=
 OpenBabel11052417343D

 25 28  0  0  1  0  0  0  0  0999 V2000
  186.2700  177.1940  144.1580 C   0  0  0  0  0  0  0  0  0  0  0  0
  187.4110  176.7070  144.7970 C   0  0  0  0  0  0  0  0  0  0  0  0
  185.5640  178.3300  146.1510 C   0  0  0  0  0  3  0  0  0  0  0  0
  185.7340  176.9330  142.7960 C   0  0  1  0  0  3  0  0  0  0  0  0
  184.6450  178.3070  140.5100 C   0  0  0  0  0  3  0  0  0  0  0  0
  186.6850  177.8720  146.7810 N   0  0  0  0  0  0  0  0  0  0  0  0
  184.4970  177.7940  142.8500 C   0  0  0  0  0  0  0  0  0  0  0  0
  183.8720  178.2480  141.6050 C   0  0  0  0  0  3  0  0  0  0  0  0
  188.8340  176.6540  146.9050 C   0  0  2  0  0  3  0  0  0  0  0  0
  189.7610  177.6970  146.8950 O   0  0  0  0  0  1  0  0  0  0  0  0
  188.3470  175.7730  144.0830 C   0  0  0  0  0  2  0  0  0  0  0  0
  186.0930  177.9720  140.5790 C   0  0  0  0  0  3  0  0  0  0  0  0
  185.3570  177.9660  144.8260 C   0  0  0  0  0  0  0  0  0  0  0  0
  184.2810  178.3670  143.9930 N   0  0  0  0  0  0  0  0  0  0  0  0
  189.4660  175.4000  146.3060 C   0  0  0  0  0  2  0  0  0  0  0  0
  186.6230  177.3900  141.6680 C   0  0  0  0  0  3  0  0  0  0  0  0
  189.5660  175.5410  144.8600 N   0  0  0  0  0  0  0  0  0  0  0  0
  187.6010  177.0690  146.1540 C   0  0  0  0  0  0  0  0  0  0  0  0
  190.8210  175.2670  144.2310 C   0  0  0  0  0  3  0  0  0  0  0  0
  191.9560  175.6620  144.7480 C   0  0  0  0  0  0  0  0  0  0  0  0
  193.0850  176.0570  145.2700 C   0  0  0  0  0  0  0  0  0  0  0  0
  193.0970  176.5440  146.5720 O   0  0  0  0  0  1  0  0  0  0  0  0
  194.3340  175.9920  144.5000 C   0  0  0  0  0  0  0  0  0  0  0  0
  194.3200  176.1320  143.1160 O   0  0  0  0  0  0  0  0  0  0  0  0
  195.4280  175.8070  145.0930 O   0  0  0  0  0  1  0  0  0  0  0  0
  1  2  2  0  0  0  0
  1 13  1  0  0  0  0
  2 18  1  0  0  0  0
  3  6  1  0  0  0  0
  4 16  1  6  0  0  0
  4  7  1  0  0  0  0
  4  1  1  0  0  0  0
  5 12  1  0  0  0  0
  5  8  2  0  0  0  0
  7 14  2  0  0  0  0
  8  7  1  0  0  0  0
  9 10  1  6  0  0  0
 11  2  1  0  0  0  0
 11 17  1  0  0  0  0
 12 16  2  0  0  0  0
 13  3  2  0  0  0  0
 14 13  1  0  0  0  0
 15  9  1  0  0  0  0
 17 15  1  0  0  0  0
 18  6  2  0  0  0  0
 18  9  1  0  0  0  0
 19 20  2  0  0  0  0
 19 17  1  0  0  0  0
 20 21  2  0  0  0  0
 21 22  1  0  0  0  0
 23 25  1  0  0  0  0
 23 21  1  0  0  0  0
 24 23  2  0  0  0  0
M  END
>  <MODEL>
2

>  <REMARK>
 VINA RESULT:      -7.8      2.025      3.652
  Name = 
  2 active torsions:
  status: ('A' for Active; 'I' for Inactive)
    1  A    between atoms: C_2  and  C_21
    2  A    between atoms: C_6  and  N_23
                            x       y       z     vdW  Elec       q    Type
                         _______ _______ _______ _____ _____    ______ ____

>  <TORSDO>
F 2

$$$$
=
 OpenBabel11052417343D

 25 28  0  0  1  0  0  0  0  0999 V2000
  187.5720  176.7770  145.3040 C   0  0  0  0  0  0  0  0  0  0  0  0
  188.3280  176.1870  144.2910 C   0  0  0  0  0  0  0  0  0  0  0  0
  189.5450  177.2430  146.5900 C   0  0  0  0  0  3  0  0  0  0  0  0
  186.1000  176.8960  145.4730 C   0  0  1  0  0  3  0  0  0  0  0  0
  184.0670  178.8160  146.1650 C   0  0  0  0  0  3  0  0  0  0  0  0
  190.2960  176.6830  145.5970 N   0  0  0  0  0  0  0  0  0  0  0  0
  186.0620  177.6360  146.7860 C   0  0  0  0  0  0  0  0  0  0  0  0
  184.8670  178.3990  147.1560 C   0  0  0  0  0  3  0  0  0  0  0  0
  190.6380  175.5990  143.4010 C   0  0  2  0  0  3  0  0  0  0  0  0
  191.1480  176.6470  142.6350 O   0  0  0  0  0  1  0  0  0  0  0  0
  187.6570  175.5530  143.1050 C   0  0  0  0  0  2  0  0  0  0  0  0
  184.4150  178.5540  144.7420 C   0  0  0  0  0  3  0  0  0  0  0  0
  188.1640  177.2710  146.4360 C   0  0  0  0  0  0  0  0  0  0  0  0
  187.2210  177.8390  147.3310 N   0  0  0  0  0  0  0  0  0  0  0  0
  189.9090  174.6090  142.4960 C   0  0  0  0  0  2  0  0  0  0  0  0
  185.4050  177.7090  144.4100 C   0  0  0  0  0  3  0  0  0  0  0  0
  188.6310  175.1710  142.0810 N   0  0  0  0  0  0  0  0  0  0  0  0
  189.7350  176.1470  144.4680 C   0  0  0  0  0  0  0  0  0  0  0  0
  188.2970  175.1600  140.6900 C   0  0  0  0  0  3  0  0  0  0  0  0
  188.6340  174.1690  139.9050 C   0  0  0  0  0  0  0  0  0  0  0  0
  188.9720  173.1770  139.1280 C   0  0  0  0  0  0  0  0  0  0  0  0
  189.4530  172.0030  139.6950 O   0  0  0  0  0  1  0  0  0  0  0  0
  188.8480  173.2890  137.6680 C   0  0  0  0  0  0  0  0  0  0  0  0
  188.3840  174.4630  137.0850 O   0  0  0  0  0  1  0  0  0  0  0  0
  189.1640  172.3160  136.9350 O   0  0  0  0  0  0  0  0  0  0  0  0
  1  4  1  0  0  0  0
  1 13  1  0  0  0  0
  2 18  1  0  0  0  0
  2  1  2  0  0  0  0
  4 16  1  6  0  0  0
  4  7  1  0  0  0  0
  5  8  2  0  0  0  0
  6  3  1  0  0  0  0
  7  8  1  0  0  0  0
  7 14  2  0  0  0  0
  9 10  1  6  0  0  0
  9 18  1  0  0  0  0
 11  2  1  0  0  0  0
 12  5  1  0  0  0  0
 13  3  2  0  0  0  0
 13 14  1  0  0  0  0
 15  9  1  0  0  0  0
 16 12  2  0  0  0  0
 17 15  1  0  0  0  0
 17 11  1  0  0  0  0
 18  6  2  0  0  0  0
 19 17  1  0  0  0  0
 20 19  2  0  0  0  0
 21 22  1  0  0  0  0
 21 20  2  0  0  0  0
 23 21  1  0  0  0  0
 24 23  1  0  0  0  0
 25 23  2  0  0  0  0
M  END
>  <MODEL>
3

>  <REMARK>
 VINA RESULT:      -7.5      2.861      5.413
  Name = 
  2 active torsions:
  status: ('A' for Active; 'I' for Inactive)
    1  A    between atoms: C_2  and  C_21
    2  A    between atoms: C_6  and  N_23
                            x       y       z     vdW  Elec       q    Type
                         _______ _______ _______ _____ _____    ______ ____

>  <TORSDO>
F 2

$$$$
=
 OpenBabel11052417343D

 25 28  0  0  1  0  0  0  0  0999 V2000
  186.4380  177.1180  144.2150 C   0  0  0  0  0  0  0  0  0  0  0  0
  187.5120  176.5650  144.9120 C   0  0  0  0  0  0  0  0  0  0  0  0
  185.8120  178.4480  146.1130 C   0  0  0  0  0  3  0  0  0  0  0  0
  185.9030  176.8220  142.8600 C   0  0  1  0  0  3  0  0  0  0  0  0
  184.9990  178.1410  140.4640 C   0  0  0  0  0  3  0  0  0  0  0  0
  186.8700  177.9250  146.7990 N   0  0  0  0  0  0  0  0  0  0  0  0
  184.7580  177.8020  142.8280 C   0  0  0  0  0  0  0  0  0  0  0  0
  184.2050  178.2310  141.5410 C   0  0  0  0  0  3  0  0  0  0  0  0
  188.8840  176.5120  147.0540 C   0  0  2  0  0  3  0  0  0  0  0  0
  189.9100  177.4560  147.0000 O   0  0  0  0  0  1  0  0  0  0  0  0
  188.3640  175.4980  144.2830 C   0  0  0  0  0  2  0  0  0  0  0  0
  186.4050  177.6710  140.5910 C   0  0  0  0  0  3  0  0  0  0  0  0
  185.5940  178.0190  144.8100 C   0  0  0  0  0  0  0  0  0  0  0  0
  184.5790  178.4680  143.9260 N   0  0  0  0  0  0  0  0  0  0  0  0
  189.3980  175.1650  146.5530 C   0  0  0  0  0  2  0  0  0  0  0  0
  186.8550  177.1130  141.7270 C   0  0  0  0  0  3  0  0  0  0  0  0
  189.5390  175.2000  145.1040 N   0  0  0  0  0  0  0  0  0  0  0  0
  187.7120  176.9960  146.2480 C   0  0  0  0  0  0  0  0  0  0  0  0
  190.7720  174.7620  144.5260 C   0  0  0  0  0  3  0  0  0  0  0  0
  191.4630  175.5200  143.7140 C   0  0  0  0  0  0  0  0  0  0  0  0
  192.1490  176.2810  142.9060 C   0  0  0  0  0  0  0  0  0  0  0  0
  191.8100  177.6230  142.7860 O   0  0  0  0  0  1  0  0  0  0  0  0
  193.2700  175.7350  142.1290 C   0  0  0  0  0  0  0  0  0  0  0  0
  193.3610  174.3700  141.8800 O   0  0  0  0  0  1  0  0  0  0  0  0
  194.1580  176.5070  141.6810 O   0  0  0  0  0  0  0  0  0  0  0  0
  1 13  2  0  0  0  0
  1  2  1  0  0  0  0
  2 18  2  0  0  0  0
  3  6  2  0  0  0  0
  4 16  1  6  0  0  0
  4  1  1  0  0  0  0
  5 12  1  0  0  0  0
  5  8  2  0  0  0  0
  7  4  1  0  0  0  0
  7 14  2  0  0  0  0
  8  7  1  0  0  0  0
  9 10  1  6  0  0  0
 11  2  1  0  0  0  0
 11 17  1  0  0  0  0
 12 16  2  0  0  0  0
 13  3  1  0  0  0  0
 14 13  1  0  0  0  0
 15  9  1  0  0  0  0
 17 15  1  0  0  0  0
 18  6  1  0  0  0  0
 18  9  1  0  0  0  0
 19 17  1  0  0  0  0
 20 19  2  0  0  0  0
 21 20  2  0  0  0  0
 22 21  1  0  0  0  0
 23 21  1  0  0  0  0
 24 23  1  0  0  0  0
 25 23  2  0  0  0  0
M  END
>  <MODEL>
4

>  <REMARK>
 VINA RESULT:      -7.3      2.380      3.951
  Name = 
  2 active torsions:
  status: ('A' for Active; 'I' for Inactive)
    1  A    between atoms: C_2  and  C_21
    2  A    between atoms: C_6  and  N_23
                            x       y       z     vdW  Elec       q    Type
                         _______ _______ _______ _____ _____    ______ ____

>  <TORSDO>
F 2

$$$$
=
 OpenBabel11052417343D

 25 28  0  0  1  0  0  0  0  0999 V2000
  187.2670  177.2610  144.1350 C   0  0  0  0  0  0  0  0  0  0  0  0
  188.4560  176.6210  143.7870 C   0  0  0  0  0  0  0  0  0  0  0  0
  186.3120  176.7910  141.9830 C   0  0  0  0  0  3  0  0  0  0  0  0
  186.8960  178.0250  145.3560 C   0  0  1  0  0  3  0  0  0  0  0  0
  184.7670  178.2910  147.2780 C   0  0  0  0  0  3  0  0  0  0  0  0
  187.4660  176.1470  141.6390 N   0  0  0  0  0  0  0  0  0  0  0  0
  185.4830  178.4030  144.9900 C   0  0  0  0  0  0  0  0  0  0  0  0
  184.5300  178.7590  146.0440 C   0  0  0  0  0  3  0  0  0  0  0  0
  189.7460  175.2830  142.0500 C   0  0  2  0  0  3  0  0  0  0  0  0
  189.5150  173.9170  142.2150 O   0  0  0  0  0  1  0  0  0  0  0  0
  189.6240  176.6090  144.7340 C   0  0  0  0  0  2  0  0  0  0  0  0
  185.9280  177.4000  147.5450 C   0  0  0  0  0  3  0  0  0  0  0  0
  186.2300  177.3650  143.2460 C   0  0  0  0  0  0  0  0  0  0  0  0
  185.1120  178.0400  143.8020 N   0  0  0  0  0  0  0  0  0  0  0  0
  190.9920  175.6910  142.8320 C   0  0  0  0  0  2  0  0  0  0  0  0
  186.8940  177.2190  146.6300 C   0  0  0  0  0  3  0  0  0  0  0  0
  190.6900  175.7270  144.2560 N   0  0  0  0  0  0  0  0  0  0  0  0
  188.5350  176.0560  142.4890 C   0  0  0  0  0  0  0  0  0  0  0  0
  191.5620  175.0410  145.1590 C   0  0  0  0  0  3  0  0  0  0  0  0
  192.8600  175.0240  144.9900 C   0  0  0  0  0  0  0  0  0  0  0  0
  194.1530  175.0130  144.8170 C   0  0  0  0  0  0  0  0  0  0  0  0
  194.7200  175.8720  143.8830 O   0  0  0  0  0  1  0  0  0  0  0  0
  195.0080  174.1080  145.5960 C   0  0  0  0  0  0  0  0  0  0  0  0
  194.6580  172.7720  145.7630 O   0  0  0  0  0  0  0  0  0  0  0  0
  196.0680  174.5400  146.1180 O   0  0  0  0  0  1  0  0  0  0  0  0
  1  4  1  0  0  0  0
  2  1  1  0  0  0  0
  2 11  1  0  0  0  0
  3 13  1  0  0  0  0
  4 16  1  1  0  0  0
  5 12  1  0  0  0  0
  6  3  2  0  0  0  0
  6 18  1  0  0  0  0
  7  4  1  0  0  0  0
  7  8  1  0  0  0  0
  8  5  2  0  0  0  0
  9 10  1  1  0  0  0
  9 18  1  0  0  0  0
  9 15  1  0  0  0  0
 13 14  1  0  0  0  0
 13  1  2  0  0  0  0
 14  7  2  0  0  0  0
 15 17  1  0  0  0  0
 16 12  2  0  0  0  0
 17 11  1  0  0  0  0
 17 19  1  0  0  0  0
 18  2  2  0  0  0  0
 20 19  2  0  0  0  0
 21 20  2  0  0  0  0
 21 23  1  0  0  0  0
 22 21  1  0  0  0  0
 23 24  2  0  0  0  0
 23 25  1  0  0  0  0
M  END
>  <MODEL>
5

>  <REMARK>
 VINA RESULT:      -7.3      1.053      1.072
  Name = 
  2 active torsions:
  status: ('A' for Active; 'I' for Inactive)
    1  A    between atoms: C_2  and  C_21
    2  A    between atoms: C_6  and  N_23
                            x       y       z     vdW  Elec       q    Type
                         _______ _______ _______ _____ _____    ______ ____

>  <TORSDO>
F 2

$$$$
=
 OpenBabel11052417343D

 25 28  0  0  1  0  0  0  0  0999 V2000
  186.8860  177.2180  143.5640 C   0  0  0  0  0  0  0  0  0  0  0  0
  187.9020  176.3540  143.1560 C   0  0  0  0  0  0  0  0  0  0  0  0
  186.1430  177.5110  141.3000 C   0  0  0  0  0  3  0  0  0  0  0  0
  186.5650  177.7760  144.9040 C   0  0  1  0  0  3  0  0  0  0  0  0
  184.3390  178.2230  146.6770 C   0  0  0  0  0  3  0  0  0  0  0  0
  187.1240  176.6540  140.8930 N   0  0  0  0  0  0  0  0  0  0  0  0
  185.3630  178.6110  144.5420 C   0  0  0  0  0  0  0  0  0  0  0  0
  184.4030  178.9910  145.5800 C   0  0  0  0  0  3  0  0  0  0  0  0
  189.0210  175.1070  141.2420 C   0  0  2  0  0  3  0  0  0  0  0  0
  188.4210  173.8620  141.0530 O   0  0  0  0  0  1  0  0  0  0  0  0
  188.8870  175.8070  144.1520 C   0  0  0  0  0  2  0  0  0  0  0  0
  185.1790  177.0010  146.8020 C   0  0  0  0  0  3  0  0  0  0  0  0
  186.0430  177.8010  142.6560 C   0  0  0  0  0  0  0  0  0  0  0  0
  185.0750  178.6320  143.2780 N   0  0  0  0  0  0  0  0  0  0  0  0
  190.2130  174.9640  142.1860 C   0  0  0  0  0  2  0  0  0  0  0  0
  186.1800  176.7510  145.9410 C   0  0  0  0  0  3  0  0  0  0  0  0
  189.7400  174.7800  143.5510 N   0  0  0  0  0  0  0  0  0  0  0  0
  188.0070  176.0810  141.7690 C   0  0  0  0  0  0  0  0  0  0  0  0
  190.2720  173.6970  144.3190 C   0  0  0  0  0  3  0  0  0  0  0  0
  191.5440  173.3940  144.3000 C   0  0  0  0  0  0  0  0  0  0  0  0
  192.8150  173.0980  144.2790 C   0  0  0  0  0  0  0  0  0  0  0  0
  193.7090  173.9860  143.6920 O   0  0  0  0  0  1  0  0  0  0  0  0
  193.3050  171.8440  144.8660 C   0  0  0  0  0  0  0  0  0  0  0  0
  192.8610  170.6170  144.3870 O   0  0  0  0  0  0  0  0  0  0  0  0
  194.1350  171.8770  145.8120 O   0  0  0  0  0  1  0  0  0  0  0  0
  1  4  1  0  0  0  0
  2  1  1  0  0  0  0
  2 11  1  0  0  0  0
  3 13  1  0  0  0  0
  4 16  1  1  0  0  0
  5 12  1  0  0  0  0
  6  3  2  0  0  0  0
  6 18  1  0  0  0  0
  7  4  1  0  0  0  0
  7  8  1  0  0  0  0
  8  5  2  0  0  0  0
  9 10  1  1  0  0  0
  9 18  1  0  0  0  0
  9 15  1  0  0  0  0
 13 14  1  0  0  0  0
 13  1  2  0  0  0  0
 14  7  2  0  0  0  0
 15 17  1  0  0  0  0
 16 12  2  0  0  0  0
 17 11  1  0  0  0  0
 17 19  1  0  0  0  0
 18  2  2  0  0  0  0
 20 19  2  0  0  0  0
 21 20  2  0  0  0  0
 21 23  1  0  0  0  0
 22 21  1  0  0  0  0
 23 25  1  0  0  0  0
 24 23  2  0  0  0  0
M  END
>  <MODEL>
6

>  <REMARK>
 VINA RESULT:      -7.3      2.284      2.366
  Name = 
  2 active torsions:
  status: ('A' for Active; 'I' for Inactive)
    1  A    between atoms: C_2  and  C_21
    2  A    between atoms: C_6  and  N_23
                            x       y       z     vdW  Elec       q    Type
                         _______ _______ _______ _____ _____    ______ ____

>  <TORSDO>
F 2

$$$$
=
 OpenBabel11052417343D

 25 28  0  0  1  0  0  0  0  0999 V2000
  187.8170  176.9680  145.9350 C   0  0  0  0  0  0  0  0  0  0  0  0
  188.8830  176.3550  145.2750 C   0  0  0  0  0  0  0  0  0  0  0  0
  189.2790  177.8130  147.6410 C   0  0  0  0  0  3  0  0  0  0  0  0
  186.3560  176.9310  145.6630 C   0  0  1  0  0  3  0  0  0  0  0  0
  184.0650  178.6640  145.4620 C   0  0  0  0  0  3  0  0  0  0  0  0
  190.3310  177.2320  146.9940 N   0  0  0  0  0  0  0  0  0  0  0  0
  185.8740  177.8110  146.7870 C   0  0  0  0  0  0  0  0  0  0  0  0
  184.5670  178.4660  146.6890 C   0  0  0  0  0  3  0  0  0  0  0  0
  191.3910  175.9430  145.1690 C   0  0  2  0  0  3  0  0  0  0  0  0
  192.0210  176.9460  144.4310 O   0  0  0  0  0  1  0  0  0  0  0  0
  188.6440  175.5100  144.0550 C   0  0  0  0  0  2  0  0  0  0  0  0
  184.8370  178.2780  144.2500 C   0  0  0  0  0  3  0  0  0  0  0  0
  188.0080  177.6590  147.1020 C   0  0  0  0  0  0  0  0  0  0  0  0
  186.8010  178.2130  147.6010 N   0  0  0  0  0  0  0  0  0  0  0  0
  191.0420  174.7740  144.2520 C   0  0  0  0  0  2  0  0  0  0  0  0
  185.9440  177.5230  144.3390 C   0  0  0  0  0  3  0  0  0  0  0  0
  189.9030  175.1270  143.4150 N   0  0  0  0  0  0  0  0  0  0  0  0
  190.1730  176.5040  145.8450 C   0  0  0  0  0  0  0  0  0  0  0  0
  189.9980  174.9110  142.0050 C   0  0  0  0  0  3  0  0  0  0  0  0
  189.2280  174.0560  141.3820 C   0  0  0  0  0  0  0  0  0  0  0  0
  188.4560  173.2030  140.7660 C   0  0  0  0  0  0  0  0  0  0  0  0
  187.3650  172.6660  141.4390 O   0  0  0  0  0  1  0  0  0  0  0  0
  188.7280  172.8090  139.3770 C   0  0  0  0  0  0  0  0  0  0  0  0
  188.1870  173.5290  138.3180 O   0  0  0  0  0  0  0  0  0  0  0  0
  189.4560  171.8110  139.1390 O   0  0  0  0  0  1  0  0  0  0  0  0
  1 13  1  0  0  0  0
  2 18  1  0  0  0  0
  2  1  2  0  0  0  0
  4 16  1  6  0  0  0
  4  1  1  0  0  0  0
  4  7  1  0  0  0  0
  5  8  2  0  0  0  0
  6  3  1  0  0  0  0
  7 14  2  0  0  0  0
  8  7  1  0  0  0  0
  9 10  1  6  0  0  0
  9 18  1  0  0  0  0
 11  2  1  0  0  0  0
 12 16  2  0  0  0  0
 12  5  1  0  0  0  0
 13 14  1  0  0  0  0
 13  3  2  0  0  0  0
 15  9  1  0  0  0  0
 17 11  1  0  0  0  0
 17 15  1  0  0  0  0
 18  6  2  0  0  0  0
 19 17  1  0  0  0  0
 20 19  2  0  0  0  0
 21 20  2  0  0  0  0
 21 22  1  0  0  0  0
 23 21  1  0  0  0  0
 24 23  2  0  0  0  0
 25 23  1  0  0  0  0
M  END
>  <MODEL>
7

>  <REMARK>
 VINA RESULT:      -7.2      2.595      5.188
  Name = 
  2 active torsions:
  status: ('A' for Active; 'I' for Inactive)
    1  A    between atoms: C_2  and  C_21
    2  A    between atoms: C_6  and  N_23
                            x       y       z     vdW  Elec       q    Type
                         _______ _______ _______ _____ _____    ______ ____

>  <TORSDO>
F 2

$$$$
=
 OpenBabel11052417343D

 25 28  0  0  1  0  0  0  0  0999 V2000
  188.8610  176.8390  144.5110 C   0  0  0  0  0  0  0  0  0  0  0  0
  187.7560  177.4930  145.0560 C   0  0  0  0  0  0  0  0  0  0  0  0
  189.8470  176.5630  146.6820 C   0  0  0  0  0  3  0  0  0  0  0  0
  189.2380  176.5850  143.0950 C   0  0  1  0  0  3  0  0  0  0  0  0
  190.1960  174.4870  141.3690 C   0  0  0  0  0  3  0  0  0  0  0  0
  188.7620  177.1870  147.2280 N   0  0  0  0  0  0  0  0  0  0  0  0
  190.5360  175.8490  143.3150 C   0  0  0  0  0  0  0  0  0  0  0  0
  191.0660  174.9810  142.2610 C   0  0  0  0  0  3  0  0  0  0  0  0
  186.5500  178.2900  147.1490 C   0  0  2  0  0  3  0  0  0  0  0  0
  185.7080  177.2900  147.6390 O   0  0  0  0  0  1  0  0  0  0  0  0
  186.6850  178.0570  144.1650 C   0  0  0  0  0  2  0  0  0  0  0  0
  188.7400  174.7750  141.4830 C   0  0  0  0  0  3  0  0  0  0  0  0
  189.8920  176.4070  145.3020 C   0  0  0  0  0  0  0  0  0  0  0  0
  190.9070  175.7570  144.5540 N   0  0  0  0  0  0  0  0  0  0  0  0
  185.7680  179.2040  146.2090 C   0  0  0  0  0  2  0  0  0  0  0  0
  188.2780  175.7070  142.3330 C   0  0  0  0  0  3  0  0  0  0  0  0
  185.5350  178.5250  144.9420 N   0  0  0  0  0  0  0  0  0  0  0  0
  187.7300  177.6640  146.4630 C   0  0  0  0  0  0  0  0  0  0  0  0
  184.2070  178.5000  144.4130 C   0  0  0  0  0  3  0  0  0  0  0  0
  183.9720  178.3270  143.1380 C   0  0  0  0  0  0  0  0  0  0  0  0
  183.7450  178.1510  141.8650 C   0  0  0  0  0  0  0  0  0  0  0  0
  184.7870  177.7460  141.0390 O   0  0  0  0  0  1  0  0  0  0  0  0
  182.4070  178.3770  141.3020 C   0  0  0  0  0  0  0  0  0  0  0  0
  181.4300  179.0360  142.0390 O   0  0  0  0  0  1  0  0  0  0  0  0
  182.1380  177.9700  140.1410 O   0  0  0  0  0  0  0  0  0  0  0  0
  1  2  2  0  0  0  0
  1 13  1  0  0  0  0
  2 18  1  0  0  0  0
  3  6  1  0  0  0  0
  4 16  1  1  0  0  0
  4  7  1  0  0  0  0
  4  1  1  0  0  0  0
  5 12  1  0  0  0  0
  5  8  2  0  0  0  0
  7 14  2  0  0  0  0
  8  7  1  0  0  0  0
  9 10  1  6  0  0  0
 11 17  1  0  0  0  0
 11  2  1  0  0  0  0
 12 16  2  0  0  0  0
 13  3  2  0  0  0  0
 14 13  1  0  0  0  0
 15  9  1  0  0  0  0
 17 15  1  0  0  0  0
 18  9  1  0  0  0  0
 18  6  2  0  0  0  0
 19 17  1  0  0  0  0
 20 19  2  0  0  0  0
 21 20  2  0  0  0  0
 22 21  1  0  0  0  0
 23 21  1  0  0  0  0
 23 24  1  0  0  0  0
 25 23  2  0  0  0  0
M  END
>  <MODEL>
8

>  <REMARK>
 VINA RESULT:      -7.2      4.251      8.102
  Name = 
  2 active torsions:
  status: ('A' for Active; 'I' for Inactive)
    1  A    between atoms: C_2  and  C_21
    2  A    between atoms: C_6  and  N_23
                            x       y       z     vdW  Elec       q    Type
                         _______ _______ _______ _____ _____    ______ ____

>  <TORSDO>
F 2

$$$$
=
 OpenBabel11052417343D

 25 28  0  0  1  0  0  0  0  0999 V2000
  189.3370  177.1440  145.4200 C   0  0  0  0  0  0  0  0  0  0  0  0
  188.3850  177.4870  144.4590 C   0  0  0  0  0  0  0  0  0  0  0  0
  187.8090  177.6490  147.2020 C   0  0  0  0  0  3  0  0  0  0  0  0
  190.7640  176.7550  145.2770 C   0  0  1  0  0  3  0  0  0  0  0  0
  192.6630  174.7990  146.2080 C   0  0  0  0  0  3  0  0  0  0  0  0
  186.8650  177.9700  146.2700 N   0  0  0  0  0  0  0  0  0  0  0  0
  191.1110  176.5530  146.7300 C   0  0  0  0  0  0  0  0  0  0  0  0
  192.2600  175.7200  147.0940 C   0  0  0  0  0  3  0  0  0  0  0  0
  186.0030  178.2340  143.9670 C   0  0  2  0  0  3  0  0  0  0  0  0
  185.1600  177.1290  143.8430 O   0  0  0  0  0  1  0  0  0  0  0  0
  188.7350  177.4740  142.9970 C   0  0  0  0  0  2  0  0  0  0  0  0
  191.9320  174.6020  144.9270 C   0  0  0  0  0  3  0  0  0  0  0  0
  189.0630  177.2460  146.7580 C   0  0  0  0  0  0  0  0  0  0  0  0
  190.1580  176.8370  147.5620 N   0  0  0  0  0  0  0  0  0  0  0  0
  186.5360  178.6310  142.5920 C   0  0  0  0  0  2  0  0  0  0  0  0
  190.9980  175.4760  144.5150 C   0  0  0  0  0  3  0  0  0  0  0  0
  187.5490  177.6760  142.1630 N   0  0  0  0  0  0  0  0  0  0  0  0
  187.1150  177.9150  144.9250 C   0  0  0  0  0  0  0  0  0  0  0  0
  187.4410  177.1050  140.8560 C   0  0  0  0  0  3  0  0  0  0  0  0
  187.8160  175.8780  140.6020 C   0  0  0  0  0  0  0  0  0  0  0  0
  188.1910  174.6530  140.3560 C   0  0  0  0  0  0  0  0  0  0  0  0
  188.4790  173.8050  141.4190 O   0  0  0  0  0  1  0  0  0  0  0  0
  188.3100  174.1660  138.9750 C   0  0  0  0  0  0  0  0  0  0  0  0
  188.9950  172.9880  138.6970 O   0  0  0  0  0  1  0  0  0  0  0  0
  187.7900  174.8170  138.0330 O   0  0  0  0  0  0  0  0  0  0  0  0
  1 13  1  0  0  0  0
  2 18  1  0  0  0  0
  2  1  2  0  0  0  0
  4 16  1  6  0  0  0
  4  1  1  0  0  0  0
  4  7  1  0  0  0  0
  5  8  2  0  0  0  0
  6  3  1  0  0  0  0
  7  8  1  0  0  0  0
  7 14  2  0  0  0  0
  9 10  1  6  0  0  0
  9 18  1  0  0  0  0
 11  2  1  0  0  0  0
 12  5  1  0  0  0  0
 13  3  2  0  0  0  0
 13 14  1  0  0  0  0
 15  9  1  0  0  0  0
 16 12  2  0  0  0  0
 17 15  1  0  0  0  0
 17 11  1  0  0  0  0
 18  6  2  0  0  0  0
 19 17  1  0  0  0  0
 20 19  2  0  0  0  0
 21 20  2  0  0  0  0
 21 22  1  0  0  0  0
 23 21  1  0  0  0  0
 24 23  1  0  0  0  0
 25 23  2  0  0  0  0
M  END
>  <MODEL>
9

>  <REMARK>
 VINA RESULT:      -7.2      3.376      6.433
  Name = 
  2 active torsions:
  status: ('A' for Active; 'I' for Inactive)
    1  A    between atoms: C_2  and  C_21
    2  A    between atoms: C_6  and  N_23
                            x       y       z     vdW  Elec       q    Type
                         _______ _______ _______ _____ _____    ______ ____

>  <TORSDO>
F 2

$$$$
