=
 OpenBabel11052417383D

 25 28  0  0  1  0  0  0  0  0999 V2000
  185.4630  177.6910  142.7780 N   0  0  0  0  0  0  0  0  0  0  0  0
  186.4470  177.4200  141.7630 C   0  0  0  0  0  0  0  0  0  0  0  0
  183.8180  178.3310  141.0640 C   0  0  0  0  0  3  0  0  0  0  0  0
  185.6980  178.0830  144.1610 C   0  0  1  0  0  3  0  0  0  0  0  0
  184.4780  177.9500  146.7770 C   0  0  0  0  0  3  0  0  0  0  0  0
  184.7050  178.0120  140.1170 C   0  0  0  0  0  3  0  0  0  0  0  0
  184.3800  178.7230  144.5110 C   0  0  2  0  0  3  0  0  0  0  0  0
  183.9490  178.8210  145.9070 C   0  0  0  0  0  3  0  0  0  0  0  0
  185.4230  176.8960  146.3200 C   0  0  0  0  0  3  0  0  0  0  0  0
  184.2100  178.1880  142.4260 N   0  0  0  0  0  0  0  0  0  0  0  0
  183.5600  178.7710  143.5120 N   0  0  0  0  0  2  0  0  0  0  0  0
  185.9450  176.9150  145.0820 C   0  0  0  0  0  3  0  0  0  0  0  0
  186.0740  177.5490  140.4650 C   0  0  0  0  0  0  0  0  0  0  0  0
  187.8130  177.0000  142.1470 C   0  0  0  0  0  0  0  0  0  0  0  0
  189.4080  175.2520  142.6890 C   0  0  0  0  0  3  0  0  0  0  0  0
  188.8160  177.9590  142.3300 C   0  0  0  0  0  3  0  0  0  0  0  0
  190.1080  177.5670  142.6910 C   0  0  0  0  0  3  0  0  0  0  0  0
  188.1160  175.6430  142.3270 C   0  0  0  0  0  3  0  0  0  0  0  0
  190.4130  176.2120  142.8740 C   0  0  0  0  0  0  0  0  0  0  0  0
  191.7760  175.8000  143.2540 C   0  0  0  0  0  0  0  0  0  0  0  0
  191.9840  175.2300  144.3580 O   0  0  0  0  0  0  0  0  0  0  0  0
  192.8730  176.0420  142.3780 N   0  0  0  0  0  1  0  0  0  0  0  0
  186.9950  177.2110  139.3300 C   0  0  0  0  0  2  0  0  0  0  0  0
  186.2270  176.6370  138.1490 C   0  0  0  0  0  2  0  0  0  0  0  0
  187.0700  175.6160  137.4080 C   0  0  0  0  0  1  0  0  0  0  0  0
  1  4  1  0  0  0  0
  2 14  1  0  0  0  0
  2  1  1  0  0  0  0
  3 10  1  0  0  0  0
  4  7  1  0  0  0  0
  4 12  1  1  0  0  0
  6 13  1  0  0  0  0
  6  3  2  0  0  0  0
  7  8  1  1  0  0  0
  8  5  2  0  0  0  0
  9  5  1  0  0  0  0
 10  1  1  0  0  0  0
 10 11  1  0  0  0  0
 11  7  1  0  0  0  0
 12  9  2  0  0  0  0
 13  2  2  0  0  0  0
 14 18  2  0  0  0  0
 14 16  1  0  0  0  0
 15 19  2  0  0  0  0
 16 17  2  0  0  0  0
 17 19  1  0  0  0  0
 18 15  1  0  0  0  0
 19 20  1  0  0  0  0
 20 21  2  0  0  0  0
 22 20  1  0  0  0  0
 23 13  1  0  0  0  0
 24 23  1  0  0  0  0
 25 24  1  0  0  0  0
M  END
>  <MODEL>
1

>  <REMARK>
 VINA RESULT:      -7.3      0.000      0.000
  Name = 
  4 active torsions:
  status: ('A' for Active; 'I' for Inactive)
    1  A    between atoms: C_2  and  C_25
    2  A    between atoms: C_3  and  C_6
    3  A    between atoms: C_13  and  C_14
    4  A    between atoms: C_14  and  C_24
                            x       y       z     vdW  Elec       q    Type
                         _______ _______ _______ _____ _____    ______ ____

>  <TORSDO>
F 4

$$$$
=
 OpenBabel11052417383D

 25 28  0  0  1  0  0  0  0  0999 V2000
  186.2130  177.8270  143.9310 N   0  0  0  0  0  0  0  0  0  0  0  0
  187.3620  177.2850  144.6100 C   0  0  0  0  0  0  0  0  0  0  0  0
  185.2860  178.6300  146.0640 C   0  0  0  0  0  3  0  0  0  0  0  0
  185.6340  177.3810  142.6710 C   0  0  1  0  0  3  0  0  0  0  0  0
  184.0930  178.3590  140.4320 C   0  0  0  0  0  3  0  0  0  0  0  0
  186.3830  178.1920  146.6870 C   0  0  0  0  0  3  0  0  0  0  0  0
  184.2350  177.9280  142.7840 C   0  0  2  0  0  3  0  0  0  0  0  0
  183.4330  178.1730  141.5830 C   0  0  0  0  0  3  0  0  0  0  0  0
  185.5800  178.3670  140.3980 C   0  0  0  0  0  3  0  0  0  0  0  0
  185.1860  178.4260  144.6580 N   0  0  0  0  0  0  0  0  0  0  0  0
  184.0090  178.5100  143.9170 N   0  0  0  0  0  2  0  0  0  0  0  0
  186.3050  177.9750  141.4590 C   0  0  0  0  0  3  0  0  0  0  0  0
  187.4610  177.4840  145.9480 C   0  0  0  0  0  0  0  0  0  0  0  0
  188.3950  176.5510  143.8490 C   0  0  0  0  0  0  0  0  0  0  0  0
  189.1970  174.5090  142.8090 C   0  0  0  0  0  3  0  0  0  0  0  0
  189.5610  177.2060  143.4370 C   0  0  0  0  0  3  0  0  0  0  0  0
  190.5410  176.5170  142.7160 C   0  0  0  0  0  3  0  0  0  0  0  0
  188.2170  175.1980  143.5300 C   0  0  0  0  0  3  0  0  0  0  0  0
  190.3660  175.1640  142.3970 C   0  0  0  0  0  0  0  0  0  0  0  0
  191.3980  174.4390  141.6370 C   0  0  0  0  0  0  0  0  0  0  0  0
  191.1110  173.3730  141.0300 O   0  0  0  0  0  0  0  0  0  0  0  0
  192.7330  174.9340  141.5790 N   0  0  0  0  0  1  0  0  0  0  0  0
  188.6550  177.0350  146.7370 C   0  0  0  0  0  2  0  0  0  0  0  0
  188.5070  175.5870  147.1840 C   0  0  0  0  0  2  0  0  0  0  0  0
  189.7730  174.8050  146.8900 C   0  0  0  0  0  1  0  0  0  0  0  0
  1  2  1  0  0  0  0
  1 10  1  0  0  0  0
  2 13  2  0  0  0  0
  3  6  2  0  0  0  0
  4 12  1  6  0  0  0
  4  7  1  0  0  0  0
  4  1  1  0  0  0  0
  5  8  2  0  0  0  0
  7  8  1  6  0  0  0
  7 11  1  0  0  0  0
  9  5  1  0  0  0  0
  9 12  2  0  0  0  0
 10  3  1  0  0  0  0
 11 10  1  0  0  0  0
 13  6  1  0  0  0  0
 13 23  1  0  0  0  0
 14  2  1  0  0  0  0
 15 18  2  0  0  0  0
 16 14  2  0  0  0  0
 17 16  1  0  0  0  0
 18 14  1  0  0  0  0
 19 17  2  0  0  0  0
 19 15  1  0  0  0  0
 20 19  1  0  0  0  0
 21 20  2  0  0  0  0
 22 20  1  0  0  0  0
 23 24  1  0  0  0  0
 25 24  1  0  0  0  0
M  END
>  <MODEL>
2

>  <REMARK>
 VINA RESULT:      -7.1      1.929      4.545
  Name = 
  4 active torsions:
  status: ('A' for Active; 'I' for Inactive)
    1  A    between atoms: C_2  and  C_25
    2  A    between atoms: C_3  and  C_6
    3  A    between atoms: C_13  and  C_14
    4  A    between atoms: C_14  and  C_24
                            x       y       z     vdW  Elec       q    Type
                         _______ _______ _______ _____ _____    ______ ____

>  <TORSDO>
F 4

$$$$
=
 OpenBabel11052417383D

 25 28  0  0  1  0  0  0  0  0999 V2000
  186.7820  177.0840  143.3850 N   0  0  0  0  0  0  0  0  0  0  0  0
  188.1040  176.5150  143.3450 C   0  0  0  0  0  0  0  0  0  0  0  0
  186.5400  176.7840  140.9550 C   0  0  0  0  0  3  0  0  0  0  0  0
  186.2540  178.0370  144.3520 C   0  0  1  0  0  3  0  0  0  0  0  0
  183.7640  178.8830  145.5490 C   0  0  0  0  0  3  0  0  0  0  0  0
  187.7360  176.1910  140.9260 C   0  0  0  0  0  3  0  0  0  0  0  0
  185.1030  178.6290  143.5790 C   0  0  2  0  0  3  0  0  0  0  0  0
  183.9810  179.2550  144.2800 C   0  0  0  0  0  3  0  0  0  0  0  0
  184.6030  177.8350  146.1900 C   0  0  0  0  0  3  0  0  0  0  0  0
  186.0580  177.2610  142.2070 N   0  0  0  0  0  0  0  0  0  0  0  0
  185.0190  178.1750  142.3710 N   0  0  0  0  0  2  0  0  0  0  0  0
  185.7290  177.3890  145.6080 C   0  0  0  0  0  3  0  0  0  0  0  0
  188.5620  176.0550  142.1540 C   0  0  0  0  0  0  0  0  0  0  0  0
  188.9130  176.4330  144.5800 C   0  0  0  0  0  0  0  0  0  0  0  0
  190.6350  177.3310  146.0380 C   0  0  0  0  0  3  0  0  0  0  0  0
  188.7230  175.3730  145.4750 C   0  0  0  0  0  3  0  0  0  0  0  0
  189.4840  175.2910  146.6440 C   0  0  0  0  0  3  0  0  0  0  0  0
  189.8740  177.4120  144.8690 C   0  0  0  0  0  3  0  0  0  0  0  0
  190.4450  176.2690  146.9340 C   0  0  0  0  0  0  0  0  0  0  0  0
  191.2470  176.1820  148.1670 C   0  0  0  0  0  0  0  0  0  0  0  0
  191.6140  175.0610  148.6100 O   0  0  0  0  0  0  0  0  0  0  0  0
  191.6160  177.3640  148.8720 N   0  0  0  0  0  1  0  0  0  0  0  0
  189.8900  175.3690  142.0190 C   0  0  0  0  0  2  0  0  0  0  0  0
  189.7490  173.8610  142.1660 C   0  0  0  0  0  2  0  0  0  0  0  0
  190.7880  173.3190  143.1300 C   0  0  0  0  0  1  0  0  0  0  0  0
  1  4  1  0  0  0  0
  2  1  1  0  0  0  0
  2 14  1  0  0  0  0
  3 10  1  0  0  0  0
  4 12  1  1  0  0  0
  5  9  1  0  0  0  0
  6  3  2  0  0  0  0
  6 13  1  0  0  0  0
  7  8  1  1  0  0  0
  7  4  1  0  0  0  0
  8  5  2  0  0  0  0
 10 11  1  0  0  0  0
 10  1  1  0  0  0  0
 11  7  1  0  0  0  0
 12  9  2  0  0  0  0
 13  2  2  0  0  0  0
 14 18  2  0  0  0  0
 14 16  1  0  0  0  0
 15 19  2  0  0  0  0
 16 17  2  0  0  0  0
 17 19  1  0  0  0  0
 18 15  1  0  0  0  0
 19 20  1  0  0  0  0
 20 21  2  0  0  0  0
 20 22  1  0  0  0  0
 23 13  1  0  0  0  0
 23 24  1  0  0  0  0
 24 25  1  0  0  0  0
M  END
>  <MODEL>
3

>  <REMARK>
 VINA RESULT:      -6.9      2.609      3.727
  Name = 
  4 active torsions:
  status: ('A' for Active; 'I' for Inactive)
    1  A    between atoms: C_2  and  C_25
    2  A    between atoms: C_3  and  C_6
    3  A    between atoms: C_13  and  C_14
    4  A    between atoms: C_14  and  C_24
                            x       y       z     vdW  Elec       q    Type
                         _______ _______ _______ _____ _____    ______ ____

>  <TORSDO>
F 4

$$$$
=
 OpenBabel11052417383D

 25 28  0  0  1  0  0  0  0  0999 V2000
  191.1730  175.7680  144.7330 N   0  0  0  0  0  0  0  0  0  0  0  0
  189.7730  176.0370  144.9350 C   0  0  0  0  0  0  0  0  0  0  0  0
  191.4920  175.4200  147.1470 C   0  0  0  0  0  3  0  0  0  0  0  0
  192.0220  176.2480  143.6510 C   0  0  1  0  0  3  0  0  0  0  0  0
  194.4010  175.5390  142.1740 C   0  0  0  0  0  3  0  0  0  0  0  0
  190.1810  175.5980  147.3300 C   0  0  0  0  0  3  0  0  0  0  0  0
  193.3890  176.1060  144.2690 C   0  0  2  0  0  3  0  0  0  0  0  0
  194.5780  175.9870  143.4240 C   0  0  0  0  0  3  0  0  0  0  0  0
  193.0540  175.1300  141.6940 C   0  0  0  0  0  3  0  0  0  0  0  0
  192.0060  175.5270  145.8240 N   0  0  0  0  0  0  0  0  0  0  0  0
  193.3490  175.7000  145.4970 N   0  0  0  0  0  2  0  0  0  0  0  0
  191.9470  175.4000  142.4080 C   0  0  0  0  0  3  0  0  0  0  0  0
  189.2800  175.9290  146.1950 C   0  0  0  0  0  0  0  0  0  0  0  0
  188.9150  176.4040  143.7870 C   0  0  0  0  0  0  0  0  0  0  0  0
  187.4130  175.7680  141.9890 C   0  0  0  0  0  3  0  0  0  0  0  0
  188.7830  177.7450  143.4100 C   0  0  0  0  0  3  0  0  0  0  0  0
  187.9720  178.0970  142.3270 C   0  0  0  0  0  3  0  0  0  0  0  0
  188.2240  175.4160  143.0710 C   0  0  0  0  0  3  0  0  0  0  0  0
  187.2820  177.1120  141.6090 C   0  0  0  0  0  0  0  0  0  0  0  0
  186.4270  177.4830  140.4680 C   0  0  0  0  0  0  0  0  0  0  0  0
  186.7030  177.0800  139.3070 O   0  0  0  0  0  0  0  0  0  0  0  0
  185.2780  178.3040  140.6650 N   0  0  0  0  0  1  0  0  0  0  0  0
  187.8220  176.1070  146.5010 C   0  0  0  0  0  2  0  0  0  0  0  0
  187.5220  177.5320  146.9430 C   0  0  0  0  0  2  0  0  0  0  0  0
  186.3280  178.0840  146.1880 C   0  0  0  0  0  1  0  0  0  0  0  0
  1  2  1  0  0  0  0
  1 10  1  0  0  0  0
  2 13  2  0  0  0  0
  3  6  2  0  0  0  0
  4 12  1  6  0  0  0
  4  7  1  0  0  0  0
  4  1  1  0  0  0  0
  5  8  2  0  0  0  0
  7  8  1  6  0  0  0
  7 11  1  0  0  0  0
  9  5  1  0  0  0  0
  9 12  2  0  0  0  0
 10  3  1  0  0  0  0
 11 10  1  0  0  0  0
 13 23  1  0  0  0  0
 13  6  1  0  0  0  0
 14  2  1  0  0  0  0
 15 18  1  0  0  0  0
 16 14  1  0  0  0  0
 17 16  2  0  0  0  0
 18 14  2  0  0  0  0
 19 15  2  0  0  0  0
 19 17  1  0  0  0  0
 20 22  1  0  0  0  0
 20 19  1  0  0  0  0
 21 20  2  0  0  0  0
 23 24  1  0  0  0  0
 25 24  1  0  0  0  0
M  END
>  <MODEL>
4

>  <REMARK>
 VINA RESULT:      -6.8      2.758      7.507
  Name = 
  4 active torsions:
  status: ('A' for Active; 'I' for Inactive)
    1  A    between atoms: C_2  and  C_25
    2  A    between atoms: C_3  and  C_6
    3  A    between atoms: C_13  and  C_14
    4  A    between atoms: C_14  and  C_24
                            x       y       z     vdW  Elec       q    Type
                         _______ _______ _______ _____ _____    ______ ____

>  <TORSDO>
F 4

$$$$
=
 OpenBabel11052417383D

 25 28  0  0  1  0  0  0  0  0999 V2000
  187.3410  176.7200  144.5430 N   0  0  0  0  0  0  0  0  0  0  0  0
  188.4690  175.9580  145.0120 C   0  0  0  0  0  0  0  0  0  0  0  0
  186.4700  176.9110  146.8360 C   0  0  0  0  0  3  0  0  0  0  0  0
  186.7310  176.6810  143.2210 C   0  0  1  0  0  3  0  0  0  0  0  0
  185.2170  178.3260  141.3910 C   0  0  0  0  0  3  0  0  0  0  0  0
  187.5510  176.2670  147.2830 C   0  0  0  0  0  3  0  0  0  0  0  0
  185.3590  177.2300  143.5160 C   0  0  2  0  0  3  0  0  0  0  0  0
  184.5600  177.8440  142.4550 C   0  0  0  0  0  3  0  0  0  0  0  0
  186.7020  178.2820  141.3290 C   0  0  0  0  0  3  0  0  0  0  0  0
  186.3480  177.1260  145.4330 N   0  0  0  0  0  0  0  0  0  0  0  0
  185.1700  177.4690  144.7740 N   0  0  0  0  0  2  0  0  0  0  0  0
  187.4180  177.5710  142.2170 C   0  0  0  0  0  3  0  0  0  0  0  0
  188.5890  175.7580  146.3490 C   0  0  0  0  0  0  0  0  0  0  0  0
  189.4610  175.4320  144.0500 C   0  0  0  0  0  0  0  0  0  0  0  0
  191.4530  175.7370  142.6960 C   0  0  0  0  0  3  0  0  0  0  0  0
  189.3540  174.1190  143.5780 C   0  0  0  0  0  3  0  0  0  0  0  0
  190.2890  173.6170  142.6700 C   0  0  0  0  0  3  0  0  0  0  0  0
  190.5180  176.2390  143.6050 C   0  0  0  0  0  3  0  0  0  0  0  0
  191.3450  174.4220  142.2220 C   0  0  0  0  0  0  0  0  0  0  0  0
  192.3320  173.8920  141.2650 C   0  0  0  0  0  0  0  0  0  0  0  0
  192.2590  172.6970  140.8720 O   0  0  0  0  0  0  0  0  0  0  0  0
  193.3800  174.7230  140.7740 N   0  0  0  0  0  1  0  0  0  0  0  0
  189.7680  175.0510  146.9490 C   0  0  0  0  0  2  0  0  0  0  0  0
  190.8240  176.0410  147.4200 C   0  0  0  0  0  2  0  0  0  0  0  0
  192.1980  175.6310  146.9260 C   0  0  0  0  0  1  0  0  0  0  0  0
  1  2  1  0  0  0  0
  1 10  1  0  0  0  0
  2 13  2  0  0  0  0
  3  6  2  0  0  0  0
  4 12  1  6  0  0  0
  4  7  1  0  0  0  0
  4  1  1  0  0  0  0
  5  8  2  0  0  0  0
  7  8  1  6  0  0  0
  7 11  1  0  0  0  0
  9  5  1  0  0  0  0
  9 12  2  0  0  0  0
 10  3  1  0  0  0  0
 11 10  1  0  0  0  0
 13 23  1  0  0  0  0
 13  6  1  0  0  0  0
 14  2  1  0  0  0  0
 15 18  2  0  0  0  0
 16 14  2  0  0  0  0
 17 16  1  0  0  0  0
 18 14  1  0  0  0  0
 19 17  2  0  0  0  0
 19 15  1  0  0  0  0
 20 19  1  0  0  0  0
 21 20  2  0  0  0  0
 22 20  1  0  0  0  0
 23 24  1  0  0  0  0
 25 24  1  0  0  0  0
M  END
>  <MODEL>
5

>  <REMARK>
 VINA RESULT:      -6.7      2.421      5.169
  Name = 
  4 active torsions:
  status: ('A' for Active; 'I' for Inactive)
    1  A    between atoms: C_2  and  C_25
    2  A    between atoms: C_3  and  C_6
    3  A    between atoms: C_13  and  C_14
    4  A    between atoms: C_14  and  C_24
                            x       y       z     vdW  Elec       q    Type
                         _______ _______ _______ _____ _____    ______ ____

>  <TORSDO>
F 4

$$$$
=
 OpenBabel11052417383D

 25 28  0  0  1  0  0  0  0  0999 V2000
  193.3370  175.9580  143.9810 N   0  0  0  0  0  0  0  0  0  0  0  0
  192.1250  176.2380  144.7050 C   0  0  0  0  0  0  0  0  0  0  0  0
  194.6510  176.0830  146.0570 C   0  0  0  0  0  3  0  0  0  0  0  0
  193.6170  176.2360  142.5780 C   0  0  1  0  0  3  0  0  0  0  0  0
  195.2350  175.2940  140.3780 C   0  0  0  0  0  3  0  0  0  0  0  0
  193.5200  176.2730  146.7420 C   0  0  0  0  0  3  0  0  0  0  0  0
  195.1240  176.2360  142.5770 C   0  0  2  0  0  3  0  0  0  0  0  0
  195.8660  175.9760  141.3420 C   0  0  0  0  0  3  0  0  0  0  0  0
  193.8550  174.7800  140.5860 C   0  0  0  0  0  3  0  0  0  0  0  0
  194.5630  175.9440  144.6420 N   0  0  0  0  0  0  0  0  0  0  0  0
  195.6310  176.0730  143.7560 N   0  0  0  0  0  2  0  0  0  0  0  0
  193.1190  175.1630  141.6430 C   0  0  0  0  0  3  0  0  0  0  0  0
  192.2060  176.3660  146.0540 C   0  0  0  0  0  0  0  0  0  0  0  0
  190.8400  176.3650  143.9830 C   0  0  0  0  0  0  0  0  0  0  0  0
  188.8490  175.3560  143.0300 C   0  0  0  0  0  3  0  0  0  0  0  0
  190.3900  177.6230  143.5670 C   0  0  0  0  0  3  0  0  0  0  0  0
  189.1770  177.7480  142.8860 C   0  0  0  0  0  3  0  0  0  0  0  0
  190.0620  175.2310  143.7110 C   0  0  0  0  0  3  0  0  0  0  0  0
  188.3970  176.6160  142.6120 C   0  0  0  0  0  0  0  0  0  0  0  0
  187.1180  176.7480  141.8940 C   0  0  0  0  0  0  0  0  0  0  0  0
  187.0870  176.7120  140.6350 O   0  0  0  0  0  0  0  0  0  0  0  0
  185.9010  176.9210  142.6140 N   0  0  0  0  0  1  0  0  0  0  0  0
  190.9930  176.5750  146.9120 C   0  0  0  0  0  2  0  0  0  0  0  0
  190.6000  175.2940  147.6330 C   0  0  0  0  0  2  0  0  0  0  0  0
  189.1880  174.8830  147.2620 C   0  0  0  0  0  1  0  0  0  0  0  0
  1 10  1  0  0  0  0
  1  2  1  0  0  0  0
  2 13  2  0  0  0  0
  3  6  2  0  0  0  0
  4 12  1  6  0  0  0
  4  1  1  0  0  0  0
  5  9  1  0  0  0  0
  5  8  2  0  0  0  0
  7  8  1  6  0  0  0
  7  4  1  0  0  0  0
  7 11  1  0  0  0  0
  9 12  2  0  0  0  0
 10  3  1  0  0  0  0
 11 10  1  0  0  0  0
 13  6  1  0  0  0  0
 13 23  1  0  0  0  0
 14  2  1  0  0  0  0
 15 18  2  0  0  0  0
 16 14  2  0  0  0  0
 17 16  1  0  0  0  0
 18 14  1  0  0  0  0
 19 17  2  0  0  0  0
 19 15  1  0  0  0  0
 20 19  1  0  0  0  0
 20 22  1  0  0  0  0
 21 20  2  0  0  0  0
 23 24  1  0  0  0  0
 25 24  1  0  0  0  0
M  END
>  <MODEL>
6

>  <REMARK>
 VINA RESULT:      -6.7      3.206      8.611
  Name = 
  4 active torsions:
  status: ('A' for Active; 'I' for Inactive)
    1  A    between atoms: C_2  and  C_25
    2  A    between atoms: C_3  and  C_6
    3  A    between atoms: C_13  and  C_14
    4  A    between atoms: C_14  and  C_24
                            x       y       z     vdW  Elec       q    Type
                         _______ _______ _______ _____ _____    ______ ____

>  <TORSDO>
F 4

$$$$
=
 OpenBabel11052417383D

 25 28  0  0  1  0  0  0  0  0999 V2000
  186.9300  177.0360  144.2000 N   0  0  0  0  0  0  0  0  0  0  0  0
  188.0060  176.4550  143.4400 C   0  0  0  0  0  0  0  0  0  0  0  0
  185.5830  177.3020  142.1590 C   0  0  0  0  0  3  0  0  0  0  0  0
  187.0230  177.7580  145.4620 C   0  0  1  0  0  3  0  0  0  0  0  0
  185.4740  178.3770  147.8200 C   0  0  0  0  0  3  0  0  0  0  0  0
  186.5490  176.6990  141.4620 C   0  0  0  0  0  3  0  0  0  0  0  0
  185.7360  178.5410  145.4450 C   0  0  2  0  0  3  0  0  0  0  0  0
  185.1420  179.0210  146.6940 C   0  0  0  0  0  3  0  0  0  0  0  0
  186.3680  177.1890  147.7830 C   0  0  0  0  0  3  0  0  0  0  0  0
  185.7830  177.4950  143.5560 N   0  0  0  0  0  0  0  0  0  0  0  0
  185.0580  178.3750  144.3560 N   0  0  0  0  0  2  0  0  0  0  0  0
  187.0420  176.8560  146.6700 C   0  0  0  0  0  3  0  0  0  0  0  0
  187.8140  176.2650  142.1100 C   0  0  0  0  0  0  0  0  0  0  0  0
  189.2670  176.0720  144.1120 C   0  0  0  0  0  0  0  0  0  0  0  0
  190.5890  174.4610  145.3560 C   0  0  0  0  0  3  0  0  0  0  0  0
  190.3470  176.9630  144.1380 C   0  0  0  0  0  3  0  0  0  0  0  0
  191.5410  176.6060  144.7700 C   0  0  0  0  0  3  0  0  0  0  0  0
  189.3950  174.8180  144.7240 C   0  0  0  0  0  3  0  0  0  0  0  0
  191.6710  175.3530  145.3830 C   0  0  0  0  0  0  0  0  0  0  0  0
  192.9300  174.9770  146.0490 C   0  0  0  0  0  0  0  0  0  0  0  0
  193.3200  173.7790  146.0440 O   0  0  0  0  0  0  0  0  0  0  0  0
  193.7220  175.9630  146.7060 N   0  0  0  0  0  1  0  0  0  0  0  0
  188.8370  175.5930  141.2430 C   0  0  0  0  0  2  0  0  0  0  0  0
  188.4860  174.1300  141.0090 C   0  0  0  0  0  2  0  0  0  0  0  0
  189.6370  173.2320  141.4220 C   0  0  0  0  0  1  0  0  0  0  0  0
  1  4  1  0  0  0  0
  2 14  1  0  0  0  0
  2  1  1  0  0  0  0
  3 10  1  0  0  0  0
  4 12  1  1  0  0  0
  6 13  1  0  0  0  0
  6  3  2  0  0  0  0
  7  4  1  0  0  0  0
  7  8  1  1  0  0  0
  8  5  2  0  0  0  0
  9  5  1  0  0  0  0
 10  1  1  0  0  0  0
 10 11  1  0  0  0  0
 11  7  1  0  0  0  0
 12  9  2  0  0  0  0
 13  2  2  0  0  0  0
 14 16  2  0  0  0  0
 14 18  1  0  0  0  0
 15 19  1  0  0  0  0
 16 17  1  0  0  0  0
 17 19  2  0  0  0  0
 18 15  2  0  0  0  0
 19 20  1  0  0  0  0
 20 22  1  0  0  0  0
 21 20  2  0  0  0  0
 23 13  1  0  0  0  0
 24 23  1  0  0  0  0
 24 25  1  0  0  0  0
M  END
>  <MODEL>
7

>  <REMARK>
 VINA RESULT:      -6.7      2.090      2.796
  Name = 
  4 active torsions:
  status: ('A' for Active; 'I' for Inactive)
    1  A    between atoms: C_2  and  C_25
    2  A    between atoms: C_3  and  C_6
    3  A    between atoms: C_13  and  C_14
    4  A    between atoms: C_14  and  C_24
                            x       y       z     vdW  Elec       q    Type
                         _______ _______ _______ _____ _____    ______ ____

>  <TORSDO>
F 4

$$$$
=
 OpenBabel11052417383D

 25 28  0  0  1  0  0  0  0  0999 V2000
  190.0650  175.9600  144.3540 N   0  0  0  0  0  0  0  0  0  0  0  0
  188.9500  176.7060  144.8780 C   0  0  0  0  0  0  0  0  0  0  0  0
  191.1880  176.0310  146.5420 C   0  0  0  0  0  3  0  0  0  0  0  0
  190.5260  175.9050  142.9730 C   0  0  1  0  0  3  0  0  0  0  0  0
  191.9310  174.1720  141.1370 C   0  0  0  0  0  3  0  0  0  0  0  0
  190.1250  176.6600  147.0490 C   0  0  0  0  0  3  0  0  0  0  0  0
  191.9520  175.4560  143.1590 C   0  0  2  0  0  3  0  0  0  0  0  0
  192.6680  174.7850  142.0730 C   0  0  0  0  0  3  0  0  0  0  0  0
  190.4470  174.1350  141.2390 C   0  0  0  0  0  3  0  0  0  0  0  0
  191.1700  175.6910  145.1590 N   0  0  0  0  0  0  0  0  0  0  0  0
  192.2890  175.3460  144.4040 N   0  0  0  0  0  2  0  0  0  0  0  0
  189.7900  174.8910  142.1350 C   0  0  0  0  0  3  0  0  0  0  0  0
  188.9630  177.0250  146.1970 C   0  0  0  0  0  0  0  0  0  0  0  0
  187.8300  177.0880  143.9910 C   0  0  0  0  0  0  0  0  0  0  0  0
  186.7000  178.7340  142.6110 C   0  0  0  0  0  3  0  0  0  0  0  0
  186.8310  176.1570  143.6820 C   0  0  0  0  0  3  0  0  0  0  0  0
  185.7720  176.5130  142.8430 C   0  0  0  0  0  3  0  0  0  0  0  0
  187.7600  178.3790  143.4490 C   0  0  0  0  0  3  0  0  0  0  0  0
  185.6980  177.8030  142.3020 C   0  0  0  0  0  0  0  0  0  0  0  0
  184.5810  178.1770  141.4170 C   0  0  0  0  0  0  0  0  0  0  0  0
  184.7970  178.4830  140.2140 O   0  0  0  0  0  0  0  0  0  0  0  0
  183.2450  178.1970  141.9110 N   0  0  0  0  0  1  0  0  0  0  0  0
  187.8150  177.7260  146.8610 C   0  0  0  0  0  2  0  0  0  0  0  0
  186.7480  176.7360  147.3050 C   0  0  0  0  0  2  0  0  0  0  0  0
  185.3810  177.1640  146.8050 C   0  0  0  0  0  1  0  0  0  0  0  0
  1  2  1  0  0  0  0
  1 10  1  0  0  0  0
  2 13  2  0  0  0  0
  3  6  2  0  0  0  0
  4 12  1  6  0  0  0
  4  7  1  0  0  0  0
  4  1  1  0  0  0  0
  5  9  1  0  0  0  0
  5  8  2  0  0  0  0
  7  8  1  6  0  0  0
  7 11  1  0  0  0  0
  9 12  2  0  0  0  0
 10  3  1  0  0  0  0
 11 10  1  0  0  0  0
 13 23  1  0  0  0  0
 13  6  1  0  0  0  0
 14  2  1  0  0  0  0
 15 18  1  0  0  0  0
 16 14  1  0  0  0  0
 17 16  2  0  0  0  0
 18 14  2  0  0  0  0
 19 15  2  0  0  0  0
 19 17  1  0  0  0  0
 20 22  1  0  0  0  0
 20 19  1  0  0  0  0
 21 20  2  0  0  0  0
 23 24  1  0  0  0  0
 25 24  1  0  0  0  0
M  END
>  <MODEL>
8

>  <REMARK>
 VINA RESULT:      -6.6      2.794      7.369
  Name = 
  4 active torsions:
  status: ('A' for Active; 'I' for Inactive)
    1  A    between atoms: C_2  and  C_25
    2  A    between atoms: C_3  and  C_6
    3  A    between atoms: C_13  and  C_14
    4  A    between atoms: C_14  and  C_24
                            x       y       z     vdW  Elec       q    Type
                         _______ _______ _______ _____ _____    ______ ____

>  <TORSDO>
F 4

$$$$
=
 OpenBabel11052417383D

 25 28  0  0  1  0  0  0  0  0999 V2000
  189.0720  176.4600  145.9820 N   0  0  0  0  0  0  0  0  0  0  0  0
  190.2070  175.5830  145.8570 C   0  0  0  0  0  0  0  0  0  0  0  0
  190.1040  177.5820  147.9130 C   0  0  0  0  0  3  0  0  0  0  0  0
  187.6990  176.2000  145.5680 C   0  0  1  0  0  3  0  0  0  0  0  0
  185.3050  177.5770  144.7210 C   0  0  0  0  0  3  0  0  0  0  0  0
  191.1890  176.8190  147.7550 C   0  0  0  0  0  3  0  0  0  0  0  0
  186.9450  177.1860  146.4220 C   0  0  2  0  0  3  0  0  0  0  0  0
  185.6170  177.6530  146.0210 C   0  0  0  0  0  3  0  0  0  0  0  0
  186.2970  177.0870  143.7270 C   0  0  0  0  0  3  0  0  0  0  0  0
  189.0110  177.3870  147.0210 N   0  0  0  0  0  0  0  0  0  0  0  0
  187.7100  177.8400  147.2350 N   0  0  0  0  0  2  0  0  0  0  0  0
  187.4440  176.5030  144.1130 C   0  0  0  0  0  3  0  0  0  0  0  0
  191.2520  175.7730  146.7020 C   0  0  0  0  0  0  0  0  0  0  0  0
  190.2180  174.5260  144.8230 C   0  0  0  0  0  0  0  0  0  0  0  0
  190.6640  173.8050  142.5480 C   0  0  0  0  0  3  0  0  0  0  0  0
  189.7940  173.2300  145.1400 C   0  0  0  0  0  3  0  0  0  0  0  0
  189.8040  172.2270  144.1670 C   0  0  0  0  0  3  0  0  0  0  0  0
  190.6550  174.8080  143.5210 C   0  0  0  0  0  3  0  0  0  0  0  0
  190.2390  172.5070  142.8650 C   0  0  0  0  0  0  0  0  0  0  0  0
  190.2490  171.4490  141.8400 C   0  0  0  0  0  0  0  0  0  0  0  0
  190.5360  170.2620  142.1530 O   0  0  0  0  0  0  0  0  0  0  0  0
  189.9370  171.7540  140.4840 N   0  0  0  0  0  1  0  0  0  0  0  0
  192.5160  174.9710  146.6030 C   0  0  0  0  0  2  0  0  0  0  0  0
  193.7260  175.8720  146.4020 C   0  0  0  0  0  2  0  0  0  0  0  0
  193.8070  176.3430  144.9620 C   0  0  0  0  0  1  0  0  0  0  0  0
  1 10  1  0  0  0  0
  2  1  1  0  0  0  0
  2 13  2  0  0  0  0
  4 12  1  6  0  0  0
  4  1  1  0  0  0  0
  4  7  1  0  0  0  0
  5  8  2  0  0  0  0
  6  3  2  0  0  0  0
  7  8  1  6  0  0  0
  7 11  1  0  0  0  0
  9 12  2  0  0  0  0
  9  5  1  0  0  0  0
 10 11  1  0  0  0  0
 10  3  1  0  0  0  0
 13  6  1  0  0  0  0
 14 16  1  0  0  0  0
 14  2  1  0  0  0  0
 15 19  2  0  0  0  0
 15 18  1  0  0  0  0
 17 16  2  0  0  0  0
 18 14  2  0  0  0  0
 19 17  1  0  0  0  0
 20 21  2  0  0  0  0
 20 19  1  0  0  0  0
 22 20  1  0  0  0  0
 23 13  1  0  0  0  0
 24 23  1  0  0  0  0
 25 24  1  0  0  0  0
M  END
>  <MODEL>
9

>  <REMARK>
 VINA RESULT:      -6.6      3.654      6.147
  Name = 
  4 active torsions:
  status: ('A' for Active; 'I' for Inactive)
    1  A    between atoms: C_2  and  C_25
    2  A    between atoms: C_3  and  C_6
    3  A    between atoms: C_13  and  C_14
    4  A    between atoms: C_14  and  C_24
                            x       y       z     vdW  Elec       q    Type
                         _______ _______ _______ _____ _____    ______ ____

>  <TORSDO>
F 4

$$$$
