=
 OpenBabel11052417333D

 25 29  0  0  0  0  0  0  0  0999 V2000
  185.8740  177.9830  143.5590 C   0  0  0  0  0  0  0  0  0  0  0  0
  186.5910  177.8530  144.7520 C   0  0  0  0  0  0  0  0  0  0  0  0
  183.9560  178.8420  144.6750 C   0  0  0  0  0  3  0  0  0  0  0  0
  186.2180  177.6970  142.2540 C   0  0  0  0  0  0  0  0  0  0  0  0
  186.2180  177.3690  139.5100 C   0  0  0  0  0  3  0  0  0  0  0  0
  184.6210  178.7370  145.9040 C   0  0  0  0  0  3  0  0  0  0  0  0
  185.1030  178.0320  141.5200 C   0  0  0  0  0  0  0  0  0  0  0  0
  185.0660  177.8800  140.1370 C   0  0  0  0  0  3  0  0  0  0  0  0
  186.6340  178.1260  147.1750 C   0  0  0  0  0  0  0  0  0  0  0  0
  186.0080  178.5170  148.4730 C   0  0  0  0  0  1  0  0  0  0  0  0
  187.9000  177.3610  144.7860 C   0  0  0  0  0  3  0  0  0  0  0  0
  187.3620  177.0260  140.2670 C   0  0  0  0  0  3  0  0  0  0  0  0
  184.6110  178.4600  143.5510 N   0  0  0  0  0  0  0  0  0  0  0  0
  184.1190  178.5000  142.3180 N   0  0  0  0  0  0  0  0  0  0  0  0
  187.9420  177.6320  147.1890 C   0  0  0  0  0  3  0  0  0  0  0  0
  187.3730  177.1890  141.6650 C   0  0  0  0  0  3  0  0  0  0  0  0
  188.5860  177.2460  146.0020 C   0  0  0  0  0  0  0  0  0  0  0  0
  185.9430  178.2410  145.9540 C   0  0  0  0  0  0  0  0  0  0  0  0
  192.1840  176.4850  145.0360 C   0  0  0  0  0  0  0  0  0  0  0  0
  189.9700  176.7230  146.0150 C   0  0  0  0  0  0  0  0  0  0  0  0
  190.8150  177.0060  145.0180 C   0  0  0  0  0  3  0  0  0  0  0  0
  192.9670  176.7600  144.0910 O   0  0  0  0  0  0  0  0  0  0  0  0
  190.4060  175.9020  147.1130 N   0  0  0  0  0  0  0  0  0  0  0  0
  192.6640  175.6270  146.1690 C   0  0  0  0  0  2  0  0  0  0  0  0
  191.6010  175.3990  147.2100 C   0  0  0  0  0  3  0  0  0  0  0  0
  1  2  1  0  0  0  0
  2 11  2  0  0  0  0
  2 18  1  0  0  0  0
  3  6  2  0  0  0  0
  4  1  2  0  0  0  0
  5  8  2  0  0  0  0
  5 12  1  0  0  0  0
  6 18  1  0  0  0  0
  7  4  1  0  0  0  0
  7 14  2  0  0  0  0
  8  7  1  0  0  0  0
  9 15  1  0  0  0  0
  9 10  1  0  0  0  0
 11 17  1  0  0  0  0
 12 16  2  0  0  0  0
 13  1  1  0  0  0  0
 13  3  1  0  0  0  0
 14 13  1  0  0  0  0
 16  4  1  0  0  0  0
 17 20  1  0  0  0  0
 17 15  2  0  0  0  0
 18  9  2  0  0  0  0
 19 24  1  0  0  0  0
 20 23  1  0  0  0  0
 21 19  1  0  0  0  0
 21 20  2  0  0  0  0
 22 19  2  0  0  0  0
 23 25  2  0  0  0  0
 24 25  1  0  0  0  0
M  END
>  <MODEL>
1

>  <REMARK>
 VINA RESULT:      -8.4      0.000      0.000
  Name = 
  1 active torsions:
  status: ('A' for Active; 'I' for Inactive)
    1  A    between atoms: C_6  and  C_23
                            x       y       z     vdW  Elec       q    Type
                         _______ _______ _______ _____ _____    ______ ____

>  <TORSDO>
F 1

$$$$
=
 OpenBabel11052417333D

 25 29  0  0  0  0  0  0  0  0999 V2000
  189.4820  175.0960  144.6480 C   0  0  0  0  0  0  0  0  0  0  0  0
  188.3070  175.8380  144.8040 C   0  0  0  0  0  0  0  0  0  0  0  0
  189.8390  174.9610  146.9970 C   0  0  0  0  0  3  0  0  0  0  0  0
  190.1310  174.6450  143.5180 C   0  0  0  0  0  0  0  0  0  0  0  0
  191.9050  173.4670  141.7570 C   0  0  0  0  0  3  0  0  0  0  0  0
  188.6700  175.7020  147.2200 C   0  0  0  0  0  3  0  0  0  0  0  0
  191.2330  173.9730  143.9970 C   0  0  0  0  0  0  0  0  0  0  0  0
  192.1480  173.3680  143.1400 C   0  0  0  0  0  3  0  0  0  0  0  0
  186.7170  176.8920  146.3220 C   0  0  0  0  0  0  0  0  0  0  0  0
  186.2300  177.2500  147.6870 C   0  0  0  0  0  1  0  0  0  0  0  0
  187.5480  176.2710  143.7120 C   0  0  0  0  0  3  0  0  0  0  0  0
  190.7730  174.1580  141.2690 C   0  0  0  0  0  3  0  0  0  0  0  0
  190.1970  174.6890  145.7180 N   0  0  0  0  0  0  0  0  0  0  0  0
  191.2710  174.0010  145.3460 N   0  0  0  0  0  0  0  0  0  0  0  0
  185.9710  177.3160  145.2170 C   0  0  0  0  0  3  0  0  0  0  0  0
  189.8620  174.7620  142.1570 C   0  0  0  0  0  3  0  0  0  0  0  0
  186.3770  177.0130  143.9070 C   0  0  0  0  0  0  0  0  0  0  0  0
  187.8950  176.1470  146.1260 C   0  0  0  0  0  0  0  0  0  0  0  0
  183.5280  178.2400  141.7070 C   0  0  0  0  0  0  0  0  0  0  0  0
  185.5900  177.4610  142.7370 C   0  0  0  0  0  0  0  0  0  0  0  0
  184.3020  177.7960  142.8700 C   0  0  0  0  0  3  0  0  0  0  0  0
  182.3170  178.5520  141.8490 O   0  0  0  0  0  0  0  0  0  0  0  0
  186.2210  177.5350  141.4460 N   0  0  0  0  0  0  0  0  0  0  0  0
  184.1620  178.3260  140.3500 C   0  0  0  0  0  2  0  0  0  0  0  0
  185.6100  177.9180  140.3640 C   0  0  0  0  0  3  0  0  0  0  0  0
  1  2  1  0  0  0  0
  1 13  1  0  0  0  0
  2 18  1  0  0  0  0
  3  6  2  0  0  0  0
  4  7  1  0  0  0  0
  4  1  2  0  0  0  0
  5  8  2  0  0  0  0
  7 14  2  0  0  0  0
  8  7  1  0  0  0  0
  9 10  1  0  0  0  0
 11 17  1  0  0  0  0
 11  2  2  0  0  0  0
 12  5  1  0  0  0  0
 12 16  2  0  0  0  0
 13  3  1  0  0  0  0
 14 13  1  0  0  0  0
 15  9  1  0  0  0  0
 16  4  1  0  0  0  0
 17 15  2  0  0  0  0
 18  9  2  0  0  0  0
 18  6  1  0  0  0  0
 19 22  2  0  0  0  0
 19 21  1  0  0  0  0
 20 21  2  0  0  0  0
 20 17  1  0  0  0  0
 23 20  1  0  0  0  0
 24 25  1  0  0  0  0
 24 19  1  0  0  0  0
 25 23  2  0  0  0  0
M  END
>  <MODEL>
2

>  <REMARK>
 VINA RESULT:      -7.9      3.182      6.544
  Name = 
  1 active torsions:
  status: ('A' for Active; 'I' for Inactive)
    1  A    between atoms: C_6  and  C_23
                            x       y       z     vdW  Elec       q    Type
                         _______ _______ _______ _____ _____    ______ ____

>  <TORSDO>
F 1

$$$$
=
 OpenBabel11052417333D

 25 29  0  0  0  0  0  0  0  0999 V2000
  190.5420  175.1200  143.6270 C   0  0  0  0  0  0  0  0  0  0  0  0
  190.0350  175.8260  144.7230 C   0  0  0  0  0  0  0  0  0  0  0  0
  192.6590  174.8060  144.6680 C   0  0  0  0  0  3  0  0  0  0  0  0
  189.9670  174.7730  142.4230 C   0  0  0  0  0  0  0  0  0  0  0  0
  189.4810  173.7710  139.8940 C   0  0  0  0  0  3  0  0  0  0  0  0
  192.2110  175.5050  145.7970 C   0  0  0  0  0  3  0  0  0  0  0  0
  190.9530  174.0850  141.7530 C   0  0  0  0  0  0  0  0  0  0  0  0
  190.7450  173.5670  140.4780 C   0  0  0  0  0  3  0  0  0  0  0  0
  190.4210  176.7270  146.9550 C   0  0  0  0  0  0  0  0  0  0  0  0
  191.2770  176.9660  148.1550 C   0  0  0  0  0  1  0  0  0  0  0  0
  188.7310  176.3310  144.7460 C   0  0  0  0  0  3  0  0  0  0  0  0
  188.4710  174.4780  140.5840 C   0  0  0  0  0  3  0  0  0  0  0  0
  191.8050  174.6430  143.6280 N   0  0  0  0  0  0  0  0  0  0  0  0
  192.0790  174.0060  142.4950 N   0  0  0  0  0  0  0  0  0  0  0  0
  189.1140  177.2240  146.9600 C   0  0  0  0  0  3  0  0  0  0  0  0
  188.7070  174.9930  141.8730 C   0  0  0  0  0  3  0  0  0  0  0  0
  188.2600  177.0330  145.8620 C   0  0  0  0  0  0  0  0  0  0  0  0
  190.8960  176.0220  145.8340 C   0  0  0  0  0  0  0  0  0  0  0  0
  184.8050  178.1590  144.7410 C   0  0  0  0  0  0  0  0  0  0  0  0
  186.8770  177.5580  145.8660 C   0  0  0  0  0  0  0  0  0  0  0  0
  186.1740  177.6370  144.7310 C   0  0  0  0  0  3  0  0  0  0  0  0
  184.1570  178.2260  143.6650 O   0  0  0  0  0  0  0  0  0  0  0  0
  186.2860  177.9890  147.1060 N   0  0  0  0  0  0  0  0  0  0  0  0
  184.1660  178.6140  146.0200 C   0  0  0  0  0  2  0  0  0  0  0  0
  185.0790  178.4640  147.2060 C   0  0  0  0  0  3  0  0  0  0  0  0
  1 13  1  0  0  0  0
  1  2  1  0  0  0  0
  2 11  2  0  0  0  0
  2 18  1  0  0  0  0
  3  6  2  0  0  0  0
  4  1  2  0  0  0  0
  5  8  2  0  0  0  0
  5 12  1  0  0  0  0
  6 18  1  0  0  0  0
  7  4  1  0  0  0  0
  7 14  2  0  0  0  0
  8  7  1  0  0  0  0
  9 15  1  0  0  0  0
  9 10  1  0  0  0  0
 11 17  1  0  0  0  0
 12 16  2  0  0  0  0
 13  3  1  0  0  0  0
 14 13  1  0  0  0  0
 16  4  1  0  0  0  0
 17 20  1  0  0  0  0
 17 15  2  0  0  0  0
 18  9  2  0  0  0  0
 19 24  1  0  0  0  0
 20 23  1  0  0  0  0
 21 19  1  0  0  0  0
 21 20  2  0  0  0  0
 22 19  2  0  0  0  0
 23 25  2  0  0  0  0
 24 25  1  0  0  0  0
M  END
>  <MODEL>
3

>  <REMARK>
 VINA RESULT:      -7.9      3.147      6.070
  Name = 
  1 active torsions:
  status: ('A' for Active; 'I' for Inactive)
    1  A    between atoms: C_6  and  C_23
                            x       y       z     vdW  Elec       q    Type
                         _______ _______ _______ _____ _____    ______ ____

>  <TORSDO>
F 1

$$$$
=
 OpenBabel11052417333D

 25 29  0  0  0  0  0  0  0  0999 V2000
  187.2640  176.9640  144.7580 C   0  0  0  0  0  0  0  0  0  0  0  0
  188.2250  176.0640  144.2880 C   0  0  0  0  0  0  0  0  0  0  0  0
  188.3520  177.2000  146.8610 C   0  0  0  0  0  3  0  0  0  0  0  0
  186.1300  177.4780  144.1640 C   0  0  0  0  0  0  0  0  0  0  0  0
  183.7990  178.8600  143.6250 C   0  0  0  0  0  3  0  0  0  0  0  0
  189.3480  176.3040  146.4490 C   0  0  0  0  0  3  0  0  0  0  0  0
  185.5880  178.3120  145.1150 C   0  0  0  0  0  0  0  0  0  0  0  0
  184.4150  179.0240  144.8790 C   0  0  0  0  0  3  0  0  0  0  0  0
  190.2810  174.8260  144.7220 C   0  0  0  0  0  0  0  0  0  0  0  0
  191.4290  174.4320  145.5910 C   0  0  0  0  0  1  0  0  0  0  0  0
  188.1590  175.5020  143.0090 C   0  0  0  0  0  3  0  0  0  0  0  0
  184.3580  178.0020  142.6500 C   0  0  0  0  0  3  0  0  0  0  0  0
  187.3490  177.4930  145.9970 N   0  0  0  0  0  0  0  0  0  0  0  0
  186.3380  178.3190  146.2380 N   0  0  0  0  0  0  0  0  0  0  0  0
  190.1970  174.2740  143.4390 C   0  0  0  0  0  3  0  0  0  0  0  0
  185.5460  177.2940  142.9140 C   0  0  0  0  0  3  0  0  0  0  0  0
  189.1410  174.6040  142.5740 C   0  0  0  0  0  0  0  0  0  0  0  0
  189.2930  175.7280  145.1600 C   0  0  0  0  0  0  0  0  0  0  0  0
  188.3280  174.0880  138.8950 C   0  0  0  0  0  0  0  0  0  0  0  0
  189.0510  174.0220  141.2170 C   0  0  0  0  0  0  0  0  0  0  0  0
  188.4140  174.6710  140.2370 C   0  0  0  0  0  3  0  0  0  0  0  0
  187.7250  174.7110  137.9840 O   0  0  0  0  0  0  0  0  0  0  0  0
  189.6570  172.7430  140.9540 N   0  0  0  0  0  0  0  0  0  0  0  0
  188.9510  172.7570  138.5940 C   0  0  0  0  0  2  0  0  0  0  0  0
  189.6290  172.1540  139.7950 C   0  0  0  0  0  3  0  0  0  0  0  0
  1 13  1  0  0  0  0
  2  1  1  0  0  0  0
  2 18  1  0  0  0  0
  4  1  2  0  0  0  0
  4  7  1  0  0  0  0
  5  8  2  0  0  0  0
  6  3  2  0  0  0  0
  7 14  2  0  0  0  0
  8  7  1  0  0  0  0
  9 18  2  0  0  0  0
  9 10  1  0  0  0  0
 11  2  2  0  0  0  0
 12 16  2  0  0  0  0
 12  5  1  0  0  0  0
 13 14  1  0  0  0  0
 13  3  1  0  0  0  0
 15  9  1  0  0  0  0
 16  4  1  0  0  0  0
 17 11  1  0  0  0  0
 17 15  2  0  0  0  0
 18  6  1  0  0  0  0
 19 21  1  0  0  0  0
 20 17  1  0  0  0  0
 21 20  2  0  0  0  0
 22 19  2  0  0  0  0
 23 20  1  0  0  0  0
 24 19  1  0  0  0  0
 24 25  1  0  0  0  0
 25 23  2  0  0  0  0
M  END
>  <MODEL>
4

>  <REMARK>
 VINA RESULT:      -7.8      3.291      5.426
  Name = 
  1 active torsions:
  status: ('A' for Active; 'I' for Inactive)
    1  A    between atoms: C_6  and  C_23
                            x       y       z     vdW  Elec       q    Type
                         _______ _______ _______ _____ _____    ______ ____

>  <TORSDO>
F 1

$$$$
=
 OpenBabel11052417333D

 25 29  0  0  0  0  0  0  0  0999 V2000
  186.6690  176.8920  144.1840 C   0  0  0  0  0  0  0  0  0  0  0  0
  187.8900  176.2530  144.4270 C   0  0  0  0  0  0  0  0  0  0  0  0
  186.1410  177.0030  146.5010 C   0  0  0  0  0  3  0  0  0  0  0  0
  186.0640  177.2810  143.0080 C   0  0  0  0  0  0  0  0  0  0  0  0
  184.3220  178.2980  141.1180 C   0  0  0  0  0  3  0  0  0  0  0  0
  187.3500  176.3660  146.8110 C   0  0  0  0  0  3  0  0  0  0  0  0
  184.8780  177.8580  143.4040 C   0  0  0  0  0  0  0  0  0  0  0  0
  183.9760  178.3800  142.4800 C   0  0  0  0  0  3  0  0  0  0  0  0
  189.4560  175.3450  146.0600 C   0  0  0  0  0  0  0  0  0  0  0  0
  189.8760  175.0350  147.4590 C   0  0  0  0  0  1  0  0  0  0  0  0
  188.7560  175.8830  143.3930 C   0  0  0  0  0  3  0  0  0  0  0  0
  185.5400  177.7040  140.7160 C   0  0  0  0  0  3  0  0  0  0  0  0
  185.8500  177.2400  145.1990 N   0  0  0  0  0  0  0  0  0  0  0  0
  184.7500  177.8320  144.7480 N   0  0  0  0  0  0  0  0  0  0  0  0
  190.3090  174.9820  145.0130 C   0  0  0  0  0  3  0  0  0  0  0  0
  186.4350  177.1830  141.6700 C   0  0  0  0  0  3  0  0  0  0  0  0
  189.9700  175.2460  143.6760 C   0  0  0  0  0  0  0  0  0  0  0  0
  188.2350  175.9860  145.7770 C   0  0  0  0  0  0  0  0  0  0  0  0
  191.3370  173.6960  140.4840 C   0  0  0  0  0  0  0  0  0  0  0  0
  190.8720  174.8620  142.5670 C   0  0  0  0  0  0  0  0  0  0  0  0
  190.4390  174.0720  141.5790 C   0  0  0  0  0  3  0  0  0  0  0  0
  190.9140  172.9520  139.5610 O   0  0  0  0  0  0  0  0  0  0  0  0
  192.2270  175.3470  142.5570 N   0  0  0  0  0  0  0  0  0  0  0  0
  192.7540  174.1870  140.4480 C   0  0  0  0  0  2  0  0  0  0  0  0
  193.0890  175.0630  141.6250 C   0  0  0  0  0  3  0  0  0  0  0  0
  1  2  1  0  0  0  0
  1 13  1  0  0  0  0
  2 18  1  0  0  0  0
  3  6  2  0  0  0  0
  4  7  1  0  0  0  0
  4  1  2  0  0  0  0
  5  8  2  0  0  0  0
  7 14  2  0  0  0  0
  8  7  1  0  0  0  0
  9 10  1  0  0  0  0
 11 17  1  0  0  0  0
 11  2  2  0  0  0  0
 12  5  1  0  0  0  0
 12 16  2  0  0  0  0
 13  3  1  0  0  0  0
 14 13  1  0  0  0  0
 15  9  1  0  0  0  0
 16  4  1  0  0  0  0
 17 15  2  0  0  0  0
 18  9  2  0  0  0  0
 18  6  1  0  0  0  0
 19 21  1  0  0  0  0
 20 17  1  0  0  0  0
 21 20  2  0  0  0  0
 22 19  2  0  0  0  0
 23 20  1  0  0  0  0
 24 19  1  0  0  0  0
 24 25  1  0  0  0  0
 25 23  2  0  0  0  0
M  END
>  <MODEL>
5

>  <REMARK>
 VINA RESULT:      -7.7      2.852      3.766
  Name = 
  1 active torsions:
  status: ('A' for Active; 'I' for Inactive)
    1  A    between atoms: C_6  and  C_23
                            x       y       z     vdW  Elec       q    Type
                         _______ _______ _______ _____ _____    ______ ____

>  <TORSDO>
F 1

$$$$
=
 OpenBabel11052417333D

 25 29  0  0  0  0  0  0  0  0999 V2000
  185.6920  177.5670  143.9080 C   0  0  0  0  0  0  0  0  0  0  0  0
  186.4280  177.0310  142.8470 C   0  0  0  0  0  0  0  0  0  0  0  0
  184.1720  178.6660  142.4450 C   0  0  0  0  0  3  0  0  0  0  0  0
  185.8510  177.4560  145.2740 C   0  0  0  0  0  0  0  0  0  0  0  0
  185.5660  177.6690  148.0140 C   0  0  0  0  0  3  0  0  0  0  0  0
  184.8660  178.1590  141.3380 C   0  0  0  0  0  3  0  0  0  0  0  0
  184.8230  178.2020  145.8040 C   0  0  0  0  0  0  0  0  0  0  0  0
  184.6490  178.3330  147.1790 C   0  0  0  0  0  3  0  0  0  0  0  0
  186.7160  176.8160  140.4350 C   0  0  0  0  0  0  0  0  0  0  0  0
  186.3160  177.1020  139.0250 C   0  0  0  0  0  1  0  0  0  0  0  0
  187.5480  176.2190  143.0510 C   0  0  0  0  0  3  0  0  0  0  0  0
  186.6210  176.9040  147.4660 C   0  0  0  0  0  3  0  0  0  0  0  0
  184.6140  178.3490  143.6860 N   0  0  0  0  0  0  0  0  0  0  0  0
  184.0660  178.7490  144.8280 N   0  0  0  0  0  0  0  0  0  0  0  0
  187.8330  176.0050  140.6600 C   0  0  0  0  0  3  0  0  0  0  0  0
  186.7750  176.7880  146.0720 C   0  0  0  0  0  3  0  0  0  0  0  0
  188.2590  175.7000  141.9620 C   0  0  0  0  0  0  0  0  0  0  0  0
  186.0000  177.3380  141.5290 C   0  0  0  0  0  0  0  0  0  0  0  0
  191.1100  173.8450  143.6630 C   0  0  0  0  0  0  0  0  0  0  0  0
  189.4420  174.8430  142.2010 C   0  0  0  0  0  0  0  0  0  0  0  0
  189.9380  174.6950  143.4340 C   0  0  0  0  0  3  0  0  0  0  0  0
  191.5650  173.7160  144.8290 O   0  0  0  0  0  0  0  0  0  0  0  0
  190.0600  174.1660  141.0920 N   0  0  0  0  0  0  0  0  0  0  0  0
  191.7740  173.1270  142.5260 C   0  0  0  0  0  2  0  0  0  0  0  0
  191.1010  173.3940  141.2060 C   0  0  0  0  0  3  0  0  0  0  0  0
  1  4  2  0  0  0  0
  2 11  1  0  0  0  0
  2  1  1  0  0  0  0
  3 13  1  0  0  0  0
  4  7  1  0  0  0  0
  4 16  1  0  0  0  0
  6 18  1  0  0  0  0
  6  3  2  0  0  0  0
  7  8  1  0  0  0  0
  8  5  2  0  0  0  0
  9 15  2  0  0  0  0
  9 18  1  0  0  0  0
 10  9  1  0  0  0  0
 12  5  1  0  0  0  0
 13  1  1  0  0  0  0
 13 14  1  0  0  0  0
 14  7  2  0  0  0  0
 15 17  1  0  0  0  0
 16 12  2  0  0  0  0
 17 20  1  0  0  0  0
 17 11  2  0  0  0  0
 18  2  2  0  0  0  0
 19 22  2  0  0  0  0
 20 21  2  0  0  0  0
 21 19  1  0  0  0  0
 23 25  2  0  0  0  0
 23 20  1  0  0  0  0
 24 19  1  0  0  0  0
 25 24  1  0  0  0  0
M  END
>  <MODEL>
6

>  <REMARK>
 VINA RESULT:      -7.6      2.416      5.046
  Name = 
  1 active torsions:
  status: ('A' for Active; 'I' for Inactive)
    1  A    between atoms: C_6  and  C_23
                            x       y       z     vdW  Elec       q    Type
                         _______ _______ _______ _____ _____    ______ ____

>  <TORSDO>
F 1

$$$$
=
 OpenBabel11052417333D

 25 29  0  0  0  0  0  0  0  0999 V2000
  186.7100  177.3010  144.9760 C   0  0  0  0  0  0  0  0  0  0  0  0
  187.8420  176.4870  144.8660 C   0  0  0  0  0  0  0  0  0  0  0  0
  187.1300  177.7660  147.2710 C   0  0  0  0  0  3  0  0  0  0  0  0
  185.7510  177.6550  144.0500 C   0  0  0  0  0  0  0  0  0  0  0  0
  183.5540  178.7430  142.7740 C   0  0  0  0  0  3  0  0  0  0  0  0
  188.2790  176.9640  147.2270 C   0  0  0  0  0  3  0  0  0  0  0  0
  184.8880  178.4750  144.7420 C   0  0  0  0  0  0  0  0  0  0  0  0
  183.7710  179.0400  144.1330 C   0  0  0  0  0  3  0  0  0  0  0  0
  189.7920  175.5070  145.9530 C   0  0  0  0  0  0  0  0  0  0  0  0
  190.6770  175.2880  147.1350 C   0  0  0  0  0  1  0  0  0  0  0  0
  188.1930  175.8540  143.6700 C   0  0  0  0  0  3  0  0  0  0  0  0
  184.4420  177.9010  142.0670 C   0  0  0  0  0  3  0  0  0  0  0  0
  186.3920  177.9010  146.1420 N   0  0  0  0  0  0  0  0  0  0  0  0
  185.2840  178.6240  146.0250 N   0  0  0  0  0  0  0  0  0  0  0  0
  190.1270  174.8820  144.7470 C   0  0  0  0  0  3  0  0  0  0  0  0
  185.5640  177.3410  142.7070 C   0  0  0  0  0  3  0  0  0  0  0  0
  189.3350  175.0480  143.5990 C   0  0  0  0  0  0  0  0  0  0  0  0
  188.6440  176.3170  146.0250 C   0  0  0  0  0  0  0  0  0  0  0  0
  189.0890  173.2650  140.2490 C   0  0  0  0  0  0  0  0  0  0  0  0
  189.6870  174.3870  142.3230 C   0  0  0  0  0  0  0  0  0  0  0  0
  188.7330  173.9190  141.5110 C   0  0  0  0  0  3  0  0  0  0  0  0
  188.1790  172.8300  139.4960 O   0  0  0  0  0  0  0  0  0  0  0  0
  191.0720  174.2490  141.9560 N   0  0  0  0  0  0  0  0  0  0  0  0
  190.5240  173.1080  139.8420 C   0  0  0  0  0  2  0  0  0  0  0  0
  191.4760  173.6840  140.8560 C   0  0  0  0  0  3  0  0  0  0  0  0
  1 13  1  0  0  0  0
  2  1  1  0  0  0  0
  2 18  1  0  0  0  0
  4  7  1  0  0  0  0
  4  1  2  0  0  0  0
  5  8  2  0  0  0  0
  6  3  2  0  0  0  0
  7 14  2  0  0  0  0
  8  7  1  0  0  0  0
  9 18  2  0  0  0  0
  9 10  1  0  0  0  0
 11  2  2  0  0  0  0
 12 16  2  0  0  0  0
 12  5  1  0  0  0  0
 13  3  1  0  0  0  0
 14 13  1  0  0  0  0
 15  9  1  0  0  0  0
 16  4  1  0  0  0  0
 17 11  1  0  0  0  0
 17 15  2  0  0  0  0
 18  6  1  0  0  0  0
 19 21  1  0  0  0  0
 20 17  1  0  0  0  0
 21 20  2  0  0  0  0
 22 19  2  0  0  0  0
 23 20  1  0  0  0  0
 24 19  1  0  0  0  0
 24 25  1  0  0  0  0
 25 23  2  0  0  0  0
M  END
>  <MODEL>
7

>  <REMARK>
 VINA RESULT:      -7.6      3.032      4.499
  Name = 
  1 active torsions:
  status: ('A' for Active; 'I' for Inactive)
    1  A    between atoms: C_6  and  C_23
                            x       y       z     vdW  Elec       q    Type
                         _______ _______ _______ _____ _____    ______ ____

>  <TORSDO>
F 1

$$$$
=
 OpenBabel11052417333D

 25 29  0  0  0  0  0  0  0  0999 V2000
  188.0730  176.2850  144.4700 C   0  0  0  0  0  0  0  0  0  0  0  0
  188.7790  175.2920  143.7820 C   0  0  0  0  0  0  0  0  0  0  0  0
  188.9160  175.5770  146.5800 C   0  0  0  0  0  3  0  0  0  0  0  0
  187.2220  177.2730  144.0220 C   0  0  0  0  0  0  0  0  0  0  0  0
  185.4830  179.4140  143.8490 C   0  0  0  0  0  3  0  0  0  0  0  0
  189.6480  174.5620  145.9500 C   0  0  0  0  0  3  0  0  0  0  0  0
  186.8360  177.9410  145.1620 C   0  0  0  0  0  0  0  0  0  0  0  0
  185.9610  179.0230  145.1140 C   0  0  0  0  0  3  0  0  0  0  0  0
  190.3110  173.3990  143.8900 C   0  0  0  0  0  0  0  0  0  0  0  0
  191.1780  172.4400  144.6360 C   0  0  0  0  0  1  0  0  0  0  0  0
  188.7080  175.1540  142.3930 C   0  0  0  0  0  3  0  0  0  0  0  0
  185.8820  178.7260  142.6800 C   0  0  0  0  0  3  0  0  0  0  0  0
  188.1570  176.3980  145.8130 N   0  0  0  0  0  0  0  0  0  0  0  0
  187.4110  177.4020  146.2590 N   0  0  0  0  0  0  0  0  0  0  0  0
  190.2280  173.2770  142.4980 C   0  0  0  0  0  3  0  0  0  0  0  0
  186.7680  177.6340  142.7570 C   0  0  0  0  0  3  0  0  0  0  0  0
  189.4300  174.1480  141.7390 C   0  0  0  0  0  0  0  0  0  0  0  0
  189.5860  174.4100  144.5470 C   0  0  0  0  0  0  0  0  0  0  0  0
  190.2290  173.3140  138.1170 C   0  0  0  0  0  0  0  0  0  0  0  0
  189.3410  174.0200  140.2680 C   0  0  0  0  0  0  0  0  0  0  0  0
  190.3240  173.4370  139.5740 C   0  0  0  0  0  3  0  0  0  0  0  0
  191.1620  172.7630  137.4770 O   0  0  0  0  0  0  0  0  0  0  0  0
  188.1830  174.5300  139.5820 N   0  0  0  0  0  0  0  0  0  0  0  0
  189.0330  173.8360  137.3770 C   0  0  0  0  0  2  0  0  0  0  0  0
  188.0170  174.4620  138.2940 C   0  0  0  0  0  3  0  0  0  0  0  0
  1 13  1  0  0  0  0
  2  1  1  0  0  0  0
  2 18  1  0  0  0  0
  4  1  2  0  0  0  0
  4  7  1  0  0  0  0
  5  8  2  0  0  0  0
  6  3  2  0  0  0  0
  7 14  2  0  0  0  0
  8  7  1  0  0  0  0
  9 18  2  0  0  0  0
  9 10  1  0  0  0  0
 11  2  2  0  0  0  0
 12 16  2  0  0  0  0
 12  5  1  0  0  0  0
 13 14  1  0  0  0  0
 13  3  1  0  0  0  0
 15  9  1  0  0  0  0
 16  4  1  0  0  0  0
 17 11  1  0  0  0  0
 17 15  2  0  0  0  0
 18  6  1  0  0  0  0
 19 21  1  0  0  0  0
 20 17  1  0  0  0  0
 21 20  2  0  0  0  0
 22 19  2  0  0  0  0
 23 20  1  0  0  0  0
 24 19  1  0  0  0  0
 24 25  1  0  0  0  0
 25 23  2  0  0  0  0
M  END
>  <MODEL>
8

>  <REMARK>
 VINA RESULT:      -7.5      3.547      6.116
  Name = 
  1 active torsions:
  status: ('A' for Active; 'I' for Inactive)
    1  A    between atoms: C_6  and  C_23
                            x       y       z     vdW  Elec       q    Type
                         _______ _______ _______ _____ _____    ______ ____

>  <TORSDO>
F 1

$$$$
=
 OpenBabel11052417333D

 25 29  0  0  0  0  0  0  0  0999 V2000
  188.1840  177.5190  144.5340 C   0  0  0  0  0  0  0  0  0  0  0  0
  189.4540  177.1660  145.0020 C   0  0  0  0  0  0  0  0  0  0  0  0
  187.3320  177.8120  146.7370 C   0  0  0  0  0  3  0  0  0  0  0  0
  187.6850  177.6330  143.2540 C   0  0  0  0  0  0  0  0  0  0  0  0
  186.0650  178.0470  141.0530 C   0  0  0  0  0  3  0  0  0  0  0  0
  188.5820  177.4670  147.2690 C   0  0  0  0  0  3  0  0  0  0  0  0
  186.3730  178.0120  143.4260 C   0  0  0  0  0  0  0  0  0  0  0  0
  185.5270  178.2280  142.3410 C   0  0  0  0  0  3  0  0  0  0  0  0
  190.9180  176.7910  146.9160 C   0  0  0  0  0  0  0  0  0  0  0  0
  191.1910  176.7450  148.3820 C   0  0  0  0  0  1  0  0  0  0  0  0
  190.5050  176.8460  144.1370 C   0  0  0  0  0  3  0  0  0  0  0  0
  187.4130  177.6570  140.8810 C   0  0  0  0  0  3  0  0  0  0  0  0
  187.1850  177.8230  145.3890 N   0  0  0  0  0  0  0  0  0  0  0  0
  186.0690  178.1280  144.7360 N   0  0  0  0  0  0  0  0  0  0  0  0
  191.9570  176.4740  146.0340 C   0  0  0  0  0  3  0  0  0  0  0  0
  188.2470  177.4440  141.9940 C   0  0  0  0  0  3  0  0  0  0  0  0
  191.7630  176.4980  144.6440 C   0  0  0  0  0  0  0  0  0  0  0  0
  189.6530  177.1400  146.4070 C   0  0  0  0  0  0  0  0  0  0  0  0
  195.2190  176.0410  143.1250 C   0  0  0  0  0  0  0  0  0  0  0  0
  192.8610  176.1630  143.7110 C   0  0  0  0  0  0  0  0  0  0  0  0
  194.1360  176.3740  144.0540 C   0  0  0  0  0  3  0  0  0  0  0  0
  196.4140  176.2450  143.4640 O   0  0  0  0  0  0  0  0  0  0  0  0
  192.5490  175.6060  142.4210 N   0  0  0  0  0  0  0  0  0  0  0  0
  194.9210  175.4580  141.7750 C   0  0  0  0  0  2  0  0  0  0  0  0
  193.4460  175.2810  141.5370 C   0  0  0  0  0  3  0  0  0  0  0  0
  1  2  1  0  0  0  0
  1 13  1  0  0  0  0
  2 18  1  0  0  0  0
  3  6  2  0  0  0  0
  4  7  1  0  0  0  0
  4  1  2  0  0  0  0
  5  8  2  0  0  0  0
  7 14  2  0  0  0  0
  8  7  1  0  0  0  0
  9 10  1  0  0  0  0
 11 17  1  0  0  0  0
 11  2  2  0  0  0  0
 12  5  1  0  0  0  0
 12 16  2  0  0  0  0
 13  3  1  0  0  0  0
 14 13  1  0  0  0  0
 15  9  1  0  0  0  0
 16  4  1  0  0  0  0
 17 15  2  0  0  0  0
 18  9  2  0  0  0  0
 18  6  1  0  0  0  0
 19 22  2  0  0  0  0
 19 21  1  0  0  0  0
 20 21  2  0  0  0  0
 20 17  1  0  0  0  0
 23 20  1  0  0  0  0
 24 19  1  0  0  0  0
 25 24  1  0  0  0  0
 25 23  2  0  0  0  0
M  END
>  <MODEL>
9

>  <REMARK>
 VINA RESULT:      -7.5      2.234      3.646
  Name = 
  1 active torsions:
  status: ('A' for Active; 'I' for Inactive)
    1  A    between atoms: C_6  and  C_23
                            x       y       z     vdW  Elec       q    Type
                         _______ _______ _______ _____ _____    ______ ____

>  <TORSDO>
F 1

$$$$
