=
 OpenBabel11052421293D

 32 39  0  0  1  0  0  0  0  0999 V2000
  189.0850  176.9500  144.9580 C   0  0  1  0  0  3  0  0  0  0  0  0
  185.1060  178.5130  147.5930 C   0  0  0  0  0  3  0  0  0  0  0  0
  184.4690  178.9280  146.4220 C   0  0  0  0  0  3  0  0  0  0  0  0
  187.9760  176.0730  142.9220 C   0  0  1  0  0  3  0  0  0  0  0  0
  189.1340  175.2700  142.5680 C   0  0  0  0  0  0  0  0  0  0  0  0
  187.2460  176.2150  140.6410 C   0  0  0  0  0  0  0  0  0  0  0  0
  186.3620  177.9050  147.5300 C   0  0  0  0  0  3  0  0  0  0  0  0
  188.3290  176.9750  146.3000 C   0  0  0  0  0  2  0  0  0  0  0  0
  186.9950  177.7060  146.2990 C   0  0  0  0  0  0  0  0  0  0  0  0
  187.0280  178.0030  143.7720 C   0  0  2  0  0  3  0  0  0  0  0  0
  188.2530  175.1600  140.2270 C   0  0  0  0  0  2  0  0  0  0  0  0
  189.3020  174.8950  141.2950 C   0  0  0  0  0  3  0  0  0  0  0  0
  185.0830  178.7300  145.1830 C   0  0  0  0  0  3  0  0  0  0  0  0
  186.3310  178.1000  145.1020 C   0  0  0  0  0  0  0  0  0  0  0  0
  186.1590  177.5470  142.5810 C   0  0  0  0  0  2  0  0  0  0  0  0
  189.9960  175.6880  144.8930 C   0  0  1  0  0  3  0  0  0  0  0  0
  190.1960  175.1910  143.5220 N   0  0  0  0  0  2  0  0  0  0  0  0
  186.7470  176.9520  139.8070 O   0  0  0  0  0  0  0  0  0  0  0  0
  188.0710  176.9740  143.8590 C   0  0  1  0  0  3  0  0  0  0  0  0
  186.7850  176.2340  142.0730 C   0  0  2  0  0  3  0  0  0  0  0  0
  194.1420  175.7900  146.3140 C   0  0  0  0  0  2  0  0  0  0  0  0
  191.3470  175.9290  145.5550 C   0  0  1  0  0  0  0  0  0  0  0  0
  191.2440  176.3730  147.0040 C   0  0  0  0  0  2  0  0  0  0  0  0
  193.2090  174.7610  146.9470 C   0  0  0  0  0  2  0  0  0  0  0  0
  191.7030  174.9580  146.6830 C   0  0  2  0  0  3  0  0  0  0  0  0
  192.4350  176.6830  144.7820 C   0  0  0  0  0  2  0  0  0  0  0  0
  193.7780  175.9790  144.8540 C   0  0  1  0  0  3  0  0  0  0  0  0
  194.8230  176.8330  144.1600 C   0  0  0  0  0  2  0  0  0  0  0  0
  196.0620  176.4020  142.2630 C   0  0  2  0  0  3  0  0  0  0  0  0
  195.8700  175.9890  143.6100 N   0  0  0  0  0  0  0  0  0  0  0  0
  196.6590  175.3670  141.5430 O   0  0  0  0  0  1  0  0  0  0  0  0
  196.9610  176.8620  143.2630 N   0  0  0  0  0  2  0  0  0  0  0  0
  1  8  1  1  0  0  0
  3  2  2  0  0  0  0
  4  5  1  6  0  0  0
  4 19  1  0  0  0  0
  5 17  1  0  0  0  0
  6 20  1  0  0  0  0
  7  2  1  0  0  0  0
  9  8  1  0  0  0  0
  9  7  2  0  0  0  0
 10 15  1  6  0  0  0
 10 19  1  0  0  0  0
 10 14  1  0  0  0  0
 11  6  1  0  0  0  0
 11 12  1  0  0  0  0
 12  5  2  0  0  0  0
 13  3  1  0  0  0  0
 14 13  2  0  0  0  0
 14  9  1  0  0  0  0
 16 17  1  6  0  0  0
 16  1  1  0  0  0  0
 16 22  1  0  0  0  0
 18  6  2  0  0  0  0
 19  1  1  0  0  0  0
 20 15  1  0  0  0  0
 20  4  1  0  0  0  0
 21 24  1  0  0  0  0
 22 25  1  0  0  0  0
 22 23  1  0  0  0  0
 25 24  1  0  0  0  0
 25 23  1  0  0  0  0
 26 27  1  0  0  0  0
 26 22  1  0  0  0  0
 27 21  1  0  0  0  0
 28 27  1  0  0  0  0
 29 32  1  0  0  0  0
 29 30  1  0  0  0  0
 30 28  1  0  0  0  0
 31 29  1  0  0  0  0
 32 30  1  0  0  0  0
M  END
>  <MODEL>
1

>  <REMARK>
 VINA RESULT:      -8.9      0.000      0.000
  Name = 
  3 active torsions:
  status: ('A' for Active; 'I' for Inactive)
    1  A    between atoms: C_8  and  C_28
    2  A    between atoms: N_10  and  C_19
    3  A    between atoms: C_19  and  C_24
                            x       y       z     vdW  Elec       q    Type
                         _______ _______ _______ _____ _____    ______ ____

>  <TORSDO>
F 3

$$$$
=
 OpenBabel11052421293D

 32 39  0  0  1  0  0  0  0  0999 V2000
  187.7350  176.0900  143.7410 C   0  0  1  0  0  3  0  0  0  0  0  0
  185.4810  177.8000  139.5930 C   0  0  0  0  0  3  0  0  0  0  0  0
  184.3800  178.2210  140.3400 C   0  0  0  0  0  3  0  0  0  0  0  0
  187.0320  177.8030  145.3900 C   0  0  1  0  0  3  0  0  0  0  0  0
  188.1110  177.4550  146.2970 C   0  0  0  0  0  0  0  0  0  0  0  0
  185.6600  178.6350  147.1730 C   0  0  0  0  0  0  0  0  0  0  0  0
  186.5760  177.2120  140.2280 C   0  0  0  0  0  3  0  0  0  0  0  0
  187.8380  176.4510  142.2470 C   0  0  0  0  0  2  0  0  0  0  0  0
  186.5840  177.0350  141.6160 C   0  0  0  0  0  0  0  0  0  0  0  0
  185.3990  177.2200  143.8600 C   0  0  2  0  0  3  0  0  0  0  0  0
  186.8280  178.5670  148.1370 C   0  0  0  0  0  2  0  0  0  0  0  0
  187.9910  177.7520  147.5960 C   0  0  0  0  0  2  0  0  0  0  0  0
  184.3730  178.0600  141.7280 C   0  0  0  0  0  3  0  0  0  0  0  0
  185.4740  177.4930  142.3820 C   0  0  0  0  0  0  0  0  0  0  0  0
  184.8290  178.3570  144.7330 C   0  0  0  0  0  2  0  0  0  0  0  0
  189.1440  176.1700  144.3990 C   0  0  1  0  0  3  0  0  0  0  0  0
  189.0970  176.5330  145.8250 N   0  0  0  0  0  0  0  0  0  0  0  0
  184.5160  178.6980  147.5930 O   0  0  0  0  0  0  0  0  0  0  0  0
  186.7600  177.0310  144.3750 C   0  0  1  0  0  3  0  0  0  0  0  0
  185.9570  178.7580  145.7030 C   0  0  2  0  0  3  0  0  0  0  0  0
  190.7330  172.1810  143.5120 C   0  0  0  0  0  2  0  0  0  0  0  0
  189.9260  174.8740  144.2240 C   0  0  1  0  0  0  0  0  0  0  0  0
  190.8780  174.5770  145.3700 C   0  0  0  0  0  2  0  0  0  0  0  0
  189.8630  172.3280  144.7570 C   0  0  0  0  0  2  0  0  0  0  0  0
  189.5940  173.7700  145.2310 C   0  0  2  0  0  3  0  0  0  0  0  0
  190.5310  174.5440  142.8540 C   0  0  0  0  0  2  0  0  0  0  0  0
  190.2350  173.1180  142.4280 C   0  0  1  0  0  3  0  0  0  0  0  0
  190.9500  172.8320  141.1200 C   0  0  0  0  0  2  0  0  0  0  0  0
  189.1200  173.1840  139.7620 C   0  0  2  0  0  3  0  0  0  0  0  0
  190.0430  172.1880  140.1870 N   0  0  0  0  0  0  0  0  0  0  0  0
  187.9650  172.5680  139.2820 O   0  0  0  0  0  1  0  0  0  0  0  0
  190.2170  172.8510  138.9210 N   0  0  0  0  0  2  0  0  0  0  0  0
  1  8  1  6  0  0  0
  1 19  1  0  0  0  0
  1 16  1  0  0  0  0
  2  7  2  0  0  0  0
  2  3  1  0  0  0  0
  3 13  2  0  0  0  0
  4 20  1  0  0  0  0
  4  5  1  1  0  0  0
  5 12  1  0  0  0  0
  6 18  2  0  0  0  0
  6 11  1  0  0  0  0
  7  9  1  0  0  0  0
  9  8  1  0  0  0  0
  9 14  2  0  0  0  0
 10 19  1  0  0  0  0
 10 15  1  1  0  0  0
 12 11  1  0  0  0  0
 13 14  1  0  0  0  0
 14 10  1  0  0  0  0
 15 20  1  0  0  0  0
 16 17  1  1  0  0  0
 17  5  2  0  0  0  0
 19  4  1  0  0  0  0
 20  6  1  0  0  0  0
 21 24  1  0  0  0  0
 22 16  1  0  0  0  0
 22 25  1  0  0  0  0
 22 23  1  0  0  0  0
 24 25  1  0  0  0  0
 25 23  1  0  0  0  0
 26 22  1  0  0  0  0
 27 26  1  0  0  0  0
 27 21  1  0  0  0  0
 28 27  1  0  0  0  0
 29 30  1  0  0  0  0
 30 28  1  0  0  0  0
 31 29  1  0  0  0  0
 32 29  1  0  0  0  0
 32 30  1  0  0  0  0
M  END
>  <MODEL>
2

>  <REMARK>
 VINA RESULT:      -8.6      3.394      5.546
  Name = 
  3 active torsions:
  status: ('A' for Active; 'I' for Inactive)
    1  A    between atoms: C_8  and  C_28
    2  A    between atoms: N_10  and  C_19
    3  A    between atoms: C_19  and  C_24
                            x       y       z     vdW  Elec       q    Type
                         _______ _______ _______ _____ _____    ______ ____

>  <TORSDO>
F 3

$$$$
=
 OpenBabel11052421293D

 32 39  0  0  1  0  0  0  0  0999 V2000
  189.8200  176.5370  143.6060 C   0  0  1  0  0  3  0  0  0  0  0  0
  185.6820  179.1590  144.7120 C   0  0  0  0  0  3  0  0  0  0  0  0
  185.2750  179.1170  143.3770 C   0  0  0  0  0  3  0  0  0  0  0  0
  188.9400  174.9910  141.8800 C   0  0  1  0  0  3  0  0  0  0  0  0
  190.0450  174.0660  142.0630 C   0  0  0  0  0  0  0  0  0  0  0  0
  188.5780  174.2740  139.6190 C   0  0  0  0  0  0  0  0  0  0  0  0
  186.8610  178.5220  145.1050 C   0  0  0  0  0  3  0  0  0  0  0  0
  188.8790  177.1090  144.6840 C   0  0  0  0  0  2  0  0  0  0  0  0
  187.6460  177.8380  144.1710 C   0  0  0  0  0  0  0  0  0  0  0  0
  188.0870  177.1370  141.7660 C   0  0  2  0  0  3  0  0  0  0  0  0
  189.5170  173.1000  139.8140 C   0  0  0  0  0  2  0  0  0  0  0  0
  190.3600  173.2230  141.0740 C   0  0  0  0  0  3  0  0  0  0  0  0
  186.0420  178.4320  142.4320 C   0  0  0  0  0  3  0  0  0  0  0  0
  187.2140  177.7680  142.8160 C   0  0  0  0  0  0  0  0  0  0  0  0
  187.3630  176.2950  140.6950 C   0  0  0  0  0  2  0  0  0  0  0  0
  190.5900  175.3110  144.1790 C   0  0  1  0  0  3  0  0  0  0  0  0
  190.9380  174.3160  143.1510 N   0  0  0  0  0  2  0  0  0  0  0  0
  188.2910  174.6530  138.4960 O   0  0  0  0  0  0  0  0  0  0  0  0
  188.9900  176.1780  142.4150 C   0  0  1  0  0  3  0  0  0  0  0  0
  187.9130  174.8630  140.8340 C   0  0  2  0  0  3  0  0  0  0  0  0
  194.5290  175.8610  146.0250 C   0  0  0  0  0  2  0  0  0  0  0  0
  191.8450  175.7310  144.9340 C   0  0  1  0  0  0  0  0  0  0  0  0
  191.5570  176.4380  146.2470 C   0  0  0  0  0  2  0  0  0  0  0  0
  193.5460  174.9320  146.7330 C   0  0  0  0  0  2  0  0  0  0  0  0
  192.0800  175.0090  146.2630 C   0  0  2  0  0  3  0  0  0  0  0  0
  193.0040  176.3710  144.1610 C   0  0  0  0  0  2  0  0  0  0  0  0
  194.3420  175.7530  144.5230 C   0  0  1  0  0  3  0  0  0  0  0  0
  195.4470  176.5030  143.8030 C   0  0  0  0  0  2  0  0  0  0  0  0
  196.2150  176.6840  141.6360 C   0  0  2  0  0  3  0  0  0  0  0  0
  195.8980  175.7410  142.6520 N   0  0  0  0  0  0  0  0  0  0  0  0
  196.1740  176.0550  140.3920 O   0  0  0  0  0  1  0  0  0  0  0  0
  197.2650  176.1260  142.4140 N   0  0  0  0  0  2  0  0  0  0  0  0
  1 16  1  0  0  0  0
  1  8  1  1  0  0  0
  2  7  1  0  0  0  0
  3  2  2  0  0  0  0
  4  5  1  6  0  0  0
  4 19  1  0  0  0  0
  5 17  1  0  0  0  0
  6 11  1  0  0  0  0
  6 20  1  0  0  0  0
  9  8  1  0  0  0  0
  9  7  2  0  0  0  0
 10 15  1  6  0  0  0
 10 19  1  0  0  0  0
 10 14  1  0  0  0  0
 11 12  1  0  0  0  0
 12  5  2  0  0  0  0
 13 14  2  0  0  0  0
 13  3  1  0  0  0  0
 14  9  1  0  0  0  0
 15 20  1  0  0  0  0
 16 17  1  6  0  0  0
 16 22  1  0  0  0  0
 18  6  2  0  0  0  0
 19  1  1  0  0  0  0
 20  4  1  0  0  0  0
 21 24  1  0  0  0  0
 22 23  1  0  0  0  0
 22 25  1  0  0  0  0
 23 25  1  0  0  0  0
 25 24  1  0  0  0  0
 26 27  1  0  0  0  0
 26 22  1  0  0  0  0
 27 21  1  0  0  0  0
 28 27  1  0  0  0  0
 29 32  1  0  0  0  0
 29 30  1  0  0  0  0
 30 28  1  0  0  0  0
 31 29  1  0  0  0  0
 32 30  1  0  0  0  0
M  END
>  <MODEL>
3

>  <REMARK>
 VINA RESULT:      -8.4      1.308      1.891
  Name = 
  3 active torsions:
  status: ('A' for Active; 'I' for Inactive)
    1  A    between atoms: C_8  and  C_28
    2  A    between atoms: N_10  and  C_19
    3  A    between atoms: C_19  and  C_24
                            x       y       z     vdW  Elec       q    Type
                         _______ _______ _______ _____ _____    ______ ____

>  <TORSDO>
F 3

$$$$
=
 OpenBabel11052421293D

 32 39  0  0  1  0  0  0  0  0999 V2000
  188.1180  176.2650  144.1870 C   0  0  1  0  0  3  0  0  0  0  0  0
  186.4100  177.5420  139.6410 C   0  0  0  0  0  3  0  0  0  0  0  0
  185.1650  177.8710  140.1790 C   0  0  0  0  0  3  0  0  0  0  0  0
  186.9850  177.9580  145.6000 C   0  0  1  0  0  3  0  0  0  0  0  0
  187.9310  177.7690  146.6850 C   0  0  0  0  0  0  0  0  0  0  0  0
  185.2630  178.7090  147.0910 C   0  0  0  0  0  0  0  0  0  0  0  0
  187.4410  177.1040  140.4750 C   0  0  0  0  0  3  0  0  0  0  0  0
  188.4270  176.5720  142.7100 C   0  0  0  0  0  2  0  0  0  0  0  0
  187.2390  176.9880  141.8550 C   0  0  0  0  0  0  0  0  0  0  0  0
  185.6920  177.1360  143.8680 C   0  0  2  0  0  3  0  0  0  0  0  0
  186.2590  178.8110  148.2300 C   0  0  0  0  0  2  0  0  0  0  0  0
  187.5720  178.1060  147.9290 C   0  0  0  0  0  2  0  0  0  0  0  0
  184.9480  177.7680  141.5550 C   0  0  0  0  0  3  0  0  0  0  0  0
  185.9790  177.3540  142.4080 C   0  0  0  0  0  0  0  0  0  0  0  0
  184.8740  178.2400  144.5720 C   0  0  0  0  0  2  0  0  0  0  0  0
  189.3860  176.5260  145.0540 C   0  0  1  0  0  3  0  0  0  0  0  0
  189.0690  176.9420  146.4300 N   0  0  0  0  0  0  0  0  0  0  0  0
  184.0660  178.6640  147.3220 O   0  0  0  0  0  0  0  0  0  0  0  0
  186.9630  177.1190  144.6030 C   0  0  1  0  0  3  0  0  0  0  0  0
  185.7820  178.8020  145.6820 C   0  0  2  0  0  3  0  0  0  0  0  0
  191.8720  172.9850  144.3500 C   0  0  0  0  0  2  0  0  0  0  0  0
  190.3130  175.3170  145.0810 C   0  0  1  0  0  0  0  0  0  0  0  0
  190.3080  174.5770  146.4070 C   0  0  0  0  0  2  0  0  0  0  0  0
  190.3910  172.7550  144.6360 C   0  0  0  0  0  2  0  0  0  0  0  0
  189.6140  173.9610  145.2010 C   0  0  2  0  0  3  0  0  0  0  0  0
  191.7170  175.4380  144.4770 C   0  0  0  0  0  2  0  0  0  0  0  0
  192.0470  174.2710  143.5650 C   0  0  1  0  0  3  0  0  0  0  0  0
  193.4830  174.4030  143.0900 C   0  0  0  0  0  2  0  0  0  0  0  0
  195.3570  175.6590  143.5670 C   0  0  2  0  0  3  0  0  0  0  0  0
  193.9600  175.7560  143.3200 N   0  0  0  0  0  0  0  0  0  0  0  0
  195.7830  176.7910  144.2620 O   0  0  0  0  0  1  0  0  0  0  0  0
  194.9070  176.0400  142.2740 N   0  0  0  0  0  2  0  0  0  0  0  0
  1  8  1  6  0  0  0
  1 19  1  0  0  0  0
  1 16  1  0  0  0  0
  2  3  2  0  0  0  0
  2  7  1  0  0  0  0
  3 13  1  0  0  0  0
  4 20  1  0  0  0  0
  4  5  1  1  0  0  0
  5 12  1  0  0  0  0
  6 18  2  0  0  0  0
  6 11  1  0  0  0  0
  7  9  2  0  0  0  0
  9 14  1  0  0  0  0
  9  8  1  0  0  0  0
 10 15  1  1  0  0  0
 10 19  1  0  0  0  0
 12 11  1  0  0  0  0
 13 14  2  0  0  0  0
 14 10  1  0  0  0  0
 15 20  1  0  0  0  0
 16 22  1  0  0  0  0
 16 17  1  1  0  0  0
 17  5  2  0  0  0  0
 19  4  1  0  0  0  0
 20  6  1  0  0  0  0
 21 24  1  0  0  0  0
 22 25  1  0  0  0  0
 22 23  1  0  0  0  0
 24 25  1  0  0  0  0
 25 23  1  0  0  0  0
 26 22  1  0  0  0  0
 27 21  1  0  0  0  0
 27 26  1  0  0  0  0
 28 30  1  0  0  0  0
 28 27  1  0  0  0  0
 29 31  1  0  0  0  0
 30 29  1  0  0  0  0
 32 30  1  0  0  0  0
 32 29  1  0  0  0  0
M  END
>  <MODEL>
4

>  <REMARK>
 VINA RESULT:      -8.4      2.251      4.482
  Name = 
  3 active torsions:
  status: ('A' for Active; 'I' for Inactive)
    1  A    between atoms: C_8  and  C_28
    2  A    between atoms: N_10  and  C_19
    3  A    between atoms: C_19  and  C_24
                            x       y       z     vdW  Elec       q    Type
                         _______ _______ _______ _____ _____    ______ ____

>  <TORSDO>
F 3

$$$$
=
 OpenBabel11052421293D

 32 39  0  0  1  0  0  0  0  0999 V2000
  188.8880  176.2480  144.3030 C   0  0  1  0  0  3  0  0  0  0  0  0
  189.8610  173.3340  140.3310 C   0  0  0  0  0  3  0  0  0  0  0  0
  191.2170  173.6580  140.4000 C   0  0  0  0  0  3  0  0  0  0  0  0
  190.9210  175.8630  145.6680 C   0  0  1  0  0  3  0  0  0  0  0  0
  190.2650  176.3250  146.8790 C   0  0  0  0  0  0  0  0  0  0  0  0
  193.0950  176.4460  146.4980 C   0  0  0  0  0  0  0  0  0  0  0  0
  188.9670  173.8500  141.2720 C   0  0  0  0  0  3  0  0  0  0  0  0
  188.4010  175.1660  143.3200 C   0  0  0  0  0  2  0  0  0  0  0  0
  189.4170  174.6970  142.2900 C   0  0  0  0  0  0  0  0  0  0  0  0
  191.3070  175.9960  143.3920 C   0  0  2  0  0  3  0  0  0  0  0  0
  192.5300  176.6830  147.8850 C   0  0  0  0  0  2  0  0  0  0  0  0
  191.0120  176.7710  147.8950 C   0  0  0  0  0  2  0  0  0  0  0  0
  191.6850  174.4960  141.4140 C   0  0  0  0  0  3  0  0  0  0  0  0
  190.8050  175.0020  142.3800 C   0  0  0  0  0  0  0  0  0  0  0  0
  192.6510  175.6560  144.0700 C   0  0  0  0  0  2  0  0  0  0  0  0
  188.0870  176.1450  145.6350 C   0  0  1  0  0  3  0  0  0  0  0  0
  188.8600  176.5820  146.8080 N   0  0  0  0  0  0  0  0  0  0  0  0
  194.1800  176.9090  146.1880 O   0  0  0  0  0  0  0  0  0  0  0  0
  190.3560  176.0540  144.5090 C   0  0  1  0  0  3  0  0  0  0  0  0
  192.3490  175.5220  145.5740 C   0  0  2  0  0  3  0  0  0  0  0  0
  184.7280  178.8930  145.0100 C   0  0  0  0  0  2  0  0  0  0  0  0
  186.7730  176.9130  145.5680 C   0  0  1  0  0  0  0  0  0  0  0  0
  185.9030  176.7410  146.8010 C   0  0  0  0  0  2  0  0  0  0  0  0
  185.6740  179.1930  146.1700 C   0  0  0  0  0  2  0  0  0  0  0  0
  186.6340  178.0570  146.5750 C   0  0  2  0  0  3  0  0  0  0  0  0
  185.9630  176.8980  144.2660 C   0  0  0  0  0  2  0  0  0  0  0  0
  185.5090  178.2870  143.8590 C   0  0  1  0  0  3  0  0  0  0  0  0
  184.6280  178.1810  142.6280 C   0  0  0  0  0  2  0  0  0  0  0  0
  185.7620  177.4710  140.7490 C   0  0  2  0  0  3  0  0  0  0  0  0
  185.3550  178.6370  141.4560 N   0  0  0  0  0  0  0  0  0  0  0  0
  186.8430  177.7840  139.9260 O   0  0  0  0  0  1  0  0  0  0  0  0
  184.6120  178.1820  140.3100 N   0  0  0  0  0  2  0  0  0  0  0  0
  1  8  1  6  0  0  0
  1 19  1  0  0  0  0
  1 16  1  0  0  0  0
  2  3  2  0  0  0  0
  2  7  1  0  0  0  0
  3 13  1  0  0  0  0
  4  5  1  1  0  0  0
  5 12  1  0  0  0  0
  6 11  1  0  0  0  0
  7  9  2  0  0  0  0
  9 14  1  0  0  0  0
  9  8  1  0  0  0  0
 10 15  1  1  0  0  0
 10 19  1  0  0  0  0
 11 12  1  0  0  0  0
 13 14  2  0  0  0  0
 14 10  1  0  0  0  0
 15 20  1  0  0  0  0
 16 17  1  1  0  0  0
 17  5  2  0  0  0  0
 18  6  2  0  0  0  0
 19  4  1  0  0  0  0
 20  4  1  0  0  0  0
 20  6  1  0  0  0  0
 21 24  1  0  0  0  0
 22 16  1  0  0  0  0
 22 25  1  0  0  0  0
 22 23  1  0  0  0  0
 24 25  1  0  0  0  0
 25 23  1  0  0  0  0
 26 22  1  0  0  0  0
 27 26  1  0  0  0  0
 27 21  1  0  0  0  0
 28 27  1  0  0  0  0
 29 30  1  0  0  0  0
 30 28  1  0  0  0  0
 31 29  1  0  0  0  0
 32 29  1  0  0  0  0
 32 30  1  0  0  0  0
M  END
>  <MODEL>
5

>  <REMARK>
 VINA RESULT:      -8.3      2.779      7.683
  Name = 
  3 active torsions:
  status: ('A' for Active; 'I' for Inactive)
    1  A    between atoms: C_8  and  C_28
    2  A    between atoms: N_10  and  C_19
    3  A    between atoms: C_19  and  C_24
                            x       y       z     vdW  Elec       q    Type
                         _______ _______ _______ _____ _____    ______ ____

>  <TORSDO>
F 3

$$$$
=
 OpenBabel11052421293D

 32 39  0  0  1  0  0  0  0  0999 V2000
  188.4720  177.1900  144.1610 C   0  0  1  0  0  3  0  0  0  0  0  0
  185.5720  177.8640  148.2050 C   0  0  0  0  0  3  0  0  0  0  0  0
  184.6980  178.6660  147.4690 C   0  0  0  0  0  3  0  0  0  0  0  0
  186.7570  177.0820  142.3750 C   0  0  1  0  0  3  0  0  0  0  0  0
  187.6700  176.4190  141.4600 C   0  0  0  0  0  0  0  0  0  0  0  0
  185.4620  178.0060  140.5790 C   0  0  0  0  0  0  0  0  0  0  0  0
  186.6800  177.2830  147.5850 C   0  0  0  0  0  3  0  0  0  0  0  0
  188.1150  176.7770  145.6020 C   0  0  0  0  0  2  0  0  0  0  0  0
  186.9290  177.4970  146.2260 C   0  0  0  0  0  0  0  0  0  0  0  0
  186.3160  178.6320  144.0330 C   0  0  2  0  0  3  0  0  0  0  0  0
  186.1840  177.1300  139.5740 C   0  0  0  0  0  2  0  0  0  0  0  0
  187.4410  176.4930  140.1440 C   0  0  0  0  0  3  0  0  0  0  0  0
  184.9260  178.8850  146.1090 C   0  0  0  0  0  3  0  0  0  0  0  0
  186.0200  178.2890  145.4680 C   0  0  0  0  0  0  0  0  0  0  0  0
  185.1090  178.6280  143.0710 C   0  0  0  0  0  2  0  0  0  0  0  0
  189.1710  176.0040  143.4340 C   0  0  1  0  0  3  0  0  0  0  0  0
  188.9320  175.9960  141.9810 N   0  0  0  0  0  2  0  0  0  0  0  0
  184.8500  178.9940  140.2080 O   0  0  0  0  0  0  0  0  0  0  0  0
  187.2100  177.6090  143.4770 C   0  0  1  0  0  3  0  0  0  0  0  0
  185.4100  177.5500  142.0120 C   0  0  2  0  0  3  0  0  0  0  0  0
  193.2660  175.9820  145.0000 C   0  0  0  0  0  2  0  0  0  0  0  0
  190.6700  175.9730  143.7090 C   0  0  1  0  0  0  0  0  0  0  0  0
  191.5040  176.6030  142.6070 C   0  0  0  0  0  2  0  0  0  0  0  0
  192.6090  177.3410  144.7750 C   0  0  0  0  0  2  0  0  0  0  0  0
  191.3220  177.3400  143.9260 C   0  0  2  0  0  3  0  0  0  0  0  0
  191.3010  174.6930  144.2690 C   0  0  0  0  0  2  0  0  0  0  0  0
  192.2200  174.9760  145.4430 C   0  0  1  0  0  3  0  0  0  0  0  0
  192.8870  173.6830  145.8740 C   0  0  0  0  0  2  0  0  0  0  0  0
  194.6230  172.2450  145.3880 C   0  0  2  0  0  3  0  0  0  0  0  0
  193.7150  173.1670  144.7980 N   0  0  0  0  0  0  0  0  0  0  0  0
  195.7300  172.0890  144.5550 O   0  0  0  0  0  1  0  0  0  0  0  0
  193.4630  171.7510  144.7300 N   0  0  0  0  0  2  0  0  0  0  0  0
  1  8  1  1  0  0  0
  3  2  2  0  0  0  0
  4  5  1  6  0  0  0
  4 19  1  0  0  0  0
  5 17  1  0  0  0  0
  6 20  1  0  0  0  0
  7  2  1  0  0  0  0
  8  9  1  0  0  0  0
  9  7  2  0  0  0  0
 10 15  1  6  0  0  0
 10 14  1  0  0  0  0
 11 12  1  0  0  0  0
 11  6  1  0  0  0  0
 12  5  2  0  0  0  0
 13  3  1  0  0  0  0
 14 13  2  0  0  0  0
 14  9  1  0  0  0  0
 16 17  1  6  0  0  0
 16 22  1  0  0  0  0
 16  1  1  0  0  0  0
 18  6  2  0  0  0  0
 19 10  1  0  0  0  0
 19  1  1  0  0  0  0
 20  4  1  0  0  0  0
 20 15  1  0  0  0  0
 21 27  1  0  0  0  0
 22 25  1  0  0  0  0
 22 26  1  0  0  0  0
 23 22  1  0  0  0  0
 23 25  1  0  0  0  0
 24 21  1  0  0  0  0
 25 24  1  0  0  0  0
 26 27  1  0  0  0  0
 27 28  1  0  0  0  0
 30 29  1  0  0  0  0
 30 28  1  0  0  0  0
 31 29  1  0  0  0  0
 32 30  1  0  0  0  0
 32 29  1  0  0  0  0
M  END
>  <MODEL>
6

>  <REMARK>
 VINA RESULT:      -8.2      1.986      2.741
  Name = 
  3 active torsions:
  status: ('A' for Active; 'I' for Inactive)
    1  A    between atoms: C_8  and  C_28
    2  A    between atoms: N_10  and  C_19
    3  A    between atoms: C_19  and  C_24
                            x       y       z     vdW  Elec       q    Type
                         _______ _______ _______ _____ _____    ______ ____

>  <TORSDO>
F 3

$$$$
=
 OpenBabel11052421293D

 32 39  0  0  1  0  0  0  0  0999 V2000
  190.2620  175.5520  143.6680 C   0  0  1  0  0  3  0  0  0  0  0  0
  194.5290  176.7570  146.0250 C   0  0  0  0  0  3  0  0  0  0  0  0
  194.8490  175.4070  146.1780 C   0  0  0  0  0  3  0  0  0  0  0  0
  190.9880  173.5600  142.3850 C   0  0  1  0  0  3  0  0  0  0  0  0
  189.8730  173.6760  141.4620 C   0  0  0  0  0  0  0  0  0  0  0  0
  191.1860  171.1980  142.0120 C   0  0  0  0  0  0  0  0  0  0  0  0
  193.3620  177.1290  145.3550 C   0  0  0  0  0  3  0  0  0  0  0  0
  191.2840  176.6380  144.0550 C   0  0  0  0  0  2  0  0  0  0  0  0
  192.5010  176.1590  144.8320 C   0  0  0  0  0  0  0  0  0  0  0  0
  191.8880  173.7110  144.5100 C   0  0  2  0  0  3  0  0  0  0  0  0
  190.2300  171.2780  140.8370 C   0  0  0  0  0  2  0  0  0  0  0  0
  189.4730  172.5960  140.7830 C   0  0  0  0  0  3  0  0  0  0  0  0
  194.0050  174.4240  145.6560 C   0  0  0  0  0  3  0  0  0  0  0  0
  192.8430  174.7820  144.9600 C   0  0  0  0  0  0  0  0  0  0  0  0
  192.5200  172.4800  143.8270 C   0  0  0  0  0  2  0  0  0  0  0  0
  189.4970  175.9860  142.3820 C   0  0  1  0  0  3  0  0  0  0  0  0
  189.0580  174.8470  141.5600 N   0  0  0  0  0  2  0  0  0  0  0  0
  191.4100  170.1270  142.5510 O   0  0  0  0  0  0  0  0  0  0  0  0
  191.0040  174.2680  143.4790 C   0  0  1  0  0  3  0  0  0  0  0  0
  191.9430  172.4390  142.3990 C   0  0  2  0  0  3  0  0  0  0  0  0
  185.6330  177.8800  143.2180 C   0  0  0  0  0  2  0  0  0  0  0  0
  188.3050  176.8790  142.7050 C   0  0  1  0  0  0  0  0  0  0  0  0
  188.4690  178.3100  142.2250 C   0  0  0  0  0  2  0  0  0  0  0  0
  186.0380  177.7320  141.7540 C   0  0  0  0  0  2  0  0  0  0  0  0
  187.5160  177.3770  141.4920 C   0  0  2  0  0  3  0  0  0  0  0  0
  187.6590  176.7910  144.0920 C   0  0  0  0  0  2  0  0  0  0  0  0
  186.1470  176.6950  144.0130 C   0  0  1  0  0  3  0  0  0  0  0  0
  185.5740  176.7190  145.4180 C   0  0  0  0  0  2  0  0  0  0  0  0
  185.3580  178.2930  147.0890 C   0  0  2  0  0  3  0  0  0  0  0  0
  186.3090  177.6650  146.2400 N   0  0  0  0  0  0  0  0  0  0  0  0
  185.8680  179.5130  147.5330 O   0  0  0  0  0  1  0  0  0  0  0  0
  186.1520  177.2330  147.6040 N   0  0  0  0  0  2  0  0  0  0  0  0
  1  8  1  6  0  0  0
  2  3  1  0  0  0  0
  4  5  1  1  0  0  0
  4 20  1  0  0  0  0
  4 19  1  0  0  0  0
  5 17  1  0  0  0  0
  6 20  1  0  0  0  0
  6 18  2  0  0  0  0
  7  2  2  0  0  0  0
  8  9  1  0  0  0  0
  9 14  2  0  0  0  0
  9  7  1  0  0  0  0
 10 15  1  6  0  0  0
 10 14  1  0  0  0  0
 11  6  1  0  0  0  0
 12 11  1  0  0  0  0
 12  5  2  0  0  0  0
 13  3  2  0  0  0  0
 14 13  1  0  0  0  0
 16 17  1  1  0  0  0
 16 22  1  0  0  0  0
 16  1  1  0  0  0  0
 19  1  1  0  0  0  0
 19 10  1  0  0  0  0
 20 15  1  0  0  0  0
 21 27  1  0  0  0  0
 22 26  1  0  0  0  0
 23 22  1  0  0  0  0
 24 21  1  0  0  0  0
 25 24  1  0  0  0  0
 25 23  1  0  0  0  0
 25 22  1  0  0  0  0
 27 26  1  0  0  0  0
 27 28  1  0  0  0  0
 28 30  1  0  0  0  0
 29 31  1  0  0  0  0
 29 32  1  0  0  0  0
 30 29  1  0  0  0  0
 30 32  1  0  0  0  0
M  END
>  <MODEL>
7

>  <REMARK>
 VINA RESULT:      -8.2      3.200      7.524
  Name = 
  3 active torsions:
  status: ('A' for Active; 'I' for Inactive)
    1  A    between atoms: C_8  and  C_28
    2  A    between atoms: N_10  and  C_19
    3  A    between atoms: C_19  and  C_24
                            x       y       z     vdW  Elec       q    Type
                         _______ _______ _______ _____ _____    ______ ____

>  <TORSDO>
F 3

$$$$
=
 OpenBabel11052421293D

 32 39  0  0  1  0  0  0  0  0999 V2000
  188.3820  175.4350  143.5800 C   0  0  1  0  0  3  0  0  0  0  0  0
  184.4000  178.4020  144.3240 C   0  0  0  0  0  3  0  0  0  0  0  0
  184.7300  178.5410  145.6730 C   0  0  0  0  0  3  0  0  0  0  0  0
  190.0390  176.4980  145.0850 C   0  0  1  0  0  3  0  0  0  0  0  0
  191.1540  175.8790  144.3900 C   0  0  0  0  0  0  0  0  0  0  0  0
  191.2800  176.6790  147.1310 C   0  0  0  0  0  0  0  0  0  0  0  0
  185.2130  177.6470  143.4770 C   0  0  0  0  0  3  0  0  0  0  0  0
  187.2390  176.2720  142.9740 C   0  0  0  0  0  2  0  0  0  0  0  0
  186.3640  177.0200  143.9670 C   0  0  0  0  0  0  0  0  0  0  0  0
  187.8840  176.4400  145.9220 C   0  0  2  0  0  3  0  0  0  0  0  0
  192.5630  176.3070  146.4140 C   0  0  0  0  0  2  0  0  0  0  0  0
  192.3180  175.7290  145.0300 C   0  0  0  0  0  2  0  0  0  0  0  0
  185.8790  177.9290  146.1790 C   0  0  0  0  0  3  0  0  0  0  0  0
  186.7180  177.1880  145.3360 C   0  0  0  0  0  0  0  0  0  0  0  0
  188.7520  177.2170  146.9340 C   0  0  0  0  0  2  0  0  0  0  0  0
  189.5410  175.3060  142.5470 C   0  0  1  0  0  3  0  0  0  0  0  0
  190.8640  175.1760  143.1790 N   0  0  0  0  0  0  0  0  0  0  0  0
  191.2030  176.5880  148.3450 O   0  0  0  0  0  0  0  0  0  0  0  0
  188.8210  176.1030  144.8430 C   0  0  1  0  0  3  0  0  0  0  0  0
  190.1640  177.2850  146.3230 C   0  0  2  0  0  3  0  0  0  0  0  0
  189.4950  172.3060  139.3500 C   0  0  0  0  0  2  0  0  0  0  0  0
  189.3150  174.1480  141.5830 C   0  0  1  0  0  0  0  0  0  0  0  0
  187.8690  173.6930  141.5060 C   0  0  0  0  0  2  0  0  0  0  0  0
  188.7170  173.5970  139.1110 C   0  0  0  0  0  2  0  0  0  0  0  0
  188.4710  174.4810  140.3510 C   0  0  2  0  0  3  0  0  0  0  0  0
  190.3040  172.9760  141.5760 C   0  0  0  0  0  2  0  0  0  0  0  0
  190.7370  172.6020  140.1700 C   0  0  1  0  0  3  0  0  0  0  0  0
  191.6260  171.3750  140.2350 C   0  0  0  0  0  2  0  0  0  0  0  0
  191.3770  169.1970  140.9530 C   0  0  2  0  0  3  0  0  0  0  0  0
  191.2560  170.5510  141.3720 N   0  0  0  0  0  0  0  0  0  0  0  0
  190.5950  168.3870  141.7750 O   0  0  0  0  0  1  0  0  0  0  0  0
  192.4220  169.7810  141.7190 N   0  0  0  0  0  2  0  0  0  0  0  0
  1  8  1  6  0  0  0
  1 19  1  0  0  0  0
  2  3  1  0  0  0  0
  3 13  2  0  0  0  0
  4  5  1  1  0  0  0
  4 20  1  0  0  0  0
  5 12  1  0  0  0  0
  6 18  2  0  0  0  0
  7  9  1  0  0  0  0
  7  2  2  0  0  0  0
  8  9  1  0  0  0  0
  9 14  2  0  0  0  0
 10 15  1  1  0  0  0
 11  6  1  0  0  0  0
 12 11  1  0  0  0  0
 14 10  1  0  0  0  0
 14 13  1  0  0  0  0
 16 17  1  1  0  0  0
 16  1  1  0  0  0  0
 17  5  2  0  0  0  0
 19  4  1  0  0  0  0
 19 10  1  0  0  0  0
 20 15  1  0  0  0  0
 20  6  1  0  0  0  0
 21 27  1  0  0  0  0
 22 16  1  0  0  0  0
 23 22  1  0  0  0  0
 24 21  1  0  0  0  0
 24 25  1  0  0  0  0
 25 23  1  0  0  0  0
 25 22  1  0  0  0  0
 26 22  1  0  0  0  0
 27 28  1  0  0  0  0
 27 26  1  0  0  0  0
 28 30  1  0  0  0  0
 29 30  1  0  0  0  0
 29 32  1  0  0  0  0
 29 31  1  0  0  0  0
 30 32  1  0  0  0  0
M  END
>  <MODEL>
8

>  <REMARK>
 VINA RESULT:      -8.1      3.237      5.822
  Name = 
  3 active torsions:
  status: ('A' for Active; 'I' for Inactive)
    1  A    between atoms: C_8  and  C_28
    2  A    between atoms: N_10  and  C_19
    3  A    between atoms: C_19  and  C_24
                            x       y       z     vdW  Elec       q    Type
                         _______ _______ _______ _____ _____    ______ ____

>  <TORSDO>
F 3

$$$$
=
 OpenBabel11052421293D

 32 39  0  0  1  0  0  0  0  0999 V2000
  188.8380  175.7560  144.4640 C   0  0  1  0  0  3  0  0  0  0  0  0
  185.8430  178.1180  147.7310 C   0  0  0  0  0  3  0  0  0  0  0  0
  185.4680  179.0390  146.7510 C   0  0  0  0  0  3  0  0  0  0  0  0
  187.5060  175.9610  142.3830 C   0  0  1  0  0  3  0  0  0  0  0  0
  188.2200  174.8670  141.7500 C   0  0  0  0  0  0  0  0  0  0  0  0
  186.9550  176.9620  140.2730 C   0  0  0  0  0  0  0  0  0  0  0  0
  186.7230  177.0790  147.4160 C   0  0  0  0  0  3  0  0  0  0  0  0
  188.1350  175.7560  145.8350 C   0  0  0  0  0  2  0  0  0  0  0  0
  187.2380  176.9500  146.1220 C   0  0  0  0  0  0  0  0  0  0  0  0
  187.4490  177.8300  143.7450 C   0  0  2  0  0  3  0  0  0  0  0  0
  187.4270  175.7250  139.5350 C   0  0  0  0  0  2  0  0  0  0  0  0
  188.2410  174.7890  140.4150 C   0  0  0  0  0  3  0  0  0  0  0  0
  185.9670  178.9210  145.4520 C   0  0  0  0  0  3  0  0  0  0  0  0
  186.8300  177.8710  145.1150 C   0  0  0  0  0  0  0  0  0  0  0  0
  186.4950  178.0920  142.5600 C   0  0  0  0  0  2  0  0  0  0  0  0
  189.1270  174.2900  144.0230 C   0  0  1  0  0  3  0  0  0  0  0  0
  189.1270  174.1170  142.5610 N   0  0  0  0  0  2  0  0  0  0  0  0
  186.8350  178.0230  139.6840 O   0  0  0  0  0  0  0  0  0  0  0  0
  187.9540  176.4740  143.4940 C   0  0  1  0  0  3  0  0  0  0  0  0
  186.5140  176.8120  141.7040 C   0  0  2  0  0  3  0  0  0  0  0  0
  193.2390  173.3740  145.2380 C   0  0  0  0  0  2  0  0  0  0  0  0
  190.4380  173.7720  144.6030 C   0  0  1  0  0  0  0  0  0  0  0  0
  190.4270  172.2820  144.8950 C   0  0  0  0  0  2  0  0  0  0  0  0
  192.7360  172.7490  143.9390 C   0  0  0  0  0  2  0  0  0  0  0  0
  191.2140  172.8080  143.7030 C   0  0  2  0  0  3  0  0  0  0  0  0
  191.1450  174.5840  145.6950 C   0  0  0  0  0  2  0  0  0  0  0  0
  192.6270  174.7510  145.4130 C   0  0  1  0  0  3  0  0  0  0  0  0
  193.2770  175.4680  146.5820 C   0  0  0  0  0  2  0  0  0  0  0  0
  194.4560  176.8160  145.1290 C   0  0  2  0  0  3  0  0  0  0  0  0
  194.6110  175.9110  146.2140 N   0  0  0  0  0  0  0  0  0  0  0  0
  195.6530  176.8960  144.4180 O   0  0  0  0  0  1  0  0  0  0  0  0
  194.6480  177.3320  146.4390 N   0  0  0  0  0  2  0  0  0  0  0  0
  1  8  1  1  0  0  0
  3  2  2  0  0  0  0
  4  5  1  6  0  0  0
  4 19  1  0  0  0  0
  5 17  1  0  0  0  0
  6 20  1  0  0  0  0
  7  2  1  0  0  0  0
  8  9  1  0  0  0  0
  9  7  2  0  0  0  0
 10 15  1  6  0  0  0
 10 14  1  0  0  0  0
 11  6  1  0  0  0  0
 11 12  1  0  0  0  0
 12  5  2  0  0  0  0
 13  3  1  0  0  0  0
 14 13  2  0  0  0  0
 14  9  1  0  0  0  0
 16 17  1  6  0  0  0
 16  1  1  0  0  0  0
 16 22  1  0  0  0  0
 18  6  2  0  0  0  0
 19 10  1  0  0  0  0
 19  1  1  0  0  0  0
 20  4  1  0  0  0  0
 20 15  1  0  0  0  0
 21 27  1  0  0  0  0
 22 23  1  0  0  0  0
 22 26  1  0  0  0  0
 24 21  1  0  0  0  0
 25 24  1  0  0  0  0
 25 22  1  0  0  0  0
 25 23  1  0  0  0  0
 27 26  1  0  0  0  0
 27 28  1  0  0  0  0
 29 30  1  0  0  0  0
 29 32  1  0  0  0  0
 30 32  1  0  0  0  0
 30 28  1  0  0  0  0
 31 29  1  0  0  0  0
M  END
>  <MODEL>
9

>  <REMARK>
 VINA RESULT:      -8.0      1.784      2.191
  Name = 
  3 active torsions:
  status: ('A' for Active; 'I' for Inactive)
    1  A    between atoms: C_8  and  C_28
    2  A    between atoms: N_10  and  C_19
    3  A    between atoms: C_19  and  C_24
                            x       y       z     vdW  Elec       q    Type
                         _______ _______ _______ _____ _____    ______ ____

>  <TORSDO>
F 3

$$$$
