=
 OpenBabel11052418513D

 34 40  0  0  1  0  0  0  0  0999 V2000
  185.9960  178.6250  142.9460 C   0  0  2  0  0  3  0  0  0  0  0  0
  186.5330  178.2580  145.4110 C   0  0  0  0  0  2  0  0  0  0  0  0
  187.7840  176.9200  143.7100 C   0  0  1  0  0  3  0  0  0  0  0  0
  190.2360  176.0030  143.8030 C   0  0  2  0  0  3  0  0  0  0  0  0
  184.2980  179.1900  144.5760 N   0  0  2  0  0  0  0  0  0  0  0  0
  184.1300  178.3810  145.7900 C   0  0  0  0  0  2  0  0  0  0  0  0
  189.2360  177.1820  145.5810 O   0  0  0  0  0  0  0  0  0  0  0  0
  187.0980  178.2790  143.9780 C   0  0  1  0  0  3  0  0  0  0  0  0
  184.6150  178.2800  143.4760 C   0  0  0  0  0  2  0  0  0  0  0  0
  187.9710  176.6870  142.2060 C   0  0  1  0  0  3  0  0  0  0  0  0
  186.2310  178.0820  141.5340 C   0  0  0  0  0  2  0  0  0  0  0  0
  185.3360  179.1940  145.6480 C   0  0  1  0  0  3  0  0  0  0  0  0
  189.7820  175.1490  142.7000 N   0  0  0  0  0  0  0  0  0  0  0  0
  188.7560  175.4170  141.9450 C   0  0  0  0  0  0  0  0  0  0  0  0
  189.0980  176.7550  144.4450 C   0  0  0  0  0  0  0  0  0  0  0  0
  186.6610  176.6910  141.5720 N   0  0  0  0  0  2  0  0  0  0  0  0
  188.0890  173.8330  138.7010 C   0  0  1  0  0  3  0  0  0  0  0  0
  189.5930  171.7840  139.1870 C   0  0  0  0  0  1  0  0  0  0  0  0
  188.5100  174.5370  140.7840 C   0  0  0  0  0  0  0  0  0  0  0  0
  188.3670  172.5950  139.5870 C   0  0  1  0  0  3  0  0  0  0  0  0
  188.2530  174.9670  139.5980 N   0  0  0  0  0  0  0  0  0  0  0  0
  188.5780  173.1600  140.8670 O   0  0  0  0  0  0  0  0  0  0  0  0
  189.0010  173.9900  137.4920 C   0  0  0  0  0  1  0  0  0  0  0  0
  191.3570  176.9360  143.3470 C   0  0  0  0  0  2  0  0  0  0  0  0
  192.3290  177.1460  144.4080 N   0  0  0  0  0  2  0  0  0  0  0  0
  193.0370  176.0530  146.4680 C   0  0  0  0  0  2  0  0  0  0  0  0
  193.5440  173.3030  145.7180 O   0  0  0  0  0  1  0  0  0  0  0  0
  194.0240  175.6630  145.3930 C   0  0  1  0  0  0  0  0  0  0  0  0
  194.5650  174.2340  145.5080 C   0  0  2  0  0  3  0  0  0  0  0  0
  192.5540  175.8520  145.0340 C   0  0  2  0  0  3  0  0  0  0  0  0
  196.5540  175.2670  144.0640 C   0  0  0  0  0  2  0  0  0  0  0  0
  195.7520  176.4660  143.8530 N   0  0  0  0  0  2  0  0  0  0  0  0
  195.0350  176.7670  145.0880 C   0  0  0  0  0  2  0  0  0  0  0  0
  195.4870  173.7890  143.9970 S   0  0  0  0  0  0  0  0  0  0  0  0
  1 11  1  6  0  0  0
  1  9  1  0  0  0  0
  1  8  1  0  0  0  0
  3  8  1  0  0  0  0
  3 15  1  1  0  0  0
  4 24  1  6  0  0  0
  4 15  1  0  0  0  0
  5  9  1  6  0  0  0
  5 12  1  0  0  0  0
  5  6  1  0  0  0  0
  8  2  1  1  0  0  0
 10 16  1  6  0  0  0
 10  3  1  0  0  0  0
 11 16  1  0  0  0  0
 12  2  1  6  0  0  0
 12  6  1  0  0  0  0
 13  4  1  0  0  0  0
 14 10  1  0  0  0  0
 14 13  2  0  0  0  0
 15  7  2  0  0  0  0
 17 23  1  6  0  0  0
 17 20  1  0  0  0  0
 17 21  1  0  0  0  0
 19 22  1  0  0  0  0
 19 14  1  0  0  0  0
 20 18  1  6  0  0  0
 20 22  1  0  0  0  0
 21 19  2  0  0  0  0
 24 25  1  0  0  0  0
 28 33  1  6  0  0  0
 28 29  1  0  0  0  0
 28 26  1  0  0  0  0
 29 27  1  6  0  0  0
 30 25  1  6  0  0  0
 30 28  1  0  0  0  0
 30 26  1  0  0  0  0
 32 31  1  0  0  0  0
 32 33  1  0  0  0  0
 34 31  1  0  0  0  0
 34 29  1  0  0  0  0
M  END
>  <MODEL>
1

>  <REMARK>
 VINA RESULT:      -8.8      0.000      0.000
  Name = 
  4 active torsions:
  status: ('A' for Active; 'I' for Inactive)
    1  A    between atoms: C_5  and  C_18
    2  A    between atoms: C_12  and  C_28
    3  A    between atoms: C_17  and  N_29
    4  A    between atoms: C_18  and  N_29
                            x       y       z     vdW  Elec       q    Type
                         _______ _______ _______ _____ _____    ______ ____

>  <TORSDO>
F 4

$$$$
=
 OpenBabel11052418513D

 34 40  0  0  1  0  0  0  0  0999 V2000
  188.1200  178.0360  143.2180 C   0  0  2  0  0  3  0  0  0  0  0  0
  186.5070  177.9110  145.1880 C   0  0  0  0  0  2  0  0  0  0  0  0
  188.2080  176.0980  144.9290 C   0  0  1  0  0  3  0  0  0  0  0  0
  189.4060  174.6760  146.7740 C   0  0  2  0  0  3  0  0  0  0  0  0
  186.0020  179.1930  143.0290 N   0  0  2  0  0  0  0  0  0  0  0  0
  184.7850  178.6230  143.6200 C   0  0  0  0  0  2  0  0  0  0  0  0
  187.7600  176.2900  147.2610 O   0  0  0  0  0  0  0  0  0  0  0  0
  187.9320  177.6000  144.6930 C   0  0  1  0  0  3  0  0  0  0  0  0
  186.7910  178.0890  142.4850 C   0  0  0  0  0  2  0  0  0  0  0  0
  189.3920  175.6180  144.0790 C   0  0  1  0  0  3  0  0  0  0  0  0
  189.1850  177.2590  142.4400 C   0  0  0  0  0  2  0  0  0  0  0  0
  185.8340  179.1160  144.5100 C   0  0  1  0  0  3  0  0  0  0  0  0
  189.7390  173.7980  145.6470 N   0  0  0  0  0  0  0  0  0  0  0  0
  189.7460  174.1800  144.4030 C   0  0  0  0  0  0  0  0  0  0  0  0
  188.4190  175.7480  146.3880 C   0  0  0  0  0  0  0  0  0  0  0  0
  189.0680  175.8260  142.6770 N   0  0  0  0  0  2  0  0  0  0  0  0
  190.3010  171.6990  141.7550 C   0  0  1  0  0  3  0  0  0  0  0  0
  192.4970  172.7960  140.9350 C   0  0  0  0  0  1  0  0  0  0  0  0
  190.2440  173.2220  143.3940 C   0  0  0  0  0  0  0  0  0  0  0  0
  191.7540  172.1190  142.0800 C   0  0  1  0  0  3  0  0  0  0  0  0
  189.4800  172.5090  142.6420 N   0  0  0  0  0  0  0  0  0  0  0  0
  191.5900  173.0420  143.1400 O   0  0  0  0  0  0  0  0  0  0  0  0
  189.8670  171.9090  140.3100 C   0  0  0  0  0  1  0  0  0  0  0  0
  190.6690  175.2580  147.4070 C   0  0  0  0  0  2  0  0  0  0  0  0
  191.4310  176.0340  146.4400 N   0  0  0  0  0  2  0  0  0  0  0  0
  193.6640  176.9250  146.8320 C   0  0  0  0  0  2  0  0  0  0  0  0
  195.4590  174.7370  146.2200 O   0  0  0  0  0  1  0  0  0  0  0  0
  193.6880  176.2330  145.4900 C   0  0  1  0  0  0  0  0  0  0  0  0
  195.0060  175.5250  145.1570 C   0  0  2  0  0  3  0  0  0  0  0  0
  192.8270  175.6670  146.6140 C   0  0  2  0  0  3  0  0  0  0  0  0
  194.1140  175.8340  142.6640 C   0  0  0  0  0  2  0  0  0  0  0  0
  192.8200  176.2450  143.1980 N   0  0  0  0  0  2  0  0  0  0  0  0
  193.0480  177.0680  144.3810 C   0  0  0  0  0  2  0  0  0  0  0  0
  194.7990  174.4790  143.6750 S   0  0  0  0  0  0  0  0  0  0  0  0
  1 11  1  6  0  0  0
  1  8  1  0  0  0  0
  3 15  1  1  0  0  0
  4 24  1  6  0  0  0
  5  9  1  1  0  0  0
  5  6  1  0  0  0  0
  5 12  1  0  0  0  0
  8  3  1  0  0  0  0
  8  2  1  6  0  0  0
  9  1  1  0  0  0  0
 10 16  1  6  0  0  0
 10 14  1  0  0  0  0
 10  3  1  0  0  0  0
 11 16  1  0  0  0  0
 12  6  1  6  0  0  0
 12  2  1  0  0  0  0
 13  4  1  0  0  0  0
 14 13  2  0  0  0  0
 15  4  1  0  0  0  0
 15  7  2  0  0  0  0
 17 23  1  6  0  0  0
 17 20  1  0  0  0  0
 17 21  1  0  0  0  0
 19 14  1  0  0  0  0
 20 18  1  6  0  0  0
 20 22  1  0  0  0  0
 21 19  2  0  0  0  0
 22 19  1  0  0  0  0
 25 24  1  0  0  0  0
 28 33  1  6  0  0  0
 28 30  1  0  0  0  0
 28 26  1  0  0  0  0
 29 28  1  0  0  0  0
 29 27  1  1  0  0  0
 30 25  1  6  0  0  0
 30 26  1  0  0  0  0
 31 32  1  0  0  0  0
 31 34  1  0  0  0  0
 32 33  1  0  0  0  0
 34 29  1  0  0  0  0
M  END
>  <MODEL>
2

>  <REMARK>
 VINA RESULT:      -8.5      2.079      2.760
  Name = 
  4 active torsions:
  status: ('A' for Active; 'I' for Inactive)
    1  A    between atoms: C_5  and  C_18
    2  A    between atoms: C_12  and  C_28
    3  A    between atoms: C_17  and  N_29
    4  A    between atoms: C_18  and  N_29
                            x       y       z     vdW  Elec       q    Type
                         _______ _______ _______ _____ _____    ______ ____

>  <TORSDO>
F 4

$$$$
=
 OpenBabel11052418513D

 34 40  0  0  1  0  0  0  0  0999 V2000
  186.4550  178.1760  143.9430 C   0  0  2  0  0  3  0  0  0  0  0  0
  186.6530  178.1140  146.4830 C   0  0  0  0  0  2  0  0  0  0  0  0
  188.2350  176.7260  145.1350 C   0  0  1  0  0  3  0  0  0  0  0  0
  190.7090  176.0480  145.6670 C   0  0  2  0  0  3  0  0  0  0  0  0
  184.5000  178.7500  145.2500 N   0  0  2  0  0  0  0  0  0  0  0  0
  184.2180  178.0580  146.5140 C   0  0  0  0  0  2  0  0  0  0  0  0
  189.3750  177.3090  147.1450 O   0  0  0  0  0  0  0  0  0  0  0  0
  187.4180  178.0380  145.1490 C   0  0  1  0  0  3  0  0  0  0  0  0
  185.0420  177.7650  144.3150 C   0  0  0  0  0  2  0  0  0  0  0  0
  188.6560  176.3570  143.7070 C   0  0  1  0  0  3  0  0  0  0  0  0
  186.9340  177.5140  142.6480 C   0  0  0  0  0  2  0  0  0  0  0  0
  185.3680  178.9580  146.4460 C   0  0  1  0  0  3  0  0  0  0  0  0
  190.4850  175.0480  144.6180 N   0  0  0  0  0  0  0  0  0  0  0  0
  189.5640  175.1430  143.7030 C   0  0  0  0  0  0  0  0  0  0  0  0
  189.4370  176.7570  146.0570 C   0  0  0  0  0  0  0  0  0  0  0  0
  187.4570  176.1790  142.9030 N   0  0  0  0  0  2  0  0  0  0  0  0
  189.8130  173.1430  140.6360 C   0  0  1  0  0  3  0  0  0  0  0  0
  190.3330  170.9420  141.8970 C   0  0  0  0  0  1  0  0  0  0  0  0
  189.5560  174.1310  142.6280 C   0  0  0  0  0  0  0  0  0  0  0  0
  189.3430  172.0740  141.6530 C   0  0  1  0  0  3  0  0  0  0  0  0
  189.9300  174.3640  141.4180 N   0  0  0  0  0  0  0  0  0  0  0  0
  189.1810  172.8190  142.8450 O   0  0  0  0  0  0  0  0  0  0  0  0
  191.1340  172.8440  139.9390 C   0  0  0  0  0  1  0  0  0  0  0  0
  191.8120  177.0260  145.2650 C   0  0  0  0  0  2  0  0  0  0  0  0
  192.6480  176.4710  144.2130 N   0  0  0  0  0  2  0  0  0  0  0  0
  195.0420  176.1740  143.8670 C   0  0  0  0  0  2  0  0  0  0  0  0
  195.9080  174.4870  146.0550 O   0  0  0  0  0  1  0  0  0  0  0  0
  194.4560  174.8080  144.1340 C   0  0  1  0  0  0  0  0  0  0  0  0
  195.3650  173.8630  144.9290 C   0  0  2  0  0  3  0  0  0  0  0  0
  193.8790  176.0260  144.8460 C   0  0  2  0  0  3  0  0  0  0  0  0
  193.8400  172.0130  143.7630 C   0  0  0  0  0  2  0  0  0  0  0  0
  192.9390  173.0670  143.3110 N   0  0  0  0  0  2  0  0  0  0  0  0
  193.7390  174.2220  142.9170 C   0  0  0  0  0  2  0  0  0  0  0  0
  194.4300  172.3840  145.4480 S   0  0  0  0  0  0  0  0  0  0  0  0
  1 11  1  6  0  0  0
  1  9  1  0  0  0  0
  1  8  1  0  0  0  0
  3  8  1  0  0  0  0
  3 15  1  1  0  0  0
  4 24  1  6  0  0  0
  4 15  1  0  0  0  0
  5  9  1  6  0  0  0
  5 12  1  0  0  0  0
  5  6  1  0  0  0  0
  8  2  1  1  0  0  0
 10 16  1  6  0  0  0
 10  3  1  0  0  0  0
 11 16  1  0  0  0  0
 12  2  1  6  0  0  0
 12  6  1  0  0  0  0
 13  4  1  0  0  0  0
 14 10  1  0  0  0  0
 14 13  2  0  0  0  0
 15  7  2  0  0  0  0
 17 23  1  1  0  0  0
 17 21  1  0  0  0  0
 17 20  1  0  0  0  0
 19 22  1  0  0  0  0
 19 14  1  0  0  0  0
 20 18  1  1  0  0  0
 20 22  1  0  0  0  0
 21 19  2  0  0  0  0
 25 24  1  0  0  0  0
 26 28  1  0  0  0  0
 26 30  1  0  0  0  0
 28 33  1  6  0  0  0
 28 30  1  0  0  0  0
 28 29  1  0  0  0  0
 29 34  1  0  0  0  0
 29 27  1  1  0  0  0
 30 25  1  6  0  0  0
 31 34  1  0  0  0  0
 32 31  1  0  0  0  0
 33 32  1  0  0  0  0
M  END
>  <MODEL>
3

>  <REMARK>
 VINA RESULT:      -8.3      1.789      2.212
  Name = 
  4 active torsions:
  status: ('A' for Active; 'I' for Inactive)
    1  A    between atoms: C_5  and  C_18
    2  A    between atoms: C_12  and  C_28
    3  A    between atoms: C_17  and  N_29
    4  A    between atoms: C_18  and  N_29
                            x       y       z     vdW  Elec       q    Type
                         _______ _______ _______ _____ _____    ______ ____

>  <TORSDO>
F 4

$$$$
=
 OpenBabel11052418513D

 34 40  0  0  1  0  0  0  0  0999 V2000
  187.0030  176.6100  146.7150 C   0  0  2  0  0  3  0  0  0  0  0  0
  185.8980  178.5370  145.4650 C   0  0  0  0  0  2  0  0  0  0  0  0
  187.9760  177.5330  144.5030 C   0  0  1  0  0  3  0  0  0  0  0  0
  188.6890  177.2910  141.9940 C   0  0  2  0  0  3  0  0  0  0  0  0
  185.5980  178.1260  147.9750 N   0  0  2  0  0  0  0  0  0  0  0  0
  185.5660  179.5580  147.6510 C   0  0  0  0  0  2  0  0  0  0  0  0
  186.6990  178.3580  142.6680 O   0  0  0  0  0  0  0  0  0  0  0  0
  186.7040  177.2310  145.3270 C   0  0  1  0  0  3  0  0  0  0  0  0
  186.9750  177.6630  147.8090 C   0  0  0  0  0  2  0  0  0  0  0  0
  189.0290  176.4350  144.6960 C   0  0  1  0  0  3  0  0  0  0  0  0
  188.2580  175.7340  146.7800 C   0  0  0  0  0  2  0  0  0  0  0  0
  184.9880  178.6090  146.7020 C   0  0  1  0  0  3  0  0  0  0  0  0
  190.0180  177.0510  142.5680 N   0  0  0  0  0  0  0  0  0  0  0  0
  190.2240  176.6610  143.7930 C   0  0  0  0  0  0  0  0  0  0  0  0
  187.6980  177.7560  143.0310 C   0  0  0  0  0  0  0  0  0  0  0  0
  189.3800  176.3750  146.1070 N   0  0  0  0  0  2  0  0  0  0  0  0
  193.6990  176.4880  144.9610 C   0  0  1  0  0  3  0  0  0  0  0  0
  193.4990  174.0350  145.7630 C   0  0  0  0  0  1  0  0  0  0  0  0
  191.6080  176.3210  144.1810 C   0  0  0  0  0  0  0  0  0  0  0  0
  193.4340  175.0080  144.5930 C   0  0  1  0  0  3  0  0  0  0  0  0
  192.4440  177.1660  144.6760 N   0  0  0  0  0  0  0  0  0  0  0  0
  192.1130  175.0380  144.0840 O   0  0  0  0  0  0  0  0  0  0  0  0
  194.1070  176.7380  146.4070 C   0  0  0  0  0  1  0  0  0  0  0  0
  188.1910  176.0640  141.2330 C   0  0  0  0  0  2  0  0  0  0  0  0
  188.4720  174.8400  141.9680 N   0  0  0  0  0  2  0  0  0  0  0  0
  188.2930  172.7260  140.7710 C   0  0  0  0  0  2  0  0  0  0  0  0
  190.9840  172.1500  139.8680 O   0  0  0  0  0  1  0  0  0  0  0  0
  189.4690  172.6090  141.7120 C   0  0  1  0  0  0  0  0  0  0  0  0
  190.6420  171.7830  141.1730 C   0  0  2  0  0  3  0  0  0  0  0  0
  189.1640  173.9490  141.0520 C   0  0  2  0  0  3  0  0  0  0  0  0
  191.1840  171.5410  143.7730 C   0  0  0  0  0  2  0  0  0  0  0  0
  190.1790  172.5580  144.0570 N   0  0  0  0  0  2  0  0  0  0  0  0
  189.0470  172.3550  143.1590 C   0  0  0  0  0  2  0  0  0  0  0  0
  192.0980  171.9810  142.2570 S   0  0  0  0  0  0  0  0  0  0  0  0
  1 11  1  6  0  0  0
  1  9  1  0  0  0  0
  3 15  1  6  0  0  0
  3 10  1  0  0  0  0
  3  8  1  0  0  0  0
  4 24  1  1  0  0  0
  4 13  1  0  0  0  0
  4 15  1  0  0  0  0
  5  6  1  1  0  0  0
  7 15  2  0  0  0  0
  8  2  1  1  0  0  0
  8  1  1  0  0  0  0
  9  5  1  0  0  0  0
 10 14  1  6  0  0  0
 10 16  1  0  0  0  0
 12  2  1  6  0  0  0
 12  6  1  0  0  0  0
 12  5  1  0  0  0  0
 13 14  2  0  0  0  0
 14 19  1  0  0  0  0
 16 11  1  0  0  0  0
 17 23  1  1  0  0  0
 19 21  2  0  0  0  0
 20 17  1  0  0  0  0
 20 18  1  1  0  0  0
 21 17  1  0  0  0  0
 22 19  1  0  0  0  0
 22 20  1  0  0  0  0
 24 25  1  0  0  0  0
 26 30  1  0  0  0  0
 28 26  1  6  0  0  0
 28 33  1  0  0  0  0
 29 27  1  6  0  0  0
 29 28  1  0  0  0  0
 29 34  1  0  0  0  0
 30 28  1  0  0  0  0
 30 25  1  1  0  0  0
 31 32  1  0  0  0  0
 33 32  1  0  0  0  0
 34 31  1  0  0  0  0
M  END
>  <MODEL>
4

>  <REMARK>
 VINA RESULT:      -8.2      2.250      5.487
  Name = 
  4 active torsions:
  status: ('A' for Active; 'I' for Inactive)
    1  A    between atoms: C_5  and  C_18
    2  A    between atoms: C_12  and  C_28
    3  A    between atoms: C_17  and  N_29
    4  A    between atoms: C_18  and  N_29
                            x       y       z     vdW  Elec       q    Type
                         _______ _______ _______ _____ _____    ______ ____

>  <TORSDO>
F 4

$$$$
=
 OpenBabel11052418513D

 34 40  0  0  1  0  0  0  0  0999 V2000
  186.2410  177.0450  145.6980 C   0  0  2  0  0  3  0  0  0  0  0  0
  185.6820  177.8710  143.3520 C   0  0  0  0  0  2  0  0  0  0  0  0
  187.8030  176.5920  143.6870 C   0  0  1  0  0  3  0  0  0  0  0  0
  189.0560  175.0000  142.0250 C   0  0  2  0  0  3  0  0  0  0  0  0
  184.7560  178.9440  145.4860 N   0  0  2  0  0  0  0  0  0  0  0  0
  184.9600  179.9370  144.4230 C   0  0  0  0  0  2  0  0  0  0  0  0
  187.0940  176.1730  141.4510 O   0  0  0  0  0  0  0  0  0  0  0  0
  186.3470  176.7550  144.1800 C   0  0  1  0  0  3  0  0  0  0  0  0
  186.0730  178.5300  145.9660 C   0  0  0  0  0  2  0  0  0  0  0  0
  188.6530  175.8450  144.7220 C   0  0  1  0  0  3  0  0  0  0  0  0
  187.3400  176.4170  146.5590 C   0  0  0  0  0  2  0  0  0  0  0  0
  184.5200  178.5930  144.0550 C   0  0  1  0  0  3  0  0  0  0  0  0
  190.1770  175.1870  142.9520 N   0  0  0  0  0  0  0  0  0  0  0  0
  190.0450  175.5700  144.1900 C   0  0  0  0  0  0  0  0  0  0  0  0
  187.9060  175.9280  142.3290 C   0  0  0  0  0  0  0  0  0  0  0  0
  188.6530  176.6110  145.9590 N   0  0  0  0  0  2  0  0  0  0  0  0
  192.9870  174.8740  146.2700 C   0  0  1  0  0  3  0  0  0  0  0  0
  194.2980  176.9410  145.4280 C   0  0  0  0  0  1  0  0  0  0  0  0
  191.2520  175.5720  145.0410 C   0  0  0  0  0  0  0  0  0  0  0  0
  193.0640  176.4160  146.1500 C   0  0  1  0  0  3  0  0  0  0  0  0
  191.8160  174.5050  145.4900 N   0  0  0  0  0  0  0  0  0  0  0  0
  191.9100  176.7340  145.3950 O   0  0  0  0  0  0  0  0  0  0  0  0
  194.2080  174.1180  145.7630 C   0  0  0  0  0  1  0  0  0  0  0  0
  188.6180  173.5380  141.9820 C   0  0  0  0  0  2  0  0  0  0  0  0
  189.7640  172.6440  142.0520 N   0  0  0  0  0  2  0  0  0  0  0  0
  190.8250  170.8070  140.8550 C   0  0  0  0  0  2  0  0  0  0  0  0
  190.3850  171.3890  138.0520 O   0  0  0  0  0  1  0  0  0  0  0  0
  191.2810  172.0890  140.2000 C   0  0  1  0  0  0  0  0  0  0  0  0
  191.4730  172.0020  138.6810 C   0  0  2  0  0  3  0  0  0  0  0  0
  189.8650  171.9900  140.7570 C   0  0  2  0  0  3  0  0  0  0  0  0
  193.0630  174.0930  139.1340 C   0  0  0  0  0  2  0  0  0  0  0  0
  192.5480  174.1660  140.4960 N   0  0  0  0  0  2  0  0  0  0  0  0
  192.3700  172.8070  140.9980 C   0  0  0  0  0  2  0  0  0  0  0  0
  191.7130  173.6710  137.9830 S   0  0  0  0  0  0  0  0  0  0  0  0
  1  9  1  6  0  0  0
  1 11  1  0  0  0  0
  3 15  1  6  0  0  0
  3  8  1  0  0  0  0
  3 10  1  0  0  0  0
  4 24  1  1  0  0  0
  4 15  1  0  0  0  0
  4 13  1  0  0  0  0
  5  6  1  6  0  0  0
  5  9  1  0  0  0  0
  7 15  2  0  0  0  0
  8  2  1  6  0  0  0
  8  1  1  0  0  0  0
 10 14  1  6  0  0  0
 10 16  1  0  0  0  0
 12  2  1  6  0  0  0
 12  6  1  0  0  0  0
 12  5  1  0  0  0  0
 13 14  2  0  0  0  0
 14 19  1  0  0  0  0
 16 11  1  0  0  0  0
 17 23  1  6  0  0  0
 19 22  1  0  0  0  0
 19 21  2  0  0  0  0
 20 18  1  6  0  0  0
 20 17  1  0  0  0  0
 21 17  1  0  0  0  0
 22 20  1  0  0  0  0
 24 25  1  0  0  0  0
 28 30  1  0  0  0  0
 28 26  1  1  0  0  0
 28 33  1  0  0  0  0
 29 27  1  6  0  0  0
 29 28  1  0  0  0  0
 30 26  1  0  0  0  0
 30 25  1  1  0  0  0
 31 32  1  0  0  0  0
 32 33  1  0  0  0  0
 34 29  1  0  0  0  0
 34 31  1  0  0  0  0
M  END
>  <MODEL>
5

>  <REMARK>
 VINA RESULT:      -8.1      2.487      5.676
  Name = 
  4 active torsions:
  status: ('A' for Active; 'I' for Inactive)
    1  A    between atoms: C_5  and  C_18
    2  A    between atoms: C_12  and  C_28
    3  A    between atoms: C_17  and  N_29
    4  A    between atoms: C_18  and  N_29
                            x       y       z     vdW  Elec       q    Type
                         _______ _______ _______ _____ _____    ______ ____

>  <TORSDO>
F 4

$$$$
=
 OpenBabel11052418513D

 34 40  0  0  1  0  0  0  0  0999 V2000
  187.2960  178.4230  143.0200 C   0  0  2  0  0  3  0  0  0  0  0  0
  186.3290  178.1350  145.3610 C   0  0  0  0  0  2  0  0  0  0  0  0
  187.9390  176.4170  144.5220 C   0  0  1  0  0  3  0  0  0  0  0  0
  189.6650  174.9730  145.8620 C   0  0  2  0  0  3  0  0  0  0  0  0
  185.1790  179.4870  143.5140 N   0  0  2  0  0  0  0  0  0  0  0  0
  184.2040  178.8350  144.3970 C   0  0  0  0  0  2  0  0  0  0  0  0
  188.1800  176.4850  146.8910 O   0  0  0  0  0  0  0  0  0  0  0  0
  187.5590  177.9140  144.4600 C   0  0  1  0  0  3  0  0  0  0  0  0
  185.8110  178.4460  142.7050 C   0  0  0  0  0  2  0  0  0  0  0  0
  188.8400  176.0310  143.3420 C   0  0  1  0  0  3  0  0  0  0  0  0
  188.1150  177.7320  141.9260 C   0  0  0  0  0  2  0  0  0  0  0  0
  185.4500  179.3360  144.9730 C   0  0  1  0  0  3  0  0  0  0  0  0
  189.6850  174.1620  144.6390 N   0  0  0  0  0  0  0  0  0  0  0  0
  189.3190  174.5990  143.4690 C   0  0  0  0  0  0  0  0  0  0  0  0
  188.5750  176.0140  145.8360 C   0  0  0  0  0  0  0  0  0  0  0  0
  188.1170  176.2870  142.1060 N   0  0  0  0  0  2  0  0  0  0  0  0
  189.1510  172.3250  140.5920 C   0  0  1  0  0  3  0  0  0  0  0  0
  191.1610  173.4160  139.3810 C   0  0  0  0  0  1  0  0  0  0  0  0
  189.5330  173.7110  142.3070 C   0  0  0  0  0  0  0  0  0  0  0  0
  190.6590  172.6720  140.6110 C   0  0  1  0  0  3  0  0  0  0  0  0
  188.5880  173.0860  141.6970 N   0  0  0  0  0  0  0  0  0  0  0  0
  190.7790  173.5100  141.7450 O   0  0  0  0  0  0  0  0  0  0  0  0
  188.4180  172.6650  139.3010 C   0  0  0  0  0  1  0  0  0  0  0  0
  191.0380  175.5850  146.1350 C   0  0  0  0  0  2  0  0  0  0  0  0
  192.1030  174.7390  145.6200 N   0  0  0  0  0  2  0  0  0  0  0  0
  192.9620  175.7110  143.5580 C   0  0  0  0  0  2  0  0  0  0  0  0
  195.5540  176.7920  144.2660 O   0  0  0  0  0  1  0  0  0  0  0  0
  194.0690  174.8720  144.1520 C   0  0  1  0  0  0  0  0  0  0  0  0
  195.4800  175.4330  143.9470 C   0  0  2  0  0  3  0  0  0  0  0  0
  193.1180  175.6250  145.0750 C   0  0  2  0  0  3  0  0  0  0  0  0
  196.1500  172.8810  144.3300 C   0  0  0  0  0  2  0  0  0  0  0  0
  194.7810  172.6050  144.7510 N   0  0  0  0  0  2  0  0  0  0  0  0
  193.8730  173.3750  143.9080 C   0  0  0  0  0  2  0  0  0  0  0  0
  196.6770  174.5070  144.9670 S   0  0  0  0  0  0  0  0  0  0  0  0
  1 11  1  6  0  0  0
  1  8  1  0  0  0  0
  3 15  1  1  0  0  0
  4 24  1  6  0  0  0
  5  9  1  6  0  0  0
  5  6  1  0  0  0  0
  5 12  1  0  0  0  0
  8  3  1  0  0  0  0
  8  2  1  1  0  0  0
  9  1  1  0  0  0  0
 10 16  1  6  0  0  0
 10 14  1  0  0  0  0
 10  3  1  0  0  0  0
 11 16  1  0  0  0  0
 12  6  1  1  0  0  0
 12  2  1  0  0  0  0
 13  4  1  0  0  0  0
 14 13  2  0  0  0  0
 15  4  1  0  0  0  0
 15  7  2  0  0  0  0
 17 23  1  6  0  0  0
 17 20  1  0  0  0  0
 17 21  1  0  0  0  0
 19 14  1  0  0  0  0
 20 18  1  6  0  0  0
 20 22  1  0  0  0  0
 21 19  2  0  0  0  0
 22 19  1  0  0  0  0
 25 24  1  0  0  0  0
 26 30  1  0  0  0  0
 28 26  1  6  0  0  0
 28 30  1  0  0  0  0
 29 28  1  0  0  0  0
 29 27  1  1  0  0  0
 29 34  1  0  0  0  0
 30 25  1  1  0  0  0
 31 32  1  0  0  0  0
 31 34  1  0  0  0  0
 33 28  1  0  0  0  0
 33 32  1  0  0  0  0
M  END
>  <MODEL>
6

>  <REMARK>
 VINA RESULT:      -8.1      1.899      2.244
  Name = 
  4 active torsions:
  status: ('A' for Active; 'I' for Inactive)
    1  A    between atoms: C_5  and  C_18
    2  A    between atoms: C_12  and  C_28
    3  A    between atoms: C_17  and  N_29
    4  A    between atoms: C_18  and  N_29
                            x       y       z     vdW  Elec       q    Type
                         _______ _______ _______ _____ _____    ______ ____

>  <TORSDO>
F 4

$$$$
=
 OpenBabel11052418513D

 34 40  0  0  1  0  0  0  0  0999 V2000
  187.1490  176.4360  146.7340 C   0  0  2  0  0  3  0  0  0  0  0  0
  185.8630  178.0240  145.2100 C   0  0  0  0  0  2  0  0  0  0  0  0
  187.9630  176.9840  144.3410 C   0  0  1  0  0  3  0  0  0  0  0  0
  188.5880  176.3180  141.8850 C   0  0  2  0  0  3  0  0  0  0  0  0
  185.6950  178.0750  147.7650 N   0  0  2  0  0  0  0  0  0  0  0  0
  185.5510  179.4160  147.1840 C   0  0  0  0  0  2  0  0  0  0  0  0
  186.5580  177.3710  142.4560 O   0  0  0  0  0  0  0  0  0  0  0  0
  186.7500  176.7660  145.2740 C   0  0  1  0  0  3  0  0  0  0  0  0
  187.0930  177.6730  147.6140 C   0  0  0  0  0  2  0  0  0  0  0  0
  189.0960  176.0070  144.6770 C   0  0  1  0  0  3  0  0  0  0  0  0
  188.4620  175.6660  146.8920 C   0  0  0  0  0  2  0  0  0  0  0  0
  185.0010  178.2730  146.4590 C   0  0  1  0  0  3  0  0  0  0  0  0
  189.9520  176.2710  142.4220 N   0  0  0  0  0  0  0  0  0  0  0  0
  190.2350  176.1310  143.6850 C   0  0  0  0  0  0  0  0  0  0  0  0
  187.6100  176.9090  142.8700 C   0  0  0  0  0  0  0  0  0  0  0  0
  189.5080  176.2340  146.0540 N   0  0  0  0  0  2  0  0  0  0  0  0
  193.7390  176.3790  144.7490 C   0  0  1  0  0  3  0  0  0  0  0  0
  193.7900  173.9980  145.7620 C   0  0  0  0  0  1  0  0  0  0  0  0
  191.6540  175.9540  144.0550 C   0  0  0  0  0  0  0  0  0  0  0  0
  193.6040  174.8540  144.5170 C   0  0  1  0  0  3  0  0  0  0  0  0
  192.4190  176.9120  144.4480 N   0  0  0  0  0  0  0  0  0  0  0  0
  192.2750  174.7190  144.0510 O   0  0  0  0  0  0  0  0  0  0  0  0
  194.1580  176.7920  146.1540 C   0  0  0  0  0  1  0  0  0  0  0  0
  188.1450  174.9420  141.3920 C   0  0  0  0  0  2  0  0  0  0  0  0
  188.9180  174.5250  140.2330 N   0  0  0  0  0  2  0  0  0  0  0  0
  191.1290  173.5540  140.5630 C   0  0  0  0  0  2  0  0  0  0  0  0
  190.6760  170.6970  140.6960 O   0  0  0  0  0  1  0  0  0  0  0  0
  190.4590  172.7750  139.4560 C   0  0  1  0  0  0  0  0  0  0  0  0
  190.7930  171.2800  139.4310 C   0  0  2  0  0  3  0  0  0  0  0  0
  189.6220  173.3110  140.6130 C   0  0  2  0  0  3  0  0  0  0  0  0
  190.0670  171.5380  136.8780 C   0  0  0  0  0  2  0  0  0  0  0  0
  189.5630  172.8740  137.1770 N   0  0  0  0  0  2  0  0  0  0  0  0
  190.4770  173.5140  138.1180 C   0  0  0  0  0  2  0  0  0  0  0  0
  189.6910  170.4110  138.2630 S   0  0  0  0  0  0  0  0  0  0  0  0
  1 11  1  6  0  0  0
  1  9  1  0  0  0  0
  3 15  1  6  0  0  0
  3 10  1  0  0  0  0
  3  8  1  0  0  0  0
  4 24  1  1  0  0  0
  4 13  1  0  0  0  0
  4 15  1  0  0  0  0
  5  6  1  6  0  0  0
  7 15  2  0  0  0  0
  8  2  1  1  0  0  0
  8  1  1  0  0  0  0
  9  5  1  0  0  0  0
 10 14  1  6  0  0  0
 10 16  1  0  0  0  0
 12  2  1  6  0  0  0
 12  6  1  0  0  0  0
 12  5  1  0  0  0  0
 13 14  2  0  0  0  0
 14 19  1  0  0  0  0
 16 11  1  0  0  0  0
 17 23  1  1  0  0  0
 19 21  2  0  0  0  0
 20 17  1  0  0  0  0
 20 18  1  1  0  0  0
 21 17  1  0  0  0  0
 22 19  1  0  0  0  0
 22 20  1  0  0  0  0
 25 24  1  0  0  0  0
 26 30  1  0  0  0  0
 28 33  1  6  0  0  0
 28 26  1  0  0  0  0
 28 30  1  0  0  0  0
 29 28  1  0  0  0  0
 29 27  1  1  0  0  0
 30 25  1  6  0  0  0
 31 32  1  0  0  0  0
 31 34  1  0  0  0  0
 32 33  1  0  0  0  0
 34 29  1  0  0  0  0
M  END
>  <MODEL>
7

>  <REMARK>
 VINA RESULT:      -8.0      2.473      6.019
  Name = 
  4 active torsions:
  status: ('A' for Active; 'I' for Inactive)
    1  A    between atoms: C_5  and  C_18
    2  A    between atoms: C_12  and  C_28
    3  A    between atoms: C_17  and  N_29
    4  A    between atoms: C_18  and  N_29
                            x       y       z     vdW  Elec       q    Type
                         _______ _______ _______ _____ _____    ______ ____

>  <TORSDO>
F 4

$$$$
=
 OpenBabel11052418513D

 34 40  0  0  1  0  0  0  0  0999 V2000
  186.4330  178.6040  142.4130 C   0  0  2  0  0  3  0  0  0  0  0  0
  186.8130  178.1950  144.9000 C   0  0  0  0  0  2  0  0  0  0  0  0
  187.9980  176.7270  143.2620 C   0  0  1  0  0  3  0  0  0  0  0  0
  190.3350  175.5630  143.4710 C   0  0  2  0  0  3  0  0  0  0  0  0
  184.7280  179.3490  143.9610 N   0  0  2  0  0  0  0  0  0  0  0  0
  184.4200  178.5670  145.1660 C   0  0  0  0  0  2  0  0  0  0  0  0
  189.3790  176.8480  145.1990 O   0  0  0  0  0  0  0  0  0  0  0  0
  187.4440  178.1510  143.4960 C   0  0  1  0  0  3  0  0  0  0  0  0
  185.0010  178.4060  142.8770 C   0  0  0  0  0  2  0  0  0  0  0  0
  188.2300  176.4680  141.7680 C   0  0  1  0  0  3  0  0  0  0  0  0
  186.6780  178.0320  141.0140 C   0  0  0  0  0  2  0  0  0  0  0  0
  185.7090  179.2510  145.0810 C   0  0  1  0  0  3  0  0  0  0  0  0
  189.8470  174.7540  142.3480 N   0  0  0  0  0  0  0  0  0  0  0  0
  188.8920  175.1230  141.5440 C   0  0  0  0  0  0  0  0  0  0  0  0
  189.2520  176.4320  144.0580 C   0  0  0  0  0  0  0  0  0  0  0  0
  186.9600  176.6050  141.0720 N   0  0  0  0  0  2  0  0  0  0  0  0
  188.1920  173.6030  138.2770 C   0  0  1  0  0  3  0  0  0  0  0  0
  189.5290  171.4480  138.7900 C   0  0  0  0  0  1  0  0  0  0  0  0
  188.6110  174.2680  140.3730 C   0  0  0  0  0  0  0  0  0  0  0  0
  188.3560  172.3450  139.1630 C   0  0  1  0  0  3  0  0  0  0  0  0
  188.4160  174.7190  139.1830 N   0  0  0  0  0  0  0  0  0  0  0  0
  188.5760  172.8890  140.4510 O   0  0  0  0  0  0  0  0  0  0  0  0
  189.1430  173.6970  137.0920 C   0  0  0  0  0  1  0  0  0  0  0  0
  191.5660  176.3720  143.0690 C   0  0  0  0  0  2  0  0  0  0  0  0
  192.7890  175.6180  143.2970 N   0  0  0  0  0  2  0  0  0  0  0  0
  194.7390  175.5170  144.7540 C   0  0  0  0  0  2  0  0  0  0  0  0
  194.4510  177.7750  146.5440 O   0  0  0  0  0  1  0  0  0  0  0  0
  193.5310  175.7170  145.6380 C   0  0  1  0  0  0  0  0  0  0  0  0
  193.7750  176.5960  146.8690 C   0  0  2  0  0  3  0  0  0  0  0  0
  193.5730  176.3710  144.2610 C   0  0  2  0  0  3  0  0  0  0  0  0
  191.6450  175.2720  147.7770 C   0  0  0  0  0  2  0  0  0  0  0  0
  191.4320  174.7350  146.4380 N   0  0  0  0  0  2  0  0  0  0  0  0
  192.7320  174.4300  145.8490 C   0  0  0  0  0  2  0  0  0  0  0  0
  192.1860  177.0110  147.6670 S   0  0  0  0  0  0  0  0  0  0  0  0
  1 11  1  6  0  0  0
  1  9  1  0  0  0  0
  1  8  1  0  0  0  0
  3  8  1  0  0  0  0
  3 15  1  1  0  0  0
  4 24  1  6  0  0  0
  4 15  1  0  0  0  0
  5  9  1  6  0  0  0
  5 12  1  0  0  0  0
  5  6  1  0  0  0  0
  8  2  1  1  0  0  0
 10 16  1  6  0  0  0
 10  3  1  0  0  0  0
 11 16  1  0  0  0  0
 12  2  1  6  0  0  0
 12  6  1  0  0  0  0
 13  4  1  0  0  0  0
 14 10  1  0  0  0  0
 14 13  2  0  0  0  0
 15  7  2  0  0  0  0
 17 23  1  6  0  0  0
 17 20  1  0  0  0  0
 17 21  1  0  0  0  0
 19 22  1  0  0  0  0
 19 14  1  0  0  0  0
 20 18  1  6  0  0  0
 20 22  1  0  0  0  0
 21 19  2  0  0  0  0
 24 25  1  0  0  0  0
 28 26  1  6  0  0  0
 28 33  1  0  0  0  0
 28 29  1  0  0  0  0
 29 27  1  6  0  0  0
 29 34  1  0  0  0  0
 30 25  1  6  0  0  0
 30 26  1  0  0  0  0
 30 28  1  0  0  0  0
 32 31  1  0  0  0  0
 33 32  1  0  0  0  0
 34 31  1  0  0  0  0
M  END
>  <MODEL>
8

>  <REMARK>
 VINA RESULT:      -7.9      1.629      2.185
  Name = 
  4 active torsions:
  status: ('A' for Active; 'I' for Inactive)
    1  A    between atoms: C_5  and  C_18
    2  A    between atoms: C_12  and  C_28
    3  A    between atoms: C_17  and  N_29
    4  A    between atoms: C_18  and  N_29
                            x       y       z     vdW  Elec       q    Type
                         _______ _______ _______ _____ _____    ______ ____

>  <TORSDO>
F 4

$$$$
=
 OpenBabel11052418513D

 34 40  0  0  1  0  0  0  0  0999 V2000
  188.1710  177.7180  143.7440 C   0  0  2  0  0  3  0  0  0  0  0  0
  187.5130  176.7000  145.9860 C   0  0  0  0  0  2  0  0  0  0  0  0
  188.7480  175.2710  144.3500 C   0  0  1  0  0  3  0  0  0  0  0  0
  190.4400  173.3220  144.8010 C   0  0  2  0  0  3  0  0  0  0  0  0
  186.3040  178.6970  144.9330 N   0  0  2  0  0  0  0  0  0  0  0  0
  185.3850  177.8520  145.7070 C   0  0  0  0  0  2  0  0  0  0  0  0
  189.3270  174.4830  146.5230 O   0  0  0  0  0  0  0  0  0  0  0  0
  188.5640  176.7180  144.8600 C   0  0  1  0  0  3  0  0  0  0  0  0
  186.6720  177.9620  143.7240 C   0  0  0  0  0  2  0  0  0  0  0  0
  189.4150  175.2570  142.9690 C   0  0  1  0  0  3  0  0  0  0  0  0
  188.7280  177.3960  142.3550 C   0  0  0  0  0  2  0  0  0  0  0  0
  186.7550  178.0230  146.1860 C   0  0  1  0  0  3  0  0  0  0  0  0
  190.1800  172.9930  143.3950 N   0  0  0  0  0  0  0  0  0  0  0  0
  189.7140  173.8390  142.5220 C   0  0  0  0  0  0  0  0  0  0  0  0
  189.5040  174.3850  145.3190 C   0  0  0  0  0  0  0  0  0  0  0  0
  188.5650  175.9840  142.0380 N   0  0  0  0  0  2  0  0  0  0  0  0
  188.8460  172.8590  139.0930 C   0  0  1  0  0  3  0  0  0  0  0  0
  191.0370  173.7910  138.0780 C   0  0  0  0  0  1  0  0  0  0  0  0
  189.6430  173.4030  141.1130 C   0  0  0  0  0  0  0  0  0  0  0  0
  190.3920  172.8000  139.0390 C   0  0  1  0  0  3  0  0  0  0  0  0
  188.5450  173.2860  140.4510 N   0  0  0  0  0  0  0  0  0  0  0  0
  190.7700  173.1220  140.3640 O   0  0  0  0  0  0  0  0  0  0  0  0
  188.1920  173.8050  138.0940 C   0  0  0  0  0  1  0  0  0  0  0  0
  191.9060  173.6940  145.0140 C   0  0  0  0  0  2  0  0  0  0  0  0
  192.0670  175.1330  145.1560 N   0  0  0  0  0  2  0  0  0  0  0  0
  193.7460  176.8980  145.1190 C   0  0  0  0  0  2  0  0  0  0  0  0
  196.2460  175.5400  144.5820 O   0  0  0  0  0  1  0  0  0  0  0  0
  193.9700  176.0430  143.8950 C   0  0  1  0  0  0  0  0  0  0  0  0
  195.4390  175.8740  143.4910 C   0  0  2  0  0  3  0  0  0  0  0  0
  193.4970  175.3940  145.1910 C   0  0  2  0  0  3  0  0  0  0  0  0
  194.3400  175.3410  141.1200 C   0  0  0  0  0  2  0  0  0  0  0  0
  193.0310  175.2900  141.7600 N   0  0  0  0  0  2  0  0  0  0  0  0
  192.9700  176.3360  142.7760 C   0  0  0  0  0  2  0  0  0  0  0  0
  195.5910  174.5820  142.2090 S   0  0  0  0  0  0  0  0  0  0  0  0
  1 11  1  6  0  0  0
  1  8  1  0  0  0  0
  2 12  1  0  0  0  0
  3  8  1  0  0  0  0
  3 15  1  1  0  0  0
  4 24  1  6  0  0  0
  4 15  1  0  0  0  0
  5  9  1  6  0  0  0
  5  6  1  0  0  0  0
  5 12  1  0  0  0  0
  8  2  1  1  0  0  0
  9  1  1  0  0  0  0
 10 16  1  6  0  0  0
 10  3  1  0  0  0  0
 12  6  1  1  0  0  0
 13  4  1  0  0  0  0
 14 10  1  0  0  0  0
 14 13  2  0  0  0  0
 15  7  2  0  0  0  0
 16 11  1  0  0  0  0
 17 23  1  6  0  0  0
 17 21  1  0  0  0  0
 19 14  1  0  0  0  0
 20 18  1  6  0  0  0
 20 17  1  0  0  0  0
 20 22  1  0  0  0  0
 21 19  2  0  0  0  0
 22 19  1  0  0  0  0
 24 25  1  0  0  0  0
 26 30  1  0  0  0  0
 28 33  1  6  0  0  0
 28 26  1  0  0  0  0
 28 30  1  0  0  0  0
 29 28  1  0  0  0  0
 29 27  1  1  0  0  0
 30 25  1  6  0  0  0
 31 32  1  0  0  0  0
 31 34  1  0  0  0  0
 32 33  1  0  0  0  0
 34 29  1  0  0  0  0
M  END
>  <MODEL>
9

>  <REMARK>
 VINA RESULT:      -7.9      1.958      2.390
  Name = 
  4 active torsions:
  status: ('A' for Active; 'I' for Inactive)
    1  A    between atoms: C_5  and  C_18
    2  A    between atoms: C_12  and  C_28
    3  A    between atoms: C_17  and  N_29
    4  A    between atoms: C_18  and  N_29
                            x       y       z     vdW  Elec       q    Type
                         _______ _______ _______ _____ _____    ______ ____

>  <TORSDO>
F 4

$$$$
