=
 OpenBabel11052420023D

 37 41  0  0  1  0  0  0  0  0999 V2000
  195.1450  175.8120  145.0690 C   0  0  0  0  0  2  0  0  0  0  0  0
  191.2820  175.8360  142.9620 C   0  0  2  0  0  3  0  0  0  0  0  0
  192.9490  176.9260  144.4960 C   0  0  2  0  0  3  0  0  0  0  0  0
  190.6570  174.7720  143.8850 C   0  0  1  0  0  3  0  0  0  0  0  0
  192.7750  176.0790  143.2320 C   0  0  0  0  0  2  0  0  0  0  0  0
  192.2180  178.2330  144.3670 C   0  0  0  0  0  3  0  0  0  0  0  0
  192.2250  172.9500  144.8470 C   0  0  1  0  0  3  0  0  0  0  0  0
  194.4790  173.4910  145.7420 C   0  0  0  0  0  2  0  0  0  0  0  0
  190.5190  177.1380  142.9840 C   0  0  0  0  0  0  0  0  0  0  0  0
  191.0680  178.3130  143.6890 C   0  0  0  0  0  3  0  0  0  0  0  0
  193.6620  173.2650  144.4780 C   0  0  1  0  0  3  0  0  0  0  0  0
  189.3650  177.2420  142.3400 C   0  0  0  0  0  2  0  0  0  0  0  0
  191.3190  173.3880  143.6910 C   0  0  1  0  0  3  0  0  0  0  0  0
  194.4130  177.1380  144.8660 C   0  0  0  0  0  2  0  0  0  0  0  0
  194.4670  174.9620  146.1370 C   0  0  0  0  0  2  0  0  0  0  0  0
  193.1680  171.8380  144.4200 C   0  0  0  0  0  2  0  0  0  0  0  0
  190.5410  175.2330  145.3450 C   0  0  0  0  0  2  0  0  0  0  0  0
  189.0540  174.3860  146.9190 C   0  0  0  0  0  1  0  0  0  0  0  0
  189.1490  175.2630  145.7630 N   0  0  0  0  0  0  0  0  0  0  0  0
  186.6720  176.5250  144.6360 C   0  0  0  0  0  2  0  0  0  0  0  0
  187.7470  177.2440  145.4200 C   0  0  1  0  0  3  0  0  0  0  0  0
  187.4760  176.6910  146.8090 C   0  0  2  0  0  3  0  0  0  0  0  0
  185.6730  178.2730  147.1540 C   0  0  0  0  0  3  0  0  0  0  0  0
  184.8150  177.4890  146.1670 C   0  0  0  0  0  2  0  0  0  0  0  0
  186.9270  177.9000  147.4820 C   0  0  0  0  0  3  0  0  0  0  0  0
  185.3970  177.3850  144.7370 C   0  0  0  0  0  2  0  0  0  0  0  0
  188.8710  176.6150  146.2310 C   0  0  1  0  0  3  0  0  0  0  0  0
  190.3350  172.2850  143.2770 C   0  0  2  0  0  3  0  0  0  0  0  0
  191.0610  170.2370  141.9440 C   0  0  0  0  0  1  0  0  0  0  0  0
  190.6690  171.7060  141.8960 C   0  0  0  0  0  3  0  0  0  0  0  0
  191.7580  172.5110  141.2140 C   0  0  0  0  0  1  0  0  0  0  0  0
  188.8670  172.6820  143.4560 C   0  0  0  0  0  2  0  0  0  0  0  0
  188.1220  172.6520  142.1330 C   0  0  0  0  0  2  0  0  0  0  0  0
  187.8390  174.0670  141.6580 C   0  0  0  0  0  2  0  0  0  0  0  0
  188.5360  174.3310  140.3350 C   0  0  0  0  0  2  0  0  0  0  0  0
  189.4210  173.1630  138.4050 N   0  0  0  0  0  1  0  0  0  0  0  0
  188.3690  173.1450  139.4040 C   0  0  0  0  0  2  0  0  0  0  0  0
  1 15  1  0  0  0  0
  2  9  1  0  0  0  0
  2  5  1  1  0  0  0
  2  4  1  0  0  0  0
  3  5  1  6  0  0  0
  3 14  1  0  0  0  0
  4 17  1  1  0  0  0
  6  3  1  0  0  0  0
  7 16  1  6  0  0  0
  8 15  1  0  0  0  0
  9 10  1  0  0  0  0
 10  6  2  0  0  0  0
 11 16  1  1  0  0  0
 11  7  1  0  0  0  0
 11  8  1  0  0  0  0
 12  9  2  0  0  0  0
 13 28  1  1  0  0  0
 13  4  1  0  0  0  0
 13  7  1  0  0  0  0
 14  1  1  0  0  0  0
 17 19  1  0  0  0  0
 19 18  1  0  0  0  0
 20 26  1  0  0  0  0
 21 20  1  6  0  0  0
 21 27  1  0  0  0  0
 21 22  1  0  0  0  0
 22 25  1  1  0  0  0
 23 25  2  0  0  0  0
 24 23  1  0  0  0  0
 26 24  1  0  0  0  0
 27 19  1  6  0  0  0
 27 22  1  0  0  0  0
 28 32  1  6  0  0  0
 30 29  1  0  0  0  0
 30 28  1  0  0  0  0
 31 30  1  0  0  0  0
 33 32  1  0  0  0  0
 34 33  1  0  0  0  0
 35 34  1  0  0  0  0
 36 37  1  0  0  0  0
 37 35  1  0  0  0  0
M  END
>  <MODEL>
1

>  <REMARK>
 VINA RESULT:      -6.4      0.000      0.000
  Name = 
  10 active torsions:
  status: ('A' for Active; 'I' for Inactive)
    1  A    between atoms: C_1  and  C_5
    2  A    between atoms: C_1  and  C_23
    3  A    between atoms: C_5  and  C_17
    4  A    between atoms: C_10  and  C_14
    5  A    between atoms: C_14  and  N_31
    6  A    between atoms: C_17  and  C_26
    7  A    between atoms: C_26  and  C_33
    8  A    between atoms: C_27  and  C_33
    9  A    between atoms: C_29  and  C_33
   10  A    between atoms: N_31  and  C_37
                            x       y       z     vdW  Elec       q    Type
                         _______ _______ _______ _____ _____    ______ ____

>  <TORSDO>
F 10

$$$$
=
 OpenBabel11052420023D

 37 41  0  0  1  0  0  0  0  0999 V2000
  194.4680  174.4990  141.7400 C   0  0  0  0  0  2  0  0  0  0  0  0
  190.3700  173.5520  143.0330 C   0  0  2  0  0  3  0  0  0  0  0  0
  192.0610  173.9320  141.2120 C   0  0  2  0  0  3  0  0  0  0  0  0
  190.0720  174.9940  143.4880 C   0  0  1  0  0  3  0  0  0  0  0  0
  191.8290  173.3350  142.6030 C   0  0  0  0  0  2  0  0  0  0  0  0
  191.1220  173.3260  140.2080 C   0  0  0  0  0  3  0  0  0  0  0  0
  192.0390  176.3770  144.4490 C   0  0  1  0  0  3  0  0  0  0  0  0
  194.2900  176.3710  143.3980 C   0  0  0  0  0  2  0  0  0  0  0  0
  189.4230  173.0810  141.9560 C   0  0  0  0  0  0  0  0  0  0  0  0
  189.8820  172.9640  140.5580 C   0  0  0  0  0  3  0  0  0  0  0  0
  193.3330  175.6010  144.2960 C   0  0  1  0  0  3  0  0  0  0  0  0
  188.1820  172.7370  142.2670 C   0  0  0  0  0  2  0  0  0  0  0  0
  190.9070  175.3830  144.7310 C   0  0  1  0  0  3  0  0  0  0  0  0
  193.5130  173.8210  140.7590 C   0  0  0  0  0  2  0  0  0  0  0  0
  194.1070  175.9660  141.9410 C   0  0  0  0  0  2  0  0  0  0  0  0
  193.0670  176.3740  145.5670 C   0  0  0  0  0  2  0  0  0  0  0  0
  190.1120  176.0110  142.3390 C   0  0  0  0  0  2  0  0  0  0  0  0
  189.4890  178.2320  142.0510 C   0  0  0  0  0  1  0  0  0  0  0  0
  188.9820  176.9200  142.4200 N   0  0  0  0  0  0  0  0  0  0  0  0
  186.0860  177.2420  143.1350 C   0  0  0  0  0  2  0  0  0  0  0  0
  186.6180  176.4920  141.9340 C   0  0  1  0  0  3  0  0  0  0  0  0
  187.0860  177.6580  141.0810 C   0  0  2  0  0  3  0  0  0  0  0  0
  184.8340  178.0560  140.2780 C   0  0  0  0  0  3  0  0  0  0  0  0
  184.4580  178.6060  141.6490 C   0  0  0  0  0  2  0  0  0  0  0  0
  186.0770  177.6200  139.9870 C   0  0  0  0  0  3  0  0  0  0  0  0
  184.6220  177.6080  142.8200 C   0  0  0  0  0  2  0  0  0  0  0  0
  188.0370  176.5220  141.3840 C   0  0  1  0  0  3  0  0  0  0  0  0
  190.0570  175.8010  145.9390 C   0  0  2  0  0  3  0  0  0  0  0  0
  188.8970  174.4400  147.7570 C   0  0  0  0  0  1  0  0  0  0  0  0
  190.2200  174.8340  147.1190 C   0  0  0  0  0  3  0  0  0  0  0  0
  191.1530  175.4060  148.1690 C   0  0  0  0  0  1  0  0  0  0  0  0
  188.6020  176.1170  145.5790 C   0  0  0  0  0  2  0  0  0  0  0  0
  188.2530  177.5570  145.9090 C   0  0  0  0  0  2  0  0  0  0  0  0
  187.2430  177.6060  147.0440 C   0  0  0  0  0  2  0  0  0  0  0  0
  186.0180  176.7800  146.6980 C   0  0  0  0  0  2  0  0  0  0  0  0
  185.0250  178.8940  147.3450 N   0  0  0  0  0  1  0  0  0  0  0  0
  184.7900  177.6670  146.6070 C   0  0  0  0  0  2  0  0  0  0  0  0
  1 15  1  0  0  0  0
  2  5  1  6  0  0  0
  2  4  1  0  0  0  0
  3  6  1  6  0  0  0
  3  5  1  0  0  0  0
  4 17  1  6  0  0  0
  4 13  1  0  0  0  0
  6 10  2  0  0  0  0
  7 13  1  0  0  0  0
  7 16  1  1  0  0  0
  9 12  2  0  0  0  0
  9  2  1  0  0  0  0
 10  9  1  0  0  0  0
 11  8  1  6  0  0  0
 11  7  1  0  0  0  0
 11 16  1  0  0  0  0
 13 28  1  1  0  0  0
 14  3  1  0  0  0  0
 14  1  1  0  0  0  0
 15  8  1  0  0  0  0
 17 19  1  0  0  0  0
 18 19  1  0  0  0  0
 21 20  1  1  0  0  0
 22 25  1  6  0  0  0
 22 27  1  0  0  0  0
 22 21  1  0  0  0  0
 23 24  1  0  0  0  0
 24 26  1  0  0  0  0
 25 23  2  0  0  0  0
 26 20  1  0  0  0  0
 27 21  1  0  0  0  0
 27 19  1  1  0  0  0
 28 32  1  6  0  0  0
 28 30  1  0  0  0  0
 30 29  1  0  0  0  0
 30 31  1  0  0  0  0
 32 33  1  0  0  0  0
 33 34  1  0  0  0  0
 35 34  1  0  0  0  0
 37 35  1  0  0  0  0
 37 36  1  0  0  0  0
M  END
>  <MODEL>
2

>  <REMARK>
 VINA RESULT:      -6.3      2.169      5.411
  Name = 
  10 active torsions:
  status: ('A' for Active; 'I' for Inactive)
    1  A    between atoms: C_1  and  C_5
    2  A    between atoms: C_1  and  C_23
    3  A    between atoms: C_5  and  C_17
    4  A    between atoms: C_10  and  C_14
    5  A    between atoms: C_14  and  N_31
    6  A    between atoms: C_17  and  C_26
    7  A    between atoms: C_26  and  C_33
    8  A    between atoms: C_27  and  C_33
    9  A    between atoms: C_29  and  C_33
   10  A    between atoms: N_31  and  C_37
                            x       y       z     vdW  Elec       q    Type
                         _______ _______ _______ _____ _____    ______ ____

>  <TORSDO>
F 10

$$$$
=
 OpenBabel11052420023D

 37 41  0  0  1  0  0  0  0  0999 V2000
  195.0050  173.1730  144.9870 C   0  0  0  0  0  2  0  0  0  0  0  0
  192.0420  175.9660  143.3210 C   0  0  2  0  0  3  0  0  0  0  0  0
  193.7300  175.3540  145.0800 C   0  0  2  0  0  3  0  0  0  0  0  0
  190.8390  175.0900  143.7240 C   0  0  1  0  0  3  0  0  0  0  0  0
  193.4000  175.3000  143.5860 C   0  0  0  0  0  2  0  0  0  0  0  0
  193.7360  176.7740  145.5740 C   0  0  0  0  0  3  0  0  0  0  0  0
  191.1700  172.5220  143.7080 C   0  0  1  0  0  3  0  0  0  0  0  0
  193.2180  171.4530  144.6200 C   0  0  0  0  0  2  0  0  0  0  0  0
  191.9910  177.3380  143.9500 C   0  0  0  0  0  0  0  0  0  0  0  0
  192.8960  177.6820  145.0640 C   0  0  0  0  0  3  0  0  0  0  0  0
  192.6250  172.1960  143.4320 C   0  0  1  0  0  3  0  0  0  0  0  0
  191.1540  178.2520  143.4810 C   0  0  0  0  0  2  0  0  0  0  0  0
  190.7940  173.7750  142.9100 C   0  0  1  0  0  3  0  0  0  0  0  0
  195.0320  174.6370  145.4220 C   0  0  0  0  0  2  0  0  0  0  0  0
  193.8330  172.4290  145.6160 C   0  0  0  0  0  2  0  0  0  0  0  0
  191.5360  171.3700  142.7870 C   0  0  0  0  0  2  0  0  0  0  0  0
  190.7020  174.9140  145.2430 C   0  0  0  0  0  2  0  0  0  0  0  0
  189.1490  174.3280  146.8700 C   0  0  0  0  0  1  0  0  0  0  0  0
  189.3230  175.1120  145.6580 N   0  0  0  0  0  0  0  0  0  0  0  0
  186.7360  176.4060  144.8650 C   0  0  0  0  0  2  0  0  0  0  0  0
  187.9610  177.1300  145.3760 C   0  0  1  0  0  3  0  0  0  0  0  0
  187.9220  176.7170  146.8380 C   0  0  2  0  0  3  0  0  0  0  0  0
  186.2720  178.4210  147.3380 C   0  0  0  0  0  3  0  0  0  0  0  0
  185.2210  177.6010  146.5960 C   0  0  0  0  0  2  0  0  0  0  0  0
  187.5490  178.0080  147.4770 C   0  0  0  0  0  3  0  0  0  0  0  0
  185.5340  177.3410  145.1030 C   0  0  0  0  0  2  0  0  0  0  0  0
  189.1870  176.5140  146.0360 C   0  0  1  0  0  3  0  0  0  0  0  0
  189.4950  173.5870  142.1140 C   0  0  2  0  0  3  0  0  0  0  0  0
  189.2840  172.2920  139.9280 C   0  0  0  0  0  1  0  0  0  0  0  0
  189.7460  173.5760  140.6000 C   0  0  0  0  0  3  0  0  0  0  0  0
  191.2070  173.8290  140.2860 C   0  0  0  0  0  1  0  0  0  0  0  0
  188.3670  174.5220  142.5600 C   0  0  0  0  0  2  0  0  0  0  0  0
  187.9170  175.4230  141.4240 C   0  0  0  0  0  2  0  0  0  0  0  0
  188.3190  176.8620  141.7050 C   0  0  0  0  0  2  0  0  0  0  0  0
  187.4190  177.8200  140.9470 C   0  0  0  0  0  2  0  0  0  0  0  0
  185.0770  177.9260  140.3300 N   0  0  0  0  0  1  0  0  0  0  0  0
  185.9880  177.7030  141.4380 C   0  0  0  0  0  2  0  0  0  0  0  0
  1 14  1  0  0  0  0
  1 15  1  0  0  0  0
  2  5  1  1  0  0  0
  2  4  1  0  0  0  0
  2  9  1  0  0  0  0
  3  5  1  6  0  0  0
  3 14  1  0  0  0  0
  3  6  1  0  0  0  0
  4 17  1  1  0  0  0
  7 16  1  6  0  0  0
  8 15  1  0  0  0  0
  9 10  1  0  0  0  0
 10  6  2  0  0  0  0
 11 16  1  6  0  0  0
 11  7  1  0  0  0  0
 11  8  1  0  0  0  0
 12  9  2  0  0  0  0
 13 28  1  1  0  0  0
 13  7  1  0  0  0  0
 13  4  1  0  0  0  0
 17 19  1  0  0  0  0
 19 18  1  0  0  0  0
 20 26  1  0  0  0  0
 21 20  1  6  0  0  0
 21 27  1  0  0  0  0
 21 22  1  0  0  0  0
 22 25  1  1  0  0  0
 23 25  2  0  0  0  0
 24 23  1  0  0  0  0
 26 24  1  0  0  0  0
 27 19  1  6  0  0  0
 27 22  1  0  0  0  0
 28 32  1  6  0  0  0
 29 30  1  0  0  0  0
 30 28  1  0  0  0  0
 31 30  1  0  0  0  0
 33 34  1  0  0  0  0
 33 32  1  0  0  0  0
 35 37  1  0  0  0  0
 35 34  1  0  0  0  0
 36 37  1  0  0  0  0
M  END
>  <MODEL>
3

>  <REMARK>
 VINA RESULT:      -6.3      1.597      2.340
  Name = 
  10 active torsions:
  status: ('A' for Active; 'I' for Inactive)
    1  A    between atoms: C_1  and  C_5
    2  A    between atoms: C_1  and  C_23
    3  A    between atoms: C_5  and  C_17
    4  A    between atoms: C_10  and  C_14
    5  A    between atoms: C_14  and  N_31
    6  A    between atoms: C_17  and  C_26
    7  A    between atoms: C_26  and  C_33
    8  A    between atoms: C_27  and  C_33
    9  A    between atoms: C_29  and  C_33
   10  A    between atoms: N_31  and  C_37
                            x       y       z     vdW  Elec       q    Type
                         _______ _______ _______ _____ _____    ______ ____

>  <TORSDO>
F 10

$$$$
=
 OpenBabel11052420023D

 37 41  0  0  1  0  0  0  0  0999 V2000
  185.1700  178.9840  144.0930 C   0  0  0  0  0  2  0  0  0  0  0  0
  187.7130  175.6200  145.3460 C   0  0  2  0  0  3  0  0  0  0  0  0
  186.7820  177.9240  145.7260 C   0  0  2  0  0  3  0  0  0  0  0  0
  188.7760  175.8870  144.2630 C   0  0  1  0  0  3  0  0  0  0  0  0
  186.4700  176.5140  145.2180 C   0  0  0  0  0  2  0  0  0  0  0  0
  187.2560  177.8850  147.1520 C   0  0  0  0  0  3  0  0  0  0  0  0
  187.9630  176.8450  141.9980 C   0  0  1  0  0  3  0  0  0  0  0  0
  186.2810  178.6680  141.8680 C   0  0  0  0  0  2  0  0  0  0  0  0
  188.2830  175.6980  146.7420 C   0  0  0  0  0  0  0  0  0  0  0  0
  187.9850  176.8580  147.6050 C   0  0  0  0  0  3  0  0  0  0  0  0
  186.4850  177.1760  142.0840 C   0  0  1  0  0  3  0  0  0  0  0  0
  189.0270  174.7080  147.2120 C   0  0  0  0  0  2  0  0  0  0  0  0
  188.2310  175.5950  142.8450 C   0  0  1  0  0  3  0  0  0  0  0  0
  185.6110  178.8850  145.5520 C   0  0  0  0  0  2  0  0  0  0  0  0
  186.3220  179.4170  143.1940 C   0  0  0  0  0  2  0  0  0  0  0  0
  187.0390  176.5340  140.8330 C   0  0  0  0  0  2  0  0  0  0  0  0
  189.4700  177.2480  144.4200 C   0  0  0  0  0  2  0  0  0  0  0  0
  191.2130  178.3160  143.3140 C   0  0  0  0  0  1  0  0  0  0  0  0
  190.8850  177.1410  144.1030 N   0  0  0  0  0  0  0  0  0  0  0  0
  192.1890  174.6140  145.0590 C   0  0  0  0  0  2  0  0  0  0  0  0
  192.0200  175.8790  145.8710 C   0  0  1  0  0  3  0  0  0  0  0  0
  193.0370  176.7730  145.1820 C   0  0  2  0  0  3  0  0  0  0  0  0
  194.8540  175.7850  146.4450 C   0  0  0  0  0  3  0  0  0  0  0  0
  194.7190  174.5120  145.6160 C   0  0  0  0  0  2  0  0  0  0  0  0
  194.0780  176.8700  146.2410 C   0  0  0  0  0  3  0  0  0  0  0  0
  193.3390  173.8180  145.7080 C   0  0  0  0  0  2  0  0  0  0  0  0
  191.6140  177.2540  145.3600 C   0  0  1  0  0  3  0  0  0  0  0  0
  189.0380  174.5390  142.0780 C   0  0  2  0  0  3  0  0  0  0  0  0
  188.9030  172.0980  142.8030 C   0  0  0  0  0  1  0  0  0  0  0  0
  188.2830  173.2070  141.9680 C   0  0  0  0  0  3  0  0  0  0  0  0
  188.1650  172.7650  140.5230 C   0  0  0  0  0  1  0  0  0  0  0  0
  190.4840  174.4060  142.5670 C   0  0  0  0  0  2  0  0  0  0  0  0
  191.4630  174.4550  141.4080 C   0  0  0  0  0  2  0  0  0  0  0  0
  192.5100  173.3630  141.5590 C   0  0  0  0  0  2  0  0  0  0  0  0
  193.8750  173.9710  141.8250 C   0  0  0  0  0  2  0  0  0  0  0  0
  195.0550  176.0480  142.2330 N   0  0  0  0  0  1  0  0  0  0  0  0
  193.7970  175.4850  141.7780 C   0  0  0  0  0  2  0  0  0  0  0  0
  1 14  1  0  0  0  0
  2  5  1  1  0  0  0
  2  9  1  0  0  0  0
  3  5  1  1  0  0  0
  3  6  1  0  0  0  0
  4 17  1  6  0  0  0
  4  2  1  0  0  0  0
  6 10  2  0  0  0  0
  7 16  1  6  0  0  0
  7 11  1  0  0  0  0
  7 13  1  0  0  0  0
  8 11  1  0  0  0  0
  8 15  1  0  0  0  0
  9 12  2  0  0  0  0
  9 10  1  0  0  0  0
 11 16  1  6  0  0  0
 13 28  1  6  0  0  0
 13  4  1  0  0  0  0
 14  3  1  0  0  0  0
 15  1  1  0  0  0  0
 18 19  1  0  0  0  0
 19 17  1  0  0  0  0
 20 26  1  0  0  0  0
 21 20  1  6  0  0  0
 22 27  1  0  0  0  0
 22 21  1  0  0  0  0
 22 25  1  1  0  0  0
 24 26  1  0  0  0  0
 24 23  1  0  0  0  0
 25 23  2  0  0  0  0
 27 19  1  6  0  0  0
 27 21  1  0  0  0  0
 28 32  1  1  0  0  0
 30 28  1  0  0  0  0
 30 29  1  0  0  0  0
 31 30  1  0  0  0  0
 33 34  1  0  0  0  0
 33 32  1  0  0  0  0
 34 35  1  0  0  0  0
 37 35  1  0  0  0  0
 37 36  1  0  0  0  0
M  END
>  <MODEL>
4

>  <REMARK>
 VINA RESULT:      -6.3      2.026      6.363
  Name = 
  10 active torsions:
  status: ('A' for Active; 'I' for Inactive)
    1  A    between atoms: C_1  and  C_5
    2  A    between atoms: C_1  and  C_23
    3  A    between atoms: C_5  and  C_17
    4  A    between atoms: C_10  and  C_14
    5  A    between atoms: C_14  and  N_31
    6  A    between atoms: C_17  and  C_26
    7  A    between atoms: C_26  and  C_33
    8  A    between atoms: C_27  and  C_33
    9  A    between atoms: C_29  and  C_33
   10  A    between atoms: N_31  and  C_37
                            x       y       z     vdW  Elec       q    Type
                         _______ _______ _______ _____ _____    ______ ____

>  <TORSDO>
F 10

$$$$
=
 OpenBabel11052420023D

 37 41  0  0  1  0  0  0  0  0999 V2000
  192.0950  172.3730  139.1550 C   0  0  0  0  0  2  0  0  0  0  0  0
  191.4280  173.2250  143.4210 C   0  0  2  0  0  3  0  0  0  0  0  0
  190.5470  172.8570  141.0950 C   0  0  2  0  0  3  0  0  0  0  0  0
  191.9750  174.6630  143.3240 C   0  0  1  0  0  3  0  0  0  0  0  0
  191.5930  172.4180  142.1230 C   0  0  0  0  0  2  0  0  0  0  0  0
  189.1570  172.6920  141.6430 C   0  0  0  0  0  3  0  0  0  0  0  0
  193.8810  175.1050  141.6280 C   0  0  1  0  0  3  0  0  0  0  0  0
  193.8470  174.1570  139.3320 C   0  0  0  0  0  2  0  0  0  0  0  0
  189.9940  173.1860  143.8920 C   0  0  0  0  0  0  0  0  0  0  0  0
  188.9050  172.8820  142.9430 C   0  0  0  0  0  3  0  0  0  0  0  0
  194.1270  173.8600  140.7970 C   0  0  1  0  0  3  0  0  0  0  0  0
  189.7100  173.3920  145.1690 C   0  0  0  0  0  2  0  0  0  0  0  0
  193.4980  174.6750  143.0480 C   0  0  1  0  0  3  0  0  0  0  0  0
  190.7070  172.1490  139.7540 C   0  0  0  0  0  2  0  0  0  0  0  0
  192.3940  173.8580  138.9870 C   0  0  0  0  0  2  0  0  0  0  0  0
  195.2990  174.6800  141.2860 C   0  0  0  0  0  2  0  0  0  0  0  0
  191.1440  175.5640  142.4000 C   0  0  0  0  0  2  0  0  0  0  0  0
  190.9670  177.7660  143.1250 C   0  0  0  0  0  1  0  0  0  0  0  0
  190.3140  176.4680  143.1790 N   0  0  0  0  0  0  0  0  0  0  0  0
  187.8810  176.6090  144.9290 C   0  0  0  0  0  2  0  0  0  0  0  0
  187.8770  176.4150  143.4290 C   0  0  1  0  0  3  0  0  0  0  0  0
  188.2890  177.8070  142.9810 C   0  0  2  0  0  3  0  0  0  0  0  0
  186.0230  178.6280  143.2370 C   0  0  0  0  0  3  0  0  0  0  0  0
  186.1850  178.5610  144.7520 C   0  0  0  0  0  2  0  0  0  0  0  0
  187.0140  178.2910  142.3860 C   0  0  0  0  0  3  0  0  0  0  0  0
  186.4910  177.1510  145.3130 C   0  0  0  0  0  2  0  0  0  0  0  0
  189.0460  176.6010  142.4730 C   0  0  1  0  0  3  0  0  0  0  0  0
  194.3120  175.4150  144.1170 C   0  0  2  0  0  3  0  0  0  0  0  0
  196.7270  174.7510  144.5990 C   0  0  0  0  0  1  0  0  0  0  0  0
  195.2570  174.4720  144.8740 C   0  0  0  0  0  3  0  0  0  0  0  0
  194.9400  173.0210  144.5700 C   0  0  0  0  0  1  0  0  0  0  0  0
  193.4600  176.3110  145.0200 C   0  0  0  0  0  2  0  0  0  0  0  0
  193.6010  175.9170  146.4790 C   0  0  0  0  0  2  0  0  0  0  0  0
  192.3070  175.2970  146.9830 C   0  0  0  0  0  2  0  0  0  0  0  0
  191.1360  176.2210  146.7070 C   0  0  0  0  0  2  0  0  0  0  0  0
  189.6910  177.9230  147.6510 N   0  0  0  0  0  1  0  0  0  0  0  0
  190.7980  177.0310  147.9440 C   0  0  0  0  0  2  0  0  0  0  0  0
  1 14  1  0  0  0  0
  2  5  1  6  0  0  0
  2  9  1  0  0  0  0
  3 14  1  6  0  0  0
  3  6  1  0  0  0  0
  3  5  1  0  0  0  0
  4 17  1  6  0  0  0
  4  2  1  0  0  0  0
  6 10  2  0  0  0  0
  7 16  1  1  0  0  0
  7 13  1  0  0  0  0
  9 12  2  0  0  0  0
 10  9  1  0  0  0  0
 11  8  1  6  0  0  0
 11 16  1  0  0  0  0
 11  7  1  0  0  0  0
 13  4  1  0  0  0  0
 13 28  1  1  0  0  0
 15  1  1  0  0  0  0
 15  8  1  0  0  0  0
 17 19  1  0  0  0  0
 18 19  1  0  0  0  0
 20 26  1  0  0  0  0
 21 20  1  1  0  0  0
 22 25  1  6  0  0  0
 22 21  1  0  0  0  0
 23 24  1  0  0  0  0
 24 26  1  0  0  0  0
 25 23  2  0  0  0  0
 27 22  1  0  0  0  0
 27 19  1  1  0  0  0
 27 21  1  0  0  0  0
 28 30  1  0  0  0  0
 28 32  1  1  0  0  0
 29 30  1  0  0  0  0
 31 30  1  0  0  0  0
 32 33  1  0  0  0  0
 33 34  1  0  0  0  0
 35 34  1  0  0  0  0
 35 37  1  0  0  0  0
 36 37  1  0  0  0  0
M  END
>  <MODEL>
5

>  <REMARK>
 VINA RESULT:      -6.1      1.893      5.548
  Name = 
  10 active torsions:
  status: ('A' for Active; 'I' for Inactive)
    1  A    between atoms: C_1  and  C_5
    2  A    between atoms: C_1  and  C_23
    3  A    between atoms: C_5  and  C_17
    4  A    between atoms: C_10  and  C_14
    5  A    between atoms: C_14  and  N_31
    6  A    between atoms: C_17  and  C_26
    7  A    between atoms: C_26  and  C_33
    8  A    between atoms: C_27  and  C_33
    9  A    between atoms: C_29  and  C_33
   10  A    between atoms: N_31  and  C_37
                            x       y       z     vdW  Elec       q    Type
                         _______ _______ _______ _____ _____    ______ ____

>  <TORSDO>
F 10

$$$$
=
 OpenBabel11052420023D

 37 41  0  0  1  0  0  0  0  0999 V2000
  185.1770  179.0030  144.1050 C   0  0  0  0  0  2  0  0  0  0  0  0
  187.6980  175.6300  145.3800 C   0  0  2  0  0  3  0  0  0  0  0  0
  186.7810  177.9420  145.7450 C   0  0  2  0  0  3  0  0  0  0  0  0
  188.7640  175.8840  144.2950 C   0  0  1  0  0  3  0  0  0  0  0  0
  186.4610  176.5310  145.2450 C   0  0  0  0  0  2  0  0  0  0  0  0
  187.2540  177.9080  147.1710 C   0  0  0  0  0  3  0  0  0  0  0  0
  187.9570  176.8330  142.0250 C   0  0  1  0  0  3  0  0  0  0  0  0
  186.2870  178.6660  141.8820 C   0  0  0  0  0  2  0  0  0  0  0  0
  188.2670  175.7130  146.7750 C   0  0  0  0  0  0  0  0  0  0  0  0
  187.9760  176.8800  147.6310 C   0  0  0  0  0  3  0  0  0  0  0  0
  186.4820  177.1750  142.1070 C   0  0  1  0  0  3  0  0  0  0  0  0
  189.0040  174.7210  147.2520 C   0  0  0  0  0  2  0  0  0  0  0  0
  188.2170  175.5870  142.8790 C   0  0  1  0  0  3  0  0  0  0  0  0
  185.6160  178.9090  145.5650 C   0  0  0  0  0  2  0  0  0  0  0  0
  186.3320  179.4230  143.2040 C   0  0  0  0  0  2  0  0  0  0  0  0
  187.0320  176.5220  140.8600 C   0  0  0  0  0  2  0  0  0  0  0  0
  189.4660  177.2410  144.4450 C   0  0  0  0  0  2  0  0  0  0  0  0
  191.2150  178.2860  143.3250 C   0  0  0  0  0  1  0  0  0  0  0  0
  190.8800  177.1230  144.1300 N   0  0  0  0  0  0  0  0  0  0  0  0
  192.1930  174.6100  145.1110 C   0  0  0  0  0  2  0  0  0  0  0  0
  192.0200  175.8830  145.9110 C   0  0  1  0  0  3  0  0  0  0  0  0
  193.0330  176.7730  145.2130 C   0  0  2  0  0  3  0  0  0  0  0  0
  194.8540  175.8040  146.4850 C   0  0  0  0  0  3  0  0  0  0  0  0
  194.7230  174.5220  145.6690 C   0  0  0  0  0  2  0  0  0  0  0  0
  194.0740  176.8830  146.2710 C   0  0  0  0  0  3  0  0  0  0  0  0
  193.3450  173.8250  145.7670 C   0  0  0  0  0  2  0  0  0  0  0  0
  191.6090  177.2510  145.3860 C   0  0  1  0  0  3  0  0  0  0  0  0
  189.0180  174.5220  142.1190 C   0  0  2  0  0  3  0  0  0  0  0  0
  188.7220  172.0860  142.8130 C   0  0  0  0  0  1  0  0  0  0  0  0
  188.2190  173.2230  141.9380 C   0  0  0  0  0  3  0  0  0  0  0  0
  188.2010  172.7920  140.4850 C   0  0  0  0  0  1  0  0  0  0  0  0
  190.4340  174.3190  142.6660 C   0  0  0  0  0  2  0  0  0  0  0  0
  191.4820  174.6800  141.6290 C   0  0  0  0  0  2  0  0  0  0  0  0
  192.6210  173.6730  141.6620 C   0  0  0  0  0  2  0  0  0  0  0  0
  192.0850  172.2760  141.9160 C   0  0  0  0  0  2  0  0  0  0  0  0
  191.3780  170.2120  140.8610 N   0  0  0  0  0  1  0  0  0  0  0  0
  191.7550  171.5890  140.6040 C   0  0  0  0  0  2  0  0  0  0  0  0
  1 14  1  0  0  0  0
  2  5  1  1  0  0  0
  2  9  1  0  0  0  0
  3  5  1  1  0  0  0
  3  6  1  0  0  0  0
  4 17  1  6  0  0  0
  4  2  1  0  0  0  0
  6 10  2  0  0  0  0
  7 16  1  6  0  0  0
  7 11  1  0  0  0  0
  7 13  1  0  0  0  0
  8 11  1  0  0  0  0
  8 15  1  0  0  0  0
  9 12  2  0  0  0  0
  9 10  1  0  0  0  0
 11 16  1  6  0  0  0
 13 28  1  6  0  0  0
 13  4  1  0  0  0  0
 14  3  1  0  0  0  0
 15  1  1  0  0  0  0
 18 19  1  0  0  0  0
 19 17  1  0  0  0  0
 20 26  1  0  0  0  0
 21 20  1  6  0  0  0
 22 27  1  0  0  0  0
 22 21  1  0  0  0  0
 22 25  1  1  0  0  0
 24 26  1  0  0  0  0
 24 23  1  0  0  0  0
 25 23  2  0  0  0  0
 27 19  1  6  0  0  0
 27 21  1  0  0  0  0
 28 32  1  1  0  0  0
 30 28  1  0  0  0  0
 30 29  1  0  0  0  0
 31 30  1  0  0  0  0
 33 34  1  0  0  0  0
 33 32  1  0  0  0  0
 34 35  1  0  0  0  0
 37 36  1  0  0  0  0
 37 35  1  0  0  0  0
M  END
>  <MODEL>
6

>  <REMARK>
 VINA RESULT:      -6.1      1.754      6.209
  Name = 
  10 active torsions:
  status: ('A' for Active; 'I' for Inactive)
    1  A    between atoms: C_1  and  C_5
    2  A    between atoms: C_1  and  C_23
    3  A    between atoms: C_5  and  C_17
    4  A    between atoms: C_10  and  C_14
    5  A    between atoms: C_14  and  N_31
    6  A    between atoms: C_17  and  C_26
    7  A    between atoms: C_26  and  C_33
    8  A    between atoms: C_27  and  C_33
    9  A    between atoms: C_29  and  C_33
   10  A    between atoms: N_31  and  C_37
                            x       y       z     vdW  Elec       q    Type
                         _______ _______ _______ _____ _____    ______ ____

>  <TORSDO>
F 10

$$$$
=
 OpenBabel11052420023D

 37 41  0  0  1  0  0  0  0  0999 V2000
  191.8170  172.3490  138.6480 C   0  0  0  0  0  2  0  0  0  0  0  0
  191.0760  171.9920  142.9710 C   0  0  2  0  0  3  0  0  0  0  0  0
  190.3060  172.6070  140.6580 C   0  0  2  0  0  3  0  0  0  0  0  0
  191.9800  173.1890  143.3270 C   0  0  1  0  0  3  0  0  0  0  0  0
  191.1250  171.6110  141.4830 C   0  0  0  0  0  2  0  0  0  0  0  0
  188.8830  172.6580  141.1410 C   0  0  0  0  0  3  0  0  0  0  0  0
  194.0560  173.6080  141.8380 C   0  0  1  0  0  3  0  0  0  0  0  0
  193.9510  173.4570  139.3600 C   0  0  0  0  0  2  0  0  0  0  0  0
  189.6500  172.1940  143.4210 C   0  0  0  0  0  0  0  0  0  0  0  0
  188.5920  172.4980  142.4370 C   0  0  0  0  0  3  0  0  0  0  0  0
  194.0350  172.6610  140.6530 C   0  0  1  0  0  3  0  0  0  0  0  0
  189.3340  172.0650  144.7020 C   0  0  0  0  0  2  0  0  0  0  0  0
  193.4700  172.8800  143.0530 C   0  0  1  0  0  3  0  0  0  0  0  0
  190.3780  172.3310  139.1600 C   0  0  0  0  0  2  0  0  0  0  0  0
  192.4980  173.6780  138.9550 C   0  0  0  0  0  2  0  0  0  0  0  0
  195.3380  172.9460  141.3630 C   0  0  0  0  0  2  0  0  0  0  0  0
  191.4780  174.5190  142.7460 C   0  0  0  0  0  2  0  0  0  0  0  0
  191.8620  176.5680  143.7730 C   0  0  0  0  0  1  0  0  0  0  0  0
  191.0060  175.3950  143.8060 N   0  0  0  0  0  0  0  0  0  0  0  0
  189.0040  175.4480  146.0390 C   0  0  0  0  0  2  0  0  0  0  0  0
  188.6850  175.5890  144.5680 C   0  0  1  0  0  3  0  0  0  0  0  0
  189.2310  176.9830  144.3120 C   0  0  2  0  0  3  0  0  0  0  0  0
  187.2230  178.0020  145.2080 C   0  0  0  0  0  3  0  0  0  0  0  0
  187.6540  177.5850  146.6110 C   0  0  0  0  0  2  0  0  0  0  0  0
  187.9660  177.7410  144.1130 C   0  0  0  0  0  3  0  0  0  0  0  0
  187.8220  176.0600  146.8140 C   0  0  0  0  0  2  0  0  0  0  0  0
  189.6670  175.8340  143.4320 C   0  0  1  0  0  3  0  0  0  0  0  0
  194.3660  173.0090  144.2920 C   0  0  2  0  0  3  0  0  0  0  0  0
  196.2530  171.4610  145.0280 C   0  0  0  0  0  1  0  0  0  0  0  0
  194.7520  171.6400  144.8670 C   0  0  0  0  0  3  0  0  0  0  0  0
  194.1820  170.5140  144.0270 C   0  0  0  0  0  1  0  0  0  0  0  0
  193.8310  174.0010  145.3290 C   0  0  0  0  0  2  0  0  0  0  0  0
  194.9080  174.9780  145.7650 C   0  0  0  0  0  2  0  0  0  0  0  0
  195.9630  175.1140  144.6790 C   0  0  0  0  0  2  0  0  0  0  0  0
  195.6800  176.3300  143.8160 C   0  0  0  0  0  2  0  0  0  0  0  0
  197.7110  175.6590  142.6760 N   0  0  0  0  0  1  0  0  0  0  0  0
  196.9510  176.8060  143.1390 C   0  0  0  0  0  2  0  0  0  0  0  0
  1 15  1  0  0  0  0
  1 14  1  0  0  0  0
  2  5  1  6  0  0  0
  2  4  1  0  0  0  0
  2  9  1  0  0  0  0
  3 14  1  6  0  0  0
  3  6  1  0  0  0  0
  3  5  1  0  0  0  0
  4 17  1  6  0  0  0
  6 10  2  0  0  0  0
  7 16  1  1  0  0  0
  7 13  1  0  0  0  0
  9 12  2  0  0  0  0
 10  9  1  0  0  0  0
 11  8  1  6  0  0  0
 11 16  1  0  0  0  0
 11  7  1  0  0  0  0
 13  4  1  0  0  0  0
 13 28  1  1  0  0  0
 15  8  1  0  0  0  0
 17 19  1  0  0  0  0
 18 19  1  0  0  0  0
 20 26  1  0  0  0  0
 21 20  1  1  0  0  0
 22 25  1  6  0  0  0
 22 21  1  0  0  0  0
 23 24  1  0  0  0  0
 24 26  1  0  0  0  0
 25 23  2  0  0  0  0
 27 19  1  1  0  0  0
 27 22  1  0  0  0  0
 27 21  1  0  0  0  0
 28 30  1  0  0  0  0
 28 32  1  1  0  0  0
 30 29  1  0  0  0  0
 31 30  1  0  0  0  0
 32 33  1  0  0  0  0
 34 33  1  0  0  0  0
 35 34  1  0  0  0  0
 36 37  1  0  0  0  0
 37 35  1  0  0  0  0
M  END
>  <MODEL>
7

>  <REMARK>
 VINA RESULT:      -5.6      2.319      5.599
  Name = 
  10 active torsions:
  status: ('A' for Active; 'I' for Inactive)
    1  A    between atoms: C_1  and  C_5
    2  A    between atoms: C_1  and  C_23
    3  A    between atoms: C_5  and  C_17
    4  A    between atoms: C_10  and  C_14
    5  A    between atoms: C_14  and  N_31
    6  A    between atoms: C_17  and  C_26
    7  A    between atoms: C_26  and  C_33
    8  A    between atoms: C_27  and  C_33
    9  A    between atoms: C_29  and  C_33
   10  A    between atoms: N_31  and  C_37
                            x       y       z     vdW  Elec       q    Type
                         _______ _______ _______ _____ _____    ______ ____

>  <TORSDO>
F 10

$$$$
=
 OpenBabel11052420023D

 37 41  0  0  1  0  0  0  0  0999 V2000
  196.5940  172.7200  145.3530 C   0  0  0  0  0  2  0  0  0  0  0  0
  193.8070  175.6340  143.5900 C   0  0  2  0  0  3  0  0  0  0  0  0
  194.9650  174.6400  145.5880 C   0  0  2  0  0  3  0  0  0  0  0  0
  192.7250  174.5750  143.2970 C   0  0  1  0  0  3  0  0  0  0  0  0
  195.1210  175.0370  144.1170 C   0  0  0  0  0  2  0  0  0  0  0  0
  194.5540  175.8230  146.4190 C   0  0  0  0  0  3  0  0  0  0  0  0
  193.5210  172.1850  142.6990 C   0  0  1  0  0  3  0  0  0  0  0  0
  195.3580  171.0600  143.9370 C   0  0  0  0  0  2  0  0  0  0  0  0
  193.3110  176.7230  144.5100 C   0  0  0  0  0  0  0  0  0  0  0  0
  193.7550  176.7710  145.9170 C   0  0  0  0  0  3  0  0  0  0  0  0
  195.0260  172.0890  142.8670 C   0  0  1  0  0  3  0  0  0  0  0  0
  192.5000  177.6640  144.0480 C   0  0  0  0  0  2  0  0  0  0  0  0
  193.1770  173.5900  142.1930 C   0  0  1  0  0  3  0  0  0  0  0  0
  196.2120  173.9660  146.1510 C   0  0  0  0  0  2  0  0  0  0  0  0
  195.4470  171.7170  145.3090 C   0  0  0  0  0  2  0  0  0  0  0  0
  194.3590  171.4230  141.6860 C   0  0  0  0  0  2  0  0  0  0  0  0
  192.1690  173.9130  144.5650 C   0  0  0  0  0  2  0  0  0  0  0  0
  190.1830  172.7500  144.8890 C   0  0  0  0  0  1  0  0  0  0  0  0
  190.7260  174.0740  144.6360 N   0  0  0  0  0  0  0  0  0  0  0  0
  188.9720  176.4610  144.1640 C   0  0  0  0  0  2  0  0  0  0  0  0
  189.7620  176.1850  145.4240 C   0  0  1  0  0  3  0  0  0  0  0  0
  188.9510  175.0360  145.9980 C   0  0  2  0  0  3  0  0  0  0  0  0
  187.3230  176.5700  146.9310 C   0  0  0  0  0  3  0  0  0  0  0  0
  186.8010  176.8490  145.5260 C   0  0  0  0  0  2  0  0  0  0  0  0
  188.3270  175.7020  147.1730 C   0  0  0  0  0  3  0  0  0  0  0  0
  187.8460  177.4400  144.5490 C   0  0  0  0  0  2  0  0  0  0  0  0
  190.4440  174.8820  145.8160 C   0  0  1  0  0  3  0  0  0  0  0  0
  192.2410  173.5540  140.9780 C   0  0  2  0  0  3  0  0  0  0  0  0
  193.0810  173.1470  138.6050 C   0  0  0  0  0  1  0  0  0  0  0  0
  192.8980  174.1560  139.7280 C   0  0  0  0  0  3  0  0  0  0  0  0
  194.2280  174.8010  140.0670 C   0  0  0  0  0  1  0  0  0  0  0  0
  190.8380  174.0930  141.2740 C   0  0  0  0  0  2  0  0  0  0  0  0
  189.7960  172.9910  141.1960 C   0  0  0  0  0  2  0  0  0  0  0  0
  190.4350  171.6980  140.7170 C   0  0  0  0  0  2  0  0  0  0  0  0
  190.4300  170.6630  141.8280 C   0  0  0  0  0  2  0  0  0  0  0  0
  191.7130  168.6860  142.3930 N   0  0  0  0  0  1  0  0  0  0  0  0
  190.9840  169.3440  141.3240 C   0  0  0  0  0  2  0  0  0  0  0  0
  1 14  1  0  0  0  0
  2  5  1  1  0  0  0
  2  9  1  0  0  0  0
  3  5  1  6  0  0  0
  3 14  1  0  0  0  0
  3  6  1  0  0  0  0
  4  2  1  0  0  0  0
  4 17  1  1  0  0  0
  7 16  1  6  0  0  0
  7 11  1  0  0  0  0
  8 15  1  0  0  0  0
  9 10  1  0  0  0  0
 10  6  2  0  0  0  0
 11 16  1  6  0  0  0
 11  8  1  0  0  0  0
 12  9  2  0  0  0  0
 13 28  1  6  0  0  0
 13  7  1  0  0  0  0
 13  4  1  0  0  0  0
 15  1  1  0  0  0  0
 17 19  1  0  0  0  0
 19 18  1  0  0  0  0
 20 26  1  0  0  0  0
 21 20  1  6  0  0  0
 21 27  1  0  0  0  0
 21 22  1  0  0  0  0
 22 25  1  1  0  0  0
 23 25  2  0  0  0  0
 24 23  1  0  0  0  0
 26 24  1  0  0  0  0
 27 19  1  6  0  0  0
 27 22  1  0  0  0  0
 28 32  1  1  0  0  0
 29 30  1  0  0  0  0
 30 31  1  0  0  0  0
 30 28  1  0  0  0  0
 33 32  1  0  0  0  0
 34 33  1  0  0  0  0
 34 35  1  0  0  0  0
 37 35  1  0  0  0  0
 37 36  1  0  0  0  0
M  END
>  <MODEL>
8

>  <REMARK>
 VINA RESULT:      -5.6      2.002      3.280
  Name = 
  10 active torsions:
  status: ('A' for Active; 'I' for Inactive)
    1  A    between atoms: C_1  and  C_5
    2  A    between atoms: C_1  and  C_23
    3  A    between atoms: C_5  and  C_17
    4  A    between atoms: C_10  and  C_14
    5  A    between atoms: C_14  and  N_31
    6  A    between atoms: C_17  and  C_26
    7  A    between atoms: C_26  and  C_33
    8  A    between atoms: C_27  and  C_33
    9  A    between atoms: C_29  and  C_33
   10  A    between atoms: N_31  and  C_37
                            x       y       z     vdW  Elec       q    Type
                         _______ _______ _______ _____ _____    ______ ____

>  <TORSDO>
F 10

$$$$
=
 OpenBabel11052420023D

 37 41  0  0  1  0  0  0  0  0999 V2000
  196.3270  172.8370  145.3470 C   0  0  0  0  0  2  0  0  0  0  0  0
  193.4680  175.6110  143.4780 C   0  0  2  0  0  3  0  0  0  0  0  0
  194.7210  174.7840  145.4950 C   0  0  2  0  0  3  0  0  0  0  0  0
  192.3680  174.5410  143.3340 C   0  0  1  0  0  3  0  0  0  0  0  0
  194.8040  175.0500  143.9890 C   0  0  0  0  0  2  0  0  0  0  0  0
  194.3590  176.0380  146.2390 C   0  0  0  0  0  3  0  0  0  0  0  0
  193.1220  172.1000  142.9070 C   0  0  1  0  0  3  0  0  0  0  0  0
  195.0150  171.0710  144.1440 C   0  0  0  0  0  2  0  0  0  0  0  0
  193.0240  176.7810  144.3240 C   0  0  0  0  0  0  0  0  0  0  0  0
  193.5390  176.9460  145.6980 C   0  0  0  0  0  3  0  0  0  0  0  0
  194.6320  172.0070  143.0070 C   0  0  1  0  0  3  0  0  0  0  0  0
  192.1950  177.6850  143.8230 C   0  0  0  0  0  2  0  0  0  0  0  0
  192.7590  173.4590  142.2980 C   0  0  1  0  0  3  0  0  0  0  0  0
  195.9920  174.1500  146.0510 C   0  0  0  0  0  2  0  0  0  0  0  0
  195.1760  171.8430  145.4480 C   0  0  0  0  0  2  0  0  0  0  0  0
  193.9030  171.2460  141.9230 C   0  0  0  0  0  2  0  0  0  0  0  0
  191.8740  173.9960  144.6810 C   0  0  0  0  0  2  0  0  0  0  0  0
  189.9390  172.8380  145.2440 C   0  0  0  0  0  1  0  0  0  0  0  0
  190.4310  174.1280  144.7880 N   0  0  0  0  0  0  0  0  0  0  0  0
  188.6710  176.4360  144.0310 C   0  0  0  0  0  2  0  0  0  0  0  0
  189.4790  176.3270  145.3050 C   0  0  1  0  0  3  0  0  0  0  0  0
  188.6760  175.2650  146.0370 C   0  0  2  0  0  3  0  0  0  0  0  0
  187.0630  176.9130  146.7840 C   0  0  0  0  0  3  0  0  0  0  0  0
  186.5210  177.0060  145.3620 C   0  0  0  0  0  2  0  0  0  0  0  0
  188.0710  176.0820  147.1240 C   0  0  0  0  0  3  0  0  0  0  0  0
  187.5510  177.4600  144.3000 C   0  0  0  0  0  2  0  0  0  0  0  0
  190.1660  175.0850  145.8550 C   0  0  1  0  0  3  0  0  0  0  0  0
  191.7620  173.3270  141.1390 C   0  0  2  0  0  3  0  0  0  0  0  0
  192.3530  172.7280  138.7320 C   0  0  0  0  0  1  0  0  0  0  0  0
  192.3620  173.8020  139.8090 C   0  0  0  0  0  3  0  0  0  0  0  0
  193.7690  174.3310  140.0020 C   0  0  0  0  0  1  0  0  0  0  0  0
  190.3820  173.9110  141.4530 C   0  0  0  0  0  2  0  0  0  0  0  0
  189.3430  172.8160  141.6160 C   0  0  0  0  0  2  0  0  0  0  0  0
  188.1820  173.0470  140.6630 C   0  0  0  0  0  2  0  0  0  0  0  0
  188.5770  174.0330  139.5780 C   0  0  0  0  0  2  0  0  0  0  0  0
  189.3450  174.1460  137.2830 N   0  0  0  0  0  1  0  0  0  0  0  0
  188.5700  173.3560  138.2210 C   0  0  0  0  0  2  0  0  0  0  0  0
  1 15  1  0  0  0  0
  1 14  1  0  0  0  0
  2  5  1  1  0  0  0
  2  9  1  0  0  0  0
  3  5  1  6  0  0  0
  3 14  1  0  0  0  0
  3  6  1  0  0  0  0
  4  2  1  0  0  0  0
  4 17  1  1  0  0  0
  7 16  1  6  0  0  0
  7 11  1  0  0  0  0
  8 15  1  0  0  0  0
  9 10  1  0  0  0  0
 10  6  2  0  0  0  0
 11 16  1  6  0  0  0
 11  8  1  0  0  0  0
 12  9  2  0  0  0  0
 13 28  1  6  0  0  0
 13  7  1  0  0  0  0
 13  4  1  0  0  0  0
 17 19  1  0  0  0  0
 19 18  1  0  0  0  0
 20 26  1  0  0  0  0
 21 20  1  6  0  0  0
 21 27  1  0  0  0  0
 21 22  1  0  0  0  0
 22 25  1  1  0  0  0
 23 25  2  0  0  0  0
 24 23  1  0  0  0  0
 26 24  1  0  0  0  0
 27 19  1  6  0  0  0
 27 22  1  0  0  0  0
 28 32  1  1  0  0  0
 29 30  1  0  0  0  0
 30 31  1  0  0  0  0
 30 28  1  0  0  0  0
 32 33  1  0  0  0  0
 34 33  1  0  0  0  0
 35 34  1  0  0  0  0
 36 37  1  0  0  0  0
 37 35  1  0  0  0  0
M  END
>  <MODEL>
9

>  <REMARK>
 VINA RESULT:      -5.6      1.566      2.546
  Name = 
  10 active torsions:
  status: ('A' for Active; 'I' for Inactive)
    1  A    between atoms: C_1  and  C_5
    2  A    between atoms: C_1  and  C_23
    3  A    between atoms: C_5  and  C_17
    4  A    between atoms: C_10  and  C_14
    5  A    between atoms: C_14  and  N_31
    6  A    between atoms: C_17  and  C_26
    7  A    between atoms: C_26  and  C_33
    8  A    between atoms: C_27  and  C_33
    9  A    between atoms: C_29  and  C_33
   10  A    between atoms: N_31  and  C_37
                            x       y       z     vdW  Elec       q    Type
                         _______ _______ _______ _____ _____    ______ ____

>  <TORSDO>
F 10

$$$$
