=
 OpenBabel11052420033D

 37 40  0  0  1  0  0  0  0  0999 V2000
  190.0430  176.7930  144.2360 O   0  0  0  0  0  0  0  0  0  0  0  0
  190.3170  175.1720  147.5800 C   0  0  0  0  0  2  0  0  0  0  0  0
  189.9610  174.0650  141.6530 C   0  0  0  0  0  3  0  0  0  0  0  0
  189.1450  176.1810  145.1330 C   0  0  2  0  0  3  0  0  0  0  0  0
  189.8560  174.7460  142.8770 C   0  0  0  0  0  0  0  0  0  0  0  0
  189.0080  176.9870  146.4240 C   0  0  2  0  0  3  0  0  0  0  0  0
  191.0250  176.7850  142.0940 C   0  0  0  0  0  1  0  0  0  0  0  0
  189.6810  174.0010  144.0620 C   0  0  0  0  0  0  0  0  0  0  0  0
  189.7720  171.9410  142.7950 C   0  0  0  0  0  3  0  0  0  0  0  0
  189.8540  176.2780  142.9220 C   0  0  2  0  0  0  0  0  0  0  0  0
  189.6450  172.6050  144.0160 C   0  0  0  0  0  3  0  0  0  0  0  0
  190.1390  176.6840  147.4040 C   0  0  0  0  0  2  0  0  0  0  0  0
  189.5220  174.7090  145.3750 C   0  0  1  0  0  3  0  0  0  0  0  0
  189.9300  172.6680  141.6060 C   0  0  0  0  0  0  0  0  0  0  0  0
  190.6580  174.5140  146.3080 N   0  0  0  0  0  0  0  0  0  0  0  0
  190.0530  172.0320  140.3670 O   0  0  0  0  0  0  0  0  0  0  0  0
  190.6250  172.6680  139.2320 C   0  0  0  0  0  1  0  0  0  0  0  0
  188.5770  177.9940  141.8030 C   0  0  0  0  0  2  0  0  0  0  0  0
  188.6450  176.8190  142.3210 N   0  0  0  0  0  0  0  0  0  0  0  0
  191.9650  174.9800  145.7780 C   0  0  2  0  0  3  0  0  0  0  0  0
  192.5000  174.0240  144.9030 O   0  0  0  0  0  0  0  0  0  0  0  0
  194.3030  172.4790  144.7880 C   0  0  0  0  0  1  0  0  0  0  0  0
  193.3370  173.2240  145.6850 C   0  0  0  0  0  2  0  0  0  0  0  0
  192.9860  175.2530  146.8980 C   0  0  0  0  0  2  0  0  0  0  0  0
  193.6830  176.5950  146.7080 C   0  0  0  0  0  2  0  0  0  0  0  0
  193.7510  176.9490  145.2340 C   0  0  0  0  0  2  0  0  0  0  0  0
  194.8740  176.0170  143.2350 C   0  0  0  0  0  1  0  0  0  0  0  0
  195.0820  176.5180  144.6480 C   0  0  0  0  0  2  0  0  0  0  0  0
  187.6460  176.7310  147.0560 C   0  0  0  0  0  2  0  0  0  0  0  0
  186.9540  178.0380  147.4230 C   0  0  0  0  0  2  0  0  0  0  0  0
  184.5950  178.4210  146.6670 C   0  0  0  0  0  3  0  0  0  0  0  0
  185.9640  178.4310  146.3770 C   0  0  0  0  0  0  0  0  0  0  0  0
  186.4040  178.7800  145.0950 C   0  0  0  0  0  3  0  0  0  0  0  0
  185.9030  179.4640  142.8680 F   0  0  0  0  0  0  0  0  0  0  0  0
  184.1090  179.1190  144.3980 C   0  0  0  0  0  3  0  0  0  0  0  0
  185.4770  179.1250  144.1070 C   0  0  0  0  0  0  0  0  0  0  0  0
  183.6690  178.7660  145.6790 C   0  0  0  0  0  3  0  0  0  0  0  0
  3  5  1  0  0  0  0
  4  1  1  6  0  0  0
  4 13  1  0  0  0  0
  4  6  1  0  0  0  0
  5 10  1  0  0  0  0
  5  8  2  0  0  0  0
  6 29  1  1  0  0  0
  6 12  1  0  0  0  0
  9 11  2  0  0  0  0
 10  7  1  6  0  0  0
 10  1  1  0  0  0  0
 11  8  1  0  0  0  0
 12  2  1  0  0  0  0
 13  8  1  6  0  0  0
 13 15  1  0  0  0  0
 14  3  2  0  0  0  0
 14  9  1  0  0  0  0
 15  2  1  0  0  0  0
 16 14  1  0  0  0  0
 17 16  1  0  0  0  0
 18 19  2  0  0  0  0
 19 10  1  0  0  0  0
 20 15  1  0  0  0  0
 20 24  1  1  0  0  0
 21 23  1  0  0  0  0
 21 20  1  0  0  0  0
 22 23  1  0  0  0  0
 25 24  1  0  0  0  0
 26 25  1  0  0  0  0
 27 28  1  0  0  0  0
 28 26  1  0  0  0  0
 29 30  1  0  0  0  0
 32 31  1  0  0  0  0
 32 30  1  0  0  0  0
 33 32  2  0  0  0  0
 34 36  1  0  0  0  0
 35 37  1  0  0  0  0
 36 35  2  0  0  0  0
 36 33  1  0  0  0  0
 37 31  2  0  0  0  0
M  END
>  <MODEL>
1

>  <REMARK>
 VINA RESULT:      -6.6      0.000      0.000
  Name = 
  12 active torsions:
  status: ('A' for Active; 'I' for Inactive)
    1  A    between atoms: C_1  and  O_5
    2  A    between atoms: C_1  and  C_33
    3  A    between atoms: C_1  and  N_36
    4  A    between atoms: O_3  and  C_32
    5  A    between atoms: O_5  and  C_23
    6  A    between atoms: C_6  and  C_31
    7  A    between atoms: C_14  and  C_37
    8  A    between atoms: C_17  and  C_26
    9  A    between atoms: C_17  and  C_33
   10  A    between atoms: C_24  and  N_28
   11  A    between atoms: C_26  and  C_34
   12  A    between atoms: C_31  and  C_37
                            x       y       z     vdW  Elec       q    Type
                         _______ _______ _______ _____ _____    ______ ____

>  <TORSDO>
F 12

$$$$
=
 OpenBabel11052420033D

 37 40  0  0  1  0  0  0  0  0999 V2000
  189.1550  175.2750  144.5700 O   0  0  0  0  0  0  0  0  0  0  0  0
  188.7150  174.1130  141.0580 C   0  0  0  0  0  2  0  0  0  0  0  0
  192.7750  176.1720  145.0270 C   0  0  0  0  0  3  0  0  0  0  0  0
  189.0000  175.8990  143.3170 C   0  0  2  0  0  3  0  0  0  0  0  0
  191.5330  175.9040  144.4290 C   0  0  0  0  0  0  0  0  0  0  0  0
  187.6130  175.6390  142.7310 C   0  0  2  0  0  3  0  0  0  0  0  0
  190.5100  174.9440  146.4690 C   0  0  0  0  0  1  0  0  0  0  0  0
  191.4660  175.7580  143.0270 C   0  0  0  0  0  0  0  0  0  0  0  0
  193.8580  176.0960  142.8650 C   0  0  0  0  0  3  0  0  0  0  0  0
  190.2550  175.8460  145.2720 C   0  0  2  0  0  0  0  0  0  0  0  0
  192.6260  175.8500  142.2540 C   0  0  0  0  0  3  0  0  0  0  0  0
  187.5410  174.2860  142.0260 C   0  0  0  0  0  2  0  0  0  0  0  0
  190.1430  175.5160  142.3620 C   0  0  1  0  0  3  0  0  0  0  0  0
  193.9380  176.2600  144.2560 C   0  0  0  0  0  0  0  0  0  0  0  0
  190.0100  174.1680  141.7580 N   0  0  0  0  0  0  0  0  0  0  0  0
  195.1550  176.5140  144.8950 O   0  0  0  0  0  0  0  0  0  0  0  0
  196.3050  175.7010  144.7060 C   0  0  0  0  0  1  0  0  0  0  0  0
  189.8450  177.4230  147.0540 C   0  0  0  0  0  2  0  0  0  0  0  0
  189.9120  177.1580  145.7970 N   0  0  0  0  0  0  0  0  0  0  0  0
  190.1610  173.0520  142.7260 C   0  0  2  0  0  3  0  0  0  0  0  0
  191.5190  172.8200  142.9870 O   0  0  0  0  0  0  0  0  0  0  0  0
  192.9770  172.4080  144.8190 C   0  0  0  0  0  1  0  0  0  0  0  0
  191.5680  172.2850  144.2770 C   0  0  0  0  0  2  0  0  0  0  0  0
  189.5250  171.7450  142.2170 C   0  0  0  0  0  2  0  0  0  0  0  0
  190.4260  171.0360  141.2120 C   0  0  0  0  0  2  0  0  0  0  0  0
  190.7920  169.6520  141.7180 C   0  0  0  0  0  2  0  0  0  0  0  0
  193.1550  169.4120  142.4120 C   0  0  0  0  0  1  0  0  0  0  0  0
  192.1860  169.2740  141.2570 C   0  0  0  0  0  2  0  0  0  0  0  0
  187.2230  176.7730  141.7910 C   0  0  0  0  0  2  0  0  0  0  0  0
  187.4200  178.1310  142.4530 C   0  0  0  0  0  2  0  0  0  0  0  0
  185.0100  178.5530  142.9980 C   0  0  0  0  0  3  0  0  0  0  0  0
  186.3310  178.4090  143.4360 C   0  0  0  0  0  0  0  0  0  0  0  0
  186.6380  178.5570  144.7940 C   0  0  0  0  0  3  0  0  0  0  0  0
  185.9190  178.9830  147.0250 F   0  0  0  0  0  0  0  0  0  0  0  0
  184.3020  178.9810  145.2750 C   0  0  0  0  0  3  0  0  0  0  0  0
  185.6230  178.8420  145.7120 C   0  0  0  0  0  0  0  0  0  0  0  0
  183.9960  178.8380  143.9170 C   0  0  0  0  0  3  0  0  0  0  0  0
  1 10  1  0  0  0  0
  2 15  1  0  0  0  0
  2 12  1  0  0  0  0
  4  1  1  1  0  0  0
  5  3  1  0  0  0  0
  5 10  1  0  0  0  0
  6 29  1  6  0  0  0
  6  4  1  0  0  0  0
  8  5  2  0  0  0  0
  9 14  1  0  0  0  0
 10 19  1  0  0  0  0
 10  7  1  1  0  0  0
 11  9  2  0  0  0  0
 11  8  1  0  0  0  0
 12  6  1  0  0  0  0
 13  8  1  1  0  0  0
 13  4  1  0  0  0  0
 14 16  1  0  0  0  0
 14  3  2  0  0  0  0
 15 13  1  0  0  0  0
 15 20  1  0  0  0  0
 17 16  1  0  0  0  0
 19 18  2  0  0  0  0
 20 24  1  6  0  0  0
 20 21  1  0  0  0  0
 21 23  1  0  0  0  0
 23 22  1  0  0  0  0
 25 26  1  0  0  0  0
 25 24  1  0  0  0  0
 28 26  1  0  0  0  0
 28 27  1  0  0  0  0
 29 30  1  0  0  0  0
 30 32  1  0  0  0  0
 31 32  2  0  0  0  0
 31 37  1  0  0  0  0
 32 33  1  0  0  0  0
 33 36  2  0  0  0  0
 35 36  1  0  0  0  0
 36 34  1  0  0  0  0
 37 35  2  0  0  0  0
M  END
>  <MODEL>
2

>  <REMARK>
 VINA RESULT:      -6.4      2.017      5.000
  Name = 
  12 active torsions:
  status: ('A' for Active; 'I' for Inactive)
    1  A    between atoms: C_1  and  O_5
    2  A    between atoms: C_1  and  C_33
    3  A    between atoms: C_1  and  N_36
    4  A    between atoms: O_3  and  C_32
    5  A    between atoms: O_5  and  C_23
    6  A    between atoms: C_6  and  C_31
    7  A    between atoms: C_14  and  C_37
    8  A    between atoms: C_17  and  C_26
    9  A    between atoms: C_17  and  C_33
   10  A    between atoms: C_24  and  N_28
   11  A    between atoms: C_26  and  C_34
   12  A    between atoms: C_31  and  C_37
                            x       y       z     vdW  Elec       q    Type
                         _______ _______ _______ _____ _____    ______ ____

>  <TORSDO>
F 12

$$$$
=
 OpenBabel11052420033D

 37 40  0  0  1  0  0  0  0  0999 V2000
  189.5180  174.6940  140.9040 O   0  0  0  0  0  0  0  0  0  0  0  0
  189.3940  176.6700  144.0610 C   0  0  0  0  0  2  0  0  0  0  0  0
  191.1220  171.3880  141.6930 C   0  0  0  0  0  3  0  0  0  0  0  0
  188.6790  174.7310  142.0350 C   0  0  2  0  0  3  0  0  0  0  0  0
  190.4470  172.6120  141.8390 C   0  0  0  0  0  0  0  0  0  0  0  0
  187.9140  176.0500  142.1200 C   0  0  2  0  0  3  0  0  0  0  0  0
  190.9990  173.4370  139.5700 C   0  0  0  0  0  1  0  0  0  0  0  0
  190.2190  173.1180  143.1360 C   0  0  0  0  0  0  0  0  0  0  0  0
  191.3750  171.2190  144.0930 C   0  0  0  0  0  3  0  0  0  0  0  0
  189.8970  173.3520  140.6150 C   0  0  2  0  0  0  0  0  0  0  0  0
  190.6870  172.4230  144.2540 C   0  0  0  0  0  3  0  0  0  0  0  0
  188.7570  177.1540  142.7550 C   0  0  0  0  0  2  0  0  0  0  0  0
  189.4620  174.4000  143.3170 C   0  0  1  0  0  3  0  0  0  0  0  0
  191.5940  170.6940  142.8100 C   0  0  0  0  0  0  0  0  0  0  0  0
  190.2860  175.5190  143.8360 N   0  0  0  0  0  0  0  0  0  0  0  0
  192.2730  169.4880  142.6180 O   0  0  0  0  0  0  0  0  0  0  0  0
  192.0830  168.6750  141.4670 C   0  0  0  0  0  1  0  0  0  0  0  0
  188.2450  172.9620  138.8990 C   0  0  0  0  0  2  0  0  0  0  0  0
  188.7960  172.6200  140.0100 N   0  0  0  0  0  0  0  0  0  0  0  0
  191.4390  175.8750  142.9720 C   0  0  2  0  0  3  0  0  0  0  0  0
  192.3660  174.8240  142.9450 O   0  0  0  0  0  0  0  0  0  0  0  0
  194.0560  173.8680  141.5730 C   0  0  0  0  0  1  0  0  0  0  0  0
  193.2010  175.0860  141.8560 C   0  0  0  0  0  2  0  0  0  0  0  0
  192.1550  177.1530  143.4470 C   0  0  0  0  0  2  0  0  0  0  0  0
  192.5590  177.0580  144.9140 C   0  0  0  0  0  2  0  0  0  0  0  0
  194.0460  176.7790  145.0330 C   0  0  0  0  0  2  0  0  0  0  0  0
  193.0140  174.9920  146.4000 C   0  0  0  0  0  1  0  0  0  0  0  0
  194.3020  175.7280  146.0970 C   0  0  0  0  0  2  0  0  0  0  0  0
  186.6070  175.8470  142.8780 C   0  0  0  0  0  2  0  0  0  0  0  0
  185.7620  177.1150  142.8690 C   0  0  0  0  0  2  0  0  0  0  0  0
  184.3790  178.4850  144.4470 C   0  0  0  0  0  3  0  0  0  0  0  0
  185.3370  177.4840  144.2510 C   0  0  0  0  0  0  0  0  0  0  0  0
  185.9190  176.8490  145.3540 C   0  0  0  0  0  3  0  0  0  0  0  0
  186.1010  176.5950  147.7160 F   0  0  0  0  0  0  0  0  0  0  0  0
  184.5790  178.2080  146.8450 C   0  0  0  0  0  3  0  0  0  0  0  0
  185.5390  177.2100  146.6490 C   0  0  0  0  0  0  0  0  0  0  0  0
  183.9990  178.8460  145.7430 C   0  0  0  0  0  3  0  0  0  0  0  0
  3  5  2  0  0  0  0
  3 14  1  0  0  0  0
  4  1  1  6  0  0  0
  4  6  1  0  0  0  0
  4 13  1  0  0  0  0
  5  8  1  0  0  0  0
  6 12  1  0  0  0  0
  6 29  1  1  0  0  0
  8 11  2  0  0  0  0
  9 11  1  0  0  0  0
 10  7  1  6  0  0  0
 10  1  1  0  0  0  0
 10  5  1  0  0  0  0
 12  2  1  0  0  0  0
 13  8  1  6  0  0  0
 13 15  1  0  0  0  0
 14  9  2  0  0  0  0
 15  2  1  0  0  0  0
 16 14  1  0  0  0  0
 17 16  1  0  0  0  0
 18 19  2  0  0  0  0
 19 10  1  0  0  0  0
 20 24  1  1  0  0  0
 20 15  1  0  0  0  0
 21 20  1  0  0  0  0
 22 23  1  0  0  0  0
 23 21  1  0  0  0  0
 24 25  1  0  0  0  0
 25 26  1  0  0  0  0
 26 28  1  0  0  0  0
 28 27  1  0  0  0  0
 30 29  1  0  0  0  0
 30 32  1  0  0  0  0
 31 37  1  0  0  0  0
 32 31  2  0  0  0  0
 32 33  1  0  0  0  0
 33 36  2  0  0  0  0
 36 35  1  0  0  0  0
 36 34  1  0  0  0  0
 37 35  2  0  0  0  0
M  END
>  <MODEL>
3

>  <REMARK>
 VINA RESULT:      -6.4      2.252      3.474
  Name = 
  12 active torsions:
  status: ('A' for Active; 'I' for Inactive)
    1  A    between atoms: C_1  and  O_5
    2  A    between atoms: C_1  and  C_33
    3  A    between atoms: C_1  and  N_36
    4  A    between atoms: O_3  and  C_32
    5  A    between atoms: O_5  and  C_23
    6  A    between atoms: C_6  and  C_31
    7  A    between atoms: C_14  and  C_37
    8  A    between atoms: C_17  and  C_26
    9  A    between atoms: C_17  and  C_33
   10  A    between atoms: C_24  and  N_28
   11  A    between atoms: C_26  and  C_34
   12  A    between atoms: C_31  and  C_37
                            x       y       z     vdW  Elec       q    Type
                         _______ _______ _______ _____ _____    ______ ____

>  <TORSDO>
F 12

$$$$
=
 OpenBabel11052420033D

 37 40  0  0  1  0  0  0  0  0999 V2000
  188.3310  176.1610  145.1240 O   0  0  0  0  0  0  0  0  0  0  0  0
  187.4180  176.0540  141.5130 C   0  0  0  0  0  2  0  0  0  0  0  0
  192.0740  175.9280  145.3590 C   0  0  0  0  0  3  0  0  0  0  0  0
  188.3020  177.0910  144.0670 C   0  0  2  0  0  3  0  0  0  0  0  0
  190.7810  176.1530  144.8600 C   0  0  0  0  0  0  0  0  0  0  0  0
  186.8730  177.3580  143.5970 C   0  0  2  0  0  3  0  0  0  0  0  0
  189.6230  175.0270  146.7370 C   0  0  0  0  0  1  0  0  0  0  0  0
  190.6110  176.3780  143.4770 C   0  0  0  0  0  0  0  0  0  0  0  0
  192.9900  176.1000  143.1260 C   0  0  0  0  0  3  0  0  0  0  0  0
  189.5790  176.2300  145.8070 C   0  0  2  0  0  0  0  0  0  0  0  0
  191.7130  176.3460  142.6180 C   0  0  0  0  0  3  0  0  0  0  0  0
  186.3870  176.2880  142.6220 C   0  0  0  0  0  2  0  0  0  0  0  0
  189.2450  176.6650  142.9280 C   0  0  1  0  0  3  0  0  0  0  0  0
  193.1770  175.8910  144.5010 C   0  0  0  0  0  0  0  0  0  0  0  0
  188.7060  175.5910  142.0580 N   0  0  0  0  0  0  0  0  0  0  0  0
  194.4440  175.6490  145.0400 O   0  0  0  0  0  0  0  0  0  0  0  0
  195.5220  176.5660  144.9070 C   0  0  0  0  0  1  0  0  0  0  0  0
  190.1620  177.4210  147.8240 C   0  0  0  0  0  2  0  0  0  0  0  0
  189.6470  177.4160  146.6460 N   0  0  0  0  0  0  0  0  0  0  0  0
  188.5790  174.2730  142.7300 C   0  0  2  0  0  3  0  0  0  0  0  0
  189.8340  173.8360  143.1790 O   0  0  0  0  0  0  0  0  0  0  0  0
  190.8950  172.0270  144.2990 C   0  0  0  0  0  1  0  0  0  0  0  0
  189.5830  172.6980  143.9500 C   0  0  0  0  0  2  0  0  0  0  0  0
  187.9840  173.1970  141.8020 C   0  0  0  0  0  2  0  0  0  0  0  0
  188.5980  173.2550  140.4080 C   0  0  0  0  0  2  0  0  0  0  0  0
  189.6680  172.1880  140.2590 C   0  0  0  0  0  2  0  0  0  0  0  0
  191.9590  173.0360  140.6580 C   0  0  0  0  0  1  0  0  0  0  0  0
  190.9060  172.7700  139.6030 C   0  0  0  0  0  2  0  0  0  0  0  0
  186.7770  178.7490  142.9830 C   0  0  0  0  0  2  0  0  0  0  0  0
  185.6400  179.5500  143.6050 C   0  0  0  0  0  2  0  0  0  0  0  0
  184.1840  178.4760  145.3390 C   0  0  0  0  0  3  0  0  0  0  0  0
  185.3850  179.1130  145.0100 C   0  0  0  0  0  0  0  0  0  0  0  0
  186.3350  179.3700  146.0050 C   0  0  0  0  0  3  0  0  0  0  0  0
  187.0080  179.2290  148.2860 F   0  0  0  0  0  0  0  0  0  0  0  0
  184.8890  178.3420  147.6530 C   0  0  0  0  0  3  0  0  0  0  0  0
  186.0870  178.9830  147.3240 C   0  0  0  0  0  0  0  0  0  0  0  0
  183.9360  178.0890  146.6590 C   0  0  0  0  0  3  0  0  0  0  0  0
  1 10  1  0  0  0  0
  2 15  1  0  0  0  0
  2 12  1  0  0  0  0
  4  1  1  1  0  0  0
  5  3  1  0  0  0  0
  5 10  1  0  0  0  0
  6 29  1  6  0  0  0
  6  4  1  0  0  0  0
  8  5  2  0  0  0  0
  9 14  1  0  0  0  0
 10 19  1  0  0  0  0
 10  7  1  1  0  0  0
 11  9  2  0  0  0  0
 11  8  1  0  0  0  0
 12  6  1  0  0  0  0
 13  8  1  1  0  0  0
 13  4  1  0  0  0  0
 14 16  1  0  0  0  0
 14  3  2  0  0  0  0
 15 20  1  0  0  0  0
 15 13  1  0  0  0  0
 17 16  1  0  0  0  0
 19 18  2  0  0  0  0
 20 24  1  6  0  0  0
 20 21  1  0  0  0  0
 21 23  1  0  0  0  0
 23 22  1  0  0  0  0
 25 24  1  0  0  0  0
 26 25  1  0  0  0  0
 28 26  1  0  0  0  0
 28 27  1  0  0  0  0
 29 30  1  0  0  0  0
 30 32  1  0  0  0  0
 31 37  1  0  0  0  0
 32 31  2  0  0  0  0
 32 33  1  0  0  0  0
 33 36  2  0  0  0  0
 36 35  1  0  0  0  0
 36 34  1  0  0  0  0
 37 35  2  0  0  0  0
M  END
>  <MODEL>
4

>  <REMARK>
 VINA RESULT:      -6.3      1.900      4.949
  Name = 
  12 active torsions:
  status: ('A' for Active; 'I' for Inactive)
    1  A    between atoms: C_1  and  O_5
    2  A    between atoms: C_1  and  C_33
    3  A    between atoms: C_1  and  N_36
    4  A    between atoms: O_3  and  C_32
    5  A    between atoms: O_5  and  C_23
    6  A    between atoms: C_6  and  C_31
    7  A    between atoms: C_14  and  C_37
    8  A    between atoms: C_17  and  C_26
    9  A    between atoms: C_17  and  C_33
   10  A    between atoms: C_24  and  N_28
   11  A    between atoms: C_26  and  C_34
   12  A    between atoms: C_31  and  C_37
                            x       y       z     vdW  Elec       q    Type
                         _______ _______ _______ _____ _____    ______ ____

>  <TORSDO>
F 12

$$$$
=
 OpenBabel11052420033D

 37 40  0  0  1  0  0  0  0  0999 V2000
  192.8160  175.4220  146.2240 O   0  0  0  0  0  0  0  0  0  0  0  0
  189.6410  174.7350  144.4000 C   0  0  0  0  0  2  0  0  0  0  0  0
  195.4750  176.1100  143.6600 C   0  0  0  0  0  3  0  0  0  0  0  0
  191.8140  176.2060  145.6200 C   0  0  2  0  0  3  0  0  0  0  0  0
  194.2210  175.9700  144.2750 C   0  0  0  0  0  0  0  0  0  0  0  0
  190.4830  176.0770  146.3580 C   0  0  2  0  0  3  0  0  0  0  0  0
  195.0880  174.7970  146.2770 C   0  0  0  0  0  1  0  0  0  0  0  0
  193.0590  176.0060  143.4760 C   0  0  0  0  0  0  0  0  0  0  0  0
  194.4180  176.2670  141.4900 C   0  0  0  0  0  3  0  0  0  0  0  0
  194.1050  175.8540  145.7990 C   0  0  2  0  0  0  0  0  0  0  0  0
  193.1630  176.1500  142.0900 C   0  0  0  0  0  3  0  0  0  0  0  0
  189.7150  174.8290  145.9280 C   0  0  0  0  0  2  0  0  0  0  0  0
  191.7060  175.9030  144.1150 C   0  0  1  0  0  3  0  0  0  0  0  0
  195.5820  176.2500  142.2730 C   0  0  0  0  0  0  0  0  0  0  0  0
  190.9810  174.6490  143.7950 N   0  0  0  0  0  0  0  0  0  0  0  0
  196.8520  176.3710  141.7030 O   0  0  0  0  0  0  0  0  0  0  0  0
  197.2470  175.6440  140.5470 C   0  0  0  0  0  1  0  0  0  0  0  0
  195.0040  178.0940  145.8270 C   0  0  0  0  0  2  0  0  0  0  0  0
  194.4750  177.1010  146.4490 N   0  0  0  0  0  0  0  0  0  0  0  0
  191.6940  173.4140  144.2070 C   0  0  2  0  0  3  0  0  0  0  0  0
  192.6720  173.0810  143.2590 O   0  0  0  0  0  0  0  0  0  0  0  0
  194.9580  172.4370  143.1640 C   0  0  0  0  0  1  0  0  0  0  0  0
  193.6760  172.4200  143.9710 C   0  0  0  0  0  2  0  0  0  0  0  0
  190.7410  172.2160  144.3760 C   0  0  0  0  0  2  0  0  0  0  0  0
  190.6500  171.3870  143.1010 C   0  0  0  0  0  2  0  0  0  0  0  0
  189.4880  171.8590  142.2460 C   0  0  0  0  0  2  0  0  0  0  0  0
  190.1240  173.5580  140.5630 C   0  0  0  0  0  1  0  0  0  0  0  0
  189.9400  172.0770  140.8150 C   0  0  0  0  0  2  0  0  0  0  0  0
  189.6500  177.3370  146.1530 C   0  0  0  0  0  2  0  0  0  0  0  0
  188.2840  177.2080  146.8180 C   0  0  0  0  0  2  0  0  0  0  0  0
  187.4550  177.9260  144.5650 C   0  0  0  0  0  3  0  0  0  0  0  0
  187.2050  177.7280  145.9270 C   0  0  0  0  0  0  0  0  0  0  0  0
  185.9520  178.0470  146.4610 C   0  0  0  0  0  3  0  0  0  0  0  0
  183.7350  178.8630  146.1500 F   0  0  0  0  0  0  0  0  0  0  0  0
  185.1960  178.7510  144.2700 C   0  0  0  0  0  3  0  0  0  0  0  0
  184.9480  178.5560  145.6330 C   0  0  0  0  0  0  0  0  0  0  0  0
  186.4500  178.4360  143.7370 C   0  0  0  0  0  3  0  0  0  0  0  0
  2 12  1  0  0  0  0
  3  5  1  0  0  0  0
  4  1  1  1  0  0  0
  4  6  1  0  0  0  0
  5 10  1  0  0  0  0
  6 29  1  6  0  0  0
  8  5  2  0  0  0  0
  9 11  2  0  0  0  0
  9 14  1  0  0  0  0
 10  1  1  0  0  0  0
 10  7  1  1  0  0  0
 10 19  1  0  0  0  0
 11  8  1  0  0  0  0
 12  6  1  0  0  0  0
 13  8  1  1  0  0  0
 13  4  1  0  0  0  0
 14  3  2  0  0  0  0
 15 13  1  0  0  0  0
 15 20  1  0  0  0  0
 15  2  1  0  0  0  0
 16 14  1  0  0  0  0
 17 16  1  0  0  0  0
 18 19  2  0  0  0  0
 20 24  1  6  0  0  0
 21 23  1  0  0  0  0
 21 20  1  0  0  0  0
 22 23  1  0  0  0  0
 25 24  1  0  0  0  0
 26 25  1  0  0  0  0
 27 28  1  0  0  0  0
 28 26  1  0  0  0  0
 29 30  1  0  0  0  0
 31 32  1  0  0  0  0
 32 33  2  0  0  0  0
 32 30  1  0  0  0  0
 35 36  2  0  0  0  0
 36 34  1  0  0  0  0
 36 33  1  0  0  0  0
 37 35  1  0  0  0  0
 37 31  2  0  0  0  0
M  END
>  <MODEL>
5

>  <REMARK>
 VINA RESULT:      -6.2      2.035      4.748
  Name = 
  12 active torsions:
  status: ('A' for Active; 'I' for Inactive)
    1  A    between atoms: C_1  and  O_5
    2  A    between atoms: C_1  and  C_33
    3  A    between atoms: C_1  and  N_36
    4  A    between atoms: O_3  and  C_32
    5  A    between atoms: O_5  and  C_23
    6  A    between atoms: C_6  and  C_31
    7  A    between atoms: C_14  and  C_37
    8  A    between atoms: C_17  and  C_26
    9  A    between atoms: C_17  and  C_33
   10  A    between atoms: C_24  and  N_28
   11  A    between atoms: C_26  and  C_34
   12  A    between atoms: C_31  and  C_37
                            x       y       z     vdW  Elec       q    Type
                         _______ _______ _______ _____ _____    ______ ____

>  <TORSDO>
F 12

$$$$
=
 OpenBabel11052420033D

 37 40  0  0  1  0  0  0  0  0999 V2000
  190.8530  175.1320  145.1080 O   0  0  0  0  0  0  0  0  0  0  0  0
  189.1170  175.2840  141.8140 C   0  0  0  0  0  2  0  0  0  0  0  0
  194.5110  175.7370  144.4940 C   0  0  0  0  0  3  0  0  0  0  0  0
  190.3850  176.1590  144.2640 C   0  0  2  0  0  3  0  0  0  0  0  0
  193.1160  175.7210  144.3300 C   0  0  0  0  0  0  0  0  0  0  0  0
  188.8610  176.1490  144.1660 C   0  0  2  0  0  3  0  0  0  0  0  0
  192.6960  174.1280  146.1790 C   0  0  0  0  0  1  0  0  0  0  0  0
  192.5700  176.0770  143.0790 C   0  0  0  0  0  0  0  0  0  0  0  0
  194.7960  176.4000  142.1850 C   0  0  0  0  0  3  0  0  0  0  0  0
  192.1930  175.3970  145.5100 C   0  0  2  0  0  0  0  0  0  0  0  0
  193.4110  176.4100  142.0140 C   0  0  0  0  0  3  0  0  0  0  0  0
  188.3650  175.1300  143.1400 C   0  0  0  0  0  2  0  0  0  0  0  0
  191.0820  176.1110  142.8930 C   0  0  1  0  0  3  0  0  0  0  0  0
  195.3540  176.0650  143.4280 C   0  0  0  0  0  0  0  0  0  0  0  0
  190.5630  175.0630  141.9810 N   0  0  0  0  0  0  0  0  0  0  0  0
  196.7360  176.0530  143.6330 O   0  0  0  0  0  0  0  0  0  0  0  0
  197.6280  175.3160  142.8070 C   0  0  0  0  0  1  0  0  0  0  0  0
  191.6530  176.3610  147.6570 C   0  0  0  0  0  2  0  0  0  0  0  0
  192.2350  176.4490  146.5140 N   0  0  0  0  0  0  0  0  0  0  0  0
  190.8630  173.6760  142.4170 C   0  0  2  0  0  3  0  0  0  0  0  0
  192.1040  173.2660  141.9080 O   0  0  0  0  0  0  0  0  0  0  0  0
  194.1800  172.4950  142.7720 C   0  0  0  0  0  1  0  0  0  0  0  0
  192.6710  172.4630  142.9010 C   0  0  0  0  0  2  0  0  0  0  0  0
  189.7870  172.6730  141.9610 C   0  0  0  0  0  2  0  0  0  0  0  0
  190.1660  171.9990  140.6490 C   0  0  0  0  0  2  0  0  0  0  0  0
  189.1320  172.3050  139.5810 C   0  0  0  0  0  2  0  0  0  0  0  0
  191.0870  173.3820  138.5120 C   0  0  0  0  0  1  0  0  0  0  0  0
  189.5900  173.4660  138.7200 C   0  0  0  0  0  2  0  0  0  0  0  0
  188.3490  177.5480  143.8450 C   0  0  0  0  0  2  0  0  0  0  0  0
  186.8400  177.5510  143.6410 C   0  0  0  0  0  2  0  0  0  0  0  0
  184.7470  178.1290  144.8920 C   0  0  0  0  0  3  0  0  0  0  0  0
  186.1300  177.9220  144.9000 C   0  0  0  0  0  0  0  0  0  0  0  0
  186.8550  178.0950  146.0850 C   0  0  0  0  0  3  0  0  0  0  0  0
  186.8970  178.6300  148.4070 F   0  0  0  0  0  0  0  0  0  0  0  0
  184.8120  178.6680  147.2530 C   0  0  0  0  0  3  0  0  0  0  0  0
  186.1950  178.4660  147.2600 C   0  0  0  0  0  0  0  0  0  0  0  0
  184.0880  178.5010  146.0670 C   0  0  0  0  0  3  0  0  0  0  0  0
  1 10  1  0  0  0  0
  2 15  1  0  0  0  0
  2 12  1  0  0  0  0
  4  1  1  1  0  0  0
  5  3  1  0  0  0  0
  5 10  1  0  0  0  0
  6 29  1  6  0  0  0
  6  4  1  0  0  0  0
  8  5  2  0  0  0  0
  9 14  1  0  0  0  0
 10  7  1  1  0  0  0
 10 19  1  0  0  0  0
 11  9  2  0  0  0  0
 11  8  1  0  0  0  0
 12  6  1  0  0  0  0
 13  8  1  1  0  0  0
 13  4  1  0  0  0  0
 14 16  1  0  0  0  0
 14  3  2  0  0  0  0
 15 20  1  0  0  0  0
 15 13  1  0  0  0  0
 17 16  1  0  0  0  0
 19 18  2  0  0  0  0
 20 24  1  6  0  0  0
 21 20  1  0  0  0  0
 21 23  1  0  0  0  0
 22 23  1  0  0  0  0
 25 24  1  0  0  0  0
 26 25  1  0  0  0  0
 27 28  1  0  0  0  0
 28 26  1  0  0  0  0
 30 29  1  0  0  0  0
 30 32  1  0  0  0  0
 31 32  2  0  0  0  0
 31 37  1  0  0  0  0
 32 33  1  0  0  0  0
 33 36  2  0  0  0  0
 35 36  1  0  0  0  0
 36 34  1  0  0  0  0
 37 35  2  0  0  0  0
M  END
>  <MODEL>
6

>  <REMARK>
 VINA RESULT:      -6.1      1.996      5.109
  Name = 
  12 active torsions:
  status: ('A' for Active; 'I' for Inactive)
    1  A    between atoms: C_1  and  O_5
    2  A    between atoms: C_1  and  C_33
    3  A    between atoms: C_1  and  N_36
    4  A    between atoms: O_3  and  C_32
    5  A    between atoms: O_5  and  C_23
    6  A    between atoms: C_6  and  C_31
    7  A    between atoms: C_14  and  C_37
    8  A    between atoms: C_17  and  C_26
    9  A    between atoms: C_17  and  C_33
   10  A    between atoms: C_24  and  N_28
   11  A    between atoms: C_26  and  C_34
   12  A    between atoms: C_31  and  C_37
                            x       y       z     vdW  Elec       q    Type
                         _______ _______ _______ _____ _____    ______ ____

>  <TORSDO>
F 12

$$$$
=
 OpenBabel11052420033D

 37 40  0  0  1  0  0  0  0  0999 V2000
  191.0420  174.8480  144.8200 O   0  0  0  0  0  0  0  0  0  0  0  0
  189.4890  174.4570  141.4560 C   0  0  0  0  0  2  0  0  0  0  0  0
  194.6540  175.7490  144.3090 C   0  0  0  0  0  3  0  0  0  0  0  0
  190.5260  175.7220  143.8430 C   0  0  2  0  0  3  0  0  0  0  0  0
  193.2790  175.5740  144.0840 C   0  0  0  0  0  0  0  0  0  0  0  0
  189.0180  175.5470  143.6770 C   0  0  2  0  0  3  0  0  0  0  0  0
  192.9080  174.1610  146.0840 C   0  0  0  0  0  1  0  0  0  0  0  0
  192.7730  175.7320  142.7770 C   0  0  0  0  0  0  0  0  0  0  0  0
  195.0060  176.1780  141.9540 C   0  0  0  0  0  3  0  0  0  0  0  0
  192.3260  175.2910  145.2500 C   0  0  2  0  0  0  0  0  0  0  0  0
  193.6380  176.0280  141.7190 C   0  0  0  0  0  3  0  0  0  0  0  0
  188.6820  174.3760  142.7550 C   0  0  0  0  0  2  0  0  0  0  0  0
  191.3020  175.5930  142.5200 C   0  0  1  0  0  3  0  0  0  0  0  0
  195.5210  176.0410  143.2520 C   0  0  0  0  0  0  0  0  0  0  0  0
  190.9390  174.4040  141.7130 N   0  0  0  0  0  0  0  0  0  0  0  0
  196.8840  176.1920  143.5190 O   0  0  0  0  0  0  0  0  0  0  0  0
  197.8940  175.5770  142.7300 C   0  0  0  0  0  1  0  0  0  0  0  0
  191.7640  176.3800  147.3300 C   0  0  0  0  0  2  0  0  0  0  0  0
  192.2100  176.4460  146.1260 N   0  0  0  0  0  0  0  0  0  0  0  0
  191.3440  173.1110  142.3200 C   0  0  2  0  0  3  0  0  0  0  0  0
  192.6500  172.7810  141.9280 O   0  0  0  0  0  0  0  0  0  0  0  0
  194.7480  172.2610  142.9170 C   0  0  0  0  0  1  0  0  0  0  0  0
  193.2400  172.1900  143.0480 C   0  0  0  0  0  2  0  0  0  0  0  0
  190.4030  171.9580  141.9260 C   0  0  0  0  0  2  0  0  0  0  0  0
  190.8950  171.2320  140.6790 C   0  0  0  0  0  2  0  0  0  0  0  0
  190.0620  171.6310  139.4740 C   0  0  0  0  0  2  0  0  0  0  0  0
  190.6860  169.2720  139.0600 C   0  0  0  0  0  1  0  0  0  0  0  0
  189.9760  170.4810  138.4890 C   0  0  0  0  0  2  0  0  0  0  0  0
  188.3950  176.8430  143.1730 C   0  0  0  0  0  2  0  0  0  0  0  0
  188.4280  177.9240  144.2460 C   0  0  0  0  0  2  0  0  0  0  0  0
  187.1730  177.2800  146.3170 C   0  0  0  0  0  3  0  0  0  0  0  0
  187.1800  177.9030  145.0650 C   0  0  0  0  0  0  0  0  0  0  0  0
  186.0070  178.4810  144.5650 C   0  0  0  0  0  3  0  0  0  0  0  0
  183.6980  179.0010  144.8380 F   0  0  0  0  0  0  0  0  0  0  0  0
  184.8260  177.8220  146.5750 C   0  0  0  0  0  3  0  0  0  0  0  0
  184.8320  178.4410  145.3200 C   0  0  0  0  0  0  0  0  0  0  0  0
  185.9970  177.2410  147.0720 C   0  0  0  0  0  3  0  0  0  0  0  0
  1 10  1  0  0  0  0
  2 15  1  0  0  0  0
  2 12  1  0  0  0  0
  4  1  1  1  0  0  0
  5  3  1  0  0  0  0
  5 10  1  0  0  0  0
  6 29  1  6  0  0  0
  6  4  1  0  0  0  0
  8  5  2  0  0  0  0
  9 14  1  0  0  0  0
 10  7  1  1  0  0  0
 10 19  1  0  0  0  0
 11  9  2  0  0  0  0
 11  8  1  0  0  0  0
 12  6  1  0  0  0  0
 13  8  1  1  0  0  0
 13  4  1  0  0  0  0
 14 16  1  0  0  0  0
 14  3  2  0  0  0  0
 15 20  1  0  0  0  0
 15 13  1  0  0  0  0
 17 16  1  0  0  0  0
 19 18  2  0  0  0  0
 20 24  1  6  0  0  0
 21 20  1  0  0  0  0
 21 23  1  0  0  0  0
 22 23  1  0  0  0  0
 25 24  1  0  0  0  0
 26 25  1  0  0  0  0
 28 27  1  0  0  0  0
 28 26  1  0  0  0  0
 29 30  1  0  0  0  0
 30 32  1  0  0  0  0
 31 37  1  0  0  0  0
 32 31  2  0  0  0  0
 33 32  1  0  0  0  0
 33 36  2  0  0  0  0
 34 36  1  0  0  0  0
 35 37  2  0  0  0  0
 36 35  1  0  0  0  0
M  END
>  <MODEL>
7

>  <REMARK>
 VINA RESULT:      -6.1      2.004      5.297
  Name = 
  12 active torsions:
  status: ('A' for Active; 'I' for Inactive)
    1  A    between atoms: C_1  and  O_5
    2  A    between atoms: C_1  and  C_33
    3  A    between atoms: C_1  and  N_36
    4  A    between atoms: O_3  and  C_32
    5  A    between atoms: O_5  and  C_23
    6  A    between atoms: C_6  and  C_31
    7  A    between atoms: C_14  and  C_37
    8  A    between atoms: C_17  and  C_26
    9  A    between atoms: C_17  and  C_33
   10  A    between atoms: C_24  and  N_28
   11  A    between atoms: C_26  and  C_34
   12  A    between atoms: C_31  and  C_37
                            x       y       z     vdW  Elec       q    Type
                         _______ _______ _______ _____ _____    ______ ____

>  <TORSDO>
F 12

$$$$
=
 OpenBabel11052420033D

 37 40  0  0  1  0  0  0  0  0999 V2000
  190.9460  175.9720  142.6520 O   0  0  0  0  0  0  0  0  0  0  0  0
  187.6220  174.3620  142.1580 C   0  0  0  0  0  2  0  0  0  0  0  0
  191.5700  176.1790  146.3520 C   0  0  0  0  0  3  0  0  0  0  0  0
  190.4590  174.6500  142.6530 C   0  0  2  0  0  3  0  0  0  0  0  0
  191.0580  175.7800  145.1070 C   0  0  0  0  0  0  0  0  0  0  0  0
  189.9740  174.2330  141.2660 C   0  0  2  0  0  3  0  0  0  0  0  0
  191.9990  177.7010  143.8580 C   0  0  0  0  0  1  0  0  0  0  0  0
  189.9370  174.9250  145.0690 C   0  0  0  0  0  0  0  0  0  0  0  0
  189.8360  174.9310  147.4880 C   0  0  0  0  0  3  0  0  0  0  0  0
  191.7500  176.2020  143.8060 C   0  0  2  0  0  0  0  0  0  0  0  0
  189.3300  174.5090  146.2570 C   0  0  0  0  0  3  0  0  0  0  0  0
  188.5520  174.7180  140.9930 C   0  0  0  0  0  2  0  0  0  0  0  0
  189.4000  174.4500  143.7520 C   0  0  1  0  0  3  0  0  0  0  0  0
  190.9620  175.7680  147.5420 C   0  0  0  0  0  0  0  0  0  0  0  0
  188.0610  174.9910  143.4150 N   0  0  0  0  0  0  0  0  0  0  0  0
  191.4960  176.2010  148.7580 O   0  0  0  0  0  0  0  0  0  0  0  0
  191.5700  177.5740  149.1180 C   0  0  0  0  0  1  0  0  0  0  0  0
  194.1620  176.1710  143.8710 C   0  0  0  0  0  2  0  0  0  0  0  0
  193.0480  175.5620  143.6690 N   0  0  0  0  0  0  0  0  0  0  0  0
  188.0070  176.4730  143.3380 C   0  0  2  0  0  3  0  0  0  0  0  0
  187.8280  177.0170  144.6180 O   0  0  0  0  0  0  0  0  0  0  0  0
  186.4530  176.8610  146.5510 C   0  0  0  0  0  1  0  0  0  0  0  0
  186.6450  176.4560  145.1040 C   0  0  0  0  0  2  0  0  0  0  0  0
  186.8700  176.9710  142.4260 C   0  0  0  0  0  2  0  0  0  0  0  0
  186.8470  178.4920  142.3370 C   0  0  0  0  0  2  0  0  0  0  0  0
  185.4770  179.0220  142.7200 C   0  0  0  0  0  2  0  0  0  0  0  0
  184.3740  179.4130  144.9010 C   0  0  0  0  0  1  0  0  0  0  0  0
  185.5530  179.7860  144.0280 C   0  0  0  0  0  2  0  0  0  0  0  0
  190.0810  172.7200  141.1100 C   0  0  0  0  0  2  0  0  0  0  0  0
  191.1390  172.3460  140.0790 C   0  0  0  0  0  2  0  0  0  0  0  0
  189.6010  172.4180  138.1010 C   0  0  0  0  0  3  0  0  0  0  0  0
  190.7730  172.8600  138.7260 C   0  0  0  0  0  0  0  0  0  0  0  0
  191.6180  173.7610  138.0690 C   0  0  0  0  0  3  0  0  0  0  0  0
  192.1050  175.0970  136.1570 F   0  0  0  0  0  0  0  0  0  0  0  0
  190.1150  173.7860  136.1690 C   0  0  0  0  0  3  0  0  0  0  0  0
  191.2880  174.2240  136.7920 C   0  0  0  0  0  0  0  0  0  0  0  0
  189.2720  172.8820  136.8240 C   0  0  0  0  0  3  0  0  0  0  0  0
  1 10  1  0  0  0  0
  2 15  1  0  0  0  0
  3 14  1  0  0  0  0
  4  1  1  6  0  0  0
  4 13  1  0  0  0  0
  5  3  2  0  0  0  0
  6 29  1  1  0  0  0
  6  4  1  0  0  0  0
  8  5  1  0  0  0  0
  8 11  2  0  0  0  0
  9 14  2  0  0  0  0
 10  7  1  1  0  0  0
 10  5  1  0  0  0  0
 11  9  1  0  0  0  0
 12  6  1  0  0  0  0
 12  2  1  0  0  0  0
 13  8  1  1  0  0  0
 14 16  1  0  0  0  0
 15 13  1  0  0  0  0
 16 17  1  0  0  0  0
 19 10  1  0  0  0  0
 19 18  2  0  0  0  0
 20 24  1  6  0  0  0
 20 15  1  0  0  0  0
 20 21  1  0  0  0  0
 21 23  1  0  0  0  0
 23 22  1  0  0  0  0
 25 24  1  0  0  0  0
 25 26  1  0  0  0  0
 26 28  1  0  0  0  0
 28 27  1  0  0  0  0
 30 29  1  0  0  0  0
 31 32  1  0  0  0  0
 32 30  1  0  0  0  0
 33 32  2  0  0  0  0
 34 36  1  0  0  0  0
 35 36  2  0  0  0  0
 35 37  1  0  0  0  0
 36 33  1  0  0  0  0
 37 31  2  0  0  0  0
M  END
>  <MODEL>
8

>  <REMARK>
 VINA RESULT:      -6.0      2.575      7.693
  Name = 
  12 active torsions:
  status: ('A' for Active; 'I' for Inactive)
    1  A    between atoms: C_1  and  O_5
    2  A    between atoms: C_1  and  C_33
    3  A    between atoms: C_1  and  N_36
    4  A    between atoms: O_3  and  C_32
    5  A    between atoms: O_5  and  C_23
    6  A    between atoms: C_6  and  C_31
    7  A    between atoms: C_14  and  C_37
    8  A    between atoms: C_17  and  C_26
    9  A    between atoms: C_17  and  C_33
   10  A    between atoms: C_24  and  N_28
   11  A    between atoms: C_26  and  C_34
   12  A    between atoms: C_31  and  C_37
                            x       y       z     vdW  Elec       q    Type
                         _______ _______ _______ _____ _____    ______ ____

>  <TORSDO>
F 12

$$$$
=
 OpenBabel11052420033D

 37 40  0  0  1  0  0  0  0  0999 V2000
  189.7420  174.5570  140.2780 O   0  0  0  0  0  0  0  0  0  0  0  0
  189.9950  175.4700  143.8810 C   0  0  0  0  0  2  0  0  0  0  0  0
  190.6300  170.9190  139.9610 C   0  0  0  0  0  3  0  0  0  0  0  0
  188.9180  174.4150  141.4110 C   0  0  2  0  0  3  0  0  0  0  0  0
  190.2180  172.1490  140.5000 C   0  0  0  0  0  0  0  0  0  0  0  0
  188.4370  175.7700  141.9250 C   0  0  2  0  0  3  0  0  0  0  0  0
  190.9470  173.4950  138.5530 C   0  0  0  0  0  1  0  0  0  0  0  0
  190.0870  172.2740  141.8990 C   0  0  0  0  0  0  0  0  0  0  0  0
  190.8220  169.9860  142.1850 C   0  0  0  0  0  3  0  0  0  0  0  0
  189.8420  173.3170  139.5820 C   0  0  2  0  0  0  0  0  0  0  0  0
  190.3930  171.1960  142.7330 C   0  0  0  0  0  3  0  0  0  0  0  0
  189.4820  176.4420  142.8140 C   0  0  0  0  0  2  0  0  0  0  0  0
  189.6060  173.5640  142.4940 C   0  0  1  0  0  3  0  0  0  0  0  0
  190.9410  169.8410  140.7940 C   0  0  0  0  0  0  0  0  0  0  0  0
  190.6350  174.2890  143.2770 N   0  0  0  0  0  0  0  0  0  0  0  0
  191.3610  168.6400  140.2160 O   0  0  0  0  0  0  0  0  0  0  0  0
  191.6770  168.5230  138.8350 C   0  0  0  0  0  1  0  0  0  0  0  0
  188.5440  173.0610  137.5630 C   0  0  0  0  0  2  0  0  0  0  0  0
  188.6190  173.0350  138.8470 N   0  0  0  0  0  0  0  0  0  0  0  0
  191.8450  174.6550  142.4980 C   0  0  2  0  0  3  0  0  0  0  0  0
  192.7880  173.6190  142.5530 O   0  0  0  0  0  0  0  0  0  0  0  0
  193.9630  172.2340  141.0190 C   0  0  0  0  0  1  0  0  0  0  0  0
  193.4220  173.6190  141.3080 C   0  0  0  0  0  2  0  0  0  0  0  0
  192.5020  175.9500  143.0100 C   0  0  0  0  0  2  0  0  0  0  0  0
  193.4530  175.6760  144.1690 C   0  0  0  0  0  2  0  0  0  0  0  0
  193.3710  176.7940  145.1930 C   0  0  0  0  0  2  0  0  0  0  0  0
  192.3170  175.2230  146.7890 C   0  0  0  0  0  1  0  0  0  0  0  0
  193.4330  176.2280  146.5990 C   0  0  0  0  0  2  0  0  0  0  0  0
  187.1100  175.6100  142.6580 C   0  0  0  0  0  2  0  0  0  0  0  0
  186.3540  176.9310  142.7240 C   0  0  0  0  0  2  0  0  0  0  0  0
  186.7240  176.7670  145.1970 C   0  0  0  0  0  3  0  0  0  0  0  0
  185.9640  177.2530  144.1280 C   0  0  0  0  0  0  0  0  0  0  0  0
  184.8170  178.0170  144.3760 C   0  0  0  0  0  3  0  0  0  0  0  0
  183.3300  179.0410  145.9310 F   0  0  0  0  0  0  0  0  0  0  0  0
  185.2000  177.8190  146.7600 C   0  0  0  0  0  3  0  0  0  0  0  0
  184.4380  178.3000  145.6910 C   0  0  0  0  0  0  0  0  0  0  0  0
  186.3440  177.0510  146.5120 C   0  0  0  0  0  3  0  0  0  0  0  0
  3  5  2  0  0  0  0
  3 14  1  0  0  0  0
  4  1  1  6  0  0  0
  4  6  1  0  0  0  0
  4 13  1  0  0  0  0
  5  8  1  0  0  0  0
  6 29  1  1  0  0  0
  6 12  1  0  0  0  0
  8 11  2  0  0  0  0
  9 11  1  0  0  0  0
 10  7  1  6  0  0  0
 10  1  1  0  0  0  0
 10  5  1  0  0  0  0
 12  2  1  0  0  0  0
 13  8  1  6  0  0  0
 13 15  1  0  0  0  0
 14  9  2  0  0  0  0
 15  2  1  0  0  0  0
 16 14  1  0  0  0  0
 17 16  1  0  0  0  0
 18 19  2  0  0  0  0
 19 10  1  0  0  0  0
 20 21  1  0  0  0  0
 20 24  1  1  0  0  0
 20 15  1  0  0  0  0
 22 23  1  0  0  0  0
 23 21  1  0  0  0  0
 24 25  1  0  0  0  0
 25 26  1  0  0  0  0
 26 28  1  0  0  0  0
 28 27  1  0  0  0  0
 29 30  1  0  0  0  0
 30 32  1  0  0  0  0
 31 37  1  0  0  0  0
 32 33  1  0  0  0  0
 32 31  2  0  0  0  0
 33 36  2  0  0  0  0
 36 34  1  0  0  0  0
 36 35  1  0  0  0  0
 37 35  2  0  0  0  0
M  END
>  <MODEL>
9

>  <REMARK>
 VINA RESULT:      -6.0      2.322      3.729
  Name = 
  12 active torsions:
  status: ('A' for Active; 'I' for Inactive)
    1  A    between atoms: C_1  and  O_5
    2  A    between atoms: C_1  and  C_33
    3  A    between atoms: C_1  and  N_36
    4  A    between atoms: O_3  and  C_32
    5  A    between atoms: O_5  and  C_23
    6  A    between atoms: C_6  and  C_31
    7  A    between atoms: C_14  and  C_37
    8  A    between atoms: C_17  and  C_26
    9  A    between atoms: C_17  and  C_33
   10  A    between atoms: C_24  and  N_28
   11  A    between atoms: C_26  and  C_34
   12  A    between atoms: C_31  and  C_37
                            x       y       z     vdW  Elec       q    Type
                         _______ _______ _______ _____ _____    ______ ____

>  <TORSDO>
F 12

$$$$
