=
 OpenBabel11052418083D

 28 31  0  0  1  0  0  0  0  0999 V2000
  189.2640  173.5830  142.3060 C   0  0  0  0  0  0  0  0  0  0  0  0
  187.6440  177.2930  145.7620 C   0  0  0  0  0  2  0  0  0  0  0  0
  186.8820  176.8130  139.7020 O   0  0  0  0  0  0  0  0  0  0  0  0
  186.2620  178.7530  144.3060 C   0  0  2  0  0  3  0  0  0  0  0  0
  187.6000  176.8380  143.2960 C   0  0  1  0  0  3  0  0  0  0  0  0
  185.9320  178.7660  146.8240 C   0  0  0  0  0  0  0  0  0  0  0  0
  186.7800  177.3230  144.5020 C   0  0  1  0  0  3  0  0  0  0  0  0
  186.3620  178.5050  141.8460 C   0  0  0  0  0  2  0  0  0  0  0  0
  185.3670  179.1550  145.4780 C   0  0  0  0  0  2  0  0  0  0  0  0
  188.1340  175.2360  140.9430 C   0  0  0  0  0  0  0  0  0  0  0  0
  187.8020  175.3240  143.4310 C   0  0  0  0  0  2  0  0  0  0  0  0
  185.4630  178.8480  143.0190 C   0  0  0  0  0  2  0  0  0  0  0  0
  189.4680  173.5710  139.8990 C   0  0  0  0  0  3  0  0  0  0  0  0
  187.2890  176.4340  140.8330 C   0  0  0  0  0  0  0  0  0  0  0  0
  188.6520  174.6550  139.8270 N   0  0  0  0  0  0  0  0  0  0  0  0
  185.3210  179.2280  147.9440 F   0  0  0  0  0  0  0  0  0  0  0  0
  186.9130  177.8600  146.9490 C   0  0  0  0  0  3  0  0  0  0  0  0
  186.9440  177.1740  142.0180 N   0  0  0  0  0  0  0  0  0  0  0  0
  189.7910  173.0210  141.1390 C   0  0  0  0  0  3  0  0  0  0  0  0
  188.4410  174.7200  142.2120 C   0  0  0  0  0  0  0  0  0  0  0  0
  189.6160  172.9710  143.6420 C   0  0  0  0  0  2  0  0  0  0  0  0
  190.9870  173.2640  144.0900 N   0  0  0  0  0  0  0  0  0  0  0  0
  191.5760  172.0920  144.4410 O   0  0  0  0  0  1  0  0  0  0  0  0
  189.6820  173.9950  146.0330 C   0  0  0  0  0  1  0  0  0  0  0  0
  190.9710  174.1790  145.2450 C   0  0  2  0  0  3  0  0  0  0  0  0
  191.0690  175.6590  144.8500 C   0  0  1  0  0  3  0  0  0  0  0  0
  191.5170  176.5160  146.0180 C   0  0  0  0  0  1  0  0  0  0  0  0
  191.9220  175.8410  143.7580 O   0  0  0  0  0  1  0  0  0  0  0  0
  1 21  1  0  0  0  0
  2 17  1  0  0  0  0
  3 14  2  0  0  0  0
  4 12  1  6  0  0  0
  4  7  1  0  0  0  0
  4  9  1  0  0  0  0
  5 11  1  1  0  0  0
  5  7  1  0  0  0  0
  6 17  2  0  0  0  0
  6 16  1  0  0  0  0
  7  2  1  1  0  0  0
  8 18  1  0  0  0  0
  8 12  1  0  0  0  0
  9  6  1  0  0  0  0
 10 20  2  0  0  0  0
 13 19  1  0  0  0  0
 14 10  1  0  0  0  0
 14 18  1  0  0  0  0
 15 13  2  0  0  0  0
 15 10  1  0  0  0  0
 18  5  1  0  0  0  0
 19  1  2  0  0  0  0
 20  1  1  0  0  0  0
 20 11  1  0  0  0  0
 21 22  1  0  0  0  0
 22 23  1  0  0  0  0
 22 25  1  0  0  0  0
 25 24  1  6  0  0  0
 26 25  1  0  0  0  0
 26 27  1  1  0  0  0
 28 26  1  0  0  0  0
M  END
>  <MODEL>
1

>  <REMARK>
 VINA RESULT:      -7.2      0.000      0.000
  Name = 
  4 active torsions:
  status: ('A' for Active; 'I' for Inactive)
    1  A    between atoms: C_1  and  C_2
    2  A    between atoms: C_2  and  N_3
    3  A    between atoms: N_3  and  C_11
    4  A    between atoms: C_6  and  C_11
                            x       y       z     vdW  Elec       q    Type
                         _______ _______ _______ _____ _____    ______ ____

>  <TORSDO>
F 4

$$$$
=
 OpenBabel11052418083D

 28 31  0  0  1  0  0  0  0  0999 V2000
  190.9820  174.2870  143.7680 C   0  0  0  0  0  0  0  0  0  0  0  0
  187.6190  177.5310  146.3190 C   0  0  0  0  0  2  0  0  0  0  0  0
  187.7790  175.6570  140.4880 O   0  0  0  0  0  0  0  0  0  0  0  0
  185.9250  177.9680  144.5580 C   0  0  2  0  0  3  0  0  0  0  0  0
  188.0310  176.6500  144.0070 C   0  0  1  0  0  3  0  0  0  0  0  0
  185.3490  178.3080  147.0080 C   0  0  0  0  0  0  0  0  0  0  0  0
  186.9600  176.9570  145.0650 C   0  0  1  0  0  3  0  0  0  0  0  0
  186.3830  177.3340  142.2100 C   0  0  0  0  0  2  0  0  0  0  0  0
  184.8230  178.1630  145.6000 C   0  0  0  0  0  2  0  0  0  0  0  0
  189.4260  175.0200  142.0610 C   0  0  0  0  0  0  0  0  0  0  0  0
  188.8220  175.4190  144.4660 C   0  0  0  0  0  2  0  0  0  0  0  0
  185.3010  177.4750  143.2650 C   0  0  0  0  0  2  0  0  0  0  0  0
  191.4300  173.9160  141.4240 C   0  0  0  0  0  3  0  0  0  0  0  0
  188.1810  175.7030  141.6820 C   0  0  0  0  0  0  0  0  0  0  0  0
  190.2540  174.5180  141.1050 N   0  0  0  0  0  0  0  0  0  0  0  0
  184.4860  178.6660  147.9920 F   0  0  0  0  0  0  0  0  0  0  0  0
  186.5970  177.9440  147.3420 C   0  0  0  0  0  3  0  0  0  0  0  0
  187.4380  176.4330  142.6740 N   0  0  0  0  0  0  0  0  0  0  0  0
  191.8150  173.7950  142.7590 C   0  0  0  0  0  3  0  0  0  0  0  0
  189.7790  174.9280  143.4170 C   0  0  0  0  0  0  0  0  0  0  0  0
  191.4070  174.1430  145.2100 C   0  0  0  0  0  2  0  0  0  0  0  0
  192.8560  174.2930  145.4230 N   0  0  0  0  0  0  0  0  0  0  0  0
  193.3610  173.0790  145.7630 O   0  0  0  0  0  1  0  0  0  0  0  0
  191.9050  176.1500  146.7110 C   0  0  0  0  0  1  0  0  0  0  0  0
  193.1230  175.2630  146.4990 C   0  0  2  0  0  3  0  0  0  0  0  0
  194.3220  176.1770  146.2100 C   0  0  1  0  0  3  0  0  0  0  0  0
  194.4900  176.4160  144.7210 C   0  0  0  0  0  1  0  0  0  0  0  0
  194.2130  177.3940  146.8880 O   0  0  0  0  0  1  0  0  0  0  0  0
  1 21  1  0  0  0  0
  2 17  1  0  0  0  0
  3 14  2  0  0  0  0
  4 12  1  6  0  0  0
  4  7  1  0  0  0  0
  4  9  1  0  0  0  0
  5 11  1  1  0  0  0
  5  7  1  0  0  0  0
  6 17  2  0  0  0  0
  6 16  1  0  0  0  0
  7  2  1  1  0  0  0
  8 18  1  0  0  0  0
  8 12  1  0  0  0  0
  9  6  1  0  0  0  0
 10 20  2  0  0  0  0
 13 19  1  0  0  0  0
 14 10  1  0  0  0  0
 14 18  1  0  0  0  0
 15 13  2  0  0  0  0
 15 10  1  0  0  0  0
 18  5  1  0  0  0  0
 19  1  2  0  0  0  0
 20  1  1  0  0  0  0
 20 11  1  0  0  0  0
 21 22  1  0  0  0  0
 22 23  1  0  0  0  0
 22 25  1  0  0  0  0
 25 24  1  6  0  0  0
 26 27  1  6  0  0  0
 26 25  1  0  0  0  0
 26 28  1  0  0  0  0
M  END
>  <MODEL>
2

>  <REMARK>
 VINA RESULT:      -7.2      1.794      2.106
  Name = 
  4 active torsions:
  status: ('A' for Active; 'I' for Inactive)
    1  A    between atoms: C_1  and  C_2
    2  A    between atoms: C_2  and  N_3
    3  A    between atoms: N_3  and  C_11
    4  A    between atoms: C_6  and  C_11
                            x       y       z     vdW  Elec       q    Type
                         _______ _______ _______ _____ _____    ______ ____

>  <TORSDO>
F 4

$$$$
=
 OpenBabel11052418083D

 28 31  0  0  1  0  0  0  0  0999 V2000
  190.8970  176.8350  144.9650 C   0  0  0  0  0  0  0  0  0  0  0  0
  186.5540  177.1100  141.8990 C   0  0  0  0  0  2  0  0  0  0  0  0
  187.2860  177.8430  147.9380 O   0  0  0  0  0  0  0  0  0  0  0  0
  184.8400  177.8450  143.5370 C   0  0  2  0  0  3  0  0  0  0  0  0
  187.1880  177.2530  144.3210 C   0  0  1  0  0  3  0  0  0  0  0  0
  184.4810  178.2100  141.0500 C   0  0  0  0  0  0  0  0  0  0  0  0
  186.3360  177.8750  143.2040 C   0  0  1  0  0  3  0  0  0  0  0  0
  185.3310  177.7780  145.9620 C   0  0  0  0  0  2  0  0  0  0  0  0
  184.0420  178.5660  142.4500 C   0  0  0  0  0  2  0  0  0  0  0  0
  189.0830  177.2670  146.5110 C   0  0  0  0  0  0  0  0  0  0  0  0
  188.6570  177.6070  144.0600 C   0  0  0  0  0  2  0  0  0  0  0  0
  184.5870  178.5250  144.8700 C   0  0  0  0  0  2  0  0  0  0  0  0
  191.2000  176.5890  147.3490 C   0  0  0  0  0  3  0  0  0  0  0  0
  187.6800  177.6270  146.7590 C   0  0  0  0  0  0  0  0  0  0  0  0
  189.9090  176.9630  147.5500 N   0  0  0  0  0  0  0  0  0  0  0  0
  183.7330  178.6440  140.0040 F   0  0  0  0  0  0  0  0  0  0  0  0
  185.6600  177.6190  140.8010 C   0  0  0  0  0  3  0  0  0  0  0  0
  186.7600  177.7130  145.6560 N   0  0  0  0  0  0  0  0  0  0  0  0
  191.7130  176.5140  146.0540 C   0  0  0  0  0  3  0  0  0  0  0  0
  189.5560  177.1960  145.1910 C   0  0  0  0  0  0  0  0  0  0  0  0
  191.4690  176.7570  143.5680 C   0  0  0  0  0  2  0  0  0  0  0  0
  192.4080  175.6420  143.3690 N   0  0  0  0  0  0  0  0  0  0  0  0
  193.4360  176.0870  142.6020 O   0  0  0  0  0  1  0  0  0  0  0  0
  190.4220  174.9780  142.0930 C   0  0  0  0  0  1  0  0  0  0  0  0
  191.7380  174.5130  142.6990 C   0  0  2  0  0  3  0  0  0  0  0  0
  191.4300  173.3420  143.6420 C   0  0  1  0  0  3  0  0  0  0  0  0
  192.5130  173.1760  144.6920 C   0  0  0  0  0  1  0  0  0  0  0  0
  190.1820  173.4910  144.2510 O   0  0  0  0  0  1  0  0  0  0  0  0
  1 20  2  0  0  0  0
  1 19  1  0  0  0  0
  4  9  1  6  0  0  0
  4 12  1  0  0  0  0
  5 11  1  6  0  0  0
  5 18  1  0  0  0  0
  6  9  1  0  0  0  0
  7  2  1  6  0  0  0
  7  4  1  0  0  0  0
  7  5  1  0  0  0  0
 10 14  1  0  0  0  0
 10 15  2  0  0  0  0
 11 20  1  0  0  0  0
 12  8  1  0  0  0  0
 13 15  1  0  0  0  0
 14  3  2  0  0  0  0
 16  6  1  0  0  0  0
 17  6  2  0  0  0  0
 17  2  1  0  0  0  0
 18  8  1  0  0  0  0
 18 14  1  0  0  0  0
 19 13  2  0  0  0  0
 20 10  1  0  0  0  0
 21  1  1  0  0  0  0
 22 21  1  0  0  0  0
 23 22  1  0  0  0  0
 25 24  1  1  0  0  0
 25 22  1  0  0  0  0
 25 26  1  0  0  0  0
 26 28  1  0  0  0  0
 26 27  1  1  0  0  0
M  END
>  <MODEL>
3

>  <REMARK>
 VINA RESULT:      -6.9      2.862      4.904
  Name = 
  4 active torsions:
  status: ('A' for Active; 'I' for Inactive)
    1  A    between atoms: C_1  and  C_2
    2  A    between atoms: C_2  and  N_3
    3  A    between atoms: N_3  and  C_11
    4  A    between atoms: C_6  and  C_11
                            x       y       z     vdW  Elec       q    Type
                         _______ _______ _______ _____ _____    ______ ____

>  <TORSDO>
F 4

$$$$
=
 OpenBabel11052418083D

 28 31  0  0  1  0  0  0  0  0999 V2000
  187.0950  177.4030  144.3660 C   0  0  0  0  0  0  0  0  0  0  0  0
  188.9190  172.6460  142.8210 C   0  0  0  0  0  2  0  0  0  0  0  0
  186.9620  177.4650  139.5840 O   0  0  0  0  0  0  0  0  0  0  0  0
  188.9900  172.9230  140.3550 C   0  0  2  0  0  3  0  0  0  0  0  0
  187.9770  174.7420  141.8180 C   0  0  1  0  0  3  0  0  0  0  0  0
  190.4020  171.1430  141.4900 C   0  0  0  0  0  0  0  0  0  0  0  0
  189.0670  173.6670  141.6940 C   0  0  1  0  0  3  0  0  0  0  0  0
  187.8660  174.8530  139.2900 C   0  0  0  0  0  2  0  0  0  0  0  0
  190.1530  171.9380  140.2310 C   0  0  0  0  0  2  0  0  0  0  0  0
  186.9380  177.4430  141.9490 C   0  0  0  0  0  0  0  0  0  0  0  0
  188.3160  175.6360  143.0170 C   0  0  0  0  0  2  0  0  0  0  0  0
  189.0510  173.9090  139.2040 C   0  0  0  0  0  2  0  0  0  0  0  0
  185.8390  179.1200  143.2230 C   0  0  0  0  0  3  0  0  0  0  0  0
  187.2440  176.8420  140.6430 C   0  0  0  0  0  0  0  0  0  0  0  0
  186.1700  178.5640  142.0280 N   0  0  0  0  0  0  0  0  0  0  0  0
  191.2850  170.1140  141.4460 F   0  0  0  0  0  0  0  0  0  0  0  0
  189.9020  171.5160  142.6780 C   0  0  0  0  0  3  0  0  0  0  0  0
  187.8490  175.5390  140.5820 N   0  0  0  0  0  0  0  0  0  0  0  0
  186.2910  178.5460  144.4100 C   0  0  0  0  0  3  0  0  0  0  0  0
  187.4080  176.8280  143.1200 C   0  0  0  0  0  0  0  0  0  0  0  0
  187.5850  176.7960  145.6600 C   0  0  0  0  0  2  0  0  0  0  0  0
  188.8070  177.4220  146.1890 N   0  0  0  0  0  0  0  0  0  0  0  0
  189.4890  177.9640  145.1470 O   0  0  0  0  0  1  0  0  0  0  0  0
  191.0900  176.5530  146.4000 C   0  0  0  0  0  1  0  0  0  0  0  0
  189.6490  176.4220  146.8700 C   0  0  2  0  0  3  0  0  0  0  0  0
  189.2030  174.9770  146.6140 C   0  0  1  0  0  3  0  0  0  0  0  0
  190.2580  174.1990  145.8490 C   0  0  0  0  0  1  0  0  0  0  0  0
  188.8850  174.3210  147.8060 O   0  0  0  0  0  1  0  0  0  0  0  0
  1 19  1  0  0  0  0
  1 21  1  0  0  0  0
  3 14  2  0  0  0  0
  4 12  1  6  0  0  0
  4  7  1  0  0  0  0
  5 11  1  1  0  0  0
  6 17  2  0  0  0  0
  7  5  1  0  0  0  0
  7  2  1  1  0  0  0
  8 18  1  0  0  0  0
  9  4  1  0  0  0  0
  9  6  1  0  0  0  0
 10 15  2  0  0  0  0
 10 20  1  0  0  0  0
 11 20  1  0  0  0  0
 12  8  1  0  0  0  0
 13 19  2  0  0  0  0
 14 10  1  0  0  0  0
 15 13  1  0  0  0  0
 16  6  1  0  0  0  0
 17  2  1  0  0  0  0
 18 14  1  0  0  0  0
 18  5  1  0  0  0  0
 20  1  2  0  0  0  0
 21 22  1  0  0  0  0
 22 25  1  0  0  0  0
 23 22  1  0  0  0  0
 25 24  1  6  0  0  0
 26 27  1  1  0  0  0
 26 25  1  0  0  0  0
 26 28  1  0  0  0  0
M  END
>  <MODEL>
4

>  <REMARK>
 VINA RESULT:      -6.8      3.004      5.858
  Name = 
  4 active torsions:
  status: ('A' for Active; 'I' for Inactive)
    1  A    between atoms: C_1  and  C_2
    2  A    between atoms: C_2  and  N_3
    3  A    between atoms: N_3  and  C_11
    4  A    between atoms: C_6  and  C_11
                            x       y       z     vdW  Elec       q    Type
                         _______ _______ _______ _____ _____    ______ ____

>  <TORSDO>
F 4

$$$$
=
 OpenBabel11052418083D

 28 31  0  0  1  0  0  0  0  0999 V2000
  191.1740  175.4600  143.8450 C   0  0  0  0  0  0  0  0  0  0  0  0
  186.0520  176.8310  143.3670 C   0  0  0  0  0  2  0  0  0  0  0  0
  189.9940  177.4990  148.0100 O   0  0  0  0  0  0  0  0  0  0  0  0
  185.6680  178.0510  145.4950 C   0  0  2  0  0  3  0  0  0  0  0  0
  187.8800  176.8610  145.0840 C   0  0  1  0  0  3  0  0  0  0  0  0
  184.1430  178.4330  143.5000 C   0  0  0  0  0  0  0  0  0  0  0  0
  186.7280  177.6620  144.4580 C   0  0  1  0  0  3  0  0  0  0  0  0
  187.3340  177.9180  147.3200 C   0  0  0  0  0  2  0  0  0  0  0  0
  184.5980  178.9330  144.8500 C   0  0  0  0  0  2  0  0  0  0  0  0
  190.5930  176.4140  145.9950 C   0  0  0  0  0  0  0  0  0  0  0  0
  189.0270  176.7910  144.0690 C   0  0  0  0  0  2  0  0  0  0  0  0
  186.3110  178.8100  146.6400 C   0  0  0  0  0  2  0  0  0  0  0  0
  192.6240  175.2050  145.7600 C   0  0  0  0  0  3  0  0  0  0  0  0
  189.6490  177.1510  146.8480 C   0  0  0  0  0  0  0  0  0  0  0  0
  191.7510  175.9230  146.5140 N   0  0  0  0  0  0  0  0  0  0  0  0
  183.0730  179.0270  142.9130 F   0  0  0  0  0  0  0  0  0  0  0  0
  184.8510  177.5360  142.7970 C   0  0  0  0  0  3  0  0  0  0  0  0
  188.3320  177.4560  146.3560 N   0  0  0  0  0  0  0  0  0  0  0  0
  192.3470  174.9580  144.4160 C   0  0  0  0  0  3  0  0  0  0  0  0
  190.2710  176.1810  144.6480 C   0  0  0  0  0  0  0  0  0  0  0  0
  190.8910  175.1910  142.3850 C   0  0  0  0  0  2  0  0  0  0  0  0
  190.8660  173.7620  142.0350 N   0  0  0  0  0  0  0  0  0  0  0  0
  191.9560  173.4950  141.2720 O   0  0  0  0  0  1  0  0  0  0  0  0
  188.7670  174.6720  141.1530 C   0  0  0  0  0  1  0  0  0  0  0  0
  189.6400  173.4330  141.2870 C   0  0  2  0  0  3  0  0  0  0  0  0
  188.7970  172.3370  141.9510 C   0  0  1  0  0  3  0  0  0  0  0  0
  189.3160  172.0020  143.3370 C   0  0  0  0  0  1  0  0  0  0  0  0
  187.4480  172.6950  142.0110 O   0  0  0  0  0  1  0  0  0  0  0  0
  1 19  2  0  0  0  0
  1 20  1  0  0  0  0
  4  9  1  6  0  0  0
  4 12  1  0  0  0  0
  5 11  1  6  0  0  0
  5 18  1  0  0  0  0
  6  9  1  0  0  0  0
  7  2  1  6  0  0  0
  7  5  1  0  0  0  0
  7  4  1  0  0  0  0
 10 15  1  0  0  0  0
 10 14  1  0  0  0  0
 11 20  1  0  0  0  0
 12  8  1  0  0  0  0
 13 15  2  0  0  0  0
 14  3  2  0  0  0  0
 16  6  1  0  0  0  0
 17  2  1  0  0  0  0
 17  6  2  0  0  0  0
 18 14  1  0  0  0  0
 18  8  1  0  0  0  0
 19 13  1  0  0  0  0
 20 10  2  0  0  0  0
 21  1  1  0  0  0  0
 22 21  1  0  0  0  0
 23 22  1  0  0  0  0
 25 24  1  1  0  0  0
 25 26  1  0  0  0  0
 25 22  1  0  0  0  0
 26 28  1  0  0  0  0
 26 27  1  1  0  0  0
M  END
>  <MODEL>
5

>  <REMARK>
 VINA RESULT:      -6.8      2.411      4.662
  Name = 
  4 active torsions:
  status: ('A' for Active; 'I' for Inactive)
    1  A    between atoms: C_1  and  C_2
    2  A    between atoms: C_2  and  N_3
    3  A    between atoms: N_3  and  C_11
    4  A    between atoms: C_6  and  C_11
                            x       y       z     vdW  Elec       q    Type
                         _______ _______ _______ _____ _____    ______ ____

>  <TORSDO>
F 4

$$$$
=
 OpenBabel11052418083D

 28 31  0  0  1  0  0  0  0  0999 V2000
  188.5340  176.9490  144.7170 C   0  0  0  0  0  0  0  0  0  0  0  0
  193.3710  176.4150  142.5600 C   0  0  0  0  0  2  0  0  0  0  0  0
  191.5660  176.6860  148.4090 O   0  0  0  0  0  0  0  0  0  0  0  0
  194.7760  176.0770  144.5790 C   0  0  2  0  0  3  0  0  0  0  0  0
  192.3080  176.6510  144.8190 C   0  0  1  0  0  3  0  0  0  0  0  0
  195.5950  175.3130  142.3000 C   0  0  0  0  0  0  0  0  0  0  0  0
  193.3680  175.8990  143.9990 C   0  0  1  0  0  3  0  0  0  0  0  0
  193.8470  176.5290  146.8270 C   0  0  0  0  0  2  0  0  0  0  0  0
  195.7800  175.2300  143.7960 C   0  0  0  0  0  2  0  0  0  0  0  0
  190.0450  176.8990  146.6100 C   0  0  0  0  0  0  0  0  0  0  0  0
  190.9220  176.1700  144.3730 C   0  0  0  0  0  2  0  0  0  0  0  0
  194.8000  175.6520  146.0350 C   0  0  0  0  0  2  0  0  0  0  0  0
  187.7920  177.5810  146.9270 C   0  0  0  0  0  3  0  0  0  0  0  0
  191.3890  176.6730  147.1600 C   0  0  0  0  0  0  0  0  0  0  0  0
  189.0350  177.3260  147.4150 N   0  0  0  0  0  0  0  0  0  0  0  0
  196.5340  174.7520  141.4960 F   0  0  0  0  0  0  0  0  0  0  0  0
  194.4650  175.7790  141.7460 C   0  0  0  0  0  3  0  0  0  0  0  0
  192.4970  176.4540  146.2700 N   0  0  0  0  0  0  0  0  0  0  0  0
  187.5230  177.4020  145.5710 C   0  0  0  0  0  3  0  0  0  0  0  0
  189.8200  176.7130  145.2360 C   0  0  0  0  0  0  0  0  0  0  0  0
  188.2260  176.7510  143.2510 C   0  0  0  0  0  2  0  0  0  0  0  0
  186.8770  176.2250  142.9900 N   0  0  0  0  0  0  0  0  0  0  0  0
  187.0050  175.0360  142.3460 O   0  0  0  0  0  1  0  0  0  0  0  0
  187.0180  178.2700  141.6460 C   0  0  0  0  0  1  0  0  0  0  0  0
  186.1060  177.1640  142.1560 C   0  0  2  0  0  3  0  0  0  0  0  0
  184.9410  177.8250  142.9030 C   0  0  1  0  0  3  0  0  0  0  0  0
  185.3260  179.1960  143.4280 C   0  0  0  0  0  1  0  0  0  0  0  0
  183.8030  177.9160  142.0980 O   0  0  0  0  0  1  0  0  0  0  0  0
  1 20  2  0  0  0  0
  1 19  1  0  0  0  0
  4  9  1  6  0  0  0
  4 12  1  0  0  0  0
  5 11  1  6  0  0  0
  5 18  1  0  0  0  0
  6  9  1  0  0  0  0
  7  2  1  6  0  0  0
  7  4  1  0  0  0  0
  7  5  1  0  0  0  0
 10 14  1  0  0  0  0
 10 15  2  0  0  0  0
 11 20  1  0  0  0  0
 12  8  1  0  0  0  0
 13 15  1  0  0  0  0
 14  3  2  0  0  0  0
 16  6  1  0  0  0  0
 17  6  2  0  0  0  0
 17  2  1  0  0  0  0
 18  8  1  0  0  0  0
 18 14  1  0  0  0  0
 19 13  2  0  0  0  0
 20 10  1  0  0  0  0
 21  1  1  0  0  0  0
 22 21  1  0  0  0  0
 23 22  1  0  0  0  0
 25 24  1  1  0  0  0
 25 26  1  0  0  0  0
 25 22  1  0  0  0  0
 26 27  1  6  0  0  0
 28 26  1  0  0  0  0
M  END
>  <MODEL>
6

>  <REMARK>
 VINA RESULT:      -6.7      3.887      7.820
  Name = 
  4 active torsions:
  status: ('A' for Active; 'I' for Inactive)
    1  A    between atoms: C_1  and  C_2
    2  A    between atoms: C_2  and  N_3
    3  A    between atoms: N_3  and  C_11
    4  A    between atoms: C_6  and  C_11
                            x       y       z     vdW  Elec       q    Type
                         _______ _______ _______ _____ _____    ______ ____

>  <TORSDO>
F 4

$$$$
=
 OpenBabel11052418083D

 28 31  0  0  1  0  0  0  0  0999 V2000
  191.5340  175.5810  145.4960 C   0  0  0  0  0  0  0  0  0  0  0  0
  187.6970  176.3020  141.8770 C   0  0  0  0  0  2  0  0  0  0  0  0
  188.0850  178.0170  147.7460 O   0  0  0  0  0  0  0  0  0  0  0  0
  186.1090  177.7460  143.1240 C   0  0  2  0  0  3  0  0  0  0  0  0
  188.1390  176.7630  144.3020 C   0  0  1  0  0  3  0  0  0  0  0  0
  186.0720  177.6870  140.5850 C   0  0  0  0  0  0  0  0  0  0  0  0
  187.5820  177.3410  142.9920 C   0  0  1  0  0  3  0  0  0  0  0  0
  186.3580  178.0440  145.5680 C   0  0  0  0  0  2  0  0  0  0  0  0
  185.6280  178.4110  141.8330 C   0  0  0  0  0  2  0  0  0  0  0  0
  189.7770  176.7450  146.6910 C   0  0  0  0  0  0  0  0  0  0  0  0
  189.6660  176.6850  144.1830 C   0  0  0  0  0  2  0  0  0  0  0  0
  185.9360  178.7190  144.2760 C   0  0  0  0  0  2  0  0  0  0  0  0
  191.5580  175.7470  147.9060 C   0  0  0  0  0  3  0  0  0  0  0  0
  188.5050  177.4810  146.6850 C   0  0  0  0  0  0  0  0  0  0  0  0
  190.4010  176.4590  147.8660 N   0  0  0  0  0  0  0  0  0  0  0  0
  185.5590  178.0750  139.3900 F   0  0  0  0  0  0  0  0  0  0  0  0
  187.0670  176.7870  140.6000 C   0  0  0  0  0  3  0  0  0  0  0  0
  187.7380  177.5700  145.4710 N   0  0  0  0  0  0  0  0  0  0  0  0
  192.1400  175.2920  146.7230 C   0  0  0  0  0  3  0  0  0  0  0  0
  190.3240  176.2990  145.4770 C   0  0  0  0  0  0  0  0  0  0  0  0
  192.1800  175.0890  144.2220 C   0  0  0  0  0  2  0  0  0  0  0  0
  193.2030  175.9980  143.6810 N   0  0  0  0  0  0  0  0  0  0  0  0
  192.8580  176.3110  142.4060 O   0  0  0  0  0  1  0  0  0  0  0  0
  194.3710  173.8510  143.8750 C   0  0  0  0  0  1  0  0  0  0  0  0
  194.5280  175.3540  143.6960 C   0  0  2  0  0  3  0  0  0  0  0  0
  195.4410  175.8650  144.8180 C   0  0  1  0  0  3  0  0  0  0  0  0
  194.9380  177.1800  145.3850 C   0  0  0  0  0  1  0  0  0  0  0  0
  195.5790  174.9190  145.8370 O   0  0  0  0  0  1  0  0  0  0  0  0
  1 19  1  0  0  0  0
  4  9  1  6  0  0  0
  4 12  1  0  0  0  0
  5 11  1  6  0  0  0
  5 18  1  0  0  0  0
  6 17  2  0  0  0  0
  6  9  1  0  0  0  0
  7  2  1  6  0  0  0
  7  4  1  0  0  0  0
  7  5  1  0  0  0  0
 10 15  2  0  0  0  0
 11 20  1  0  0  0  0
 12  8  1  0  0  0  0
 14 10  1  0  0  0  0
 14  3  2  0  0  0  0
 15 13  1  0  0  0  0
 16  6  1  0  0  0  0
 17  2  1  0  0  0  0
 18  8  1  0  0  0  0
 18 14  1  0  0  0  0
 19 13  2  0  0  0  0
 20  1  2  0  0  0  0
 20 10  1  0  0  0  0
 21  1  1  0  0  0  0
 22 25  1  0  0  0  0
 22 21  1  0  0  0  0
 23 22  1  0  0  0  0
 25 24  1  1  0  0  0
 25 26  1  0  0  0  0
 26 27  1  1  0  0  0
 26 28  1  0  0  0  0
M  END
>  <MODEL>
7

>  <REMARK>
 VINA RESULT:      -6.5      3.218      5.115
  Name = 
  4 active torsions:
  status: ('A' for Active; 'I' for Inactive)
    1  A    between atoms: C_1  and  C_2
    2  A    between atoms: C_2  and  N_3
    3  A    between atoms: N_3  and  C_11
    4  A    between atoms: C_6  and  C_11
                            x       y       z     vdW  Elec       q    Type
                         _______ _______ _______ _____ _____    ______ ____

>  <TORSDO>
F 4

$$$$
=
 OpenBabel11052418083D

 28 31  0  0  1  0  0  0  0  0999 V2000
  192.7080  176.3130  143.9440 C   0  0  0  0  0  0  0  0  0  0  0  0
  187.9830  176.9460  141.5750 C   0  0  0  0  0  2  0  0  0  0  0  0
  189.6540  177.4500  147.4480 O   0  0  0  0  0  0  0  0  0  0  0  0
  186.5840  177.7350  143.4680 C   0  0  2  0  0  3  0  0  0  0  0  0
  188.9790  176.9770  143.8760 C   0  0  1  0  0  3  0  0  0  0  0  0
  185.8820  178.1970  141.0720 C   0  0  0  0  0  0  0  0  0  0  0  0
  188.0130  177.6840  142.9130 C   0  0  1  0  0  3  0  0  0  0  0  0
  187.4260  177.5650  145.7890 C   0  0  0  0  0  2  0  0  0  0  0  0
  185.6820  178.5360  142.5290 C   0  0  0  0  0  2  0  0  0  0  0  0
  191.1770  176.8080  145.7550 C   0  0  0  0  0  0  0  0  0  0  0  0
  190.4130  177.2480  143.4040 C   0  0  0  0  0  2  0  0  0  0  0  0
  186.5780  178.3890  144.8380 C   0  0  0  0  0  2  0  0  0  0  0  0
  193.3460  175.9770  146.2490 C   0  0  0  0  0  3  0  0  0  0  0  0
  189.8520  177.2460  146.2190 C   0  0  0  0  0  0  0  0  0  0  0  0
  192.1270  176.4220  146.6500 N   0  0  0  0  0  0  0  0  0  0  0  0
  185.0170  178.7070  140.1590 F   0  0  0  0  0  0  0  0  0  0  0  0
  186.9700  177.5430  140.6360 C   0  0  0  0  0  3  0  0  0  0  0  0
  188.7860  177.4220  145.2700 N   0  0  0  0  0  0  0  0  0  0  0  0
  193.6540  175.9100  144.8910 C   0  0  0  0  0  3  0  0  0  0  0  0
  191.4420  176.7490  144.3780 C   0  0  0  0  0  0  0  0  0  0  0  0
  193.0580  176.2420  142.4760 C   0  0  0  0  0  2  0  0  0  0  0  0
  194.3600  175.6150  142.2020 N   0  0  0  0  0  0  0  0  0  0  0  0
  195.1330  176.5160  141.5430 O   0  0  0  0  0  1  0  0  0  0  0  0
  192.7670  174.3400  140.8430 C   0  0  0  0  0  1  0  0  0  0  0  0
  194.1900  174.4050  141.3780 C   0  0  2  0  0  3  0  0  0  0  0  0
  194.4610  173.1040  142.1440 C   0  0  1  0  0  3  0  0  0  0  0  0
  195.7750  173.1690  142.9000 C   0  0  0  0  0  1  0  0  0  0  0  0
  193.4140  172.7960  143.0150 O   0  0  0  0  0  1  0  0  0  0  0  0
  1 20  2  0  0  0  0
  1 19  1  0  0  0  0
  4  9  1  6  0  0  0
  4 12  1  0  0  0  0
  5 11  1  6  0  0  0
  5 18  1  0  0  0  0
  6  9  1  0  0  0  0
  7  2  1  6  0  0  0
  7  4  1  0  0  0  0
  7  5  1  0  0  0  0
 10 14  1  0  0  0  0
 10 15  2  0  0  0  0
 11 20  1  0  0  0  0
 12  8  1  0  0  0  0
 13 15  1  0  0  0  0
 14  3  2  0  0  0  0
 16  6  1  0  0  0  0
 17  6  2  0  0  0  0
 17  2  1  0  0  0  0
 18  8  1  0  0  0  0
 18 14  1  0  0  0  0
 19 13  2  0  0  0  0
 20 10  1  0  0  0  0
 21  1  1  0  0  0  0
 22 21  1  0  0  0  0
 23 22  1  0  0  0  0
 25 24  1  1  0  0  0
 25 26  1  0  0  0  0
 25 22  1  0  0  0  0
 26 27  1  1  0  0  0
 26 28  1  0  0  0  0
M  END
>  <MODEL>
8

>  <REMARK>
 VINA RESULT:      -6.5      3.359      5.275
  Name = 
  4 active torsions:
  status: ('A' for Active; 'I' for Inactive)
    1  A    between atoms: C_1  and  C_2
    2  A    between atoms: C_2  and  N_3
    3  A    between atoms: N_3  and  C_11
    4  A    between atoms: C_6  and  C_11
                            x       y       z     vdW  Elec       q    Type
                         _______ _______ _______ _____ _____    ______ ____

>  <TORSDO>
F 4

$$$$
=
 OpenBabel11052418083D

 28 31  0  0  1  0  0  0  0  0999 V2000
  186.7360  177.1710  145.6820 C   0  0  0  0  0  0  0  0  0  0  0  0
  190.5180  175.1980  142.4990 C   0  0  0  0  0  2  0  0  0  0  0  0
  190.7860  177.3650  148.2230 O   0  0  0  0  0  0  0  0  0  0  0  0
  192.4780  175.1670  144.0220 C   0  0  2  0  0  3  0  0  0  0  0  0
  190.2900  176.2260  144.7740 C   0  0  1  0  0  3  0  0  0  0  0  0
  192.4250  173.6780  141.9650 C   0  0  0  0  0  0  0  0  0  0  0  0
  190.9470  175.1000  143.9620 C   0  0  1  0  0  3  0  0  0  0  0  0
  192.3900  176.3710  146.1820 C   0  0  0  0  0  2  0  0  0  0  0  0
  193.0870  173.9700  143.2900 C   0  0  0  0  0  2  0  0  0  0  0  0
  188.7790  177.3590  146.9710 C   0  0  0  0  0  0  0  0  0  0  0  0
  188.7980  175.9040  144.9240 C   0  0  0  0  0  2  0  0  0  0  0  0
  192.9460  175.1540  145.4660 C   0  0  0  0  0  2  0  0  0  0  0  0
  186.8270  178.5020  147.6960 C   0  0  0  0  0  3  0  0  0  0  0  0
  190.2040  177.0480  147.1500 C   0  0  0  0  0  0  0  0  0  0  0  0
  188.1340  178.1660  147.8570 N   0  0  0  0  0  0  0  0  0  0  0  0
  192.9910  172.7590  141.1430 F   0  0  0  0  0  0  0  0  0  0  0  0
  191.2210  174.1770  141.6460 C   0  0  0  0  0  3  0  0  0  0  0  0
  190.9310  176.3970  146.0920 N   0  0  0  0  0  0  0  0  0  0  0  0
  186.1090  178.0150  146.6040 C   0  0  0  0  0  3  0  0  0  0  0  0
  188.0960  176.8540  145.8530 C   0  0  0  0  0  0  0  0  0  0  0  0
  185.9430  176.6450  144.5080 C   0  0  0  0  0  2  0  0  0  0  0  0
  185.6920  177.6460  143.4600 N   0  0  0  0  0  0  0  0  0  0  0  0
  184.3720  177.9630  143.4870 O   0  0  0  0  0  1  0  0  0  0  0  0
  186.7880  175.7900  142.2930 C   0  0  0  0  0  1  0  0  0  0  0  0
  186.0500  177.1110  142.1350 C   0  0  2  0  0  3  0  0  0  0  0  0
  186.9470  178.0530  141.3210 C   0  0  1  0  0  3  0  0  0  0  0  0
  188.3590  178.0910  141.8750 C   0  0  0  0  0  1  0  0  0  0  0  0
  186.9650  177.7010  139.9690 O   0  0  0  0  0  1  0  0  0  0  0  0
  1 20  2  0  0  0  0
  1 19  1  0  0  0  0
  4  9  1  6  0  0  0
  4 12  1  0  0  0  0
  5 11  1  1  0  0  0
  5 18  1  0  0  0  0
  6  9  1  0  0  0  0
  7  2  1  6  0  0  0
  7  4  1  0  0  0  0
  7  5  1  0  0  0  0
 10 14  1  0  0  0  0
 10 15  2  0  0  0  0
 11 20  1  0  0  0  0
 12  8  1  0  0  0  0
 13 15  1  0  0  0  0
 14  3  2  0  0  0  0
 16  6  1  0  0  0  0
 17  6  2  0  0  0  0
 17  2  1  0  0  0  0
 18  8  1  0  0  0  0
 18 14  1  0  0  0  0
 19 13  2  0  0  0  0
 20 10  1  0  0  0  0
 21  1  1  0  0  0  0
 22 23  1  0  0  0  0
 22 21  1  0  0  0  0
 25 24  1  1  0  0  0
 25 22  1  0  0  0  0
 26 27  1  1  0  0  0
 26 25  1  0  0  0  0
 28 26  1  0  0  0  0
M  END
>  <MODEL>
9

>  <REMARK>
 VINA RESULT:      -6.4      3.407      7.250
  Name = 
  4 active torsions:
  status: ('A' for Active; 'I' for Inactive)
    1  A    between atoms: C_1  and  C_2
    2  A    between atoms: C_2  and  N_3
    3  A    between atoms: N_3  and  C_11
    4  A    between atoms: C_6  and  C_11
                            x       y       z     vdW  Elec       q    Type
                         _______ _______ _______ _____ _____    ______ ____

>  <TORSDO>
F 4

$$$$
