=
 OpenBabel11052417253D

 25 28  0  0  1  0  0  0  0  0999 V2000
  185.8200  177.9370  143.6620 C   0  0  0  0  0  0  0  0  0  0  0  0
  186.6580  177.7040  144.7540 C   0  0  0  0  0  0  0  0  0  0  0  0
  184.0370  178.7830  145.0620 C   0  0  0  0  0  3  0  0  0  0  0  0
  185.9480  177.7440  142.3060 C   0  0  0  0  0  0  0  0  0  0  0  0
  185.6370  177.5880  139.5720 C   0  0  0  0  0  3  0  0  0  0  0  0
  184.8550  178.5550  146.1830 C   0  0  0  0  0  3  0  0  0  0  0  0
  184.8050  178.1480  141.7170 N   0  0  0  0  0  0  0  0  0  0  0  0
  184.6040  178.0920  140.3760 C   0  0  0  0  0  3  0  0  0  0  0  0
  187.0290  177.7240  147.2400 C   0  0  2  0  0  3  0  0  0  0  0  0
  186.7750  178.6750  148.3990 C   0  0  0  0  0  1  0  0  0  0  0  0
  188.0030  177.0570  144.6010 C   0  0  0  0  0  2  0  0  0  0  0  0
  186.8390  177.1610  140.1700 C   0  0  0  0  0  3  0  0  0  0  0  0
  184.5550  178.4660  143.8100 C   0  0  0  0  0  0  0  0  0  0  0  0
  183.9360  178.5930  142.6160 N   0  0  0  0  0  0  0  0  0  0  0  0
  188.4530  177.7600  146.8960 N   0  0  0  0  0  0  0  0  0  0  0  0
  187.0100  177.2350  141.5600 C   0  0  0  0  0  3  0  0  0  0  0  0
  188.9230  177.4500  145.7210 C   0  0  0  0  0  0  0  0  0  0  0  0
  186.1670  178.0360  146.0390 C   0  0  0  0  0  0  0  0  0  0  0  0
  190.2950  177.4740  145.4830 O   0  0  0  0  0  0  0  0  0  0  0  0
  191.0310  176.3070  145.4100 N   0  0  0  0  0  2  0  0  0  0  0  0
  192.0960  176.3620  146.4090 C   0  0  2  0  0  3  0  0  0  0  0  0
  193.1070  175.3500  146.1420 N   0  0  0  0  0  1  0  0  0  0  0  0
  191.5520  176.2270  147.7970 C   0  0  0  0  0  0  0  0  0  0  0  0
  191.5190  177.3360  148.6300 O   0  0  0  0  0  1  0  0  0  0  0  0
  191.0960  175.1250  148.2040 O   0  0  0  0  0  0  0  0  0  0  0  0
  1 13  1  0  0  0  0
  1  2  1  0  0  0  0
  2 18  2  0  0  0  0
  3  6  2  0  0  0  0
  4  1  2  0  0  0  0
  5 12  1  0  0  0  0
  5  8  2  0  0  0  0
  7  4  1  0  0  0  0
  7 14  1  0  0  0  0
  8  7  1  0  0  0  0
  9 10  1  1  0  0  0
 11  2  1  0  0  0  0
 11 17  1  0  0  0  0
 12 16  2  0  0  0  0
 13  3  1  0  0  0  0
 14 13  2  0  0  0  0
 15  9  1  0  0  0  0
 16  4  1  0  0  0  0
 17 15  2  0  0  0  0
 18  6  1  0  0  0  0
 18  9  1  0  0  0  0
 19 17  1  0  0  0  0
 20 19  1  0  0  0  0
 20 21  1  0  0  0  0
 21 22  1  6  0  0  0
 21 23  1  0  0  0  0
 23 25  2  0  0  0  0
 23 24  1  0  0  0  0
M  END
>  <MODEL>
1

>  <REMARK>
 VINA RESULT:      -7.4      0.000      0.000
  Name = 
  4 active torsions:
  status: ('A' for Active; 'I' for Inactive)
    1  A    between atoms: C_2  and  C_21
    2  A    between atoms: O_6  and  N_15
    3  A    between atoms: O_6  and  C_23
    4  A    between atoms: N_15  and  C_21
                            x       y       z     vdW  Elec       q    Type
                         _______ _______ _______ _____ _____    ______ ____

>  <TORSDO>
F 4

$$$$
=
 OpenBabel11052417253D

 25 28  0  0  1  0  0  0  0  0999 V2000
  185.9980  177.8790  143.5770 C   0  0  0  0  0  0  0  0  0  0  0  0
  186.7060  177.6450  144.7570 C   0  0  0  0  0  0  0  0  0  0  0  0
  184.1730  178.9530  144.7480 C   0  0  0  0  0  3  0  0  0  0  0  0
  186.2350  177.5930  142.2520 C   0  0  0  0  0  0  0  0  0  0  0  0
  186.1680  177.2970  139.5130 C   0  0  0  0  0  3  0  0  0  0  0  0
  184.8600  178.7270  145.9550 C   0  0  0  0  0  3  0  0  0  0  0  0
  185.1920  178.0540  141.5330 N   0  0  0  0  0  0  0  0  0  0  0  0
  185.1120  177.9330  140.1840 C   0  0  0  0  0  3  0  0  0  0  0  0
  186.8440  177.7850  147.2630 C   0  0  2  0  0  3  0  0  0  0  0  0
  186.5680  178.8230  148.3400 C   0  0  0  0  0  1  0  0  0  0  0  0
  187.9980  176.8800  144.7710 C   0  0  0  0  0  2  0  0  0  0  0  0
  187.2660  176.8100  140.2470 C   0  0  0  0  0  3  0  0  0  0  0  0
  184.7760  178.5180  143.5720 C   0  0  0  0  0  0  0  0  0  0  0  0
  184.2850  178.6230  142.3180 N   0  0  0  0  0  0  0  0  0  0  0  0
  188.2920  177.6830  147.0590 N   0  0  0  0  0  0  0  0  0  0  0  0
  187.3130  176.9540  141.6420 C   0  0  0  0  0  3  0  0  0  0  0  0
  188.8400  177.2640  145.9530 C   0  0  0  0  0  0  0  0  0  0  0  0
  186.1290  178.0930  145.9680 C   0  0  0  0  0  0  0  0  0  0  0  0
  190.2250  177.1600  145.8500 O   0  0  0  0  0  0  0  0  0  0  0  0
  190.8520  175.9300  145.8270 N   0  0  0  0  0  2  0  0  0  0  0  0
  191.9830  175.9620  146.7510 C   0  0  2  0  0  3  0  0  0  0  0  0
  191.6490  176.7130  147.9520 N   0  0  0  0  0  1  0  0  0  0  0  0
  193.2100  176.5150  146.0950 C   0  0  0  0  0  0  0  0  0  0  0  0
  194.2180  177.0600  146.8770 O   0  0  0  0  0  1  0  0  0  0  0  0
  193.3490  176.4610  144.8440 O   0  0  0  0  0  0  0  0  0  0  0  0
  1  2  1  0  0  0  0
  2 11  1  0  0  0  0
  2 18  2  0  0  0  0
  3  6  2  0  0  0  0
  4  1  2  0  0  0  0
  5  8  2  0  0  0  0
  5 12  1  0  0  0  0
  6 18  1  0  0  0  0
  7  4  1  0  0  0  0
  7 14  1  0  0  0  0
  8  7  1  0  0  0  0
  9 10  1  1  0  0  0
 11 17  1  0  0  0  0
 12 16  2  0  0  0  0
 13  1  1  0  0  0  0
 13  3  1  0  0  0  0
 14 13  2  0  0  0  0
 15  9  1  0  0  0  0
 16  4  1  0  0  0  0
 17 15  2  0  0  0  0
 18  9  1  0  0  0  0
 19 17  1  0  0  0  0
 20 19  1  0  0  0  0
 20 21  1  0  0  0  0
 21 22  1  1  0  0  0
 23 21  1  0  0  0  0
 23 24  1  0  0  0  0
 25 23  2  0  0  0  0
M  END
>  <MODEL>
2

>  <REMARK>
 VINA RESULT:      -7.3      1.146      1.339
  Name = 
  4 active torsions:
  status: ('A' for Active; 'I' for Inactive)
    1  A    between atoms: C_2  and  C_21
    2  A    between atoms: O_6  and  N_15
    3  A    between atoms: O_6  and  C_23
    4  A    between atoms: N_15  and  C_21
                            x       y       z     vdW  Elec       q    Type
                         _______ _______ _______ _____ _____    ______ ____

>  <TORSDO>
F 4

$$$$
=
 OpenBabel11052417253D

 25 28  0  0  1  0  0  0  0  0999 V2000
  186.8510  176.9980  144.3490 C   0  0  0  0  0  0  0  0  0  0  0  0
  188.0580  176.3850  144.0080 C   0  0  0  0  0  0  0  0  0  0  0  0
  186.0140  176.8740  142.0820 C   0  0  0  0  0  3  0  0  0  0  0  0
  186.3360  177.5000  145.5220 C   0  0  0  0  0  0  0  0  0  0  0  0
  184.8200  178.6400  147.5220 C   0  0  0  0  0  3  0  0  0  0  0  0
  187.2210  176.2590  141.7060 C   0  0  0  0  0  3  0  0  0  0  0  0
  185.1070  177.9900  145.2630 N   0  0  0  0  0  0  0  0  0  0  0  0
  184.3230  178.5590  146.2120 C   0  0  0  0  0  3  0  0  0  0  0  0
  189.5640  175.3960  142.2560 C   0  0  2  0  0  3  0  0  0  0  0  0
  189.4340  174.4330  141.0860 C   0  0  0  0  0  1  0  0  0  0  0  0
  189.1680  176.2060  145.0030 C   0  0  0  0  0  2  0  0  0  0  0  0
  186.1020  178.1330  147.8110 C   0  0  0  0  0  3  0  0  0  0  0  0
  185.8590  177.2280  143.4180 C   0  0  0  0  0  0  0  0  0  0  0  0
  184.7930  177.8370  143.9830 N   0  0  0  0  0  0  0  0  0  0  0  0
  190.1980  174.7000  143.3790 N   0  0  0  0  0  0  0  0  0  0  0  0
  186.8840  177.5510  146.8030 C   0  0  0  0  0  3  0  0  0  0  0  0
  190.0500  175.0510  144.6250 C   0  0  0  0  0  0  0  0  0  0  0  0
  188.2370  175.9950  142.6600 C   0  0  0  0  0  0  0  0  0  0  0  0
  190.7160  174.3600  145.6340 O   0  0  0  0  0  0  0  0  0  0  0  0
  192.0960  174.2930  145.6680 N   0  0  0  0  0  2  0  0  0  0  0  0
  192.5790  175.1350  146.7600 C   0  0  2  0  0  3  0  0  0  0  0  0
  191.5160  175.4030  147.7170 N   0  0  0  0  0  1  0  0  0  0  0  0
  193.1740  176.4090  146.2470 C   0  0  0  0  0  0  0  0  0  0  0  0
  194.1190  177.0790  147.0100 O   0  0  0  0  0  1  0  0  0  0  0  0
  192.8500  176.8600  145.1160 O   0  0  0  0  0  0  0  0  0  0  0  0
  1  4  2  0  0  0  0
  2  1  1  0  0  0  0
  2 11  1  0  0  0  0
  3 13  1  0  0  0  0
  4 16  1  0  0  0  0
  5 12  1  0  0  0  0
  6  3  2  0  0  0  0
  6 18  1  0  0  0  0
  7  4  1  0  0  0  0
  7  8  1  0  0  0  0
  8  5  2  0  0  0  0
  9 10  1  6  0  0  0
  9 18  1  0  0  0  0
  9 15  1  0  0  0  0
 13 14  2  0  0  0  0
 13  1  1  0  0  0  0
 14  7  1  0  0  0  0
 15 17  2  0  0  0  0
 16 12  2  0  0  0  0
 17 11  1  0  0  0  0
 17 19  1  0  0  0  0
 18  2  2  0  0  0  0
 19 20  1  0  0  0  0
 20 21  1  0  0  0  0
 21 22  1  1  0  0  0
 23 21  1  0  0  0  0
 23 24  1  0  0  0  0
 25 23  2  0  0  0  0
M  END
>  <MODEL>
3

>  <REMARK>
 VINA RESULT:      -7.1      2.004      4.441
  Name = 
  4 active torsions:
  status: ('A' for Active; 'I' for Inactive)
    1  A    between atoms: C_2  and  C_21
    2  A    between atoms: O_6  and  N_15
    3  A    between atoms: O_6  and  C_23
    4  A    between atoms: N_15  and  C_21
                            x       y       z     vdW  Elec       q    Type
                         _______ _______ _______ _____ _____    ______ ____

>  <TORSDO>
F 4

$$$$
=
 OpenBabel11052417253D

 25 28  0  0  1  0  0  0  0  0999 V2000
  187.5960  176.8890  144.6130 C   0  0  0  0  0  0  0  0  0  0  0  0
  188.9480  176.6600  144.3580 C   0  0  0  0  0  0  0  0  0  0  0  0
  186.9180  175.9740  142.4780 C   0  0  0  0  0  3  0  0  0  0  0  0
  186.9060  177.4410  145.6680 C   0  0  0  0  0  0  0  0  0  0  0  0
  185.0340  178.4260  147.4350 C   0  0  0  0  0  3  0  0  0  0  0  0
  188.2740  175.7350  142.1890 C   0  0  0  0  0  3  0  0  0  0  0  0
  185.5920  177.4130  145.3690 N   0  0  0  0  0  0  0  0  0  0  0  0
  184.6330  177.8840  146.2040 C   0  0  0  0  0  3  0  0  0  0  0  0
  190.7530  175.8670  142.7980 C   0  0  2  0  0  3  0  0  0  0  0  0
  190.9930  174.6760  141.8830 C   0  0  0  0  0  1  0  0  0  0  0  0
  190.0230  177.0990  145.3090 C   0  0  0  0  0  2  0  0  0  0  0  0
  186.4020  178.4630  147.7650 C   0  0  0  0  0  3  0  0  0  0  0  0
  186.6120  176.5510  143.7070 C   0  0  0  0  0  0  0  0  0  0  0  0
  185.3870  176.8740  144.1730 N   0  0  0  0  0  0  0  0  0  0  0  0
  191.5520  175.7020  144.0150 N   0  0  0  0  0  0  0  0  0  0  0  0
  187.3660  177.9660  146.8750 C   0  0  0  0  0  3  0  0  0  0  0  0
  191.2570  176.2580  145.1560 C   0  0  0  0  0  0  0  0  0  0  0  0
  189.2900  176.0560  143.1250 C   0  0  0  0  0  0  0  0  0  0  0  0
  192.0890  176.0830  146.2600 O   0  0  0  0  0  0  0  0  0  0  0  0
  193.0700  175.1110  146.2710 N   0  0  0  0  0  2  0  0  0  0  0  0
  194.3690  175.7580  146.4390 C   0  0  2  0  0  3  0  0  0  0  0  0
  194.2070  177.1560  146.8080 N   0  0  0  0  0  1  0  0  0  0  0  0
  195.2120  175.6210  145.2090 C   0  0  0  0  0  0  0  0  0  0  0  0
  194.9250  176.3930  144.0920 O   0  0  0  0  0  0  0  0  0  0  0  0
  196.1960  174.8350  145.1890 O   0  0  0  0  0  1  0  0  0  0  0  0
  1  4  2  0  0  0  0
  2  1  1  0  0  0  0
  2 11  1  0  0  0  0
  3 13  1  0  0  0  0
  4 16  1  0  0  0  0
  5 12  1  0  0  0  0
  6  3  2  0  0  0  0
  6 18  1  0  0  0  0
  7  4  1  0  0  0  0
  7  8  1  0  0  0  0
  8  5  2  0  0  0  0
  9 10  1  6  0  0  0
  9 18  1  0  0  0  0
  9 15  1  0  0  0  0
 13 14  2  0  0  0  0
 13  1  1  0  0  0  0
 14  7  1  0  0  0  0
 15 17  2  0  0  0  0
 16 12  2  0  0  0  0
 17 11  1  0  0  0  0
 17 19  1  0  0  0  0
 18  2  2  0  0  0  0
 19 20  1  0  0  0  0
 20 21  1  0  0  0  0
 21 22  1  6  0  0  0
 23 21  1  0  0  0  0
 24 23  2  0  0  0  0
 25 23  1  0  0  0  0
M  END
>  <MODEL>
4

>  <REMARK>
 VINA RESULT:      -7.0      2.573      4.810
  Name = 
  4 active torsions:
  status: ('A' for Active; 'I' for Inactive)
    1  A    between atoms: C_2  and  C_21
    2  A    between atoms: O_6  and  N_15
    3  A    between atoms: O_6  and  C_23
    4  A    between atoms: N_15  and  C_21
                            x       y       z     vdW  Elec       q    Type
                         _______ _______ _______ _____ _____    ______ ____

>  <TORSDO>
F 4

$$$$
=
 OpenBabel11052417253D

 25 28  0  0  1  0  0  0  0  0999 V2000
  187.3280  176.7010  144.2080 C   0  0  0  0  0  0  0  0  0  0  0  0
  188.5020  176.0280  144.5510 C   0  0  0  0  0  0  0  0  0  0  0  0
  186.5780  176.8050  146.5060 C   0  0  0  0  0  3  0  0  0  0  0  0
  186.7900  177.1290  143.0160 C   0  0  0  0  0  0  0  0  0  0  0  0
  185.2570  178.1890  140.9860 C   0  0  0  0  0  3  0  0  0  0  0  0
  187.7490  176.1220  146.8840 C   0  0  0  0  0  3  0  0  0  0  0  0
  185.6120  177.7270  143.2810 N   0  0  0  0  0  0  0  0  0  0  0  0
  184.8220  178.2640  142.3180 C   0  0  0  0  0  3  0  0  0  0  0  0
  189.9490  174.9560  146.3050 C   0  0  2  0  0  3  0  0  0  0  0  0
  190.4410  175.2930  147.7040 C   0  0  0  0  0  1  0  0  0  0  0  0
  189.4730  175.5430  143.5150 C   0  0  0  0  0  2  0  0  0  0  0  0
  186.4850  177.5670  140.6900 C   0  0  0  0  0  3  0  0  0  0  0  0
  186.4010  177.0830  145.1550 C   0  0  0  0  0  0  0  0  0  0  0  0
  185.3500  177.7110  144.5830 N   0  0  0  0  0  0  0  0  0  0  0  0
  191.0400  175.1710  145.3510 N   0  0  0  0  0  0  0  0  0  0  0  0
  187.2750  177.0240  141.7140 C   0  0  0  0  0  3  0  0  0  0  0  0
  190.8570  175.4210  144.0850 C   0  0  0  0  0  0  0  0  0  0  0  0
  188.7210  175.7480  145.9210 C   0  0  0  0  0  0  0  0  0  0  0  0
  191.9480  175.5770  143.2340 O   0  0  0  0  0  0  0  0  0  0  0  0
  193.1890  175.0650  143.5570 N   0  0  0  0  0  2  0  0  0  0  0  0
  194.1250  176.1740  143.7250 C   0  0  2  0  0  3  0  0  0  0  0  0
  195.3320  175.9550  142.9430 N   0  0  0  0  0  1  0  0  0  0  0  0
  194.4520  176.4000  145.1680 C   0  0  0  0  0  0  0  0  0  0  0  0
  194.6280  175.3110  146.0100 O   0  0  0  0  0  1  0  0  0  0  0  0
  194.6000  177.5670  145.6180 O   0  0  0  0  0  0  0  0  0  0  0  0
  1  2  1  0  0  0  0
  1 13  1  0  0  0  0
  2 18  2  0  0  0  0
  3  6  2  0  0  0  0
  4  7  1  0  0  0  0
  4  1  2  0  0  0  0
  5  8  2  0  0  0  0
  7 14  1  0  0  0  0
  8  7  1  0  0  0  0
  9 10  1  1  0  0  0
 11 17  1  0  0  0  0
 11  2  1  0  0  0  0
 12  5  1  0  0  0  0
 12 16  2  0  0  0  0
 13  3  1  0  0  0  0
 14 13  2  0  0  0  0
 15  9  1  0  0  0  0
 16  4  1  0  0  0  0
 17 15  2  0  0  0  0
 18  9  1  0  0  0  0
 18  6  1  0  0  0  0
 19 20  1  0  0  0  0
 19 17  1  0  0  0  0
 20 21  1  0  0  0  0
 21 22  1  6  0  0  0
 21 23  1  0  0  0  0
 23 25  2  0  0  0  0
 23 24  1  0  0  0  0
M  END
>  <MODEL>
5

>  <REMARK>
 VINA RESULT:      -6.9      2.335      3.214
  Name = 
  4 active torsions:
  status: ('A' for Active; 'I' for Inactive)
    1  A    between atoms: C_2  and  C_21
    2  A    between atoms: O_6  and  N_15
    3  A    between atoms: O_6  and  C_23
    4  A    between atoms: N_15  and  C_21
                            x       y       z     vdW  Elec       q    Type
                         _______ _______ _______ _____ _____    ______ ____

>  <TORSDO>
F 4

$$$$
=
 OpenBabel11052417253D

 25 28  0  0  1  0  0  0  0  0999 V2000
  189.0450  175.4060  144.9650 C   0  0  0  0  0  0  0  0  0  0  0  0
  188.2250  176.5050  145.2250 C   0  0  0  0  0  0  0  0  0  0  0  0
  188.9590  174.6520  147.2630 C   0  0  0  0  0  3  0  0  0  0  0  0
  189.6780  174.9360  143.8380 C   0  0  0  0  0  0  0  0  0  0  0  0
  191.1430  173.5530  141.9570 C   0  0  0  0  0  3  0  0  0  0  0  0
  188.1350  175.7530  147.5580 C   0  0  0  0  0  3  0  0  0  0  0  0
  190.3530  173.8180  144.1730 N   0  0  0  0  0  0  0  0  0  0  0  0
  191.0870  173.1030  143.2840 C   0  0  0  0  0  3  0  0  0  0  0  0
  186.9210  177.8930  146.8650 C   0  0  2  0  0  3  0  0  0  0  0  0
  185.9400  177.6500  148.0030 C   0  0  0  0  0  1  0  0  0  0  0  0
  187.9080  177.5280  144.1730 C   0  0  0  0  0  2  0  0  0  0  0  0
  190.4440  174.7190  141.5880 C   0  0  0  0  0  3  0  0  0  0  0  0
  189.3940  174.5050  145.9500 C   0  0  0  0  0  0  0  0  0  0  0  0
  190.1960  173.5340  145.4600 N   0  0  0  0  0  0  0  0  0  0  0  0
  186.1800  178.3540  145.6880 N   0  0  0  0  0  0  0  0  0  0  0  0
  189.6940  175.4320  142.5350 C   0  0  0  0  0  3  0  0  0  0  0  0
  186.6070  178.2180  144.4640 C   0  0  0  0  0  0  0  0  0  0  0  0
  187.7490  176.6700  146.5470 C   0  0  0  0  0  0  0  0  0  0  0  0
  185.8610  178.7170  143.3990 O   0  0  0  0  0  0  0  0  0  0  0  0
  185.1800  177.8730  142.5430 N   0  0  0  0  0  2  0  0  0  0  0  0
  185.2470  178.4220  141.1910 C   0  0  2  0  0  3  0  0  0  0  0  0
  183.9660  178.2870  140.5140 N   0  0  0  0  0  1  0  0  0  0  0  0
  186.3460  177.7890  140.3960 C   0  0  0  0  0  0  0  0  0  0  0  0
  187.6530  177.8600  140.8570 O   0  0  0  0  0  1  0  0  0  0  0  0
  186.0910  177.1650  139.3320 O   0  0  0  0  0  0  0  0  0  0  0  0
  1  2  1  0  0  0  0
  1 13  1  0  0  0  0
  2 18  2  0  0  0  0
  3  6  2  0  0  0  0
  4  7  1  0  0  0  0
  4  1  2  0  0  0  0
  5  8  2  0  0  0  0
  7 14  1  0  0  0  0
  8  7  1  0  0  0  0
  9 10  1  1  0  0  0
 11 17  1  0  0  0  0
 11  2  1  0  0  0  0
 12  5  1  0  0  0  0
 12 16  2  0  0  0  0
 13  3  1  0  0  0  0
 14 13  2  0  0  0  0
 15  9  1  0  0  0  0
 16  4  1  0  0  0  0
 17 15  2  0  0  0  0
 18  9  1  0  0  0  0
 18  6  1  0  0  0  0
 19 17  1  0  0  0  0
 20 19  1  0  0  0  0
 21 22  1  6  0  0  0
 21 20  1  0  0  0  0
 23 24  1  0  0  0  0
 23 21  1  0  0  0  0
 25 23  2  0  0  0  0
M  END
>  <MODEL>
6

>  <REMARK>
 VINA RESULT:      -6.9      3.207      6.349
  Name = 
  4 active torsions:
  status: ('A' for Active; 'I' for Inactive)
    1  A    between atoms: C_2  and  C_21
    2  A    between atoms: O_6  and  N_15
    3  A    between atoms: O_6  and  C_23
    4  A    between atoms: N_15  and  C_21
                            x       y       z     vdW  Elec       q    Type
                         _______ _______ _______ _____ _____    ______ ____

>  <TORSDO>
F 4

$$$$
=
 OpenBabel11052417253D

 25 28  0  0  1  0  0  0  0  0999 V2000
  185.7350  177.7270  143.7460 C   0  0  0  0  0  0  0  0  0  0  0  0
  186.5450  177.3000  142.6920 C   0  0  0  0  0  0  0  0  0  0  0  0
  184.0730  178.6500  142.2490 C   0  0  0  0  0  3  0  0  0  0  0  0
  185.8440  177.6650  145.1160 C   0  0  0  0  0  0  0  0  0  0  0  0
  185.5230  177.8300  147.8480 C   0  0  0  0  0  3  0  0  0  0  0  0
  184.8700  178.2360  141.1650 C   0  0  0  0  0  3  0  0  0  0  0  0
  184.7530  178.2500  145.6490 N   0  0  0  0  0  0  0  0  0  0  0  0
  184.5490  178.3550  146.9860 C   0  0  0  0  0  3  0  0  0  0  0  0
  186.9870  177.1590  140.2220 C   0  0  2  0  0  3  0  0  0  0  0  0
  186.2010  176.8240  138.9640 C   0  0  0  0  0  1  0  0  0  0  0  0
  187.8860  176.6660  142.9250 C   0  0  0  0  0  2  0  0  0  0  0  0
  186.6690  177.2140  147.3100 C   0  0  0  0  0  3  0  0  0  0  0  0
  184.5360  178.3730  143.5310 C   0  0  0  0  0  0  0  0  0  0  0  0
  183.9380  178.6930  144.7000 N   0  0  0  0  0  0  0  0  0  0  0  0
  187.8390  176.0180  140.5710 N   0  0  0  0  0  0  0  0  0  0  0  0
  186.8460  177.1240  145.9210 C   0  0  0  0  0  3  0  0  0  0  0  0
  188.2710  175.7800  141.7770 C   0  0  0  0  0  0  0  0  0  0  0  0
  186.0920  177.5480  141.3750 C   0  0  0  0  0  0  0  0  0  0  0  0
  189.1080  174.6940  142.0220 O   0  0  0  0  0  0  0  0  0  0  0  0
  188.9340  173.8900  143.1320 N   0  0  0  0  0  2  0  0  0  0  0  0
  190.1920  173.8320  143.8720 C   0  0  2  0  0  3  0  0  0  0  0  0
  190.5010  172.4650  144.2610 N   0  0  0  0  0  1  0  0  0  0  0  0
  190.1690  174.7390  145.0620 C   0  0  0  0  0  0  0  0  0  0  0  0
  191.0420  175.8160  145.1200 O   0  0  0  0  0  0  0  0  0  0  0  0
  189.3440  174.5520  145.9960 O   0  0  0  0  0  1  0  0  0  0  0  0
  1  4  2  0  0  0  0
  2 11  1  0  0  0  0
  2  1  1  0  0  0  0
  3 13  1  0  0  0  0
  4  7  1  0  0  0  0
  4 16  1  0  0  0  0
  6 18  1  0  0  0  0
  6  3  2  0  0  0  0
  7  8  1  0  0  0  0
  8  5  2  0  0  0  0
  9 10  1  6  0  0  0
  9 15  1  0  0  0  0
  9 18  1  0  0  0  0
 12  5  1  0  0  0  0
 13  1  1  0  0  0  0
 13 14  2  0  0  0  0
 14  7  1  0  0  0  0
 15 17  2  0  0  0  0
 16 12  2  0  0  0  0
 17 19  1  0  0  0  0
 17 11  1  0  0  0  0
 18  2  2  0  0  0  0
 19 20  1  0  0  0  0
 20 21  1  0  0  0  0
 21 22  1  1  0  0  0
 21 23  1  0  0  0  0
 23 24  2  0  0  0  0
 23 25  1  0  0  0  0
M  END
>  <MODEL>
7

>  <REMARK>
 VINA RESULT:      -6.8      2.340      4.833
  Name = 
  4 active torsions:
  status: ('A' for Active; 'I' for Inactive)
    1  A    between atoms: C_2  and  C_21
    2  A    between atoms: O_6  and  N_15
    3  A    between atoms: O_6  and  C_23
    4  A    between atoms: N_15  and  C_21
                            x       y       z     vdW  Elec       q    Type
                         _______ _______ _______ _____ _____    ______ ____

>  <TORSDO>
F 4

$$$$
=
 OpenBabel11052417253D

 25 28  0  0  1  0  0  0  0  0999 V2000
  185.7680  177.6610  143.7110 C   0  0  0  0  0  0  0  0  0  0  0  0
  186.5760  177.2180  142.6630 C   0  0  0  0  0  0  0  0  0  0  0  0
  184.1330  178.6130  142.2030 C   0  0  0  0  0  3  0  0  0  0  0  0
  185.8670  177.5980  145.0820 C   0  0  0  0  0  0  0  0  0  0  0  0
  185.5320  177.7720  147.8120 C   0  0  0  0  0  3  0  0  0  0  0  0
  184.9280  178.1840  141.1250 C   0  0  0  0  0  3  0  0  0  0  0  0
  184.7840  178.2040  145.6080 N   0  0  0  0  0  0  0  0  0  0  0  0
  184.5740  178.3150  146.9430 C   0  0  0  0  0  3  0  0  0  0  0  0
  187.0310  177.0670  140.1960 C   0  0  2  0  0  3  0  0  0  0  0  0
  186.2470  176.7450  138.9330 C   0  0  0  0  0  1  0  0  0  0  0  0
  187.9030  176.5590  142.9050 C   0  0  0  0  0  2  0  0  0  0  0  0
  186.6700  177.1350  147.2810 C   0  0  0  0  0  3  0  0  0  0  0  0
  184.5820  178.3300  143.4890 C   0  0  0  0  0  0  0  0  0  0  0  0
  183.9830  178.6610  144.6530 N   0  0  0  0  0  0  0  0  0  0  0  0
  187.8590  175.9100  140.5510 N   0  0  0  0  0  0  0  0  0  0  0  0
  186.8530  177.0400  145.8930 C   0  0  0  0  0  3  0  0  0  0  0  0
  188.2800  175.6650  141.7590 C   0  0  0  0  0  0  0  0  0  0  0  0
  186.1360  177.4730  141.3430 C   0  0  0  0  0  0  0  0  0  0  0  0
  189.0950  174.5640  142.0110 O   0  0  0  0  0  0  0  0  0  0  0  0
  188.5810  173.2810  142.0300 N   0  0  0  0  0  2  0  0  0  0  0  0
  189.4170  172.4290  141.1880 C   0  0  2  0  0  3  0  0  0  0  0  0
  190.8260  172.6250  141.4910 N   0  0  0  0  0  1  0  0  0  0  0  0
  189.1420  172.6560  139.7350 C   0  0  0  0  0  0  0  0  0  0  0  0
  190.1880  172.9720  138.8810 O   0  0  0  0  0  0  0  0  0  0  0  0
  187.9750  172.5320  139.2750 O   0  0  0  0  0  1  0  0  0  0  0  0
  1  4  2  0  0  0  0
  2 11  1  0  0  0  0
  2  1  1  0  0  0  0
  3 13  1  0  0  0  0
  4  7  1  0  0  0  0
  4 16  1  0  0  0  0
  6 18  1  0  0  0  0
  6  3  2  0  0  0  0
  7  8  1  0  0  0  0
  8  5  2  0  0  0  0
  9 10  1  6  0  0  0
  9 15  1  0  0  0  0
  9 18  1  0  0  0  0
 12  5  1  0  0  0  0
 13  1  1  0  0  0  0
 13 14  2  0  0  0  0
 14  7  1  0  0  0  0
 15 17  2  0  0  0  0
 16 12  2  0  0  0  0
 17 19  1  0  0  0  0
 17 11  1  0  0  0  0
 18  2  2  0  0  0  0
 19 20  1  0  0  0  0
 21 22  1  6  0  0  0
 21 20  1  0  0  0  0
 23 21  1  0  0  0  0
 24 23  2  0  0  0  0
 25 23  1  0  0  0  0
M  END
>  <MODEL>
8

>  <REMARK>
 VINA RESULT:      -6.7      3.545      6.024
  Name = 
  4 active torsions:
  status: ('A' for Active; 'I' for Inactive)
    1  A    between atoms: C_2  and  C_21
    2  A    between atoms: O_6  and  N_15
    3  A    between atoms: O_6  and  C_23
    4  A    between atoms: N_15  and  C_21
                            x       y       z     vdW  Elec       q    Type
                         _______ _______ _______ _____ _____    ______ ____

>  <TORSDO>
F 4

$$$$
=
 OpenBabel11052417253D

 25 28  0  0  1  0  0  0  0  0999 V2000
  192.0320  176.4720  145.0560 C   0  0  0  0  0  0  0  0  0  0  0  0
  190.6900  176.8190  144.8930 C   0  0  0  0  0  0  0  0  0  0  0  0
  191.8380  176.3910  147.4670 C   0  0  0  0  0  3  0  0  0  0  0  0
  193.0760  176.2700  144.1840 C   0  0  0  0  0  0  0  0  0  0  0  0
  195.4850  175.7520  142.9480 C   0  0  0  0  0  3  0  0  0  0  0  0
  190.4830  176.7450  147.3360 C   0  0  0  0  0  3  0  0  0  0  0  0
  194.1690  175.9540  144.9060 N   0  0  0  0  0  0  0  0  0  0  0  0
  195.3760  175.6900  144.3450 C   0  0  0  0  0  3  0  0  0  0  0  0
  188.4620  177.3890  145.9080 C   0  0  2  0  0  3  0  0  0  0  0  0
  187.5680  176.8470  147.0130 C   0  0  0  0  0  1  0  0  0  0  0  0
  190.1070  177.1290  143.5450 C   0  0  0  0  0  2  0  0  0  0  0  0
  194.3530  176.0810  142.1760 C   0  0  0  0  0  3  0  0  0  0  0  0
  192.5860  176.2580  146.3020 C   0  0  0  0  0  0  0  0  0  0  0  0
  193.8950  175.9410  146.2050 N   0  0  0  0  0  0  0  0  0  0  0  0
  187.9140  176.9860  144.6100 N   0  0  0  0  0  0  0  0  0  0  0  0
  193.1210  176.3470  142.7930 C   0  0  0  0  0  3  0  0  0  0  0  0
  188.6270  176.8760  143.5250 C   0  0  0  0  0  0  0  0  0  0  0  0
  189.8980  176.9420  146.0590 C   0  0  0  0  0  0  0  0  0  0  0  0
  188.0250  176.5240  142.3200 O   0  0  0  0  0  0  0  0  0  0  0  0
  186.6770  176.2270  142.2510 N   0  0  0  0  0  2  0  0  0  0  0  0
  186.0190  177.2280  141.4150 C   0  0  2  0  0  3  0  0  0  0  0  0
  186.9740  177.8650  140.5210 N   0  0  0  0  0  1  0  0  0  0  0  0
  185.2960  178.2430  142.2430 C   0  0  0  0  0  0  0  0  0  0  0  0
  186.0180  179.2200  142.9130 O   0  0  0  0  0  1  0  0  0  0  0  0
  184.0380  178.2390  142.3110 O   0  0  0  0  0  0  0  0  0  0  0  0
  1 13  1  0  0  0  0
  2  1  1  0  0  0  0
  2 18  2  0  0  0  0
  4  7  1  0  0  0  0
  4  1  2  0  0  0  0
  5  8  2  0  0  0  0
  6  3  2  0  0  0  0
  7 14  1  0  0  0  0
  8  7  1  0  0  0  0
  9 18  1  0  0  0  0
  9 10  1  1  0  0  0
 11  2  1  0  0  0  0
 12 16  2  0  0  0  0
 12  5  1  0  0  0  0
 13  3  1  0  0  0  0
 14 13  2  0  0  0  0
 15  9  1  0  0  0  0
 16  4  1  0  0  0  0
 17 11  1  0  0  0  0
 17 15  2  0  0  0  0
 18  6  1  0  0  0  0
 19 17  1  0  0  0  0
 20 19  1  0  0  0  0
 21 22  1  1  0  0  0
 21 23  1  0  0  0  0
 21 20  1  0  0  0  0
 23 25  2  0  0  0  0
 23 24  1  0  0  0  0
M  END
>  <MODEL>
9

>  <REMARK>
 VINA RESULT:      -6.6      2.964      7.301
  Name = 
  4 active torsions:
  status: ('A' for Active; 'I' for Inactive)
    1  A    between atoms: C_2  and  C_21
    2  A    between atoms: O_6  and  N_15
    3  A    between atoms: O_6  and  C_23
    4  A    between atoms: N_15  and  C_21
                            x       y       z     vdW  Elec       q    Type
                         _______ _______ _______ _____ _____    ______ ____

>  <TORSDO>
F 4

$$$$
