=
 OpenBabel11052418303D

 27 30  0  0  1  0  0  0  0  0999 V2000
  190.2820  176.0800  144.6590 N   0  0  0  0  0  0  0  0  0  0  0  0
  189.8690  174.2610  146.0630 O   0  0  0  0  0  0  0  0  0  0  0  0
  190.0540  174.6700  144.8850 C   0  0  0  0  0  0  0  0  0  0  0  0
  190.0260  171.8350  141.6940 C   0  0  0  0  0  3  0  0  0  0  0  0
  188.0130  172.8670  140.6540 C   0  0  0  0  0  1  0  0  0  0  0  0
  189.0350  173.7630  142.7680 C   0  0  0  0  0  0  0  0  0  0  0  0
  188.0660  174.7150  142.8080 F   0  0  0  0  0  0  0  0  0  0  0  0
  190.0170  173.6880  143.7740 C   0  0  0  0  0  0  0  0  0  0  0  0
  189.0440  172.8240  141.7270 C   0  0  0  0  0  0  0  0  0  0  0  0
  190.9640  172.7090  143.7040 N   0  0  0  0  0  0  0  0  0  0  0  0
  190.9880  171.7930  142.7010 C   0  0  0  0  0  3  0  0  0  0  0  0
  191.4280  177.8590  143.4800 N   0  0  0  0  0  2  0  0  0  0  0  0
  190.7020  176.5860  143.3440 C   0  0  1  0  0  3  0  0  0  0  0  0
  192.1730  176.6350  143.1390 C   0  0  2  0  0  3  0  0  0  0  0  0
  194.4420  174.5250  145.3410 C   0  0  0  0  0  3  0  0  0  0  0  0
  194.7870  175.4310  146.3470 C   0  0  0  0  0  3  0  0  0  0  0  0
  193.5840  174.9180  144.3110 C   0  0  0  0  0  3  0  0  0  0  0  0
  194.2810  176.7340  146.3180 C   0  0  0  0  0  3  0  0  0  0  0  0
  193.4200  177.1250  145.2900 C   0  0  0  0  0  3  0  0  0  0  0  0
  193.0440  176.2100  144.2920 C   0  0  0  0  0  0  0  0  0  0  0  0
  189.7630  177.0300  145.6420 C   0  0  0  0  0  2  0  0  0  0  0  0
  185.5000  177.4370  145.3440 C   0  0  0  0  0  3  0  0  0  0  0  0
  188.2800  177.1700  145.5300 C   0  0  0  0  0  0  0  0  0  0  0  0
  187.4570  176.6750  146.5480 C   0  0  0  0  0  3  0  0  0  0  0  0
  186.0690  176.8070  146.4540 C   0  0  0  0  0  3  0  0  0  0  0  0
  186.3190  177.9370  144.3280 C   0  0  0  0  0  3  0  0  0  0  0  0
  187.7080  177.8050  144.4210 C   0  0  0  0  0  3  0  0  0  0  0  0
  1  3  1  0  0  0  0
  1 21  1  0  0  0  0
  3  2  2  0  0  0  0
  4  9  2  0  0  0  0
  4 11  1  0  0  0  0
  5  9  1  0  0  0  0
  6  7  1  0  0  0  0
  6  8  2  0  0  0  0
  8  3  1  0  0  0  0
  9  6  1  0  0  0  0
 10  8  1  0  0  0  0
 11 10  2  0  0  0  0
 13 12  1  0  0  0  0
 13  1  1  1  0  0  0
 14 13  1  0  0  0  0
 14 12  1  0  0  0  0
 14 20  1  1  0  0  0
 15 16  1  0  0  0  0
 17 15  2  0  0  0  0
 18 16  2  0  0  0  0
 19 18  1  0  0  0  0
 20 17  1  0  0  0  0
 20 19  2  0  0  0  0
 22 25  1  0  0  0  0
 23 21  1  0  0  0  0
 23 24  1  0  0  0  0
 25 24  2  0  0  0  0
 26 27  1  0  0  0  0
 26 22  2  0  0  0  0
 27 23  2  0  0  0  0
M  END
>  <MODEL>
1

>  <REMARK>
 VINA RESULT:      -6.8      0.000      0.000
  Name = 
  5 active torsions:
  status: ('A' for Active; 'I' for Inactive)
    1  A    between atoms: N_2  and  C_6
    2  A    between atoms: N_2  and  C_15
    3  A    between atoms: C_6  and  C_9
    4  A    between atoms: C_14  and  C_19
    5  A    between atoms: C_18  and  C_26
                            x       y       z     vdW  Elec       q    Type
                         _______ _______ _______ _____ _____    ______ ____

>  <TORSDO>
F 5

$$$$
=
 OpenBabel11052418303D

 27 30  0  0  1  0  0  0  0  0999 V2000
  190.0820  176.1700  144.6450 N   0  0  0  0  0  0  0  0  0  0  0  0
  189.5460  174.2930  145.9270 O   0  0  0  0  0  0  0  0  0  0  0  0
  189.7240  174.7750  144.7750 C   0  0  0  0  0  0  0  0  0  0  0  0
  189.1360  172.2560  141.3790 C   0  0  0  0  0  3  0  0  0  0  0  0
  190.8570  170.6330  142.1540 C   0  0  0  0  0  1  0  0  0  0  0  0
  190.2890  172.7040  143.4590 C   0  0  0  0  0  0  0  0  0  0  0  0
  191.2220  172.3530  144.3820 F   0  0  0  0  0  0  0  0  0  0  0  0
  189.5450  173.8920  143.5970 C   0  0  0  0  0  0  0  0  0  0  0  0
  190.0800  171.8890  142.3380 C   0  0  0  0  0  0  0  0  0  0  0  0
  188.6280  174.2140  142.6420 N   0  0  0  0  0  0  0  0  0  0  0  0
  188.4110  173.4340  141.5500 C   0  0  0  0  0  3  0  0  0  0  0  0
  191.2680  177.9750  143.5480 N   0  0  0  0  0  2  0  0  0  0  0  0
  190.4990  176.7360  143.3540 C   0  0  1  0  0  3  0  0  0  0  0  0
  191.9670  176.7490  143.1260 C   0  0  2  0  0  3  0  0  0  0  0  0
  194.1410  174.4220  145.2030 C   0  0  0  0  0  3  0  0  0  0  0  0
  194.5880  175.2750  146.2150 C   0  0  0  0  0  3  0  0  0  0  0  0
  193.2810  174.9030  144.2120 C   0  0  0  0  0  3  0  0  0  0  0  0
  194.1820  176.6130  146.2310 C   0  0  0  0  0  3  0  0  0  0  0  0
  193.3190  177.0920  145.2410 C   0  0  0  0  0  3  0  0  0  0  0  0
  192.8420  176.2320  144.2390 C   0  0  0  0  0  0  0  0  0  0  0  0
  189.7010  177.0850  145.7200 C   0  0  0  0  0  2  0  0  0  0  0  0
  185.4430  177.6210  145.8410 C   0  0  0  0  0  3  0  0  0  0  0  0
  188.2190  177.2730  145.7710 C   0  0  0  0  0  0  0  0  0  0  0  0
  187.5620  177.8880  144.6990 C   0  0  0  0  0  3  0  0  0  0  0  0
  186.1750  178.0620  144.7350 C   0  0  0  0  0  3  0  0  0  0  0  0
  186.0970  177.0040  146.9110 C   0  0  0  0  0  3  0  0  0  0  0  0
  187.4840  176.8290  146.8750 C   0  0  0  0  0  3  0  0  0  0  0  0
  1  3  1  0  0  0  0
  1 21  1  0  0  0  0
  3  2  2  0  0  0  0
  4 11  2  0  0  0  0
  4  9  1  0  0  0  0
  5  9  1  0  0  0  0
  6  8  1  0  0  0  0
  6  7  1  0  0  0  0
  8  3  1  0  0  0  0
  9  6  2  0  0  0  0
 10  8  2  0  0  0  0
 11 10  1  0  0  0  0
 13 12  1  0  0  0  0
 13  1  1  1  0  0  0
 14 13  1  0  0  0  0
 14 12  1  0  0  0  0
 14 20  1  1  0  0  0
 15 16  1  0  0  0  0
 16 18  2  0  0  0  0
 17 20  1  0  0  0  0
 17 15  2  0  0  0  0
 19 18  1  0  0  0  0
 20 19  2  0  0  0  0
 21 23  1  0  0  0  0
 22 26  1  0  0  0  0
 23 27  1  0  0  0  0
 24 25  1  0  0  0  0
 24 23  2  0  0  0  0
 25 22  2  0  0  0  0
 27 26  2  0  0  0  0
M  END
>  <MODEL>
2

>  <REMARK>
 VINA RESULT:      -6.7      1.115      1.774
  Name = 
  5 active torsions:
  status: ('A' for Active; 'I' for Inactive)
    1  A    between atoms: N_2  and  C_6
    2  A    between atoms: N_2  and  C_15
    3  A    between atoms: C_6  and  C_9
    4  A    between atoms: C_14  and  C_19
    5  A    between atoms: C_18  and  C_26
                            x       y       z     vdW  Elec       q    Type
                         _______ _______ _______ _____ _____    ______ ____

>  <TORSDO>
F 5

$$$$
=
 OpenBabel11052418303D

 27 30  0  0  1  0  0  0  0  0999 V2000
  189.6860  175.0530  143.7810 N   0  0  0  0  0  0  0  0  0  0  0  0
  189.7750  173.4140  145.4420 O   0  0  0  0  0  0  0  0  0  0  0  0
  190.3110  174.4340  144.9290 C   0  0  0  0  0  0  0  0  0  0  0  0
  193.9000  175.9910  146.6360 C   0  0  0  0  0  3  0  0  0  0  0  0
  195.3300  174.4840  145.2650 C   0  0  0  0  0  1  0  0  0  0  0  0
  192.8230  174.4610  145.1010 C   0  0  0  0  0  0  0  0  0  0  0  0
  192.9130  173.4700  144.1770 F   0  0  0  0  0  0  0  0  0  0  0  0
  191.5700  174.9510  145.5180 C   0  0  0  0  0  0  0  0  0  0  0  0
  193.9900  174.9870  145.6720 C   0  0  0  0  0  0  0  0  0  0  0  0
  191.5230  175.9370  146.4580 N   0  0  0  0  0  0  0  0  0  0  0  0
  192.6450  176.4590  147.0200 C   0  0  0  0  0  3  0  0  0  0  0  0
  189.1300  176.9570  142.3910 N   0  0  0  0  0  2  0  0  0  0  0  0
  190.1460  176.3510  143.2670 C   0  0  1  0  0  3  0  0  0  0  0  0
  189.3540  177.5190  143.7340 C   0  0  2  0  0  3  0  0  0  0  0  0
  187.2340  177.0840  146.8590 C   0  0  0  0  0  3  0  0  0  0  0  0
  185.9650  176.8650  146.3160 C   0  0  0  0  0  3  0  0  0  0  0  0
  188.3300  177.2820  146.0160 C   0  0  0  0  0  3  0  0  0  0  0  0
  185.7910  176.8550  144.9290 C   0  0  0  0  0  3  0  0  0  0  0  0
  186.8890  177.0500  144.0870 C   0  0  0  0  0  3  0  0  0  0  0  0
  188.1720  177.2390  144.6250 C   0  0  0  0  0  0  0  0  0  0  0  0
  188.8290  174.2270  142.9310 C   0  0  0  0  0  2  0  0  0  0  0  0
  191.1390  171.5620  140.4830 C   0  0  0  0  0  3  0  0  0  0  0  0
  189.6390  173.3050  142.0790 C   0  0  0  0  0  0  0  0  0  0  0  0
  189.6660  171.9360  142.3680 C   0  0  0  0  0  3  0  0  0  0  0  0
  190.4160  171.0660  141.5710 C   0  0  0  0  0  3  0  0  0  0  0  0
  191.1110  172.9280  140.1890 C   0  0  0  0  0  3  0  0  0  0  0  0
  190.3600  173.7990  140.9860 C   0  0  0  0  0  3  0  0  0  0  0  0
  1  3  1  0  0  0  0
  3  2  2  0  0  0  0
  3  8  1  0  0  0  0
  4 11  1  0  0  0  0
  5  9  1  0  0  0  0
  6  8  2  0  0  0  0
  6  9  1  0  0  0  0
  7  6  1  0  0  0  0
  8 10  1  0  0  0  0
  9  4  2  0  0  0  0
 10 11  2  0  0  0  0
 12 13  1  0  0  0  0
 12 14  1  0  0  0  0
 13 14  1  0  0  0  0
 13  1  1  1  0  0  0
 14 20  1  1  0  0  0
 16 15  1  0  0  0  0
 17 15  2  0  0  0  0
 18 16  2  0  0  0  0
 19 20  2  0  0  0  0
 19 18  1  0  0  0  0
 20 17  1  0  0  0  0
 21  1  1  0  0  0  0
 22 25  1  0  0  0  0
 23 24  1  0  0  0  0
 23 21  1  0  0  0  0
 25 24  2  0  0  0  0
 26 22  2  0  0  0  0
 26 27  1  0  0  0  0
 27 23  2  0  0  0  0
M  END
>  <MODEL>
3

>  <REMARK>
 VINA RESULT:      -6.5      1.676      6.055
  Name = 
  5 active torsions:
  status: ('A' for Active; 'I' for Inactive)
    1  A    between atoms: N_2  and  C_6
    2  A    between atoms: N_2  and  C_15
    3  A    between atoms: C_6  and  C_9
    4  A    between atoms: C_14  and  C_19
    5  A    between atoms: C_18  and  C_26
                            x       y       z     vdW  Elec       q    Type
                         _______ _______ _______ _____ _____    ______ ____

>  <TORSDO>
F 5

$$$$
=
 OpenBabel11052418303D

 27 30  0  0  1  0  0  0  0  0999 V2000
  189.1860  175.3420  142.9360 N   0  0  0  0  0  0  0  0  0  0  0  0
  189.8680  173.6180  144.3560 O   0  0  0  0  0  0  0  0  0  0  0  0
  190.1690  174.6980  143.7770 C   0  0  0  0  0  0  0  0  0  0  0  0
  194.1070  176.2650  144.2860 C   0  0  0  0  0  3  0  0  0  0  0  0
  193.7560  176.6410  146.7220 C   0  0  0  0  0  1  0  0  0  0  0  0
  191.9670  175.6720  145.2470 C   0  0  0  0  0  0  0  0  0  0  0  0
  191.1420  175.6110  146.3250 F   0  0  0  0  0  0  0  0  0  0  0  0
  191.5290  175.2570  143.9740 C   0  0  0  0  0  0  0  0  0  0  0  0
  193.2650  176.1820  145.3940 C   0  0  0  0  0  0  0  0  0  0  0  0
  192.3840  175.3480  142.9170 N   0  0  0  0  0  0  0  0  0  0  0  0
  193.6460  175.8380  143.0430 C   0  0  0  0  0  3  0  0  0  0  0  0
  188.1350  177.2940  141.9580 N   0  0  0  0  0  2  0  0  0  0  0  0
  189.4040  176.6950  142.4020 C   0  0  1  0  0  3  0  0  0  0  0  0
  188.7720  177.7830  143.1930 C   0  0  2  0  0  3  0  0  0  0  0  0
  187.8230  177.0390  146.7980 C   0  0  0  0  0  3  0  0  0  0  0  0
  186.4560  176.7750  146.6850 C   0  0  0  0  0  3  0  0  0  0  0  0
  188.5710  177.3520  145.6600 C   0  0  0  0  0  3  0  0  0  0  0  0
  185.8340  176.8340  145.4350 C   0  0  0  0  0  3  0  0  0  0  0  0
  186.5830  177.1450  144.2970 C   0  0  0  0  0  3  0  0  0  0  0  0
  187.9630  177.3800  144.3980 C   0  0  0  0  0  0  0  0  0  0  0  0
  188.1360  174.5160  142.3420 C   0  0  0  0  0  2  0  0  0  0  0  0
  189.4860  172.6220  138.7330 C   0  0  0  0  0  3  0  0  0  0  0  0
  188.6080  173.8640  141.0830 C   0  0  0  0  0  0  0  0  0  0  0  0
  189.2980  172.6490  141.1470 C   0  0  0  0  0  3  0  0  0  0  0  0
  189.7370  172.0290  139.9730 C   0  0  0  0  0  3  0  0  0  0  0  0
  188.7930  173.8340  138.6660 C   0  0  0  0  0  3  0  0  0  0  0  0
  188.3530  174.4540  139.8400 C   0  0  0  0  0  3  0  0  0  0  0  0
  1  3  1  0  0  0  0
  3  8  1  0  0  0  0
  3  2  2  0  0  0  0
  4  9  1  0  0  0  0
  6  9  2  0  0  0  0
  6  7  1  0  0  0  0
  8  6  1  0  0  0  0
  9  5  1  0  0  0  0
 10 11  1  0  0  0  0
 10  8  2  0  0  0  0
 11  4  2  0  0  0  0
 12 13  1  0  0  0  0
 12 14  1  0  0  0  0
 13  1  1  1  0  0  0
 13 14  1  0  0  0  0
 14 20  1  1  0  0  0
 16 15  1  0  0  0  0
 17 15  2  0  0  0  0
 18 16  2  0  0  0  0
 19 20  2  0  0  0  0
 19 18  1  0  0  0  0
 20 17  1  0  0  0  0
 21  1  1  0  0  0  0
 22 25  1  0  0  0  0
 23 24  1  0  0  0  0
 23 21  1  0  0  0  0
 25 24  2  0  0  0  0
 26 22  2  0  0  0  0
 26 27  1  0  0  0  0
 27 23  2  0  0  0  0
M  END
>  <MODEL>
4

>  <REMARK>
 VINA RESULT:      -6.4      1.836      5.896
  Name = 
  5 active torsions:
  status: ('A' for Active; 'I' for Inactive)
    1  A    between atoms: N_2  and  C_6
    2  A    between atoms: N_2  and  C_15
    3  A    between atoms: C_6  and  C_9
    4  A    between atoms: C_14  and  C_19
    5  A    between atoms: C_18  and  C_26
                            x       y       z     vdW  Elec       q    Type
                         _______ _______ _______ _____ _____    ______ ____

>  <TORSDO>
F 5

$$$$
=
 OpenBabel11052418303D

 27 30  0  0  1  0  0  0  0  0999 V2000
  190.2540  175.6210  143.9650 N   0  0  0  0  0  0  0  0  0  0  0  0
  190.4860  177.8720  143.3910 O   0  0  0  0  0  0  0  0  0  0  0  0
  189.8320  177.0020  144.0280 C   0  0  0  0  0  0  0  0  0  0  0  0
  186.4370  178.1820  146.3320 C   0  0  0  0  0  3  0  0  0  0  0  0
  185.1710  178.8750  144.3040 C   0  0  0  0  0  1  0  0  0  0  0  0
  187.4990  177.9410  144.1710 C   0  0  0  0  0  0  0  0  0  0  0  0
  187.4620  178.0940  142.8220 F   0  0  0  0  0  0  0  0  0  0  0  0
  188.6460  177.4300  144.8100 C   0  0  0  0  0  0  0  0  0  0  0  0
  186.3940  178.3210  144.9450 C   0  0  0  0  0  0  0  0  0  0  0  0
  188.6480  177.3050  146.1680 N   0  0  0  0  0  0  0  0  0  0  0  0
  187.5840  177.6660  146.9320 C   0  0  0  0  0  3  0  0  0  0  0  0
  190.4420  173.3510  144.7900 N   0  0  0  0  0  2  0  0  0  0  0  0
  189.6620  174.5980  144.8390 C   0  0  1  0  0  3  0  0  0  0  0  0
  190.5110  174.2000  145.9920 C   0  0  2  0  0  3  0  0  0  0  0  0
  193.2680  176.6260  146.9750 C   0  0  0  0  0  3  0  0  0  0  0  0
  194.4020  175.9980  146.4540 C   0  0  0  0  0  3  0  0  0  0  0  0
  192.0080  176.0440  146.8110 C   0  0  0  0  0  3  0  0  0  0  0  0
  194.2770  174.7820  145.7760 C   0  0  0  0  0  3  0  0  0  0  0  0
  193.0160  174.2020  145.6090 C   0  0  0  0  0  3  0  0  0  0  0  0
  191.8690  174.8440  146.1030 C   0  0  0  0  0  0  0  0  0  0  0  0
  191.0200  175.1850  142.7970 C   0  0  0  0  0  2  0  0  0  0  0  0
  188.4820  173.3270  139.8760 C   0  0  0  0  0  3  0  0  0  0  0  0
  190.1350  174.5460  141.7770 C   0  0  0  0  0  0  0  0  0  0  0  0
  190.4790  173.2990  141.2430 C   0  0  0  0  0  3  0  0  0  0  0  0
  189.6540  172.6910  140.2930 C   0  0  0  0  0  3  0  0  0  0  0  0
  188.1330  174.5710  140.4100 C   0  0  0  0  0  3  0  0  0  0  0  0
  188.9590  175.1790  141.3610 C   0  0  0  0  0  3  0  0  0  0  0  0
  1  3  1  0  0  0  0
  2  3  2  0  0  0  0
  3  8  1  0  0  0  0
  4 11  1  0  0  0  0
  5  9  1  0  0  0  0
  6  8  2  0  0  0  0
  6  9  1  0  0  0  0
  7  6  1  0  0  0  0
  8 10  1  0  0  0  0
  9  4  2  0  0  0  0
 10 11  2  0  0  0  0
 12 13  1  0  0  0  0
 12 14  1  0  0  0  0
 13  1  1  6  0  0  0
 13 14  1  0  0  0  0
 14 20  1  6  0  0  0
 16 15  2  0  0  0  0
 17 15  1  0  0  0  0
 18 16  1  0  0  0  0
 19 18  2  0  0  0  0
 19 20  1  0  0  0  0
 20 17  2  0  0  0  0
 21  1  1  0  0  0  0
 22 25  2  0  0  0  0
 22 26  1  0  0  0  0
 23 21  1  0  0  0  0
 24 23  2  0  0  0  0
 25 24  1  0  0  0  0
 26 27  2  0  0  0  0
 27 23  1  0  0  0  0
M  END
>  <MODEL>
5

>  <REMARK>
 VINA RESULT:      -6.3      1.766      5.082
  Name = 
  5 active torsions:
  status: ('A' for Active; 'I' for Inactive)
    1  A    between atoms: N_2  and  C_6
    2  A    between atoms: N_2  and  C_15
    3  A    between atoms: C_6  and  C_9
    4  A    between atoms: C_14  and  C_19
    5  A    between atoms: C_18  and  C_26
                            x       y       z     vdW  Elec       q    Type
                         _______ _______ _______ _____ _____    ______ ____

>  <TORSDO>
F 5

$$$$
=
 OpenBabel11052418303D

 27 30  0  0  1  0  0  0  0  0999 V2000
  189.2120  176.5620  144.6210 N   0  0  0  0  0  0  0  0  0  0  0  0
  189.8370  177.0070  142.4160 O   0  0  0  0  0  0  0  0  0  0  0  0
  189.3690  176.1730  143.2380 C   0  0  0  0  0  0  0  0  0  0  0  0
  188.2600  172.2910  141.8500 C   0  0  0  0  0  3  0  0  0  0  0  0
  190.3470  171.2630  142.7350 C   0  0  0  0  0  1  0  0  0  0  0  0
  189.8550  173.7150  142.9830 C   0  0  0  0  0  0  0  0  0  0  0  0
  191.0450  173.8680  143.6190 F   0  0  0  0  0  0  0  0  0  0  0  0
  189.0100  174.8180  142.7530 C   0  0  0  0  0  0  0  0  0  0  0  0
  189.4720  172.4480  142.5210 C   0  0  0  0  0  0  0  0  0  0  0  0
  187.8300  174.6230  142.0980 N   0  0  0  0  0  0  0  0  0  0  0  0
  187.4430  173.4020  141.6460 C   0  0  0  0  0  3  0  0  0  0  0  0
  188.0300  176.4980  146.7350 N   0  0  0  0  0  2  0  0  0  0  0  0
  188.4890  175.7120  145.5780 C   0  0  1  0  0  3  0  0  0  0  0  0
  187.0480  176.0410  145.7360 C   0  0  2  0  0  3  0  0  0  0  0  0
  185.3880  178.0510  142.9690 C   0  0  0  0  0  3  0  0  0  0  0  0
  185.3880  179.3380  143.5110 C   0  0  0  0  0  3  0  0  0  0  0  0
  185.9390  176.9890  143.6900 C   0  0  0  0  0  3  0  0  0  0  0  0
  185.9320  179.5620  144.7800 C   0  0  0  0  0  3  0  0  0  0  0  0
  186.4860  178.5000  145.4990 C   0  0  0  0  0  3  0  0  0  0  0  0
  186.5170  177.2090  144.9470 C   0  0  0  0  0  0  0  0  0  0  0  0
  190.0640  177.6320  145.1390 C   0  0  0  0  0  2  0  0  0  0  0  0
  193.9380  176.1280  146.2170 C   0  0  0  0  0  3  0  0  0  0  0  0
  191.4160  177.1160  145.5100 C   0  0  0  0  0  0  0  0  0  0  0  0
  191.6080  176.5100  146.7570 C   0  0  0  0  0  3  0  0  0  0  0  0
  192.8680  176.0180  147.1100 C   0  0  0  0  0  3  0  0  0  0  0  0
  193.7470  176.7290  144.9700 C   0  0  0  0  0  3  0  0  0  0  0  0
  192.4860  177.2210  144.6160 C   0  0  0  0  0  3  0  0  0  0  0  0
  1 21  1  0  0  0  0
  2  3  2  0  0  0  0
  3  1  1  0  0  0  0
  4  9  1  0  0  0  0
  6  7  1  0  0  0  0
  8  6  1  0  0  0  0
  8  3  1  0  0  0  0
  9  5  1  0  0  0  0
  9  6  2  0  0  0  0
 10  8  2  0  0  0  0
 11  4  2  0  0  0  0
 11 10  1  0  0  0  0
 13  1  1  6  0  0  0
 13 14  1  0  0  0  0
 13 12  1  0  0  0  0
 14 20  1  6  0  0  0
 14 12  1  0  0  0  0
 15 16  2  0  0  0  0
 15 17  1  0  0  0  0
 16 18  1  0  0  0  0
 17 20  2  0  0  0  0
 18 19  2  0  0  0  0
 20 19  1  0  0  0  0
 21 23  1  0  0  0  0
 22 25  1  0  0  0  0
 23 24  1  0  0  0  0
 24 25  2  0  0  0  0
 26 22  2  0  0  0  0
 27 26  1  0  0  0  0
 27 23  2  0  0  0  0
M  END
>  <MODEL>
6

>  <REMARK>
 VINA RESULT:      -6.3      1.876      5.568
  Name = 
  5 active torsions:
  status: ('A' for Active; 'I' for Inactive)
    1  A    between atoms: N_2  and  C_6
    2  A    between atoms: N_2  and  C_15
    3  A    between atoms: C_6  and  C_9
    4  A    between atoms: C_14  and  C_19
    5  A    between atoms: C_18  and  C_26
                            x       y       z     vdW  Elec       q    Type
                         _______ _______ _______ _____ _____    ______ ____

>  <TORSDO>
F 5

$$$$
=
 OpenBabel11052418303D

 27 30  0  0  1  0  0  0  0  0999 V2000
  190.5700  175.6990  144.2030 N   0  0  0  0  0  0  0  0  0  0  0  0
  189.8900  173.6960  145.1920 O   0  0  0  0  0  0  0  0  0  0  0  0
  190.0980  174.3350  144.1240 C   0  0  0  0  0  0  0  0  0  0  0  0
  189.2710  172.4020  140.4090 C   0  0  0  0  0  3  0  0  0  0  0  0
  191.4830  171.2600  140.3910 C   0  0  0  0  0  1  0  0  0  0  0  0
  190.7880  172.7980  142.2520 C   0  0  0  0  0  0  0  0  0  0  0  0
  191.9900  172.5850  142.8490 F   0  0  0  0  0  0  0  0  0  0  0  0
  189.8370  173.6630  142.8280 C   0  0  0  0  0  0  0  0  0  0  0  0
  190.4960  172.1710  141.0330 C   0  0  0  0  0  0  0  0  0  0  0  0
  188.6480  173.8600  142.1900 N   0  0  0  0  0  0  0  0  0  0  0  0
  188.3490  173.2580  141.0090 C   0  0  0  0  0  3  0  0  0  0  0  0
  191.6100  177.7220  143.3700 N   0  0  0  0  0  2  0  0  0  0  0  0
  191.0220  176.4230  143.0060 C   0  0  1  0  0  3  0  0  0  0  0  0
  192.4910  176.6290  142.9220 C   0  0  2  0  0  3  0  0  0  0  0  0
  194.4200  176.5370  146.1970 C   0  0  0  0  0  3  0  0  0  0  0  0
  194.7530  175.1840  146.2950 C   0  0  0  0  0  3  0  0  0  0  0  0
  193.6970  177.0010  145.0950 C   0  0  0  0  0  3  0  0  0  0  0  0
  194.3560  174.2930  145.2940 C   0  0  0  0  0  3  0  0  0  0  0  0
  193.6360  174.7580  144.1910 C   0  0  0  0  0  3  0  0  0  0  0  0
  193.3250  176.1220  144.0700 C   0  0  0  0  0  0  0  0  0  0  0  0
  190.2750  176.4630  145.4150 C   0  0  0  0  0  2  0  0  0  0  0  0
  186.1170  177.5030  145.6500 C   0  0  0  0  0  3  0  0  0  0  0  0
  188.8270  176.8240  145.4880 C   0  0  0  0  0  0  0  0  0  0  0  0
  188.0560  176.3810  146.5680 C   0  0  0  0  0  3  0  0  0  0  0  0
  186.7020  176.7200  146.6480 C   0  0  0  0  0  3  0  0  0  0  0  0
  186.8860  177.9500  144.5720 C   0  0  0  0  0  3  0  0  0  0  0  0
  188.2410  177.6120  144.4920 C   0  0  0  0  0  3  0  0  0  0  0  0
  1 21  1  0  0  0  0
  3  1  1  0  0  0  0
  3  2  2  0  0  0  0
  4 11  2  0  0  0  0
  4  9  1  0  0  0  0
  5  9  1  0  0  0  0
  6  8  1  0  0  0  0
  6  7  1  0  0  0  0
  8  3  1  0  0  0  0
  9  6  2  0  0  0  0
 10  8  2  0  0  0  0
 11 10  1  0  0  0  0
 13 12  1  0  0  0  0
 13  1  1  1  0  0  0
 14 13  1  0  0  0  0
 14 12  1  0  0  0  0
 14 20  1  1  0  0  0
 15 16  1  0  0  0  0
 17 15  2  0  0  0  0
 18 16  2  0  0  0  0
 19 18  1  0  0  0  0
 20 19  2  0  0  0  0
 20 17  1  0  0  0  0
 21 23  1  0  0  0  0
 22 25  1  0  0  0  0
 23 24  1  0  0  0  0
 24 25  2  0  0  0  0
 26 22  2  0  0  0  0
 27 26  1  0  0  0  0
 27 23  2  0  0  0  0
M  END
>  <MODEL>
7

>  <REMARK>
 VINA RESULT:      -6.2      1.279      1.885
  Name = 
  5 active torsions:
  status: ('A' for Active; 'I' for Inactive)
    1  A    between atoms: N_2  and  C_6
    2  A    between atoms: N_2  and  C_15
    3  A    between atoms: C_6  and  C_9
    4  A    between atoms: C_14  and  C_19
    5  A    between atoms: C_18  and  C_26
                            x       y       z     vdW  Elec       q    Type
                         _______ _______ _______ _____ _____    ______ ____

>  <TORSDO>
F 5

$$$$
=
 OpenBabel11052418303D

 27 30  0  0  1  0  0  0  0  0999 V2000
  188.2860  176.6870  142.8120 N   0  0  0  0  0  0  0  0  0  0  0  0
  186.5410  175.1430  142.9550 O   0  0  0  0  0  0  0  0  0  0  0  0
  187.6570  175.4380  142.4470 C   0  0  0  0  0  0  0  0  0  0  0  0
  189.4910  172.7040  139.7300 C   0  0  0  0  0  3  0  0  0  0  0  0
  188.6750  173.9650  137.7460 C   0  0  0  0  0  1  0  0  0  0  0  0
  188.1670  174.6960  140.0950 C   0  0  0  0  0  0  0  0  0  0  0  0
  187.4580  175.7410  139.5950 F   0  0  0  0  0  0  0  0  0  0  0  0
  188.2750  174.4930  141.4850 C   0  0  0  0  0  0  0  0  0  0  0  0
  188.7790  173.7880  139.2200 C   0  0  0  0  0  0  0  0  0  0  0  0
  188.9850  173.4250  141.9460 N   0  0  0  0  0  0  0  0  0  0  0  0
  189.5860  172.5370  141.1110 C   0  0  0  0  0  3  0  0  0  0  0  0
  190.2250  178.0720  143.2470 N   0  0  0  0  0  2  0  0  0  0  0  0
  189.6680  176.9930  142.4160 C   0  0  1  0  0  3  0  0  0  0  0  0
  190.6920  176.6900  143.4500 C   0  0  2  0  0  3  0  0  0  0  0  0
  189.6910  174.2590  146.1960 C   0  0  0  0  0  3  0  0  0  0  0  0
  189.4270  175.1240  147.2610 C   0  0  0  0  0  3  0  0  0  0  0  0
  190.0880  174.7740  144.9600 C   0  0  0  0  0  3  0  0  0  0  0  0
  189.5690  176.5040  147.0930 C   0  0  0  0  0  3  0  0  0  0  0  0
  189.9630  177.0190  145.8550 C   0  0  0  0  0  3  0  0  0  0  0  0
  190.2000  176.1570  144.7710 C   0  0  0  0  0  0  0  0  0  0  0  0
  187.4330  177.7810  143.2760 C   0  0  0  0  0  2  0  0  0  0  0  0
  184.0680  178.3160  140.6640 C   0  0  0  0  0  3  0  0  0  0  0  0
  186.2580  177.9720  142.3730 C   0  0  0  0  0  0  0  0  0  0  0  0
  186.4560  178.0880  140.9920 C   0  0  0  0  0  3  0  0  0  0  0  0
  185.3620  178.2600  140.1390 C   0  0  0  0  0  3  0  0  0  0  0  0
  183.8670  178.1960  142.0420 C   0  0  0  0  0  3  0  0  0  0  0  0
  184.9610  178.0240  142.8960 C   0  0  0  0  0  3  0  0  0  0  0  0
  1 21  1  0  0  0  0
  3  1  1  0  0  0  0
  3  2  2  0  0  0  0
  4 11  1  0  0  0  0
  5  9  1  0  0  0  0
  6  8  2  0  0  0  0
  7  6  1  0  0  0  0
  8 10  1  0  0  0  0
  8  3  1  0  0  0  0
  9  4  2  0  0  0  0
  9  6  1  0  0  0  0
 11 10  2  0  0  0  0
 12 14  1  0  0  0  0
 13  1  1  1  0  0  0
 13 12  1  0  0  0  0
 13 14  1  0  0  0  0
 14 20  1  1  0  0  0
 15 16  1  0  0  0  0
 17 15  2  0  0  0  0
 18 16  2  0  0  0  0
 19 18  1  0  0  0  0
 20 17  1  0  0  0  0
 20 19  2  0  0  0  0
 22 26  1  0  0  0  0
 23 27  1  0  0  0  0
 23 21  1  0  0  0  0
 24 23  2  0  0  0  0
 25 22  2  0  0  0  0
 25 24  1  0  0  0  0
 26 27  2  0  0  0  0
M  END
>  <MODEL>
8

>  <REMARK>
 VINA RESULT:      -6.1      2.642      3.699
  Name = 
  5 active torsions:
  status: ('A' for Active; 'I' for Inactive)
    1  A    between atoms: N_2  and  C_6
    2  A    between atoms: N_2  and  C_15
    3  A    between atoms: C_6  and  C_9
    4  A    between atoms: C_14  and  C_19
    5  A    between atoms: C_18  and  C_26
                            x       y       z     vdW  Elec       q    Type
                         _______ _______ _______ _____ _____    ______ ____

>  <TORSDO>
F 5

$$$$
=
 OpenBabel11052418303D

 27 30  0  0  1  0  0  0  0  0999 V2000
  189.9600  175.0870  143.2960 N   0  0  0  0  0  0  0  0  0  0  0  0
  190.3670  177.2060  142.4030 O   0  0  0  0  0  0  0  0  0  0  0  0
  190.8240  176.2170  143.0400 C   0  0  0  0  0  0  0  0  0  0  0  0
  194.8860  176.2870  144.3510 C   0  0  0  0  0  3  0  0  0  0  0  0
  194.2430  177.0140  146.6440 C   0  0  0  0  0  1  0  0  0  0  0  0
  192.5390  176.6160  144.8410 C   0  0  0  0  0  0  0  0  0  0  0  0
  191.5610  176.9710  145.7150 F   0  0  0  0  0  0  0  0  0  0  0  0
  192.2290  176.2610  143.5130 C   0  0  0  0  0  0  0  0  0  0  0  0
  193.8790  176.6310  145.2520 C   0  0  0  0  0  0  0  0  0  0  0  0
  193.2400  175.9250  142.6640 N   0  0  0  0  0  0  0  0  0  0  0  0
  194.5440  175.9320  143.0480 C   0  0  0  0  0  3  0  0  0  0  0  0
  189.4900  172.7530  143.7430 N   0  0  0  0  0  2  0  0  0  0  0  0
  190.4860  173.8310  143.8500 C   0  0  1  0  0  3  0  0  0  0  0  0
  190.6670  172.7410  142.8570 C   0  0  2  0  0  3  0  0  0  0  0  0
  190.8720  173.6790  139.1780 C   0  0  0  0  0  3  0  0  0  0  0  0
  189.5650  173.4370  138.7480 C   0  0  0  0  0  3  0  0  0  0  0  0
  191.2190  173.4640  140.5140 C   0  0  0  0  0  3  0  0  0  0  0  0
  188.6070  172.9700  139.6520 C   0  0  0  0  0  3  0  0  0  0  0  0
  188.9540  172.7590  140.9890 C   0  0  0  0  0  3  0  0  0  0  0  0
  190.2580  173.0300  141.4350 C   0  0  0  0  0  0  0  0  0  0  0  0
  188.5150  175.3140  143.3230 C   0  0  0  0  0  2  0  0  0  0  0  0
  187.3380  177.5770  146.7760 C   0  0  0  0  0  3  0  0  0  0  0  0
  188.1130  176.1000  144.5280 C   0  0  0  0  0  0  0  0  0  0  0  0
  187.3100  177.2360  144.3790 C   0  0  0  0  0  3  0  0  0  0  0  0
  186.9240  177.9740  145.5020 C   0  0  0  0  0  3  0  0  0  0  0  0
  188.1370  176.4400  146.9290 C   0  0  0  0  0  3  0  0  0  0  0  0
  188.5230  175.7010  145.8060 C   0  0  0  0  0  3  0  0  0  0  0  0
  1 21  1  0  0  0  0
  2  3  2  0  0  0  0
  3  1  1  0  0  0  0
  3  8  1  0  0  0  0
  4  9  1  0  0  0  0
  6  9  2  0  0  0  0
  6  7  1  0  0  0  0
  8  6  1  0  0  0  0
  9  5  1  0  0  0  0
 10 11  1  0  0  0  0
 10  8  2  0  0  0  0
 11  4  2  0  0  0  0
 12 13  1  0  0  0  0
 13  1  1  6  0  0  0
 14 20  1  6  0  0  0
 14 12  1  0  0  0  0
 14 13  1  0  0  0  0
 15 17  1  0  0  0  0
 16 15  2  0  0  0  0
 16 18  1  0  0  0  0
 17 20  2  0  0  0  0
 18 19  2  0  0  0  0
 19 20  1  0  0  0  0
 21 23  1  0  0  0  0
 22 26  1  0  0  0  0
 23 27  1  0  0  0  0
 24 23  2  0  0  0  0
 24 25  1  0  0  0  0
 25 22  2  0  0  0  0
 27 26  2  0  0  0  0
M  END
>  <MODEL>
9

>  <REMARK>
 VINA RESULT:      -6.1      2.000      5.340
  Name = 
  5 active torsions:
  status: ('A' for Active; 'I' for Inactive)
    1  A    between atoms: N_2  and  C_6
    2  A    between atoms: N_2  and  C_15
    3  A    between atoms: C_6  and  C_9
    4  A    between atoms: C_14  and  C_19
    5  A    between atoms: C_18  and  C_26
                            x       y       z     vdW  Elec       q    Type
                         _______ _______ _______ _____ _____    ______ ____

>  <TORSDO>
F 5

$$$$
