=
 OpenBabel11052421423D

 32 36  0  0  1  0  0  0  0  0999 V2000
  186.7140  177.2150  145.4260 C   0  0  1  0  0  3  0  0  0  0  0  0
  191.3420  175.2130  144.9740 C   0  0  1  0  0  3  0  0  0  0  0  0
  193.6950  174.6470  145.7420 C   0  0  0  0  0  0  0  0  0  0  0  0
  194.9420  173.8780  145.5270 C   0  0  0  0  0  0  0  0  0  0  0  0
  189.3780  176.0200  145.7550 C   0  0  1  0  0  3  0  0  0  0  0  0
  189.8550  176.4340  143.3460 C   0  0  0  0  0  2  0  0  0  0  0  0
  197.2710  172.4400  145.1120 N   0  0  0  0  0  0  0  0  0  0  0  0
  187.8000  177.4050  144.3710 C   0  0  0  0  0  2  0  0  0  0  0  0
  190.9590  175.3820  143.4840 C   0  0  2  0  0  3  0  0  0  0  0  0
  190.5750  174.0320  142.8250 C   0  0  2  0  0  3  0  0  0  0  0  0
  192.6720  173.3360  143.8800 C   0  0  2  0  0  3  0  0  0  0  0  0
  197.3110  173.5650  145.8740 C   0  0  0  0  0  3  0  0  0  0  0  0
  187.3510  177.0440  146.8050 C   0  0  0  0  0  2  0  0  0  0  0  0
  188.7450  176.2070  144.3670 C   0  0  2  0  0  3  0  0  0  0  0  0
  196.1470  174.3030  146.0950 C   0  0  0  0  0  3  0  0  0  0  0  0
  188.2880  175.8400  146.8080 C   0  0  0  0  0  2  0  0  0  0  0  0
  191.4300  172.8940  143.2220 N   0  0  0  0  0  0  0  0  0  0  0  0
  193.6550  172.1910  144.1200 C   0  0  0  0  0  2  0  0  0  0  0  0
  190.2080  174.8860  145.7430 O   0  0  0  0  0  0  0  0  0  0  0  0
  193.7030  175.6870  146.4550 O   0  0  0  0  0  0  0  0  0  0  0  0
  196.1150  172.0030  144.5430 C   0  0  0  0  0  3  0  0  0  0  0  0
  192.4030  174.1240  145.1730 C   0  0  2  0  0  3  0  0  0  0  0  0
  194.9280  172.7140  144.7280 C   0  0  0  0  0  0  0  0  0  0  0  0
  189.2330  174.0750  140.7890 N   0  0  0  0  0  1  0  0  0  0  0  0
  190.5870  174.1480  141.3080 C   0  0  0  0  0  2  0  0  0  0  0  0
  189.2130  171.9670  143.6310 C   0  0  0  0  0  1  0  0  0  0  0  0
  190.6500  172.0320  144.1080 C   0  0  0  0  0  2  0  0  0  0  0  0
  185.7940  178.4210  145.4210 C   0  0  0  0  0  2  0  0  0  0  0  0
  184.4830  178.5540  143.2730 C   0  0  0  0  0  0  0  0  0  0  0  0
  184.6060  178.1370  144.6320 N   0  0  0  0  0  2  0  0  0  0  0  0
  183.3270  178.2580  142.5650 O   0  0  0  0  0  0  0  0  0  0  0  0
  185.4140  179.1900  142.7110 O   0  0  0  0  0  1  0  0  0  0  0  0
  1 28  1  1  0  0  0
  1 13  1  0  0  0  0
  2 22  1  0  0  0  0
  2 19  1  1  0  0  0
  3 20  2  0  0  0  0
  4  3  1  0  0  0  0
  4 15  1  0  0  0  0
  5 16  1  1  0  0  0
  7 12  1  0  0  0  0
  8  1  1  0  0  0  0
  9  6  1  1  0  0  0
  9  2  1  0  0  0  0
 10 25  1  6  0  0  0
 10 17  1  0  0  0  0
 10  9  1  0  0  0  0
 11 18  1  1  0  0  0
 11 22  1  0  0  0  0
 12 15  2  0  0  0  0
 13 16  1  0  0  0  0
 14  6  1  6  0  0  0
 14  8  1  0  0  0  0
 14  5  1  0  0  0  0
 17 11  1  0  0  0  0
 17 27  1  0  0  0  0
 18 23  1  0  0  0  0
 19  5  1  0  0  0  0
 21 23  1  0  0  0  0
 21  7  2  0  0  0  0
 22  3  1  6  0  0  0
 23  4  2  0  0  0  0
 24 25  1  0  0  0  0
 26 27  1  0  0  0  0
 29 30  1  0  0  0  0
 30 28  1  0  0  0  0
 31 29  2  0  0  0  0
 32 29  1  0  0  0  0
M  END
>  <MODEL>
1

>  <REMARK>
 VINA RESULT:      -7.7      0.000      0.000
  Name = 
  4 active torsions:
  status: ('A' for Active; 'I' for Inactive)
    1  A    between atoms: C_2  and  C_24
    2  A    between atoms: N_10  and  C_24
    3  A    between atoms: C_13  and  C_15
    4  A    between atoms: C_25  and  N_26
                            x       y       z     vdW  Elec       q    Type
                         _______ _______ _______ _____ _____    ______ ____

>  <TORSDO>
F 4

$$$$
=
 OpenBabel11052421423D

 32 36  0  0  1  0  0  0  0  0999 V2000
  194.2640  174.5450  142.8760 C   0  0  1  0  0  3  0  0  0  0  0  0
  189.6810  176.0030  144.4550 C   0  0  1  0  0  3  0  0  0  0  0  0
  188.0430  177.3220  145.8790 C   0  0  0  0  0  0  0  0  0  0  0  0
  186.6510  177.7630  146.1190 C   0  0  0  0  0  0  0  0  0  0  0  0
  191.8820  175.8930  143.9420 C   0  0  1  0  0  3  0  0  0  0  0  0
  190.6080  173.7590  143.7780 C   0  0  0  0  0  2  0  0  0  0  0  0
  184.0420  178.5760  146.5630 N   0  0  0  0  0  0  0  0  0  0  0  0
  193.0710  173.7460  143.3930 C   0  0  0  0  0  2  0  0  0  0  0  0
  189.3440  174.6220  143.8440 C   0  0  2  0  0  3  0  0  0  0  0  0
  188.6430  174.7490  142.4660 C   0  0  2  0  0  3  0  0  0  0  0  0
  187.2630  176.3350  143.7230 C   0  0  2  0  0  3  0  0  0  0  0  0
  184.9300  178.6000  147.5920 C   0  0  0  0  0  3  0  0  0  0  0  0
  194.3630  175.8770  143.6200 C   0  0  0  0  0  2  0  0  0  0  0  0
  191.7840  174.5450  143.2100 C   0  0  2  0  0  3  0  0  0  0  0  0
  186.2500  178.1950  147.3880 C   0  0  0  0  0  3  0  0  0  0  0  0
  193.0810  176.6830  143.4290 C   0  0  0  0  0  2  0  0  0  0  0  0
  187.6410  175.8320  142.3900 N   0  0  0  0  0  0  0  0  0  0  0  0
  186.0900  177.3120  143.6780 C   0  0  0  0  0  2  0  0  0  0  0  0
  190.7070  176.6320  143.7230 O   0  0  0  0  0  0  0  0  0  0  0  0
  188.8910  177.3470  146.8140 O   0  0  0  0  0  0  0  0  0  0  0  0
  184.4000  178.1590  145.3190 C   0  0  0  0  0  3  0  0  0  0  0  0
  188.4590  176.9290  144.4860 C   0  0  2  0  0  3  0  0  0  0  0  0
  185.7060  177.7340  145.0700 C   0  0  0  0  0  0  0  0  0  0  0  0
  188.3590  173.0690  140.7220 N   0  0  0  0  0  1  0  0  0  0  0  0
  187.9800  173.4380  142.0740 C   0  0  0  0  0  2  0  0  0  0  0  0
  187.2460  177.2300  140.4330 C   0  0  0  0  0  1  0  0  0  0  0  0
  188.1970  176.9050  141.5680 C   0  0  0  0  0  2  0  0  0  0  0  0
  195.5320  173.7370  143.0790 C   0  0  0  0  0  2  0  0  0  0  0  0
  196.9540  173.8090  145.1580 C   0  0  0  0  0  0  0  0  0  0  0  0
  195.7350  173.4770  144.4960 N   0  0  0  0  0  2  0  0  0  0  0  0
  197.0970  173.5390  146.5120 O   0  0  0  0  0  1  0  0  0  0  0  0
  197.9030  174.3460  144.5250 O   0  0  0  0  0  0  0  0  0  0  0  0
  1 28  1  1  0  0  0
  1  8  1  0  0  0  0
  1 13  1  0  0  0  0
  2 19  1  6  0  0  0
  2 22  1  0  0  0  0
  3  4  1  0  0  0  0
  3 20  2  0  0  0  0
  4 15  1  0  0  0  0
  5 16  1  6  0  0  0
  7 12  1  0  0  0  0
  9  6  1  6  0  0  0
  9  2  1  0  0  0  0
 10 25  1  1  0  0  0
 10  9  1  0  0  0  0
 11 18  1  6  0  0  0
 11 22  1  0  0  0  0
 14  8  1  1  0  0  0
 14  6  1  0  0  0  0
 14  5  1  0  0  0  0
 15 12  2  0  0  0  0
 16 13  1  0  0  0  0
 17 10  1  0  0  0  0
 17 11  1  0  0  0  0
 18 23  1  0  0  0  0
 19  5  1  0  0  0  0
 21  7  2  0  0  0  0
 22  3  1  1  0  0  0
 23 21  1  0  0  0  0
 23  4  2  0  0  0  0
 24 25  1  0  0  0  0
 26 27  1  0  0  0  0
 27 17  1  0  0  0  0
 28 30  1  0  0  0  0
 29 31  1  0  0  0  0
 30 29  1  0  0  0  0
 32 29  2  0  0  0  0
M  END
>  <MODEL>
2

>  <REMARK>
 VINA RESULT:      -7.6      2.454      8.517
  Name = 
  4 active torsions:
  status: ('A' for Active; 'I' for Inactive)
    1  A    between atoms: C_2  and  C_24
    2  A    between atoms: N_10  and  C_24
    3  A    between atoms: C_13  and  C_15
    4  A    between atoms: C_25  and  N_26
                            x       y       z     vdW  Elec       q    Type
                         _______ _______ _______ _____ _____    ______ ____

>  <TORSDO>
F 4

$$$$
=
 OpenBabel11052421423D

 32 36  0  0  1  0  0  0  0  0999 V2000
  187.3060  178.0840  143.4150 C   0  0  1  0  0  3  0  0  0  0  0  0
  190.6180  174.4120  144.4990 C   0  0  1  0  0  3  0  0  0  0  0  0
  191.9370  172.2890  144.0500 C   0  0  0  0  0  0  0  0  0  0  0  0
  193.0410  171.3840  144.4400 C   0  0  0  0  0  0  0  0  0  0  0  0
  189.2900  175.9180  143.4550 C   0  0  1  0  0  3  0  0  0  0  0  0
  188.8940  175.6080  145.8960 C   0  0  0  0  0  2  0  0  0  0  0  0
  195.1050  169.6930  145.1820 N   0  0  0  0  0  0  0  0  0  0  0  0
  187.3980  177.1200  144.5950 C   0  0  0  0  0  2  0  0  0  0  0  0
  190.2450  174.8870  145.9240 C   0  0  2  0  0  3  0  0  0  0  0  0
  191.3640  175.7510  146.5610 C   0  0  2  0  0  3  0  0  0  0  0  0
  192.7440  173.8780  145.7980 C   0  0  2  0  0  3  0  0  0  0  0  0
  194.0990  169.2130  144.4040 C   0  0  0  0  0  3  0  0  0  0  0  0
  187.7530  177.3820  142.1320 C   0  0  0  0  0  2  0  0  0  0  0  0
  188.8280  176.6110  144.7470 C   0  0  2  0  0  3  0  0  0  0  0  0
  193.0500  170.0490  144.0190 C   0  0  0  0  0  3  0  0  0  0  0  0
  189.1870  176.8810  142.2780 C   0  0  0  0  0  2  0  0  0  0  0  0
  192.7340  175.2630  146.3030 N   0  0  0  0  0  0  0  0  0  0  0  0
  194.1510  173.2880  145.7120 C   0  0  0  0  0  2  0  0  0  0  0  0
  190.6230  175.4970  143.6000 O   0  0  0  0  0  0  0  0  0  0  0  0
  190.9980  171.8710  143.3180 O   0  0  0  0  0  0  0  0  0  0  0  0
  195.1230  170.9840  145.6090 C   0  0  0  0  0  3  0  0  0  0  0  0
  191.9940  173.7360  144.4620 C   0  0  2  0  0  3  0  0  0  0  0  0
  194.0900  171.8550  145.2590 C   0  0  0  0  0  0  0  0  0  0  0  0
  191.5070  177.2120  148.5090 N   0  0  0  0  0  1  0  0  0  0  0  0
  191.1620  175.8740  148.0640 C   0  0  0  0  0  2  0  0  0  0  0  0
  194.4650  176.9560  146.0300 C   0  0  0  0  0  1  0  0  0  0  0  0
  193.3640  176.1700  145.3460 C   0  0  0  0  0  2  0  0  0  0  0  0
  185.8750  178.5680  143.2750 C   0  0  0  0  0  2  0  0  0  0  0  0
  184.0700  178.3190  141.5340 C   0  0  0  0  0  0  0  0  0  0  0  0
  185.4460  178.4570  141.8900 N   0  0  0  0  0  2  0  0  0  0  0  0
  183.7140  178.2160  140.1970 O   0  0  0  0  0  0  0  0  0  0  0  0
  183.1780  178.2890  142.4230 O   0  0  0  0  0  1  0  0  0  0  0  0
  1 28  1  6  0  0  0
  1  8  1  0  0  0  0
  2 19  1  6  0  0  0
  2  9  1  0  0  0  0
  3  4  1  0  0  0  0
  4 23  1  0  0  0  0
  5 16  1  6  0  0  0
  5 19  1  0  0  0  0
  5 14  1  0  0  0  0
  7 21  1  0  0  0  0
  9  6  1  6  0  0  0
  9 10  1  0  0  0  0
 10 25  1  1  0  0  0
 11 18  1  6  0  0  0
 11 17  1  0  0  0  0
 12  7  2  0  0  0  0
 13 16  1  0  0  0  0
 13  1  1  0  0  0  0
 14  8  1  6  0  0  0
 14  6  1  0  0  0  0
 15 12  1  0  0  0  0
 15  4  2  0  0  0  0
 17 10  1  0  0  0  0
 20  3  2  0  0  0  0
 22  3  1  1  0  0  0
 22  2  1  0  0  0  0
 22 11  1  0  0  0  0
 23 21  2  0  0  0  0
 23 18  1  0  0  0  0
 25 24  1  0  0  0  0
 27 26  1  0  0  0  0
 27 17  1  0  0  0  0
 29 30  1  0  0  0  0
 29 32  1  0  0  0  0
 30 28  1  0  0  0  0
 31 29  2  0  0  0  0
M  END
>  <MODEL>
3

>  <REMARK>
 VINA RESULT:      -7.5      2.327      3.915
  Name = 
  4 active torsions:
  status: ('A' for Active; 'I' for Inactive)
    1  A    between atoms: C_2  and  C_24
    2  A    between atoms: N_10  and  C_24
    3  A    between atoms: C_13  and  C_15
    4  A    between atoms: C_25  and  N_26
                            x       y       z     vdW  Elec       q    Type
                         _______ _______ _______ _____ _____    ______ ____

>  <TORSDO>
F 4

$$$$
=
 OpenBabel11052421423D

 32 36  0  0  1  0  0  0  0  0999 V2000
  186.3260  176.5390  145.9570 C   0  0  1  0  0  3  0  0  0  0  0  0
  191.0310  175.7890  144.2470 C   0  0  1  0  0  3  0  0  0  0  0  0
  193.5590  176.0370  144.2640 C   0  0  0  0  0  0  0  0  0  0  0  0
  194.8730  175.6000  143.7420 C   0  0  0  0  0  0  0  0  0  0  0  0
  189.2120  176.1870  145.5310 C   0  0  1  0  0  3  0  0  0  0  0  0
  188.8450  176.2120  143.0670 C   0  0  0  0  0  2  0  0  0  0  0  0
  197.3260  174.7790  142.7530 N   0  0  0  0  0  0  0  0  0  0  0  0
  186.9580  176.7910  144.5910 C   0  0  0  0  0  2  0  0  0  0  0  0
  190.2180  175.5420  142.9550 C   0  0  2  0  0  3  0  0  0  0  0  0
  190.1120  174.0330  142.6120 C   0  0  2  0  0  3  0  0  0  0  0  0
  192.5280  174.1500  142.9960 C   0  0  2  0  0  3  0  0  0  0  0  0
  197.2180  176.0050  143.3310 C   0  0  0  0  0  3  0  0  0  0  0  0
  187.3400  176.8290  147.0630 C   0  0  0  0  0  2  0  0  0  0  0  0
  188.1930  175.9130  144.4130 C   0  0  2  0  0  3  0  0  0  0  0  0
  195.9900  176.4370  143.8350 C   0  0  0  0  0  3  0  0  0  0  0  0
  188.5720  175.9440  146.8940 C   0  0  0  0  0  2  0  0  0  0  0  0
  191.3570  173.2700  142.8330 N   0  0  0  0  0  0  0  0  0  0  0  0
  193.8480  173.3820  143.0290 C   0  0  0  0  0  2  0  0  0  0  0  0
  190.3190  175.3370  145.3750 O   0  0  0  0  0  0  0  0  0  0  0  0
  193.4350  177.1660  144.8150 O   0  0  0  0  0  0  0  0  0  0  0  0
  196.2570  173.9440  142.6460 C   0  0  0  0  0  3  0  0  0  0  0  0
  192.3940  175.0860  144.2100 C   0  0  2  0  0  3  0  0  0  0  0  0
  195.0070  174.3360  143.1260 C   0  0  0  0  0  0  0  0  0  0  0  0
  188.3490  173.2260  141.1330 N   0  0  0  0  0  1  0  0  0  0  0  0
  189.6660  173.8370  141.1700 C   0  0  0  0  0  2  0  0  0  0  0  0
  189.6890  172.2090  144.2590 C   0  0  0  0  0  1  0  0  0  0  0  0
  191.1690  172.4310  144.0160 C   0  0  0  0  0  2  0  0  0  0  0  0
  185.1090  177.4300  146.1170 C   0  0  0  0  0  2  0  0  0  0  0  0
  184.8460  179.4170  144.5890 C   0  0  0  0  0  0  0  0  0  0  0  0
  185.4350  178.7930  145.7290 N   0  0  0  0  0  2  0  0  0  0  0  0
  185.1920  180.7200  144.2630 O   0  0  0  0  0  1  0  0  0  0  0  0
  184.0130  178.7950  143.8760 O   0  0  0  0  0  0  0  0  0  0  0  0
  1 28  1  1  0  0  0
  1 13  1  0  0  0  0
  2 19  1  1  0  0  0
  3 20  2  0  0  0  0
  4 15  1  0  0  0  0
  4  3  1  0  0  0  0
  5 16  1  1  0  0  0
  7 12  1  0  0  0  0
  8  1  1  0  0  0  0
  9  6  1  1  0  0  0
  9  2  1  0  0  0  0
 10 25  1  6  0  0  0
 10 17  1  0  0  0  0
 10  9  1  0  0  0  0
 11 18  1  1  0  0  0
 11 22  1  0  0  0  0
 12 15  2  0  0  0  0
 14  6  1  6  0  0  0
 14  8  1  0  0  0  0
 14  5  1  0  0  0  0
 16 13  1  0  0  0  0
 17 11  1  0  0  0  0
 17 27  1  0  0  0  0
 18 23  1  0  0  0  0
 19  5  1  0  0  0  0
 21  7  2  0  0  0  0
 21 23  1  0  0  0  0
 22  2  1  0  0  0  0
 22  3  1  6  0  0  0
 23  4  2  0  0  0  0
 24 25  1  0  0  0  0
 27 26  1  0  0  0  0
 29 30  1  0  0  0  0
 30 28  1  0  0  0  0
 31 29  1  0  0  0  0
 32 29  2  0  0  0  0
M  END
>  <MODEL>
4

>  <REMARK>
 VINA RESULT:      -7.5      1.673      1.768
  Name = 
  4 active torsions:
  status: ('A' for Active; 'I' for Inactive)
    1  A    between atoms: C_2  and  C_24
    2  A    between atoms: N_10  and  C_24
    3  A    between atoms: C_13  and  C_15
    4  A    between atoms: C_25  and  N_26
                            x       y       z     vdW  Elec       q    Type
                         _______ _______ _______ _____ _____    ______ ____

>  <TORSDO>
F 4

$$$$
=
 OpenBabel11052421423D

 32 36  0  0  1  0  0  0  0  0999 V2000
  187.2540  177.3700  143.2970 C   0  0  1  0  0  3  0  0  0  0  0  0
  190.8810  174.0620  144.5320 C   0  0  1  0  0  3  0  0  0  0  0  0
  192.3750  172.0390  144.1800 C   0  0  0  0  0  0  0  0  0  0  0  0
  193.5570  171.2550  144.6030 C   0  0  0  0  0  0  0  0  0  0  0  0
  189.4180  175.3880  143.4270 C   0  0  1  0  0  3  0  0  0  0  0  0
  189.0740  175.1820  145.8860 C   0  0  0  0  0  2  0  0  0  0  0  0
  195.7660  169.7920  145.4070 N   0  0  0  0  0  0  0  0  0  0  0  0
  187.4400  176.4850  144.5260 C   0  0  0  0  0  2  0  0  0  0  0  0
  190.4820  174.5820  145.9340 C   0  0  2  0  0  3  0  0  0  0  0  0
  191.5280  175.5730  146.5080 C   0  0  2  0  0  3  0  0  0  0  0  0
  193.0580  173.7860  145.8280 C   0  0  2  0  0  3  0  0  0  0  0  0
  194.7980  169.1840  144.6700 C   0  0  0  0  0  3  0  0  0  0  0  0
  187.7480  176.6400  142.0480 C   0  0  0  0  0  2  0  0  0  0  0  0
  188.9100  176.1090  144.6860 C   0  0  2  0  0  3  0  0  0  0  0  0
  193.6780  169.9050  144.2550 C   0  0  0  0  0  3  0  0  0  0  0  0
  189.2210  176.2730  142.2000 C   0  0  0  0  0  2  0  0  0  0  0  0
  192.9320  175.1910  146.2570 N   0  0  0  0  0  0  0  0  0  0  0  0
  194.5090  173.3160  145.7540 C   0  0  0  0  0  2  0  0  0  0  0  0
  190.7840  175.0920  143.5760 O   0  0  0  0  0  0  0  0  0  0  0  0
  191.4690  171.5020  143.4860 O   0  0  0  0  0  0  0  0  0  0  0  0
  195.6770  171.1020  145.7630 C   0  0  0  0  0  3  0  0  0  0  0  0
  192.3100  173.5060  144.5130 C   0  0  2  0  0  3  0  0  0  0  0  0
  194.5690  171.8600  145.3800 C   0  0  0  0  0  0  0  0  0  0  0  0
  191.4480  177.1660  148.3530 N   0  0  0  0  0  1  0  0  0  0  0  0
  191.3300  175.7610  148.0040 C   0  0  0  0  0  2  0  0  0  0  0  0
  194.4650  177.0480  145.8800 C   0  0  0  0  0  1  0  0  0  0  0  0
  193.4730  176.0940  145.2430 C   0  0  0  0  0  2  0  0  0  0  0  0
  185.7850  177.7210  143.1510 C   0  0  0  0  0  2  0  0  0  0  0  0
  184.6530  178.8000  145.1270 C   0  0  0  0  0  0  0  0  0  0  0  0
  185.1230  177.6380  144.4430 N   0  0  0  0  0  2  0  0  0  0  0  0
  184.0270  178.6660  146.3580 O   0  0  0  0  0  1  0  0  0  0  0  0
  184.8010  179.9450  144.6230 O   0  0  0  0  0  0  0  0  0  0  0  0
  1 28  1  6  0  0  0
  1  8  1  0  0  0  0
  2 19  1  6  0  0  0
  2  9  1  0  0  0  0
  3  4  1  0  0  0  0
  4 23  1  0  0  0  0
  5 16  1  6  0  0  0
  5 19  1  0  0  0  0
  5 14  1  0  0  0  0
  7 21  1  0  0  0  0
  9  6  1  6  0  0  0
  9 10  1  0  0  0  0
 10 25  1  1  0  0  0
 11 18  1  6  0  0  0
 11 17  1  0  0  0  0
 12  7  2  0  0  0  0
 13 16  1  0  0  0  0
 13  1  1  0  0  0  0
 14  8  1  6  0  0  0
 14  6  1  0  0  0  0
 15  4  2  0  0  0  0
 15 12  1  0  0  0  0
 17 10  1  0  0  0  0
 20  3  2  0  0  0  0
 22  3  1  1  0  0  0
 22  2  1  0  0  0  0
 22 11  1  0  0  0  0
 23 18  1  0  0  0  0
 23 21  2  0  0  0  0
 25 24  1  0  0  0  0
 27 26  1  0  0  0  0
 27 17  1  0  0  0  0
 28 30  1  0  0  0  0
 29 31  1  0  0  0  0
 30 29  1  0  0  0  0
 32 29  2  0  0  0  0
M  END
>  <MODEL>
5

>  <REMARK>
 VINA RESULT:      -7.5      2.359      3.860
  Name = 
  4 active torsions:
  status: ('A' for Active; 'I' for Inactive)
    1  A    between atoms: C_2  and  C_24
    2  A    between atoms: N_10  and  C_24
    3  A    between atoms: C_13  and  C_15
    4  A    between atoms: C_25  and  N_26
                            x       y       z     vdW  Elec       q    Type
                         _______ _______ _______ _____ _____    ______ ____

>  <TORSDO>
F 4

$$$$
=
 OpenBabel11052421423D

 32 36  0  0  1  0  0  0  0  0999 V2000
  194.4970  173.6680  145.3880 C   0  0  1  0  0  3  0  0  0  0  0  0
  190.1550  176.0390  144.3150 C   0  0  1  0  0  3  0  0  0  0  0  0
  188.1520  176.6450  142.8770 C   0  0  0  0  0  0  0  0  0  0  0  0
  186.8190  177.2790  142.7740 C   0  0  0  0  0  0  0  0  0  0  0  0
  191.8800  174.5780  144.4120 C   0  0  1  0  0  3  0  0  0  0  0  0
  192.2520  176.7900  145.4940 C   0  0  0  0  0  2  0  0  0  0  0  0
  184.3270  178.4740  142.5900 N   0  0  0  0  0  0  0  0  0  0  0  0
  194.1250  175.1480  145.3920 C   0  0  0  0  0  2  0  0  0  0  0  0
  190.7370  176.9860  145.3920 C   0  0  2  0  0  3  0  0  0  0  0  0
  190.0260  176.8180  146.7610 C   0  0  2  0  0  3  0  0  0  0  0  0
  188.0400  177.0190  145.3420 C   0  0  2  0  0  3  0  0  0  0  0  0
  185.0620  178.2910  141.4610 C   0  0  0  0  0  3  0  0  0  0  0  0
  193.7730  172.9500  144.2490 C   0  0  0  0  0  2  0  0  0  0  0  0
  192.6160  175.3100  145.5460 C   0  0  2  0  0  3  0  0  0  0  0  0
  186.3200  177.6910  141.5330 C   0  0  0  0  0  3  0  0  0  0  0  0
  192.2630  173.1010  144.4060 C   0  0  0  0  0  2  0  0  0  0  0  0
  188.5610  176.6480  146.6700 N   0  0  0  0  0  0  0  0  0  0  0  0
  186.5130  177.0380  145.2890 C   0  0  0  0  0  2  0  0  0  0  0  0
  190.4930  174.7010  144.5970 O   0  0  0  0  0  0  0  0  0  0  0  0
  188.8490  176.4530  141.8420 O   0  0  0  0  0  0  0  0  0  0  0  0
  184.7860  178.0870  143.8110 C   0  0  0  0  0  3  0  0  0  0  0  0
  188.6290  176.1520  144.2170 C   0  0  2  0  0  3  0  0  0  0  0  0
  186.0420  177.4910  143.9340 C   0  0  0  0  0  0  0  0  0  0  0  0
  191.1910  177.5790  148.7630 N   0  0  0  0  0  1  0  0  0  0  0  0
  190.3270  177.9970  147.6740 C   0  0  0  0  0  2  0  0  0  0  0  0
  189.4430  174.5920  147.6380 C   0  0  0  0  0  1  0  0  0  0  0  0
  188.2490  175.2540  146.9790 C   0  0  0  0  0  2  0  0  0  0  0  0
  195.9990  173.5300  145.2220 C   0  0  0  0  0  2  0  0  0  0  0  0
  197.1830  174.9450  143.5060 C   0  0  0  0  0  0  0  0  0  0  0  0
  196.5700  174.7940  144.7860 N   0  0  0  0  0  2  0  0  0  0  0  0
  197.7130  176.1730  143.1380 O   0  0  0  0  0  1  0  0  0  0  0  0
  197.2470  173.9720  142.7070 O   0  0  0  0  0  0  0  0  0  0  0  0
  1 28  1  6  0  0  0
  1  8  1  0  0  0  0
  2 19  1  1  0  0  0
  2  9  1  0  0  0  0
  4  3  1  0  0  0  0
  4 23  1  0  0  0  0
  5 16  1  1  0  0  0
  5 19  1  0  0  0  0
  5 14  1  0  0  0  0
  6 14  1  0  0  0  0
  7 21  1  0  0  0  0
  9  6  1  1  0  0  0
  9 10  1  0  0  0  0
 10 25  1  1  0  0  0
 11 18  1  1  0  0  0
 11 17  1  0  0  0  0
 12 15  1  0  0  0  0
 12  7  2  0  0  0  0
 13 16  1  0  0  0  0
 13  1  1  0  0  0  0
 14  8  1  6  0  0  0
 15  4  2  0  0  0  0
 17 10  1  0  0  0  0
 17 27  1  0  0  0  0
 20  3  2  0  0  0  0
 21 23  2  0  0  0  0
 22  3  1  6  0  0  0
 22  2  1  0  0  0  0
 22 11  1  0  0  0  0
 23 18  1  0  0  0  0
 25 24  1  0  0  0  0
 27 26  1  0  0  0  0
 29 30  1  0  0  0  0
 30 28  1  0  0  0  0
 31 29  1  0  0  0  0
 32 29  2  0  0  0  0
M  END
>  <MODEL>
6

>  <REMARK>
 VINA RESULT:      -7.2      2.624      8.736
  Name = 
  4 active torsions:
  status: ('A' for Active; 'I' for Inactive)
    1  A    between atoms: C_2  and  C_24
    2  A    between atoms: N_10  and  C_24
    3  A    between atoms: C_13  and  C_15
    4  A    between atoms: C_25  and  N_26
                            x       y       z     vdW  Elec       q    Type
                         _______ _______ _______ _____ _____    ______ ____

>  <TORSDO>
F 4

$$$$
=
 OpenBabel11052421423D

 32 36  0  0  1  0  0  0  0  0999 V2000
  194.5200  174.7860  141.8120 C   0  0  1  0  0  3  0  0  0  0  0  0
  190.2580  176.8120  143.6450 C   0  0  1  0  0  3  0  0  0  0  0  0
  187.9290  177.8120  143.4940 C   0  0  0  0  0  0  0  0  0  0  0  0
  186.6910  178.2390  144.1850 C   0  0  0  0  0  0  0  0  0  0  0  0
  191.7990  175.7330  142.3880 C   0  0  1  0  0  3  0  0  0  0  0  0
  192.6820  177.1110  144.2660 C   0  0  0  0  0  2  0  0  0  0  0  0
  184.3840  179.0400  145.4900 N   0  0  0  0  0  0  0  0  0  0  0  0
  194.2790  175.9980  142.7090 C   0  0  0  0  0  2  0  0  0  0  0  0
  191.2440  177.1410  144.7910 C   0  0  2  0  0  3  0  0  0  0  0  0
  191.0430  176.2130  146.0170 C   0  0  2  0  0  3  0  0  0  0  0  0
  188.7070  176.8600  145.6660 C   0  0  2  0  0  3  0  0  0  0  0  0
  184.6660  179.5510  144.2630 C   0  0  0  0  0  3  0  0  0  0  0  0
  193.3950  174.6660  140.7840 C   0  0  0  0  0  2  0  0  0  0  0  0
  192.9340  175.8700  143.4160 C   0  0  2  0  0  3  0  0  0  0  0  0
  185.8240  179.1600  143.5890 C   0  0  0  0  0  3  0  0  0  0  0  0
  192.0490  174.5260  141.4890 C   0  0  0  0  0  2  0  0  0  0  0  0
  189.6300  175.9320  146.3440 N   0  0  0  0  0  0  0  0  0  0  0  0
  187.2630  176.7140  146.1410 C   0  0  0  0  0  2  0  0  0  0  0  0
  190.5760  175.5710  143.0590 O   0  0  0  0  0  0  0  0  0  0  0  0
  188.2070  178.2630  142.3480 O   0  0  0  0  0  0  0  0  0  0  0  0
  185.2100  178.1450  146.0980 C   0  0  0  0  0  3  0  0  0  0  0  0
  188.8050  176.7690  144.1330 C   0  0  2  0  0  3  0  0  0  0  0  0
  186.3850  177.7320  145.4670 C   0  0  0  0  0  0  0  0  0  0  0  0
  191.1920  176.1750  148.4510 N   0  0  0  0  0  1  0  0  0  0  0  0
  191.7270  176.7890  147.2490 C   0  0  0  0  0  2  0  0  0  0  0  0
  190.6440  173.7970  145.7500 C   0  0  0  0  0  1  0  0  0  0  0  0
  189.3450  174.5490  145.9670 C   0  0  0  0  0  2  0  0  0  0  0  0
  195.8560  174.9390  141.1110 C   0  0  0  0  0  2  0  0  0  0  0  0
  196.7090  175.2910  138.7660 C   0  0  0  0  0  0  0  0  0  0  0  0
  195.6660  174.9290  139.6690 N   0  0  0  0  0  2  0  0  0  0  0  0
  196.4750  175.2650  137.3990 O   0  0  0  0  0  0  0  0  0  0  0  0
  197.8410  175.6360  139.1990 O   0  0  0  0  0  1  0  0  0  0  0  0
  1 28  1  6  0  0  0
  1  8  1  0  0  0  0
  2 19  1  1  0  0  0
  2 22  1  0  0  0  0
  2  9  1  0  0  0  0
  3  4  1  0  0  0  0
  4 23  1  0  0  0  0
  5 16  1  6  0  0  0
  5 19  1  0  0  0  0
  5 14  1  0  0  0  0
  7 21  1  0  0  0  0
  9  6  1  6  0  0  0
  9 10  1  0  0  0  0
 10 17  1  0  0  0  0
 10 25  1  1  0  0  0
 11 18  1  6  0  0  0
 11 17  1  0  0  0  0
 12  7  2  0  0  0  0
 13 16  1  0  0  0  0
 13  1  1  0  0  0  0
 14  8  1  6  0  0  0
 14  6  1  0  0  0  0
 15  4  2  0  0  0  0
 15 12  1  0  0  0  0
 20  3  2  0  0  0  0
 22  3  1  6  0  0  0
 22 11  1  0  0  0  0
 23 21  2  0  0  0  0
 23 18  1  0  0  0  0
 25 24  1  0  0  0  0
 26 27  1  0  0  0  0
 27 17  1  0  0  0  0
 29 32  1  0  0  0  0
 29 30  1  0  0  0  0
 30 28  1  0  0  0  0
 31 29  2  0  0  0  0
M  END
>  <MODEL>
7

>  <REMARK>
 VINA RESULT:      -7.2      3.580      8.751
  Name = 
  4 active torsions:
  status: ('A' for Active; 'I' for Inactive)
    1  A    between atoms: C_2  and  C_24
    2  A    between atoms: N_10  and  C_24
    3  A    between atoms: C_13  and  C_15
    4  A    between atoms: C_25  and  N_26
                            x       y       z     vdW  Elec       q    Type
                         _______ _______ _______ _____ _____    ______ ____

>  <TORSDO>
F 4

$$$$
=
 OpenBabel11052421423D

 32 36  0  0  1  0  0  0  0  0999 V2000
  192.0120  171.5890  141.4550 C   0  0  1  0  0  3  0  0  0  0  0  0
  189.0270  175.2200  143.3330 C   0  0  1  0  0  3  0  0  0  0  0  0
  186.8160  176.3840  143.7850 C   0  0  0  0  0  0  0  0  0  0  0  0
  186.0650  177.4230  144.5260 C   0  0  0  0  0  0  0  0  0  0  0  0
  189.8660  173.2710  142.5480 C   0  0  1  0  0  3  0  0  0  0  0  0
  191.3000  175.2860  142.2470 C   0  0  0  0  0  2  0  0  0  0  0  0
  184.6720  179.3740  145.9110 N   0  0  0  0  0  0  0  0  0  0  0  0
  192.0360  173.1060  141.2870 C   0  0  0  0  0  2  0  0  0  0  0  0
  190.3760  175.9740  143.2560 C   0  0  2  0  0  3  0  0  0  0  0  0
  191.0370  176.1320  144.6500 C   0  0  2  0  0  3  0  0  0  0  0  0
  188.7870  176.9110  145.2240 C   0  0  2  0  0  3  0  0  0  0  0  0
  184.1620  178.8930  144.7470 C   0  0  0  0  0  3  0  0  0  0  0  0
  190.5680  171.0950  141.5320 C   0  0  0  0  0  2  0  0  0  0  0  0
  191.3160  173.7750  142.4530 C   0  0  2  0  0  3  0  0  0  0  0  0
  184.8490  177.9090  144.0340 C   0  0  0  0  0  3  0  0  0  0  0  0
  189.8480  171.7540  142.7050 C   0  0  0  0  0  2  0  0  0  0  0  0
  190.0920  176.4600  145.7380 N   0  0  0  0  0  0  0  0  0  0  0  0
  187.8670  177.4400  146.3230 C   0  0  0  0  0  2  0  0  0  0  0  0
  189.2350  173.8640  143.6540 O   0  0  0  0  0  0  0  0  0  0  0  0
  186.3580  175.9120  142.7090 O   0  0  0  0  0  0  0  0  0  0  0  0
  185.8540  178.9240  146.4130 C   0  0  0  0  0  3  0  0  0  0  0  0
  188.0860  175.8340  144.3770 C   0  0  2  0  0  3  0  0  0  0  0  0
  186.5820  177.9480  145.7300 C   0  0  0  0  0  0  0  0  0  0  0  0
  193.3390  176.6820  145.2370 N   0  0  0  0  0  1  0  0  0  0  0  0
  192.1300  177.1900  144.6140 C   0  0  0  0  0  2  0  0  0  0  0  0
  190.9530  175.3020  147.7030 C   0  0  0  0  0  1  0  0  0  0  0  0
  189.9390  175.2720  146.5760 C   0  0  0  0  0  2  0  0  0  0  0  0
  192.7230  170.9450  140.2790 C   0  0  0  0  0  2  0  0  0  0  0  0
  191.7130  171.2280  137.9880 C   0  0  0  0  0  0  0  0  0  0  0  0
  192.4970  171.7240  139.0730 N   0  0  0  0  0  2  0  0  0  0  0  0
  191.5280  172.0120  136.8590 O   0  0  0  0  0  0  0  0  0  0  0  0
  191.1870  170.0840  138.0470 O   0  0  0  0  0  1  0  0  0  0  0  0
  1 28  1  6  0  0  0
  1 13  1  0  0  0  0
  2 19  1  1  0  0  0
  2 22  1  0  0  0  0
  3  4  1  0  0  0  0
  4 23  1  0  0  0  0
  5 16  1  1  0  0  0
  5 19  1  0  0  0  0
  6 14  1  0  0  0  0
  7 21  1  0  0  0  0
  8  1  1  0  0  0  0
  9  6  1  6  0  0  0
  9  2  1  0  0  0  0
  9 10  1  0  0  0  0
 10 25  1  6  0  0  0
 10 17  1  0  0  0  0
 11 17  1  0  0  0  0
 11 18  1  1  0  0  0
 12  7  2  0  0  0  0
 13 16  1  0  0  0  0
 14  8  1  6  0  0  0
 14  5  1  0  0  0  0
 15  4  2  0  0  0  0
 15 12  1  0  0  0  0
 17 27  1  0  0  0  0
 20  3  2  0  0  0  0
 22  3  1  6  0  0  0
 22 11  1  0  0  0  0
 23 18  1  0  0  0  0
 23 21  2  0  0  0  0
 25 24  1  0  0  0  0
 27 26  1  0  0  0  0
 29 32  1  0  0  0  0
 29 30  1  0  0  0  0
 30 28  1  0  0  0  0
 31 29  2  0  0  0  0
M  END
>  <MODEL>
8

>  <REMARK>
 VINA RESULT:      -7.0      3.278      8.376
  Name = 
  4 active torsions:
  status: ('A' for Active; 'I' for Inactive)
    1  A    between atoms: C_2  and  C_24
    2  A    between atoms: N_10  and  C_24
    3  A    between atoms: C_13  and  C_15
    4  A    between atoms: C_25  and  N_26
                            x       y       z     vdW  Elec       q    Type
                         _______ _______ _______ _____ _____    ______ ____

>  <TORSDO>
F 4

$$$$
=
 OpenBabel11052421423D

 32 36  0  0  1  0  0  0  0  0999 V2000
  185.6120  178.4270  142.5750 C   0  0  1  0  0  3  0  0  0  0  0  0
  189.3400  175.1580  143.5960 C   0  0  1  0  0  3  0  0  0  0  0  0
  190.7390  173.0700  143.2370 C   0  0  0  0  0  0  0  0  0  0  0  0
  191.9610  172.2990  143.5600 C   0  0  0  0  0  0  0  0  0  0  0  0
  187.7470  176.4080  142.5880 C   0  0  1  0  0  3  0  0  0  0  0  0
  187.7680  176.4560  145.0790 C   0  0  0  0  0  2  0  0  0  0  0  0
  194.2460  170.8610  144.1760 N   0  0  0  0  0  0  0  0  0  0  0  0
  185.9670  177.6630  143.8480 C   0  0  0  0  0  2  0  0  0  0  0  0
  189.1600  175.8240  144.9810 C   0  0  2  0  0  3  0  0  0  0  0  0
  190.2920  176.8380  145.2920 C   0  0  2  0  0  3  0  0  0  0  0  0
  191.6810  174.9510  144.5800 C   0  0  2  0  0  3  0  0  0  0  0  0
  193.1710  170.2110  143.6550 C   0  0  0  0  0  3  0  0  0  0  0  0
  185.9060  177.5640  141.3490 C   0  0  0  0  0  2  0  0  0  0  0  0
  187.4390  177.2640  143.8280 C   0  0  2  0  0  3  0  0  0  0  0  0
  192.0110  170.9180  143.3380 C   0  0  0  0  0  3  0  0  0  0  0  0
  187.3810  177.1730  141.3200 C   0  0  0  0  0  2  0  0  0  0  0  0
  191.6390  176.3940  144.8780 N   0  0  0  0  0  0  0  0  0  0  0  0
  193.0990  174.4360  144.3430 C   0  0  0  0  0  2  0  0  0  0  0  0
  189.1150  176.0910  142.5650 O   0  0  0  0  0  0  0  0  0  0  0  0
  189.7330  172.4920  142.7410 O   0  0  0  0  0  0  0  0  0  0  0  0
  194.2270  172.2020  144.4070 C   0  0  0  0  0  3  0  0  0  0  0  0
  190.7430  174.5630  143.4240 C   0  0  2  0  0  3  0  0  0  0  0  0
  193.0840  172.9490  144.1150 C   0  0  0  0  0  0  0  0  0  0  0  0
  190.1250  175.9780  147.5680 N   0  0  0  0  0  1  0  0  0  0  0  0
  190.3210  177.1790  146.7740 C   0  0  0  0  0  2  0  0  0  0  0  0
  191.2110  178.4490  143.6400 C   0  0  0  0  0  1  0  0  0  0  0  0
  192.0340  177.1780  143.7100 C   0  0  0  0  0  2  0  0  0  0  0  0
  184.1430  178.8030  142.6110 C   0  0  0  0  0  2  0  0  0  0  0  0
  182.0560  178.4190  141.2510 C   0  0  0  0  0  0  0  0  0  0  0  0
  183.4520  178.2180  141.4720 N   0  0  0  0  0  2  0  0  0  0  0  0
  181.4450  177.8380  140.1490 O   0  0  0  0  0  0  0  0  0  0  0  0
  181.3750  179.1190  142.0460 O   0  0  0  0  0  1  0  0  0  0  0  0
  1 28  1  1  0  0  0
  1  8  1  0  0  0  0
  2 19  1  6  0  0  0
  2  9  1  0  0  0  0
  3  4  1  0  0  0  0
  4 23  1  0  0  0  0
  5 16  1  6  0  0  0
  5 14  1  0  0  0  0
  7 21  1  0  0  0  0
  9  6  1  6  0  0  0
  9 10  1  0  0  0  0
 10 25  1  1  0  0  0
 11 18  1  6  0  0  0
 11 17  1  0  0  0  0
 12  7  2  0  0  0  0
 13  1  1  0  0  0  0
 14  8  1  1  0  0  0
 14  6  1  0  0  0  0
 15  4  2  0  0  0  0
 15 12  1  0  0  0  0
 16 13  1  0  0  0  0
 17 10  1  0  0  0  0
 19  5  1  0  0  0  0
 20  3  2  0  0  0  0
 22  3  1  1  0  0  0
 22  2  1  0  0  0  0
 22 11  1  0  0  0  0
 23 18  1  0  0  0  0
 23 21  2  0  0  0  0
 25 24  1  0  0  0  0
 26 27  1  0  0  0  0
 27 17  1  0  0  0  0
 29 30  1  0  0  0  0
 29 32  1  0  0  0  0
 30 28  1  0  0  0  0
 31 29  2  0  0  0  0
M  END
>  <MODEL>
9

>  <REMARK>
 VINA RESULT:      -6.8      2.511      4.168
  Name = 
  4 active torsions:
  status: ('A' for Active; 'I' for Inactive)
    1  A    between atoms: C_2  and  C_24
    2  A    between atoms: N_10  and  C_24
    3  A    between atoms: C_13  and  C_15
    4  A    between atoms: C_25  and  N_26
                            x       y       z     vdW  Elec       q    Type
                         _______ _______ _______ _____ _____    ______ ____

>  <TORSDO>
F 4

$$$$
