=
 OpenBabel11052417343D

 25 28  0  0  1  0  0  0  0  0999 V2000
  190.7210  176.2150  145.9270 C   0  0  0  0  0  0  0  0  0  0  0  0
  189.5400  177.0780  145.6050 C   0  0  1  0  0  3  0  0  0  0  0  0
  189.5490  174.8850  147.5880 C   0  0  0  0  0  3  0  0  0  0  0  0
  192.0050  176.3290  145.6380 C   0  0  0  0  0  0  0  0  0  0  0  0
  194.7650  176.1970  145.4160 C   0  0  0  0  0  3  0  0  0  0  0  0
  188.2870  175.5340  147.1520 C   0  0  0  0  0  3  0  0  0  0  0  0
  192.7200  175.4190  146.4100 C   0  0  0  0  0  0  0  0  0  0  0  0
  194.1080  175.3330  146.3110 C   0  0  0  0  0  3  0  0  0  0  0  0
  186.9860  177.0270  145.6910 C   0  0  0  0  0  0  0  0  0  0  0  0
  185.4950  176.8950  146.6100 Cl  0  0  0  0  0  0  0  0  0  0  0  0
  189.3740  177.3400  144.1340 C   0  0  0  0  0  3  0  0  0  0  0  0
  194.0350  177.1290  144.6500 C   0  0  0  0  0  3  0  0  0  0  0  0
  190.6760  175.2160  146.9620 C   0  0  0  0  0  0  0  0  0  0  0  0
  191.9870  174.7240  147.2270 N   0  0  0  0  0  0  0  0  0  0  0  0
  186.9520  177.5570  144.4630 C   0  0  0  0  0  3  0  0  0  0  0  0
  192.6370  177.2070  144.7600 C   0  0  0  0  0  3  0  0  0  0  0  0
  188.1680  177.6330  143.6190 C   0  0  0  0  0  0  0  0  0  0  0  0
  188.2640  176.5050  146.2110 C   0  0  0  0  0  0  0  0  0  0  0  0
  188.0280  177.9620  142.2350 N   0  0  0  0  0  2  0  0  0  0  0  0
  186.9110  178.6580  141.7380 N   0  0  0  0  0  2  0  0  0  0  0  0
  185.9930  177.7150  141.0940 C   0  0  2  0  0  3  0  0  0  0  0  0
  186.3090  177.5490  139.6830 N   0  0  0  0  0  1  0  0  0  0  0  0
  184.5610  178.1080  141.2900 C   0  0  0  0  0  0  0  0  0  0  0  0
  183.9940  178.0260  142.5540 O   0  0  0  0  0  1  0  0  0  0  0  0
  183.8770  178.5460  140.3270 O   0  0  0  0  0  0  0  0  0  0  0  0
  1 13  1  0  0  0  0
  2 11  1  6  0  0  0
  2  1  1  0  0  0  0
  2 18  1  0  0  0  0
  4  1  2  0  0  0  0
  4  7  1  0  0  0  0
  5  8  2  0  0  0  0
  6  3  1  0  0  0  0
  7 14  2  0  0  0  0
  8  7  1  0  0  0  0
  9 18  1  0  0  0  0
  9 10  1  0  0  0  0
 12 16  2  0  0  0  0
 12  5  1  0  0  0  0
 13 14  1  0  0  0  0
 13  3  2  0  0  0  0
 15  9  2  0  0  0  0
 16  4  1  0  0  0  0
 17 11  2  0  0  0  0
 17 15  1  0  0  0  0
 18  6  2  0  0  0  0
 19 17  1  0  0  0  0
 20 19  1  0  0  0  0
 21 22  1  6  0  0  0
 21 23  1  0  0  0  0
 21 20  1  0  0  0  0
 23 24  1  0  0  0  0
 25 23  2  0  0  0  0
M  END
>  <MODEL>
1

>  <REMARK>
 VINA RESULT:      -7.4      0.000      0.000
  Name = 
  4 active torsions:
  status: ('A' for Active; 'I' for Inactive)
    1  A    between atoms: C_2  and  C_21
    2  A    between atoms: N_6  and  N_15
    3  A    between atoms: N_6  and  C_23
    4  A    between atoms: N_15  and  C_21
                            x       y       z     vdW  Elec       q    Type
                         _______ _______ _______ _____ _____    ______ ____

>  <TORSDO>
F 4

$$$$
=
 OpenBabel11052417343D

 25 28  0  0  1  0  0  0  0  0999 V2000
  185.9720  177.6870  144.1340 C   0  0  0  0  0  0  0  0  0  0  0  0
  186.9600  177.3630  143.0570 C   0  0  0  0  0  0  0  0  0  0  0  0
  184.2120  178.3530  142.5970 C   0  0  0  0  0  3  0  0  0  0  0  0
  186.1050  177.8440  145.4390 C   0  0  0  0  0  0  0  0  0  0  0  0
  185.9000  178.4020  148.1460 C   0  0  0  0  0  3  0  0  0  0  0  0
  185.0450  177.8280  141.4860 C   0  0  0  0  0  3  0  0  0  0  0  0
  184.9420  178.4160  145.9430 C   0  0  1  0  0  3  0  0  0  0  0  0
  184.8160  178.7010  147.3020 C   0  0  0  0  0  3  0  0  0  0  0  0
  187.0310  176.6790  140.5950 C   0  0  0  0  0  0  0  0  0  0  0  0
  186.6700  177.0160  138.9090 Cl  0  0  0  0  0  0  0  0  0  0  0  0
  187.7330  176.1000  143.3140 C   0  0  0  0  0  3  0  0  0  0  0  0
  187.0830  177.8390  147.6260 C   0  0  0  0  0  3  0  0  0  0  0  0
  184.6760  178.2410  143.8400 C   0  0  0  0  0  0  0  0  0  0  0  0
  184.0480  178.6840  145.0390 N   0  0  0  0  0  0  0  0  0  0  0  0
  187.9600  175.7650  140.8940 C   0  0  0  0  0  3  0  0  0  0  0  0
  187.1990  177.5570  146.2540 C   0  0  0  0  0  3  0  0  0  0  0  0
  188.2580  175.3960  142.2980 C   0  0  0  0  0  0  0  0  0  0  0  0
  186.2850  177.3290  141.6900 C   0  0  0  0  0  0  0  0  0  0  0  0
  189.0620  174.2400  142.5510 N   0  0  0  0  0  2  0  0  0  0  0  0
  190.3770  174.3330  143.0390 N   0  0  0  0  0  2  0  0  0  0  0  0
  190.4680  173.6520  144.3340 C   0  0  2  0  0  3  0  0  0  0  0  0
  189.6330  172.4600  144.3650 N   0  0  0  0  0  1  0  0  0  0  0  0
  190.1480  174.5720  145.4720 C   0  0  0  0  0  0  0  0  0  0  0  0
  189.3600  174.1170  146.5200 O   0  0  0  0  0  1  0  0  0  0  0  0
  190.6160  175.7410  145.5040 O   0  0  0  0  0  0  0  0  0  0  0  0
  1  4  2  0  0  0  0
  2 11  1  0  0  0  0
  2  1  1  0  0  0  0
  3 13  1  0  0  0  0
  4  7  1  0  0  0  0
  4 16  1  0  0  0  0
  6 18  1  0  0  0  0
  6  3  2  0  0  0  0
  7  8  1  6  0  0  0
  8  5  2  0  0  0  0
  9 15  2  0  0  0  0
  9 18  1  0  0  0  0
 10  9  1  0  0  0  0
 12  5  1  0  0  0  0
 13  1  1  0  0  0  0
 13 14  2  0  0  0  0
 14  7  1  0  0  0  0
 15 17  1  0  0  0  0
 16 12  2  0  0  0  0
 17 19  1  0  0  0  0
 17 11  2  0  0  0  0
 18  2  2  0  0  0  0
 19 20  1  0  0  0  0
 20 21  1  0  0  0  0
 21 22  1  6  0  0  0
 21 23  1  0  0  0  0
 23 25  2  0  0  0  0
 23 24  1  0  0  0  0
M  END
>  <MODEL>
2

>  <REMARK>
 VINA RESULT:      -7.3      4.024      6.852
  Name = 
  4 active torsions:
  status: ('A' for Active; 'I' for Inactive)
    1  A    between atoms: C_2  and  C_21
    2  A    between atoms: N_6  and  N_15
    3  A    between atoms: N_6  and  C_23
    4  A    between atoms: N_15  and  C_21
                            x       y       z     vdW  Elec       q    Type
                         _______ _______ _______ _____ _____    ______ ____

>  <TORSDO>
F 4

$$$$
=
 OpenBabel11052417343D

 25 28  0  0  1  0  0  0  0  0999 V2000
  189.9880  176.1450  145.1640 C   0  0  0  0  0  0  0  0  0  0  0  0
  188.9830  177.2270  145.4120 C   0  0  1  0  0  3  0  0  0  0  0  0
  189.3370  174.8220  147.0940 C   0  0  0  0  0  3  0  0  0  0  0  0
  191.0410  176.0820  144.3690 C   0  0  0  0  0  0  0  0  0  0  0  0
  193.3870  175.5240  143.0020 C   0  0  0  0  0  3  0  0  0  0  0  0
  188.1690  175.7220  147.2620 C   0  0  0  0  0  3  0  0  0  0  0  0
  191.8030  174.9730  144.7220 C   0  0  0  0  0  0  0  0  0  0  0  0
  192.9830  174.6710  144.0450 C   0  0  0  0  0  3  0  0  0  0  0  0
  186.7270  177.5900  146.5600 C   0  0  0  0  0  0  0  0  0  0  0  0
  185.7400  177.5870  148.0120 Cl  0  0  0  0  0  0  0  0  0  0  0  0
  188.2960  177.7040  144.1620 C   0  0  0  0  0  3  0  0  0  0  0  0
  192.6200  176.6570  142.6620 C   0  0  0  0  0  3  0  0  0  0  0  0
  190.1590  175.0400  146.0700 C   0  0  0  0  0  0  0  0  0  0  0  0
  191.3340  174.3080  145.7350 N   0  0  0  0  0  0  0  0  0  0  0  0
  186.3130  178.2740  145.4880 C   0  0  0  0  0  3  0  0  0  0  0  0
  191.4320  176.9510  143.3520 C   0  0  0  0  0  3  0  0  0  0  0  0
  187.0740  178.2580  144.2170 C   0  0  0  0  0  0  0  0  0  0  0  0
  187.9700  176.7990  146.4690 C   0  0  0  0  0  0  0  0  0  0  0  0
  186.4590  178.7840  143.0380 N   0  0  0  0  0  2  0  0  0  0  0  0
  185.3880  178.1360  142.3970 N   0  0  0  0  0  2  0  0  0  0  0  0
  185.5220  178.2900  140.9460 C   0  0  2  0  0  3  0  0  0  0  0  0
  184.2220  178.2750  140.2910 N   0  0  0  0  0  1  0  0  0  0  0  0
  186.4400  177.2640  140.3580 C   0  0  0  0  0  0  0  0  0  0  0  0
  186.6880  177.2660  138.9920 O   0  0  0  0  0  0  0  0  0  0  0  0
  187.0170  176.4210  141.0950 O   0  0  0  0  0  1  0  0  0  0  0  0
  1  2  1  0  0  0  0
  1 13  1  0  0  0  0
  2 11  1  6  0  0  0
  2 18  1  0  0  0  0
  3  6  1  0  0  0  0
  4  7  1  0  0  0  0
  4  1  2  0  0  0  0
  5  8  2  0  0  0  0
  7 14  2  0  0  0  0
  8  7  1  0  0  0  0
  9 10  1  0  0  0  0
 11 17  2  0  0  0  0
 12  5  1  0  0  0  0
 12 16  2  0  0  0  0
 13  3  2  0  0  0  0
 14 13  1  0  0  0  0
 15  9  2  0  0  0  0
 16  4  1  0  0  0  0
 17 15  1  0  0  0  0
 18  9  1  0  0  0  0
 18  6  2  0  0  0  0
 19 17  1  0  0  0  0
 20 19  1  0  0  0  0
 21 22  1  6  0  0  0
 21 20  1  0  0  0  0
 23 21  1  0  0  0  0
 23 25  1  0  0  0  0
 24 23  2  0  0  0  0
M  END
>  <MODEL>
3

>  <REMARK>
 VINA RESULT:      -7.2      1.783      1.993
  Name = 
  4 active torsions:
  status: ('A' for Active; 'I' for Inactive)
    1  A    between atoms: C_2  and  C_21
    2  A    between atoms: N_6  and  N_15
    3  A    between atoms: N_6  and  C_23
    4  A    between atoms: N_15  and  C_21
                            x       y       z     vdW  Elec       q    Type
                         _______ _______ _______ _____ _____    ______ ____

>  <TORSDO>
F 4

$$$$
=
 OpenBabel11052417343D

 25 28  0  0  1  0  0  0  0  0999 V2000
  186.9310  176.9920  143.7080 C   0  0  0  0  0  0  0  0  0  0  0  0
  188.1310  176.1680  144.0570 C   0  0  1  0  0  3  0  0  0  0  0  0
  186.0300  176.9960  145.9640 C   0  0  0  0  0  3  0  0  0  0  0  0
  186.4000  177.3340  142.5490 C   0  0  0  0  0  0  0  0  0  0  0  0
  184.8530  178.1820  140.4100 C   0  0  0  0  0  3  0  0  0  0  0  0
  187.3030  176.3900  146.4270 C   0  0  0  0  0  3  0  0  0  0  0  0
  185.1340  177.8650  142.7740 C   0  0  0  0  0  0  0  0  0  0  0  0
  184.3410  178.3020  141.7140 C   0  0  0  0  0  3  0  0  0  0  0  0
  189.6020  175.5880  146.0660 C   0  0  0  0  0  0  0  0  0  0  0  0
  189.7850  174.8960  147.6700 Cl  0  0  0  0  0  0  0  0  0  0  0  0
  189.4000  176.6540  143.4120 C   0  0  0  0  0  3  0  0  0  0  0  0
  186.1300  177.6260  140.1860 C   0  0  0  0  0  3  0  0  0  0  0  0
  185.9050  177.2920  144.6720 C   0  0  0  0  0  0  0  0  0  0  0  0
  184.7730  177.8650  144.0230 N   0  0  0  0  0  0  0  0  0  0  0  0
  190.6850  175.7580  145.3000 C   0  0  0  0  0  3  0  0  0  0  0  0
  186.9190  177.1890  141.2630 C   0  0  0  0  0  3  0  0  0  0  0  0
  190.5960  176.3960  143.9650 C   0  0  0  0  0  0  0  0  0  0  0  0
  188.2920  176.0500  145.5690 C   0  0  0  0  0  0  0  0  0  0  0  0
  191.8020  176.7890  143.3070 N   0  0  0  0  0  2  0  0  0  0  0  0
  193.0500  176.7790  143.9570 N   0  0  0  0  0  2  0  0  0  0  0  0
  194.0080  176.0010  143.1650 C   0  0  2  0  0  3  0  0  0  0  0  0
  193.5990  174.6080  143.0610 N   0  0  0  0  0  1  0  0  0  0  0  0
  195.4010  176.1230  143.6990 C   0  0  0  0  0  0  0  0  0  0  0  0
  196.3610  176.8010  142.9620 O   0  0  0  0  0  0  0  0  0  0  0  0
  195.7020  175.6450  144.8250 O   0  0  0  0  0  1  0  0  0  0  0  0
  1  2  1  0  0  0  0
  1 13  1  0  0  0  0
  2 11  1  1  0  0  0
  2 18  1  0  0  0  0
  3  6  1  0  0  0  0
  4  7  1  0  0  0  0
  4  1  2  0  0  0  0
  5  8  2  0  0  0  0
  7 14  2  0  0  0  0
  8  7  1  0  0  0  0
  9 10  1  0  0  0  0
 11 17  2  0  0  0  0
 12  5  1  0  0  0  0
 12 16  2  0  0  0  0
 13  3  2  0  0  0  0
 14 13  1  0  0  0  0
 15  9  2  0  0  0  0
 16  4  1  0  0  0  0
 17 15  1  0  0  0  0
 18  9  1  0  0  0  0
 18  6  2  0  0  0  0
 19 20  1  0  0  0  0
 19 17  1  0  0  0  0
 21 22  1  1  0  0  0
 21 23  1  0  0  0  0
 21 20  1  0  0  0  0
 23 25  1  0  0  0  0
 24 23  2  0  0  0  0
M  END
>  <MODEL>
4

>  <REMARK>
 VINA RESULT:      -7.1      4.217      7.397
  Name = 
  4 active torsions:
  status: ('A' for Active; 'I' for Inactive)
    1  A    between atoms: C_2  and  C_21
    2  A    between atoms: N_6  and  N_15
    3  A    between atoms: N_6  and  C_23
    4  A    between atoms: N_15  and  C_21
                            x       y       z     vdW  Elec       q    Type
                         _______ _______ _______ _____ _____    ______ ____

>  <TORSDO>
F 4

$$$$
=
 OpenBabel11052417343D

 25 28  0  0  1  0  0  0  0  0999 V2000
  185.8900  177.6730  144.0830 C   0  0  0  0  0  0  0  0  0  0  0  0
  186.8900  177.3540  143.0140 C   0  0  0  0  0  0  0  0  0  0  0  0
  184.1690  178.4070  142.5340 C   0  0  0  0  0  3  0  0  0  0  0  0
  186.0060  177.7970  145.3920 C   0  0  0  0  0  0  0  0  0  0  0  0
  185.7670  178.2980  148.1080 C   0  0  0  0  0  3  0  0  0  0  0  0
  185.0100  177.8910  141.4240 C   0  0  0  0  0  3  0  0  0  0  0  0
  184.8450  178.3800  145.8910 C   0  0  1  0  0  3  0  0  0  0  0  0
  184.7020  178.6370  147.2540 C   0  0  0  0  0  3  0  0  0  0  0  0
  186.9870  176.7240  140.5380 C   0  0  0  0  0  0  0  0  0  0  0  0
  186.6610  177.1060  138.8550 Cl  0  0  0  0  0  0  0  0  0  0  0  0
  187.6340  176.0700  143.2540 C   0  0  0  0  0  3  0  0  0  0  0  0
  186.9470  177.7240  147.5940 C   0  0  0  0  0  3  0  0  0  0  0  0
  184.6100  178.2580  143.7810 C   0  0  0  0  0  0  0  0  0  0  0  0
  183.9710  178.6860  144.9800 N   0  0  0  0  0  0  0  0  0  0  0  0
  187.8940  175.7860  140.8320 C   0  0  0  0  0  3  0  0  0  0  0  0
  187.0800  177.4710  146.2190 C   0  0  0  0  0  3  0  0  0  0  0  0
  188.1620  175.3790  142.2310 C   0  0  0  0  0  0  0  0  0  0  0  0
  186.2360  177.3630  141.6360 C   0  0  0  0  0  0  0  0  0  0  0  0
  188.9390  174.2020  142.4710 N   0  0  0  0  0  2  0  0  0  0  0  0
  188.5180  172.9270  142.0510 N   0  0  0  0  0  2  0  0  0  0  0  0
  189.5270  172.3480  141.1600 C   0  0  2  0  0  3  0  0  0  0  0  0
  190.8730  172.7170  141.5750 N   0  0  0  0  0  1  0  0  0  0  0  0
  189.2800  172.7080  139.7280 C   0  0  0  0  0  0  0  0  0  0  0  0
  188.0330  172.4720  139.1670 O   0  0  0  0  0  1  0  0  0  0  0  0
  190.1810  173.2540  139.0370 O   0  0  0  0  0  0  0  0  0  0  0  0
  1  4  2  0  0  0  0
  2 11  1  0  0  0  0
  2  1  1  0  0  0  0
  3 13  1  0  0  0  0
  4  7  1  0  0  0  0
  4 16  1  0  0  0  0
  6 18  1  0  0  0  0
  6  3  2  0  0  0  0
  7  8  1  6  0  0  0
  8  5  2  0  0  0  0
  9 15  2  0  0  0  0
  9 18  1  0  0  0  0
 10  9  1  0  0  0  0
 12  5  1  0  0  0  0
 13  1  1  0  0  0  0
 13 14  2  0  0  0  0
 14  7  1  0  0  0  0
 15 17  1  0  0  0  0
 16 12  2  0  0  0  0
 17 19  1  0  0  0  0
 17 11  2  0  0  0  0
 18  2  2  0  0  0  0
 20 19  1  0  0  0  0
 21 22  1  1  0  0  0
 21 20  1  0  0  0  0
 23 21  1  0  0  0  0
 24 23  1  0  0  0  0
 25 23  2  0  0  0  0
M  END
>  <MODEL>
5

>  <REMARK>
 VINA RESULT:      -7.1      4.817      6.810
  Name = 
  4 active torsions:
  status: ('A' for Active; 'I' for Inactive)
    1  A    between atoms: C_2  and  C_21
    2  A    between atoms: N_6  and  N_15
    3  A    between atoms: N_6  and  C_23
    4  A    between atoms: N_15  and  C_21
                            x       y       z     vdW  Elec       q    Type
                         _______ _______ _______ _____ _____    ______ ____

>  <TORSDO>
F 4

$$$$
=
 OpenBabel11052417343D

 25 28  0  0  1  0  0  0  0  0999 V2000
  186.6260  177.5850  143.8520 C   0  0  0  0  0  0  0  0  0  0  0  0
  185.8150  177.2590  142.6360 C   0  0  0  0  0  0  0  0  0  0  0  0
  188.7320  177.7430  142.6520 C   0  0  0  0  0  3  0  0  0  0  0  0
  186.3520  177.5140  145.1420 C   0  0  0  0  0  0  0  0  0  0  0  0
  186.3100  177.4090  147.9120 C   0  0  0  0  0  3  0  0  0  0  0  0
  187.9650  177.6640  141.3840 C   0  0  0  0  0  3  0  0  0  0  0  0
  187.5350  177.6570  145.8600 C   0  0  0  0  0  0  0  0  0  0  0  0
  187.5360  177.6120  147.2540 C   0  0  0  0  0  3  0  0  0  0  0  0
  185.8680  177.5650  140.0980 C   0  0  0  0  0  0  0  0  0  0  0  0
  186.6430  177.2880  138.5460 Cl  0  0  0  0  0  0  0  0  0  0  0  0
  184.4980  177.9820  142.5820 C   0  0  0  0  0  3  0  0  0  0  0  0
  185.1180  177.2460  147.1780 C   0  0  0  0  0  3  0  0  0  0  0  0
  188.0570  177.7310  143.7990 C   0  0  0  0  0  0  0  0  0  0  0  0
  188.5940  177.7860  145.1180 N   0  0  0  0  0  0  0  0  0  0  0  0
  184.5770  177.9130  140.1320 C   0  0  0  0  0  3  0  0  0  0  0  0
  185.1290  177.2930  145.7740 C   0  0  0  0  0  3  0  0  0  0  0  0
  183.8920  178.2210  141.4080 C   0  0  0  0  0  0  0  0  0  0  0  0
  186.6240  177.4910  141.3630 C   0  0  2  0  0  3  0  0  0  0  0  0
  182.6010  178.8360  141.3670 N   0  0  0  0  0  2  0  0  0  0  0  0
  181.5520  178.3270  140.5810 N   0  0  0  0  0  2  0  0  0  0  0  0
  180.2870  178.9380  140.9990 C   0  0  2  0  0  3  0  0  0  0  0  0
  180.2900  179.2380  142.4230 N   0  0  0  0  0  1  0  0  0  0  0  0
  179.1090  178.0940  140.6210 C   0  0  0  0  0  0  0  0  0  0  0  0
  178.4970  178.2820  139.3900 O   0  0  0  0  0  0  0  0  0  0  0  0
  178.6890  177.1930  141.3960 O   0  0  0  0  0  1  0  0  0  0  0  0
  1  4  1  0  0  0  0
  2  1  2  0  0  0  0
  3 13  1  0  0  0  0
  4 16  2  0  0  0  0
  4  7  1  0  0  0  0
  6  3  2  0  0  0  0
  7  8  2  0  0  0  0
  8  5  1  0  0  0  0
  9 15  2  0  0  0  0
  9 18  1  0  0  0  0
 10  9  1  0  0  0  0
 11  2  1  0  0  0  0
 12  5  2  0  0  0  0
 13  1  1  0  0  0  0
 13 14  2  0  0  0  0
 14  7  1  0  0  0  0
 15 17  1  0  0  0  0
 16 12  1  0  0  0  0
 17 11  2  0  0  0  0
 18  6  1  1  0  0  0
 18  2  1  0  0  0  0
 19 17  1  0  0  0  0
 20 21  1  0  0  0  0
 20 19  1  0  0  0  0
 21 22  1  1  0  0  0
 23 21  1  0  0  0  0
 23 25  1  0  0  0  0
 24 23  2  0  0  0  0
M  END
>  <MODEL>
6

>  <REMARK>
 VINA RESULT:      -7.0      4.238      6.152
  Name = 
  4 active torsions:
  status: ('A' for Active; 'I' for Inactive)
    1  A    between atoms: C_2  and  C_21
    2  A    between atoms: N_6  and  N_15
    3  A    between atoms: N_6  and  C_23
    4  A    between atoms: N_15  and  C_21
                            x       y       z     vdW  Elec       q    Type
                         _______ _______ _______ _____ _____    ______ ____

>  <TORSDO>
F 4

$$$$
=
 OpenBabel11052417343D

 25 28  0  0  1  0  0  0  0  0999 V2000
  189.3180  177.0490  145.2790 C   0  0  0  0  0  0  0  0  0  0  0  0
  188.4720  177.4600  144.1140 C   0  0  0  0  0  0  0  0  0  0  0  0
  187.5920  177.4680  146.9360 C   0  0  0  0  0  3  0  0  0  0  0  0
  190.6150  176.8290  145.3960 C   0  0  0  0  0  0  0  0  0  0  0  0
  193.2420  176.4020  146.1710 C   0  0  0  0  0  3  0  0  0  0  0  0
  186.6300  177.6570  145.8220 C   0  0  0  0  0  3  0  0  0  0  0  0
  190.9360  176.7490  146.7470 C   0  0  0  0  0  0  0  0  0  0  0  0
  192.2500  176.5300  147.1590 C   0  0  0  0  0  3  0  0  0  0  0  0
  186.0140  177.6510  143.4390 C   0  0  0  0  0  0  0  0  0  0  0  0
  184.4160  178.3390  143.6830 Cl  0  0  0  0  0  0  0  0  0  0  0  0
  188.6120  176.5540  142.9220 C   0  0  0  0  0  2  0  0  0  0  0  0
  192.9130  176.5020  144.8040 C   0  0  0  0  0  3  0  0  0  0  0  0
  188.8500  177.1530  146.6360 C   0  0  0  0  0  0  0  0  0  0  0  0
  189.9270  176.9390  147.5440 N   0  0  0  0  0  0  0  0  0  0  0  0
  186.3130  177.0960  142.2600 C   0  0  0  0  0  3  0  0  0  0  0  0
  191.5850  176.7230  144.4010 C   0  0  0  0  0  3  0  0  0  0  0  0
  187.6220  176.4440  142.0210 C   0  0  0  0  0  0  0  0  0  0  0  0
  187.0110  177.6090  144.5260 C   0  0  0  0  0  0  0  0  0  0  0  0
  187.7910  175.6440  140.8480 N   0  0  0  0  0  2  0  0  0  0  0  0
  188.8540  174.7340  140.7070 N   0  0  0  0  0  2  0  0  0  0  0  0
  188.3240  173.3680  140.6540 C   0  0  2  0  0  3  0  0  0  0  0  0
  188.7760  172.5810  141.7930 N   0  0  0  0  0  1  0  0  0  0  0  0
  188.6520  172.6920  139.3590 C   0  0  0  0  0  0  0  0  0  0  0  0
  188.1400  173.1980  138.1720 O   0  0  0  0  0  0  0  0  0  0  0  0
  189.4140  171.6890  139.3330 O   0  0  0  0  0  1  0  0  0  0  0  0
  1  4  1  0  0  0  0
  1 13  1  0  0  0  0
  2 18  1  0  0  0  0
  2  1  2  0  0  0  0
  4  7  1  0  0  0  0
  5  8  1  0  0  0  0
  6  3  2  0  0  0  0
  7  8  2  0  0  0  0
  7 14  1  0  0  0  0
  9 10  1  0  0  0  0
  9 18  2  0  0  0  0
 11  2  1  0  0  0  0
 12  5  2  0  0  0  0
 13  3  1  0  0  0  0
 13 14  2  0  0  0  0
 15  9  1  0  0  0  0
 16 12  1  0  0  0  0
 16  4  2  0  0  0  0
 17 15  2  0  0  0  0
 17 11  1  0  0  0  0
 18  6  1  0  0  0  0
 19 17  1  0  0  0  0
 20 19  1  0  0  0  0
 21 20  1  0  0  0  0
 21 22  1  1  0  0  0
 23 21  1  0  0  0  0
 24 23  2  0  0  0  0
 25 23  1  0  0  0  0
M  END
>  <MODEL>
7

>  <REMARK>
 VINA RESULT:      -6.9      3.359      3.866
  Name = 
  4 active torsions:
  status: ('A' for Active; 'I' for Inactive)
    1  A    between atoms: C_2  and  C_21
    2  A    between atoms: N_6  and  N_15
    3  A    between atoms: N_6  and  C_23
    4  A    between atoms: N_15  and  C_21
                            x       y       z     vdW  Elec       q    Type
                         _______ _______ _______ _____ _____    ______ ____

>  <TORSDO>
F 4

$$$$
=
 OpenBabel11052417343D

 25 28  0  0  1  0  0  0  0  0999 V2000
  187.2650  176.5430  142.8880 C   0  0  0  0  0  0  0  0  0  0  0  0
  187.0090  176.5000  144.3630 C   0  0  1  0  0  3  0  0  0  0  0  0
  186.1480  178.6740  142.5540 C   0  0  0  0  0  3  0  0  0  0  0  0
  187.6760  175.6230  142.0340 C   0  0  0  0  0  0  0  0  0  0  0  0
  188.3600  174.0340  139.8680 C   0  0  0  0  0  3  0  0  0  0  0  0
  186.0710  178.8150  144.0300 C   0  0  0  0  0  3  0  0  0  0  0  0
  187.4760  176.0910  140.7400 C   0  0  0  0  0  0  0  0  0  0  0  0
  187.8170  175.3100  139.6360 C   0  0  0  0  0  3  0  0  0  0  0  0
  186.5550  178.0730  146.3260 C   0  0  0  0  0  0  0  0  0  0  0  0
  185.5540  179.2890  147.1040 Cl  0  0  0  0  0  0  0  0  0  0  0  0
  188.1920  176.0260  145.1610 C   0  0  0  0  0  3  0  0  0  0  0  0
  188.5440  173.5590  141.1830 C   0  0  0  0  0  3  0  0  0  0  0  0
  186.7470  177.5960  142.0540 C   0  0  0  0  0  0  0  0  0  0  0  0
  186.9180  177.2630  140.6790 N   0  0  0  0  0  0  0  0  0  0  0  0
  187.4290  177.3770  147.0620 C   0  0  0  0  0  3  0  0  0  0  0  0
  188.1960  174.3550  142.2870 C   0  0  0  0  0  3  0  0  0  0  0  0
  188.3420  176.3850  146.4460 C   0  0  0  0  0  0  0  0  0  0  0  0
  186.5050  177.8480  144.8690 C   0  0  0  0  0  0  0  0  0  0  0  0
  189.4240  175.8670  147.2250 N   0  0  0  0  0  2  0  0  0  0  0  0
  190.4940  175.1600  146.6480 N   0  0  0  0  0  2  0  0  0  0  0  0
  191.7590  175.8040  147.0120 C   0  0  2  0  0  3  0  0  0  0  0  0
  191.5700  176.7770  148.0780 N   0  0  0  0  0  1  0  0  0  0  0  0
  192.4330  176.4200  145.8250 C   0  0  0  0  0  0  0  0  0  0  0  0
  191.6830  176.7570  144.7070 O   0  0  0  0  0  0  0  0  0  0  0  0
  193.6690  176.6670  145.8440 O   0  0  0  0  0  1  0  0  0  0  0  0
  1  2  1  0  0  0  0
  2 18  1  0  0  0  0
  2 11  1  1  0  0  0
  3  6  1  0  0  0  0
  4 16  1  0  0  0  0
  4  1  2  0  0  0  0
  5 12  1  0  0  0  0
  6 18  2  0  0  0  0
  7  4  1  0  0  0  0
  8  5  2  0  0  0  0
  8  7  1  0  0  0  0
  9 15  2  0  0  0  0
  9 10  1  0  0  0  0
 11 17  2  0  0  0  0
 12 16  2  0  0  0  0
 13  3  2  0  0  0  0
 13  1  1  0  0  0  0
 14  7  2  0  0  0  0
 14 13  1  0  0  0  0
 17 15  1  0  0  0  0
 17 19  1  0  0  0  0
 18  9  1  0  0  0  0
 20 21  1  0  0  0  0
 20 19  1  0  0  0  0
 21 22  1  1  0  0  0
 23 25  1  0  0  0  0
 23 21  1  0  0  0  0
 24 23  2  0  0  0  0
M  END
>  <MODEL>
8

>  <REMARK>
 VINA RESULT:      -6.9      3.417      6.738
  Name = 
  4 active torsions:
  status: ('A' for Active; 'I' for Inactive)
    1  A    between atoms: C_2  and  C_21
    2  A    between atoms: N_6  and  N_15
    3  A    between atoms: N_6  and  C_23
    4  A    between atoms: N_15  and  C_21
                            x       y       z     vdW  Elec       q    Type
                         _______ _______ _______ _____ _____    ______ ____

>  <TORSDO>
F 4

$$$$
=
 OpenBabel11052417343D

 25 28  0  0  1  0  0  0  0  0999 V2000
  186.0240  177.7610  143.3290 C   0  0  0  0  0  0  0  0  0  0  0  0
  186.5500  177.2200  144.6230 C   0  0  1  0  0  3  0  0  0  0  0  0
  184.1130  178.8690  144.3390 C   0  0  0  0  0  3  0  0  0  0  0  0
  186.3170  177.4860  142.0720 C   0  0  0  0  0  0  0  0  0  0  0  0
  186.4720  177.1650  139.3220 C   0  0  0  0  0  3  0  0  0  0  0  0
  184.7010  178.5750  145.6700 C   0  0  0  0  0  3  0  0  0  0  0  0
  185.3480  178.0530  141.2510 C   0  0  0  0  0  0  0  0  0  0  0  0
  185.4090  177.9080  139.8650 C   0  0  0  0  0  3  0  0  0  0  0  0
  186.4830  177.7100  147.1310 C   0  0  0  0  0  0  0  0  0  0  0  0
  185.5750  177.8970  148.6230 Cl  0  0  0  0  0  0  0  0  0  0  0  0
  188.0440  177.3320  144.7550 C   0  0  0  0  0  3  0  0  0  0  0  0
  187.4410  176.5770  140.1610 C   0  0  0  0  0  3  0  0  0  0  0  0
  184.7860  178.4910  143.2550 C   0  0  0  0  0  0  0  0  0  0  0  0
  184.4000  178.6650  141.8950 N   0  0  0  0  0  0  0  0  0  0  0  0
  187.8000  177.4860  147.1910 C   0  0  0  0  0  3  0  0  0  0  0  0
  187.3680  176.7290  141.5560 C   0  0  0  0  0  3  0  0  0  0  0  0
  188.6250  177.3850  145.9650 C   0  0  0  0  0  0  0  0  0  0  0  0
  185.8410  177.8620  145.8110 C   0  0  0  0  0  0  0  0  0  0  0  0
  190.0500  177.4090  146.0870 N   0  0  0  0  0  2  0  0  0  0  0  0
  190.9010  177.1660  144.9950 N   0  0  0  0  0  2  0  0  0  0  0  0
  191.7110  175.9730  145.2600 C   0  0  2  0  0  3  0  0  0  0  0  0
  190.9190  174.7580  145.1350 N   0  0  0  0  0  1  0  0  0  0  0  0
  192.3910  176.0460  146.5920 C   0  0  0  0  0  0  0  0  0  0  0  0
  191.9360  175.2560  147.6390 O   0  0  0  0  0  1  0  0  0  0  0  0
  193.3930  176.7900  146.7620 O   0  0  0  0  0  0  0  0  0  0  0  0
  1  2  1  0  0  0  0
  2 11  1  1  0  0  0
  2 18  1  0  0  0  0
  3  6  1  0  0  0  0
  4  1  2  0  0  0  0
  5  8  2  0  0  0  0
  5 12  1  0  0  0  0
  6 18  2  0  0  0  0
  7 14  2  0  0  0  0
  7  4  1  0  0  0  0
  8  7  1  0  0  0  0
  9 15  2  0  0  0  0
  9 10  1  0  0  0  0
 11 17  2  0  0  0  0
 12 16  2  0  0  0  0
 13  1  1  0  0  0  0
 13  3  2  0  0  0  0
 14 13  1  0  0  0  0
 16  4  1  0  0  0  0
 17 19  1  0  0  0  0
 17 15  1  0  0  0  0
 18  9  1  0  0  0  0
 20 21  1  0  0  0  0
 20 19  1  0  0  0  0
 21 22  1  1  0  0  0
 21 23  1  0  0  0  0
 23 25  2  0  0  0  0
 23 24  1  0  0  0  0
M  END
>  <MODEL>
9

>  <REMARK>
 VINA RESULT:      -6.8      3.549      7.117
  Name = 
  4 active torsions:
  status: ('A' for Active; 'I' for Inactive)
    1  A    between atoms: C_2  and  C_21
    2  A    between atoms: N_6  and  N_15
    3  A    between atoms: N_6  and  C_23
    4  A    between atoms: N_15  and  C_21
                            x       y       z     vdW  Elec       q    Type
                         _______ _______ _______ _____ _____    ______ ____

>  <TORSDO>
F 4

$$$$
