=
 OpenBabel11052420573D

 43 47  0  0  1  0  0  0  0  0999 V2000
  195.6940  176.4280  143.0200 C   0  0  0  0  0  0  0  0  0  0  0  0
  191.1570  175.3680  144.9860 C   0  0  0  0  0  0  0  0  0  0  0  0
  189.5860  174.3740  142.8340 N   0  0  0  0  0  0  0  0  0  0  0  0
  193.8520  176.0290  144.5400 C   0  0  0  0  0  0  0  0  0  0  0  0
  194.8600  176.1570  141.9310 C   0  0  0  0  0  3  0  0  0  0  0  0
  196.9920  176.7550  142.8130 F   0  0  0  0  0  0  0  0  0  0  0  0
  193.0030  175.7550  143.4410 C   0  0  0  0  0  0  0  0  0  0  0  0
  195.1910  176.3600  144.3230 C   0  0  0  0  0  3  0  0  0  0  0  0
  193.5200  175.8210  142.1390 C   0  0  0  0  0  3  0  0  0  0  0  0
  190.7880  175.0660  142.5890 N   0  0  0  0  0  2  0  0  0  0  0  0
  191.6640  175.4010  143.6730 C   0  0  0  0  0  0  0  0  0  0  0  0
  192.0160  175.6240  146.0660 C   0  0  0  0  0  3  0  0  0  0  0  0
  189.7200  174.9610  145.2200 C   0  0  2  0  0  3  0  0  0  0  0  0
  188.8980  175.0630  143.9270 C   0  0  0  0  0  2  0  0  0  0  0  0
  193.3540  175.9560  145.8440 C   0  0  0  0  0  3  0  0  0  0  0  0
  188.7530  174.4700  141.6300 C   0  0  2  0  0  3  0  0  0  0  0  0
  187.5420  175.1060  141.9260 O   0  0  0  0  0  1  0  0  0  0  0  0
  188.4630  173.0920  141.0310 C   0  0  0  0  0  2  0  0  0  0  0  0
  188.9520  172.9870  139.5950 C   0  0  1  0  0  3  0  0  0  0  0  0
  188.7860  174.2200  138.9630 O   0  0  0  0  0  1  0  0  0  0  0  0
  190.4280  172.6010  139.5940 C   0  0  0  0  0  2  0  0  0  0  0  0
  190.7630  171.5120  140.6150 C   0  0  2  0  0  3  0  0  0  0  0  0
  192.0600  171.7310  142.7860 C   0  0  0  0  0  0  0  0  0  0  0  0
  191.9600  171.8650  141.3650 N   0  0  0  0  0  2  0  0  0  0  0  0
  191.0820  171.2870  143.4500 O   0  0  0  0  0  0  0  0  0  0  0  0
  193.3040  172.1310  143.4680 C   0  0  0  0  0  0  0  0  0  0  0  0
  195.6930  172.7850  143.4650 C   0  0  0  0  0  2  0  0  0  0  0  0
  194.4750  172.3830  145.6060 C   0  0  0  0  0  3  0  0  0  0  0  0
  195.7800  172.2020  144.8800 C   0  0  0  0  0  2  0  0  0  0  0  0
  193.3180  172.3060  144.9380 C   0  0  0  0  0  3  0  0  0  0  0  0
  194.4390  172.3120  142.7750 C   0  0  0  0  0  3  0  0  0  0  0  0
  190.9340  170.1490  139.9520 C   0  0  0  0  0  2  0  0  0  0  0  0
  192.4960  170.0120  137.6840 S   0  0  0  0  0  1  0  0  0  0  0  0
  192.3690  169.9230  139.4960 C   0  0  0  0  0  2  0  0  0  0  0  0
  189.0630  175.8200  146.2960 C   0  0  0  0  0  2  0  0  0  0  0  0
  185.5430  177.0570  146.5820 C   0  0  0  0  0  2  0  0  0  0  0  0
  185.5160  177.5580  145.1300 C   0  0  2  0  0  3  0  0  0  0  0  0
  188.0580  177.6850  145.2970 C   0  0  0  0  0  2  0  0  0  0  0  0
  186.9130  176.4780  146.9720 C   0  0  0  0  0  2  0  0  0  0  0  0
  187.7970  176.3440  145.8140 N   0  0  0  0  0  0  0  0  0  0  0  0
  186.7900  178.3060  144.6970 C   0  0  0  0  0  2  0  0  0  0  0  0
  184.3240  178.2290  144.7860 O   0  0  0  0  0  0  0  0  0  0  0  0
  184.6510  179.5140  144.3190 C   0  0  0  0  0  1  0  0  0  0  0  0
  1  8  1  0  0  0  0
  2 13  1  0  0  0  0
  2 12  1  0  0  0  0
  3 14  1  0  0  0  0
  4 15  1  0  0  0  0
  5  9  1  0  0  0  0
  5  1  2  0  0  0  0
  6  1  1  0  0  0  0
  7 11  1  0  0  0  0
  7  4  1  0  0  0  0
  8  4  2  0  0  0  0
  9  7  2  0  0  0  0
 10  3  1  0  0  0  0
 10 11  1  0  0  0  0
 11  2  2  0  0  0  0
 13 35  1  1  0  0  0
 14 13  1  0  0  0  0
 15 12  2  0  0  0  0
 16 17  1  1  0  0  0
 16  3  1  0  0  0  0
 18 16  1  0  0  0  0
 19 20  1  1  0  0  0
 19 18  1  0  0  0  0
 21 19  1  0  0  0  0
 22 21  1  6  0  0  0
 22 24  1  0  0  0  0
 23 25  2  0  0  0  0
 23 26  1  0  0  0  0
 24 23  1  0  0  0  0
 26 30  1  0  0  0  0
 27 29  1  0  0  0  0
 29 28  1  0  0  0  0
 30 28  2  0  0  0  0
 31 27  1  0  0  0  0
 31 26  2  0  0  0  0
 32 22  1  0  0  0  0
 33 34  1  0  0  0  0
 34 32  1  0  0  0  0
 36 39  1  0  0  0  0
 37 42  1  1  0  0  0
 37 36  1  0  0  0  0
 38 40  1  0  0  0  0
 40 35  1  0  0  0  0
 40 39  1  0  0  0  0
 41 37  1  0  0  0  0
 41 38  1  0  0  0  0
 43 42  1  0  0  0  0
M  END
>  <MODEL>
1

>  <REMARK>
 VINA RESULT:      -6.6      0.000      0.000
  Name = 
  12 active torsions:
  status: ('A' for Active; 'I' for Inactive)
    1  A    between atoms: C_1  and  C_34
    2  A    between atoms: C_1  and  N_35
    3  A    between atoms: C_2  and  C_6
    4  A    between atoms: C_2  and  N_13
    5  A    between atoms: C_3  and  C_4
    6  A    between atoms: C_3  and  C_12
    7  A    between atoms: C_4  and  C_15
    8  A    between atoms: C_4  and  N_22
    9  A    between atoms: C_6  and  C_12
   10  A    between atoms: C_11  and  C_14
   11  A    between atoms: C_15  and  C_42
   12  A    between atoms: C_19  and  O_25
                            x       y       z     vdW  Elec       q    Type
                         _______ _______ _______ _____ _____    ______ ____

>  <TORSDO>
F 12

$$$$
=
 OpenBabel11052420573D

 43 47  0  0  1  0  0  0  0  0999 V2000
  196.4220  173.4740  145.3670 C   0  0  0  0  0  0  0  0  0  0  0  0
  191.6080  174.9980  145.6470 C   0  0  0  0  0  0  0  0  0  0  0  0
  190.0500  172.8630  144.5960 N   0  0  0  0  0  0  0  0  0  0  0  0
  194.3930  174.6980  145.8690 C   0  0  0  0  0  0  0  0  0  0  0  0
  195.6810  172.5310  144.6490 C   0  0  0  0  0  3  0  0  0  0  0  0
  197.7660  173.3410  145.4720 F   0  0  0  0  0  0  0  0  0  0  0  0
  193.6380  173.7460  145.1420 C   0  0  0  0  0  0  0  0  0  0  0  0
  195.7790  174.5540  145.9790 C   0  0  0  0  0  3  0  0  0  0  0  0
  194.2940  172.6640  144.5370 C   0  0  0  0  0  3  0  0  0  0  0  0
  191.4400  172.9180  144.3740 N   0  0  0  0  0  2  0  0  0  0  0  0
  192.2440  173.8890  145.0560 C   0  0  0  0  0  0  0  0  0  0  0  0
  192.3680  175.9220  146.3800 C   0  0  0  0  0  3  0  0  0  0  0  0
  190.1030  175.1240  145.5670 C   0  0  2  0  0  3  0  0  0  0  0  0
  189.5300  174.2240  144.4620 C   0  0  0  0  0  2  0  0  0  0  0  0
  193.7530  175.7750  146.4870 C   0  0  0  0  0  3  0  0  0  0  0  0
  189.4550  172.0350  143.5410 C   0  0  2  0  0  3  0  0  0  0  0  0
  190.4260  171.2120  142.9610 O   0  0  0  0  0  1  0  0  0  0  0  0
  188.8050  172.8900  142.4510 C   0  0  0  0  0  2  0  0  0  0  0  0
  189.4690  172.6830  141.0990 C   0  0  1  0  0  3  0  0  0  0  0  0
  188.4930  172.6980  140.1020 O   0  0  0  0  0  1  0  0  0  0  0  0
  190.4740  173.8050  140.8560 C   0  0  0  0  0  2  0  0  0  0  0  0
  191.8010  173.3070  140.2810 C   0  0  2  0  0  3  0  0  0  0  0  0
  194.2000  173.6440  141.0440 C   0  0  0  0  0  0  0  0  0  0  0  0
  192.9010  174.1530  140.7250 N   0  0  0  0  0  2  0  0  0  0  0  0
  194.4360  172.4080  140.9420 O   0  0  0  0  0  0  0  0  0  0  0  0
  195.2500  174.5690  141.5050 C   0  0  0  0  0  0  0  0  0  0  0  0
  197.6140  175.2760  141.7100 C   0  0  0  0  0  2  0  0  0  0  0  0
  195.8000  176.4980  142.9120 C   0  0  0  0  0  3  0  0  0  0  0  0
  197.2130  175.9910  143.0060 C   0  0  0  0  0  2  0  0  0  0  0  0
  194.8790  175.8010  142.2400 C   0  0  0  0  0  3  0  0  0  0  0  0
  196.5470  174.2970  141.2950 C   0  0  0  0  0  3  0  0  0  0  0  0
  191.7670  173.2370  138.7580 C   0  0  0  0  0  2  0  0  0  0  0  0
  190.2720  171.8050  136.9370 S   0  0  0  0  0  1  0  0  0  0  0  0
  191.5130  171.8190  138.2660 C   0  0  0  0  0  2  0  0  0  0  0  0
  189.6750  176.5640  145.3090 C   0  0  0  0  0  2  0  0  0  0  0  0
  186.5370  177.2700  147.2230 C   0  0  0  0  0  2  0  0  0  0  0  0
  185.6680  177.2640  145.9560 C   0  0  2  0  0  3  0  0  0  0  0  0
  187.8050  177.8280  144.6820 C   0  0  0  0  0  2  0  0  0  0  0  0
  188.0280  177.0670  146.9060 C   0  0  0  0  0  2  0  0  0  0  0  0
  188.2420  176.7030  145.5050 N   0  0  0  0  0  0  0  0  0  0  0  0
  186.2850  178.0190  144.7650 C   0  0  0  0  0  2  0  0  0  0  0  0
  184.3180  177.5960  146.1960 O   0  0  0  0  0  0  0  0  0  0  0  0
  184.0590  178.8570  145.6320 C   0  0  0  0  0  1  0  0  0  0  0  0
  1  6  1  0  0  0  0
  1  8  1  0  0  0  0
  2 12  1  0  0  0  0
  4  8  2  0  0  0  0
  4 15  1  0  0  0  0
  5  1  2  0  0  0  0
  7  4  1  0  0  0  0
  9  5  1  0  0  0  0
  9  7  2  0  0  0  0
 10  3  1  0  0  0  0
 10 11  1  0  0  0  0
 11  7  1  0  0  0  0
 11  2  2  0  0  0  0
 12 15  2  0  0  0  0
 13 35  1  6  0  0  0
 13  2  1  0  0  0  0
 14  3  1  0  0  0  0
 14 13  1  0  0  0  0
 16 17  1  6  0  0  0
 16  3  1  0  0  0  0
 18 16  1  0  0  0  0
 19 20  1  6  0  0  0
 19 18  1  0  0  0  0
 21 19  1  0  0  0  0
 22 32  1  6  0  0  0
 22 24  1  0  0  0  0
 22 21  1  0  0  0  0
 23 26  1  0  0  0  0
 24 23  1  0  0  0  0
 25 23  2  0  0  0  0
 26 30  1  0  0  0  0
 27 29  1  0  0  0  0
 28 29  1  0  0  0  0
 30 28  2  0  0  0  0
 31 26  2  0  0  0  0
 31 27  1  0  0  0  0
 33 34  1  0  0  0  0
 34 32  1  0  0  0  0
 35 40  1  0  0  0  0
 37 42  1  1  0  0  0
 37 36  1  0  0  0  0
 38 41  1  0  0  0  0
 38 40  1  0  0  0  0
 39 36  1  0  0  0  0
 40 39  1  0  0  0  0
 41 37  1  0  0  0  0
 43 42  1  0  0  0  0
M  END
>  <MODEL>
2

>  <REMARK>
 VINA RESULT:      -6.6      1.871      2.816
  Name = 
  12 active torsions:
  status: ('A' for Active; 'I' for Inactive)
    1  A    between atoms: C_1  and  C_34
    2  A    between atoms: C_1  and  N_35
    3  A    between atoms: C_2  and  C_6
    4  A    between atoms: C_2  and  N_13
    5  A    between atoms: C_3  and  C_4
    6  A    between atoms: C_3  and  C_12
    7  A    between atoms: C_4  and  C_15
    8  A    between atoms: C_4  and  N_22
    9  A    between atoms: C_6  and  C_12
   10  A    between atoms: C_11  and  C_14
   11  A    between atoms: C_15  and  C_42
   12  A    between atoms: C_19  and  O_25
                            x       y       z     vdW  Elec       q    Type
                         _______ _______ _______ _____ _____    ______ ____

>  <TORSDO>
F 12

$$$$
=
 OpenBabel11052420573D

 43 47  0  0  1  0  0  0  0  0999 V2000
  185.4840  177.9850  147.2500 C   0  0  0  0  0  0  0  0  0  0  0  0
  190.1360  176.3090  146.1900 C   0  0  0  0  0  0  0  0  0  0  0  0
  189.8350  174.4790  144.0340 N   0  0  0  0  0  0  0  0  0  0  0  0
  187.8850  177.6810  147.1630 C   0  0  0  0  0  0  0  0  0  0  0  0
  185.3130  176.9260  146.3530 C   0  0  0  0  0  3  0  0  0  0  0  0
  184.4040  178.6460  147.7310 F   0  0  0  0  0  0  0  0  0  0  0  0
  187.7180  176.6070  146.2560 C   0  0  0  0  0  0  0  0  0  0  0  0
  186.7690  178.3640  147.6520 C   0  0  0  0  0  3  0  0  0  0  0  0
  186.4250  176.2400  145.8560 C   0  0  0  0  0  3  0  0  0  0  0  0
  188.7220  174.8860  144.7940 N   0  0  0  0  0  2  0  0  0  0  0  0
  188.8490  175.9420  145.7540 C   0  0  0  0  0  0  0  0  0  0  0  0
  190.2870  177.3870  147.0750 C   0  0  0  0  0  3  0  0  0  0  0  0
  191.3450  175.6000  145.6220 C   0  0  2  0  0  3  0  0  0  0  0  0
  190.9480  174.2710  144.9620 C   0  0  0  0  0  2  0  0  0  0  0  0
  189.1680  178.0660  147.5620 C   0  0  0  0  0  3  0  0  0  0  0  0
  189.5110  173.1930  143.4070 C   0  0  2  0  0  3  0  0  0  0  0  0
  189.3150  172.2100  144.3830 O   0  0  0  0  0  1  0  0  0  0  0  0
  190.6140  172.7360  142.4490 C   0  0  0  0  0  2  0  0  0  0  0  0
  190.1080  172.6210  141.0190 C   0  0  1  0  0  3  0  0  0  0  0  0
  190.0860  171.2760  140.6490 O   0  0  0  0  0  1  0  0  0  0  0  0
  188.7000  173.2030  140.9360 C   0  0  0  0  0  2  0  0  0  0  0  0
  188.6000  174.3930  139.9790 C   0  0  2  0  0  3  0  0  0  0  0  0
  188.0480  176.4360  141.3810 C   0  0  0  0  0  0  0  0  0  0  0  0
  187.6630  175.3830  140.4920 N   0  0  0  0  0  2  0  0  0  0  0  0
  189.2490  176.5400  141.7560 O   0  0  0  0  0  0  0  0  0  0  0  0
  187.0300  177.3850  141.8670 C   0  0  0  0  0  0  0  0  0  0  0  0
  186.2130  179.1020  143.4540 C   0  0  0  0  0  2  0  0  0  0  0  0
  184.7150  178.1690  141.6890 C   0  0  0  0  0  3  0  0  0  0  0  0
  184.7930  178.6340  143.1170 C   0  0  0  0  0  2  0  0  0  0  0  0
  185.7570  177.5470  141.1270 C   0  0  0  0  0  3  0  0  0  0  0  0
  187.2270  178.0860  142.9950 C   0  0  0  0  0  3  0  0  0  0  0  0
  188.1960  173.9560  138.5750 C   0  0  0  0  0  2  0  0  0  0  0  0
  189.8730  172.3020  137.1420 S   0  0  0  0  0  1  0  0  0  0  0  0
  189.3780  173.9860  137.6150 C   0  0  0  0  0  2  0  0  0  0  0  0
  192.3920  175.3280  146.6970 C   0  0  0  0  0  2  0  0  0  0  0  0
  195.3920  173.9340  144.9480 C   0  0  0  0  0  2  0  0  0  0  0  0
  196.0330  175.3190  144.7710 C   0  0  2  0  0  3  0  0  0  0  0  0
  193.6700  176.2590  144.9680 C   0  0  0  0  0  2  0  0  0  0  0  0
  194.0090  174.0140  145.6140 C   0  0  0  0  0  2  0  0  0  0  0  0
  193.7240  175.3580  146.1170 N   0  0  0  0  0  0  0  0  0  0  0  0
  195.0510  176.4150  144.3190 C   0  0  0  0  0  2  0  0  0  0  0  0
  197.2330  175.2970  144.0300 O   0  0  0  0  0  0  0  0  0  0  0  0
  197.2460  176.4030  143.1640 C   0  0  0  0  0  1  0  0  0  0  0  0
  1  8  1  0  0  0  0
  1  6  1  0  0  0  0
  2 12  1  0  0  0  0
  3 10  1  0  0  0  0
  3 14  1  0  0  0  0
  4 15  1  0  0  0  0
  4  8  2  0  0  0  0
  5  1  2  0  0  0  0
  7  4  1  0  0  0  0
  9  7  2  0  0  0  0
  9  5  1  0  0  0  0
 10 11  1  0  0  0  0
 11  2  2  0  0  0  0
 11  7  1  0  0  0  0
 12 15  2  0  0  0  0
 13  2  1  0  0  0  0
 13 35  1  1  0  0  0
 14 13  1  0  0  0  0
 16  3  1  0  0  0  0
 16 17  1  1  0  0  0
 18 16  1  0  0  0  0
 19 20  1  1  0  0  0
 19 18  1  0  0  0  0
 21 19  1  0  0  0  0
 22 32  1  6  0  0  0
 22 24  1  0  0  0  0
 22 21  1  0  0  0  0
 23 25  2  0  0  0  0
 23 26  1  0  0  0  0
 24 23  1  0  0  0  0
 26 31  2  0  0  0  0
 28 29  1  0  0  0  0
 29 27  1  0  0  0  0
 30 28  2  0  0  0  0
 30 26  1  0  0  0  0
 31 27  1  0  0  0  0
 33 34  1  0  0  0  0
 34 32  1  0  0  0  0
 36 39  1  0  0  0  0
 37 42  1  6  0  0  0
 37 36  1  0  0  0  0
 38 40  1  0  0  0  0
 39 40  1  0  0  0  0
 40 35  1  0  0  0  0
 41 37  1  0  0  0  0
 41 38  1  0  0  0  0
 43 42  1  0  0  0  0
M  END
>  <MODEL>
3

>  <REMARK>
 VINA RESULT:      -6.5      3.082      7.522
  Name = 
  12 active torsions:
  status: ('A' for Active; 'I' for Inactive)
    1  A    between atoms: C_1  and  C_34
    2  A    between atoms: C_1  and  N_35
    3  A    between atoms: C_2  and  C_6
    4  A    between atoms: C_2  and  N_13
    5  A    between atoms: C_3  and  C_4
    6  A    between atoms: C_3  and  C_12
    7  A    between atoms: C_4  and  C_15
    8  A    between atoms: C_4  and  N_22
    9  A    between atoms: C_6  and  C_12
   10  A    between atoms: C_11  and  C_14
   11  A    between atoms: C_15  and  C_42
   12  A    between atoms: C_19  and  O_25
                            x       y       z     vdW  Elec       q    Type
                         _______ _______ _______ _____ _____    ______ ____

>  <TORSDO>
F 12

$$$$
=
 OpenBabel11052420573D

 43 47  0  0  1  0  0  0  0  0999 V2000
  188.2400  177.5490  144.0470 C   0  0  0  0  0  0  0  0  0  0  0  0
  190.2650  173.6500  141.5440 C   0  0  0  0  0  0  0  0  0  0  0  0
  193.0660  174.1370  141.4710 N   0  0  0  0  0  0  0  0  0  0  0  0
  188.5870  175.4330  142.9220 C   0  0  0  0  0  0  0  0  0  0  0  0
  189.5750  177.8970  143.8140 C   0  0  0  0  0  3  0  0  0  0  0  0
  187.4230  178.4070  144.7040 F   0  0  0  0  0  0  0  0  0  0  0  0
  189.9380  175.7800  142.6830 C   0  0  0  0  0  0  0  0  0  0  0  0
  187.7490  176.3180  143.6050 C   0  0  0  0  0  3  0  0  0  0  0  0
  190.4220  177.0160  143.1360 C   0  0  0  0  0  3  0  0  0  0  0  0
  192.1640  175.1670  141.8010 N   0  0  0  0  0  2  0  0  0  0  0  0
  190.7780  174.8740  142.0150 C   0  0  0  0  0  0  0  0  0  0  0  0
  188.9290  173.3120  141.8050 C   0  0  0  0  0  3  0  0  0  0  0  0
  191.1880  172.6740  140.8490 C   0  0  2  0  0  3  0  0  0  0  0  0
  192.4740  173.3690  140.3760 C   0  0  0  0  0  2  0  0  0  0  0  0
  188.0930  174.2000  142.4870 C   0  0  0  0  0  3  0  0  0  0  0  0
  194.3040  174.7560  140.9840 C   0  0  2  0  0  3  0  0  0  0  0  0
  195.3100  173.7940  140.8510 O   0  0  0  0  0  1  0  0  0  0  0  0
  194.7890  175.8640  141.9220 C   0  0  0  0  0  2  0  0  0  0  0  0
  196.1550  175.5480  142.5100 C   0  0  1  0  0  3  0  0  0  0  0  0
  197.1040  176.4040  141.9490 O   0  0  0  0  0  1  0  0  0  0  0  0
  196.1100  175.7490  144.0220 C   0  0  0  0  0  2  0  0  0  0  0  0
  195.4610  174.5770  144.7610 C   0  0  2  0  0  3  0  0  0  0  0  0
  192.9950  174.1520  145.1960 C   0  0  0  0  0  0  0  0  0  0  0  0
  194.1660  174.9670  145.3030 N   0  0  0  0  0  2  0  0  0  0  0  0
  193.0550  173.0340  144.6120 O   0  0  0  0  0  0  0  0  0  0  0  0
  191.7200  174.6350  145.7560 C   0  0  0  0  0  0  0  0  0  0  0  0
  190.3590  176.2820  147.0070 C   0  0  0  0  0  2  0  0  0  0  0  0
  189.3800  174.1110  146.2600 C   0  0  0  0  0  3  0  0  0  0  0  0
  189.4230  175.1240  147.3710 C   0  0  0  0  0  2  0  0  0  0  0  0
  190.4770  173.8610  145.5360 C   0  0  0  0  0  3  0  0  0  0  0  0
  191.6740  175.7560  146.4910 C   0  0  0  0  0  3  0  0  0  0  0  0
  196.3610  174.0410  145.8700 C   0  0  0  0  0  2  0  0  0  0  0  0
  196.5000  171.9750  144.0500 S   0  0  0  0  0  1  0  0  0  0  0  0
  196.5220  172.5290  145.7810 C   0  0  0  0  0  2  0  0  0  0  0  0
  190.5090  172.0160  139.6520 C   0  0  0  0  0  2  0  0  0  0  0  0
  191.1160  173.0860  136.1180 C   0  0  0  0  0  2  0  0  0  0  0  0
  190.2970  174.3760  136.2840 C   0  0  2  0  0  3  0  0  0  0  0  0
  189.0970  173.1780  138.1890 C   0  0  0  0  0  2  0  0  0  0  0  0
  191.1010  172.2210  137.3900 C   0  0  0  0  0  2  0  0  0  0  0  0
  190.4970  172.9260  138.5200 N   0  0  0  0  0  0  0  0  0  0  0  0
  188.9700  174.1880  137.0410 C   0  0  0  0  0  2  0  0  0  0  0  0
  190.1660  175.1190  135.0920 O   0  0  0  0  0  0  0  0  0  0  0  0
  188.9290  175.7840  135.1120 C   0  0  0  0  0  1  0  0  0  0  0  0
  1  6  1  0  0  0  0
  2 12  2  0  0  0  0
  2 11  1  0  0  0  0
  3 10  1  0  0  0  0
  4  8  1  0  0  0  0
  5  1  1  0  0  0  0
  7  4  1  0  0  0  0
  7  9  1  0  0  0  0
  8  1  2  0  0  0  0
  9  5  2  0  0  0  0
 10 11  1  0  0  0  0
 11  7  2  0  0  0  0
 12 15  1  0  0  0  0
 13 35  1  6  0  0  0
 13  2  1  0  0  0  0
 14 13  1  0  0  0  0
 14  3  1  0  0  0  0
 15  4  2  0  0  0  0
 16 17  1  1  0  0  0
 16  3  1  0  0  0  0
 16 18  1  0  0  0  0
 18 19  1  0  0  0  0
 19 20  1  6  0  0  0
 19 21  1  0  0  0  0
 22 21  1  1  0  0  0
 22 24  1  0  0  0  0
 22 32  1  0  0  0  0
 23 24  1  0  0  0  0
 23 26  1  0  0  0  0
 25 23  2  0  0  0  0
 26 31  2  0  0  0  0
 27 29  1  0  0  0  0
 28 29  1  0  0  0  0
 30 26  1  0  0  0  0
 30 28  2  0  0  0  0
 31 27  1  0  0  0  0
 33 34  1  0  0  0  0
 34 32  1  0  0  0  0
 36 37  1  0  0  0  0
 36 39  1  0  0  0  0
 37 42  1  6  0  0  0
 37 41  1  0  0  0  0
 38 40  1  0  0  0  0
 39 40  1  0  0  0  0
 40 35  1  0  0  0  0
 41 38  1  0  0  0  0
 42 43  1  0  0  0  0
M  END
>  <MODEL>
4

>  <REMARK>
 VINA RESULT:      -6.3      3.468      7.239
  Name = 
  12 active torsions:
  status: ('A' for Active; 'I' for Inactive)
    1  A    between atoms: C_1  and  C_34
    2  A    between atoms: C_1  and  N_35
    3  A    between atoms: C_2  and  C_6
    4  A    between atoms: C_2  and  N_13
    5  A    between atoms: C_3  and  C_4
    6  A    between atoms: C_3  and  C_12
    7  A    between atoms: C_4  and  C_15
    8  A    between atoms: C_4  and  N_22
    9  A    between atoms: C_6  and  C_12
   10  A    between atoms: C_11  and  C_14
   11  A    between atoms: C_15  and  C_42
   12  A    between atoms: C_19  and  O_25
                            x       y       z     vdW  Elec       q    Type
                         _______ _______ _______ _____ _____    ______ ____

>  <TORSDO>
F 12

$$$$
=
 OpenBabel11052420573D

 43 47  0  0  1  0  0  0  0  0999 V2000
  187.8230  177.7140  143.9170 C   0  0  0  0  0  0  0  0  0  0  0  0
  189.5690  173.5790  141.5870 C   0  0  0  0  0  0  0  0  0  0  0  0
  192.4060  173.7770  141.6660 N   0  0  0  0  0  0  0  0  0  0  0  0
  188.0110  175.5510  142.8440 C   0  0  0  0  0  0  0  0  0  0  0  0
  189.1960  177.9190  143.7550 C   0  0  0  0  0  3  0  0  0  0  0  0
  187.0630  178.6630  144.5150 F   0  0  0  0  0  0  0  0  0  0  0  0
  189.4020  175.7540  142.6760 C   0  0  0  0  0  0  0  0  0  0  0  0
  187.2320  176.5300  143.4660 C   0  0  0  0  0  3  0  0  0  0  0  0
  189.9840  176.9430  143.1380 C   0  0  0  0  0  3  0  0  0  0  0  0
  191.5970  174.9000  141.9290 N   0  0  0  0  0  2  0  0  0  0  0  0
  190.1790  174.7540  142.0690 C   0  0  0  0  0  0  0  0  0  0  0  0
  188.1930  173.3850  141.7780 C   0  0  0  0  0  3  0  0  0  0  0  0
  190.4240  172.5010  140.9590 C   0  0  2  0  0  3  0  0  0  0  0  0
  191.7980  173.0510  140.5500 C   0  0  0  0  0  2  0  0  0  0  0  0
  187.4180  174.3660  142.3990 C   0  0  0  0  0  3  0  0  0  0  0  0
  193.7250  174.2580  141.2400 C   0  0  2  0  0  3  0  0  0  0  0  0
  193.8360  174.2040  139.8470 O   0  0  0  0  0  1  0  0  0  0  0  0
  194.8540  173.4360  141.8660 C   0  0  0  0  0  2  0  0  0  0  0  0
  194.6450  173.2320  143.3580 C   0  0  1  0  0  3  0  0  0  0  0  0
  194.7390  171.8710  143.6520 O   0  0  0  0  0  1  0  0  0  0  0  0
  195.7160  174.0010  144.1250 C   0  0  0  0  0  2  0  0  0  0  0  0
  195.1770  175.2650  144.8010 C   0  0  2  0  0  3  0  0  0  0  0  0
  193.0510  175.8200  146.0730 C   0  0  0  0  0  0  0  0  0  0  0  0
  193.7380  175.1620  145.0040 N   0  0  0  0  0  2  0  0  0  0  0  0
  193.6930  176.5340  146.8930 O   0  0  0  0  0  0  0  0  0  0  0  0
  191.5940  175.6450  146.2160 C   0  0  0  0  0  0  0  0  0  0  0  0
  189.3590  176.4000  146.9690 C   0  0  0  0  0  2  0  0  0  0  0  0
  189.6880  174.1190  146.0120 C   0  0  0  0  0  3  0  0  0  0  0  0
  188.9700  174.9210  147.0630 C   0  0  0  0  0  2  0  0  0  0  0  0
  190.9350  174.4440  145.6530 C   0  0  0  0  0  3  0  0  0  0  0  0
  190.8560  176.5490  146.8800 C   0  0  0  0  0  3  0  0  0  0  0  0
  195.5120  176.5190  144.0010 C   0  0  0  0  0  2  0  0  0  0  0  0
  196.4670  176.7830  141.4280 S   0  0  0  0  0  1  0  0  0  0  0  0
  196.7700  176.3330  143.1640 C   0  0  0  0  0  2  0  0  0  0  0  0
  189.7470  171.8910  139.7360 C   0  0  0  0  0  2  0  0  0  0  0  0
  190.8910  172.3570  136.2040 C   0  0  0  0  0  2  0  0  0  0  0  0
  190.5200  173.8480  136.1960 C   0  0  2  0  0  3  0  0  0  0  0  0
  188.8790  173.2850  138.0650 C   0  0  0  0  0  2  0  0  0  0  0  0
  190.5180  171.6720  137.5300 C   0  0  0  0  0  2  0  0  0  0  0  0
  190.1000  172.6410  138.5430 N   0  0  0  0  0  0  0  0  0  0  0  0
  189.1580  174.1630  136.8380 C   0  0  0  0  0  2  0  0  0  0  0  0
  190.7110  174.4710  134.9440 O   0  0  0  0  0  0  0  0  0  0  0  0
  190.5950  175.8610  135.1130 C   0  0  0  0  0  1  0  0  0  0  0  0
  1  6  1  0  0  0  0
  2 12  2  0  0  0  0
  2 11  1  0  0  0  0
  3 10  1  0  0  0  0
  4  8  1  0  0  0  0
  5  1  1  0  0  0  0
  7  4  1  0  0  0  0
  7  9  1  0  0  0  0
  8  1  2  0  0  0  0
  9  5  2  0  0  0  0
 10 11  1  0  0  0  0
 11  7  2  0  0  0  0
 12 15  1  0  0  0  0
 13 35  1  6  0  0  0
 13  2  1  0  0  0  0
 14 13  1  0  0  0  0
 14  3  1  0  0  0  0
 15  4  2  0  0  0  0
 16 17  1  6  0  0  0
 16  3  1  0  0  0  0
 16 18  1  0  0  0  0
 18 19  1  0  0  0  0
 19 20  1  6  0  0  0
 19 21  1  0  0  0  0
 21 22  1  0  0  0  0
 22 32  1  6  0  0  0
 22 24  1  0  0  0  0
 23 26  1  0  0  0  0
 23 25  2  0  0  0  0
 24 23  1  0  0  0  0
 26 31  2  0  0  0  0
 27 29  1  0  0  0  0
 28 29  1  0  0  0  0
 30 28  2  0  0  0  0
 30 26  1  0  0  0  0
 31 27  1  0  0  0  0
 33 34  1  0  0  0  0
 34 32  1  0  0  0  0
 36 39  1  0  0  0  0
 37 42  1  6  0  0  0
 37 36  1  0  0  0  0
 37 41  1  0  0  0  0
 38 40  1  0  0  0  0
 39 40  1  0  0  0  0
 40 35  1  0  0  0  0
 41 38  1  0  0  0  0
 42 43  1  0  0  0  0
M  END
>  <MODEL>
5

>  <REMARK>
 VINA RESULT:      -6.2      3.467      7.417
  Name = 
  12 active torsions:
  status: ('A' for Active; 'I' for Inactive)
    1  A    between atoms: C_1  and  C_34
    2  A    between atoms: C_1  and  N_35
    3  A    between atoms: C_2  and  C_6
    4  A    between atoms: C_2  and  N_13
    5  A    between atoms: C_3  and  C_4
    6  A    between atoms: C_3  and  C_12
    7  A    between atoms: C_4  and  C_15
    8  A    between atoms: C_4  and  N_22
    9  A    between atoms: C_6  and  C_12
   10  A    between atoms: C_11  and  C_14
   11  A    between atoms: C_15  and  C_42
   12  A    between atoms: C_19  and  O_25
                            x       y       z     vdW  Elec       q    Type
                         _______ _______ _______ _____ _____    ______ ____

>  <TORSDO>
F 12

$$$$
=
 OpenBabel11052420573D

 43 47  0  0  1  0  0  0  0  0999 V2000
  187.7470  177.4880  146.9810 C   0  0  0  0  0  0  0  0  0  0  0  0
  191.2990  176.1840  143.6250 C   0  0  0  0  0  0  0  0  0  0  0  0
  190.8900  173.4210  143.0880 N   0  0  0  0  0  0  0  0  0  0  0  0
  189.5380  177.5320  145.3510 C   0  0  0  0  0  0  0  0  0  0  0  0
  187.6930  176.0930  146.8890 C   0  0  0  0  0  3  0  0  0  0  0  0
  186.9080  178.1440  147.8170 F   0  0  0  0  0  0  0  0  0  0  0  0
  189.4880  176.1200  145.2560 C   0  0  0  0  0  0  0  0  0  0  0  0
  188.6660  178.2050  146.2100 C   0  0  0  0  0  3  0  0  0  0  0  0
  188.5580  175.4110  146.0290 C   0  0  0  0  0  3  0  0  0  0  0  0
  190.2960  174.0330  144.2100 N   0  0  0  0  0  2  0  0  0  0  0  0
  190.3540  175.4550  144.3720 C   0  0  0  0  0  0  0  0  0  0  0  0
  191.3240  177.5830  143.7170 C   0  0  0  0  0  3  0  0  0  0  0  0
  192.2070  175.4550  142.6600 C   0  0  2  0  0  3  0  0  0  0  0  0
  192.2490  173.9510  142.9680 C   0  0  0  0  0  2  0  0  0  0  0  0
  190.4520  178.2530  144.5780 C   0  0  0  0  0  3  0  0  0  0  0  0
  190.9780  171.9800  143.3510 C   0  0  2  0  0  3  0  0  0  0  0  0
  192.3170  171.5800  143.4280 O   0  0  0  0  0  1  0  0  0  0  0  0
  190.2720  171.1630  142.2660 C   0  0  0  0  0  2  0  0  0  0  0  0
  190.3390  171.8480  140.9100 C   0  0  1  0  0  3  0  0  0  0  0  0
  190.6270  170.8970  139.9310 O   0  0  0  0  0  1  0  0  0  0  0  0
  188.9950  172.5050  140.6120 C   0  0  0  0  0  2  0  0  0  0  0  0
  189.1220  173.7670  139.7570 C   0  0  2  0  0  3  0  0  0  0  0  0
  187.7660  174.8480  141.6130 C   0  0  0  0  0  0  0  0  0  0  0  0
  188.6560  174.9340  140.4950 N   0  0  0  0  0  2  0  0  0  0  0  0
  187.3500  173.7220  142.0040 O   0  0  0  0  0  0  0  0  0  0  0  0
  187.3290  176.0820  142.2900 C   0  0  0  0  0  0  0  0  0  0  0  0
  185.9160  177.3100  143.9110 C   0  0  0  0  0  2  0  0  0  0  0  0
  187.4320  178.5290  142.3470 C   0  0  0  0  0  3  0  0  0  0  0  0
  186.0840  178.5420  143.0140 C   0  0  0  0  0  2  0  0  0  0  0  0
  187.9870  177.3700  141.9750 C   0  0  0  0  0  3  0  0  0  0  0  0
  186.3180  176.0590  143.1720 C   0  0  0  0  0  3  0  0  0  0  0  0
  188.3650  173.6360  138.4390 C   0  0  0  0  0  2  0  0  0  0  0  0
  189.6790  171.9730  136.6770 S   0  0  0  0  0  1  0  0  0  0  0  0
  189.3090  173.6600  137.2450 C   0  0  0  0  0  2  0  0  0  0  0  0
  193.6270  176.0110  142.6990 C   0  0  0  0  0  2  0  0  0  0  0  0
  196.7550  174.2890  143.8180 C   0  0  0  0  0  2  0  0  0  0  0  0
  196.1810  173.9750  145.2080 C   0  0  2  0  0  3  0  0  0  0  0  0
  194.6070  175.9460  144.8250 C   0  0  0  0  0  2  0  0  0  0  0  0
  195.7780  175.1040  142.9560 C   0  0  0  0  0  2  0  0  0  0  0  0
  194.4570  175.2030  143.5760 N   0  0  0  0  0  0  0  0  0  0  0  0
  195.4170  175.1450  145.8540 C   0  0  0  0  0  2  0  0  0  0  0  0
  197.1070  173.3590  146.0760 O   0  0  0  0  0  0  0  0  0  0  0  0
  196.8560  171.9760  146.0890 C   0  0  0  0  0  1  0  0  0  0  0  0
  1  6  1  0  0  0  0
  2 12  2  0  0  0  0
  2 11  1  0  0  0  0
  3 16  1  0  0  0  0
  3 10  1  0  0  0  0
  4  8  1  0  0  0  0
  5  1  1  0  0  0  0
  7  4  1  0  0  0  0
  7  9  1  0  0  0  0
  8  1  2  0  0  0  0
  9  5  2  0  0  0  0
 10 11  1  0  0  0  0
 11  7  2  0  0  0  0
 12 15  1  0  0  0  0
 13 35  1  1  0  0  0
 13 14  1  0  0  0  0
 13  2  1  0  0  0  0
 14  3  1  0  0  0  0
 15  4  2  0  0  0  0
 16 17  1  6  0  0  0
 18 16  1  0  0  0  0
 19 20  1  6  0  0  0
 19 18  1  0  0  0  0
 21 19  1  0  0  0  0
 22 32  1  6  0  0  0
 22 24  1  0  0  0  0
 22 21  1  0  0  0  0
 23 25  2  0  0  0  0
 23 26  1  0  0  0  0
 24 23  1  0  0  0  0
 26 31  2  0  0  0  0
 28 29  1  0  0  0  0
 29 27  1  0  0  0  0
 30 26  1  0  0  0  0
 30 28  2  0  0  0  0
 31 27  1  0  0  0  0
 33 34  1  0  0  0  0
 34 32  1  0  0  0  0
 35 40  1  0  0  0  0
 36 37  1  0  0  0  0
 37 41  1  0  0  0  0
 37 42  1  1  0  0  0
 38 41  1  0  0  0  0
 39 40  1  0  0  0  0
 39 36  1  0  0  0  0
 40 38  1  0  0  0  0
 42 43  1  0  0  0  0
M  END
>  <MODEL>
6

>  <REMARK>
 VINA RESULT:      -6.2      2.733      7.197
  Name = 
  12 active torsions:
  status: ('A' for Active; 'I' for Inactive)
    1  A    between atoms: C_1  and  C_34
    2  A    between atoms: C_1  and  N_35
    3  A    between atoms: C_2  and  C_6
    4  A    between atoms: C_2  and  N_13
    5  A    between atoms: C_3  and  C_4
    6  A    between atoms: C_3  and  C_12
    7  A    between atoms: C_4  and  C_15
    8  A    between atoms: C_4  and  N_22
    9  A    between atoms: C_6  and  C_12
   10  A    between atoms: C_11  and  C_14
   11  A    between atoms: C_15  and  C_42
   12  A    between atoms: C_19  and  O_25
                            x       y       z     vdW  Elec       q    Type
                         _______ _______ _______ _____ _____    ______ ____

>  <TORSDO>
F 12

$$$$
=
 OpenBabel11052420573D

 43 47  0  0  1  0  0  0  0  0999 V2000
  185.0900  178.2540  146.7550 C   0  0  0  0  0  0  0  0  0  0  0  0
  188.3190  175.6520  143.8600 C   0  0  0  0  0  0  0  0  0  0  0  0
  190.5400  175.0360  145.5260 N   0  0  0  0  0  0  0  0  0  0  0  0
  186.1100  177.0060  144.9480 C   0  0  0  0  0  0  0  0  0  0  0  0
  186.2700  178.1490  147.4990 C   0  0  0  0  0  3  0  0  0  0  0  0
  184.0240  178.9120  147.2690 F   0  0  0  0  0  0  0  0  0  0  0  0
  187.3070  176.8970  145.6950 C   0  0  0  0  0  0  0  0  0  0  0  0
  185.0100  177.6800  145.4830 C   0  0  0  0  0  3  0  0  0  0  0  0
  187.3740  177.4720  146.9730 C   0  0  0  0  0  3  0  0  0  0  0  0
  189.6080  176.0220  145.9040 N   0  0  0  0  0  2  0  0  0  0  0  0
  188.3980  176.1980  145.1560 C   0  0  0  0  0  0  0  0  0  0  0  0
  187.1200  175.7520  143.1390 C   0  0  0  0  0  3  0  0  0  0  0  0
  189.4950  174.8810  143.3040 C   0  0  2  0  0  3  0  0  0  0  0  0
  190.7790  175.1850  144.0900 C   0  0  0  0  0  2  0  0  0  0  0  0
  186.0230  176.4280  143.6780 C   0  0  0  0  0  3  0  0  0  0  0  0
  191.7970  175.3050  146.2330 C   0  0  2  0  0  3  0  0  0  0  0  0
  191.5850  175.3220  147.6160 O   0  0  0  0  0  1  0  0  0  0  0  0
  192.4130  176.6390  145.8040 C   0  0  0  0  0  2  0  0  0  0  0  0
  193.9300  176.5650  145.7360 C   0  0  1  0  0  3  0  0  0  0  0  0
  194.4710  177.2200  146.8430 O   0  0  0  0  0  1  0  0  0  0  0  0
  194.3620  175.1020  145.7400 C   0  0  0  0  0  2  0  0  0  0  0  0
  195.8350  174.9120  145.3700 C   0  0  2  0  0  3  0  0  0  0  0  0
  196.4740  175.6690  143.0320 C   0  0  0  0  0  0  0  0  0  0  0  0
  195.9760  174.6800  143.9390 N   0  0  0  0  0  2  0  0  0  0  0  0
  196.8180  176.8050  143.4630 O   0  0  0  0  0  0  0  0  0  0  0  0
  196.5660  175.3570  141.5950 C   0  0  0  0  0  0  0  0  0  0  0  0
  195.6290  175.2810  139.3040 C   0  0  0  0  0  2  0  0  0  0  0  0
  197.8410  174.2490  139.8200 C   0  0  0  0  0  3  0  0  0  0  0  0
  196.5660  174.0980  139.0370 C   0  0  0  0  0  2  0  0  0  0  0  0
  197.8210  174.8040  141.0370 C   0  0  0  0  0  3  0  0  0  0  0  0
  195.5120  175.5400  140.7840 C   0  0  0  0  0  3  0  0  0  0  0  0
  196.4730  173.7720  146.1580 C   0  0  0  0  0  2  0  0  0  0  0  0
  196.8040  171.0930  145.6000 S   0  0  0  0  0  1  0  0  0  0  0  0
  197.2420  172.8220  145.2490 C   0  0  0  0  0  2  0  0  0  0  0  0
  189.7260  175.1980  141.8300 C   0  0  0  0  0  2  0  0  0  0  0  0
  188.5740  173.0090  139.0230 C   0  0  0  0  0  2  0  0  0  0  0  0
  189.6210  171.9270  139.3310 C   0  0  2  0  0  3  0  0  0  0  0  0
  190.9740  173.7800  140.4450 C   0  0  0  0  0  2  0  0  0  0  0  0
  188.7090  174.2280  139.9500 C   0  0  0  0  0  2  0  0  0  0  0  0
  189.6540  173.9830  141.0390 N   0  0  0  0  0  0  0  0  0  0  0  0
  191.0250  172.4760  139.6380 C   0  0  0  0  0  2  0  0  0  0  0  0
  189.6220  170.8620  138.4060 O   0  0  0  0  0  0  0  0  0  0  0  0
  190.4120  169.8200  138.9220 C   0  0  0  0  0  1  0  0  0  0  0  0
  1  6  1  0  0  0  0
  1  5  1  0  0  0  0
  2 11  1  0  0  0  0
  3 10  1  0  0  0  0
  3 16  1  0  0  0  0
  4  8  1  0  0  0  0
  4  7  1  0  0  0  0
  7  9  1  0  0  0  0
  8  1  2  0  0  0  0
  9  5  2  0  0  0  0
 11  7  2  0  0  0  0
 11 10  1  0  0  0  0
 12 15  1  0  0  0  0
 12  2  2  0  0  0  0
 13 35  1  6  0  0  0
 13  2  1  0  0  0  0
 13 14  1  0  0  0  0
 14  3  1  0  0  0  0
 15  4  2  0  0  0  0
 16 17  1  1  0  0  0
 18 16  1  0  0  0  0
 19 21  1  0  0  0  0
 19 18  1  0  0  0  0
 19 20  1  1  0  0  0
 22 21  1  6  0  0  0
 22 32  1  0  0  0  0
 23 25  2  0  0  0  0
 23 24  1  0  0  0  0
 24 22  1  0  0  0  0
 26 23  1  0  0  0  0
 27 31  1  0  0  0  0
 28 30  2  0  0  0  0
 29 27  1  0  0  0  0
 29 28  1  0  0  0  0
 30 26  1  0  0  0  0
 31 26  2  0  0  0  0
 34 33  1  0  0  0  0
 34 32  1  0  0  0  0
 36 37  1  0  0  0  0
 36 39  1  0  0  0  0
 37 42  1  6  0  0  0
 37 41  1  0  0  0  0
 38 40  1  0  0  0  0
 39 40  1  0  0  0  0
 40 35  1  0  0  0  0
 41 38  1  0  0  0  0
 42 43  1  0  0  0  0
M  END
>  <MODEL>
7

>  <REMARK>
 VINA RESULT:      -6.1      3.704      7.632
  Name = 
  12 active torsions:
  status: ('A' for Active; 'I' for Inactive)
    1  A    between atoms: C_1  and  C_34
    2  A    between atoms: C_1  and  N_35
    3  A    between atoms: C_2  and  C_6
    4  A    between atoms: C_2  and  N_13
    5  A    between atoms: C_3  and  C_4
    6  A    between atoms: C_3  and  C_12
    7  A    between atoms: C_4  and  C_15
    8  A    between atoms: C_4  and  N_22
    9  A    between atoms: C_6  and  C_12
   10  A    between atoms: C_11  and  C_14
   11  A    between atoms: C_15  and  C_42
   12  A    between atoms: C_19  and  O_25
                            x       y       z     vdW  Elec       q    Type
                         _______ _______ _______ _____ _____    ______ ____

>  <TORSDO>
F 12

$$$$
=
 OpenBabel11052420573D

 43 47  0  0  1  0  0  0  0  0999 V2000
  188.5300  176.9630  146.6630 C   0  0  0  0  0  0  0  0  0  0  0  0
  192.7570  175.4340  144.3450 C   0  0  0  0  0  0  0  0  0  0  0  0
  192.4320  172.6450  143.8880 N   0  0  0  0  0  0  0  0  0  0  0  0
  190.6610  176.8960  145.5140 C   0  0  0  0  0  0  0  0  0  0  0  0
  188.4700  175.5660  146.6430 C   0  0  0  0  0  3  0  0  0  0  0  0
  187.5280  177.6750  147.2320 F   0  0  0  0  0  0  0  0  0  0  0  0
  190.6060  175.4820  145.4920 C   0  0  0  0  0  0  0  0  0  0  0  0
  189.6220  177.6270  146.0960 C   0  0  0  0  0  3  0  0  0  0  0  0
  189.5030  174.8270  146.0590 C   0  0  0  0  0  3  0  0  0  0  0  0
  191.5990  173.3290  144.7960 N   0  0  0  0  0  2  0  0  0  0  0  0
  191.6450  174.7580  144.8840 C   0  0  0  0  0  0  0  0  0  0  0  0
  192.7880  176.8360  144.3580 C   0  0  0  0  0  3  0  0  0  0  0  0
  193.8550  174.6420  143.6720 C   0  0  2  0  0  3  0  0  0  0  0  0
  193.7910  173.1590  144.0680 C   0  0  0  0  0  2  0  0  0  0  0  0
  191.7480  177.5630  144.9430 C   0  0  0  0  0  3  0  0  0  0  0  0
  192.4250  171.2230  144.2480 C   0  0  2  0  0  3  0  0  0  0  0  0
  193.6440  170.8620  144.8320 O   0  0  0  0  0  1  0  0  0  0  0  0
  192.1690  170.3330  143.0310 C   0  0  0  0  0  2  0  0  0  0  0  0
  191.9220  171.1530  141.7730 C   0  0  1  0  0  3  0  0  0  0  0  0
  192.5740  170.5480  140.6980 O   0  0  0  0  0  1  0  0  0  0  0  0
  190.4220  171.2140  141.5000 C   0  0  0  0  0  2  0  0  0  0  0  0
  190.0460  172.2740  140.4630 C   0  0  2  0  0  3  0  0  0  0  0  0
  189.8200  174.5310  141.6040 C   0  0  0  0  0  0  0  0  0  0  0  0
  189.2500  173.3290  141.0760 N   0  0  0  0  0  2  0  0  0  0  0  0
  191.0670  174.7180  141.5470 O   0  0  0  0  0  0  0  0  0  0  0  0
  188.9420  175.5390  142.2260 C   0  0  0  0  0  0  0  0  0  0  0  0
  186.8590  176.2190  143.3800 C   0  0  0  0  0  2  0  0  0  0  0  0
  188.5130  177.9210  142.6080 C   0  0  0  0  0  3  0  0  0  0  0  0
  187.0500  177.6050  142.7530 C   0  0  0  0  0  2  0  0  0  0  0  0
  189.3850  176.9490  142.3200 C   0  0  0  0  0  3  0  0  0  0  0  0
  187.7270  175.2010  142.6860 C   0  0  0  0  0  3  0  0  0  0  0  0
  189.3000  171.6670  139.2790 C   0  0  0  0  0  2  0  0  0  0  0  0
  189.8560  173.7740  137.5890 S   0  0  0  0  0  1  0  0  0  0  0  0
  188.6230  172.7370  138.4330 C   0  0  0  0  0  2  0  0  0  0  0  0
  195.2350  175.1900  144.0200 C   0  0  0  0  0  2  0  0  0  0  0  0
  197.8740  174.6270  141.4280 C   0  0  0  0  0  2  0  0  0  0  0  0
  197.2760  175.6760  140.4760 C   0  0  2  0  0  3  0  0  0  0  0  0
  195.0660  175.2770  141.6850 C   0  0  0  0  0  2  0  0  0  0  0  0
  197.0300  174.4500  142.7010 C   0  0  0  0  0  2  0  0  0  0  0  0
  195.9840  175.4660  142.8060 N   0  0  0  0  0  0  0  0  0  0  0  0
  195.7440  175.6120  140.3500 C   0  0  0  0  0  2  0  0  0  0  0  0
  197.9410  175.7560  139.2350 O   0  0  0  0  0  0  0  0  0  0  0  0
  197.1140  175.1980  138.2460 C   0  0  0  0  0  1  0  0  0  0  0  0
  1  6  1  0  0  0  0
  2 12  2  0  0  0  0
  2 11  1  0  0  0  0
  3 14  1  0  0  0  0
  3 16  1  0  0  0  0
  3 10  1  0  0  0  0
  4  8  1  0  0  0  0
  5  1  1  0  0  0  0
  7  4  1  0  0  0  0
  7  9  1  0  0  0  0
  8  1  2  0  0  0  0
  9  5  2  0  0  0  0
 10 11  1  0  0  0  0
 11  7  2  0  0  0  0
 12 15  1  0  0  0  0
 13 35  1  1  0  0  0
 13 14  1  0  0  0  0
 13  2  1  0  0  0  0
 15  4  2  0  0  0  0
 16 17  1  6  0  0  0
 18 16  1  0  0  0  0
 19 20  1  6  0  0  0
 19 18  1  0  0  0  0
 21 19  1  0  0  0  0
 22 32  1  6  0  0  0
 22 24  1  0  0  0  0
 22 21  1  0  0  0  0
 23 26  1  0  0  0  0
 24 23  1  0  0  0  0
 25 23  2  0  0  0  0
 26 30  1  0  0  0  0
 26 31  2  0  0  0  0
 28 29  1  0  0  0  0
 29 27  1  0  0  0  0
 30 28  2  0  0  0  0
 31 27  1  0  0  0  0
 33 34  1  0  0  0  0
 34 32  1  0  0  0  0
 36 39  1  0  0  0  0
 37 42  1  6  0  0  0
 37 36  1  0  0  0  0
 38 40  1  0  0  0  0
 39 40  1  0  0  0  0
 40 35  1  0  0  0  0
 41 37  1  0  0  0  0
 41 38  1  0  0  0  0
 43 42  1  0  0  0  0
M  END
>  <MODEL>
8

>  <REMARK>
 VINA RESULT:      -6.1      3.072      7.283
  Name = 
  12 active torsions:
  status: ('A' for Active; 'I' for Inactive)
    1  A    between atoms: C_1  and  C_34
    2  A    between atoms: C_1  and  N_35
    3  A    between atoms: C_2  and  C_6
    4  A    between atoms: C_2  and  N_13
    5  A    between atoms: C_3  and  C_4
    6  A    between atoms: C_3  and  C_12
    7  A    between atoms: C_4  and  C_15
    8  A    between atoms: C_4  and  N_22
    9  A    between atoms: C_6  and  C_12
   10  A    between atoms: C_11  and  C_14
   11  A    between atoms: C_15  and  C_42
   12  A    between atoms: C_19  and  O_25
                            x       y       z     vdW  Elec       q    Type
                         _______ _______ _______ _____ _____    ______ ____

>  <TORSDO>
F 12

$$$$
=
 OpenBabel11052420573D

 43 47  0  0  1  0  0  0  0  0999 V2000
  184.7970  178.4880  146.0360 C   0  0  0  0  0  0  0  0  0  0  0  0
  188.3350  175.7600  143.6660 C   0  0  0  0  0  0  0  0  0  0  0  0
  190.5060  175.5420  145.4910 N   0  0  0  0  0  0  0  0  0  0  0  0
  185.9880  177.0830  144.4630 C   0  0  0  0  0  0  0  0  0  0  0  0
  185.9420  178.5720  146.8340 C   0  0  0  0  0  3  0  0  0  0  0  0
  183.6640  179.1290  146.4080 F   0  0  0  0  0  0  0  0  0  0  0  0
  187.1500  177.1660  145.2670 C   0  0  0  0  0  0  0  0  0  0  0  0
  184.8190  177.7420  144.8540 C   0  0  0  0  0  3  0  0  0  0  0  0
  187.1140  177.9130  146.4530 C   0  0  0  0  0  3  0  0  0  0  0  0
  189.4910  176.4990  145.6890 N   0  0  0  0  0  2  0  0  0  0  0  0
  188.3120  176.4820  144.8750 C   0  0  0  0  0  0  0  0  0  0  0  0
  187.1700  175.6730  142.8900 C   0  0  0  0  0  3  0  0  0  0  0  0
  189.5870  175.0090  143.2710 C   0  0  2  0  0  3  0  0  0  0  0  0
  190.8060  175.5110  144.0590 C   0  0  0  0  0  2  0  0  0  0  0  0
  186.0040  176.3330  143.2840 C   0  0  0  0  0  3  0  0  0  0  0  0
  191.7050  175.9970  146.2040 C   0  0  2  0  0  3  0  0  0  0  0  0
  191.3580  176.9090  147.2070 O   0  0  0  0  0  1  0  0  0  0  0  0
  192.7120  176.6520  145.2560 C   0  0  0  0  0  2  0  0  0  0  0  0
  194.0980  176.7370  145.8760 C   0  0  1  0  0  3  0  0  0  0  0  0
  194.2090  175.7780  146.8840 O   0  0  0  0  0  1  0  0  0  0  0  0
  195.1470  176.4780  144.7990 C   0  0  0  0  0  2  0  0  0  0  0  0
  194.7430  175.3690  143.8250 C   0  0  2  0  0  3  0  0  0  0  0  0
  194.4880  173.0210  144.7610 C   0  0  0  0  0  0  0  0  0  0  0  0
  195.2940  174.0890  144.2510 N   0  0  0  0  0  2  0  0  0  0  0  0
  193.2370  173.1640  144.8560 O   0  0  0  0  0  0  0  0  0  0  0  0
  195.1310  171.7660  145.1880 C   0  0  0  0  0  0  0  0  0  0  0  0
  195.0530  169.4390  146.0310 C   0  0  0  0  0  2  0  0  0  0  0  0
  197.2260  170.6380  145.7740 C   0  0  0  0  0  3  0  0  0  0  0  0
  196.4410  169.6870  146.6330 C   0  0  0  0  0  2  0  0  0  0  0  0
  196.6060  171.6350  145.1340 C   0  0  0  0  0  3  0  0  0  0  0  0
  194.3990  170.7440  145.6560 C   0  0  0  0  0  3  0  0  0  0  0  0
  195.1760  175.6840  142.3970 C   0  0  0  0  0  2  0  0  0  0  0  0
  193.9340  173.7970  140.8170 S   0  0  0  0  0  1  0  0  0  0  0  0
  194.0280  175.5130  141.4110 C   0  0  0  0  0  2  0  0  0  0  0  0
  189.8710  175.1390  141.7790 C   0  0  0  0  0  2  0  0  0  0  0  0
  190.1320  171.4140  141.5380 C   0  0  0  0  0  2  0  0  0  0  0  0
  190.9060  171.4740  140.2120 C   0  0  2  0  0  3  0  0  0  0  0  0
  189.8420  173.7670  139.8800 C   0  0  0  0  0  2  0  0  0  0  0  0
  189.7210  172.8100  142.0340 C   0  0  0  0  0  2  0  0  0  0  0  0
  190.3450  173.8730  141.2470 N   0  0  0  0  0  0  0  0  0  0  0  0
  190.3460  172.4880  139.1990 C   0  0  0  0  0  2  0  0  0  0  0  0
  191.1690  170.2050  139.6530 O   0  0  0  0  0  0  0  0  0  0  0  0
  190.8220  169.2200  140.5940 C   0  0  0  0  0  1  0  0  0  0  0  0
  1  6  1  0  0  0  0
  1  5  1  0  0  0  0
  2 11  1  0  0  0  0
  3 10  1  0  0  0  0
  3 16  1  0  0  0  0
  4  8  1  0  0  0  0
  4  7  1  0  0  0  0
  7  9  1  0  0  0  0
  8  1  2  0  0  0  0
  9  5  2  0  0  0  0
 11  7  2  0  0  0  0
 11 10  1  0  0  0  0
 12 15  1  0  0  0  0
 12  2  2  0  0  0  0
 13 35  1  6  0  0  0
 13  2  1  0  0  0  0
 13 14  1  0  0  0  0
 14  3  1  0  0  0  0
 15  4  2  0  0  0  0
 16 17  1  1  0  0  0
 18 19  1  0  0  0  0
 18 16  1  0  0  0  0
 19 20  1  1  0  0  0
 21 19  1  0  0  0  0
 22 32  1  6  0  0  0
 22 24  1  0  0  0  0
 22 21  1  0  0  0  0
 23 25  2  0  0  0  0
 23 26  1  0  0  0  0
 24 23  1  0  0  0  0
 26 31  2  0  0  0  0
 27 29  1  0  0  0  0
 28 29  1  0  0  0  0
 30 26  1  0  0  0  0
 30 28  2  0  0  0  0
 31 27  1  0  0  0  0
 33 34  1  0  0  0  0
 34 32  1  0  0  0  0
 36 39  1  0  0  0  0
 37 42  1  6  0  0  0
 37 36  1  0  0  0  0
 38 40  1  0  0  0  0
 40 35  1  0  0  0  0
 40 39  1  0  0  0  0
 41 38  1  0  0  0  0
 41 37  1  0  0  0  0
 42 43  1  0  0  0  0
M  END
>  <MODEL>
9

>  <REMARK>
 VINA RESULT:      -6.1      3.206      7.136
  Name = 
  12 active torsions:
  status: ('A' for Active; 'I' for Inactive)
    1  A    between atoms: C_1  and  C_34
    2  A    between atoms: C_1  and  N_35
    3  A    between atoms: C_2  and  C_6
    4  A    between atoms: C_2  and  N_13
    5  A    between atoms: C_3  and  C_4
    6  A    between atoms: C_3  and  C_12
    7  A    between atoms: C_4  and  C_15
    8  A    between atoms: C_4  and  N_22
    9  A    between atoms: C_6  and  C_12
   10  A    between atoms: C_11  and  C_14
   11  A    between atoms: C_15  and  C_42
   12  A    between atoms: C_19  and  O_25
                            x       y       z     vdW  Elec       q    Type
                         _______ _______ _______ _____ _____    ______ ____

>  <TORSDO>
F 12

$$$$
