=
 OpenBabel11052418253D

 27 31  0  0  1  0  0  0  0  0999 V2000
  190.9990  177.0440  143.7930 N   0  0  0  0  0  2  0  0  0  0  0  0
  188.7070  177.1990  142.8250 C   0  0  0  0  0  0  0  0  0  0  0  0
  188.5220  177.4910  145.4100 N   0  0  0  0  0  0  0  0  0  0  0  0
  184.8060  178.5650  142.5260 C   0  0  0  0  0  3  0  0  0  0  0  0
  182.6830  179.2220  143.5310 F   0  0  0  0  0  0  0  0  0  0  0  0
  188.1240  177.3840  141.6330 C   0  0  0  0  0  3  0  0  0  0  0  0
  185.8950  178.3660  145.2230 C   0  0  0  0  0  3  0  0  0  0  0  0
  191.3270  176.8430  147.7910 C   0  0  0  0  0  0  0  0  0  0  0  0
  184.4660  178.7490  144.9410 C   0  0  0  0  0  3  0  0  0  0  0  0
  191.5480  177.0370  149.0140 O   0  0  0  0  0  0  0  0  0  0  0  0
  186.6790  177.9790  143.9890 C   0  0  0  0  0  0  0  0  0  0  0  0
  190.0750  176.5800  142.7630 C   0  0  2  0  0  3  0  0  0  0  0  0
  183.9750  178.8570  143.7040 C   0  0  0  0  0  0  0  0  0  0  0  0
  186.0660  178.1520  142.6540 C   0  0  1  0  0  3  0  0  0  0  0  0
  190.7620  176.3080  145.0200 C   0  0  1  0  0  3  0  0  0  0  0  0
  187.9510  177.5350  144.0870 C   0  0  0  0  0  0  0  0  0  0  0  0
  190.0610  177.2750  147.1910 C   0  0  0  0  0  2  0  0  0  0  0  0
  186.8220  177.8740  141.5190 O   0  0  0  0  0  0  0  0  0  0  0  0
  192.3380  176.1990  146.9510 C   0  0  0  0  0  3  0  0  0  0  0  0
  192.0840  175.9640  145.6650 C   0  0  0  0  0  3  0  0  0  0  0  0
  189.7960  177.0630  145.8980 C   0  0  0  0  0  0  0  0  0  0  0  0
  190.2060  172.3240  142.0960 C   0  0  0  0  0  3  0  0  0  0  0  0
  190.0960  175.0900  142.5220 C   0  0  0  0  0  0  0  0  0  0  0  0
  189.0520  174.2650  142.9670 C   0  0  0  0  0  3  0  0  0  0  0  0
  189.1070  172.8850  142.7520 C   0  0  0  0  0  3  0  0  0  0  0  0
  191.2510  173.1410  141.6580 C   0  0  0  0  0  3  0  0  0  0  0  0
  191.1970  174.5210  141.8730 C   0  0  0  0  0  3  0  0  0  0  0  0
  1 15  1  0  0  0  0
  2 16  1  0  0  0  0
  3 21  2  0  0  0  0
  4 13  2  0  0  0  0
  5 13  1  0  0  0  0
  6  2  2  0  0  0  0
  8 10  2  0  0  0  0
  9  7  2  0  0  0  0
 11 16  2  0  0  0  0
 11  7  1  0  0  0  0
 12 23  1  1  0  0  0
 12  2  1  0  0  0  0
 12  1  1  0  0  0  0
 13  9  1  0  0  0  0
 14  4  1  1  0  0  0
 14 11  1  0  0  0  0
 15 20  1  1  0  0  0
 15 21  1  0  0  0  0
 16  3  1  0  0  0  0
 17  8  1  0  0  0  0
 18  6  1  0  0  0  0
 18 14  1  0  0  0  0
 19  8  1  0  0  0  0
 20 19  2  0  0  0  0
 21 17  1  0  0  0  0
 22 25  1  0  0  0  0
 23 24  1  0  0  0  0
 25 24  2  0  0  0  0
 26 27  1  0  0  0  0
 26 22  2  0  0  0  0
 27 23  2  0  0  0  0
M  END
>  <MODEL>
1

>  <REMARK>
 VINA RESULT:      -8.4      0.000      0.000
  Name = 
  1 active torsions:
  status: ('A' for Active; 'I' for Inactive)
    1  A    between atoms: C_9  and  C_15
                            x       y       z     vdW  Elec       q    Type
                         _______ _______ _______ _____ _____    ______ ____

>  <TORSDO>
F 1

$$$$
=
 OpenBabel11052418253D

 27 31  0  0  1  0  0  0  0  0999 V2000
  189.9430  173.5870  144.9970 N   0  0  0  0  0  2  0  0  0  0  0  0
  188.9510  175.8030  145.5640 C   0  0  0  0  0  0  0  0  0  0  0  0
  188.3500  175.2510  143.0880 N   0  0  0  0  0  2  0  0  0  0  0  0
  186.1310  178.8360  145.4330 C   0  0  0  0  0  3  0  0  0  0  0  0
  184.5560  180.2470  144.2160 F   0  0  0  0  0  0  0  0  0  0  0  0
  188.6630  176.5330  146.6500 C   0  0  0  0  0  3  0  0  0  0  0  0
  186.4900  177.3070  142.9760 C   0  0  0  0  0  2  0  0  0  0  0  0
  189.8570  172.4350  141.1510 C   0  0  0  0  0  0  0  0  0  0  0  0
  185.5800  178.5040  143.0730 C   0  0  0  0  0  3  0  0  0  0  0  0
  189.6500  171.8760  140.0430 O   0  0  0  0  0  0  0  0  0  0  0  0
  187.2890  177.0440  144.2330 C   0  0  0  0  0  0  0  0  0  0  0  0
  190.0840  174.8320  145.7460 C   0  0  2  0  0  3  0  0  0  0  0  0
  185.4040  179.1920  144.2040 C   0  0  0  0  0  0  0  0  0  0  0  0
  187.0130  177.8390  145.4510 C   0  0  0  0  0  0  0  0  0  0  0  0
  190.3870  173.7940  143.6310 C   0  0  1  0  0  3  0  0  0  0  0  0
  188.2070  176.0540  144.2760 C   0  0  0  0  0  0  0  0  0  0  0  0
  189.0020  173.5410  141.5930 C   0  0  0  0  0  3  0  0  0  0  0  0
  187.6920  177.5350  146.6270 O   0  0  0  0  0  0  0  0  0  0  0  0
  190.9430  171.9740  142.0180 C   0  0  0  0  0  3  0  0  0  0  0  0
  191.1800  172.5920  143.1730 C   0  0  0  0  0  3  0  0  0  0  0  0
  189.2150  174.1620  142.7570 C   0  0  0  0  0  0  0  0  0  0  0  0
  194.0560  176.5000  145.6250 C   0  0  0  0  0  3  0  0  0  0  0  0
  191.4650  175.4400  145.7040 C   0  0  0  0  0  0  0  0  0  0  0  0
  191.7640  176.5110  144.8480 C   0  0  0  0  0  3  0  0  0  0  0  0
  193.0570  177.0410  144.8110 C   0  0  0  0  0  3  0  0  0  0  0  0
  193.7650  175.4280  146.4730 C   0  0  0  0  0  3  0  0  0  0  0  0
  192.4720  174.8980  146.5100 C   0  0  0  0  0  3  0  0  0  0  0  0
  1 12  1  0  0  0  0
  2 12  1  0  0  0  0
  2  6  2  0  0  0  0
  3 16  1  0  0  0  0
  4 14  2  0  0  0  0
  7  9  1  0  0  0  0
  7 11  1  0  0  0  0
  8 17  1  0  0  0  0
  8 19  1  0  0  0  0
  9 13  2  0  0  0  0
 10  8  2  0  0  0  0
 11 16  2  0  0  0  0
 11 14  1  0  0  0  0
 12 23  1  6  0  0  0
 13  5  1  0  0  0  0
 13  4  1  0  0  0  0
 14 18  1  0  0  0  0
 15 20  1  6  0  0  0
 15  1  1  0  0  0  0
 16  2  1  0  0  0  0
 17 21  2  0  0  0  0
 18  6  1  0  0  0  0
 19 20  2  0  0  0  0
 21  3  1  0  0  0  0
 21 15  1  0  0  0  0
 22 26  1  0  0  0  0
 23 27  1  0  0  0  0
 24 23  2  0  0  0  0
 25 24  1  0  0  0  0
 25 22  2  0  0  0  0
 26 27  2  0  0  0  0
M  END
>  <MODEL>
2

>  <REMARK>
 VINA RESULT:      -8.1      2.231      4.797
  Name = 
  1 active torsions:
  status: ('A' for Active; 'I' for Inactive)
    1  A    between atoms: C_9  and  C_15
                            x       y       z     vdW  Elec       q    Type
                         _______ _______ _______ _____ _____    ______ ____

>  <TORSDO>
F 1

$$$$
=
 OpenBabel11052418253D

 27 31  0  0  1  0  0  0  0  0999 V2000
  191.0480  176.3730  142.7630 N   0  0  0  0  0  2  0  0  0  0  0  0
  188.6210  176.4010  143.3320 C   0  0  0  0  0  0  0  0  0  0  0  0
  189.9760  176.8490  145.5150 N   0  0  0  0  0  0  0  0  0  0  0  0
  185.2180  177.6310  145.3510 C   0  0  0  0  0  3  0  0  0  0  0  0
  184.0570  178.2880  147.3930 F   0  0  0  0  0  0  0  0  0  0  0  0
  187.4380  176.4930  142.7100 C   0  0  0  0  0  3  0  0  0  0  0  0
  187.6950  177.6340  146.8880 C   0  0  0  0  0  3  0  0  0  0  0  0
  193.6770  176.4340  145.7980 C   0  0  0  0  0  0  0  0  0  0  0  0
  186.3540  177.9570  147.4920 C   0  0  0  0  0  3  0  0  0  0  0  0
  194.5640  176.7110  146.6470 O   0  0  0  0  0  0  0  0  0  0  0  0
  187.6240  177.1930  145.4430 C   0  0  0  0  0  0  0  0  0  0  0  0
  189.7250  175.8180  142.4950 C   0  0  2  0  0  3  0  0  0  0  0  0
  185.2230  177.9720  146.7820 C   0  0  0  0  0  0  0  0  0  0  0  0
  186.3330  177.2630  144.7230 C   0  0  1  0  0  3  0  0  0  0  0  0
  191.6240  175.7090  143.9180 C   0  0  1  0  0  3  0  0  0  0  0  0
  188.7340  176.7930  144.7850 C   0  0  0  0  0  0  0  0  0  0  0  0
  192.2770  176.7910  146.0480 C   0  0  0  0  0  2  0  0  0  0  0  0
  186.2920  176.9370  143.3710 O   0  0  0  0  0  0  0  0  0  0  0  0
  194.0380  175.7680  144.5450 C   0  0  0  0  0  3  0  0  0  0  0  0
  193.0900  175.4450  143.6670 C   0  0  0  0  0  3  0  0  0  0  0  0
  191.3160  176.4900  145.1700 C   0  0  0  0  0  0  0  0  0  0  0  0
  189.6910  171.5350  142.0140 C   0  0  0  0  0  3  0  0  0  0  0  0
  189.6900  174.3180  142.3380 C   0  0  0  0  0  0  0  0  0  0  0  0
  189.3160  173.4820  143.4020 C   0  0  0  0  0  3  0  0  0  0  0  0
  189.3150  172.0940  143.2380 C   0  0  0  0  0  3  0  0  0  0  0  0
  190.0720  172.3630  140.9540 C   0  0  0  0  0  3  0  0  0  0  0  0
  190.0740  173.7520  141.1180 C   0  0  0  0  0  3  0  0  0  0  0  0
  1 15  1  0  0  0  0
  2 16  1  0  0  0  0
  4 13  2  0  0  0  0
  6  2  2  0  0  0  0
  6 18  1  0  0  0  0
  7  9  2  0  0  0  0
  8 17  1  0  0  0  0
  8 10  2  0  0  0  0
 11  7  1  0  0  0  0
 12 23  1  1  0  0  0
 12  1  1  0  0  0  0
 12  2  1  0  0  0  0
 13  5  1  0  0  0  0
 13  9  1  0  0  0  0
 14  4  1  1  0  0  0
 14 11  1  0  0  0  0
 15 20  1  6  0  0  0
 15 21  1  0  0  0  0
 16 11  2  0  0  0  0
 16  3  1  0  0  0  0
 18 14  1  0  0  0  0
 19  8  1  0  0  0  0
 20 19  2  0  0  0  0
 21  3  2  0  0  0  0
 21 17  1  0  0  0  0
 22 25  1  0  0  0  0
 23 24  1  0  0  0  0
 25 24  2  0  0  0  0
 26 27  1  0  0  0  0
 26 22  2  0  0  0  0
 27 23  2  0  0  0  0
M  END
>  <MODEL>
3

>  <REMARK>
 VINA RESULT:      -8.0      1.851      2.259
  Name = 
  1 active torsions:
  status: ('A' for Active; 'I' for Inactive)
    1  A    between atoms: C_9  and  C_15
                            x       y       z     vdW  Elec       q    Type
                         _______ _______ _______ _____ _____    ______ ____

>  <TORSDO>
F 1

$$$$
=
 OpenBabel11052418253D

 27 31  0  0  1  0  0  0  0  0999 V2000
  187.7210  178.6350  142.8420 N   0  0  0  0  0  2  0  0  0  0  0  0
  189.0360  177.2610  144.4530 C   0  0  0  0  0  0  0  0  0  0  0  0
  188.7330  175.8800  142.2610 N   0  0  0  0  0  2  0  0  0  0  0  0
  191.9100  174.5160  145.6270 C   0  0  0  0  0  3  0  0  0  0  0  0
  193.1120  172.4130  145.3340 F   0  0  0  0  0  0  0  0  0  0  0  0
  189.7300  177.4220  145.5870 C   0  0  0  0  0  3  0  0  0  0  0  0
  190.6260  174.0130  143.0580 C   0  0  0  0  0  2  0  0  0  0  0  0
  186.4280  176.8470  139.4860 C   0  0  0  0  0  0  0  0  0  0  0  0
  191.6180  173.0660  143.6800 C   0  0  0  0  0  3  0  0  0  0  0  0
  186.2080  176.4630  138.3080 O   0  0  0  0  0  0  0  0  0  0  0  0
  190.2670  175.1870  143.9420 C   0  0  0  0  0  0  0  0  0  0  0  0
  187.9450  178.2720  144.2370 C   0  0  2  0  0  3  0  0  0  0  0  0
  192.2180  173.3070  144.8480 C   0  0  0  0  0  0  0  0  0  0  0  0
  190.9990  175.3930  145.2110 C   0  0  0  0  0  0  0  0  0  0  0  0
  186.8710  177.6390  142.2160 C   0  0  1  0  0  3  0  0  0  0  0  0
  189.3310  176.0820  143.5570 C   0  0  0  0  0  0  0  0  0  0  0  0
  187.4750  176.2070  140.2880 C   0  0  0  0  0  3  0  0  0  0  0  0
  190.7230  176.5220  145.9770 O   0  0  0  0  0  0  0  0  0  0  0  0
  185.6540  177.9490  140.0600 C   0  0  0  0  0  3  0  0  0  0  0  0
  185.8680  178.3270  141.3190 C   0  0  0  0  0  3  0  0  0  0  0  0
  187.7150  176.5850  141.5470 C   0  0  0  0  0  0  0  0  0  0  0  0
  184.3150  177.6520  146.4750 C   0  0  0  0  0  3  0  0  0  0  0  0
  186.6880  178.0430  145.0390 C   0  0  0  0  0  0  0  0  0  0  0  0
  186.4230  176.8040  145.6410 C   0  0  0  0  0  3  0  0  0  0  0  0
  185.2390  176.6100  146.3590 C   0  0  0  0  0  3  0  0  0  0  0  0
  184.5710  178.8860  145.8710 C   0  0  0  0  0  3  0  0  0  0  0  0
  185.7550  179.0800  145.1530 C   0  0  0  0  0  3  0  0  0  0  0  0
  1 12  1  0  0  0  0
  2  6  2  0  0  0  0
  3 16  1  0  0  0  0
  6 18  1  0  0  0  0
  7  9  1  0  0  0  0
  7 11  1  0  0  0  0
  8 19  1  0  0  0  0
  8 17  1  0  0  0  0
  9 13  2  0  0  0  0
 10  8  2  0  0  0  0
 11 14  1  0  0  0  0
 12  2  1  0  0  0  0
 12 23  1  6  0  0  0
 13  5  1  0  0  0  0
 13  4  1  0  0  0  0
 14  4  2  0  0  0  0
 14 18  1  0  0  0  0
 15 20  1  6  0  0  0
 15  1  1  0  0  0  0
 16 11  2  0  0  0  0
 16  2  1  0  0  0  0
 17 21  2  0  0  0  0
 19 20  2  0  0  0  0
 21 15  1  0  0  0  0
 21  3  1  0  0  0  0
 23 27  2  0  0  0  0
 23 24  1  0  0  0  0
 24 25  2  0  0  0  0
 25 22  1  0  0  0  0
 26 22  2  0  0  0  0
 27 26  1  0  0  0  0
M  END
>  <MODEL>
4

>  <REMARK>
 VINA RESULT:      -8.0      3.083      7.328
  Name = 
  1 active torsions:
  status: ('A' for Active; 'I' for Inactive)
    1  A    between atoms: C_9  and  C_15
                            x       y       z     vdW  Elec       q    Type
                         _______ _______ _______ _____ _____    ______ ____

>  <TORSDO>
F 1

$$$$
=
 OpenBabel11052418253D

 27 31  0  0  1  0  0  0  0  0999 V2000
  189.0790  177.7200  143.4670 N   0  0  0  0  0  2  0  0  0  0  0  0
  190.2340  175.7020  142.5660 C   0  0  0  0  0  0  0  0  0  0  0  0
  187.7340  175.6090  141.8280 N   0  0  0  0  0  0  0  0  0  0  0  0
  191.0160  172.6920  139.8280 C   0  0  0  0  0  3  0  0  0  0  0  0
  190.2770  170.9990  138.2340 F   0  0  0  0  0  0  0  0  0  0  0  0
  191.4810  175.2630  142.3520 C   0  0  0  0  0  3  0  0  0  0  0  0
  188.2410  173.5630  140.0220 C   0  0  0  0  0  2  0  0  0  0  0  0
  185.0780  177.8730  143.1580 C   0  0  0  0  0  0  0  0  0  0  0  0
  188.6820  172.4160  139.1510 C   0  0  0  0  0  3  0  0  0  0  0  0
  183.8790  178.1330  142.8810 O   0  0  0  0  0  0  0  0  0  0  0  0
  189.3470  174.1440  140.8750 C   0  0  0  0  0  0  0  0  0  0  0  0
  190.1050  176.7040  143.6790 C   0  0  2  0  0  3  0  0  0  0  0  0
  189.9570  172.0300  139.0510 C   0  0  0  0  0  0  0  0  0  0  0  0
  190.7370  173.6740  140.6820 C   0  0  0  0  0  0  0  0  0  0  0  0
  187.7850  177.1840  143.8480 C   0  0  1  0  0  3  0  0  0  0  0  0
  189.0910  175.1260  141.7660 C   0  0  0  0  0  0  0  0  0  0  0  0
  185.8270  176.8990  142.3570 C   0  0  0  0  0  2  0  0  0  0  0  0
  191.7620  174.2720  141.4100 O   0  0  0  0  0  0  0  0  0  0  0  0
  185.7410  178.5510  144.2730 C   0  0  0  0  0  3  0  0  0  0  0  0
  187.0000  178.2450  144.5840 C   0  0  0  0  0  3  0  0  0  0  0  0
  187.0960  176.5930  142.6450 C   0  0  0  0  0  0  0  0  0  0  0  0
  190.1940  175.1170  147.6860 C   0  0  0  0  0  3  0  0  0  0  0  0
  190.1400  176.1240  145.0720 C   0  0  0  0  0  0  0  0  0  0  0  0
  189.4350  174.9540  145.3930 C   0  0  0  0  0  3  0  0  0  0  0  0
  189.4640  174.4510  146.6970 C   0  0  0  0  0  3  0  0  0  0  0  0
  190.8910  176.2870  147.3720 C   0  0  0  0  0  3  0  0  0  0  0  0
  190.8620  176.7900  146.0680 C   0  0  0  0  0  3  0  0  0  0  0  0
  1 12  1  0  0  0  0
  1 15  1  0  0  0  0
  2 12  1  0  0  0  0
  3 21  2  0  0  0  0
  4 14  2  0  0  0  0
  5 13  1  0  0  0  0
  6  2  2  0  0  0  0
  7 11  1  0  0  0  0
  8 19  1  0  0  0  0
  9  7  1  0  0  0  0
 10  8  2  0  0  0  0
 11 16  2  0  0  0  0
 12 23  1  1  0  0  0
 13  9  2  0  0  0  0
 13  4  1  0  0  0  0
 14 11  1  0  0  0  0
 14 18  1  0  0  0  0
 15 20  1  6  0  0  0
 16  3  1  0  0  0  0
 16  2  1  0  0  0  0
 17 21  1  0  0  0  0
 17  8  1  0  0  0  0
 18  6  1  0  0  0  0
 19 20  2  0  0  0  0
 21 15  1  0  0  0  0
 23 24  2  0  0  0  0
 23 27  1  0  0  0  0
 24 25  1  0  0  0  0
 25 22  2  0  0  0  0
 26 22  1  0  0  0  0
 27 26  2  0  0  0  0
M  END
>  <MODEL>
5

>  <REMARK>
 VINA RESULT:      -7.8      3.272      6.412
  Name = 
  1 active torsions:
  status: ('A' for Active; 'I' for Inactive)
    1  A    between atoms: C_9  and  C_15
                            x       y       z     vdW  Elec       q    Type
                         _______ _______ _______ _____ _____    ______ ____

>  <TORSDO>
F 1

$$$$
=
 OpenBabel11052418253D

 27 31  0  0  1  0  0  0  0  0999 V2000
  190.5380  173.1480  144.1530 N   0  0  0  0  0  2  0  0  0  0  0  0
  189.5430  174.8860  145.6380 C   0  0  0  0  0  0  0  0  0  0  0  0
  188.7900  175.3780  143.1900 N   0  0  0  0  0  2  0  0  0  0  0  0
  186.6610  177.5730  146.9220 C   0  0  0  0  0  3  0  0  0  0  0  0
  184.9830  179.2880  146.4830 F   0  0  0  0  0  0  0  0  0  0  0  0
  189.3120  175.0890  146.9420 C   0  0  0  0  0  3  0  0  0  0  0  0
  186.8870  177.2110  144.0380 C   0  0  0  0  0  2  0  0  0  0  0  0
  190.2210  173.6820  140.1850 C   0  0  0  0  0  0  0  0  0  0  0  0
  185.9630  178.2190  144.6690 C   0  0  0  0  0  3  0  0  0  0  0  0
  189.9520  173.6210  138.9580 O   0  0  0  0  0  0  0  0  0  0  0  0
  187.7720  176.4890  145.0300 C   0  0  0  0  0  0  0  0  0  0  0  0
  190.7040  173.9780  145.3410 C   0  0  2  0  0  3  0  0  0  0  0  0
  185.8480  178.3710  145.9910 C   0  0  0  0  0  0  0  0  0  0  0  0
  187.5620  176.6980  146.4790 C   0  0  0  0  0  0  0  0  0  0  0  0
  190.8860  173.9190  142.9740 C   0  0  1  0  0  3  0  0  0  0  0  0
  188.7110  175.6130  144.6100 C   0  0  0  0  0  0  0  0  0  0  0  0
  189.3760  174.4680  141.0890 C   0  0  0  0  0  3  0  0  0  0  0  0
  188.3230  175.9670  147.3870 O   0  0  0  0  0  0  0  0  0  0  0  0
  191.3700  172.9530  140.7250 C   0  0  0  0  0  3  0  0  0  0  0  0
  191.6710  173.0500  142.0190 C   0  0  0  0  0  3  0  0  0  0  0  0
  189.6530  174.5620  142.3930 C   0  0  0  0  0  0  0  0  0  0  0  0
  194.5670  175.8350  145.7950 C   0  0  0  0  0  3  0  0  0  0  0  0
  192.0660  174.6110  145.4830 C   0  0  0  0  0  0  0  0  0  0  0  0
  193.2180  173.8300  145.6590 C   0  0  0  0  0  3  0  0  0  0  0  0
  194.4660  174.4410  145.8120 C   0  0  0  0  0  3  0  0  0  0  0  0
  193.4210  176.6180  145.6280 C   0  0  0  0  0  3  0  0  0  0  0  0
  192.1730  176.0060  145.4750 C   0  0  0  0  0  3  0  0  0  0  0  0
  1 12  1  0  0  0  0
  2  6  2  0  0  0  0
  3 16  1  0  0  0  0
  6 18  1  0  0  0  0
  7  9  1  0  0  0  0
  7 11  1  0  0  0  0
  8 19  1  0  0  0  0
  8 17  1  0  0  0  0
  9 13  2  0  0  0  0
 10  8  2  0  0  0  0
 11 14  1  0  0  0  0
 12 23  1  6  0  0  0
 12  2  1  0  0  0  0
 13  5  1  0  0  0  0
 13  4  1  0  0  0  0
 14  4  2  0  0  0  0
 14 18  1  0  0  0  0
 15 20  1  6  0  0  0
 15  1  1  0  0  0  0
 16 11  2  0  0  0  0
 16  2  1  0  0  0  0
 17 21  2  0  0  0  0
 19 20  2  0  0  0  0
 21 15  1  0  0  0  0
 21  3  1  0  0  0  0
 22 25  1  0  0  0  0
 23 24  1  0  0  0  0
 24 25  2  0  0  0  0
 26 22  2  0  0  0  0
 27 23  2  0  0  0  0
 27 26  1  0  0  0  0
M  END
>  <MODEL>
6

>  <REMARK>
 VINA RESULT:      -7.8      2.377      5.134
  Name = 
  1 active torsions:
  status: ('A' for Active; 'I' for Inactive)
    1  A    between atoms: C_9  and  C_15
                            x       y       z     vdW  Elec       q    Type
                         _______ _______ _______ _____ _____    ______ ____

>  <TORSDO>
F 1

$$$$
=
 OpenBabel11052418253D

 27 31  0  0  1  0  0  0  0  0999 V2000
  190.4380  176.5380  142.6780 N   0  0  0  0  0  2  0  0  0  0  0  0
  192.1380  176.1350  144.4560 C   0  0  0  0  0  0  0  0  0  0  0  0
  192.0390  174.0230  142.9300 N   0  0  0  0  0  2  0  0  0  0  0  0
  195.6500  174.6400  146.0690 C   0  0  0  0  0  3  0  0  0  0  0  0
  197.2980  172.8610  146.3390 F   0  0  0  0  0  0  0  0  0  0  0  0
  192.8430  176.8330  145.3570 C   0  0  0  0  0  3  0  0  0  0  0  0
  194.3670  172.9930  144.0350 C   0  0  0  0  0  2  0  0  0  0  0  0
  189.4040  173.4340  140.3480 C   0  0  0  0  0  0  0  0  0  0  0  0
  195.5930  172.5550  144.7920 C   0  0  0  0  0  3  0  0  0  0  0  0
  189.2090  172.6130  139.4150 O   0  0  0  0  0  0  0  0  0  0  0  0
  193.7940  174.3100  144.5080 C   0  0  0  0  0  0  0  0  0  0  0  0
  190.8270  176.7590  144.0670 C   0  0  2  0  0  3  0  0  0  0  0  0
  196.1880  173.3180  145.7120 C   0  0  0  0  0  0  0  0  0  0  0  0
  194.5320  175.1050  145.5150 C   0  0  0  0  0  0  0  0  0  0  0  0
  189.8120  175.2340  142.5560 C   0  0  1  0  0  3  0  0  0  0  0  0
  192.6500  174.7970  143.9810 C   0  0  0  0  0  0  0  0  0  0  0  0
  190.6200  173.3520  141.1630 C   0  0  0  0  0  3  0  0  0  0  0  0
  194.0430  176.3550  145.8840 O   0  0  0  0  0  0  0  0  0  0  0  0
  188.4270  174.4900  140.6190 C   0  0  0  0  0  3  0  0  0  0  0  0
  188.6210  175.3330  141.6310 C   0  0  0  0  0  3  0  0  0  0  0  0
  190.8400  174.2010  142.1720 C   0  0  0  0  0  0  0  0  0  0  0  0
  187.5930  176.2890  146.8770 C   0  0  0  0  0  3  0  0  0  0  0  0
  189.7120  176.5900  145.0700 C   0  0  0  0  0  0  0  0  0  0  0  0
  189.7020  175.5170  145.9740 C   0  0  0  0  0  3  0  0  0  0  0  0
  188.6450  175.3690  146.8770 C   0  0  0  0  0  3  0  0  0  0  0  0
  187.5960  177.3550  145.9730 C   0  0  0  0  0  3  0  0  0  0  0  0
  188.6530  177.5030  145.0700 C   0  0  0  0  0  3  0  0  0  0  0  0
  1 12  1  0  0  0  0
  2  6  2  0  0  0  0
  3 16  1  0  0  0  0
  6 18  1  0  0  0  0
  7 11  1  0  0  0  0
  7  9  1  0  0  0  0
  8 19  1  0  0  0  0
  8 17  1  0  0  0  0
  9 13  2  0  0  0  0
 10  8  2  0  0  0  0
 11 14  1  0  0  0  0
 12  2  1  0  0  0  0
 12 23  1  1  0  0  0
 13  4  1  0  0  0  0
 13  5  1  0  0  0  0
 14 18  1  0  0  0  0
 14  4  2  0  0  0  0
 15 20  1  6  0  0  0
 15  1  1  0  0  0  0
 16  2  1  0  0  0  0
 16 11  2  0  0  0  0
 17 21  2  0  0  0  0
 19 20  2  0  0  0  0
 21 15  1  0  0  0  0
 21  3  1  0  0  0  0
 22 25  1  0  0  0  0
 23 27  2  0  0  0  0
 23 24  1  0  0  0  0
 24 25  2  0  0  0  0
 26 22  2  0  0  0  0
 27 26  1  0  0  0  0
M  END
>  <MODEL>
7

>  <REMARK>
 VINA RESULT:      -7.4      4.148      7.984
  Name = 
  1 active torsions:
  status: ('A' for Active; 'I' for Inactive)
    1  A    between atoms: C_9  and  C_15
                            x       y       z     vdW  Elec       q    Type
                         _______ _______ _______ _____ _____    ______ ____

>  <TORSDO>
F 1

$$$$
=
 OpenBabel11052418253D

 27 31  0  0  1  0  0  0  0  0999 V2000
  190.0440  173.4630  145.2780 N   0  0  0  0  0  2  0  0  0  0  0  0
  189.0260  175.6820  144.7760 C   0  0  0  0  0  0  0  0  0  0  0  0
  189.0390  174.2760  142.5800 N   0  0  0  0  0  2  0  0  0  0  0  0
  186.4430  178.3300  142.9080 C   0  0  0  0  0  3  0  0  0  0  0  0
  185.2740  179.1480  140.9290 F   0  0  0  0  0  0  0  0  0  0  0  0
  188.5040  176.7270  145.4330 C   0  0  0  0  0  3  0  0  0  0  0  0
  187.3440  176.0660  141.3060 C   0  0  0  0  0  2  0  0  0  0  0  0
  190.8740  171.0470  142.1780 C   0  0  0  0  0  0  0  0  0  0  0  0
  186.4840  177.1730  140.7540 C   0  0  0  0  0  3  0  0  0  0  0  0
  190.9280  170.1300  141.3190 O   0  0  0  0  0  0  0  0  0  0  0  0
  187.7950  176.2970  142.7310 C   0  0  0  0  0  0  0  0  0  0  0  0
  190.0410  174.8950  145.5560 C   0  0  2  0  0  3  0  0  0  0  0  0
  186.0580  178.1990  141.4940 C   0  0  0  0  0  0  0  0  0  0  0  0
  187.2550  177.4480  143.4880 C   0  0  0  0  0  0  0  0  0  0  0  0
  190.8210  173.2070  144.0790 C   0  0  1  0  0  3  0  0  0  0  0  0
  188.6360  175.4330  143.3400 C   0  0  0  0  0  0  0  0  0  0  0  0
  189.9780  172.1920  141.9820 C   0  0  0  0  0  3  0  0  0  0  0  0
  187.6080  177.6070  144.8250 O   0  0  0  0  0  0  0  0  0  0  0  0
  191.6920  170.9730  143.3900 C   0  0  0  0  0  3  0  0  0  0  0  0
  191.6570  171.9640  144.2780 C   0  0  0  0  0  3  0  0  0  0  0  0
  189.9180  173.1870  142.8720 C   0  0  0  0  0  0  0  0  0  0  0  0
  193.9240  176.7520  145.7890 C   0  0  0  0  0  3  0  0  0  0  0  0
  191.4110  175.5230  145.6460 C   0  0  0  0  0  0  0  0  0  0  0  0
  192.2380  175.3120  146.7590 C   0  0  0  0  0  3  0  0  0  0  0  0
  193.4930  175.9240  146.8290 C   0  0  0  0  0  3  0  0  0  0  0  0
  193.1000  176.9720  144.6820 C   0  0  0  0  0  3  0  0  0  0  0  0
  191.8450  176.3590  144.6120 C   0  0  0  0  0  3  0  0  0  0  0  0
  1 12  1  0  0  0  0
  2  6  2  0  0  0  0
  2 12  1  0  0  0  0
  3 21  1  0  0  0  0
  3 16  1  0  0  0  0
  4 14  2  0  0  0  0
  5 13  1  0  0  0  0
  7 11  1  0  0  0  0
  8 19  1  0  0  0  0
  9  7  1  0  0  0  0
  9 13  2  0  0  0  0
 10  8  2  0  0  0  0
 11 16  2  0  0  0  0
 11 14  1  0  0  0  0
 12 23  1  6  0  0  0
 13  4  1  0  0  0  0
 14 18  1  0  0  0  0
 15 20  1  1  0  0  0
 15  1  1  0  0  0  0
 16  2  1  0  0  0  0
 17  8  1  0  0  0  0
 17 21  2  0  0  0  0
 18  6  1  0  0  0  0
 19 20  2  0  0  0  0
 21 15  1  0  0  0  0
 22 25  1  0  0  0  0
 23 24  1  0  0  0  0
 24 25  2  0  0  0  0
 26 22  2  0  0  0  0
 27 26  1  0  0  0  0
 27 23  2  0  0  0  0
M  END
>  <MODEL>
8

>  <REMARK>
 VINA RESULT:      -7.1      2.601      4.912
  Name = 
  1 active torsions:
  status: ('A' for Active; 'I' for Inactive)
    1  A    between atoms: C_9  and  C_15
                            x       y       z     vdW  Elec       q    Type
                         _______ _______ _______ _____ _____    ______ ____

>  <TORSDO>
F 1

$$$$
=
 OpenBabel11052418253D

 27 31  0  0  1  0  0  0  0  0999 V2000
  192.0610  173.8040  145.3390 N   0  0  0  0  0  2  0  0  0  0  0  0
  190.5160  173.1510  143.4940 C   0  0  0  0  0  0  0  0  0  0  0  0
  192.4830  174.5200  142.4640 N   0  0  0  0  0  0  0  0  0  0  0  0
  189.4780  172.0040  139.6500 C   0  0  0  0  0  3  0  0  0  0  0  0
  189.7140  172.1660  137.2270 F   0  0  0  0  0  0  0  0  0  0  0  0
  189.5160  172.2880  143.2720 C   0  0  0  0  0  3  0  0  0  0  0  0
  191.7690  173.7910  139.8830 C   0  0  0  0  0  2  0  0  0  0  0  0
  194.9890  176.4160  144.4830 C   0  0  0  0  0  0  0  0  0  0  0  0
  191.1990  173.3560  138.5590 C   0  0  0  0  0  3  0  0  0  0  0  0
  196.0750  177.0110  144.2620 O   0  0  0  0  0  0  0  0  0  0  0  0
  190.9740  173.3130  141.0780 C   0  0  0  0  0  0  0  0  0  0  0  0
  190.6810  173.5620  144.9310 C   0  0  2  0  0  3  0  0  0  0  0  0
  190.1600  172.5240  138.4550 C   0  0  0  0  0  0  0  0  0  0  0  0
  189.8510  172.3720  140.8740 C   0  0  0  0  0  0  0  0  0  0  0  0
  192.4490  175.1470  144.9490 C   0  0  1  0  0  3  0  0  0  0  0  0
  191.3140  173.6870  142.3310 C   0  0  0  0  0  0  0  0  0  0  0  0
  194.2800  175.7420  143.3900 C   0  0  0  0  0  2  0  0  0  0  0  0
  189.1770  171.8690  141.9840 O   0  0  0  0  0  0  0  0  0  0  0  0
  194.4310  176.3760  145.8350 C   0  0  0  0  0  3  0  0  0  0  0  0
  193.2620  175.7760  146.0560 C   0  0  0  0  0  3  0  0  0  0  0  0
  193.1150  175.1210  143.5970 C   0  0  0  0  0  0  0  0  0  0  0  0
  187.8870  176.4950  146.4020 C   0  0  0  0  0  3  0  0  0  0  0  0
  189.6880  174.5850  145.4250 C   0  0  0  0  0  0  0  0  0  0  0  0
  189.1580  175.5600  144.5670 C   0  0  0  0  0  3  0  0  0  0  0  0
  188.2570  176.5120  145.0550 C   0  0  0  0  0  3  0  0  0  0  0  0
  188.4190  175.5310  147.2630 C   0  0  0  0  0  3  0  0  0  0  0  0
  189.3190  174.5790  146.7750 C   0  0  0  0  0  3  0  0  0  0  0  0
  2 12  1  0  0  0  0
  3 21  2  0  0  0  0
  4 14  2  0  0  0  0
  5 13  1  0  0  0  0
  6  2  2  0  0  0  0
  7 11  1  0  0  0  0
  8 19  1  0  0  0  0
  9  7  1  0  0  0  0
 10  8  2  0  0  0  0
 11 16  2  0  0  0  0
 12  1  1  0  0  0  0
 12 23  1  6  0  0  0
 13  9  2  0  0  0  0
 13  4  1  0  0  0  0
 14 11  1  0  0  0  0
 14 18  1  0  0  0  0
 15  1  1  0  0  0  0
 15 20  1  1  0  0  0
 16  3  1  0  0  0  0
 16  2  1  0  0  0  0
 17 21  1  0  0  0  0
 17  8  1  0  0  0  0
 18  6  1  0  0  0  0
 19 20  2  0  0  0  0
 21 15  1  0  0  0  0
 22 26  1  0  0  0  0
 23 27  1  0  0  0  0
 24 25  1  0  0  0  0
 24 23  2  0  0  0  0
 25 22  2  0  0  0  0
 27 26  2  0  0  0  0
M  END
>  <MODEL>
9

>  <REMARK>
 VINA RESULT:      -7.0      3.921      6.324
  Name = 
  1 active torsions:
  status: ('A' for Active; 'I' for Inactive)
    1  A    between atoms: C_9  and  C_15
                            x       y       z     vdW  Elec       q    Type
                         _______ _______ _______ _____ _____    ______ ____

>  <TORSDO>
F 1

$$$$
