=
 OpenBabel11052421143D

 43 47  0  0  1  0  0  0  0  0999 V2000
  185.9350  177.6350  144.4790 C   0  0  0  0  0  0  0  0  0  0  0  0
  190.5650  176.2970  142.9140 C   0  0  0  0  0  0  0  0  0  0  0  0
  189.1370  174.5950  141.9180 C   0  0  0  0  0  3  0  0  0  0  0  0
  188.3220  177.5340  144.0770 C   0  0  0  0  0  0  0  0  0  0  0  0
  185.7520  176.4880  143.7040 C   0  0  0  0  0  3  0  0  0  0  0  0
  184.8150  178.2740  145.0790 N   0  0  0  0  0  1  0  0  0  0  0  0
  188.1470  176.3700  143.2900 C   0  0  0  0  0  0  0  0  0  0  0  0
  187.2170  178.1570  144.6650 C   0  0  0  0  0  3  0  0  0  0  0  0
  186.8500  175.8580  143.1120 C   0  0  0  0  0  3  0  0  0  0  0  0
  190.2540  173.9890  141.3430 C   0  0  0  0  0  0  0  0  0  0  0  0
  189.2730  175.7500  142.7050 C   0  0  0  0  0  0  0  0  0  0  0  0
  190.7080  177.4520  143.6960 C   0  0  0  0  0  3  0  0  0  0  0  0
  191.6970  175.6790  142.3460 C   0  0  0  0  0  0  0  0  0  0  0  0
  191.5250  174.5330  141.5610 C   0  0  0  0  0  3  0  0  0  0  0  0
  189.5960  178.0650  144.2730 C   0  0  0  0  0  3  0  0  0  0  0  0
  190.0780  172.7420  140.5390 C   0  0  1  0  0  3  0  0  0  0  0  0
  189.9450  173.0610  139.0600 C   0  0  0  0  0  1  0  0  0  0  0  0
  191.2140  171.8500  140.7550 N   0  0  0  0  0  2  0  0  0  0  0  0
  190.7260  169.5950  141.1350 O   0  0  0  0  0  1  0  0  0  0  0  0
  190.8910  170.8330  141.7640 C   0  0  0  0  0  0  0  0  0  0  0  0
  189.7060  171.1810  142.4200 O   0  0  0  0  0  1  0  0  0  0  0  0
  191.9760  170.7280  142.7590 N   0  0  0  0  0  0  0  0  0  0  0  0
  190.8930  172.4600  144.1880 N   0  0  0  0  0  2  0  0  0  0  0  0
  192.0090  171.6010  143.9050 C   0  0  0  0  0  0  0  0  0  0  0  0
  193.0110  171.5910  144.6720 O   0  0  0  0  0  0  0  0  0  0  0  0
  190.8250  173.4700  145.2040 C   0  0  0  0  0  0  0  0  0  0  0  0
  189.4630  174.8210  146.6910 C   0  0  0  0  0  3  0  0  0  0  0  0
  191.8600  175.1440  146.6290 C   0  0  0  0  0  3  0  0  0  0  0  0
  190.6080  175.4820  147.1460 C   0  0  0  0  0  3  0  0  0  0  0  0
  191.9680  174.1420  145.6600 C   0  0  0  0  0  3  0  0  0  0  0  0
  189.5720  173.8220  145.7200 C   0  0  0  0  0  3  0  0  0  0  0  0
  193.0550  169.7510  142.5950 C   0  0  0  0  0  2  0  0  0  0  0  0
  195.4860  170.3120  142.5160 C   0  0  0  0  0  1  0  0  0  0  0  0
  194.1800  170.3250  141.7470 C   0  0  0  0  0  2  0  0  0  0  0  0
  193.0020  176.2530  142.5430 N   0  0  0  0  0  2  0  0  0  0  0  0
  196.0580  174.0390  143.4140 C   0  0  0  0  0  2  0  0  0  0  0  0
  195.9690  174.2680  144.9160 C   0  0  2  0  0  3  0  0  0  0  0  0
  194.5150  176.2420  144.3710 C   0  0  0  0  0  3  0  0  0  0  0  0
  194.7070  174.3480  142.7740 C   0  0  0  0  0  2  0  0  0  0  0  0
  194.1210  175.6700  143.2270 C   0  0  0  0  0  0  0  0  0  0  0  0
  195.6800  175.7450  145.1830 C   0  0  0  0  0  2  0  0  0  0  0  0
  197.2470  173.4930  146.7580 O   0  0  0  0  0  0  0  0  0  0  0  0
  197.2400  173.8510  145.5900 C   0  0  0  0  0  3  0  0  0  0  0  0
  1  8  1  0  0  0  0
  1  6  1  0  0  0  0
  2 12  1  0  0  0  0
  3 11  2  0  0  0  0
  4 15  1  0  0  0  0
  4  8  2  0  0  0  0
  5  1  2  0  0  0  0
  7  4  1  0  0  0  0
  9  7  2  0  0  0  0
  9  5  1  0  0  0  0
 10 14  2  0  0  0  0
 10  3  1  0  0  0  0
 11  2  1  0  0  0  0
 11  7  1  0  0  0  0
 12 15  2  0  0  0  0
 13 35  1  0  0  0  0
 13  2  2  0  0  0  0
 14 13  1  0  0  0  0
 16 17  1  6  0  0  0
 16 18  1  0  0  0  0
 16 10  1  0  0  0  0
 18 20  1  0  0  0  0
 19 20  1  0  0  0  0
 20 21  1  0  0  0  0
 20 22  1  0  0  0  0
 22 24  1  0  0  0  0
 23 26  1  0  0  0  0
 24 23  1  0  0  0  0
 24 25  2  0  0  0  0
 26 30  2  0  0  0  0
 26 31  1  0  0  0  0
 27 29  1  0  0  0  0
 28 29  2  0  0  0  0
 30 28  1  0  0  0  0
 31 27  2  0  0  0  0
 32 22  1  0  0  0  0
 34 33  1  0  0  0  0
 34 32  1  0  0  0  0
 35 40  1  0  0  0  0
 36 37  1  0  0  0  0
 37 41  1  0  0  0  0
 37 43  1  1  0  0  0
 38 41  1  0  0  0  0
 39 40  1  0  0  0  0
 39 36  1  0  0  0  0
 40 38  2  0  0  0  0
 43 42  2  0  0  0  0
M  END
>  <MODEL>
1

>  <REMARK>
 VINA RESULT:      -7.1      0.000      0.000
  Name = 
  10 active torsions:
  status: ('A' for Active; 'I' for Inactive)
    1  A    between atoms: N_1  and  C_34
    2  A    between atoms: N_1  and  C_35
    3  A    between atoms: C_2  and  N_6
    4  A    between atoms: C_2  and  C_27
    5  A    between atoms: N_4  and  C_12
    6  A    between atoms: N_4  and  C_15
    7  A    between atoms: N_6  and  C_12
    8  A    between atoms: C_11  and  N_14
    9  A    between atoms: C_15  and  C_42
   10  A    between atoms: C_19  and  C_37
                            x       y       z     vdW  Elec       q    Type
                         _______ _______ _______ _____ _____    ______ ____

>  <TORSDO>
F 10

$$$$
=
 OpenBabel11052421143D

 43 47  0  0  1  0  0  0  0  0999 V2000
  195.9110  173.7310  145.7530 C   0  0  0  0  0  0  0  0  0  0  0  0
  191.5060  175.7960  144.3370 C   0  0  0  0  0  0  0  0  0  0  0  0
  191.4730  173.6250  143.2340 C   0  0  0  0  0  3  0  0  0  0  0  0
  194.0220  175.2180  145.4530 C   0  0  0  0  0  0  0  0  0  0  0  0
  195.2980  172.7800  144.9340 C   0  0  0  0  0  3  0  0  0  0  0  0
  197.1860  173.4610  146.3240 N   0  0  0  0  0  1  0  0  0  0  0  0
  193.3920  174.2610  144.6220 C   0  0  0  0  0  0  0  0  0  0  0  0
  195.2750  174.9470  146.0120 C   0  0  0  0  0  3  0  0  0  0  0  0
  194.0450  173.0420  144.3720 C   0  0  0  0  0  3  0  0  0  0  0  0
  190.2240  173.9190  142.6870 C   0  0  0  0  0  0  0  0  0  0  0  0
  192.1280  174.5500  144.0630 C   0  0  0  0  0  0  0  0  0  0  0  0
  192.1530  176.7230  145.1670 C   0  0  0  0  0  3  0  0  0  0  0  0
  190.2510  176.1000  143.7740 C   0  0  0  0  0  0  0  0  0  0  0  0
  189.6220  175.1520  142.9580 C   0  0  0  0  0  3  0  0  0  0  0  0
  193.4000  176.4360  145.7200 C   0  0  0  0  0  3  0  0  0  0  0  0
  189.5700  172.9250  141.7820 C   0  0  1  0  0  3  0  0  0  0  0  0
  188.1230  172.6950  142.1800 C   0  0  0  0  0  1  0  0  0  0  0  0
  189.6370  173.3950  140.4010 N   0  0  0  0  0  2  0  0  0  0  0  0
  189.2680  171.6420  138.8980 O   0  0  0  0  0  1  0  0  0  0  0  0
  190.2640  172.3850  139.5390 C   0  0  0  0  0  0  0  0  0  0  0  0
  191.0530  171.5280  140.3140 O   0  0  0  0  0  1  0  0  0  0  0  0
  191.1160  173.0290  138.5210 N   0  0  0  0  0  0  0  0  0  0  0  0
  192.8430  173.5620  140.2380 N   0  0  0  0  0  2  0  0  0  0  0  0
  192.3430  173.6840  138.8970 C   0  0  0  0  0  0  0  0  0  0  0  0
  192.9900  174.3450  138.0380 O   0  0  0  0  0  0  0  0  0  0  0  0
  193.9690  174.2500  140.8000 C   0  0  0  0  0  0  0  0  0  0  0  0
  196.2750  174.1750  141.5540 C   0  0  0  0  0  3  0  0  0  0  0  0
  194.9990  176.2190  141.7830 C   0  0  0  0  0  3  0  0  0  0  0  0
  196.1920  175.5130  141.9540 C   0  0  0  0  0  3  0  0  0  0  0  0
  193.8900  175.5890  141.2090 C   0  0  0  0  0  3  0  0  0  0  0  0
  195.1650  173.5460  140.9840 C   0  0  0  0  0  3  0  0  0  0  0  0
  190.7250  173.0380  137.1090 C   0  0  0  0  0  2  0  0  0  0  0  0
  189.5070  174.3020  135.3340 C   0  0  0  0  0  1  0  0  0  0  0  0
  189.7580  174.1780  136.8240 C   0  0  0  0  0  2  0  0  0  0  0  0
  189.6140  177.3550  144.0760 N   0  0  0  0  0  2  0  0  0  0  0  0
  186.8530  177.7030  146.7700 C   0  0  0  0  0  2  0  0  0  0  0  0
  185.6940  177.4770  145.8080 C   0  0  2  0  0  3  0  0  0  0  0  0
  187.3280  177.9830  143.9680 C   0  0  0  0  0  3  0  0  0  0  0  0
  188.1330  177.1370  146.1610 C   0  0  0  0  0  2  0  0  0  0  0  0
  188.3500  177.5620  144.7230 C   0  0  0  0  0  0  0  0  0  0  0  0
  185.9540  178.2540  144.5180 C   0  0  0  0  0  2  0  0  0  0  0  0
  183.7570  178.8360  145.9680 O   0  0  0  0  0  0  0  0  0  0  0  0
  184.4010  177.9060  146.4290 C   0  0  0  0  0  3  0  0  0  0  0  0
  1  8  1  0  0  0  0
  1  6  1  0  0  0  0
  2 12  1  0  0  0  0
  3 11  2  0  0  0  0
  4 15  1  0  0  0  0
  4  8  2  0  0  0  0
  5  1  2  0  0  0  0
  7  4  1  0  0  0  0
  9  7  2  0  0  0  0
  9  5  1  0  0  0  0
 10 14  2  0  0  0  0
 10  3  1  0  0  0  0
 11  2  1  0  0  0  0
 11  7  1  0  0  0  0
 12 15  2  0  0  0  0
 13 35  1  0  0  0  0
 13  2  2  0  0  0  0
 14 13  1  0  0  0  0
 16 17  1  1  0  0  0
 16 10  1  0  0  0  0
 18 16  1  0  0  0  0
 19 20  1  0  0  0  0
 20 21  1  0  0  0  0
 20 18  1  0  0  0  0
 22 24  1  0  0  0  0
 22 20  1  0  0  0  0
 23 26  1  0  0  0  0
 24 23  1  0  0  0  0
 25 24  2  0  0  0  0
 26 31  2  0  0  0  0
 26 30  1  0  0  0  0
 27 29  2  0  0  0  0
 28 29  1  0  0  0  0
 30 28  2  0  0  0  0
 31 27  1  0  0  0  0
 32 22  1  0  0  0  0
 33 34  1  0  0  0  0
 34 32  1  0  0  0  0
 35 40  1  0  0  0  0
 37 43  1  1  0  0  0
 37 36  1  0  0  0  0
 38 41  1  0  0  0  0
 38 40  2  0  0  0  0
 39 36  1  0  0  0  0
 40 39  1  0  0  0  0
 41 37  1  0  0  0  0
 42 43  2  0  0  0  0
M  END
>  <MODEL>
2

>  <REMARK>
 VINA RESULT:      -6.9      2.850      7.181
  Name = 
  10 active torsions:
  status: ('A' for Active; 'I' for Inactive)
    1  A    between atoms: N_1  and  C_34
    2  A    between atoms: N_1  and  C_35
    3  A    between atoms: C_2  and  N_6
    4  A    between atoms: C_2  and  C_27
    5  A    between atoms: N_4  and  C_12
    6  A    between atoms: N_4  and  C_15
    7  A    between atoms: N_6  and  C_12
    8  A    between atoms: C_11  and  N_14
    9  A    between atoms: C_15  and  C_42
   10  A    between atoms: C_19  and  C_37
                            x       y       z     vdW  Elec       q    Type
                         _______ _______ _______ _____ _____    ______ ____

>  <TORSDO>
F 10

$$$$
=
 OpenBabel11052421143D

 43 47  0  0  1  0  0  0  0  0999 V2000
  185.7160  177.8890  146.8690 C   0  0  0  0  0  0  0  0  0  0  0  0
  190.3540  176.1140  145.8610 C   0  0  0  0  0  0  0  0  0  0  0  0
  188.9190  174.7120  144.4810 C   0  0  0  0  0  3  0  0  0  0  0  0
  188.1090  177.5170  146.8130 C   0  0  0  0  0  0  0  0  0  0  0  0
  185.5290  176.8530  145.9510 C   0  0  0  0  0  3  0  0  0  0  0  0
  184.5940  178.6090  147.3650 N   0  0  0  0  0  1  0  0  0  0  0  0
  187.9310  176.4650  145.8830 C   0  0  0  0  0  0  0  0  0  0  0  0
  187.0030  178.2210  147.2980 C   0  0  0  0  0  3  0  0  0  0  0  0
  186.6290  176.1440  145.4600 C   0  0  0  0  0  3  0  0  0  0  0  0
  190.0370  174.0230  144.0130 C   0  0  0  0  0  0  0  0  0  0  0  0
  189.0570  175.7610  145.4040 C   0  0  0  0  0  0  0  0  0  0  0  0
  190.5000  177.1630  146.7800 C   0  0  0  0  0  3  0  0  0  0  0  0
  191.4840  175.4110  145.4000 C   0  0  0  0  0  0  0  0  0  0  0  0
  191.3100  174.3740  144.4740 C   0  0  0  0  0  3  0  0  0  0  0  0
  189.3870  177.8590  147.2510 C   0  0  0  0  0  3  0  0  0  0  0  0
  189.8510  172.8890  143.0570 C   0  0  1  0  0  3  0  0  0  0  0  0
  189.3150  171.6590  143.7680 C   0  0  0  0  0  1  0  0  0  0  0  0
  188.9360  173.2860  141.9900 N   0  0  0  0  0  2  0  0  0  0  0  0
  189.7430  171.8970  140.2910 O   0  0  0  0  0  1  0  0  0  0  0  0
  189.6060  173.2320  140.6840 C   0  0  0  0  0  0  0  0  0  0  0  0
  190.8720  173.8180  140.7800 O   0  0  0  0  0  1  0  0  0  0  0  0
  188.8180  173.9560  139.6690 N   0  0  0  0  0  0  0  0  0  0  0  0
  188.2220  175.7220  141.3240 N   0  0  0  0  0  2  0  0  0  0  0  0
  188.0680  175.1350  140.0230 C   0  0  0  0  0  0  0  0  0  0  0  0
  187.2940  175.6630  139.1770 O   0  0  0  0  0  0  0  0  0  0  0  0
  187.4600  176.8070  141.8710 C   0  0  0  0  0  0  0  0  0  0  0  0
  187.4330  178.9390  143.0310 C   0  0  0  0  0  3  0  0  0  0  0  0
  185.3470  177.8640  142.4390 C   0  0  0  0  0  3  0  0  0  0  0  0
  186.0340  178.9330  143.0190 C   0  0  0  0  0  3  0  0  0  0  0  0
  186.0570  176.8040  141.8680 C   0  0  0  0  0  3  0  0  0  0  0  0
  188.1410  177.8770  142.4630 C   0  0  0  0  0  3  0  0  0  0  0  0
  188.7620  173.4840  138.2830 C   0  0  0  0  0  2  0  0  0  0  0  0
  189.6640  173.8960  135.9920 C   0  0  0  0  0  1  0  0  0  0  0  0
  189.9310  174.0320  137.4780 C   0  0  0  0  0  2  0  0  0  0  0  0
  192.7980  175.7900  145.8490 N   0  0  0  0  0  2  0  0  0  0  0  0
  196.3690  174.7640  144.7560 C   0  0  0  0  0  2  0  0  0  0  0  0
  196.6050  175.9920  143.8880 C   0  0  2  0  0  3  0  0  0  0  0  0
  194.1150  176.3180  143.9470 C   0  0  0  0  0  3  0  0  0  0  0  0
  195.2570  175.0590  145.7590 C   0  0  0  0  0  2  0  0  0  0  0  0
  194.0330  175.6890  145.1260 C   0  0  0  0  0  0  0  0  0  0  0  0
  195.3420  176.2830  143.0770 C   0  0  0  0  0  2  0  0  0  0  0  0
  197.6780  175.0920  141.9740 O   0  0  0  0  0  0  0  0  0  0  0  0
  197.7760  175.7790  142.9790 C   0  0  0  0  0  3  0  0  0  0  0  0
  1  8  1  0  0  0  0
  1  6  1  0  0  0  0
  2 12  1  0  0  0  0
  3 11  2  0  0  0  0
  4 15  1  0  0  0  0
  4  8  2  0  0  0  0
  5  1  2  0  0  0  0
  7  4  1  0  0  0  0
  9  7  2  0  0  0  0
  9  5  1  0  0  0  0
 10 14  2  0  0  0  0
 10  3  1  0  0  0  0
 11  2  1  0  0  0  0
 11  7  1  0  0  0  0
 12 15  2  0  0  0  0
 13 35  1  0  0  0  0
 13  2  2  0  0  0  0
 14 13  1  0  0  0  0
 16 17  1  1  0  0  0
 16 10  1  0  0  0  0
 18 16  1  0  0  0  0
 19 20  1  0  0  0  0
 20 21  1  0  0  0  0
 20 18  1  0  0  0  0
 22 24  1  0  0  0  0
 22 20  1  0  0  0  0
 23 26  1  0  0  0  0
 24 23  1  0  0  0  0
 25 24  2  0  0  0  0
 26 31  1  0  0  0  0
 28 29  2  0  0  0  0
 29 27  1  0  0  0  0
 30 26  2  0  0  0  0
 30 28  1  0  0  0  0
 31 27  2  0  0  0  0
 32 22  1  0  0  0  0
 33 34  1  0  0  0  0
 34 32  1  0  0  0  0
 36 39  1  0  0  0  0
 37 43  1  6  0  0  0
 37 36  1  0  0  0  0
 38 40  2  0  0  0  0
 40 39  1  0  0  0  0
 40 35  1  0  0  0  0
 41 37  1  0  0  0  0
 41 38  1  0  0  0  0
 42 43  2  0  0  0  0
M  END
>  <MODEL>
3

>  <REMARK>
 VINA RESULT:      -6.5      2.574      4.546
  Name = 
  10 active torsions:
  status: ('A' for Active; 'I' for Inactive)
    1  A    between atoms: N_1  and  C_34
    2  A    between atoms: N_1  and  C_35
    3  A    between atoms: C_2  and  N_6
    4  A    between atoms: C_2  and  C_27
    5  A    between atoms: N_4  and  C_12
    6  A    between atoms: N_4  and  C_15
    7  A    between atoms: N_6  and  C_12
    8  A    between atoms: C_11  and  N_14
    9  A    between atoms: C_15  and  C_42
   10  A    between atoms: C_19  and  C_37
                            x       y       z     vdW  Elec       q    Type
                         _______ _______ _______ _____ _____    ______ ____

>  <TORSDO>
F 10

$$$$
=
 OpenBabel11052421143D

 43 47  0  0  1  0  0  0  0  0999 V2000
  184.9450  178.1660  145.7520 C   0  0  0  0  0  0  0  0  0  0  0  0
  188.6920  175.7740  143.3190 C   0  0  0  0  0  0  0  0  0  0  0  0
  189.7680  176.5390  145.3660 C   0  0  0  0  0  3  0  0  0  0  0  0
  186.2580  176.9210  144.1410 C   0  0  0  0  0  0  0  0  0  0  0  0
  186.0630  178.2780  146.5820 C   0  0  0  0  0  3  0  0  0  0  0  0
  183.7060  178.7420  146.1460 N   0  0  0  0  0  1  0  0  0  0  0  0
  187.3970  177.0290  144.9760 C   0  0  0  0  0  0  0  0  0  0  0  0
  185.0430  177.4890  144.5340 C   0  0  0  0  0  3  0  0  0  0  0  0
  187.2820  177.7130  146.1980 C   0  0  0  0  0  3  0  0  0  0  0  0
  190.9700  175.9650  144.9520 C   0  0  0  0  0  0  0  0  0  0  0  0
  188.6190  176.4520  144.5640 C   0  0  0  0  0  0  0  0  0  0  0  0
  187.5470  175.6810  142.5150 C   0  0  0  0  0  3  0  0  0  0  0  0
  189.9090  175.2060  142.8920 C   0  0  0  0  0  0  0  0  0  0  0  0
  191.0340  175.3050  143.7200 C   0  0  0  0  0  3  0  0  0  0  0  0
  186.3410  176.2490  142.9230 C   0  0  0  0  0  3  0  0  0  0  0  0
  192.1830  176.1050  145.8140 C   0  0  1  0  0  3  0  0  0  0  0  0
  191.8080  176.1170  147.2850 C   0  0  0  0  0  1  0  0  0  0  0  0
  193.1100  175.0100  145.5450 N   0  0  0  0  0  2  0  0  0  0  0  0
  195.2860  175.3360  146.3370 O   0  0  0  0  0  1  0  0  0  0  0  0
  194.4490  175.5260  145.2330 C   0  0  0  0  0  0  0  0  0  0  0  0
  194.3700  176.8920  144.9420 O   0  0  0  0  0  1  0  0  0  0  0  0
  195.0170  174.8210  144.0690 N   0  0  0  0  0  0  0  0  0  0  0  0
  195.0050  172.6620  145.3140 N   0  0  0  0  0  2  0  0  0  0  0  0
  195.3700  173.4260  144.1540 C   0  0  0  0  0  0  0  0  0  0  0  0
  195.9780  172.8730  143.1960 O   0  0  0  0  0  0  0  0  0  0  0  0
  195.3900  171.3110  145.6060 C   0  0  0  0  0  0  0  0  0  0  0  0
  194.7630  168.9730  145.7840 C   0  0  0  0  0  3  0  0  0  0  0  0
  197.0090  169.6650  146.3630 C   0  0  0  0  0  3  0  0  0  0  0  0
  196.0520  168.6570  146.2250 C   0  0  0  0  0  3  0  0  0  0  0  0
  196.6790  170.9890  146.0560 C   0  0  0  0  0  3  0  0  0  0  0  0
  194.4340  170.2960  145.4810 C   0  0  0  0  0  3  0  0  0  0  0  0
  195.2580  175.5240  142.8060 C   0  0  0  0  0  2  0  0  0  0  0  0
  194.3160  174.8530  140.5940 C   0  0  0  0  0  1  0  0  0  0  0  0
  194.0140  175.5020  141.9300 C   0  0  0  0  0  2  0  0  0  0  0  0
  189.9710  174.4990  141.6400 N   0  0  0  0  0  2  0  0  0  0  0  0
  191.8580  171.4230  140.2340 C   0  0  0  0  0  2  0  0  0  0  0  0
  190.8390  170.4020  140.7240 C   0  0  2  0  0  3  0  0  0  0  0  0
  190.0010  172.2080  142.2560 C   0  0  0  0  0  3  0  0  0  0  0  0
  191.2000  172.7980  140.1620 C   0  0  0  0  0  2  0  0  0  0  0  0
  190.4260  173.1580  141.4140 C   0  0  0  0  0  0  0  0  0  0  0  0
  190.4100  170.7640  142.1460 C   0  0  0  0  0  2  0  0  0  0  0  0
  191.7740  168.4560  141.7070 O   0  0  0  0  0  0  0  0  0  0  0  0
  191.4160  169.0210  140.6840 C   0  0  0  0  0  3  0  0  0  0  0  0
  1  6  1  0  0  0  0
  1  5  1  0  0  0  0
  2 11  1  0  0  0  0
  4  8  1  0  0  0  0
  4  7  2  0  0  0  0
  7  9  1  0  0  0  0
  8  1  2  0  0  0  0
  9  5  2  0  0  0  0
 10  3  1  0  0  0  0
 10 16  1  0  0  0  0
 11  7  1  0  0  0  0
 11  3  2  0  0  0  0
 12 15  2  0  0  0  0
 12  2  1  0  0  0  0
 13  2  2  0  0  0  0
 13 14  1  0  0  0  0
 14 10  2  0  0  0  0
 15  4  1  0  0  0  0
 16 17  1  1  0  0  0
 18 16  1  0  0  0  0
 20 18  1  0  0  0  0
 20 19  1  0  0  0  0
 21 20  1  0  0  0  0
 22 24  1  0  0  0  0
 22 20  1  0  0  0  0
 23 26  1  0  0  0  0
 24 23  1  0  0  0  0
 25 24  2  0  0  0  0
 26 30  1  0  0  0  0
 27 29  2  0  0  0  0
 29 28  1  0  0  0  0
 30 28  2  0  0  0  0
 31 26  2  0  0  0  0
 31 27  1  0  0  0  0
 32 22  1  0  0  0  0
 33 34  1  0  0  0  0
 34 32  1  0  0  0  0
 35 13  1  0  0  0  0
 36 37  1  0  0  0  0
 37 43  1  1  0  0  0
 37 41  1  0  0  0  0
 39 36  1  0  0  0  0
 39 40  1  0  0  0  0
 40 35  1  0  0  0  0
 40 38  2  0  0  0  0
 41 38  1  0  0  0  0
 43 42  2  0  0  0  0
M  END
>  <MODEL>
4

>  <REMARK>
 VINA RESULT:      -6.5      2.294      5.593
  Name = 
  10 active torsions:
  status: ('A' for Active; 'I' for Inactive)
    1  A    between atoms: N_1  and  C_34
    2  A    between atoms: N_1  and  C_35
    3  A    between atoms: C_2  and  N_6
    4  A    between atoms: C_2  and  C_27
    5  A    between atoms: N_4  and  C_12
    6  A    between atoms: N_4  and  C_15
    7  A    between atoms: N_6  and  C_12
    8  A    between atoms: C_11  and  N_14
    9  A    between atoms: C_15  and  C_42
   10  A    between atoms: C_19  and  C_37
                            x       y       z     vdW  Elec       q    Type
                         _______ _______ _______ _____ _____    ______ ____

>  <TORSDO>
F 10

$$$$
=
 OpenBabel11052421143D

 43 47  0  0  1  0  0  0  0  0999 V2000
  185.5410  177.8640  146.8370 C   0  0  0  0  0  0  0  0  0  0  0  0
  190.0690  176.4380  145.0640 C   0  0  0  0  0  0  0  0  0  0  0  0
  188.5270  175.5580  143.3980 C   0  0  0  0  0  3  0  0  0  0  0  0
  187.9170  177.4990  146.5330 C   0  0  0  0  0  0  0  0  0  0  0  0
  185.2790  177.1710  145.6530 C   0  0  0  0  0  3  0  0  0  0  0  0
  184.4680  178.4060  147.5960 N   0  0  0  0  0  1  0  0  0  0  0  0
  187.6610  176.7940  145.3310 C   0  0  0  0  0  0  0  0  0  0  0  0
  186.8570  178.0280  147.2750 C   0  0  0  0  0  3  0  0  0  0  0  0
  186.3320  176.6380  144.9030 C   0  0  0  0  0  3  0  0  0  0  0  0
  189.6000  175.0380  142.6750 C   0  0  0  0  0  0  0  0  0  0  0  0
  188.7420  176.2630  144.5930 C   0  0  0  0  0  0  0  0  0  0  0  0
  190.2920  177.1440  146.2560 C   0  0  0  0  0  3  0  0  0  0  0  0
  191.1540  175.9010  144.3430 C   0  0  0  0  0  0  0  0  0  0  0  0
  190.9040  175.2100  143.1510 C   0  0  0  0  0  3  0  0  0  0  0  0
  189.2250  177.6690  146.9830 C   0  0  0  0  0  3  0  0  0  0  0  0
  189.3330  174.2640  141.4250 C   0  0  1  0  0  3  0  0  0  0  0  0
  188.3610  175.0040  140.5230 C   0  0  0  0  0  1  0  0  0  0  0  0
  190.5860  174.0240  140.7150 N   0  0  0  0  0  2  0  0  0  0  0  0
  191.4050  172.3290  139.3270 O   0  0  0  0  0  1  0  0  0  0  0  0
  190.8410  172.5840  140.5820 C   0  0  0  0  0  0  0  0  0  0  0  0
  189.6370  171.8810  140.6990 O   0  0  0  0  0  1  0  0  0  0  0  0
  191.7690  172.1230  141.6310 N   0  0  0  0  0  0  0  0  0  0  0  0
  193.4760  173.7940  140.9170 N   0  0  0  0  0  2  0  0  0  0  0  0
  193.1000  172.6680  141.7270 C   0  0  0  0  0  0  0  0  0  0  0  0
  193.9250  172.1690  142.5410 O   0  0  0  0  0  0  0  0  0  0  0  0
  194.7860  174.3660  140.8020 C   0  0  0  0  0  0  0  0  0  0  0  0
  197.1780  174.0300  140.5640 C   0  0  0  0  0  3  0  0  0  0  0  0
  196.2940  176.2720  140.7970 C   0  0  0  0  0  3  0  0  0  0  0  0
  197.3840  175.4120  140.6370 C   0  0  0  0  0  3  0  0  0  0  0  0
  195.0000  175.7500  140.8810 C   0  0  0  0  0  3  0  0  0  0  0  0
  195.8840  173.5110  140.6520 C   0  0  0  0  0  3  0  0  0  0  0  0
  191.3710  171.0860  142.5870 C   0  0  0  0  0  2  0  0  0  0  0  0
  189.7200  171.8800  144.2820 C   0  0  0  0  0  1  0  0  0  0  0  0
  191.1900  171.6750  143.9780 C   0  0  0  0  0  2  0  0  0  0  0  0
  192.4990  176.1040  144.8130 N   0  0  0  0  0  2  0  0  0  0  0  0
  194.4250  172.8450  145.6330 C   0  0  0  0  0  2  0  0  0  0  0  0
  195.8030  173.4910  145.6080 C   0  0  2  0  0  3  0  0  0  0  0  0
  194.7190  175.3900  144.3730 C   0  0  0  0  0  3  0  0  0  0  0  0
  193.3660  173.9220  145.8520 C   0  0  0  0  0  2  0  0  0  0  0  0
  193.5380  175.1230  144.9430 C   0  0  0  0  0  0  0  0  0  0  0  0
  195.8890  174.4460  144.4180 C   0  0  0  0  0  2  0  0  0  0  0  0
  196.8780  171.4850  146.2770 O   0  0  0  0  0  0  0  0  0  0  0  0
  196.8740  172.4470  145.5240 C   0  0  0  0  0  3  0  0  0  0  0  0
  1  8  1  0  0  0  0
  1  6  1  0  0  0  0
  2 12  1  0  0  0  0
  3 11  2  0  0  0  0
  4 15  1  0  0  0  0
  4  8  2  0  0  0  0
  5  1  2  0  0  0  0
  7  4  1  0  0  0  0
  9  7  2  0  0  0  0
  9  5  1  0  0  0  0
 10 14  2  0  0  0  0
 10  3  1  0  0  0  0
 11  2  1  0  0  0  0
 11  7  1  0  0  0  0
 12 15  2  0  0  0  0
 13 35  1  0  0  0  0
 13  2  2  0  0  0  0
 14 13  1  0  0  0  0
 16 17  1  6  0  0  0
 16 10  1  0  0  0  0
 18 16  1  0  0  0  0
 19 20  1  0  0  0  0
 20 21  1  0  0  0  0
 20 18  1  0  0  0  0
 20 22  1  0  0  0  0
 22 24  1  0  0  0  0
 22 32  1  0  0  0  0
 23 24  1  0  0  0  0
 24 25  2  0  0  0  0
 26 30  1  0  0  0  0
 26 23  1  0  0  0  0
 27 29  2  0  0  0  0
 27 31  1  0  0  0  0
 28 30  2  0  0  0  0
 29 28  1  0  0  0  0
 31 26  2  0  0  0  0
 32 34  1  0  0  0  0
 34 33  1  0  0  0  0
 35 40  1  0  0  0  0
 36 39  1  0  0  0  0
 37 43  1  6  0  0  0
 37 36  1  0  0  0  0
 38 41  1  0  0  0  0
 38 40  2  0  0  0  0
 40 39  1  0  0  0  0
 41 37  1  0  0  0  0
 43 42  2  0  0  0  0
M  END
>  <MODEL>
5

>  <REMARK>
 VINA RESULT:      -6.5      2.003      3.811
  Name = 
  10 active torsions:
  status: ('A' for Active; 'I' for Inactive)
    1  A    between atoms: N_1  and  C_34
    2  A    between atoms: N_1  and  C_35
    3  A    between atoms: C_2  and  N_6
    4  A    between atoms: C_2  and  C_27
    5  A    between atoms: N_4  and  C_12
    6  A    between atoms: N_4  and  C_15
    7  A    between atoms: N_6  and  C_12
    8  A    between atoms: C_11  and  N_14
    9  A    between atoms: C_15  and  C_42
   10  A    between atoms: C_19  and  C_37
                            x       y       z     vdW  Elec       q    Type
                         _______ _______ _______ _____ _____    ______ ____

>  <TORSDO>
F 10

$$$$
=
 OpenBabel11052421143D

 43 47  0  0  1  0  0  0  0  0999 V2000
  184.9330  178.1870  145.2210 C   0  0  0  0  0  0  0  0  0  0  0  0
  189.3080  175.6310  145.2800 C   0  0  0  0  0  0  0  0  0  0  0  0
  188.4800  175.2480  143.0220 C   0  0  0  0  0  3  0  0  0  0  0  0
  187.0470  177.1980  145.8690 C   0  0  0  0  0  0  0  0  0  0  0  0
  185.0540  177.6230  143.9490 C   0  0  0  0  0  3  0  0  0  0  0  0
  183.7960  178.9800  145.5410 N   0  0  0  0  0  1  0  0  0  0  0  0
  187.1790  176.6210  144.5830 C   0  0  0  0  0  0  0  0  0  0  0  0
  185.9270  177.9760  146.1790 C   0  0  0  0  0  3  0  0  0  0  0  0
  186.1700  176.8440  143.6300 C   0  0  0  0  0  3  0  0  0  0  0  0
  189.6050  174.4740  142.7380 C   0  0  0  0  0  0  0  0  0  0  0  0
  188.3150  175.8350  144.2870 C   0  0  0  0  0  0  0  0  0  0  0  0
  189.1510  176.2180  146.5440 C   0  0  0  0  0  3  0  0  0  0  0  0
  190.4380  174.8390  145.0000 C   0  0  0  0  0  0  0  0  0  0  0  0
  190.5750  174.2730  143.7250 C   0  0  0  0  0  3  0  0  0  0  0  0
  188.0300  176.9940  146.8360 C   0  0  0  0  0  3  0  0  0  0  0  0
  189.7330  173.8360  141.3930 C   0  0  1  0  0  3  0  0  0  0  0  0
  188.6200  174.2910  140.4650 C   0  0  0  0  0  1  0  0  0  0  0  0
  191.0310  174.1640  140.8110 N   0  0  0  0  0  2  0  0  0  0  0  0
  190.8150  172.0450  139.8460 O   0  0  0  0  0  1  0  0  0  0  0  0
  191.7360  172.9460  140.3910 C   0  0  0  0  0  0  0  0  0  0  0  0
  192.3590  172.3580  141.4960 O   0  0  0  0  0  1  0  0  0  0  0  0
  192.7590  173.2630  139.3760 N   0  0  0  0  0  0  0  0  0  0  0  0
  194.3390  174.0300  141.1450 N   0  0  0  0  0  2  0  0  0  0  0  0
  194.0040  173.8800  139.7570 C   0  0  0  0  0  0  0  0  0  0  0  0
  194.8100  174.2680  138.8650 O   0  0  0  0  0  0  0  0  0  0  0  0
  195.4680  174.7310  141.6840 C   0  0  0  0  0  0  0  0  0  0  0  0
  197.8430  174.7550  142.1860 C   0  0  0  0  0  3  0  0  0  0  0  0
  196.4570  176.6320  142.8310 C   0  0  0  0  0  3  0  0  0  0  0  0
  197.7090  176.0150  142.7790 C   0  0  0  0  0  3  0  0  0  0  0  0
  195.3400  175.9910  142.2860 C   0  0  0  0  0  3  0  0  0  0  0  0
  196.7250  174.1150  141.6460 C   0  0  0  0  0  3  0  0  0  0  0  0
  192.5270  172.9780  137.9580 C   0  0  0  0  0  2  0  0  0  0  0  0
  190.4380  173.8470  136.9030 C   0  0  0  0  0  1  0  0  0  0  0  0
  191.8730  174.1670  137.2690 C   0  0  0  0  0  2  0  0  0  0  0  0
  191.4530  174.6550  146.0040 N   0  0  0  0  0  2  0  0  0  0  0  0
  194.8340  173.1250  144.8970 C   0  0  0  0  0  2  0  0  0  0  0  0
  195.6670  173.8690  145.9320 C   0  0  2  0  0  3  0  0  0  0  0  0
  193.6970  175.4080  146.1800 C   0  0  0  0  0  3  0  0  0  0  0  0
  193.3780  173.0870  145.3510 C   0  0  0  0  0  2  0  0  0  0  0  0
  192.8560  174.4380  145.8000 C   0  0  0  0  0  0  0  0  0  0  0  0
  195.1890  175.3190  146.0120 C   0  0  0  0  0  2  0  0  0  0  0  0
  197.6240  172.7930  145.1330 O   0  0  0  0  0  0  0  0  0  0  0  0
  197.1210  173.8130  145.5800 C   0  0  0  0  0  3  0  0  0  0  0  0
  1  6  1  0  0  0  0
  1  8  1  0  0  0  0
  2 12  1  0  0  0  0
  3 11  1  0  0  0  0
  4  8  2  0  0  0  0
  4 15  1  0  0  0  0
  5  1  2  0  0  0  0
  7  4  1  0  0  0  0
  9  5  1  0  0  0  0
  9  7  2  0  0  0  0
 10  3  2  0  0  0  0
 10 14  1  0  0  0  0
 11  7  1  0  0  0  0
 11  2  2  0  0  0  0
 12 15  2  0  0  0  0
 13  2  1  0  0  0  0
 13 35  1  0  0  0  0
 14 13  2  0  0  0  0
 16 17  1  6  0  0  0
 16 10  1  0  0  0  0
 18 16  1  0  0  0  0
 19 20  1  0  0  0  0
 20 18  1  0  0  0  0
 20 21  1  0  0  0  0
 22 24  1  0  0  0  0
 22 20  1  0  0  0  0
 23 26  1  0  0  0  0
 24 23  1  0  0  0  0
 25 24  2  0  0  0  0
 26 30  1  0  0  0  0
 27 29  2  0  0  0  0
 29 28  1  0  0  0  0
 30 28  2  0  0  0  0
 31 26  2  0  0  0  0
 31 27  1  0  0  0  0
 32 22  1  0  0  0  0
 33 34  1  0  0  0  0
 34 32  1  0  0  0  0
 36 39  1  0  0  0  0
 36 37  1  0  0  0  0
 37 43  1  6  0  0  0
 37 41  1  0  0  0  0
 39 40  1  0  0  0  0
 40 35  1  0  0  0  0
 40 38  2  0  0  0  0
 41 38  1  0  0  0  0
 42 43  2  0  0  0  0
M  END
>  <MODEL>
6

>  <REMARK>
 VINA RESULT:      -6.5      2.172      4.154
  Name = 
  10 active torsions:
  status: ('A' for Active; 'I' for Inactive)
    1  A    between atoms: N_1  and  C_34
    2  A    between atoms: N_1  and  C_35
    3  A    between atoms: C_2  and  N_6
    4  A    between atoms: C_2  and  C_27
    5  A    between atoms: N_4  and  C_12
    6  A    between atoms: N_4  and  C_15
    7  A    between atoms: N_6  and  C_12
    8  A    between atoms: C_11  and  N_14
    9  A    between atoms: C_15  and  C_42
   10  A    between atoms: C_19  and  C_37
                            x       y       z     vdW  Elec       q    Type
                         _______ _______ _______ _____ _____    ______ ____

>  <TORSDO>
F 10

$$$$
=
 OpenBabel11052421143D

 43 47  0  0  1  0  0  0  0  0999 V2000
  190.5730  170.2830  137.5630 C   0  0  0  0  0  0  0  0  0  0  0  0
  188.7980  174.0530  140.4470 C   0  0  0  0  0  0  0  0  0  0  0  0
  190.1540  172.7620  142.0040 C   0  0  0  0  0  3  0  0  0  0  0  0
  189.4380  172.2650  138.3710 C   0  0  0  0  0  0  0  0  0  0  0  0
  191.1000  170.0600  138.8370 C   0  0  0  0  0  3  0  0  0  0  0  0
  190.8800  169.3890  136.5000 N   0  0  0  0  0  1  0  0  0  0  0  0
  189.9670  172.0480  139.6660 C   0  0  0  0  0  0  0  0  0  0  0  0
  189.7440  171.3830  137.3300 C   0  0  0  0  0  3  0  0  0  0  0  0
  190.8000  170.9360  139.8840 C   0  0  0  0  0  3  0  0  0  0  0  0
  189.8330  173.6550  143.0270 C   0  0  0  0  0  0  0  0  0  0  0  0
  189.6470  172.9460  140.7080 C   0  0  0  0  0  0  0  0  0  0  0  0
  188.2920  174.2440  139.1530 C   0  0  0  0  0  3  0  0  0  0  0  0
  188.4620  174.9480  141.4810 C   0  0  0  0  0  0  0  0  0  0  0  0
  188.9910  174.7390  142.7610 C   0  0  0  0  0  3  0  0  0  0  0  0
  188.6090  173.3580  138.1240 C   0  0  0  0  0  3  0  0  0  0  0  0
  190.3620  173.4110  144.4040 C   0  0  1  0  0  3  0  0  0  0  0  0
  189.7240  172.1810  145.0230 C   0  0  0  0  0  1  0  0  0  0  0  0
  191.8120  173.2480  144.3550 N   0  0  0  0  0  2  0  0  0  0  0  0
  193.8120  173.9140  145.3680 O   0  0  0  0  0  1  0  0  0  0  0  0
  192.4780  174.2810  145.1600 C   0  0  0  0  0  0  0  0  0  0  0  0
  191.8340  174.4030  146.3950 O   0  0  0  0  0  1  0  0  0  0  0  0
  192.4380  175.5830  144.4680 N   0  0  0  0  0  0  0  0  0  0  0  0
  193.1970  174.5270  142.3410 N   0  0  0  0  0  2  0  0  0  0  0  0
  192.8820  175.7030  143.1010 C   0  0  0  0  0  0  0  0  0  0  0  0
  192.9680  176.8440  142.5690 O   0  0  0  0  0  0  0  0  0  0  0  0
  193.7690  174.4840  141.0260 C   0  0  0  0  0  0  0  0  0  0  0  0
  193.4620  174.1080  138.6470 C   0  0  0  0  0  3  0  0  0  0  0  0
  195.6670  174.6030  139.5140 C   0  0  0  0  0  3  0  0  0  0  0  0
  194.8290  174.3160  138.4340 C   0  0  0  0  0  3  0  0  0  0  0  0
  195.1390  174.6850  140.8060 C   0  0  0  0  0  3  0  0  0  0  0  0
  192.9370  174.1870  139.9400 C   0  0  0  0  0  3  0  0  0  0  0  0
  191.9680  176.7870  145.1570 C   0  0  0  0  0  2  0  0  0  0  0  0
  190.0890  178.0420  144.0960 C   0  0  0  0  0  1  0  0  0  0  0  0
  190.4570  176.9190  145.0440 C   0  0  0  0  0  2  0  0  0  0  0  0
  187.6200  176.0820  141.2030 N   0  0  0  0  0  2  0  0  0  0  0  0
  186.0210  179.1250  142.9860 C   0  0  0  0  0  2  0  0  0  0  0  0
  185.9610  178.4650  144.3570 C   0  0  2  0  0  3  0  0  0  0  0  0
  186.2750  176.2860  143.1470 C   0  0  0  0  0  3  0  0  0  0  0  0
  187.0590  178.4110  142.1260 C   0  0  0  0  0  2  0  0  0  0  0  0
  186.9180  176.9020  142.1480 C   0  0  0  0  0  0  0  0  0  0  0  0
  185.4870  177.0210  144.1980 C   0  0  0  0  0  2  0  0  0  0  0  0
  183.8960  178.8500  145.4600 O   0  0  0  0  0  0  0  0  0  0  0  0
  185.0440  179.2220  145.2680 C   0  0  0  0  0  3  0  0  0  0  0  0
  1  5  1  0  0  0  0
  2 11  1  0  0  0  0
  2 13  2  0  0  0  0
  3 10  1  0  0  0  0
  4  7  2  0  0  0  0
  5  9  2  0  0  0  0
  6  1  1  0  0  0  0
  7  9  1  0  0  0  0
  7 11  1  0  0  0  0
  8  1  2  0  0  0  0
  8  4  1  0  0  0  0
 10 16  1  0  0  0  0
 11  3  2  0  0  0  0
 12  2  1  0  0  0  0
 13 14  1  0  0  0  0
 14 10  2  0  0  0  0
 15  4  1  0  0  0  0
 15 12  2  0  0  0  0
 16 17  1  6  0  0  0
 18 16  1  0  0  0  0
 18 20  1  0  0  0  0
 20 19  1  0  0  0  0
 20 21  1  0  0  0  0
 22 32  1  0  0  0  0
 22 20  1  0  0  0  0
 23 24  1  0  0  0  0
 24 22  1  0  0  0  0
 25 24  2  0  0  0  0
 26 23  1  0  0  0  0
 27 31  1  0  0  0  0
 28 30  2  0  0  0  0
 29 27  2  0  0  0  0
 29 28  1  0  0  0  0
 30 26  1  0  0  0  0
 31 26  2  0  0  0  0
 33 34  1  0  0  0  0
 34 32  1  0  0  0  0
 35 13  1  0  0  0  0
 35 40  1  0  0  0  0
 36 37  1  0  0  0  0
 37 43  1  1  0  0  0
 38 41  1  0  0  0  0
 39 40  1  0  0  0  0
 39 36  1  0  0  0  0
 40 38  2  0  0  0  0
 41 37  1  0  0  0  0
 43 42  2  0  0  0  0
M  END
>  <MODEL>
7

>  <REMARK>
 VINA RESULT:      -6.3      2.843      7.780
  Name = 
  10 active torsions:
  status: ('A' for Active; 'I' for Inactive)
    1  A    between atoms: N_1  and  C_34
    2  A    between atoms: N_1  and  C_35
    3  A    between atoms: C_2  and  N_6
    4  A    between atoms: C_2  and  C_27
    5  A    between atoms: N_4  and  C_12
    6  A    between atoms: N_4  and  C_15
    7  A    between atoms: N_6  and  C_12
    8  A    between atoms: C_11  and  N_14
    9  A    between atoms: C_15  and  C_42
   10  A    between atoms: C_19  and  C_37
                            x       y       z     vdW  Elec       q    Type
                         _______ _______ _______ _____ _____    ______ ____

>  <TORSDO>
F 10

$$$$
=
 OpenBabel11052421143D

 43 47  0  0  1  0  0  0  0  0999 V2000
  185.8670  177.7240  146.7970 C   0  0  0  0  0  0  0  0  0  0  0  0
  190.2460  176.3520  144.6480 C   0  0  0  0  0  0  0  0  0  0  0  0
  188.5780  175.4050  143.1470 C   0  0  0  0  0  3  0  0  0  0  0  0
  188.2130  177.4000  146.2850 C   0  0  0  0  0  0  0  0  0  0  0  0
  185.5140  177.0000  145.6560 C   0  0  0  0  0  3  0  0  0  0  0  0
  184.8550  178.2600  147.6410 N   0  0  0  0  0  1  0  0  0  0  0  0
  187.8650  176.6650  145.1270 C   0  0  0  0  0  0  0  0  0  0  0  0
  187.2130  177.9240  147.1110 C   0  0  0  0  0  3  0  0  0  0  0  0
  186.5050  176.4730  144.8250 C   0  0  0  0  0  3  0  0  0  0  0  0
  189.5930  174.8910  142.3400 C   0  0  0  0  0  0  0  0  0  0  0  0
  188.8850  176.1390  144.3040 C   0  0  0  0  0  0  0  0  0  0  0  0
  190.5600  177.0870  145.8000 C   0  0  0  0  0  3  0  0  0  0  0  0
  191.2720  175.8210  143.8420 C   0  0  0  0  0  0  0  0  0  0  0  0
  190.9300  175.1000  142.6910 C   0  0  0  0  0  3  0  0  0  0  0  0
  189.5520  177.6070  146.6120 C   0  0  0  0  0  3  0  0  0  0  0  0
  189.2310  174.0860  141.1340 C   0  0  1  0  0  3  0  0  0  0  0  0
  188.2330  174.8280  140.2620 C   0  0  0  0  0  1  0  0  0  0  0  0
  190.4340  173.7800  140.3640 N   0  0  0  0  0  2  0  0  0  0  0  0
  189.4080  171.8440  139.5460 O   0  0  0  0  0  1  0  0  0  0  0  0
  190.5660  172.3310  140.1610 C   0  0  0  0  0  0  0  0  0  0  0  0
  190.7350  171.6960  141.3960 O   0  0  0  0  0  1  0  0  0  0  0  0
  191.7290  172.0320  139.3050 N   0  0  0  0  0  0  0  0  0  0  0  0
  193.2160  173.3880  140.7770 N   0  0  0  0  0  2  0  0  0  0  0  0
  193.0120  172.6340  139.5720 C   0  0  0  0  0  0  0  0  0  0  0  0
  193.9610  172.4760  138.7550 O   0  0  0  0  0  0  0  0  0  0  0  0
  194.3810  174.1490  141.1250 C   0  0  0  0  0  0  0  0  0  0  0  0
  196.6570  174.1800  141.9700 C   0  0  0  0  0  3  0  0  0  0  0  0
  195.5440  176.2610  141.4290 C   0  0  0  0  0  3  0  0  0  0  0  0
  196.6720  175.5760  141.8870 C   0  0  0  0  0  3  0  0  0  0  0  0
  194.4010  175.5490  141.0510 C   0  0  0  0  0  3  0  0  0  0  0  0
  195.5130  173.4710  141.5950 C   0  0  0  0  0  3  0  0  0  0  0  0
  191.6060  171.1360  138.1530 C   0  0  0  0  0  2  0  0  0  0  0  0
  190.6710  168.8300  137.9670 C   0  0  0  0  0  1  0  0  0  0  0  0
  191.7630  169.6840  138.5790 C   0  0  0  0  0  2  0  0  0  0  0  0
  192.6500  176.0610  144.1840 N   0  0  0  0  0  0  0  0  0  0  0  0
  195.7360  174.5220  145.9460 C   0  0  0  0  0  2  0  0  0  0  0  0
  195.6160  173.1630  145.2680 C   0  0  2  0  0  3  0  0  0  0  0  0
  193.2610  173.8280  144.7020 C   0  0  0  0  0  2  0  0  0  0  0  0
  194.9880  175.5650  145.1210 C   0  0  0  0  0  2  0  0  0  0  0  0
  193.5930  175.1240  144.7230 C   0  0  0  0  0  0  0  0  0  0  0  0
  194.1470  172.7410  145.2470 C   0  0  0  0  0  2  0  0  0  0  0  0
  197.3330  171.5310  145.4050 O   0  0  0  0  0  0  0  0  0  0  0  0
  196.4470  172.1420  145.9840 C   0  0  0  0  0  3  0  0  0  0  0  0
  1  8  1  0  0  0  0
  1  6  1  0  0  0  0
  2 12  1  0  0  0  0
  3 11  2  0  0  0  0
  4 15  1  0  0  0  0
  4  8  2  0  0  0  0
  5  1  2  0  0  0  0
  7  4  1  0  0  0  0
  9  7  2  0  0  0  0
  9  5  1  0  0  0  0
 10 14  2  0  0  0  0
 10  3  1  0  0  0  0
 11  2  1  0  0  0  0
 11  7  1  0  0  0  0
 12 15  2  0  0  0  0
 13 35  1  0  0  0  0
 13  2  2  0  0  0  0
 14 13  1  0  0  0  0
 16 17  1  6  0  0  0
 16 10  1  0  0  0  0
 18 16  1  0  0  0  0
 19 20  1  0  0  0  0
 20 18  1  0  0  0  0
 20 21  1  0  0  0  0
 22 24  1  0  0  0  0
 22 20  1  0  0  0  0
 23 26  1  0  0  0  0
 24 23  1  0  0  0  0
 25 24  2  0  0  0  0
 26 31  1  0  0  0  0
 28 29  2  0  0  0  0
 29 27  1  0  0  0  0
 30 26  2  0  0  0  0
 30 28  1  0  0  0  0
 31 27  2  0  0  0  0
 32 34  1  0  0  0  0
 32 22  1  0  0  0  0
 33 34  1  0  0  0  0
 35 40  2  0  0  0  0
 37 36  1  0  0  0  0
 37 43  1  1  0  0  0
 38 40  1  0  0  0  0
 38 41  1  0  0  0  0
 39 36  1  0  0  0  0
 40 39  1  0  0  0  0
 41 37  1  0  0  0  0
 42 43  2  0  0  0  0
M  END
>  <MODEL>
8

>  <REMARK>
 VINA RESULT:      -6.2      2.141      3.758
  Name = 
  10 active torsions:
  status: ('A' for Active; 'I' for Inactive)
    1  A    between atoms: N_1  and  C_34
    2  A    between atoms: N_1  and  C_35
    3  A    between atoms: C_2  and  N_6
    4  A    between atoms: C_2  and  C_27
    5  A    between atoms: N_4  and  C_12
    6  A    between atoms: N_4  and  C_15
    7  A    between atoms: N_6  and  C_12
    8  A    between atoms: C_11  and  N_14
    9  A    between atoms: C_15  and  C_42
   10  A    between atoms: C_19  and  C_37
                            x       y       z     vdW  Elec       q    Type
                         _______ _______ _______ _____ _____    ______ ____

>  <TORSDO>
F 10

$$$$
=
 OpenBabel11052421143D

 43 47  0  0  1  0  0  0  0  0999 V2000
  186.3670  178.5480  143.5790 C   0  0  0  0  0  0  0  0  0  0  0  0
  189.4910  174.5650  143.8090 C   0  0  0  0  0  0  0  0  0  0  0  0
  188.7920  174.5790  141.4770 C   0  0  0  0  0  3  0  0  0  0  0  0
  187.9090  176.8330  144.3230 C   0  0  0  0  0  0  0  0  0  0  0  0
  186.3920  178.0160  142.2880 C   0  0  0  0  0  3  0  0  0  0  0  0
  185.5720  179.6920  143.8610 N   0  0  0  0  0  1  0  0  0  0  0  0
  187.9410  176.2860  143.0170 C   0  0  0  0  0  0  0  0  0  0  0  0
  187.1240  177.9580  144.5940 C   0  0  0  0  0  3  0  0  0  0  0  0
  187.1740  176.8920  142.0070 C   0  0  0  0  0  3  0  0  0  0  0  0
  189.5810  173.4550  141.2300 C   0  0  0  0  0  0  0  0  0  0  0  0
  188.7360  175.1480  142.7590 C   0  0  0  0  0  0  0  0  0  0  0  0
  189.4420  175.1300  145.0910 C   0  0  0  0  0  3  0  0  0  0  0  0
  190.2780  173.4210  143.5660 C   0  0  0  0  0  0  0  0  0  0  0  0
  190.3160  172.8830  142.2740 C   0  0  0  0  0  3  0  0  0  0  0  0
  188.6580  176.2550  145.3450 C   0  0  0  0  0  3  0  0  0  0  0  0
  189.5910  172.8540  139.8620 C   0  0  1  0  0  3  0  0  0  0  0  0
  188.1790  172.6790  139.3330 C   0  0  0  0  0  1  0  0  0  0  0  0
  190.3610  173.7010  138.9550 N   0  0  0  0  0  2  0  0  0  0  0  0
  191.0100  172.3490  137.1620 O   0  0  0  0  0  1  0  0  0  0  0  0
  191.4610  172.9440  138.3440 C   0  0  0  0  0  0  0  0  0  0  0  0
  191.8940  171.9490  139.2270 O   0  0  0  0  0  1  0  0  0  0  0  0
  192.5940  173.8360  138.0340 N   0  0  0  0  0  0  0  0  0  0  0  0
  193.0330  174.1950  140.4620 N   0  0  0  0  0  2  0  0  0  0  0  0
  193.3040  174.5160  139.0890 C   0  0  0  0  0  0  0  0  0  0  0  0
  194.1800  175.3780  138.8000 O   0  0  0  0  0  0  0  0  0  0  0  0
  193.5550  174.8650  141.6180 C   0  0  0  0  0  0  0  0  0  0  0  0
  193.1920  176.4110  143.4540 C   0  0  0  0  0  3  0  0  0  0  0  0
  195.3760  175.4190  143.1290 C   0  0  0  0  0  3  0  0  0  0  0  0
  194.5250  176.2610  143.8490 C   0  0  0  0  0  3  0  0  0  0  0  0
  194.8920  174.7240  142.0160 C   0  0  0  0  0  3  0  0  0  0  0  0
  192.7120  175.7190  142.3390 C   0  0  0  0  0  3  0  0  0  0  0  0
  193.0120  174.0690  136.6500 C   0  0  0  0  0  2  0  0  0  0  0  0
  192.9360  176.4250  135.8290 C   0  0  0  0  0  1  0  0  0  0  0  0
  192.1500  175.1400  135.9990 C   0  0  0  0  0  2  0  0  0  0  0  0
  191.0600  172.8490  144.6300 N   0  0  0  0  0  2  0  0  0  0  0  0
  194.5740  171.4930  143.7280 C   0  0  0  0  0  2  0  0  0  0  0  0
  195.1800  171.7620  145.0990 C   0  0  2  0  0  3  0  0  0  0  0  0
  193.2270  173.2930  145.4890 C   0  0  0  0  0  3  0  0  0  0  0  0
  193.0540  171.4320  143.8510 C   0  0  0  0  0  2  0  0  0  0  0  0
  192.4710  172.5900  144.6370 C   0  0  0  0  0  0  0  0  0  0  0  0
  194.7200  173.1340  145.5910 C   0  0  0  0  0  2  0  0  0  0  0  0
  197.3070  172.4340  144.2900 O   0  0  0  0  0  0  0  0  0  0  0  0
  196.6750  171.7010  145.0360 C   0  0  0  0  0  3  0  0  0  0  0  0
  1  6  1  0  0  0  0
  1  8  1  0  0  0  0
  2 12  1  0  0  0  0
  3 11  1  0  0  0  0
  4  8  2  0  0  0  0
  4 15  1  0  0  0  0
  5  1  2  0  0  0  0
  7  4  1  0  0  0  0
  9  5  1  0  0  0  0
  9  7  2  0  0  0  0
 10  3  2  0  0  0  0
 10 14  1  0  0  0  0
 11  7  1  0  0  0  0
 11  2  2  0  0  0  0
 12 15  2  0  0  0  0
 13  2  1  0  0  0  0
 13 35  1  0  0  0  0
 14 13  2  0  0  0  0
 16 17  1  6  0  0  0
 16 10  1  0  0  0  0
 18 16  1  0  0  0  0
 19 20  1  0  0  0  0
 20 18  1  0  0  0  0
 20 21  1  0  0  0  0
 22 20  1  0  0  0  0
 22 24  1  0  0  0  0
 23 26  1  0  0  0  0
 24 23  1  0  0  0  0
 25 24  2  0  0  0  0
 26 30  2  0  0  0  0
 26 31  1  0  0  0  0
 27 29  1  0  0  0  0
 28 29  2  0  0  0  0
 30 28  1  0  0  0  0
 31 27  2  0  0  0  0
 32 22  1  0  0  0  0
 33 34  1  0  0  0  0
 34 32  1  0  0  0  0
 35 40  1  0  0  0  0
 36 39  1  0  0  0  0
 36 37  1  0  0  0  0
 37 43  1  6  0  0  0
 37 41  1  0  0  0  0
 38 41  1  0  0  0  0
 39 40  1  0  0  0  0
 40 38  2  0  0  0  0
 42 43  2  0  0  0  0
M  END
>  <MODEL>
9

>  <REMARK>
 VINA RESULT:      -6.2      2.478      4.027
  Name = 
  10 active torsions:
  status: ('A' for Active; 'I' for Inactive)
    1  A    between atoms: N_1  and  C_34
    2  A    between atoms: N_1  and  C_35
    3  A    between atoms: C_2  and  N_6
    4  A    between atoms: C_2  and  C_27
    5  A    between atoms: N_4  and  C_12
    6  A    between atoms: N_4  and  C_15
    7  A    between atoms: N_6  and  C_12
    8  A    between atoms: C_11  and  N_14
    9  A    between atoms: C_15  and  C_42
   10  A    between atoms: C_19  and  C_37
                            x       y       z     vdW  Elec       q    Type
                         _______ _______ _______ _____ _____    ______ ____

>  <TORSDO>
F 10

$$$$
