=
 OpenBabel11052420193D

 34 39  0  0  1  0  0  0  0  0999 V2000
  192.0150  173.2250  144.2660 N   0  0  0  0  0  0  0  0  0  0  0  0
  193.2220  169.6800  143.4550 C   0  0  0  0  0  3  0  0  0  0  0  0
  196.5990  169.6020  145.0750 C   0  0  0  0  0  0  0  0  0  0  0  0
  191.4330  171.1210  142.5080 C   0  0  0  0  0  3  0  0  0  0  0  0
  189.6910  173.9600  143.8420 C   0  0  0  0  0  2  0  0  0  0  0  0
  188.3480  172.8490  142.0420 C   0  0  0  0  0  2  0  0  0  0  0  0
  197.5660  170.4090  145.6620 O   0  0  0  0  0  1  0  0  0  0  0  0
  188.6310  174.1680  142.7610 C   0  0  0  0  0  2  0  0  0  0  0  0
  190.7170  172.2350  142.3940 C   0  0  0  0  0  0  0  0  0  0  0  0
  191.0010  173.4580  143.2260 C   0  0  2  0  0  3  0  0  0  0  0  0
  189.6170  172.3080  141.3840 C   0  0  0  0  0  2  0  0  0  0  0  0
  194.4190  169.3210  143.9390 C   0  0  0  0  0  3  0  0  0  0  0  0
  196.8130  168.3650  144.9670 O   0  0  0  0  0  0  0  0  0  0  0  0
  195.3720  170.1730  144.5970 N   0  0  0  0  0  0  0  0  0  0  0  0
  195.1740  171.6070  144.7410 C   0  0  0  0  0  2  0  0  0  0  0  0
  192.5250  170.9880  143.4800 C   0  0  0  0  0  0  0  0  0  0  0  0
  193.8380  171.8650  145.3920 C   0  0  0  0  0  2  0  0  0  0  0  0
  192.7850  172.0000  144.3360 C   0  0  0  0  0  0  0  0  0  0  0  0
  192.3840  174.3710  145.0940 C   0  0  0  0  0  2  0  0  0  0  0  0
  190.0570  178.1950  143.7070 C   0  0  0  0  0  3  0  0  0  0  0  0
  190.9090  176.6550  146.0630 C   0  0  0  0  0  2  0  0  0  0  0  0
  186.7290  177.4150  145.3080 C   0  0  0  0  0  0  0  0  0  0  0  0
  192.5220  175.6200  144.2310 C   0  0  2  0  0  3  0  0  0  0  0  0
  187.7000  177.9160  144.4300 C   0  0  0  0  0  3  0  0  0  0  0  0
  189.0570  177.6620  144.6490 C   0  0  0  0  0  0  0  0  0  0  0  0
  193.2460  176.7100  145.0130 C   0  0  0  0  0  2  0  0  0  0  0  0
  188.4900  176.4040  146.6480 C   0  0  0  0  0  3  0  0  0  0  0  0
  189.4540  176.8920  145.7640 C   0  0  0  0  0  0  0  0  0  0  0  0
  187.1350  176.6590  146.4190 C   0  0  0  0  0  3  0  0  0  0  0  0
  191.7580  176.8110  144.7950 C   0  0  2  0  0  0  0  0  0  0  0  0
  191.3370  177.8240  143.7780 C   0  0  0  0  0  3  0  0  0  0  0  0
  185.3370  177.6770  145.0640 N   0  0  0  0  0  0  0  0  0  0  0  0
  184.4410  178.0790  146.1380 C   0  0  0  0  0  1  0  0  0  0  0  0
  184.8300  177.5470  143.8160 O   0  0  0  0  0  1  0  0  0  0  0  0
  1 18  1  0  0  0  0
  1 19  1  0  0  0  0
  2 16  1  0  0  0  0
  2 12  2  0  0  0  0
  3  7  1  0  0  0  0
  4 16  1  0  0  0  0
  6  8  1  0  0  0  0
  8  5  1  0  0  0  0
  9  4  2  0  0  0  0
  9 10  1  0  0  0  0
 10  5  1  1  0  0  0
 10  1  1  0  0  0  0
 11  6  1  0  0  0  0
 11  9  1  0  0  0  0
 12 14  1  0  0  0  0
 13  3  2  0  0  0  0
 14 15  1  0  0  0  0
 14  3  1  0  0  0  0
 15 17  1  0  0  0  0
 16 18  2  0  0  0  0
 18 17  1  0  0  0  0
 20 31  2  0  0  0  0
 20 25  1  0  0  0  0
 22 29  1  0  0  0  0
 23 30  1  0  0  0  0
 23 26  1  0  0  0  0
 23 19  1  1  0  0  0
 24 25  1  0  0  0  0
 24 22  2  0  0  0  0
 25 28  2  0  0  0  0
 28 21  1  0  0  0  0
 28 27  1  0  0  0  0
 29 27  2  0  0  0  0
 30 31  1  6  0  0  0
 30 26  1  0  0  0  0
 30 21  1  0  0  0  0
 32 22  1  0  0  0  0
 32 33  1  0  0  0  0
 34 32  1  0  0  0  0
M  END
>  <MODEL>
1

>  <REMARK>
 VINA RESULT:      -8.3      0.000      0.000
  Name = 
  3 active torsions:
  status: ('A' for Active; 'I' for Inactive)
    1  A    between atoms: N_1  and  C_9
    2  A    between atoms: C_7  and  N_11
    3  A    between atoms: C_8  and  C_9
                            x       y       z     vdW  Elec       q    Type
                         _______ _______ _______ _____ _____    ______ ____

>  <TORSDO>
F 3

$$$$
=
 OpenBabel11052420193D

 34 39  0  0  1  0  0  0  0  0999 V2000
  188.9330  175.5050  144.3960 N   0  0  0  0  0  0  0  0  0  0  0  0
  186.2860  178.0120  145.5750 C   0  0  0  0  0  3  0  0  0  0  0  0
  184.0360  178.2530  142.5900 C   0  0  0  0  0  0  0  0  0  0  0  0
  188.5640  177.4430  146.3870 C   0  0  0  0  0  3  0  0  0  0  0  0
  190.6070  174.5280  145.9330 C   0  0  0  0  0  2  0  0  0  0  0  0
  191.2900  175.7910  147.9870 C   0  0  0  0  0  2  0  0  0  0  0  0
  183.9380  177.9170  141.2440 O   0  0  0  0  0  0  0  0  0  0  0  0
  191.7630  174.8510  146.8780 C   0  0  0  0  0  2  0  0  0  0  0  0
  189.7280  176.8030  146.3590 C   0  0  0  0  0  0  0  0  0  0  0  0
  190.0680  175.8060  145.2820 C   0  0  2  0  0  3  0  0  0  0  0  0
  190.7610  177.0980  147.3980 C   0  0  0  0  0  2  0  0  0  0  0  0
  185.2920  178.2930  144.7210 C   0  0  0  0  0  3  0  0  0  0  0  0
  183.0960  178.8920  143.1340 O   0  0  0  0  0  1  0  0  0  0  0  0
  185.1950  177.8760  143.3480 N   0  0  0  0  0  0  0  0  0  0  0  0
  186.2550  177.1430  142.6730 C   0  0  0  0  0  2  0  0  0  0  0  0
  187.5100  177.1960  145.3960 C   0  0  0  0  0  0  0  0  0  0  0  0
  186.6040  175.9150  143.4760 C   0  0  0  0  0  2  0  0  0  0  0  0
  187.6890  176.2470  144.4520 C   0  0  0  0  0  0  0  0  0  0  0  0
  189.1850  174.5780  143.2940 C   0  0  0  0  0  2  0  0  0  0  0  0
  193.7380  174.6670  142.1880 C   0  0  0  0  0  3  0  0  0  0  0  0
  191.4450  172.8920  142.6790 C   0  0  0  0  0  2  0  0  0  0  0  0
  195.0330  172.5820  145.0560 C   0  0  0  0  0  0  0  0  0  0  0  0
  190.1750  175.1900  142.3100 C   0  0  2  0  0  3  0  0  0  0  0  0
  194.9560  173.5300  144.0260 C   0  0  0  0  0  3  0  0  0  0  0  0
  193.7950  173.6570  143.2600 C   0  0  0  0  0  0  0  0  0  0  0  0
  190.1840  174.3810  141.0170 C   0  0  0  0  0  2  0  0  0  0  0  0
  192.7650  171.8690  144.5420 C   0  0  0  0  0  3  0  0  0  0  0  0
  192.6850  172.8240  143.5260 C   0  0  0  0  0  0  0  0  0  0  0  0
  193.9290  171.7520  145.3060 C   0  0  0  0  0  3  0  0  0  0  0  0
  191.3330  174.2550  141.9850 C   0  0  2  0  0  0  0  0  0  0  0  0
  192.5930  174.9420  141.5610 C   0  0  0  0  0  3  0  0  0  0  0  0
  196.2310  172.4690  145.8410 N   0  0  0  0  0  0  0  0  0  0  0  0
  197.0030  173.6430  146.2190 C   0  0  0  0  0  1  0  0  0  0  0  0
  196.6700  171.2530  146.2420 O   0  0  0  0  0  1  0  0  0  0  0  0
  1 18  1  0  0  0  0
  1 10  1  0  0  0  0
  3 13  1  0  0  0  0
  3 14  1  0  0  0  0
  5  8  1  0  0  0  0
  7  3  2  0  0  0  0
  8  6  1  0  0  0  0
  9  4  2  0  0  0  0
  9 11  1  0  0  0  0
 10  5  1  1  0  0  0
 10  9  1  0  0  0  0
 11  6  1  0  0  0  0
 12  2  2  0  0  0  0
 14 12  1  0  0  0  0
 15 14  1  0  0  0  0
 15 17  1  0  0  0  0
 16  2  1  0  0  0  0
 16  4  1  0  0  0  0
 17 18  1  0  0  0  0
 18 16  2  0  0  0  0
 19  1  1  0  0  0  0
 20 25  1  0  0  0  0
 21 28  1  0  0  0  0
 22 29  1  0  0  0  0
 22 32  1  0  0  0  0
 23 19  1  1  0  0  0
 24 22  2  0  0  0  0
 25 28  2  0  0  0  0
 25 24  1  0  0  0  0
 26 23  1  0  0  0  0
 27 29  2  0  0  0  0
 28 27  1  0  0  0  0
 30 26  1  6  0  0  0
 30 23  1  0  0  0  0
 30 21  1  0  0  0  0
 31 30  1  0  0  0  0
 31 20  2  0  0  0  0
 32 33  1  0  0  0  0
 32 34  1  0  0  0  0
M  END
>  <MODEL>
2

>  <REMARK>
 VINA RESULT:      -8.2      2.029      9.111
  Name = 
  3 active torsions:
  status: ('A' for Active; 'I' for Inactive)
    1  A    between atoms: N_1  and  C_9
    2  A    between atoms: C_7  and  N_11
    3  A    between atoms: C_8  and  C_9
                            x       y       z     vdW  Elec       q    Type
                         _______ _______ _______ _____ _____    ______ ____

>  <TORSDO>
F 3

$$$$
=
 OpenBabel11052420193D

 34 39  0  0  1  0  0  0  0  0999 V2000
  189.8240  175.8860  144.2010 N   0  0  0  0  0  0  0  0  0  0  0  0
  186.1860  176.5730  143.2110 C   0  0  0  0  0  3  0  0  0  0  0  0
  184.8420  178.2770  146.2650 C   0  0  0  0  0  0  0  0  0  0  0  0
  187.9300  175.0480  142.3120 C   0  0  0  0  0  3  0  0  0  0  0  0
  191.5080  175.0860  142.5760 C   0  0  0  0  0  2  0  0  0  0  0  0
  190.7700  173.7850  140.5650 C   0  0  0  0  0  2  0  0  0  0  0  0
  185.1290  178.5580  147.5950 O   0  0  0  0  0  1  0  0  0  0  0  0
  191.8680  173.9530  141.6150 C   0  0  0  0  0  2  0  0  0  0  0  0
  189.1280  174.4740  142.2790 C   0  0  0  0  0  0  0  0  0  0  0  0
  190.1920  174.7830  143.3000 C   0  0  2  0  0  3  0  0  0  0  0  0
  189.4330  173.4570  141.2280 C   0  0  0  0  0  2  0  0  0  0  0  0
  185.4260  177.2220  144.1050 C   0  0  0  0  0  3  0  0  0  0  0  0
  183.7470  178.6670  145.7770 O   0  0  0  0  0  0  0  0  0  0  0  0
  185.7810  177.5500  145.4590 N   0  0  0  0  0  0  0  0  0  0  0  0
  187.0280  177.1180  146.0700 C   0  0  0  0  0  2  0  0  0  0  0  0
  187.5700  176.0530  143.3200 C   0  0  0  0  0  0  0  0  0  0  0  0
  188.1860  177.5460  145.2020 C   0  0  0  0  0  2  0  0  0  0  0  0
  188.4950  176.4650  144.2140 C   0  0  0  0  0  0  0  0  0  0  0  0
  190.7820  176.2250  145.2510 C   0  0  0  0  0  2  0  0  0  0  0  0
  194.5040  173.3800  145.3220 C   0  0  0  0  0  3  0  0  0  0  0  0
  193.6480  176.1800  145.5880 C   0  0  0  0  0  2  0  0  0  0  0  0
  196.4870  175.0130  142.5550 C   0  0  0  0  0  0  0  0  0  0  0  0
  191.3170  174.9570  145.9040 C   0  0  2  0  0  3  0  0  0  0  0  0
  195.9710  174.0520  143.4370 C   0  0  0  0  0  3  0  0  0  0  0  0
  195.0360  174.4100  144.4120 C   0  0  0  0  0  0  0  0  0  0  0  0
  191.9240  175.2910  147.2630 C   0  0  0  0  0  2  0  0  0  0  0  0
  195.1270  176.7120  143.6420 C   0  0  0  0  0  3  0  0  0  0  0  0
  194.6040  175.7510  144.5100 C   0  0  0  0  0  0  0  0  0  0  0  0
  196.0580  176.3440  142.6670 C   0  0  0  0  0  3  0  0  0  0  0  0
  192.8280  174.9880  146.0960 C   0  0  2  0  0  0  0  0  0  0  0  0
  193.4820  173.6420  146.1380 C   0  0  0  0  0  3  0  0  0  0  0  0
  197.4410  174.6270  141.5530 N   0  0  0  0  0  0  0  0  0  0  0  0
  197.9410  173.2640  141.4650 C   0  0  0  0  0  1  0  0  0  0  0  0
  197.8990  175.5400  140.6640 O   0  0  0  0  0  1  0  0  0  0  0  0
  1 18  1  0  0  0  0
  1 19  1  0  0  0  0
  2 16  1  0  0  0  0
  2 12  2  0  0  0  0
  3  7  1  0  0  0  0
  4 16  1  0  0  0  0
  6 11  1  0  0  0  0
  6  8  1  0  0  0  0
  8  5  1  0  0  0  0
  9  4  2  0  0  0  0
  9 10  1  0  0  0  0
 10  5  1  6  0  0  0
 10  1  1  0  0  0  0
 11  9  1  0  0  0  0
 12 14  1  0  0  0  0
 13  3  2  0  0  0  0
 14 15  1  0  0  0  0
 14  3  1  0  0  0  0
 16 18  2  0  0  0  0
 17 15  1  0  0  0  0
 18 17  1  0  0  0  0
 20 31  2  0  0  0  0
 22 29  2  0  0  0  0
 22 24  1  0  0  0  0
 23 19  1  6  0  0  0
 23 30  1  0  0  0  0
 23 26  1  0  0  0  0
 24 25  2  0  0  0  0
 25 28  1  0  0  0  0
 25 20  1  0  0  0  0
 27 28  2  0  0  0  0
 28 21  1  0  0  0  0
 29 27  1  0  0  0  0
 30 21  1  6  0  0  0
 30 31  1  0  0  0  0
 30 26  1  0  0  0  0
 32 22  1  0  0  0  0
 33 32  1  0  0  0  0
 34 32  1  0  0  0  0
M  END
>  <MODEL>
3

>  <REMARK>
 VINA RESULT:      -8.2      2.993      8.638
  Name = 
  3 active torsions:
  status: ('A' for Active; 'I' for Inactive)
    1  A    between atoms: N_1  and  C_9
    2  A    between atoms: C_7  and  N_11
    3  A    between atoms: C_8  and  C_9
                            x       y       z     vdW  Elec       q    Type
                         _______ _______ _______ _____ _____    ______ ____

>  <TORSDO>
F 3

$$$$
=
 OpenBabel11052420193D

 34 39  0  0  1  0  0  0  0  0999 V2000
  187.3240  177.3560  143.2690 N   0  0  0  0  0  0  0  0  0  0  0  0
  188.4290  174.9130  140.5320 C   0  0  0  0  0  3  0  0  0  0  0  0
  191.8650  173.9470  141.6710 C   0  0  0  0  0  0  0  0  0  0  0  0
  186.6330  176.6250  140.6530 C   0  0  0  0  0  3  0  0  0  0  0  0
  185.0010  178.1870  143.4400 C   0  0  0  0  0  2  0  0  0  0  0  0
  183.5670  178.2910  141.3870 C   0  0  0  0  0  2  0  0  0  0  0  0
  192.8710  174.2820  142.5710 O   0  0  0  0  0  1  0  0  0  0  0  0
  183.9030  178.9670  142.7170 C   0  0  0  0  0  2  0  0  0  0  0  0
  185.9350  177.6000  141.2240 C   0  0  0  0  0  0  0  0  0  0  0  0
  186.2750  178.1340  142.5910 C   0  0  2  0  0  3  0  0  0  0  0  0
  184.7980  178.2280  140.4850 C   0  0  0  0  0  2  0  0  0  0  0  0
  189.6370  174.3490  140.6730 C   0  0  0  0  0  3  0  0  0  0  0  0
  192.0510  172.9930  140.8690 O   0  0  0  0  0  0  0  0  0  0  0  0
  190.6320  174.6810  141.6570 N   0  0  0  0  0  0  0  0  0  0  0  0
  190.4680  175.7760  142.6000 C   0  0  0  0  0  2  0  0  0  0  0  0
  187.7590  175.9690  141.3270 C   0  0  0  0  0  0  0  0  0  0  0  0
  189.1630  175.6090  143.3400 C   0  0  0  0  0  2  0  0  0  0  0  0
  188.0730  176.3140  142.5950 C   0  0  0  0  0  0  0  0  0  0  0  0
  187.7480  177.8290  144.5850 C   0  0  0  0  0  2  0  0  0  0  0  0
  189.8830  174.6310  147.2620 C   0  0  0  0  0  3  0  0  0  0  0  0
  189.8850  177.4680  146.4910 C   0  0  0  0  0  2  0  0  0  0  0  0
  193.3740  175.0050  145.8740 C   0  0  0  0  0  0  0  0  0  0  0  0
  187.4750  176.7640  145.6400 C   0  0  2  0  0  3  0  0  0  0  0  0
  192.2250  174.4560  146.4610 C   0  0  0  0  0  3  0  0  0  0  0  0
  191.0800  175.2350  146.6500 C   0  0  0  0  0  0  0  0  0  0  0  0
  187.3770  177.4120  147.0160 C   0  0  0  0  0  2  0  0  0  0  0  0
  192.2260  177.1400  145.6730 C   0  0  0  0  0  3  0  0  0  0  0  0
  191.0780  176.5880  146.2440 C   0  0  0  0  0  0  0  0  0  0  0  0
  193.3650  176.3530  145.4840 C   0  0  0  0  0  3  0  0  0  0  0  0
  188.6100  176.6290  146.6460 C   0  0  2  0  0  0  0  0  0  0  0  0
  188.7190  175.2840  147.2910 C   0  0  0  0  0  3  0  0  0  0  0  0
  194.5400  174.1890  145.6790 N   0  0  0  0  0  0  0  0  0  0  0  0
  194.4310  172.7680  145.3860 C   0  0  0  0  0  1  0  0  0  0  0  0
  195.7750  174.7360  145.7700 O   0  0  0  0  0  1  0  0  0  0  0  0
  1 19  1  0  0  0  0
  2 12  2  0  0  0  0
  2 16  1  0  0  0  0
  3  7  1  0  0  0  0
  4  9  2  0  0  0  0
  4 16  1  0  0  0  0
  6  8  1  0  0  0  0
  8  5  1  0  0  0  0
  9 10  1  0  0  0  0
 10  1  1  0  0  0  0
 10  5  1  1  0  0  0
 11  9  1  0  0  0  0
 11  6  1  0  0  0  0
 12 14  1  0  0  0  0
 13  3  2  0  0  0  0
 14  3  1  0  0  0  0
 14 15  1  0  0  0  0
 15 17  1  0  0  0  0
 16 18  2  0  0  0  0
 18  1  1  0  0  0  0
 18 17  1  0  0  0  0
 20 31  2  0  0  0  0
 22 24  1  0  0  0  0
 23 19  1  6  0  0  0
 23 30  1  0  0  0  0
 23 26  1  0  0  0  0
 24 25  2  0  0  0  0
 25 20  1  0  0  0  0
 27 28  2  0  0  0  0
 28 21  1  0  0  0  0
 28 25  1  0  0  0  0
 29 27  1  0  0  0  0
 29 22  2  0  0  0  0
 30 21  1  6  0  0  0
 30 26  1  0  0  0  0
 30 31  1  0  0  0  0
 32 34  1  0  0  0  0
 32 22  1  0  0  0  0
 33 32  1  0  0  0  0
M  END
>  <MODEL>
4

>  <REMARK>
 VINA RESULT:      -8.0      3.013      6.829
  Name = 
  3 active torsions:
  status: ('A' for Active; 'I' for Inactive)
    1  A    between atoms: N_1  and  C_9
    2  A    between atoms: C_7  and  N_11
    3  A    between atoms: C_8  and  C_9
                            x       y       z     vdW  Elec       q    Type
                         _______ _______ _______ _____ _____    ______ ____

>  <TORSDO>
F 3

$$$$
=
 OpenBabel11052420193D

 34 39  0  0  1  0  0  0  0  0999 V2000
  188.4810  177.0780  144.7490 N   0  0  0  0  0  0  0  0  0  0  0  0
  187.4620  174.5970  142.0130 C   0  0  0  0  0  3  0  0  0  0  0  0
  190.7800  173.4170  140.7350 C   0  0  0  0  0  0  0  0  0  0  0  0
  186.2460  176.4130  143.1950 C   0  0  0  0  0  3  0  0  0  0  0  0
  186.8470  178.0450  146.3330 C   0  0  0  0  0  2  0  0  0  0  0  0
  184.4410  178.2530  145.6600 C   0  0  0  0  0  2  0  0  0  0  0  0
  192.1440  173.6830  140.7790 O   0  0  0  0  0  1  0  0  0  0  0  0
  185.5820  178.8960  146.4490 C   0  0  0  0  0  2  0  0  0  0  0  0
  186.1230  177.4230  144.0490 C   0  0  0  0  0  0  0  0  0  0  0  0
  187.2840  177.9230  144.8690 C   0  0  2  0  0  3  0  0  0  0  0  0
  184.8110  178.1250  144.1820 C   0  0  0  0  0  2  0  0  0  0  0  0
  188.4520  173.9610  141.3700 C   0  0  0  0  0  3  0  0  0  0  0  0
  190.3620  172.4610  140.0280 O   0  0  0  0  0  0  0  0  0  0  0  0
  189.8600  174.2240  141.4860 N   0  0  0  0  0  0  0  0  0  0  0  0
  190.3920  175.3180  142.2830 C   0  0  0  0  0  2  0  0  0  0  0  0
  187.5080  175.6840  143.0190 C   0  0  0  0  0  0  0  0  0  0  0  0
  189.8500  175.2230  143.6880 C   0  0  0  0  0  2  0  0  0  0  0  0
  188.5740  175.9990  143.7860 C   0  0  0  0  0  0  0  0  0  0  0  0
  189.6700  177.5130  145.4800 C   0  0  0  0  0  2  0  0  0  0  0  0
  192.7790  174.1620  146.5110 C   0  0  0  0  0  3  0  0  0  0  0  0
  192.4970  176.9760  145.7060 C   0  0  0  0  0  2  0  0  0  0  0  0
  194.6990  174.1840  143.2610 C   0  0  0  0  0  0  0  0  0  0  0  0
  190.0310  176.4920  146.5520 C   0  0  2  0  0  3  0  0  0  0  0  0
  194.1180  173.7550  144.4620 C   0  0  0  0  0  3  0  0  0  0  0  0
  193.3850  174.6410  145.2560 C   0  0  0  0  0  0  0  0  0  0  0  0
  190.8420  177.1660  147.6540 C   0  0  0  0  0  2  0  0  0  0  0  0
  193.8150  176.4160  143.6550 C   0  0  0  0  0  3  0  0  0  0  0  0
  193.2250  175.9830  144.8440 C   0  0  0  0  0  0  0  0  0  0  0  0
  194.5420  175.5220  142.8650 C   0  0  0  0  0  3  0  0  0  0  0  0
  191.5330  176.2640  146.6640 C   0  0  2  0  0  0  0  0  0  0  0  0
  191.9250  174.9230  147.1990 C   0  0  0  0  0  3  0  0  0  0  0  0
  195.4420  173.2580  142.4520 N   0  0  0  0  0  0  0  0  0  0  0  0
  196.8000  173.5490  142.0190 C   0  0  0  0  0  1  0  0  0  0  0  0
  194.8810  172.0870  142.0700 O   0  0  0  0  0  1  0  0  0  0  0  0
  1 10  1  0  0  0  0
  1 19  1  0  0  0  0
  2 16  1  0  0  0  0
  3  7  1  0  0  0  0
  3 14  1  0  0  0  0
  4  9  2  0  0  0  0
  5  8  1  0  0  0  0
  6  8  1  0  0  0  0
  9 11  1  0  0  0  0
  9 10  1  0  0  0  0
 10  5  1  1  0  0  0
 11  6  1  0  0  0  0
 12 14  1  0  0  0  0
 12  2  2  0  0  0  0
 13  3  2  0  0  0  0
 14 15  1  0  0  0  0
 15 17  1  0  0  0  0
 16  4  1  0  0  0  0
 16 18  2  0  0  0  0
 17 18  1  0  0  0  0
 18  1  1  0  0  0  0
 20 31  2  0  0  0  0
 22 24  1  0  0  0  0
 23 19  1  6  0  0  0
 23 30  1  0  0  0  0
 23 26  1  0  0  0  0
 24 25  2  0  0  0  0
 25 20  1  0  0  0  0
 27 28  2  0  0  0  0
 28 25  1  0  0  0  0
 28 21  1  0  0  0  0
 29 22  2  0  0  0  0
 29 27  1  0  0  0  0
 30 21  1  6  0  0  0
 30 31  1  0  0  0  0
 30 26  1  0  0  0  0
 32 22  1  0  0  0  0
 33 32  1  0  0  0  0
 34 32  1  0  0  0  0
M  END
>  <MODEL>
5

>  <REMARK>
 VINA RESULT:      -7.9      2.941      7.189
  Name = 
  3 active torsions:
  status: ('A' for Active; 'I' for Inactive)
    1  A    between atoms: N_1  and  C_9
    2  A    between atoms: C_7  and  N_11
    3  A    between atoms: C_8  and  C_9
                            x       y       z     vdW  Elec       q    Type
                         _______ _______ _______ _____ _____    ______ ____

>  <TORSDO>
F 3

$$$$
=
 OpenBabel11052420193D

 34 39  0  0  1  0  0  0  0  0999 V2000
  193.1630  173.1610  144.9890 N   0  0  0  0  0  0  0  0  0  0  0  0
  191.4030  171.2680  142.1610 C   0  0  0  0  0  3  0  0  0  0  0  0
  188.2130  173.1950  141.7820 C   0  0  0  0  0  0  0  0  0  0  0  0
  193.2800  170.6850  143.6810 C   0  0  0  0  0  3  0  0  0  0  0  0
  195.5170  172.7230  145.6100 C   0  0  0  0  0  2  0  0  0  0  0  0
  196.5190  170.4700  145.1570 C   0  0  0  0  0  2  0  0  0  0  0  0
  187.4260  174.1680  142.3880 O   0  0  0  0  0  1  0  0  0  0  0  0
  196.4910  171.6600  146.1170 C   0  0  0  0  0  2  0  0  0  0  0  0
  194.1310  170.8940  144.6800 C   0  0  0  0  0  0  0  0  0  0  0  0
  194.0980  172.1520  145.5090 C   0  0  2  0  0  3  0  0  0  0  0  0
  195.1320  169.8420  145.0330 C   0  0  0  0  0  2  0  0  0  0  0  0
  190.2170  171.7450  141.7570 C   0  0  0  0  0  3  0  0  0  0  0  0
  187.8190  172.6660  140.7080 O   0  0  0  0  0  0  0  0  0  0  0  0
  189.4580  172.7980  142.3750 N   0  0  0  0  0  0  0  0  0  0  0  0
  189.8660  173.4350  143.6180 C   0  0  0  0  0  2  0  0  0  0  0  0
  192.2750  171.6800  143.2870 C   0  0  0  0  0  0  0  0  0  0  0  0
  191.2800  173.9430  143.4790 C   0  0  0  0  0  2  0  0  0  0  0  0
  192.2390  172.8770  143.9100 C   0  0  0  0  0  0  0  0  0  0  0  0
  193.0360  174.3980  145.7580 C   0  0  0  0  0  2  0  0  0  0  0  0
  190.7590  177.9910  143.7910 C   0  0  0  0  0  3  0  0  0  0  0  0
  191.3080  176.6350  146.3420 C   0  0  0  0  0  2  0  0  0  0  0  0
  187.2650  177.0930  144.9050 C   0  0  0  0  0  0  0  0  0  0  0  0
  193.2420  175.6040  144.8500 C   0  0  2  0  0  3  0  0  0  0  0  0
  188.3350  177.6050  144.1580 C   0  0  0  0  0  3  0  0  0  0  0  0
  189.6520  177.4480  144.5990 C   0  0  0  0  0  0  0  0  0  0  0  0
  193.7760  176.7780  145.6640 C   0  0  0  0  0  2  0  0  0  0  0  0
  188.8440  176.2670  146.5610 C   0  0  0  0  0  3  0  0  0  0  0  0
  189.9090  176.7650  145.8080 C   0  0  0  0  0  0  0  0  0  0  0  0
  187.5310  176.4240  146.1100 C   0  0  0  0  0  3  0  0  0  0  0  0
  192.3380  176.7750  145.2130 C   0  0  2  0  0  0  0  0  0  0  0  0
  192.0290  177.7040  144.0810 C   0  0  0  0  0  3  0  0  0  0  0  0
  185.9180  177.2550  144.4330 N   0  0  0  0  0  0  0  0  0  0  0  0
  184.9020  177.9060  145.2470 C   0  0  0  0  0  1  0  0  0  0  0  0
  185.5670  176.7950  143.2100 O   0  0  0  0  0  1  0  0  0  0  0  0
  1 10  1  0  0  0  0
  1 19  1  0  0  0  0
  2 16  1  0  0  0  0
  3 14  1  0  0  0  0
  3  7  1  0  0  0  0
  4  9  2  0  0  0  0
  5  8  1  0  0  0  0
  6  8  1  0  0  0  0
  9 11  1  0  0  0  0
  9 10  1  0  0  0  0
 10  5  1  6  0  0  0
 11  6  1  0  0  0  0
 12  2  2  0  0  0  0
 12 14  1  0  0  0  0
 13  3  2  0  0  0  0
 14 15  1  0  0  0  0
 16  4  1  0  0  0  0
 16 18  2  0  0  0  0
 17 15  1  0  0  0  0
 17 18  1  0  0  0  0
 18  1  1  0  0  0  0
 20 31  2  0  0  0  0
 20 25  1  0  0  0  0
 22 29  1  0  0  0  0
 23 30  1  0  0  0  0
 23 26  1  0  0  0  0
 23 19  1  1  0  0  0
 24 25  1  0  0  0  0
 24 22  2  0  0  0  0
 25 28  2  0  0  0  0
 28 21  1  0  0  0  0
 28 27  1  0  0  0  0
 29 27  2  0  0  0  0
 30 31  1  6  0  0  0
 30 26  1  0  0  0  0
 30 21  1  0  0  0  0
 32 22  1  0  0  0  0
 32 33  1  0  0  0  0
 34 32  1  0  0  0  0
M  END
>  <MODEL>
6

>  <REMARK>
 VINA RESULT:      -7.8      2.870      4.768
  Name = 
  3 active torsions:
  status: ('A' for Active; 'I' for Inactive)
    1  A    between atoms: N_1  and  C_9
    2  A    between atoms: C_7  and  N_11
    3  A    between atoms: C_8  and  C_9
                            x       y       z     vdW  Elec       q    Type
                         _______ _______ _______ _____ _____    ______ ____

>  <TORSDO>
F 3

$$$$
=
 OpenBabel11052420193D

 34 39  0  0  1  0  0  0  0  0999 V2000
  191.7790  175.7440  144.1060 N   0  0  0  0  0  0  0  0  0  0  0  0
  194.8400  174.8620  146.2350 C   0  0  0  0  0  3  0  0  0  0  0  0
  196.8780  172.7890  143.8730 C   0  0  0  0  0  0  0  0  0  0  0  0
  192.5680  175.6980  146.7940 C   0  0  0  0  0  3  0  0  0  0  0  0
  190.0970  177.4060  144.8320 C   0  0  0  0  0  2  0  0  0  0  0  0
  189.7550  177.8360  147.2770 C   0  0  0  0  0  2  0  0  0  0  0  0
  196.8290  172.1270  142.6510 O   0  0  0  0  0  0  0  0  0  0  0  0
  189.0710  177.7450  145.9130 C   0  0  0  0  0  2  0  0  0  0  0  0
  191.3250  176.0810  146.5240 C   0  0  0  0  0  0  0  0  0  0  0  0
  190.7670  176.0590  145.1250 C   0  0  2  0  0  3  0  0  0  0  0  0
  190.4240  176.5100  147.6370 C   0  0  0  0  0  2  0  0  0  0  0  0
  195.7990  174.1340  145.6460 C   0  0  0  0  0  3  0  0  0  0  0  0
  197.9380  172.7440  144.5530 O   0  0  0  0  0  1  0  0  0  0  0  0
  195.7350  173.5120  144.3520 N   0  0  0  0  0  0  0  0  0  0  0  0
  194.5340  173.5290  143.5310 C   0  0  0  0  0  2  0  0  0  0  0  0
  193.5000  175.2660  145.7460 C   0  0  0  0  0  0  0  0  0  0  0  0
  194.0700  174.9540  143.3530 C   0  0  0  0  0  2  0  0  0  0  0  0
  193.1180  175.3100  144.4510 C   0  0  0  0  0  0  0  0  0  0  0  0
  191.3150  175.6600  142.7220 C   0  0  0  0  0  2  0  0  0  0  0  0
  186.7370  174.6610  142.7650 C   0  0  0  0  0  3  0  0  0  0  0  0
  188.7770  176.4080  141.5700 C   0  0  0  0  0  2  0  0  0  0  0  0
  185.4490  178.0680  143.7580 C   0  0  0  0  0  0  0  0  0  0  0  0
  190.3320  174.5060  142.5670 C   0  0  2  0  0  3  0  0  0  0  0  0
  185.5590  176.6790  143.6000 C   0  0  0  0  0  3  0  0  0  0  0  0
  186.6410  176.1250  142.9110 C   0  0  0  0  0  0  0  0  0  0  0  0
  190.0680  174.2480  141.0870 C   0  0  0  0  0  2  0  0  0  0  0  0
  187.5200  178.3540  142.5140 C   0  0  0  0  0  3  0  0  0  0  0  0
  187.6350  176.9700  142.3700 C   0  0  0  0  0  0  0  0  0  0  0  0
  186.4370  178.9000  143.2080 C   0  0  0  0  0  3  0  0  0  0  0  0
  189.0200  174.9360  141.9230 C   0  0  2  0  0  0  0  0  0  0  0  0
  187.8400  174.0870  142.2790 C   0  0  0  0  0  3  0  0  0  0  0  0
  184.3350  178.6220  144.4760 N   0  0  0  0  0  0  0  0  0  0  0  0
  184.4630  179.0530  145.8600 C   0  0  0  0  0  1  0  0  0  0  0  0
  183.1310  178.7490  143.8710 O   0  0  0  0  0  1  0  0  0  0  0  0
  1 18  1  0  0  0  0
  1 10  1  0  0  0  0
  3 14  1  0  0  0  0
  3 13  1  0  0  0  0
  5  8  1  0  0  0  0
  6 11  1  0  0  0  0
  7  3  2  0  0  0  0
  8  6  1  0  0  0  0
  9  4  2  0  0  0  0
  9 11  1  0  0  0  0
 10  5  1  6  0  0  0
 10  9  1  0  0  0  0
 12  2  2  0  0  0  0
 14 12  1  0  0  0  0
 15 14  1  0  0  0  0
 16  2  1  0  0  0  0
 16  4  1  0  0  0  0
 17 15  1  0  0  0  0
 17 18  1  0  0  0  0
 18 16  2  0  0  0  0
 19  1  1  0  0  0  0
 20 25  1  0  0  0  0
 21 30  1  0  0  0  0
 21 28  1  0  0  0  0
 22 32  1  0  0  0  0
 23 19  1  6  0  0  0
 24 22  1  0  0  0  0
 25 24  2  0  0  0  0
 26 23  1  0  0  0  0
 27 29  1  0  0  0  0
 28 27  2  0  0  0  0
 28 25  1  0  0  0  0
 29 22  2  0  0  0  0
 30 26  1  6  0  0  0
 30 31  1  0  0  0  0
 30 23  1  0  0  0  0
 31 20  2  0  0  0  0
 32 33  1  0  0  0  0
 34 32  1  0  0  0  0
M  END
>  <MODEL>
7

>  <REMARK>
 VINA RESULT:      -7.5      2.334      4.345
  Name = 
  3 active torsions:
  status: ('A' for Active; 'I' for Inactive)
    1  A    between atoms: N_1  and  C_9
    2  A    between atoms: C_7  and  N_11
    3  A    between atoms: C_8  and  C_9
                            x       y       z     vdW  Elec       q    Type
                         _______ _______ _______ _____ _____    ______ ____

>  <TORSDO>
F 3

$$$$
=
 OpenBabel11052420193D

 34 39  0  0  1  0  0  0  0  0999 V2000
  191.4220  173.3820  143.7570 N   0  0  0  0  0  0  0  0  0  0  0  0
  193.3820  170.2430  142.7660 C   0  0  0  0  0  3  0  0  0  0  0  0
  196.4150  170.4780  144.9520 C   0  0  0  0  0  0  0  0  0  0  0  0
  191.5280  171.4960  141.6860 C   0  0  0  0  0  3  0  0  0  0  0  0
  189.0980  173.7820  143.0080 C   0  0  0  0  0  2  0  0  0  0  0  0
  188.2890  172.7460  140.8740 C   0  0  0  0  0  2  0  0  0  0  0  0
  197.1100  171.3360  145.7970 O   0  0  0  0  0  1  0  0  0  0  0  0
  188.2030  173.9710  141.7840 C   0  0  0  0  0  2  0  0  0  0  0  0
  190.6440  172.4820  141.5760 C   0  0  0  0  0  0  0  0  0  0  0  0
  190.5600  173.5980  142.5850 C   0  0  2  0  0  3  0  0  0  0  0  0
  189.7240  172.5230  140.4000 C   0  0  0  0  0  2  0  0  0  0  0  0
  194.5340  170.0160  143.4140 C   0  0  0  0  0  3  0  0  0  0  0  0
  196.8710  169.3230  144.7400 O   0  0  0  0  0  0  0  0  0  0  0  0
  195.1950  170.9060  144.3300 N   0  0  0  0  0  0  0  0  0  0  0  0
  194.7120  172.2500  144.6040 C   0  0  0  0  0  2  0  0  0  0  0  0
  192.4590  171.4010  142.8180 C   0  0  0  0  0  0  0  0  0  0  0  0
  193.2650  172.1870  145.0270 C   0  0  0  0  0  2  0  0  0  0  0  0
  192.3870  172.3030  143.8210 C   0  0  0  0  0  0  0  0  0  0  0  0
  191.4340  174.4370  144.7680 C   0  0  0  0  0  2  0  0  0  0  0  0
  189.8910  178.4200  142.8420 C   0  0  0  0  0  3  0  0  0  0  0  0
  189.6640  176.6760  145.1980 C   0  0  0  0  0  2  0  0  0  0  0  0
  186.2050  177.6050  142.7910 C   0  0  0  0  0  0  0  0  0  0  0  0
  191.9170  175.7460  144.1550 C   0  0  2  0  0  3  0  0  0  0  0  0
  187.4540  178.1480  142.4590 C   0  0  0  0  0  3  0  0  0  0  0  0
  188.5880  177.8410  143.2160 C   0  0  0  0  0  0  0  0  0  0  0  0
  192.2250  176.7510  145.2600 C   0  0  0  0  0  2  0  0  0  0  0  0
  187.2310  176.4440  144.6670 C   0  0  0  0  0  3  0  0  0  0  0  0
  188.4760  176.9740  144.3260 C   0  0  0  0  0  0  0  0  0  0  0  0
  186.1030  176.7520  143.9010 C   0  0  0  0  0  3  0  0  0  0  0  0
  190.9740  176.9090  144.4340 C   0  0  2  0  0  0  0  0  0  0  0  0
  191.0200  178.0100  143.4230 C   0  0  0  0  0  3  0  0  0  0  0  0
  185.0500  177.9230  141.9970 N   0  0  0  0  0  0  0  0  0  0  0  0
  185.1460  178.1030  140.5570 C   0  0  0  0  0  1  0  0  0  0  0  0
  183.8400  178.0660  142.5850 O   0  0  0  0  0  1  0  0  0  0  0  0
  1 18  1  0  0  0  0
  1 19  1  0  0  0  0
  2 16  1  0  0  0  0
  2 12  2  0  0  0  0
  3  7  1  0  0  0  0
  4 16  1  0  0  0  0
  6  8  1  0  0  0  0
  8  5  1  0  0  0  0
  9  4  2  0  0  0  0
  9 10  1  0  0  0  0
 10  5  1  1  0  0  0
 10  1  1  0  0  0  0
 11  6  1  0  0  0  0
 11  9  1  0  0  0  0
 12 14  1  0  0  0  0
 13  3  2  0  0  0  0
 14 15  1  0  0  0  0
 14  3  1  0  0  0  0
 15 17  1  0  0  0  0
 16 18  2  0  0  0  0
 18 17  1  0  0  0  0
 20 25  1  0  0  0  0
 20 31  2  0  0  0  0
 22 29  1  0  0  0  0
 23 30  1  0  0  0  0
 23 19  1  1  0  0  0
 23 26  1  0  0  0  0
 24 22  2  0  0  0  0
 24 25  1  0  0  0  0
 25 28  2  0  0  0  0
 28 27  1  0  0  0  0
 28 21  1  0  0  0  0
 29 27  2  0  0  0  0
 30 31  1  6  0  0  0
 30 21  1  0  0  0  0
 30 26  1  0  0  0  0
 32 34  1  0  0  0  0
 32 22  1  0  0  0  0
 33 32  1  0  0  0  0
M  END
>  <MODEL>
8

>  <REMARK>
 VINA RESULT:      -7.5      1.423      1.667
  Name = 
  3 active torsions:
  status: ('A' for Active; 'I' for Inactive)
    1  A    between atoms: N_1  and  C_9
    2  A    between atoms: C_7  and  N_11
    3  A    between atoms: C_8  and  C_9
                            x       y       z     vdW  Elec       q    Type
                         _______ _______ _______ _____ _____    ______ ____

>  <TORSDO>
F 3

$$$$
=
 OpenBabel11052420193D

 34 39  0  0  1  0  0  0  0  0999 V2000
  191.0070  172.6030  143.5110 N   0  0  0  0  0  0  0  0  0  0  0  0
  189.3470  173.1020  140.0940 C   0  0  0  0  0  3  0  0  0  0  0  0
  187.3780  176.2450  140.6210 C   0  0  0  0  0  0  0  0  0  0  0  0
  190.4250  171.1480  141.1870 C   0  0  0  0  0  3  0  0  0  0  0  0
  192.7740  170.9130  143.8890 C   0  0  0  0  0  2  0  0  0  0  0  0
  192.8670  168.8710  142.4390 C   0  0  0  0  0  2  0  0  0  0  0  0
  186.9290  177.1220  141.6020 O   0  0  0  0  0  1  0  0  0  0  0  0
  193.0940  169.4200  143.8480 C   0  0  0  0  0  2  0  0  0  0  0  0
  191.0300  170.5050  142.1800 C   0  0  0  0  0  0  0  0  0  0  0  0
  191.3120  171.1640  143.5050 C   0  0  2  0  0  3  0  0  0  0  0  0
  191.4140  169.0720  142.0080 C   0  0  0  0  0  2  0  0  0  0  0  0
  188.5810  174.1920  139.9450 C   0  0  0  0  0  3  0  0  0  0  0  0
  187.0670  176.4570  139.4190 O   0  0  0  0  0  0  0  0  0  0  0  0
  188.1850  175.1130  140.9760 N   0  0  0  0  0  0  0  0  0  0  0  0
  188.5130  174.9090  142.3780 C   0  0  0  0  0  2  0  0  0  0  0  0
  190.0230  172.5560  141.2950 C   0  0  0  0  0  0  0  0  0  0  0  0
  190.0020  174.7110  142.5210 C   0  0  0  0  0  2  0  0  0  0  0  0
  190.3250  173.2540  142.4110 C   0  0  0  0  0  0  0  0  0  0  0  0
  191.2110  173.3140  144.7720 C   0  0  0  0  0  2  0  0  0  0  0  0
  190.4790  177.9400  144.6380 C   0  0  0  0  0  3  0  0  0  0  0  0
  190.1610  175.5300  146.2930 C   0  0  0  0  0  2  0  0  0  0  0  0
  186.7420  177.9130  145.1730 C   0  0  0  0  0  0  0  0  0  0  0  0
  191.9190  174.6390  144.5190 C   0  0  2  0  0  3  0  0  0  0  0  0
  188.0250  178.2930  144.7570 C   0  0  0  0  0  3  0  0  0  0  0  0
  189.1410  177.5220  145.0950 C   0  0  0  0  0  0  0  0  0  0  0  0
  192.6350  175.0920  145.7870 C   0  0  0  0  0  2  0  0  0  0  0  0
  187.6990  175.9740  146.2870 C   0  0  0  0  0  3  0  0  0  0  0  0
  188.9740  176.3460  145.8600 C   0  0  0  0  0  0  0  0  0  0  0  0
  186.5880  176.7490  145.9420 C   0  0  0  0  0  3  0  0  0  0  0  0
  191.3580  175.7750  145.3670 C   0  0  2  0  0  0  0  0  0  0  0  0
  191.5370  177.1400  144.7810 C   0  0  0  0  0  3  0  0  0  0  0  0
  185.6040  178.7120  144.8110 N   0  0  0  0  0  0  0  0  0  0  0  0
  184.3940  178.7190  145.6190 C   0  0  0  0  0  1  0  0  0  0  0  0
  185.6380  179.4770  143.6950 O   0  0  0  0  0  1  0  0  0  0  0  0
  1 19  1  0  0  0  0
  2 16  1  0  0  0  0
  3 14  1  0  0  0  0
  3  7  1  0  0  0  0
  4 16  1  0  0  0  0
  4  9  2  0  0  0  0
  6  8  1  0  0  0  0
  8  5  1  0  0  0  0
  9 10  1  0  0  0  0
 10  1  1  0  0  0  0
 10  5  1  6  0  0  0
 11  9  1  0  0  0  0
 11  6  1  0  0  0  0
 12  2  2  0  0  0  0
 12 14  1  0  0  0  0
 13  3  2  0  0  0  0
 14 15  1  0  0  0  0
 15 17  1  0  0  0  0
 16 18  2  0  0  0  0
 18 17  1  0  0  0  0
 18  1  1  0  0  0  0
 20 31  2  0  0  0  0
 20 25  1  0  0  0  0
 22 29  1  0  0  0  0
 23 19  1  1  0  0  0
 23 30  1  0  0  0  0
 23 26  1  0  0  0  0
 24 25  1  0  0  0  0
 24 22  2  0  0  0  0
 25 28  2  0  0  0  0
 28 27  1  0  0  0  0
 28 21  1  0  0  0  0
 29 27  2  0  0  0  0
 30 31  1  6  0  0  0
 30 26  1  0  0  0  0
 30 21  1  0  0  0  0
 32 22  1  0  0  0  0
 32 33  1  0  0  0  0
 34 32  1  0  0  0  0
M  END
>  <MODEL>
9

>  <REMARK>
 VINA RESULT:      -7.1      3.620      5.373
  Name = 
  3 active torsions:
  status: ('A' for Active; 'I' for Inactive)
    1  A    between atoms: N_1  and  C_9
    2  A    between atoms: C_7  and  N_11
    3  A    between atoms: C_8  and  C_9
                            x       y       z     vdW  Elec       q    Type
                         _______ _______ _______ _____ _____    ______ ____

>  <TORSDO>
F 3

$$$$
