=
 OpenBabel11052420123D

 37 39  0  0  1  0  0  0  0  0999 V2000
  188.8960  175.2070  141.3350 O   0  0  0  0  0  0  0  0  0  0  0  0
  189.3470  177.1470  142.4500 O   0  0  0  0  0  1  0  0  0  0  0  0
  190.5420  173.8440  142.9260 C   0  0  1  0  0  3  0  0  0  0  0  0
  188.4900  176.0430  142.4080 C   0  0  2  0  0  0  0  0  0  0  0  0
  188.4440  173.9870  141.5820 O   0  0  0  0  0  0  0  0  0  0  0  0
  189.5610  173.1920  141.9200 C   0  0  2  0  0  3  0  0  0  0  0  0
  188.5620  175.3160  143.7680 C   0  0  0  0  0  2  0  0  0  0  0  0
  191.6340  174.6080  142.1980 C   0  0  0  0  0  1  0  0  0  0  0  0
  189.9370  174.7060  144.0520 C   0  0  1  0  0  3  0  0  0  0  0  0
  189.1200  171.9670  142.4210 O   0  0  0  0  0  0  0  0  0  0  0  0
  190.2180  171.1140  142.3080 C   0  0  0  0  0  1  0  0  0  0  0  0
  187.0670  177.7060  141.3900 O   0  0  0  0  0  1  0  0  0  0  0  0
  187.0560  176.5300  142.1550 C   0  0  2  0  0  3  0  0  0  0  0  0
  184.4780  177.8470  145.6870 O   0  0  0  0  0  1  0  0  0  0  0  0
  185.0530  177.6030  143.2980 C   0  0  2  0  0  3  0  0  0  0  0  0
  184.9300  178.4710  144.5240 C   0  0  0  0  0  0  0  0  0  0  0  0
  184.5670  179.8020  144.3130 O   0  0  0  0  0  1  0  0  0  0  0  0
  186.2430  176.6720  143.4590 C   0  0  2  0  0  3  0  0  0  0  0  0
  186.3020  178.0740  144.0440 C   0  0  1  0  0  3  0  0  0  0  0  0
  189.9050  173.9420  145.3670 C   0  0  0  0  0  2  0  0  0  0  0  0
  189.8150  174.8940  146.5170 C   0  0  0  0  0  0  0  0  0  0  0  0
  188.8970  174.7970  147.3160 O   0  0  0  0  0  0  0  0  0  0  0  0
  190.7710  176.5140  147.9720 O   0  0  0  0  0  1  0  0  0  0  0  0
  190.8770  175.9360  146.7040 C   0  0  1  0  0  3  0  0  0  0  0  0
  192.2500  175.3100  146.5190 C   0  0  0  0  0  2  0  0  0  0  0  0
  193.1570  176.2050  145.7330 C   0  0  0  0  0  0  0  0  0  0  0  0
  192.7300  176.8190  144.7690 O   0  0  0  0  0  0  0  0  0  0  0  0
  194.5970  176.3200  146.1190 C   0  0  0  0  0  2  0  0  0  0  0  0
  195.3160  174.9930  145.9190 C   0  0  0  0  0  2  0  0  0  0  0  0
  195.4170  174.6710  144.4370 C   0  0  0  0  0  2  0  0  0  0  0  0
  194.9050  172.8260  142.8210 C   0  0  0  0  0  1  0  0  0  0  0  0
  195.4480  173.1680  144.2010 C   0  0  2  0  0  3  0  0  0  0  0  0
  192.9820  172.1390  144.8440 Cl  0  0  0  0  0  0  0  0  0  0  0  0
  194.6940  172.3870  145.2860 C   0  0  1  0  0  3  0  0  0  0  0  0
  197.1140  170.8160  145.4310 S   0  0  0  0  0  1  0  0  0  0  0  0
  194.6950  170.2330  146.2490 O   0  0  0  0  0  0  0  0  0  0  0  0
  195.3590  171.0990  145.6990 C   0  0  0  0  0  0  0  0  0  0  0  0
  1  5  1  0  0  0  0
  1  4  1  0  0  0  0
  3  8  1  6  0  0  0
  3  9  1  0  0  0  0
  4  2  1  1  0  0  0
  4  7  1  0  0  0  0
  5  6  1  0  0  0  0
  6 10  1  1  0  0  0
  6  3  1  0  0  0  0
  7  9  1  0  0  0  0
  9 20  1  1  0  0  0
 11 10  1  0  0  0  0
 13 12  1  1  0  0  0
 13  4  1  0  0  0  0
 15 18  1  0  0  0  0
 15 19  1  0  0  0  0
 15 16  1  1  0  0  0
 16 14  1  0  0  0  0
 17 16  1  0  0  0  0
 18 13  1  6  0  0  0
 18 19  1  0  0  0  0
 19 16  1  1  0  0  0
 20 21  1  0  0  0  0
 21 24  1  0  0  0  0
 21 22  2  0  0  0  0
 24 23  1  1  0  0  0
 25 24  1  0  0  0  0
 26 28  1  0  0  0  0
 26 25  1  0  0  0  0
 27 26  2  0  0  0  0
 29 28  1  0  0  0  0
 30 29  1  0  0  0  0
 32 31  1  6  0  0  0
 32 30  1  0  0  0  0
 32 34  1  0  0  0  0
 34 33  1  6  0  0  0
 34 37  1  0  0  0  0
 35 37  1  0  0  0  0
 37 36  2  0  0  0  0
M  END
>  <MODEL>
1

>  <REMARK>
 VINA RESULT:      -6.3      0.000      0.000
  Name = 
  14 active torsions:
  status: ('A' for Active; 'I' for Inactive)
    1  A    between atoms: C_1  and  C_5
    2  A    between atoms: C_1  and  C_36
    3  A    between atoms: O_4  and  C_28
    4  A    between atoms: C_5  and  C_17
    5  A    between atoms: C_7  and  C_27
    6  A    between atoms: C_7  and  C_33
    7  A    between atoms: C_11  and  C_26
    8  A    between atoms: C_11  and  C_33
    9  A    between atoms: C_17  and  C_26
   10  A    between atoms: C_18  and  C_19
   11  A    between atoms: C_18  and  C_35
   12  A    between atoms: C_20  and  C_24
   13  A    between atoms: C_24  and  C_30
   14  A    between atoms: C_27  and  C_35
                            x       y       z     vdW  Elec       q    Type
                         _______ _______ _______ _____ _____    ______ ____

>  <TORSDO>
F 14

$$$$
=
 OpenBabel11052420123D

 37 39  0  0  1  0  0  0  0  0999 V2000
  189.5250  177.2600  146.6970 O   0  0  0  0  0  0  0  0  0  0  0  0
  188.0960  175.6000  147.3390 O   0  0  0  0  0  1  0  0  0  0  0  0
  191.1950  175.4820  145.6210 C   0  0  1  0  0  3  0  0  0  0  0  0
  188.3960  176.4920  146.3060 C   0  0  2  0  0  0  0  0  0  0  0  0
  190.0970  177.7240  145.5960 O   0  0  0  0  0  0  0  0  0  0  0  0
  191.3060  177.0150  145.4270 C   0  0  2  0  0  3  0  0  0  0  0  0
  188.6650  175.6800  145.0200 C   0  0  0  0  0  2  0  0  0  0  0  0
  191.4740  175.0990  147.0640 C   0  0  0  0  0  1  0  0  0  0  0  0
  189.9100  174.7940  145.1180 C   0  0  1  0  0  3  0  0  0  0  0  0
  191.8290  177.2920  144.1630 O   0  0  0  0  0  0  0  0  0  0  0  0
  191.0100  178.2950  143.6450 C   0  0  0  0  0  1  0  0  0  0  0  0
  186.0810  176.9670  146.7970 O   0  0  0  0  0  1  0  0  0  0  0  0
  187.1990  177.4290  146.0870 C   0  0  2  0  0  3  0  0  0  0  0  0
  185.4610  178.4390  141.9860 O   0  0  0  0  0  1  0  0  0  0  0  0
  185.9690  178.8440  144.3680 C   0  0  2  0  0  3  0  0  0  0  0  0
  184.9730  178.4940  143.2920 C   0  0  0  0  0  0  0  0  0  0  0  0
  183.6650  178.9400  143.4830 O   0  0  0  0  0  1  0  0  0  0  0  0
  186.9020  177.6670  144.5910 C   0  0  2  0  0  3  0  0  0  0  0  0
  185.4490  177.4130  144.2280 C   0  0  1  0  0  3  0  0  0  0  0  0
  190.1520  174.0910  143.7910 C   0  0  0  0  0  2  0  0  0  0  0  0
  189.6150  172.6950  143.8400 C   0  0  0  0  0  0  0  0  0  0  0  0
  189.5690  172.0990  144.9050 O   0  0  0  0  0  0  0  0  0  0  0  0
  187.8540  172.5900  142.2460 O   0  0  0  0  0  1  0  0  0  0  0  0
  189.0980  172.0530  142.5880 C   0  0  1  0  0  3  0  0  0  0  0  0
  190.0930  172.2590  141.4560 C   0  0  0  0  0  2  0  0  0  0  0  0
  191.2720  171.3460  141.5930 C   0  0  0  0  0  0  0  0  0  0  0  0
  191.1060  170.1530  141.7930 O   0  0  0  0  0  0  0  0  0  0  0  0
  192.6550  171.9080  141.5110 C   0  0  0  0  0  2  0  0  0  0  0  0
  193.2310  172.1260  142.9030 C   0  0  0  0  0  2  0  0  0  0  0  0
  193.6700  173.5730  143.0660 C   0  0  0  0  0  2  0  0  0  0  0  0
  194.1290  173.0160  145.4660 C   0  0  0  0  0  1  0  0  0  0  0  0
  194.6470  173.7230  144.2230 C   0  0  2  0  0  3  0  0  0  0  0  0
  194.8910  175.5230  146.2860 Cl  0  0  0  0  0  0  0  0  0  0  0  0
  194.9680  175.1920  144.5340 C   0  0  1  0  0  3  0  0  0  0  0  0
  197.7210  174.6530  143.8440 S   0  0  0  0  0  1  0  0  0  0  0  0
  196.2980  176.8170  143.4560 O   0  0  0  0  0  0  0  0  0  0  0  0
  196.2550  175.6890  143.9250 C   0  0  0  0  0  0  0  0  0  0  0  0
  3  8  1  1  0  0  0
  4  1  1  0  0  0  0
  4  2  1  1  0  0  0
  5  1  1  0  0  0  0
  6 10  1  6  0  0  0
  6  5  1  0  0  0  0
  6  3  1  0  0  0  0
  7  9  1  0  0  0  0
  7  4  1  0  0  0  0
  9 20  1  6  0  0  0
  9  3  1  0  0  0  0
 11 10  1  0  0  0  0
 13  4  1  0  0  0  0
 13 12  1  6  0  0  0
 14 16  1  0  0  0  0
 15 16  1  6  0  0  0
 15 18  1  0  0  0  0
 16 17  1  0  0  0  0
 18 13  1  1  0  0  0
 19 16  1  6  0  0  0
 19 15  1  0  0  0  0
 19 18  1  0  0  0  0
 20 21  1  0  0  0  0
 21 22  2  0  0  0  0
 24 23  1  6  0  0  0
 24 21  1  0  0  0  0
 25 26  1  0  0  0  0
 25 24  1  0  0  0  0
 26 27  2  0  0  0  0
 28 26  1  0  0  0  0
 28 29  1  0  0  0  0
 29 30  1  0  0  0  0
 30 32  1  0  0  0  0
 32 34  1  0  0  0  0
 32 31  1  1  0  0  0
 34 33  1  1  0  0  0
 35 37  1  0  0  0  0
 36 37  2  0  0  0  0
 37 34  1  0  0  0  0
M  END
>  <MODEL>
2

>  <REMARK>
 VINA RESULT:      -6.3      2.082      4.665
  Name = 
  14 active torsions:
  status: ('A' for Active; 'I' for Inactive)
    1  A    between atoms: C_1  and  C_5
    2  A    between atoms: C_1  and  C_36
    3  A    between atoms: O_4  and  C_28
    4  A    between atoms: C_5  and  C_17
    5  A    between atoms: C_7  and  C_27
    6  A    between atoms: C_7  and  C_33
    7  A    between atoms: C_11  and  C_26
    8  A    between atoms: C_11  and  C_33
    9  A    between atoms: C_17  and  C_26
   10  A    between atoms: C_18  and  C_19
   11  A    between atoms: C_18  and  C_35
   12  A    between atoms: C_20  and  C_24
   13  A    between atoms: C_24  and  C_30
   14  A    between atoms: C_27  and  C_35
                            x       y       z     vdW  Elec       q    Type
                         _______ _______ _______ _____ _____    ______ ____

>  <TORSDO>
F 14

$$$$
=
 OpenBabel11052420123D

 37 39  0  0  1  0  0  0  0  0999 V2000
  189.4080  177.3260  146.9230 O   0  0  0  0  0  0  0  0  0  0  0  0
  187.9950  175.6630  147.5940 O   0  0  0  0  0  1  0  0  0  0  0  0
  191.0950  175.5460  145.8780 C   0  0  1  0  0  3  0  0  0  0  0  0
  188.2870  176.5400  146.5460 C   0  0  2  0  0  0  0  0  0  0  0  0
  189.9750  177.7760  145.8150 O   0  0  0  0  0  0  0  0  0  0  0  0
  191.1910  177.0760  145.6570 C   0  0  2  0  0  3  0  0  0  0  0  0
  188.5640  175.7090  145.2740 C   0  0  0  0  0  2  0  0  0  0  0  0
  191.3780  175.1910  147.3270 C   0  0  0  0  0  1  0  0  0  0  0  0
  189.8160  174.8370  145.3870 C   0  0  1  0  0  3  0  0  0  0  0  0
  191.7110  177.3360  144.3880 O   0  0  0  0  0  0  0  0  0  0  0  0
  190.8220  178.2440  143.8130 C   0  0  0  0  0  1  0  0  0  0  0  0
  185.9480  176.9610  146.9700 O   0  0  0  0  0  1  0  0  0  0  0  0
  187.0810  177.4620  146.3120 C   0  0  2  0  0  3  0  0  0  0  0  0
  185.4650  178.5570  142.1830 O   0  0  0  0  0  1  0  0  0  0  0  0
  185.8890  178.9060  144.5900 C   0  0  2  0  0  3  0  0  0  0  0  0
  184.9330  178.5720  143.4730 C   0  0  0  0  0  0  0  0  0  0  0  0
  183.6140  178.9960  143.6310 O   0  0  0  0  0  1  0  0  0  0  0  0
  186.8300  177.7340  144.8130 C   0  0  2  0  0  3  0  0  0  0  0  0
  185.3920  177.4730  144.3960 C   0  0  1  0  0  3  0  0  0  0  0  0
  190.0660  174.1130  144.0720 C   0  0  0  0  0  2  0  0  0  0  0  0
  190.4060  172.6790  144.3280 C   0  0  0  0  0  0  0  0  0  0  0  0
  189.6250  171.9710  144.9460 O   0  0  0  0  0  0  0  0  0  0  0  0
  191.9090  172.5710  142.4890 O   0  0  0  0  0  1  0  0  0  0  0  0
  191.6830  172.1100  143.7890 C   0  0  1  0  0  3  0  0  0  0  0  0
  192.8410  172.4950  144.6960 C   0  0  0  0  0  2  0  0  0  0  0  0
  193.7610  171.3370  144.9300 C   0  0  0  0  0  0  0  0  0  0  0  0
  193.4190  170.2070  144.6170 O   0  0  0  0  0  0  0  0  0  0  0  0
  195.0900  171.5680  145.5740 C   0  0  0  0  0  2  0  0  0  0  0  0
  195.9410  172.5060  144.7300 C   0  0  0  0  0  2  0  0  0  0  0  0
  196.4830  173.6360  145.5900 C   0  0  0  0  0  2  0  0  0  0  0  0
  194.7990  175.4690  145.8770 C   0  0  0  0  0  1  0  0  0  0  0  0
  196.0060  174.9900  145.0840 C   0  0  2  0  0  3  0  0  0  0  0  0
  193.9870  175.3950  143.2640 Cl  0  0  0  0  0  0  0  0  0  0  0  0
  195.6940  174.9800  143.5820 C   0  0  1  0  0  3  0  0  0  0  0  0
  196.7070  175.6390  140.9580 S   0  0  0  0  0  1  0  0  0  0  0  0
  197.3600  176.6260  143.2940 O   0  0  0  0  0  0  0  0  0  0  0  0
  196.6380  175.8070  142.7460 C   0  0  0  0  0  0  0  0  0  0  0  0
  3  8  1  1  0  0  0
  4  1  1  0  0  0  0
  4  2  1  1  0  0  0
  5  1  1  0  0  0  0
  6 10  1  6  0  0  0
  6  5  1  0  0  0  0
  6  3  1  0  0  0  0
  7  9  1  0  0  0  0
  7  4  1  0  0  0  0
  9 20  1  6  0  0  0
  9  3  1  0  0  0  0
 11 10  1  0  0  0  0
 13  4  1  0  0  0  0
 13 12  1  6  0  0  0
 14 16  1  0  0  0  0
 15 16  1  6  0  0  0
 15 18  1  0  0  0  0
 16 17  1  0  0  0  0
 18 13  1  1  0  0  0
 19 16  1  6  0  0  0
 19 15  1  0  0  0  0
 19 18  1  0  0  0  0
 20 21  1  0  0  0  0
 21 22  2  0  0  0  0
 24 23  1  6  0  0  0
 24 21  1  0  0  0  0
 24 25  1  0  0  0  0
 25 26  1  0  0  0  0
 26 28  1  0  0  0  0
 27 26  2  0  0  0  0
 29 28  1  0  0  0  0
 29 30  1  0  0  0  0
 32 30  1  0  0  0  0
 32 31  1  1  0  0  0
 34 33  1  1  0  0  0
 34 32  1  0  0  0  0
 35 37  1  0  0  0  0
 37 36  2  0  0  0  0
 37 34  1  0  0  0  0
M  END
>  <MODEL>
3

>  <REMARK>
 VINA RESULT:      -6.2      2.254      4.510
  Name = 
  14 active torsions:
  status: ('A' for Active; 'I' for Inactive)
    1  A    between atoms: C_1  and  C_5
    2  A    between atoms: C_1  and  C_36
    3  A    between atoms: O_4  and  C_28
    4  A    between atoms: C_5  and  C_17
    5  A    between atoms: C_7  and  C_27
    6  A    between atoms: C_7  and  C_33
    7  A    between atoms: C_11  and  C_26
    8  A    between atoms: C_11  and  C_33
    9  A    between atoms: C_17  and  C_26
   10  A    between atoms: C_18  and  C_19
   11  A    between atoms: C_18  and  C_35
   12  A    between atoms: C_20  and  C_24
   13  A    between atoms: C_24  and  C_30
   14  A    between atoms: C_27  and  C_35
                            x       y       z     vdW  Elec       q    Type
                         _______ _______ _______ _____ _____    ______ ____

>  <TORSDO>
F 14

$$$$
=
 OpenBabel11052420123D

 37 39  0  0  1  0  0  0  0  0999 V2000
  192.2790  175.6870  146.1910 O   0  0  0  0  0  0  0  0  0  0  0  0
  190.4340  174.3490  146.3170 O   0  0  0  0  0  1  0  0  0  0  0  0
  193.3800  174.0910  144.3630 C   0  0  1  0  0  3  0  0  0  0  0  0
  190.9810  175.4570  145.6640 C   0  0  2  0  0  0  0  0  0  0  0  0
  192.9640  176.3710  145.2880 O   0  0  0  0  0  0  0  0  0  0  0  0
  193.9230  175.4910  144.7410 C   0  0  2  0  0  3  0  0  0  0  0  0
  191.0140  175.1640  144.1480 C   0  0  0  0  0  2  0  0  0  0  0  0
  193.5320  173.1220  145.5220 C   0  0  0  0  0  1  0  0  0  0  0  0
  191.9550  174.0150  143.7780 C   0  0  1  0  0  3  0  0  0  0  0  0
  194.5090  176.0860  143.6220 O   0  0  0  0  0  0  0  0  0  0  0  0
  195.7440  176.5570  144.0690 C   0  0  0  0  0  1  0  0  0  0  0  0
  190.2820  177.1350  147.2530 O   0  0  0  0  0  1  0  0  0  0  0  0
  190.1000  176.6850  145.9360 C   0  0  2  0  0  3  0  0  0  0  0  0
  185.5440  176.4430  145.7260 O   0  0  0  0  0  1  0  0  0  0  0  0
  187.7170  177.5680  146.0520 C   0  0  2  0  0  3  0  0  0  0  0  0
  186.4500  176.9950  146.6320 C   0  0  0  0  0  0  0  0  0  0  0  0
  185.9370  177.6280  147.7650 O   0  0  0  0  0  1  0  0  0  0  0  0
  188.6160  176.4350  145.5900 C   0  0  2  0  0  3  0  0  0  0  0  0
  187.7440  176.2460  146.8200 C   0  0  1  0  0  3  0  0  0  0  0  0
  191.9950  173.8420  142.2670 C   0  0  0  0  0  2  0  0  0  0  0  0
  191.8150  172.4000  141.9080 C   0  0  0  0  0  0  0  0  0  0  0  0
  192.7220  171.6070  142.1080 O   0  0  0  0  0  0  0  0  0  0  0  0
  190.5830  170.5790  141.0030 O   0  0  0  0  0  1  0  0  0  0  0  0
  190.5080  171.9320  141.3430 C   0  0  1  0  0  3  0  0  0  0  0  0
  189.3980  172.1620  142.3570 C   0  0  0  0  0  2  0  0  0  0  0  0
  188.2850  172.9760  141.7730 C   0  0  0  0  0  0  0  0  0  0  0  0
  187.1220  172.6810  141.9990 O   0  0  0  0  0  0  0  0  0  0  0  0
  188.6060  174.1370  140.8870 C   0  0  0  0  0  2  0  0  0  0  0  0
  188.3460  175.4530  141.6090 C   0  0  0  0  0  2  0  0  0  0  0  0
  187.4260  176.3310  140.7770 C   0  0  0  0  0  2  0  0  0  0  0  0
  188.4990  178.0250  142.2800 C   0  0  0  0  0  1  0  0  0  0  0  0
  187.3170  177.7290  141.3690 C   0  0  2  0  0  3  0  0  0  0  0  0
  186.1540  179.2040  143.3760 Cl  0  0  0  0  0  0  0  0  0  0  0  0
  185.9940  177.9500  142.1160 C   0  0  1  0  0  3  0  0  0  0  0  0
  183.1310  178.2290  141.8570 S   0  0  0  0  0  1  0  0  0  0  0  0
  184.9960  178.4200  140.0290 O   0  0  0  0  0  0  0  0  0  0  0  0
  184.8100  178.2050  141.2180 C   0  0  0  0  0  0  0  0  0  0  0  0
  3  6  1  0  0  0  0
  3  8  1  1  0  0  0
  4 13  1  0  0  0  0
  4  1  1  0  0  0  0
  4  2  1  1  0  0  0
  5  1  1  0  0  0  0
  6 10  1  6  0  0  0
  6  5  1  0  0  0  0
  7  4  1  0  0  0  0
  9 20  1  6  0  0  0
  9  7  1  0  0  0  0
  9  3  1  0  0  0  0
 10 11  1  0  0  0  0
 13 12  1  1  0  0  0
 14 16  1  0  0  0  0
 15 16  1  6  0  0  0
 15 19  1  0  0  0  0
 16 17  1  0  0  0  0
 18 13  1  1  0  0  0
 18 15  1  0  0  0  0
 18 19  1  0  0  0  0
 19 16  1  6  0  0  0
 21 22  2  0  0  0  0
 21 20  1  0  0  0  0
 24 23  1  1  0  0  0
 24 21  1  0  0  0  0
 24 25  1  0  0  0  0
 26 27  2  0  0  0  0
 26 25  1  0  0  0  0
 28 29  1  0  0  0  0
 28 26  1  0  0  0  0
 30 32  1  0  0  0  0
 30 29  1  0  0  0  0
 32 34  1  0  0  0  0
 32 31  1  1  0  0  0
 34 33  1  1  0  0  0
 36 37  2  0  0  0  0
 37 35  1  0  0  0  0
 37 34  1  0  0  0  0
M  END
>  <MODEL>
4

>  <REMARK>
 VINA RESULT:      -6.0      3.779      7.427
  Name = 
  14 active torsions:
  status: ('A' for Active; 'I' for Inactive)
    1  A    between atoms: C_1  and  C_5
    2  A    between atoms: C_1  and  C_36
    3  A    between atoms: O_4  and  C_28
    4  A    between atoms: C_5  and  C_17
    5  A    between atoms: C_7  and  C_27
    6  A    between atoms: C_7  and  C_33
    7  A    between atoms: C_11  and  C_26
    8  A    between atoms: C_11  and  C_33
    9  A    between atoms: C_17  and  C_26
   10  A    between atoms: C_18  and  C_19
   11  A    between atoms: C_18  and  C_35
   12  A    between atoms: C_20  and  C_24
   13  A    between atoms: C_24  and  C_30
   14  A    between atoms: C_27  and  C_35
                            x       y       z     vdW  Elec       q    Type
                         _______ _______ _______ _____ _____    ______ ____

>  <TORSDO>
F 14

$$$$
=
 OpenBabel11052420123D

 37 39  0  0  1  0  0  0  0  0999 V2000
  188.8540  175.3230  141.2900 O   0  0  0  0  0  0  0  0  0  0  0  0
  189.4230  177.2340  142.4010 O   0  0  0  0  0  1  0  0  0  0  0  0
  190.4880  173.8800  142.8230 C   0  0  1  0  0  3  0  0  0  0  0  0
  188.5180  176.1690  142.3790 C   0  0  2  0  0  0  0  0  0  0  0  0
  188.3580  174.1220  141.5450 O   0  0  0  0  0  0  0  0  0  0  0  0
  189.4490  173.2780  141.8450 C   0  0  2  0  0  3  0  0  0  0  0  0
  188.6000  175.4300  143.7330 C   0  0  0  0  0  2  0  0  0  0  0  0
  191.5890  174.6010  142.0660 C   0  0  0  0  0  1  0  0  0  0  0  0
  189.9550  174.7610  143.9710 C   0  0  1  0  0  3  0  0  0  0  0  0
  188.9710  172.0690  142.3520 O   0  0  0  0  0  0  0  0  0  0  0  0
  190.0880  171.2360  142.4140 C   0  0  0  0  0  1  0  0  0  0  0  0
  187.1440  177.9420  141.4860 O   0  0  0  0  0  1  0  0  0  0  0  0
  187.1000  176.7190  142.1730 C   0  0  2  0  0  3  0  0  0  0  0  0
  184.4910  177.8450  145.7480 O   0  0  0  0  0  1  0  0  0  0  0  0
  185.0390  177.6350  143.3510 C   0  0  2  0  0  3  0  0  0  0  0  0
  184.8700  178.4970  144.5750 C   0  0  0  0  0  0  0  0  0  0  0  0
  184.3990  179.7940  144.3670 O   0  0  0  0  0  1  0  0  0  0  0  0
  186.3020  176.8030  143.4920 C   0  0  2  0  0  3  0  0  0  0  0  0
  186.2600  178.2080  144.0710 C   0  0  1  0  0  3  0  0  0  0  0  0
  189.9300  173.9890  145.2830 C   0  0  0  0  0  2  0  0  0  0  0  0
  189.9100  174.9380  146.4400 C   0  0  0  0  0  0  0  0  0  0  0  0
  189.1960  174.7060  147.4030 O   0  0  0  0  0  0  0  0  0  0  0  0
  190.1650  177.2190  147.0600 O   0  0  0  0  0  1  0  0  0  0  0  0
  190.7980  176.1460  146.4270 C   0  0  1  0  0  3  0  0  0  0  0  0
  192.1140  175.8240  147.1190 C   0  0  0  0  0  2  0  0  0  0  0  0
  193.2820  176.3320  146.3330 C   0  0  0  0  0  0  0  0  0  0  0  0
  194.1880  176.9280  146.8940 O   0  0  0  0  0  0  0  0  0  0  0  0
  193.3200  176.1290  144.8520 C   0  0  0  0  0  2  0  0  0  0  0  0
  194.6120  175.4390  144.4360 C   0  0  0  0  0  2  0  0  0  0  0  0
  195.3880  176.3210  143.4720 C   0  0  0  0  0  2  0  0  0  0  0  0
  197.7650  175.7880  142.8840 C   0  0  0  0  0  1  0  0  0  0  0  0
  196.3040  175.4910  142.5830 C   0  0  2  0  0  3  0  0  0  0  0  0
  197.5140  175.7980  140.1350 Cl  0  0  0  0  0  0  0  0  0  0  0  0
  196.0100  175.6880  141.0890 C   0  0  1  0  0  3  0  0  0  0  0  0
  194.9220  173.0130  141.1580 S   0  0  0  0  0  1  0  0  0  0  0  0
  194.3200  175.0180  139.5840 O   0  0  0  0  0  0  0  0  0  0  0  0
  195.0480  174.6830  140.5070 C   0  0  0  0  0  0  0  0  0  0  0  0
  1  5  1  0  0  0  0
  1  4  1  0  0  0  0
  3  8  1  6  0  0  0
  3  9  1  0  0  0  0
  4  2  1  1  0  0  0
  4  7  1  0  0  0  0
  5  6  1  0  0  0  0
  6 10  1  1  0  0  0
  6  3  1  0  0  0  0
  7  9  1  0  0  0  0
  9 20  1  1  0  0  0
 10 11  1  0  0  0  0
 13 12  1  1  0  0  0
 13  4  1  0  0  0  0
 15 18  1  0  0  0  0
 15 19  1  0  0  0  0
 15 16  1  1  0  0  0
 16 14  1  0  0  0  0
 17 16  1  0  0  0  0
 18 13  1  6  0  0  0
 18 19  1  0  0  0  0
 19 16  1  1  0  0  0
 20 21  1  0  0  0  0
 21 22  2  0  0  0  0
 24 21  1  0  0  0  0
 24 23  1  1  0  0  0
 24 25  1  0  0  0  0
 26 27  2  0  0  0  0
 26 25  1  0  0  0  0
 28 26  1  0  0  0  0
 29 28  1  0  0  0  0
 30 29  1  0  0  0  0
 32 31  1  6  0  0  0
 32 30  1  0  0  0  0
 34 33  1  6  0  0  0
 34 32  1  0  0  0  0
 36 37  2  0  0  0  0
 37 34  1  0  0  0  0
 37 35  1  0  0  0  0
M  END
>  <MODEL>
5

>  <REMARK>
 VINA RESULT:      -5.9      2.274      2.687
  Name = 
  14 active torsions:
  status: ('A' for Active; 'I' for Inactive)
    1  A    between atoms: C_1  and  C_5
    2  A    between atoms: C_1  and  C_36
    3  A    between atoms: O_4  and  C_28
    4  A    between atoms: C_5  and  C_17
    5  A    between atoms: C_7  and  C_27
    6  A    between atoms: C_7  and  C_33
    7  A    between atoms: C_11  and  C_26
    8  A    between atoms: C_11  and  C_33
    9  A    between atoms: C_17  and  C_26
   10  A    between atoms: C_18  and  C_19
   11  A    between atoms: C_18  and  C_35
   12  A    between atoms: C_20  and  C_24
   13  A    between atoms: C_24  and  C_30
   14  A    between atoms: C_27  and  C_35
                            x       y       z     vdW  Elec       q    Type
                         _______ _______ _______ _____ _____    ______ ____

>  <TORSDO>
F 14

$$$$
=
 OpenBabel11052420123D

 37 39  0  0  1  0  0  0  0  0999 V2000
  195.1940  175.5200  143.2790 O   0  0  0  0  0  0  0  0  0  0  0  0
  193.2670  176.4890  142.5310 O   0  0  0  0  0  1  0  0  0  0  0  0
  194.5660  176.0910  145.8060 C   0  0  1  0  0  3  0  0  0  0  0  0
  193.8320  175.2830  142.9550 C   0  0  2  0  0  0  0  0  0  0  0  0
  195.5810  174.5650  144.1110 O   0  0  0  0  0  0  0  0  0  0  0  0
  195.7290  175.1590  145.3840 C   0  0  2  0  0  3  0  0  0  0  0  0
  193.0290  174.7670  144.1690 C   0  0  0  0  0  2  0  0  0  0  0  0
  194.8450  177.5250  145.3910 C   0  0  0  0  0  1  0  0  0  0  0  0
  193.1390  175.6770  145.3940 C   0  0  1  0  0  3  0  0  0  0  0  0
  195.9010  174.1590  146.3410 O   0  0  0  0  0  0  0  0  0  0  0  0
  196.7380  173.2200  145.7370 C   0  0  0  0  0  1  0  0  0  0  0  0
  194.8740  174.3840  140.9720 O   0  0  0  0  0  1  0  0  0  0  0  0
  193.7550  174.2630  141.8090 C   0  0  2  0  0  3  0  0  0  0  0  0
  189.6630  173.6040  139.8910 O   0  0  0  0  0  1  0  0  0  0  0  0
  191.3090  173.5690  141.7310 C   0  0  2  0  0  3  0  0  0  0  0  0
  190.4970  172.8300  140.6980 C   0  0  0  0  0  0  0  0  0  0  0  0
  190.0690  171.5470  141.0400 O   0  0  0  0  0  1  0  0  0  0  0  0
  192.4200  174.3410  141.0390 C   0  0  2  0  0  3  0  0  0  0  0  0
  191.9790  172.9980  140.4800 C   0  0  1  0  0  3  0  0  0  0  0  0
  192.3900  175.0630  146.5670 C   0  0  0  0  0  2  0  0  0  0  0  0
  191.3360  176.0040  147.0580 C   0  0  0  0  0  0  0  0  0  0  0  0
  191.5680  176.7310  148.0130 O   0  0  0  0  0  0  0  0  0  0  0  0
  188.9820  175.7070  147.2120 O   0  0  0  0  0  1  0  0  0  0  0  0
  190.0180  176.0800  146.3500 C   0  0  1  0  0  3  0  0  0  0  0  0
  189.7920  177.4920  145.8320 C   0  0  0  0  0  2  0  0  0  0  0  0
  190.1840  177.6130  144.3920 C   0  0  0  0  0  0  0  0  0  0  0  0
  190.8060  178.5890  144.0040 O   0  0  0  0  0  0  0  0  0  0  0  0
  189.7840  176.5440  143.4260 C   0  0  0  0  0  2  0  0  0  0  0  0
  188.4720  176.9020  142.7400 C   0  0  0  0  0  2  0  0  0  0  0  0
  187.3330  176.0910  143.3370 C   0  0  0  0  0  2  0  0  0  0  0  0
  185.6880  177.5890  142.1840 C   0  0  0  0  0  1  0  0  0  0  0  0
  186.0810  176.9410  143.5030 C   0  0  2  0  0  3  0  0  0  0  0  0
  185.5920  179.5840  144.0750 Cl  0  0  0  0  0  0  0  0  0  0  0  0
  186.2330  178.0030  144.6000 C   0  0  1  0  0  3  0  0  0  0  0  0
  185.6950  178.7100  147.3490 S   0  0  0  0  0  1  0  0  0  0  0  0
  185.1960  176.4780  146.0730 O   0  0  0  0  0  0  0  0  0  0  0  0
  185.6820  177.5910  145.9430 C   0  0  0  0  0  0  0  0  0  0  0  0
  1  5  1  0  0  0  0
  3  8  1  6  0  0  0
  4  2  1  6  0  0  0
  4  1  1  0  0  0  0
  4  7  1  0  0  0  0
  5  6  1  0  0  0  0
  6  3  1  0  0  0  0
  6 10  1  1  0  0  0
  7  9  1  0  0  0  0
  9  3  1  0  0  0  0
  9 20  1  1  0  0  0
 11 10  1  0  0  0  0
 13 12  1  6  0  0  0
 13  4  1  0  0  0  0
 14 16  1  0  0  0  0
 15 16  1  6  0  0  0
 16 17  1  0  0  0  0
 18 15  1  0  0  0  0
 18 13  1  1  0  0  0
 19 16  1  6  0  0  0
 19 18  1  0  0  0  0
 19 15  1  0  0  0  0
 20 21  1  0  0  0  0
 21 22  2  0  0  0  0
 24 21  1  0  0  0  0
 24 23  1  1  0  0  0
 25 24  1  0  0  0  0
 26 25  1  0  0  0  0
 27 26  2  0  0  0  0
 28 26  1  0  0  0  0
 29 30  1  0  0  0  0
 29 28  1  0  0  0  0
 30 32  1  0  0  0  0
 32 31  1  6  0  0  0
 32 34  1  0  0  0  0
 34 33  1  6  0  0  0
 34 37  1  0  0  0  0
 37 36  2  0  0  0  0
 37 35  1  0  0  0  0
M  END
>  <MODEL>
6

>  <REMARK>
 VINA RESULT:      -5.8      3.501      7.514
  Name = 
  14 active torsions:
  status: ('A' for Active; 'I' for Inactive)
    1  A    between atoms: C_1  and  C_5
    2  A    between atoms: C_1  and  C_36
    3  A    between atoms: O_4  and  C_28
    4  A    between atoms: C_5  and  C_17
    5  A    between atoms: C_7  and  C_27
    6  A    between atoms: C_7  and  C_33
    7  A    between atoms: C_11  and  C_26
    8  A    between atoms: C_11  and  C_33
    9  A    between atoms: C_17  and  C_26
   10  A    between atoms: C_18  and  C_19
   11  A    between atoms: C_18  and  C_35
   12  A    between atoms: C_20  and  C_24
   13  A    between atoms: C_24  and  C_30
   14  A    between atoms: C_27  and  C_35
                            x       y       z     vdW  Elec       q    Type
                         _______ _______ _______ _____ _____    ______ ____

>  <TORSDO>
F 14

$$$$
=
 OpenBabel11052420123D

 37 39  0  0  1  0  0  0  0  0999 V2000
  193.9400  175.9430  144.9550 O   0  0  0  0  0  0  0  0  0  0  0  0
  194.2320  174.3070  143.3910 O   0  0  0  0  0  1  0  0  0  0  0  0
  191.3430  176.1070  144.3800 C   0  0  1  0  0  3  0  0  0  0  0  0
  193.9390  174.5400  144.7370 C   0  0  2  0  0  0  0  0  0  0  0  0
  193.2110  176.1830  146.0330 O   0  0  0  0  0  0  0  0  0  0  0  0
  192.0130  176.7910  145.5970 C   0  0  2  0  0  3  0  0  0  0  0  0
  192.5670  173.9060  145.0560 C   0  0  0  0  0  2  0  0  0  0  0  0
  191.8250  176.7250  143.0790 C   0  0  0  0  0  1  0  0  0  0  0  0
  191.4100  174.5680  144.3040 C   0  0  1  0  0  3  0  0  0  0  0  0
  191.1110  176.8460  146.6600 O   0  0  0  0  0  0  0  0  0  0  0  0
  191.8230  176.3750  147.7630 C   0  0  0  0  0  1  0  0  0  0  0  0
  195.9810  174.8470  145.9870 O   0  0  0  0  0  1  0  0  0  0  0  0
  195.0250  173.8920  145.6080 C   0  0  2  0  0  3  0  0  0  0  0  0
  196.9150  169.8740  144.5400 O   0  0  0  0  0  1  0  0  0  0  0  0
  195.3060  171.3650  145.6730 C   0  0  2  0  0  3  0  0  0  0  0  0
  196.5260  170.4810  145.7340 C   0  0  0  0  0  0  0  0  0  0  0  0
  196.7300  169.7780  146.9210 O   0  0  0  0  0  1  0  0  0  0  0  0
  195.6520  172.6500  144.9400 C   0  0  2  0  0  3  0  0  0  0  0  0
  196.7010  171.9760  145.8100 C   0  0  1  0  0  3  0  0  0  0  0  0
  190.0890  173.9440  144.7300 C   0  0  0  0  0  2  0  0  0  0  0  0
  189.9370  172.5870  144.1170 C   0  0  0  0  0  0  0  0  0  0  0  0
  189.8960  171.5990  144.8330 O   0  0  0  0  0  0  0  0  0  0  0  0
  190.1660  171.1710  142.2210 O   0  0  0  0  0  1  0  0  0  0  0  0
  189.7930  172.4540  142.6310 C   0  0  1  0  0  3  0  0  0  0  0  0
  188.3560  172.7430  142.2260 C   0  0  0  0  0  2  0  0  0  0  0  0
  188.2970  173.6570  141.0400 C   0  0  0  0  0  0  0  0  0  0  0  0
  188.2390  173.1970  139.9110 O   0  0  0  0  0  0  0  0  0  0  0  0
  188.3370  175.1370  141.2470 C   0  0  0  0  0  2  0  0  0  0  0  0
  187.5070  175.5340  142.4600 C   0  0  0  0  0  2  0  0  0  0  0  0
  186.7070  176.7910  142.1580 C   0  0  0  0  0  2  0  0  0  0  0  0
  184.5480  177.9240  142.7320 C   0  0  0  0  0  1  0  0  0  0  0  0
  185.6970  177.0790  143.2590 C   0  0  2  0  0  3  0  0  0  0  0  0
  185.8440  179.4530  144.6350 Cl  0  0  0  0  0  0  0  0  0  0  0  0
  186.3380  177.7450  144.4850 C   0  0  1  0  0  3  0  0  0  0  0  0
  187.5410  176.4250  146.7550 S   0  0  0  0  0  1  0  0  0  0  0  0
  185.0110  176.7700  146.1750 O   0  0  0  0  0  0  0  0  0  0  0  0
  186.1450  176.9880  145.7750 C   0  0  0  0  0  0  0  0  0  0  0  0
  1  5  1  0  0  0  0
  3  8  1  6  0  0  0
  3  6  1  0  0  0  0
  4  2  1  6  0  0  0
  4  1  1  0  0  0  0
  4  7  1  0  0  0  0
  4 13  1  0  0  0  0
  6  5  1  0  0  0  0
  6 10  1  1  0  0  0
  9  3  1  0  0  0  0
  9 20  1  1  0  0  0
  9  7  1  0  0  0  0
 10 11  1  0  0  0  0
 13 12  1  6  0  0  0
 14 16  1  0  0  0  0
 15 16  1  6  0  0  0
 15 19  1  0  0  0  0
 16 17  1  0  0  0  0
 18 13  1  1  0  0  0
 18 15  1  0  0  0  0
 18 19  1  0  0  0  0
 19 16  1  6  0  0  0
 21 20  1  0  0  0  0
 21 22  2  0  0  0  0
 24 23  1  1  0  0  0
 24 21  1  0  0  0  0
 25 24  1  0  0  0  0
 26 28  1  0  0  0  0
 26 25  1  0  0  0  0
 27 26  2  0  0  0  0
 28 29  1  0  0  0  0
 30 29  1  0  0  0  0
 30 32  1  0  0  0  0
 32 31  1  6  0  0  0
 32 34  1  0  0  0  0
 34 33  1  1  0  0  0
 34 37  1  0  0  0  0
 37 36  2  0  0  0  0
 37 35  1  0  0  0  0
M  END
>  <MODEL>
7

>  <REMARK>
 VINA RESULT:      -5.7      3.145      8.888
  Name = 
  14 active torsions:
  status: ('A' for Active; 'I' for Inactive)
    1  A    between atoms: C_1  and  C_5
    2  A    between atoms: C_1  and  C_36
    3  A    between atoms: O_4  and  C_28
    4  A    between atoms: C_5  and  C_17
    5  A    between atoms: C_7  and  C_27
    6  A    between atoms: C_7  and  C_33
    7  A    between atoms: C_11  and  C_26
    8  A    between atoms: C_11  and  C_33
    9  A    between atoms: C_17  and  C_26
   10  A    between atoms: C_18  and  C_19
   11  A    between atoms: C_18  and  C_35
   12  A    between atoms: C_20  and  C_24
   13  A    between atoms: C_24  and  C_30
   14  A    between atoms: C_27  and  C_35
                            x       y       z     vdW  Elec       q    Type
                         _______ _______ _______ _____ _____    ______ ____

>  <TORSDO>
F 14

$$$$
=
 OpenBabel11052420123D

 37 39  0  0  1  0  0  0  0  0999 V2000
  192.1110  172.6500  143.7800 O   0  0  0  0  0  0  0  0  0  0  0  0
  191.2180  174.0290  145.3650 O   0  0  0  0  0  1  0  0  0  0  0  0
  189.8890  172.8040  142.3150 C   0  0  1  0  0  3  0  0  0  0  0  0
  191.9770  174.0020  144.1920 C   0  0  2  0  0  0  0  0  0  0  0  0
  192.3740  172.6490  142.4820 O   0  0  0  0  0  0  0  0  0  0  0  0
  191.2170  172.1780  141.8240 C   0  0  2  0  0  3  0  0  0  0  0  0
  191.2640  174.8650  143.1280 C   0  0  0  0  0  2  0  0  0  0  0  0
  189.2790  171.9720  143.4300 C   0  0  0  0  0  1  0  0  0  0  0  0
  189.9080  174.2960  142.7040 C   0  0  1  0  0  3  0  0  0  0  0  0
  191.3530  172.3820  140.4500 O   0  0  0  0  0  0  0  0  0  0  0  0
  190.5600  171.3990  139.8590 C   0  0  0  0  0  1  0  0  0  0  0  0
  193.8940  175.1920  143.3320 O   0  0  0  0  0  1  0  0  0  0  0  0
  193.3700  174.5820  144.4810 C   0  0  2  0  0  3  0  0  0  0  0  0
  196.8820  172.1560  146.1070 O   0  0  0  0  0  1  0  0  0  0  0  0
  195.5000  174.1810  145.8140 C   0  0  2  0  0  3  0  0  0  0  0  0
  196.7580  173.4090  145.5070 C   0  0  0  0  0  0  0  0  0  0  0  0
  197.9180  174.1580  145.3120 O   0  0  0  0  0  1  0  0  0  0  0  0
  194.3270  173.5370  145.0940 C   0  0  2  0  0  3  0  0  0  0  0  0
  195.7000  173.5360  144.4410 C   0  0  1  0  0  3  0  0  0  0  0  0
  189.3070  175.1540  141.6000 C   0  0  0  0  0  2  0  0  0  0  0  0
  187.9960  175.7240  142.0440 C   0  0  0  0  0  0  0  0  0  0  0  0
  187.1000  174.9770  142.4030 O   0  0  0  0  0  0  0  0  0  0  0  0
  189.0450  177.8580  142.0180 O   0  0  0  0  0  1  0  0  0  0  0  0
  187.8080  177.2110  142.0860 C   0  0  1  0  0  3  0  0  0  0  0  0
  186.9170  177.6480  140.9330 C   0  0  0  0  0  2  0  0  0  0  0  0
  185.5740  178.0960  141.4210 C   0  0  0  0  0  0  0  0  0  0  0  0
  184.7360  178.5000  140.6300 O   0  0  0  0  0  0  0  0  0  0  0  0
  185.2760  178.0710  142.8860 C   0  0  0  0  0  2  0  0  0  0  0  0
  185.5840  179.4200  143.5210 C   0  0  0  0  0  2  0  0  0  0  0  0
  185.2940  179.3740  145.0120 C   0  0  0  0  0  2  0  0  0  0  0  0
  184.6830  177.4290  146.4690 C   0  0  0  0  0  1  0  0  0  0  0  0
  185.7770  178.0680  145.6270 C   0  0  2  0  0  3  0  0  0  0  0  0
  186.6900  178.6380  148.1550 Cl  0  0  0  0  0  0  0  0  0  0  0  0
  187.0580  178.2460  146.4530 C   0  0  1  0  0  3  0  0  0  0  0  0
  189.6100  177.2910  145.4960 S   0  0  0  0  0  1  0  0  0  0  0  0
  187.7580  176.0270  146.8480 O   0  0  0  0  0  0  0  0  0  0  0  0
  188.0350  177.1030  146.3390 C   0  0  0  0  0  0  0  0  0  0  0  0
  1  4  1  0  0  0  0
  3  9  1  0  0  0  0
  3  8  1  1  0  0  0
  4 13  1  0  0  0  0
  4  2  1  1  0  0  0
  5  1  1  0  0  0  0
  6 10  1  6  0  0  0
  6  3  1  0  0  0  0
  6  5  1  0  0  0  0
  7  4  1  0  0  0  0
  9 20  1  6  0  0  0
  9  7  1  0  0  0  0
 11 10  1  0  0  0  0
 13 12  1  6  0  0  0
 15 16  1  1  0  0  0
 16 14  1  0  0  0  0
 17 16  1  0  0  0  0
 18 13  1  6  0  0  0
 18 15  1  0  0  0  0
 19 18  1  0  0  0  0
 19 16  1  1  0  0  0
 19 15  1  0  0  0  0
 20 21  1  0  0  0  0
 21 24  1  0  0  0  0
 21 22  2  0  0  0  0
 24 23  1  6  0  0  0
 25 26  1  0  0  0  0
 25 24  1  0  0  0  0
 26 28  1  0  0  0  0
 27 26  2  0  0  0  0
 28 29  1  0  0  0  0
 29 30  1  0  0  0  0
 30 32  1  0  0  0  0
 32 34  1  0  0  0  0
 32 31  1  1  0  0  0
 34 33  1  1  0  0  0
 35 37  1  0  0  0  0
 37 34  1  0  0  0  0
 37 36  2  0  0  0  0
M  END
>  <MODEL>
8

>  <REMARK>
 VINA RESULT:      -5.7      3.078      8.286
  Name = 
  14 active torsions:
  status: ('A' for Active; 'I' for Inactive)
    1  A    between atoms: C_1  and  C_5
    2  A    between atoms: C_1  and  C_36
    3  A    between atoms: O_4  and  C_28
    4  A    between atoms: C_5  and  C_17
    5  A    between atoms: C_7  and  C_27
    6  A    between atoms: C_7  and  C_33
    7  A    between atoms: C_11  and  C_26
    8  A    between atoms: C_11  and  C_33
    9  A    between atoms: C_17  and  C_26
   10  A    between atoms: C_18  and  C_19
   11  A    between atoms: C_18  and  C_35
   12  A    between atoms: C_20  and  C_24
   13  A    between atoms: C_24  and  C_30
   14  A    between atoms: C_27  and  C_35
                            x       y       z     vdW  Elec       q    Type
                         _______ _______ _______ _____ _____    ______ ____

>  <TORSDO>
F 14

$$$$
=
 OpenBabel11052420123D

 37 39  0  0  1  0  0  0  0  0999 V2000
  194.0330  175.6040  145.4530 O   0  0  0  0  0  0  0  0  0  0  0  0
  194.7100  174.5210  143.5610 O   0  0  0  0  0  1  0  0  0  0  0  0
  191.5430  175.7940  144.5200 C   0  0  1  0  0  3  0  0  0  0  0  0
  194.2020  174.3300  144.8490 C   0  0  2  0  0  0  0  0  0  0  0  0
  193.1340  175.4760  146.4170 O   0  0  0  0  0  0  0  0  0  0  0  0
  191.9580  176.1210  145.9760 C   0  0  2  0  0  3  0  0  0  0  0  0
  192.8680  173.5590  144.7400 C   0  0  0  0  0  2  0  0  0  0  0  0
  192.1460  176.7940  143.5490 C   0  0  0  0  0  1  0  0  0  0  0  0
  191.7730  174.3520  144.0240 C   0  0  1  0  0  3  0  0  0  0  0  0
  190.9100  175.8130  146.8440 O   0  0  0  0  0  0  0  0  0  0  0  0
  191.5280  175.3340  148.0000 C   0  0  0  0  0  1  0  0  0  0  0  0
  196.3890  174.2440  145.8670 O   0  0  0  0  0  1  0  0  0  0  0  0
  195.2090  173.5120  145.6700 C   0  0  2  0  0  3  0  0  0  0  0  0
  196.1670  169.1330  144.7940 O   0  0  0  0  0  1  0  0  0  0  0  0
  195.1160  170.9950  146.0280 C   0  0  2  0  0  3  0  0  0  0  0  0
  196.1680  169.9190  145.9470 C   0  0  0  0  0  0  0  0  0  0  0  0
  196.5400  169.3170  147.1490 O   0  0  0  0  0  1  0  0  0  0  0  0
  195.4670  172.1150  145.0640 C   0  0  2  0  0  3  0  0  0  0  0  0
  196.5790  171.3580  145.7710 C   0  0  1  0  0  3  0  0  0  0  0  0
  190.4730  173.5620  144.0270 C   0  0  0  0  0  2  0  0  0  0  0  0
  190.1140  173.1510  142.6340 C   0  0  0  0  0  0  0  0  0  0  0  0
  189.8090  171.9920  142.4020 O   0  0  0  0  0  0  0  0  0  0  0  0
  190.8940  173.7640  140.4730 O   0  0  0  0  0  1  0  0  0  0  0  0
  190.0900  174.1750  141.5400 C   0  0  1  0  0  3  0  0  0  0  0  0
  188.6600  174.3940  141.0700 C   0  0  0  0  0  2  0  0  0  0  0  0
  187.8920  175.2410  142.0380 C   0  0  0  0  0  0  0  0  0  0  0  0
  186.7730  174.9090  142.3930 O   0  0  0  0  0  0  0  0  0  0  0  0
  188.4950  176.5120  142.5450 C   0  0  0  0  0  2  0  0  0  0  0  0
  188.4160  176.5770  144.0640 C   0  0  0  0  0  2  0  0  0  0  0  0
  187.9630  177.9580  144.5060 C   0  0  0  0  0  2  0  0  0  0  0  0
  187.4370  176.9190  146.7240 C   0  0  0  0  0  1  0  0  0  0  0  0
  186.9510  177.8690  145.6400 C   0  0  2  0  0  3  0  0  0  0  0  0
  184.4440  177.1660  146.5170 Cl  0  0  0  0  0  0  0  0  0  0  0  0
  185.5550  177.4600  145.1510 C   0  0  1  0  0  3  0  0  0  0  0  0
  184.8200  177.9360  142.3990 S   0  0  0  0  0  1  0  0  0  0  0  0
  184.5330  179.4830  144.4920 O   0  0  0  0  0  0  0  0  0  0  0  0
  184.9560  178.3940  144.1310 C   0  0  0  0  0  0  0  0  0  0  0  0
  1  5  1  0  0  0  0
  3  8  1  6  0  0  0
  3  6  1  0  0  0  0
  4  2  1  6  0  0  0
  4  1  1  0  0  0  0
  4 13  1  0  0  0  0
  6  5  1  0  0  0  0
  6 10  1  1  0  0  0
  7  4  1  0  0  0  0
  9 20  1  1  0  0  0
  9  3  1  0  0  0  0
  9  7  1  0  0  0  0
 10 11  1  0  0  0  0
 13 12  1  6  0  0  0
 14 16  1  0  0  0  0
 15 16  1  6  0  0  0
 16 17  1  0  0  0  0
 18 13  1  1  0  0  0
 18 19  1  0  0  0  0
 18 15  1  0  0  0  0
 19 16  1  6  0  0  0
 19 15  1  0  0  0  0
 21 20  1  0  0  0  0
 22 21  2  0  0  0  0
 24 23  1  6  0  0  0
 24 21  1  0  0  0  0
 25 24  1  0  0  0  0
 25 26  1  0  0  0  0
 26 27  2  0  0  0  0
 26 28  1  0  0  0  0
 28 29  1  0  0  0  0
 29 30  1  0  0  0  0
 30 32  1  0  0  0  0
 32 31  1  1  0  0  0
 34 32  1  0  0  0  0
 34 33  1  1  0  0  0
 35 37  1  0  0  0  0
 37 36  2  0  0  0  0
 37 34  1  0  0  0  0
M  END
>  <MODEL>
9

>  <REMARK>
 VINA RESULT:      -5.6      3.413      9.060
  Name = 
  14 active torsions:
  status: ('A' for Active; 'I' for Inactive)
    1  A    between atoms: C_1  and  C_5
    2  A    between atoms: C_1  and  C_36
    3  A    between atoms: O_4  and  C_28
    4  A    between atoms: C_5  and  C_17
    5  A    between atoms: C_7  and  C_27
    6  A    between atoms: C_7  and  C_33
    7  A    between atoms: C_11  and  C_26
    8  A    between atoms: C_11  and  C_33
    9  A    between atoms: C_17  and  C_26
   10  A    between atoms: C_18  and  C_19
   11  A    between atoms: C_18  and  C_35
   12  A    between atoms: C_20  and  C_24
   13  A    between atoms: C_24  and  C_30
   14  A    between atoms: C_27  and  C_35
                            x       y       z     vdW  Elec       q    Type
                         _______ _______ _______ _____ _____    ______ ____

>  <TORSDO>
F 14

$$$$
