=
 OpenBabel11052418213D

 27 31  0  0  1  0  0  0  0  0999 V2000
  189.2280  177.1750  145.1930 C   0  0  1  0  0  3  0  0  0  0  0  0
  188.0790  177.2960  143.1400 N   0  0  0  0  0  0  0  0  0  0  0  0
  189.3660  175.8080  144.5140 C   0  0  1  0  0  3  0  0  0  0  0  0
  187.9660  174.7620  139.8620 C   0  0  0  0  0  3  0  0  0  0  0  0
  188.5160  172.6370  138.7940 N   0  0  0  0  0  1  0  0  0  0  0  0
  187.4090  177.7970  141.9450 C   0  0  0  0  0  2  0  0  0  0  0  0
  189.3330  173.9680  142.1700 C   0  0  0  0  0  3  0  0  0  0  0  0
  192.6940  174.6280  145.4490 O   0  0  0  0  0  0  0  0  0  0  0  0
  189.2650  173.1140  141.0670 C   0  0  0  0  0  3  0  0  0  0  0  0
  190.7200  174.5310  146.7880 C   0  0  0  0  0  2  0  0  0  0  0  0
  188.7680  176.0630  143.1730 C   0  0  0  0  0  0  0  0  0  0  0  0
  188.1440  177.9630  144.4270 C   0  0  1  0  0  3  0  0  0  0  0  0
  188.5830  173.5100  139.9150 C   0  0  0  0  0  0  0  0  0  0  0  0
  188.0250  175.6290  140.9570 C   0  0  0  0  0  0  0  0  0  0  0  0
  189.0850  177.0840  146.7080 C   0  0  0  0  0  2  0  0  0  0  0  0
  188.7220  175.2300  142.1260 C   0  0  0  0  0  0  0  0  0  0  0  0
  191.4620  174.8640  145.5310 C   0  0  0  0  0  0  0  0  0  0  0  0
  187.4270  176.7880  140.8780 N   0  0  0  0  0  0  0  0  0  0  0  0
  190.9780  175.5300  147.9150 C   0  0  0  0  0  2  0  0  0  0  0  0
  190.7350  177.2860  147.4510 S   0  0  0  0  0  0  0  0  0  0  0  0
  190.7750  175.4490  144.4200 N   0  0  0  0  0  2  0  0  0  0  0  0
  184.2880  177.9620  146.3460 C   0  0  0  0  0  3  0  0  0  0  0  0
  186.7950  177.9420  145.0950 C   0  0  0  0  0  0  0  0  0  0  0  0
  186.0400  179.1190  145.1400 C   0  0  0  0  0  3  0  0  0  0  0  0
  184.7890  179.1290  145.7630 C   0  0  0  0  0  3  0  0  0  0  0  0
  185.0390  176.7830  146.3070 C   0  0  0  0  0  3  0  0  0  0  0  0
  186.2890  176.7710  145.6840 C   0  0  0  0  0  3  0  0  0  0  0  0
  1 15  1  1  0  0  0
  2 11  1  0  0  0  0
  2 12  1  0  0  0  0
  3 11  1  6  0  0  0
  3  1  1  0  0  0  0
  4 13  2  0  0  0  0
  4 14  1  0  0  0  0
  5 13  1  0  0  0  0
  6  2  1  0  0  0  0
  8 17  2  0  0  0  0
  9  7  2  0  0  0  0
 10 19  1  0  0  0  0
 12 23  1  1  0  0  0
 12  1  1  0  0  0  0
 13  9  1  0  0  0  0
 14 16  1  0  0  0  0
 15 20  1  0  0  0  0
 16  7  1  0  0  0  0
 16 11  2  0  0  0  0
 17 10  1  0  0  0  0
 18 14  2  0  0  0  0
 18  6  1  0  0  0  0
 20 19  1  0  0  0  0
 21  3  1  0  0  0  0
 21 17  1  0  0  0  0
 23 24  2  0  0  0  0
 23 27  1  0  0  0  0
 24 25  1  0  0  0  0
 25 22  2  0  0  0  0
 26 22  1  0  0  0  0
 27 26  2  0  0  0  0
M  END
>  <MODEL>
1

>  <REMARK>
 VINA RESULT:      -8.3      0.000      0.000
  Name = 
  1 active torsions:
  status: ('A' for Active; 'I' for Inactive)
    1  A    between atoms: C_9  and  C_15
                            x       y       z     vdW  Elec       q    Type
                         _______ _______ _______ _____ _____    ______ ____

>  <TORSDO>
F 1

$$$$
=
 OpenBabel11052418213D

 27 31  0  0  1  0  0  0  0  0999 V2000
  187.4350  176.4930  144.0710 C   0  0  1  0  0  3  0  0  0  0  0  0
  188.4350  175.0890  142.4660 N   0  0  0  0  0  0  0  0  0  0  0  0
  187.0680  177.0480  142.6910 C   0  0  1  0  0  3  0  0  0  0  0  0
  187.9690  174.7870  138.3590 C   0  0  0  0  0  3  0  0  0  0  0  0
  187.0640  175.6240  136.2520 N   0  0  0  0  0  1  0  0  0  0  0  0
  189.0760  173.9520  141.8140 C   0  0  0  0  0  2  0  0  0  0  0  0
  186.6830  176.8500  139.7420 C   0  0  0  0  0  3  0  0  0  0  0  0
  183.6910  178.3830  143.0870 O   0  0  0  0  0  0  0  0  0  0  0  0
  186.5560  176.7510  138.3550 C   0  0  0  0  0  3  0  0  0  0  0  0
  185.7290  179.4480  143.7310 C   0  0  0  0  0  2  0  0  0  0  0  0
  187.5930  175.9930  141.7800 C   0  0  0  0  0  0  0  0  0  0  0  0
  188.5550  175.4500  143.8660 C   0  0  1  0  0  3  0  0  0  0  0  0
  187.1960  175.7210  137.6640 C   0  0  0  0  0  0  0  0  0  0  0  0
  188.1060  174.8710  139.7480 C   0  0  0  0  0  0  0  0  0  0  0  0
  187.6770  177.5800  145.1130 C   0  0  0  0  0  2  0  0  0  0  0  0
  187.4510  175.9140  140.4510 C   0  0  0  0  0  0  0  0  0  0  0  0
  184.9470  178.3240  143.1250 C   0  0  0  0  0  0  0  0  0  0  0  0
  188.8460  173.9880  140.3640 N   0  0  0  0  0  0  0  0  0  0  0  0
  185.6900  179.4460  145.2590 C   0  0  0  0  0  2  0  0  0  0  0  0
  186.1280  177.8440  146.0330 S   0  0  0  0  0  0  0  0  0  0  0  0
  185.6210  177.1820  142.5880 N   0  0  0  0  0  2  0  0  0  0  0  0
  192.4950  176.9510  144.7460 C   0  0  0  0  0  3  0  0  0  0  0  0
  189.9350  175.9790  144.1530 C   0  0  0  0  0  0  0  0  0  0  0  0
  190.5990  175.5530  145.3090 C   0  0  0  0  0  3  0  0  0  0  0  0
  191.8770  176.0370  145.6050 C   0  0  0  0  0  3  0  0  0  0  0  0
  191.8360  177.3820  143.5920 C   0  0  0  0  0  3  0  0  0  0  0  0
  190.5590  176.8990  143.2950 C   0  0  0  0  0  3  0  0  0  0  0  0
  1 15  1  1  0  0  0
  2 12  1  0  0  0  0
  3 11  1  6  0  0  0
  3  1  1  0  0  0  0
  4 14  1  0  0  0  0
  5 13  1  0  0  0  0
  6  2  1  0  0  0  0
  7 16  1  0  0  0  0
  8 17  2  0  0  0  0
  9  7  2  0  0  0  0
 10 19  1  0  0  0  0
 11  2  1  0  0  0  0
 12  1  1  0  0  0  0
 12 23  1  6  0  0  0
 13  9  1  0  0  0  0
 13  4  2  0  0  0  0
 14 18  2  0  0  0  0
 14 16  1  0  0  0  0
 15 20  1  0  0  0  0
 16 11  2  0  0  0  0
 17 10  1  0  0  0  0
 18  6  1  0  0  0  0
 19 20  1  0  0  0  0
 21  3  1  0  0  0  0
 21 17  1  0  0  0  0
 22 25  1  0  0  0  0
 23 24  1  0  0  0  0
 24 25  2  0  0  0  0
 26 22  2  0  0  0  0
 27 26  1  0  0  0  0
 27 23  2  0  0  0  0
M  END
>  <MODEL>
2

>  <REMARK>
 VINA RESULT:      -7.6      2.843      5.213
  Name = 
  1 active torsions:
  status: ('A' for Active; 'I' for Inactive)
    1  A    between atoms: C_9  and  C_15
                            x       y       z     vdW  Elec       q    Type
                         _______ _______ _______ _____ _____    ______ ____

>  <TORSDO>
F 1

$$$$
=
 OpenBabel11052418213D

 27 31  0  0  1  0  0  0  0  0999 V2000
  188.1950  175.8800  144.7980 C   0  0  1  0  0  3  0  0  0  0  0  0
  189.4110  174.0550  143.9380 N   0  0  0  0  0  0  0  0  0  0  0  0
  188.1110  175.9590  143.2700 C   0  0  1  0  0  3  0  0  0  0  0  0
  189.6930  172.4500  140.1270 C   0  0  0  0  0  3  0  0  0  0  0  0
  189.2270  172.5550  137.7330 N   0  0  0  0  0  1  0  0  0  0  0  0
  190.1100  172.7810  143.8110 C   0  0  0  0  0  2  0  0  0  0  0  0
  188.2660  174.8230  140.5190 C   0  0  0  0  0  3  0  0  0  0  0  0
  184.7800  177.2900  142.5810 O   0  0  0  0  0  0  0  0  0  0  0  0
  188.3910  174.2850  139.2360 C   0  0  0  0  0  3  0  0  0  0  0  0
  186.7100  178.5410  143.2260 C   0  0  0  0  0  2  0  0  0  0  0  0
  188.7490  174.6770  142.8550 C   0  0  0  0  0  0  0  0  0  0  0  0
  189.2870  174.8450  145.1480 C   0  0  1  0  0  3  0  0  0  0  0  0
  189.1020  173.1000  139.0400 C   0  0  0  0  0  0  0  0  0  0  0  0
  189.5760  172.9750  141.4170 C   0  0  0  0  0  0  0  0  0  0  0  0
  188.2890  177.2460  145.4680 C   0  0  0  0  0  2  0  0  0  0  0  0
  188.8500  174.1760  141.6180 C   0  0  0  0  0  0  0  0  0  0  0  0
  186.0040  177.2690  142.8710 C   0  0  0  0  0  0  0  0  0  0  0  0
  190.1510  172.3480  142.4080 N   0  0  0  0  0  0  0  0  0  0  0  0
  186.3910  179.0260  144.6390 C   0  0  0  0  0  2  0  0  0  0  0  0
  186.6100  177.7630  145.9490 S   0  0  0  0  0  0  0  0  0  0  0  0
  186.7150  176.0270  142.8600 N   0  0  0  0  0  2  0  0  0  0  0  0
  193.0610  176.6160  146.2310 C   0  0  0  0  0  3  0  0  0  0  0  0
  190.6130  175.4630  145.5060 C   0  0  0  0  0  0  0  0  0  0  0  0
  191.0610  175.3890  146.8290 C   0  0  0  0  0  3  0  0  0  0  0  0
  192.2830  175.9630  147.1910 C   0  0  0  0  0  3  0  0  0  0  0  0
  192.6180  176.6950  144.9080 C   0  0  0  0  0  3  0  0  0  0  0  0
  191.3960  176.1220  144.5440 C   0  0  0  0  0  3  0  0  0  0  0  0
  1 12  1  0  0  0  0
  1 15  1  6  0  0  0
  2 12  1  0  0  0  0
  3 11  1  6  0  0  0
  3  1  1  0  0  0  0
  4 14  1  0  0  0  0
  5 13  1  0  0  0  0
  6  2  1  0  0  0  0
  7 16  1  0  0  0  0
  8 17  2  0  0  0  0
  9  7  2  0  0  0  0
 10 19  1  0  0  0  0
 11  2  1  0  0  0  0
 12 23  1  6  0  0  0
 13  9  1  0  0  0  0
 13  4  2  0  0  0  0
 14 16  1  0  0  0  0
 14 18  2  0  0  0  0
 15 20  1  0  0  0  0
 16 11  2  0  0  0  0
 17 10  1  0  0  0  0
 18  6  1  0  0  0  0
 19 20  1  0  0  0  0
 21 17  1  0  0  0  0
 21  3  1  0  0  0  0
 22 25  1  0  0  0  0
 23 24  1  0  0  0  0
 24 25  2  0  0  0  0
 26 22  2  0  0  0  0
 27 26  1  0  0  0  0
 27 23  2  0  0  0  0
M  END
>  <MODEL>
3

>  <REMARK>
 VINA RESULT:      -7.6      2.431      5.010
  Name = 
  1 active torsions:
  status: ('A' for Active; 'I' for Inactive)
    1  A    between atoms: C_9  and  C_15
                            x       y       z     vdW  Elec       q    Type
                         _______ _______ _______ _____ _____    ______ ____

>  <TORSDO>
F 1

$$$$
=
 OpenBabel11052418213D

 27 31  0  0  1  0  0  0  0  0999 V2000
  187.6260  177.2290  142.0580 C   0  0  1  0  0  3  0  0  0  0  0  0
  189.7480  176.5160  142.7910 N   0  0  0  0  0  0  0  0  0  0  0  0
  187.6310  177.3160  143.5890 C   0  0  1  0  0  3  0  0  0  0  0  0
  191.6230  176.7010  146.4820 C   0  0  0  0  0  3  0  0  0  0  0  0
  191.5660  177.1660  148.8780 N   0  0  0  0  0  1  0  0  0  0  0  0
  191.1610  176.1540  142.8290 C   0  0  0  0  0  2  0  0  0  0  0  0
  188.9500  177.4920  146.2550 C   0  0  0  0  0  3  0  0  0  0  0  0
  185.5660  180.2270  144.3690 O   0  0  0  0  0  0  0  0  0  0  0  0
  189.5870  177.5250  147.4970 C   0  0  0  0  0  3  0  0  0  0  0  0
  184.7910  178.0380  143.8100 C   0  0  0  0  0  2  0  0  0  0  0  0
  189.0550  177.0210  143.9140 C   0  0  0  0  0  0  0  0  0  0  0  0
  188.8720  176.4200  141.6380 C   0  0  1  0  0  3  0  0  0  0  0  0
  190.9220  177.1310  147.6110 C   0  0  0  0  0  0  0  0  0  0  0  0
  191.0000  176.6630  145.2310 C   0  0  0  0  0  0  0  0  0  0  0  0
  186.2840  176.7910  141.4840 C   0  0  0  0  0  2  0  0  0  0  0  0
  189.6470  177.0680  145.1130 C   0  0  0  0  0  0  0  0  0  0  0  0
  185.8710  179.0420  144.0770 C   0  0  0  0  0  0  0  0  0  0  0  0
  191.6830  176.2440  144.1990 N   0  0  0  0  0  0  0  0  0  0  0  0
  184.1500  178.2040  142.4340 C   0  0  0  0  0  2  0  0  0  0  0  0
  185.3370  178.2820  141.0410 S   0  0  0  0  0  0  0  0  0  0  0  0
  187.2470  178.6590  144.0030 N   0  0  0  0  0  2  0  0  0  0  0  0
  188.0160  172.3100  140.6790 C   0  0  0  0  0  3  0  0  0  0  0  0
  188.5790  174.9780  141.3220 C   0  0  0  0  0  0  0  0  0  0  0  0
  188.5660  174.5640  139.9860 C   0  0  0  0  0  3  0  0  0  0  0  0
  188.2870  173.2330  139.6640 C   0  0  0  0  0  3  0  0  0  0  0  0
  188.0250  172.7170  142.0150 C   0  0  0  0  0  3  0  0  0  0  0  0
  188.3050  174.0480  142.3380 C   0  0  0  0  0  3  0  0  0  0  0  0
  1 15  1  1  0  0  0
  1  3  1  0  0  0  0
  2  6  1  0  0  0  0
  2 11  1  0  0  0  0
  3 11  1  6  0  0  0
  3 21  1  0  0  0  0
  4 13  2  0  0  0  0
  6 18  1  0  0  0  0
  7  9  2  0  0  0  0
  9 13  1  0  0  0  0
 10 17  1  0  0  0  0
 11 16  2  0  0  0  0
 12 23  1  1  0  0  0
 12  1  1  0  0  0  0
 12  2  1  0  0  0  0
 13  5  1  0  0  0  0
 14  4  1  0  0  0  0
 16 14  1  0  0  0  0
 16  7  1  0  0  0  0
 17  8  2  0  0  0  0
 18 14  2  0  0  0  0
 19 10  1  0  0  0  0
 20 15  1  0  0  0  0
 20 19  1  0  0  0  0
 21 17  1  0  0  0  0
 22 26  1  0  0  0  0
 23 27  1  0  0  0  0
 24 23  2  0  0  0  0
 25 24  1  0  0  0  0
 25 22  2  0  0  0  0
 26 27  2  0  0  0  0
M  END
>  <MODEL>
4

>  <REMARK>
 VINA RESULT:      -7.4      3.065      6.654
  Name = 
  1 active torsions:
  status: ('A' for Active; 'I' for Inactive)
    1  A    between atoms: C_9  and  C_15
                            x       y       z     vdW  Elec       q    Type
                         _______ _______ _______ _____ _____    ______ ____

>  <TORSDO>
F 1

$$$$
=
 OpenBabel11052418213D

 27 31  0  0  1  0  0  0  0  0999 V2000
  188.8360  175.6220  144.9430 C   0  0  1  0  0  3  0  0  0  0  0  0
  190.0600  173.8470  143.9950 N   0  0  0  0  0  0  0  0  0  0  0  0
  188.6070  175.6710  143.4290 C   0  0  1  0  0  3  0  0  0  0  0  0
  190.0700  172.1940  140.1940 C   0  0  0  0  0  3  0  0  0  0  0  0
  189.3790  172.2350  137.8530 N   0  0  0  0  0  1  0  0  0  0  0  0
  190.8090  172.6070  143.8190 C   0  0  0  0  0  2  0  0  0  0  0  0
  188.5640  174.4980  140.6890 C   0  0  0  0  0  3  0  0  0  0  0  0
  185.1620  176.8210  143.0390 O   0  0  0  0  0  0  0  0  0  0  0  0
  188.5970  173.9450  139.4070 C   0  0  0  0  0  3  0  0  0  0  0  0
  187.0760  178.1780  143.4850 C   0  0  0  0  0  2  0  0  0  0  0  0
  189.2690  174.4160  142.9720 C   0  0  0  0  0  0  0  0  0  0  0  0
  190.0080  174.6500  145.2020 C   0  0  1  0  0  3  0  0  0  0  0  0
  189.3480  172.7940  139.1600 C   0  0  0  0  0  0  0  0  0  0  0  0
  190.0460  172.7340  141.4830 C   0  0  0  0  0  0  0  0  0  0  0  0
  188.9210  177.0020  145.5850 C   0  0  0  0  0  2  0  0  0  0  0  0
  189.2800  173.9000  141.7370 C   0  0  0  0  0  0  0  0  0  0  0  0
  186.4070  176.8660  143.2140 C   0  0  0  0  0  0  0  0  0  0  0  0
  190.7420  172.1530  142.4240 N   0  0  0  0  0  0  0  0  0  0  0  0
  186.8650  178.6700  144.9160 C   0  0  0  0  0  2  0  0  0  0  0  0
  187.2700  177.4420  146.2140 S   0  0  0  0  0  0  0  0  0  0  0  0
  187.1770  175.6620  143.1510 N   0  0  0  0  0  2  0  0  0  0  0  0
  193.7960  176.6150  145.7880 C   0  0  0  0  0  3  0  0  0  0  0  0
  191.3270  175.3400  145.4270 C   0  0  0  0  0  0  0  0  0  0  0  0
  191.9970  175.8980  144.3330 C   0  0  0  0  0  3  0  0  0  0  0  0
  193.2290  176.5350  144.5130 C   0  0  0  0  0  3  0  0  0  0  0  0
  193.1320  176.0570  146.8840 C   0  0  0  0  0  3  0  0  0  0  0  0
  191.9020  175.4200  146.7060 C   0  0  0  0  0  3  0  0  0  0  0  0
  1 12  1  0  0  0  0
  1 15  1  6  0  0  0
  2 12  1  0  0  0  0
  3 11  1  6  0  0  0
  3  1  1  0  0  0  0
  4 14  1  0  0  0  0
  5 13  1  0  0  0  0
  6  2  1  0  0  0  0
  7 16  1  0  0  0  0
  8 17  2  0  0  0  0
  9  7  2  0  0  0  0
 10 19  1  0  0  0  0
 11  2  1  0  0  0  0
 12 23  1  6  0  0  0
 13  9  1  0  0  0  0
 13  4  2  0  0  0  0
 14 16  1  0  0  0  0
 14 18  2  0  0  0  0
 15 20  1  0  0  0  0
 16 11  2  0  0  0  0
 17 10  1  0  0  0  0
 18  6  1  0  0  0  0
 19 20  1  0  0  0  0
 21 17  1  0  0  0  0
 21  3  1  0  0  0  0
 22 26  1  0  0  0  0
 23 27  1  0  0  0  0
 24 25  1  0  0  0  0
 24 23  2  0  0  0  0
 25 22  2  0  0  0  0
 27 26  2  0  0  0  0
M  END
>  <MODEL>
5

>  <REMARK>
 VINA RESULT:      -7.2      2.391      5.107
  Name = 
  1 active torsions:
  status: ('A' for Active; 'I' for Inactive)
    1  A    between atoms: C_9  and  C_15
                            x       y       z     vdW  Elec       q    Type
                         _______ _______ _______ _____ _____    ______ ____

>  <TORSDO>
F 1

$$$$
=
 OpenBabel11052418213D

 27 31  0  0  1  0  0  0  0  0999 V2000
  190.3280  173.7690  143.8200 C   0  0  1  0  0  3  0  0  0  0  0  0
  191.8670  174.8100  145.2670 N   0  0  0  0  0  0  0  0  0  0  0  0
  191.4270  174.3850  142.9470 C   0  0  1  0  0  3  0  0  0  0  0  0
  195.6500  176.3830  144.6390 C   0  0  0  0  0  3  0  0  0  0  0  0
  197.4550  177.0520  143.1380 N   0  0  0  0  0  1  0  0  0  0  0  0
  192.6230  175.1990  146.4530 C   0  0  0  0  0  2  0  0  0  0  0  0
  194.1530  175.4820  142.4550 C   0  0  0  0  0  3  0  0  0  0  0  0
  191.8020  172.0730  140.1440 O   0  0  0  0  0  0  0  0  0  0  0  0
  195.4190  176.0380  142.2550 C   0  0  0  0  0  3  0  0  0  0  0  0
  190.1140  173.7430  140.3980 C   0  0  0  0  0  2  0  0  0  0  0  0
  192.4140  174.8440  143.9650 C   0  0  0  0  0  0  0  0  0  0  0  0
  190.4940  174.3420  145.2450 C   0  0  1  0  0  3  0  0  0  0  0  0
  196.1670  176.4860  143.3450 C   0  0  0  0  0  0  0  0  0  0  0  0
  194.3850  175.8280  144.8560 C   0  0  0  0  0  0  0  0  0  0  0  0
  188.9410  173.8530  143.1920 C   0  0  0  0  0  2  0  0  0  0  0  0
  193.6270  175.3670  143.7500 C   0  0  0  0  0  0  0  0  0  0  0  0
  191.3390  173.0080  140.8470 C   0  0  0  0  0  0  0  0  0  0  0  0
  193.9280  175.7570  146.0780 N   0  0  0  0  0  0  0  0  0  0  0  0
  188.8270  172.9490  140.6180 C   0  0  0  0  0  2  0  0  0  0  0  0
  188.6160  172.2910  142.3150 S   0  0  0  0  0  0  0  0  0  0  0  0
  191.9860  173.3630  142.0720 N   0  0  0  0  0  2  0  0  0  0  0  0
  187.7580  177.5410  146.1580 C   0  0  0  0  0  3  0  0  0  0  0  0
  189.5510  175.4740  145.5540 C   0  0  0  0  0  0  0  0  0  0  0  0
  188.6190  175.3180  146.5860 C   0  0  0  0  0  3  0  0  0  0  0  0
  187.7240  176.3490  146.8880 C   0  0  0  0  0  3  0  0  0  0  0  0
  188.6860  177.7020  145.1250 C   0  0  0  0  0  3  0  0  0  0  0  0
  189.5800  176.6720  144.8220 C   0  0  0  0  0  3  0  0  0  0  0  0
  1 15  1  6  0  0  0
  1 12  1  0  0  0  0
  2  6  1  0  0  0  0
  3 21  1  6  0  0  0
  3  1  1  0  0  0  0
  3 11  1  0  0  0  0
  4 14  1  0  0  0  0
  5 13  1  0  0  0  0
  7 16  1  0  0  0  0
  8 17  2  0  0  0  0
  9  7  2  0  0  0  0
  9 13  1  0  0  0  0
 10 19  1  0  0  0  0
 10 17  1  0  0  0  0
 11  2  1  0  0  0  0
 12  2  1  0  0  0  0
 12 23  1  6  0  0  0
 13  4  2  0  0  0  0
 14 18  2  0  0  0  0
 16 11  2  0  0  0  0
 16 14  1  0  0  0  0
 17 21  1  0  0  0  0
 18  6  1  0  0  0  0
 19 20  1  0  0  0  0
 20 15  1  0  0  0  0
 22 25  1  0  0  0  0
 23 24  1  0  0  0  0
 24 25  2  0  0  0  0
 26 22  2  0  0  0  0
 27 26  1  0  0  0  0
 27 23  2  0  0  0  0
M  END
>  <MODEL>
6

>  <REMARK>
 VINA RESULT:      -7.1      3.407      6.073
  Name = 
  1 active torsions:
  status: ('A' for Active; 'I' for Inactive)
    1  A    between atoms: C_9  and  C_15
                            x       y       z     vdW  Elec       q    Type
                         _______ _______ _______ _____ _____    ______ ____

>  <TORSDO>
F 1

$$$$
=
 OpenBabel11052418213D

 27 31  0  0  1  0  0  0  0  0999 V2000
  191.9350  176.2880  144.2530 C   0  0  1  0  0  3  0  0  0  0  0  0
  190.1080  175.8270  142.8380 N   0  0  0  0  0  0  0  0  0  0  0  0
  192.1540  174.8880  143.6690 C   0  0  1  0  0  3  0  0  0  0  0  0
  189.4270  172.8230  140.0650 C   0  0  0  0  0  3  0  0  0  0  0  0
  190.0620  170.7150  139.0110 N   0  0  0  0  0  1  0  0  0  0  0  0
  188.9330  175.9730  141.9860 C   0  0  0  0  0  2  0  0  0  0  0  0
  191.7160  172.7230  141.6680 C   0  0  0  0  0  3  0  0  0  0  0  0
  195.7720  174.6020  143.2540 O   0  0  0  0  0  0  0  0  0  0  0  0
  191.4610  171.7040  140.7480 C   0  0  0  0  0  3  0  0  0  0  0  0
  194.5430  174.3140  145.2810 C   0  0  0  0  0  2  0  0  0  0  0  0
  191.0520  174.7880  142.6720 C   0  0  0  0  0  0  0  0  0  0  0  0
  190.4780  176.6950  143.9400 C   0  0  1  0  0  3  0  0  0  0  0  0
  190.3190  171.7550  139.9460 C   0  0  0  0  0  0  0  0  0  0  0  0
  189.6690  173.8510  140.9810 C   0  0  0  0  0  0  0  0  0  0  0  0
  192.4000  176.4190  145.6980 C   0  0  0  0  0  2  0  0  0  0  0  0
  190.8310  173.8050  141.7920 C   0  0  0  0  0  0  0  0  0  0  0  0
  194.6440  174.5840  143.8110 C   0  0  0  0  0  0  0  0  0  0  0  0
  188.8080  174.8300  141.0730 N   0  0  0  0  0  0  0  0  0  0  0  0
  194.9390  175.5160  146.1370 C   0  0  0  0  0  2  0  0  0  0  0  0
  194.0960  177.0810  145.6950 S   0  0  0  0  0  0  0  0  0  0  0  0
  193.4650  174.8220  143.0380 N   0  0  0  0  0  2  0  0  0  0  0  0
  187.7740  176.2000  147.2560 C   0  0  0  0  0  3  0  0  0  0  0  0
  189.5340  176.5010  145.0970 C   0  0  0  0  0  0  0  0  0  0  0  0
  188.6650  177.5400  145.4460 C   0  0  0  0  0  3  0  0  0  0  0  0
  187.7850  177.3900  146.5230 C   0  0  0  0  0  3  0  0  0  0  0  0
  188.6420  175.1590  146.9140 C   0  0  0  0  0  3  0  0  0  0  0  0
  189.5220  175.3080  145.8380 C   0  0  0  0  0  3  0  0  0  0  0  0
  1 15  1  1  0  0  0
  2 12  1  0  0  0  0
  3 11  1  6  0  0  0
  3  1  1  0  0  0  0
  4 14  1  0  0  0  0
  5 13  1  0  0  0  0
  6  2  1  0  0  0  0
  7 16  1  0  0  0  0
  8 17  2  0  0  0  0
  9  7  2  0  0  0  0
 10 19  1  0  0  0  0
 11  2  1  0  0  0  0
 12  1  1  0  0  0  0
 12 23  1  1  0  0  0
 13  4  2  0  0  0  0
 13  9  1  0  0  0  0
 14 18  2  0  0  0  0
 14 16  1  0  0  0  0
 16 11  2  0  0  0  0
 17 10  1  0  0  0  0
 18  6  1  0  0  0  0
 20 15  1  0  0  0  0
 20 19  1  0  0  0  0
 21  3  1  0  0  0  0
 21 17  1  0  0  0  0
 23 24  2  0  0  0  0
 23 27  1  0  0  0  0
 24 25  1  0  0  0  0
 25 22  2  0  0  0  0
 26 22  1  0  0  0  0
 27 26  2  0  0  0  0
M  END
>  <MODEL>
7

>  <REMARK>
 VINA RESULT:      -7.0      2.283      3.171
  Name = 
  1 active torsions:
  status: ('A' for Active; 'I' for Inactive)
    1  A    between atoms: C_9  and  C_15
                            x       y       z     vdW  Elec       q    Type
                         _______ _______ _______ _____ _____    ______ ____

>  <TORSDO>
F 1

$$$$
=
 OpenBabel11052418213D

 27 31  0  0  1  0  0  0  0  0999 V2000
  189.2030  173.7920  141.7450 C   0  0  1  0  0  3  0  0  0  0  0  0
  189.6630  174.5420  143.9300 N   0  0  0  0  0  0  0  0  0  0  0  0
  190.7210  173.9780  141.8510 C   0  0  1  0  0  3  0  0  0  0  0  0
  193.2050  174.9430  146.0450 C   0  0  0  0  0  3  0  0  0  0  0  0
  195.6440  174.9140  146.1380 N   0  0  0  0  0  1  0  0  0  0  0  0
  189.5490  174.8500  145.3520 C   0  0  0  0  0  2  0  0  0  0  0  0
  193.2890  174.2280  143.3420 C   0  0  0  0  0  3  0  0  0  0  0  0
  192.1370  171.3350  139.7660 O   0  0  0  0  0  0  0  0  0  0  0  0
  194.4750  174.3920  144.0600 C   0  0  0  0  0  3  0  0  0  0  0  0
  191.2430  173.4180  139.0140 C   0  0  0  0  0  2  0  0  0  0  0  0
  190.8990  174.2710  143.3010 C   0  0  0  0  0  0  0  0  0  0  0  0
  188.5680  174.4650  142.9820 C   0  0  1  0  0  3  0  0  0  0  0  0
  194.4340  174.7480  145.4100 C   0  0  0  0  0  0  0  0  0  0  0  0
  192.0080  174.7820  145.3400 C   0  0  0  0  0  0  0  0  0  0  0  0
  188.6430  174.1730  140.3790 C   0  0  0  0  0  2  0  0  0  0  0  0
  192.0490  174.4160  143.9710 C   0  0  0  0  0  0  0  0  0  0  0  0
  191.6190  172.4360  140.0820 C   0  0  0  0  0  0  0  0  0  0  0  0
  190.8780  174.9840  145.9630 N   0  0  0  0  0  0  0  0  0  0  0  0
  189.9610  173.0350  138.2770 C   0  0  0  0  0  2  0  0  0  0  0  0
  188.5340  172.6650  139.3650 S   0  0  0  0  0  0  0  0  0  0  0  0
  191.3920  172.7460  141.4600 N   0  0  0  0  0  2  0  0  0  0  0  0
  186.9380  178.3700  142.1810 C   0  0  0  0  0  3  0  0  0  0  0  0
  188.0170  175.8390  142.7070 C   0  0  0  0  0  0  0  0  0  0  0  0
  186.6330  176.0390  142.7640 C   0  0  0  0  0  3  0  0  0  0  0  0
  186.0940  177.3030  142.5030 C   0  0  0  0  0  3  0  0  0  0  0  0
  188.3200  178.1750  142.1200 C   0  0  0  0  0  3  0  0  0  0  0  0
  188.8600  176.9130  142.3810 C   0  0  0  0  0  3  0  0  0  0  0  0
  1 15  1  6  0  0  0
  1  3  1  0  0  0  0
  1 12  1  0  0  0  0
  2  6  1  0  0  0  0
  3 21  1  1  0  0  0
  3 11  1  0  0  0  0
  6 18  1  0  0  0  0
  7 16  1  0  0  0  0
  7  9  2  0  0  0  0
  8 17  2  0  0  0  0
  9 13  1  0  0  0  0
 10 17  1  0  0  0  0
 11  2  1  0  0  0  0
 11 16  2  0  0  0  0
 12 23  1  6  0  0  0
 12  2  1  0  0  0  0
 13  4  2  0  0  0  0
 13  5  1  0  0  0  0
 14 18  2  0  0  0  0
 14  4  1  0  0  0  0
 16 14  1  0  0  0  0
 17 21  1  0  0  0  0
 19 10  1  0  0  0  0
 19 20  1  0  0  0  0
 20 15  1  0  0  0  0
 22 25  1  0  0  0  0
 23 24  1  0  0  0  0
 25 24  2  0  0  0  0
 26 22  2  0  0  0  0
 26 27  1  0  0  0  0
 27 23  2  0  0  0  0
M  END
>  <MODEL>
8

>  <REMARK>
 VINA RESULT:      -7.0      3.331      6.070
  Name = 
  1 active torsions:
  status: ('A' for Active; 'I' for Inactive)
    1  A    between atoms: C_9  and  C_15
                            x       y       z     vdW  Elec       q    Type
                         _______ _______ _______ _____ _____    ______ ____

>  <TORSDO>
F 1

$$$$
=
 OpenBabel11052418213D

 27 31  0  0  1  0  0  0  0  0999 V2000
  191.7540  174.4980  141.7970 C   0  0  1  0  0  3  0  0  0  0  0  0
  191.0960  176.5360  142.7790 N   0  0  0  0  0  0  0  0  0  0  0  0
  190.2670  174.3740  142.1470 C   0  0  1  0  0  3  0  0  0  0  0  0
  187.3730  178.0920  143.7270 C   0  0  0  0  0  3  0  0  0  0  0  0
  184.9560  177.8390  143.9570 N   0  0  0  0  0  1  0  0  0  0  0  0
  191.0550  177.9330  143.1970 C   0  0  0  0  0  2  0  0  0  0  0  0
  187.5690  175.4640  142.7900 C   0  0  0  0  0  3  0  0  0  0  0  0
  188.8490  172.3070  139.4900 O   0  0  0  0  0  0  0  0  0  0  0  0
  186.3240  175.9930  143.1370 C   0  0  0  0  0  3  0  0  0  0  0  0
  190.0660  171.5400  141.3960 C   0  0  0  0  0  2  0  0  0  0  0  0
  189.9320  175.7590  142.5830 C   0  0  0  0  0  0  0  0  0  0  0  0
  192.2920  175.7610  142.5070 C   0  0  1  0  0  3  0  0  0  0  0  0
  186.2260  177.3050  143.6040 C   0  0  0  0  0  0  0  0  0  0  0  0
  188.6270  177.5780  143.3830 C   0  0  0  0  0  0  0  0  0  0  0  0
  192.5310  173.2020  141.9970 C   0  0  0  0  0  2  0  0  0  0  0  0
  188.7280  176.2470  142.9030 C   0  0  0  0  0  0  0  0  0  0  0  0
  189.4430  172.6120  140.5560 C   0  0  0  0  0  0  0  0  0  0  0  0
  189.6800  178.3380  143.5210 N   0  0  0  0  0  0  0  0  0  0  0  0
  191.3830  171.0220  140.8200 C   0  0  0  0  0  2  0  0  0  0  0  0
  192.6010  172.3260  140.4030 S   0  0  0  0  0  0  0  0  0  0  0  0
  189.5180  173.9820  140.9610 N   0  0  0  0  0  2  0  0  0  0  0  0
  194.4480  174.9150  146.1380 C   0  0  0  0  0  3  0  0  0  0  0  0
  193.0280  175.4670  143.7870 C   0  0  0  0  0  0  0  0  0  0  0  0
  194.4130  175.6540  143.8320 C   0  0  0  0  0  3  0  0  0  0  0  0
  195.1230  175.3800  145.0050 C   0  0  0  0  0  3  0  0  0  0  0  0
  193.0640  174.7240  146.0990 C   0  0  0  0  0  3  0  0  0  0  0  0
  192.3540  174.9980  144.9270 C   0  0  0  0  0  3  0  0  0  0  0  0
  1 15  1  1  0  0  0
  1  3  1  0  0  0  0
  1 12  1  0  0  0  0
  2  6  1  0  0  0  0
  3 21  1  6  0  0  0
  3 11  1  0  0  0  0
  6 18  1  0  0  0  0
  7 16  1  0  0  0  0
  7  9  2  0  0  0  0
  8 17  2  0  0  0  0
  9 13  1  0  0  0  0
 11  2  1  0  0  0  0
 11 16  2  0  0  0  0
 12  2  1  0  0  0  0
 12 23  1  1  0  0  0
 13  4  2  0  0  0  0
 13  5  1  0  0  0  0
 14 18  2  0  0  0  0
 14  4  1  0  0  0  0
 16 14  1  0  0  0  0
 17 21  1  0  0  0  0
 17 10  1  0  0  0  0
 19 10  1  0  0  0  0
 20 19  1  0  0  0  0
 20 15  1  0  0  0  0
 23 24  2  0  0  0  0
 23 27  1  0  0  0  0
 24 25  1  0  0  0  0
 25 22  2  0  0  0  0
 26 22  1  0  0  0  0
 27 26  2  0  0  0  0
M  END
>  <MODEL>
9

>  <REMARK>
 VINA RESULT:      -6.9      3.158      6.325
  Name = 
  1 active torsions:
  status: ('A' for Active; 'I' for Inactive)
    1  A    between atoms: C_9  and  C_15
                            x       y       z     vdW  Elec       q    Type
                         _______ _______ _______ _____ _____    ______ ____

>  <TORSDO>
F 1

$$$$
