=
 OpenBabel11052419023D

 34 37  0  0  1  0  0  0  0  0999 V2000
  191.2040  172.3550  140.7730 C   0  0  2  0  0  3  0  0  0  0  0  0
  190.6780  174.5670  141.9910 C   0  0  2  0  0  3  0  0  0  0  0  0
  190.4910  176.5260  143.5920 C   0  0  1  0  0  3  0  0  0  0  0  0
  188.4360  175.1990  142.9690 C   0  0  0  0  0  2  0  0  0  0  0  0
  190.2500  173.0980  141.7220 C   0  0  2  0  0  3  0  0  0  0  0  0
  187.7080  176.2900  143.7640 C   0  0  0  0  0  2  0  0  0  0  0  0
  189.8620  177.0390  144.8920 C   0  0  0  0  0  2  0  0  0  0  0  0
  192.1570  174.6430  142.0640 N   0  0  2  0  0  0  0  0  0  0  0  0
  191.9570  173.3350  139.8870 C   0  0  0  0  0  2  0  0  0  0  0  0
  191.9890  176.4520  143.7610 C   0  0  0  0  0  2  0  0  0  0  0  0
  192.6230  175.9900  142.4550 C   0  0  1  0  0  3  0  0  0  0  0  0
  188.4100  176.5730  145.0920 C   0  0  1  0  0  3  0  0  0  0  0  0
  189.9540  175.1450  143.2220 C   0  0  1  0  0  3  0  0  0  0  0  0
  192.7230  174.3740  140.7230 C   0  0  0  0  0  2  0  0  0  0  0  0
  196.0860  175.5010  143.9290 C   0  0  0  0  0  0  0  0  0  0  0  0
  196.8990  176.0780  142.9490 C   0  0  0  0  0  3  0  0  0  0  0  0
  194.1170  176.0310  142.6170 C   0  0  0  0  0  0  0  0  0  0  0  0
  196.3240  176.6300  141.7990 C   0  0  0  0  0  3  0  0  0  0  0  0
  194.6980  175.4760  143.7630 C   0  0  0  0  0  3  0  0  0  0  0  0
  194.9360  176.6060  141.6320 C   0  0  0  0  0  3  0  0  0  0  0  0
  196.6440  174.9610  145.0390 F   0  0  0  0  0  0  0  0  0  0  0  0
  188.0380  177.7960  147.2300 O   0  0  0  0  0  1  0  0  0  0  0  0
  186.5910  178.1690  145.4450 C   0  0  0  0  0  0  0  0  0  0  0  0
  185.5490  178.7820  144.9570 C   0  0  0  0  0  0  0  0  0  0  0  0
  187.6370  177.5490  145.9240 C   0  0  0  0  0  0  0  0  0  0  0  0
  184.2450  178.7090  145.6840 C   0  0  0  0  0  2  0  0  0  0  0  0
  184.4670  178.3300  147.1360 C   0  0  0  0  0  1  0  0  0  0  0  0
  185.6730  179.5200  143.6650 C   0  0  0  0  0  2  0  0  0  0  0  0
  185.1450  178.6770  142.5190 C   0  0  0  0  0  1  0  0  0  0  0  0
  190.4600  171.3580  139.9460 C   0  0  0  0  0  0  0  0  0  0  0  0
  190.8620  170.0300  139.9460 O   0  0  0  0  0  1  0  0  0  0  0  0
  189.4710  171.7120  139.2500 O   0  0  0  0  0  0  0  0  0  0  0  0
  189.9410  172.3490  142.8830 O   0  0  0  0  0  0  0  0  0  0  0  0
  191.0870  171.6490  143.2990 C   0  0  0  0  0  1  0  0  0  0  0  0
  1 30  1  6  0  0  0
  1  5  1  0  0  0  0
  2  8  1  0  0  0  0
  2 13  1  0  0  0  0
  3 10  1  0  0  0  0
  3  7  1  0  0  0  0
  4 13  1  0  0  0  0
  4  6  1  0  0  0  0
  5  2  1  0  0  0  0
  5 33  1  0  0  0  0
  6 12  1  0  0  0  0
  7 12  1  0  0  0  0
  8 11  1  0  0  0  0
  9 14  1  0  0  0  0
  9  1  1  0  0  0  0
 11 17  1  0  0  0  0
 11 10  1  0  0  0  0
 12 25  1  0  0  0  0
 13  3  1  0  0  0  0
 14  8  1  0  0  0  0
 15 21  1  0  0  0  0
 16 15  2  0  0  0  0
 17 19  2  0  0  0  0
 18 16  1  0  0  0  0
 19 15  1  0  0  0  0
 20 18  2  0  0  0  0
 20 17  1  0  0  0  0
 23 25  2  0  0  0  0
 24 23  2  0  0  0  0
 24 26  1  0  0  0  0
 25 22  1  0  0  0  0
 26 27  1  0  0  0  0
 28 24  1  0  0  0  0
 29 28  1  0  0  0  0
 31 30  1  0  0  0  0
 32 30  2  0  0  0  0
 33 34  1  0  0  0  0
M  END
>  <MODEL>
1

>  <REMARK>
 VINA RESULT:      -7.7      0.000      0.000
  Name = 
  6 active torsions:
  status: ('A' for Active; 'I' for Inactive)
    1  A    between atoms: C_1  and  C_6
    2  A    between atoms: O_2  and  C_15
    3  A    between atoms: C_11  and  C_20
    4  A    between atoms: C_12  and  C_28
    5  A    between atoms: C_14  and  C_20
    6  A    between atoms: C_29  and  C_33
                            x       y       z     vdW  Elec       q    Type
                         _______ _______ _______ _____ _____    ______ ____

>  <TORSDO>
F 6

$$$$
=
 OpenBabel11052419023D

 34 37  0  0  1  0  0  0  0  0999 V2000
  191.5910  173.0750  140.3970 C   0  0  2  0  0  3  0  0  0  0  0  0
  191.1850  174.8060  142.2670 C   0  0  2  0  0  3  0  0  0  0  0  0
  190.7930  176.0530  144.4410 C   0  0  1  0  0  3  0  0  0  0  0  0
  189.0420  176.0970  142.6220 C   0  0  0  0  0  2  0  0  0  0  0  0
  190.5490  173.8630  141.2080 C   0  0  2  0  0  3  0  0  0  0  0  0
  188.3630  177.1140  143.5470 C   0  0  0  0  0  2  0  0  0  0  0  0
  189.7760  176.3940  145.5360 C   0  0  0  0  0  2  0  0  0  0  0  0
  192.3800  174.1530  142.8520 N   0  0  2  0  0  0  0  0  0  0  0  0
  192.9290  173.7980  140.3890 C   0  0  0  0  0  2  0  0  0  0  0  0
  191.9140  175.2390  145.0400 C   0  0  0  0  0  2  0  0  0  0  0  0
  192.9520  174.9400  143.9650 C   0  0  1  0  0  3  0  0  0  0  0  0
  188.3560  176.6290  144.9970 C   0  0  1  0  0  3  0  0  0  0  0  0
  190.1430  175.2650  143.3050 C   0  0  1  0  0  3  0  0  0  0  0  0
  193.4360  174.0580  141.8180 C   0  0  0  0  0  2  0  0  0  0  0  0
  195.0080  172.2160  145.6240 C   0  0  0  0  0  0  0  0  0  0  0  0
  196.2370  172.8560  145.8070 C   0  0  0  0  0  3  0  0  0  0  0  0
  194.1060  174.2260  144.6110 C   0  0  0  0  0  0  0  0  0  0  0  0
  196.4050  174.1800  145.3910 C   0  0  0  0  0  3  0  0  0  0  0  0
  193.9450  172.8990  145.0250 C   0  0  0  0  0  3  0  0  0  0  0  0
  195.3430  174.8640  144.7930 C   0  0  0  0  0  3  0  0  0  0  0  0
  194.8480  170.9310  146.0220 F   0  0  0  0  0  0  0  0  0  0  0  0
  188.0140  177.7640  147.1880 O   0  0  0  0  0  1  0  0  0  0  0  0
  186.5200  178.1800  145.4520 C   0  0  0  0  0  0  0  0  0  0  0  0
  185.4580  178.7940  145.0110 C   0  0  0  0  0  0  0  0  0  0  0  0
  187.5870  177.5600  145.8830 C   0  0  0  0  0  0  0  0  0  0  0  0
  184.1730  178.6710  145.7640 C   0  0  0  0  0  2  0  0  0  0  0  0
  184.4390  178.3340  147.2190 C   0  0  0  0  0  1  0  0  0  0  0  0
  185.5410  179.5830  143.7460 C   0  0  0  0  0  2  0  0  0  0  0  0
  185.2420  178.6990  142.5490 C   0  0  0  0  0  1  0  0  0  0  0  0
  191.1090  172.8380  139.0040 C   0  0  0  0  0  0  0  0  0  0  0  0
  191.3540  171.6170  138.3920 O   0  0  0  0  0  1  0  0  0  0  0  0
  190.4820  173.7360  138.3800 O   0  0  0  0  0  0  0  0  0  0  0  0
  189.5030  173.0430  141.6980 O   0  0  0  0  0  0  0  0  0  0  0  0
  190.0240  171.7810  142.0300 C   0  0  0  0  0  1  0  0  0  0  0  0
  1 30  1  6  0  0  0
  1  5  1  0  0  0  0
  2  8  1  0  0  0  0
  2 13  1  0  0  0  0
  3 10  1  0  0  0  0
  3  7  1  0  0  0  0
  4 13  1  0  0  0  0
  4  6  1  0  0  0  0
  5 33  1  0  0  0  0
  5  2  1  0  0  0  0
  6 12  1  0  0  0  0
  8 11  1  0  0  0  0
  9  1  1  0  0  0  0
  9 14  1  0  0  0  0
 11 17  1  0  0  0  0
 11 10  1  0  0  0  0
 12  7  1  0  0  0  0
 12 25  1  0  0  0  0
 13  3  1  0  0  0  0
 14  8  1  0  0  0  0
 15 16  1  0  0  0  0
 15 21  1  0  0  0  0
 17 20  2  0  0  0  0
 17 19  1  0  0  0  0
 18 16  2  0  0  0  0
 19 15  2  0  0  0  0
 20 18  1  0  0  0  0
 23 25  2  0  0  0  0
 24 23  2  0  0  0  0
 24 26  1  0  0  0  0
 25 22  1  0  0  0  0
 26 27  1  0  0  0  0
 28 24  1  0  0  0  0
 29 28  1  0  0  0  0
 31 30  1  0  0  0  0
 32 30  2  0  0  0  0
 33 34  1  0  0  0  0
M  END
>  <MODEL>
2

>  <REMARK>
 VINA RESULT:      -7.6      1.663      2.023
  Name = 
  6 active torsions:
  status: ('A' for Active; 'I' for Inactive)
    1  A    between atoms: C_1  and  C_6
    2  A    between atoms: O_2  and  C_15
    3  A    between atoms: C_11  and  C_20
    4  A    between atoms: C_12  and  C_28
    5  A    between atoms: C_14  and  C_20
    6  A    between atoms: C_29  and  C_33
                            x       y       z     vdW  Elec       q    Type
                         _______ _______ _______ _____ _____    ______ ____

>  <TORSDO>
F 6

$$$$
=
 OpenBabel11052419023D

 34 37  0  0  1  0  0  0  0  0999 V2000
  194.0990  174.2390  144.7650 C   0  0  2  0  0  3  0  0  0  0  0  0
  191.5670  174.1750  144.2750 C   0  0  2  0  0  3  0  0  0  0  0  0
  189.2430  174.1700  143.2570 C   0  0  1  0  0  3  0  0  0  0  0  0
  189.9180  175.9970  144.8640 C   0  0  0  0  0  2  0  0  0  0  0  0
  192.8010  175.0510  144.6250 C   0  0  2  0  0  3  0  0  0  0  0  0
  188.4440  176.4020  144.7430 C   0  0  0  0  0  2  0  0  0  0  0  0
  188.1400  175.0260  142.6260 C   0  0  0  0  0  2  0  0  0  0  0  0
  191.9800  173.0930  143.3490 N   0  0  2  0  0  0  0  0  0  0  0  0
  193.7960  172.7900  145.1100 C   0  0  0  0  0  2  0  0  0  0  0  0
  189.7610  173.1920  142.2310 C   0  0  0  0  0  2  0  0  0  0  0  0
  190.8250  172.3060  142.8680 C   0  0  1  0  0  3  0  0  0  0  0  0
  187.9860  176.4060  143.2850 C   0  0  1  0  0  3  0  0  0  0  0  0
  190.3970  175.0360  143.7600 C   0  0  1  0  0  3  0  0  0  0  0  0
  192.8620  172.1480  144.0710 C   0  0  0  0  0  2  0  0  0  0  0  0
  192.3960  170.7180  139.8010 C   0  0  0  0  0  0  0  0  0  0  0  0
  192.0510  169.3730  139.9650 C   0  0  0  0  0  3  0  0  0  0  0  0
  191.2420  171.2720  141.8590 C   0  0  0  0  0  0  0  0  0  0  0  0
  191.3030  168.9740  141.0780 C   0  0  0  0  0  3  0  0  0  0  0  0
  191.9940  171.6650  140.7470 C   0  0  0  0  0  3  0  0  0  0  0  0
  190.9000  169.9210  142.0250 C   0  0  0  0  0  3  0  0  0  0  0  0
  193.1250  171.1030  138.7250 F   0  0  0  0  0  0  0  0  0  0  0  0
  185.9990  176.9750  141.8940 O   0  0  0  0  0  1  0  0  0  0  0  0
  185.9070  177.3160  144.1950 C   0  0  0  0  0  0  0  0  0  0  0  0
  185.2380  177.7090  145.2430 C   0  0  0  0  0  0  0  0  0  0  0  0
  186.5850  176.9180  143.1510 C   0  0  0  0  0  0  0  0  0  0  0  0
  184.6370  179.0770  145.2610 C   0  0  0  0  0  2  0  0  0  0  0  0
  185.3470  179.9820  144.2710 C   0  0  0  0  0  1  0  0  0  0  0  0
  185.1140  176.7950  146.4170 C   0  0  0  0  0  2  0  0  0  0  0  0
  186.1130  177.1750  147.4940 C   0  0  0  0  0  1  0  0  0  0  0  0
  195.0000  174.8500  145.7880 C   0  0  0  0  0  0  0  0  0  0  0  0
  194.5010  175.8150  146.6520 O   0  0  0  0  0  1  0  0  0  0  0  0
  196.2060  174.4980  145.8730 O   0  0  0  0  0  0  0  0  0  0  0  0
  192.9600  176.2010  143.8150 O   0  0  0  0  0  0  0  0  0  0  0  0
  193.8320  175.9010  142.7540 C   0  0  0  0  0  1  0  0  0  0  0  0
  1  9  1  0  0  0  0
  1 30  1  1  0  0  0
  2  5  1  0  0  0  0
  3 13  1  0  0  0  0
  5  1  1  0  0  0  0
  6  4  1  0  0  0  0
  7  3  1  0  0  0  0
  7 12  1  0  0  0  0
  8 14  1  0  0  0  0
  8  2  1  0  0  0  0
 10 11  1  0  0  0  0
 10  3  1  0  0  0  0
 11  8  1  0  0  0  0
 12  6  1  0  0  0  0
 13  2  1  0  0  0  0
 13  4  1  0  0  0  0
 14  9  1  0  0  0  0
 15 16  2  0  0  0  0
 15 19  1  0  0  0  0
 16 18  1  0  0  0  0
 17 20  1  0  0  0  0
 17 11  1  0  0  0  0
 18 20  2  0  0  0  0
 19 17  2  0  0  0  0
 21 15  1  0  0  0  0
 22 25  1  0  0  0  0
 23 24  2  0  0  0  0
 24 26  1  0  0  0  0
 24 28  1  0  0  0  0
 25 12  1  0  0  0  0
 25 23  2  0  0  0  0
 27 26  1  0  0  0  0
 28 29  1  0  0  0  0
 30 32  2  0  0  0  0
 30 31  1  0  0  0  0
 33  5  1  0  0  0  0
 34 33  1  0  0  0  0
M  END
>  <MODEL>
3

>  <REMARK>
 VINA RESULT:      -7.3      2.997      5.381
  Name = 
  6 active torsions:
  status: ('A' for Active; 'I' for Inactive)
    1  A    between atoms: C_1  and  C_6
    2  A    between atoms: O_2  and  C_15
    3  A    between atoms: C_11  and  C_20
    4  A    between atoms: C_12  and  C_28
    5  A    between atoms: C_14  and  C_20
    6  A    between atoms: C_29  and  C_33
                            x       y       z     vdW  Elec       q    Type
                         _______ _______ _______ _____ _____    ______ ____

>  <TORSDO>
F 6

$$$$
=
 OpenBabel11052419023D

 34 37  0  0  1  0  0  0  0  0999 V2000
  195.6260  173.7380  144.6820 C   0  0  2  0  0  3  0  0  0  0  0  0
  193.1380  174.0820  145.2700 C   0  0  2  0  0  3  0  0  0  0  0  0
  190.6560  174.6060  145.3150 C   0  0  1  0  0  3  0  0  0  0  0  0
  192.2400  175.8400  146.8470 C   0  0  0  0  0  2  0  0  0  0  0  0
  194.5670  174.6910  145.2590 C   0  0  2  0  0  3  0  0  0  0  0  0
  190.9440  176.4190  147.4280 C   0  0  0  0  0  2  0  0  0  0  0  0
  189.6010  175.7150  145.3850 C   0  0  0  0  0  2  0  0  0  0  0  0
  192.9460  173.2570  144.0530 N   0  0  2  0  0  0  0  0  0  0  0  0
  195.1780  172.2910  144.8110 C   0  0  0  0  0  2  0  0  0  0  0  0
  190.5440  173.8970  143.9880 C   0  0  0  0  0  2  0  0  0  0  0  0
  191.5590  172.7610  143.9350 C   0  0  1  0  0  3  0  0  0  0  0  0
  189.9920  176.8710  146.3210 C   0  0  1  0  0  3  0  0  0  0  0  0
  192.0670  175.1720  145.4710 C   0  0  1  0  0  3  0  0  0  0  0  0
  193.8150  172.0620  144.1360 C   0  0  0  0  0  2  0  0  0  0  0  0
  190.8380  169.9210  141.5230 C   0  0  0  0  0  0  0  0  0  0  0  0
  190.9410  170.5630  140.2850 C   0  0  0  0  0  3  0  0  0  0  0  0
  191.3510  172.0050  142.6520 C   0  0  0  0  0  0  0  0  0  0  0  0
  191.2460  171.9270  140.2270 C   0  0  0  0  0  3  0  0  0  0  0  0
  191.0410  170.6410  142.7040 C   0  0  0  0  0  3  0  0  0  0  0  0
  191.4490  172.6480  141.4080 C   0  0  0  0  0  3  0  0  0  0  0  0
  190.5370  168.6020  141.5780 F   0  0  0  0  0  0  0  0  0  0  0  0
  188.8840  178.2520  148.0740 O   0  0  0  0  0  1  0  0  0  0  0  0
  187.6250  177.4830  146.2740 C   0  0  0  0  0  0  0  0  0  0  0  0
  186.4770  177.4130  145.6580 C   0  0  0  0  0  0  0  0  0  0  0  0
  188.7790  177.5480  146.8830 C   0  0  0  0  0  0  0  0  0  0  0  0
  185.2750  176.9230  146.3970 C   0  0  0  0  0  2  0  0  0  0  0  0
  184.2560  178.0360  146.5540 C   0  0  0  0  0  1  0  0  0  0  0  0
  186.3960  177.7970  144.2180 C   0  0  0  0  0  2  0  0  0  0  0  0
  186.7150  176.6070  143.3320 C   0  0  0  0  0  1  0  0  0  0  0  0
  196.9460  173.9450  145.3500 C   0  0  0  0  0  0  0  0  0  0  0  0
  197.0790  173.6750  146.7050 O   0  0  0  0  0  1  0  0  0  0  0  0
  197.9380  174.3620  144.6940 O   0  0  0  0  0  0  0  0  0  0  0  0
  194.6510  175.9950  144.7130 O   0  0  0  0  0  0  0  0  0  0  0  0
  194.9680  175.9050  143.3470 C   0  0  0  0  0  1  0  0  0  0  0  0
  1  9  1  0  0  0  0
  1  5  1  0  0  0  0
  1 30  1  1  0  0  0
  2 13  1  0  0  0  0
  3  7  1  0  0  0  0
  3 13  1  0  0  0  0
  4  6  1  0  0  0  0
  5  2  1  0  0  0  0
  7 12  1  0  0  0  0
  8 14  1  0  0  0  0
  8  2  1  0  0  0  0
 10  3  1  0  0  0  0
 11 10  1  0  0  0  0
 11  8  1  0  0  0  0
 12 25  1  0  0  0  0
 12  6  1  0  0  0  0
 13  4  1  0  0  0  0
 14  9  1  0  0  0  0
 15 21  1  0  0  0  0
 15 19  1  0  0  0  0
 16 15  2  0  0  0  0
 17 19  2  0  0  0  0
 17 11  1  0  0  0  0
 18 16  1  0  0  0  0
 18 20  2  0  0  0  0
 20 17  1  0  0  0  0
 23 25  2  0  0  0  0
 24 23  2  0  0  0  0
 24 26  1  0  0  0  0
 25 22  1  0  0  0  0
 26 27  1  0  0  0  0
 28 24  1  0  0  0  0
 29 28  1  0  0  0  0
 30 31  1  0  0  0  0
 32 30  2  0  0  0  0
 33  5  1  0  0  0  0
 34 33  1  0  0  0  0
M  END
>  <MODEL>
4

>  <REMARK>
 VINA RESULT:      -7.3      3.292      5.411
  Name = 
  6 active torsions:
  status: ('A' for Active; 'I' for Inactive)
    1  A    between atoms: C_1  and  C_6
    2  A    between atoms: O_2  and  C_15
    3  A    between atoms: C_11  and  C_20
    4  A    between atoms: C_12  and  C_28
    5  A    between atoms: C_14  and  C_20
    6  A    between atoms: C_29  and  C_33
                            x       y       z     vdW  Elec       q    Type
                         _______ _______ _______ _____ _____    ______ ____

>  <TORSDO>
F 6

$$$$
=
 OpenBabel11052419023D

 34 37  0  0  1  0  0  0  0  0999 V2000
  191.1190  175.9420  145.9780 C   0  0  2  0  0  3  0  0  0  0  0  0
  190.0900  175.8390  143.6140 C   0  0  2  0  0  3  0  0  0  0  0  0
  188.6490  175.4880  141.5560 C   0  0  1  0  0  3  0  0  0  0  0  0
  190.9030  174.3640  141.7300 C   0  0  0  0  0  2  0  0  0  0  0  0
  190.9910  175.1420  144.6710 C   0  0  2  0  0  3  0  0  0  0  0  0
  190.6100  173.9510  140.2830 C   0  0  0  0  0  2  0  0  0  0  0  0
  188.1320  174.4680  140.5360 C   0  0  0  0  0  2  0  0  0  0  0  0
  188.9590  176.5100  144.2980 N   0  0  2  0  0  0  0  0  0  0  0  0
  190.8550  177.4200  145.7350 C   0  0  0  0  0  2  0  0  0  0  0  0
  187.4850  176.0240  142.3540 C   0  0  0  0  0  2  0  0  0  0  0  0
  187.9890  177.0750  143.3370 C   0  0  1  0  0  3  0  0  0  0  0  0
  189.1840  173.4210  140.1330 C   0  0  1  0  0  3  0  0  0  0  0  0
  189.6670  174.8570  142.5040 C   0  0  1  0  0  3  0  0  0  0  0  0
  189.4770  177.6470  145.0910 C   0  0  0  0  0  2  0  0  0  0  0  0
  185.0720  177.4880  145.7300 C   0  0  0  0  0  0  0  0  0  0  0  0
  184.5900  178.7520  145.3780 C   0  0  0  0  0  3  0  0  0  0  0  0
  186.7990  177.6700  144.0380 C   0  0  0  0  0  0  0  0  0  0  0  0
  185.2120  179.4790  144.3590 C   0  0  0  0  0  3  0  0  0  0  0  0
  186.1760  176.9490  145.0620 C   0  0  0  0  0  3  0  0  0  0  0  0
  186.3160  178.9420  143.6910 C   0  0  0  0  0  3  0  0  0  0  0  0
  184.4720  176.7860  146.7210 F   0  0  0  0  0  0  0  0  0  0  0  0
  188.9430  171.5340  138.5250 O   0  0  0  0  0  1  0  0  0  0  0  0
  188.7090  173.7180  137.7530 C   0  0  0  0  0  0  0  0  0  0  0  0
  188.4850  174.5380  136.7640 C   0  0  0  0  0  0  0  0  0  0  0  0
  188.9330  172.9040  138.7500 C   0  0  0  0  0  0  0  0  0  0  0  0
  189.3240  174.4490  135.5310 C   0  0  0  0  0  2  0  0  0  0  0  0
  190.7980  174.5400  135.8830 C   0  0  0  0  0  1  0  0  0  0  0  0
  187.4150  175.5700  136.8980 C   0  0  0  0  0  2  0  0  0  0  0  0
  187.3450  176.4280  135.6480 C   0  0  0  0  0  1  0  0  0  0  0  0
  192.4640  175.7380  146.5940 C   0  0  0  0  0  0  0  0  0  0  0  0
  193.0780  176.7880  147.2620 O   0  0  0  0  0  1  0  0  0  0  0  0
  193.0440  174.6230  146.5130 O   0  0  0  0  0  0  0  0  0  0  0  0
  190.6940  173.7760  144.8930 O   0  0  0  0  0  0  0  0  0  0  0  0
  189.6910  173.6750  145.8730 C   0  0  0  0  0  1  0  0  0  0  0  0
  1 30  1  6  0  0  0
  2  8  1  0  0  0  0
  2  5  1  0  0  0  0
  3 10  1  0  0  0  0
  3 13  1  0  0  0  0
  4 13  1  0  0  0  0
  5 33  1  0  0  0  0
  5  1  1  0  0  0  0
  6  4  1  0  0  0  0
  7  3  1  0  0  0  0
  8 14  1  0  0  0  0
  9  1  1  0  0  0  0
 10 11  1  0  0  0  0
 11 17  1  0  0  0  0
 11  8  1  0  0  0  0
 12  6  1  0  0  0  0
 12  7  1  0  0  0  0
 13  2  1  0  0  0  0
 14  9  1  0  0  0  0
 15 21  1  0  0  0  0
 16 15  1  0  0  0  0
 17 19  1  0  0  0  0
 18 16  2  0  0  0  0
 19 15  2  0  0  0  0
 20 17  2  0  0  0  0
 20 18  1  0  0  0  0
 22 25  1  0  0  0  0
 23 25  2  0  0  0  0
 24 28  1  0  0  0  0
 24 23  2  0  0  0  0
 25 12  1  0  0  0  0
 26 27  1  0  0  0  0
 26 24  1  0  0  0  0
 29 28  1  0  0  0  0
 30 31  1  0  0  0  0
 32 30  2  0  0  0  0
 33 34  1  0  0  0  0
M  END
>  <MODEL>
5

>  <REMARK>
 VINA RESULT:      -7.3      3.685      8.060
  Name = 
  6 active torsions:
  status: ('A' for Active; 'I' for Inactive)
    1  A    between atoms: C_1  and  C_6
    2  A    between atoms: O_2  and  C_15
    3  A    between atoms: C_11  and  C_20
    4  A    between atoms: C_12  and  C_28
    5  A    between atoms: C_14  and  C_20
    6  A    between atoms: C_29  and  C_33
                            x       y       z     vdW  Elec       q    Type
                         _______ _______ _______ _____ _____    ______ ____

>  <TORSDO>
F 6

$$$$
=
 OpenBabel11052419023D

 34 37  0  0  1  0  0  0  0  0999 V2000
  191.8140  172.2830  140.5550 C   0  0  2  0  0  3  0  0  0  0  0  0
  190.5980  174.3800  141.4370 C   0  0  2  0  0  3  0  0  0  0  0  0
  189.4190  176.1680  142.7990 C   0  0  1  0  0  3  0  0  0  0  0  0
  188.2140  175.0220  140.8980 C   0  0  0  0  0  2  0  0  0  0  0  0
  190.4610  172.9720  140.7960 C   0  0  2  0  0  3  0  0  0  0  0  0
  187.1260  176.0610  141.1980 C   0  0  0  0  0  2  0  0  0  0  0  0
  188.1110  176.5730  143.4860 C   0  0  0  0  0  2  0  0  0  0  0  0
  191.7160  174.3710  142.4110 N   0  0  2  0  0  0  0  0  0  0  0  0
  192.9290  173.3100  140.4370 C   0  0  0  0  0  2  0  0  0  0  0  0
  190.4960  175.9980  143.8410 C   0  0  0  0  0  2  0  0  0  0  0  0
  191.8110  175.6430  143.1570 C   0  0  1  0  0  3  0  0  0  0  0  0
  186.8550  176.1650  142.6980 C   0  0  1  0  0  3  0  0  0  0  0  0
  189.2550  174.8630  142.0210 C   0  0  1  0  0  3  0  0  0  0  0  0
  192.9940  174.2150  141.6790 C   0  0  0  0  0  2  0  0  0  0  0  0
  194.4350  176.7550  145.6620 C   0  0  0  0  0  0  0  0  0  0  0  0
  194.8850  175.5320  146.1680 C   0  0  0  0  0  3  0  0  0  0  0  0
  192.8870  175.5890  144.2050 C   0  0  0  0  0  0  0  0  0  0  0  0
  194.3360  174.3360  145.6960 C   0  0  0  0  0  3  0  0  0  0  0  0
  193.4370  176.7840  144.6840 C   0  0  0  0  0  3  0  0  0  0  0  0
  193.3380  174.3630  144.7180 C   0  0  0  0  0  3  0  0  0  0  0  0
  194.9640  177.9140  146.1240 F   0  0  0  0  0  0  0  0  0  0  0  0
  184.8860  177.4930  141.9460 O   0  0  0  0  0  1  0  0  0  0  0  0
  185.4780  177.5210  144.1970 C   0  0  0  0  0  0  0  0  0  0  0  0
  185.2540  177.9470  145.4090 C   0  0  0  0  0  0  0  0  0  0  0  0
  185.7110  177.0880  142.9860 C   0  0  0  0  0  0  0  0  0  0  0  0
  185.1560  179.4160  145.6650 C   0  0  0  0  0  2  0  0  0  0  0  0
  185.2010  180.1880  144.3600 C   0  0  0  0  0  1  0  0  0  0  0  0
  185.1300  176.9580  146.5200 C   0  0  0  0  0  2  0  0  0  0  0  0
  186.5010  176.4710  146.9530 C   0  0  0  0  0  1  0  0  0  0  0  0
  191.7590  171.4190  139.3380 C   0  0  0  0  0  0  0  0  0  0  0  0
  190.8550  171.7140  138.3270 O   0  0  0  0  0  0  0  0  0  0  0  0
  192.5260  170.4260  139.2220 O   0  0  0  0  0  1  0  0  0  0  0  0
  189.5200  172.1230  141.4280 O   0  0  0  0  0  0  0  0  0  0  0  0
  190.1260  171.5080  142.5370 C   0  0  0  0  0  1  0  0  0  0  0  0
  1 30  1  6  0  0  0
  1  5  1  0  0  0  0
  2 13  1  0  0  0  0
  2  8  1  0  0  0  0
  3  7  1  0  0  0  0
  3 10  1  0  0  0  0
  4  6  1  0  0  0  0
  4 13  1  0  0  0  0
  5 33  1  0  0  0  0
  5  2  1  0  0  0  0
  6 12  1  0  0  0  0
  8 11  1  0  0  0  0
  9  1  1  0  0  0  0
  9 14  1  0  0  0  0
 11 10  1  0  0  0  0
 11 17  1  0  0  0  0
 12 25  1  0  0  0  0
 12  7  1  0  0  0  0
 13  3  1  0  0  0  0
 14  8  1  0  0  0  0
 15 21  1  0  0  0  0
 15 16  1  0  0  0  0
 17 19  1  0  0  0  0
 17 20  2  0  0  0  0
 18 16  2  0  0  0  0
 19 15  2  0  0  0  0
 20 18  1  0  0  0  0
 22 25  1  0  0  0  0
 23 24  2  0  0  0  0
 24 26  1  0  0  0  0
 24 28  1  0  0  0  0
 25 23  2  0  0  0  0
 27 26  1  0  0  0  0
 28 29  1  0  0  0  0
 31 30  2  0  0  0  0
 32 30  1  0  0  0  0
 33 34  1  0  0  0  0
M  END
>  <MODEL>
6

>  <REMARK>
 VINA RESULT:      -7.3      2.082      2.728
  Name = 
  6 active torsions:
  status: ('A' for Active; 'I' for Inactive)
    1  A    between atoms: C_1  and  C_6
    2  A    between atoms: O_2  and  C_15
    3  A    between atoms: C_11  and  C_20
    4  A    between atoms: C_12  and  C_28
    5  A    between atoms: C_14  and  C_20
    6  A    between atoms: C_29  and  C_33
                            x       y       z     vdW  Elec       q    Type
                         _______ _______ _______ _____ _____    ______ ____

>  <TORSDO>
F 6

$$$$
=
 OpenBabel11052419023D

 34 37  0  0  1  0  0  0  0  0999 V2000
  184.8840  177.5580  142.6500 C   0  0  2  0  0  3  0  0  0  0  0  0
  187.3410  177.0420  143.2380 C   0  0  2  0  0  3  0  0  0  0  0  0
  189.5820  175.9980  143.8080 C   0  0  1  0  0  3  0  0  0  0  0  0
  188.4480  177.5390  145.4560 C   0  0  0  0  0  2  0  0  0  0  0  0
  185.9190  177.3720  143.7700 C   0  0  2  0  0  3  0  0  0  0  0  0
  189.7610  177.3860  146.2320 C   0  0  0  0  0  2  0  0  0  0  0  0
  190.4190  175.3210  144.9000 C   0  0  0  0  0  2  0  0  0  0  0  0
  187.2300  176.1650  142.0490 N   0  0  2  0  0  0  0  0  0  0  0  0
  185.5610  177.9570  141.3480 C   0  0  0  0  0  2  0  0  0  0  0  0
  189.3420  175.0170  142.6870 C   0  0  0  0  0  2  0  0  0  0  0  0
  188.5520  175.7020  141.5780 C   0  0  1  0  0  3  0  0  0  0  0  0
  190.2010  175.9240  146.2970 C   0  0  1  0  0  3  0  0  0  0  0  0
  188.2410  176.4800  144.3570 C   0  0  1  0  0  3  0  0  0  0  0  0
  186.6310  176.9330  140.9340 C   0  0  0  0  0  2  0  0  0  0  0  0
  188.0630  174.3570  138.0630 C   0  0  0  0  0  0  0  0  0  0  0  0
  188.1920  172.9790  138.2630 C   0  0  0  0  0  3  0  0  0  0  0  0
  188.4240  174.7390  140.4300 C   0  0  0  0  0  0  0  0  0  0  0  0
  188.4390  172.4780  139.5450 C   0  0  0  0  0  3  0  0  0  0  0  0
  188.1810  175.2350  139.1440 C   0  0  0  0  0  3  0  0  0  0  0  0
  188.5570  173.3560  140.6270 C   0  0  0  0  0  3  0  0  0  0  0  0
  187.8290  174.8420  136.8200 F   0  0  0  0  0  0  0  0  0  0  0  0
  191.3450  176.0740  148.5060 O   0  0  0  0  0  1  0  0  0  0  0  0
  192.5410  175.3140  146.6590 C   0  0  0  0  0  0  0  0  0  0  0  0
  193.6590  174.8730  146.1530 C   0  0  0  0  0  0  0  0  0  0  0  0
  191.4160  175.7540  147.1570 C   0  0  0  0  0  0  0  0  0  0  0  0
  194.9120  175.6680  146.3330 C   0  0  0  0  0  2  0  0  0  0  0  0
  194.6350  177.1470  146.1340 C   0  0  0  0  0  1  0  0  0  0  0  0
  193.6590  173.5970  145.3780 C   0  0  0  0  0  2  0  0  0  0  0  0
  193.6690  173.8820  143.8870 C   0  0  0  0  0  1  0  0  0  0  0  0
  183.8540  178.5670  143.0410 C   0  0  0  0  0  0  0  0  0  0  0  0
  182.6190  178.5680  142.4080 O   0  0  0  0  0  0  0  0  0  0  0  0
  184.0970  179.4150  143.9410 O   0  0  0  0  0  1  0  0  0  0  0  0
  185.4600  176.5190  144.8020 O   0  0  0  0  0  0  0  0  0  0  0  0
  185.1930  177.2850  145.9500 C   0  0  0  0  0  1  0  0  0  0  0  0
  1 30  1  1  0  0  0
  1  5  1  0  0  0  0
  2  5  1  0  0  0  0
  2 13  1  0  0  0  0
  3 13  1  0  0  0  0
  3  7  1  0  0  0  0
  4  6  1  0  0  0  0
  5 33  1  0  0  0  0
  6 12  1  0  0  0  0
  7 12  1  0  0  0  0
  8  2  1  0  0  0  0
  9  1  1  0  0  0  0
 10  3  1  0  0  0  0
 11  8  1  0  0  0  0
 11 10  1  0  0  0  0
 12 25  1  0  0  0  0
 13  4  1  0  0  0  0
 14  9  1  0  0  0  0
 14  8  1  0  0  0  0
 15 16  2  0  0  0  0
 15 19  1  0  0  0  0
 16 18  1  0  0  0  0
 17 20  1  0  0  0  0
 17 11  1  0  0  0  0
 18 20  2  0  0  0  0
 19 17  2  0  0  0  0
 21 15  1  0  0  0  0
 23 25  2  0  0  0  0
 24 26  1  0  0  0  0
 24 23  2  0  0  0  0
 25 22  1  0  0  0  0
 27 26  1  0  0  0  0
 28 24  1  0  0  0  0
 29 28  1  0  0  0  0
 30 32  1  0  0  0  0
 31 30  2  0  0  0  0
 33 34  1  0  0  0  0
M  END
>  <MODEL>
7

>  <REMARK>
 VINA RESULT:      -7.1      4.026      7.653
  Name = 
  6 active torsions:
  status: ('A' for Active; 'I' for Inactive)
    1  A    between atoms: C_1  and  C_6
    2  A    between atoms: O_2  and  C_15
    3  A    between atoms: C_11  and  C_20
    4  A    between atoms: C_12  and  C_28
    5  A    between atoms: C_14  and  C_20
    6  A    between atoms: C_29  and  C_33
                            x       y       z     vdW  Elec       q    Type
                         _______ _______ _______ _____ _____    ______ ____

>  <TORSDO>
F 6

$$$$
=
 OpenBabel11052419023D

 34 37  0  0  1  0  0  0  0  0999 V2000
  191.1480  176.0080  146.0360 C   0  0  2  0  0  3  0  0  0  0  0  0
  190.1280  175.7860  143.6770 C   0  0  2  0  0  3  0  0  0  0  0  0
  188.6930  175.3330  141.6350 C   0  0  1  0  0  3  0  0  0  0  0  0
  190.9450  174.2150  141.8740 C   0  0  0  0  0  2  0  0  0  0  0  0
  191.0240  175.1430  144.7710 C   0  0  2  0  0  3  0  0  0  0  0  0
  190.6560  173.7300  140.4480 C   0  0  0  0  0  2  0  0  0  0  0  0
  188.1780  174.2630  140.6650 C   0  0  0  0  0  2  0  0  0  0  0  0
  188.9950  176.4920  144.3210 N   0  0  2  0  0  0  0  0  0  0  0  0
  190.8880  177.4720  145.7170 C   0  0  0  0  0  2  0  0  0  0  0  0
  187.5280  175.9110  142.4000 C   0  0  0  0  0  2  0  0  0  0  0  0
  188.0290  177.0090  143.3290 C   0  0  1  0  0  3  0  0  0  0  0  0
  189.2300  173.1950  140.3210 C   0  0  1  0  0  3  0  0  0  0  0  0
  189.7070  174.7490  142.6170 C   0  0  1  0  0  3  0  0  0  0  0  0
  189.5130  177.6680  145.0580 C   0  0  0  0  0  2  0  0  0  0  0  0
  185.1460  177.5810  145.7300 C   0  0  0  0  0  0  0  0  0  0  0  0
  184.6280  178.7950  145.2720 C   0  0  0  0  0  3  0  0  0  0  0  0
  186.8390  177.6410  143.9950 C   0  0  0  0  0  0  0  0  0  0  0  0
  185.2140  179.4370  144.1760 C   0  0  0  0  0  3  0  0  0  0  0  0
  186.2510  177.0060  145.0940 C   0  0  0  0  0  3  0  0  0  0  0  0
  186.3190  178.8630  143.5400 C   0  0  0  0  0  3  0  0  0  0  0  0
  184.5810  176.9620  146.7950 F   0  0  0  0  0  0  0  0  0  0  0  0
  187.8740  173.0200  138.2380 O   0  0  0  0  0  1  0  0  0  0  0  0
  189.7880  171.7130  138.4580 C   0  0  0  0  0  0  0  0  0  0  0  0
  190.5980  170.8210  137.9600 C   0  0  0  0  0  0  0  0  0  0  0  0
  188.9820  172.6080  138.9650 C   0  0  0  0  0  0  0  0  0  0  0  0
  190.0520  169.5120  137.4900 C   0  0  0  0  0  2  0  0  0  0  0  0
  191.1540  168.6610  136.8870 C   0  0  0  0  0  1  0  0  0  0  0  0
  192.0610  171.1150  137.8980 C   0  0  0  0  0  2  0  0  0  0  0  0
  192.3040  172.4610  137.2420 C   0  0  0  0  0  1  0  0  0  0  0  0
  192.4910  175.8340  146.6670 C   0  0  0  0  0  0  0  0  0  0  0  0
  193.1250  174.6010  146.6010 O   0  0  0  0  0  0  0  0  0  0  0  0
  193.0510  176.7950  147.2580 O   0  0  0  0  0  1  0  0  0  0  0  0
  190.7240  173.7900  145.0620 O   0  0  0  0  0  0  0  0  0  0  0  0
  189.6880  173.7400  146.0100 C   0  0  0  0  0  1  0  0  0  0  0  0
  1 30  1  6  0  0  0
  2  8  1  0  0  0  0
  2  5  1  0  0  0  0
  3 10  1  0  0  0  0
  3 13  1  0  0  0  0
  4 13  1  0  0  0  0
  5 33  1  0  0  0  0
  5  1  1  0  0  0  0
  6  4  1  0  0  0  0
  7  3  1  0  0  0  0
  8 14  1  0  0  0  0
  9  1  1  0  0  0  0
 10 11  1  0  0  0  0
 11 17  1  0  0  0  0
 11  8  1  0  0  0  0
 12  6  1  0  0  0  0
 12  7  1  0  0  0  0
 13  2  1  0  0  0  0
 14  9  1  0  0  0  0
 15 21  1  0  0  0  0
 16 15  1  0  0  0  0
 17 19  1  0  0  0  0
 18 16  2  0  0  0  0
 19 15  2  0  0  0  0
 20 17  2  0  0  0  0
 20 18  1  0  0  0  0
 22 25  1  0  0  0  0
 23 25  2  0  0  0  0
 24 23  2  0  0  0  0
 25 12  1  0  0  0  0
 26 24  1  0  0  0  0
 27 26  1  0  0  0  0
 28 24  1  0  0  0  0
 29 28  1  0  0  0  0
 30 32  1  0  0  0  0
 31 30  2  0  0  0  0
 33 34  1  0  0  0  0
M  END
>  <MODEL>
8

>  <REMARK>
 VINA RESULT:      -7.1      3.511      8.558
  Name = 
  6 active torsions:
  status: ('A' for Active; 'I' for Inactive)
    1  A    between atoms: C_1  and  C_6
    2  A    between atoms: O_2  and  C_15
    3  A    between atoms: C_11  and  C_20
    4  A    between atoms: C_12  and  C_28
    5  A    between atoms: C_14  and  C_20
    6  A    between atoms: C_29  and  C_33
                            x       y       z     vdW  Elec       q    Type
                         _______ _______ _______ _____ _____    ______ ____

>  <TORSDO>
F 6

$$$$
=
 OpenBabel11052419023D

 34 37  0  0  1  0  0  0  0  0999 V2000
  191.1500  176.3790  144.9140 C   0  0  2  0  0  3  0  0  0  0  0  0
  190.5420  175.3330  142.6360 C   0  0  2  0  0  3  0  0  0  0  0  0
  189.4930  174.1120  140.6750 C   0  0  1  0  0  3  0  0  0  0  0  0
  191.7570  173.4050  141.5430 C   0  0  0  0  0  2  0  0  0  0  0  0
  191.2980  175.1650  143.9830 C   0  0  2  0  0  3  0  0  0  0  0  0
  191.7390  172.4810  140.3190 C   0  0  0  0  0  2  0  0  0  0  0  0
  189.2250  172.7450  140.0360 C   0  0  0  0  0  2  0  0  0  0  0  0
  189.2700  176.0550  142.8720 N   0  0  2  0  0  0  0  0  0  0  0  0
  190.8320  177.6350  144.1180 C   0  0  0  0  0  2  0  0  0  0  0  0
  188.1790  174.7460  141.0620 C   0  0  0  0  0  2  0  0  0  0  0  0
  188.4390  176.1260  141.6520 C   0  0  1  0  0  3  0  0  0  0  0  0
  190.3970  171.7620  140.1850 C   0  0  1  0  0  3  0  0  0  0  0  0
  190.3780  173.9820  141.9130 C   0  0  1  0  0  3  0  0  0  0  0  0
  189.5700  177.4520  143.2590 C   0  0  0  0  0  2  0  0  0  0  0  0
  185.2890  178.1890  141.1710 C   0  0  0  0  0  0  0  0  0  0  0  0
  184.6320  177.9970  142.3900 C   0  0  0  0  0  3  0  0  0  0  0  0
  187.1110  176.7780  141.9250 C   0  0  0  0  0  0  0  0  0  0  0  0
  185.2110  177.1940  143.3780 C   0  0  0  0  0  3  0  0  0  0  0  0
  186.5260  177.5780  140.9380 C   0  0  0  0  0  3  0  0  0  0  0  0
  186.4470  176.5840  143.1470 C   0  0  0  0  0  3  0  0  0  0  0  0
  184.7250  178.9620  140.2120 F   0  0  0  0  0  0  0  0  0  0  0  0
  190.3140  169.4140  139.3550 O   0  0  0  0  0  1  0  0  0  0  0  0
  190.5340  171.1510  137.8210 C   0  0  0  0  0  0  0  0  0  0  0  0
  190.6490  171.5440  136.5830 C   0  0  0  0  0  0  0  0  0  0  0  0
  190.4170  170.7670  139.0650 C   0  0  0  0  0  0  0  0  0  0  0  0
  191.7370  170.9770  135.7300 C   0  0  0  0  0  2  0  0  0  0  0  0
  191.1700  169.9770  134.7400 C   0  0  0  0  0  1  0  0  0  0  0  0
  189.7100  172.5760  136.0530 C   0  0  0  0  0  2  0  0  0  0  0  0
  189.9940  173.9270  136.6840 C   0  0  0  0  0  1  0  0  0  0  0  0
  192.3830  176.5700  145.7350 C   0  0  0  0  0  0  0  0  0  0  0  0
  193.5830  176.8810  145.1090 O   0  0  0  0  0  0  0  0  0  0  0  0
  192.3440  176.4530  146.9890 O   0  0  0  0  0  1  0  0  0  0  0  0
  191.0600  173.9360  144.6450 O   0  0  0  0  0  0  0  0  0  0  0  0
  189.9900  174.0950  145.5420 C   0  0  0  0  0  1  0  0  0  0  0  0
  1 30  1  6  0  0  0
  2  8  1  0  0  0  0
  2  5  1  0  0  0  0
  3 10  1  0  0  0  0
  3 13  1  0  0  0  0
  4 13  1  0  0  0  0
  5 33  1  0  0  0  0
  5  1  1  0  0  0  0
  6  4  1  0  0  0  0
  7 12  1  0  0  0  0
  7  3  1  0  0  0  0
  8 14  1  0  0  0  0
  9  1  1  0  0  0  0
 10 11  1  0  0  0  0
 11 17  1  0  0  0  0
 11  8  1  0  0  0  0
 12  6  1  0  0  0  0
 13  2  1  0  0  0  0
 14  9  1  0  0  0  0
 15 16  1  0  0  0  0
 16 18  2  0  0  0  0
 17 20  2  0  0  0  0
 19 15  2  0  0  0  0
 19 17  1  0  0  0  0
 20 18  1  0  0  0  0
 21 15  1  0  0  0  0
 23 25  2  0  0  0  0
 24 23  2  0  0  0  0
 25 22  1  0  0  0  0
 25 12  1  0  0  0  0
 26 24  1  0  0  0  0
 27 26  1  0  0  0  0
 28 24  1  0  0  0  0
 28 29  1  0  0  0  0
 30 32  1  0  0  0  0
 31 30  2  0  0  0  0
 33 34  1  0  0  0  0
M  END
>  <MODEL>
9

>  <REMARK>
 VINA RESULT:      -7.0      3.562      8.713
  Name = 
  6 active torsions:
  status: ('A' for Active; 'I' for Inactive)
    1  A    between atoms: C_1  and  C_6
    2  A    between atoms: O_2  and  C_15
    3  A    between atoms: C_11  and  C_20
    4  A    between atoms: C_12  and  C_28
    5  A    between atoms: C_14  and  C_20
    6  A    between atoms: C_29  and  C_33
                            x       y       z     vdW  Elec       q    Type
                         _______ _______ _______ _____ _____    ______ ____

>  <TORSDO>
F 6

$$$$
