=
 OpenBabel11052418423D

 34 38  0  0  1  0  0  0  0  0999 V2000
  190.4680  171.6060  141.3800 C   0  0  0  0  0  0  0  0  0  0  0  0
  189.2480  172.7030  139.5280 C   0  0  0  0  0  0  0  0  0  0  0  0
  189.3990  173.8060  141.7130 C   0  0  0  0  0  0  0  0  0  0  0  0
  189.2470  176.9720  142.4390 C   0  0  0  0  0  2  0  0  0  0  0  0
  191.8770  170.3300  143.3930 Cl  0  0  0  0  0  0  0  0  0  0  0  0
  189.5120  171.7010  138.6540 F   0  0  0  0  0  0  0  0  0  0  0  0
  188.1940  174.8030  139.8790 N   0  0  0  0  0  0  0  0  0  0  0  0
  189.7070  172.6920  140.8660 C   0  0  0  0  0  0  0  0  0  0  0  0
  188.1180  176.0300  142.0140 C   0  0  2  0  0  3  0  0  0  0  0  0
  190.7980  170.4010  140.5520 C   0  0  0  0  0  1  0  0  0  0  0  0
  189.9230  173.8290  143.0440 C   0  0  0  0  0  0  0  0  0  0  0  0
  190.9310  171.6410  142.7000 C   0  0  0  0  0  0  0  0  0  0  0  0
  188.5040  173.7750  139.0600 C   0  0  0  0  0  3  0  0  0  0  0  0
  190.2960  176.2920  143.3170 C   0  0  0  0  0  2  0  0  0  0  0  0
  189.7510  175.0210  143.9690 C   0  0  2  0  0  3  0  0  0  0  0  0
  188.5920  174.8590  141.1780 C   0  0  0  0  0  0  0  0  0  0  0  0
  190.6690  172.7400  143.5010 C   0  0  0  0  0  3  0  0  0  0  0  0
  190.1770  176.9610  146.7910 C   0  0  1  0  0  3  0  0  0  0  0  0
  191.5070  176.6350  147.4830 C   0  0  0  0  0  2  0  0  0  0  0  0
  190.2480  174.8330  145.4130 C   0  0  2  0  0  3  0  0  0  0  0  0
  192.1540  175.3340  146.9910 C   0  0  0  0  0  2  0  0  0  0  0  0
  189.4260  175.6940  146.3850 C   0  0  0  0  0  2  0  0  0  0  0  0
  191.7710  175.0310  145.5470 C   0  0  0  0  0  2  0  0  0  0  0  0
  189.3820  177.7280  147.6410 O   0  0  0  0  0  1  0  0  0  0  0  0
  186.8980  176.7820  141.4640 C   0  0  0  0  0  2  0  0  0  0  0  0
  185.8980  177.1780  142.5450 C   0  0  0  0  0  2  0  0  0  0  0  0
  186.0320  176.2760  143.7640 C   0  0  0  0  0  2  0  0  0  0  0  0
  186.2080  176.8690  147.4040 O   0  0  0  0  0  1  0  0  0  0  0  0
  186.4340  177.0460  145.0250 C   0  0  2  0  0  3  0  0  0  0  0  0
  185.4890  176.7790  146.2120 C   0  0  2  0  0  3  0  0  0  0  0  0
  184.4470  178.9820  145.7470 C   0  0  0  0  0  3  0  0  0  0  0  0
  185.6810  179.4070  145.0630 C   0  0  0  0  0  3  0  0  0  0  0  0
  186.6260  178.5170  144.7490 C   0  0  0  0  0  3  0  0  0  0  0  0
  184.3360  177.7500  146.2530 C   0  0  0  0  0  3  0  0  0  0  0  0
  1 12  1  0  0  0  0
  2  8  1  0  0  0  0
  3 11  2  0  0  0  0
  4 14  1  0  0  0  0
  6  2  1  0  0  0  0
  7 16  2  0  0  0  0
  8  1  2  0  0  0  0
  8  3  1  0  0  0  0
  9 25  1  6  0  0  0
  9  4  1  0  0  0  0
 10  1  1  0  0  0  0
 11 17  1  0  0  0  0
 11 15  1  0  0  0  0
 12  5  1  0  0  0  0
 12 17  2  0  0  0  0
 13  2  2  0  0  0  0
 13  7  1  0  0  0  0
 15 14  1  6  0  0  0
 15 20  1  0  0  0  0
 16  3  1  0  0  0  0
 16  9  1  0  0  0  0
 18 19  1  0  0  0  0
 18 24  1  1  0  0  0
 20 23  1  6  0  0  0
 20 22  1  0  0  0  0
 21 19  1  0  0  0  0
 22 18  1  0  0  0  0
 23 21  1  0  0  0  0
 25 26  1  0  0  0  0
 26 27  1  0  0  0  0
 29 27  1  6  0  0  0
 29 30  1  0  0  0  0
 30 34  1  0  0  0  0
 30 28  1  1  0  0  0
 31 34  2  0  0  0  0
 32 31  1  0  0  0  0
 33 29  1  0  0  0  0
 33 32  2  0  0  0  0
M  END
>  <MODEL>
1

>  <REMARK>
 VINA RESULT:      -8.7      0.000      0.000
  Name = 
  5 active torsions:
  status: ('A' for Active; 'I' for Inactive)
    1  A    between atoms: C_3  and  C_13
    2  A    between atoms: C_3  and  C_17
    3  A    between atoms: C_12  and  C_28
    4  A    between atoms: C_17  and  C_29
    5  A    between atoms: C_18  and  C_29
                            x       y       z     vdW  Elec       q    Type
                         _______ _______ _______ _____ _____    ______ ____

>  <TORSDO>
F 5

$$$$
=
 OpenBabel11052418423D

 34 38  0  0  1  0  0  0  0  0999 V2000
  185.0750  178.1850  144.5400 C   0  0  0  0  0  0  0  0  0  0  0  0
  186.2920  178.5540  146.6630 C   0  0  0  0  0  0  0  0  0  0  0  0
  187.1220  176.9020  145.0510 C   0  0  0  0  0  0  0  0  0  0  0  0
  190.1490  175.8060  144.5960 C   0  0  0  0  0  2  0  0  0  0  0  0
  183.6770  177.8520  142.1730 Cl  0  0  0  0  0  0  0  0  0  0  0  0
  185.4320  179.5150  147.0810 F   0  0  0  0  0  0  0  0  0  0  0  0
  188.2380  177.2840  147.1520 N   0  0  0  0  0  0  0  0  0  0  0  0
  186.1510  177.8890  145.4220 C   0  0  0  0  0  0  0  0  0  0  0  0
  189.1790  175.4980  145.7390 C   0  0  2  0  0  3  0  0  0  0  0  0
  184.0140  179.1860  144.8840 C   0  0  0  0  0  1  0  0  0  0  0  0
  187.0200  176.2810  143.7670 C   0  0  0  0  0  0  0  0  0  0  0  0
  184.9830  177.5290  143.3070 C   0  0  0  0  0  0  0  0  0  0  0  0
  187.3490  178.2380  147.5010 C   0  0  0  0  0  3  0  0  0  0  0  0
  189.4520  175.9700  143.2470 C   0  0  0  0  0  2  0  0  0  0  0  0
  188.0700  175.3170  143.2410 C   0  0  2  0  0  3  0  0  0  0  0  0
  188.1630  176.5970  145.9810 C   0  0  0  0  0  0  0  0  0  0  0  0
  185.9480  176.6080  142.9340 C   0  0  0  0  0  3  0  0  0  0  0  0
  189.4310  172.8510  141.2470 C   0  0  1  0  0  3  0  0  0  0  0  0
  189.3710  173.2500  139.7670 C   0  0  0  0  0  2  0  0  0  0  0  0
  187.7440  174.6270  141.9040 C   0  0  2  0  0  3  0  0  0  0  0  0
  188.4440  174.4400  139.4860 C   0  0  0  0  0  2  0  0  0  0  0  0
  188.1110  173.1350  141.9620 C   0  0  0  0  0  2  0  0  0  0  0  0
  188.3440  175.3660  140.6920 C   0  0  0  0  0  2  0  0  0  0  0  0
  189.7440  171.4980  141.3550 O   0  0  0  0  0  1  0  0  0  0  0  0
  189.8910  174.9710  146.9930 C   0  0  0  0  0  2  0  0  0  0  0  0
  191.2900  175.5480  147.1770 C   0  0  0  0  0  2  0  0  0  0  0  0
  192.3460  174.5980  146.6270 C   0  0  0  0  0  2  0  0  0  0  0  0
  194.6120  177.4920  146.2710 O   0  0  0  0  0  1  0  0  0  0  0  0
  193.7000  175.2800  146.4170 C   0  0  2  0  0  3  0  0  0  0  0  0
  193.5700  176.6890  145.8060 C   0  0  2  0  0  3  0  0  0  0  0  0
  194.2440  175.6960  143.6340 C   0  0  0  0  0  3  0  0  0  0  0  0
  194.8870  174.5840  144.3560 C   0  0  0  0  0  3  0  0  0  0  0  0
  194.6630  174.3990  145.6590 C   0  0  0  0  0  3  0  0  0  0  0  0
  193.5990  176.6600  144.2990 C   0  0  0  0  0  3  0  0  0  0  0  0
  1 10  1  0  0  0  0
  1  8  1  0  0  0  0
  2  6  1  0  0  0  0
  2 13  1  0  0  0  0
  3  8  1  0  0  0  0
  3 16  2  0  0  0  0
  4  9  1  0  0  0  0
  5 12  1  0  0  0  0
  7 13  2  0  0  0  0
  8  2  2  0  0  0  0
  9 16  1  0  0  0  0
  9 25  1  1  0  0  0
 11  3  1  0  0  0  0
 12  1  2  0  0  0  0
 14  4  1  0  0  0  0
 15 14  1  6  0  0  0
 15 11  1  0  0  0  0
 16  7  1  0  0  0  0
 17 12  1  0  0  0  0
 17 11  2  0  0  0  0
 18 24  1  6  0  0  0
 18 22  1  0  0  0  0
 19 18  1  0  0  0  0
 20 23  1  6  0  0  0
 20 22  1  0  0  0  0
 20 15  1  0  0  0  0
 21 19  1  0  0  0  0
 21 23  1  0  0  0  0
 25 26  1  0  0  0  0
 27 26  1  0  0  0  0
 29 27  1  6  0  0  0
 30 28  1  1  0  0  0
 30 29  1  0  0  0  0
 31 34  2  0  0  0  0
 31 32  1  0  0  0  0
 32 33  2  0  0  0  0
 33 29  1  0  0  0  0
 34 30  1  0  0  0  0
M  END
>  <MODEL>
2

>  <REMARK>
 VINA RESULT:      -8.2      3.909      7.852
  Name = 
  5 active torsions:
  status: ('A' for Active; 'I' for Inactive)
    1  A    between atoms: C_3  and  C_13
    2  A    between atoms: C_3  and  C_17
    3  A    between atoms: C_12  and  C_28
    4  A    between atoms: C_17  and  C_29
    5  A    between atoms: C_18  and  C_29
                            x       y       z     vdW  Elec       q    Type
                         _______ _______ _______ _____ _____    ______ ____

>  <TORSDO>
F 5

$$$$
=
 OpenBabel11052418423D

 34 38  0  0  1  0  0  0  0  0999 V2000
  190.1290  172.2960  140.0530 C   0  0  0  0  0  0  0  0  0  0  0  0
  188.5380  173.7150  138.7980 C   0  0  0  0  0  0  0  0  0  0  0  0
  189.1710  174.3230  141.0880 C   0  0  0  0  0  0  0  0  0  0  0  0
  189.2000  177.2450  142.5120 C   0  0  0  0  0  2  0  0  0  0  0  0
  191.9400  170.6760  141.3820 Cl  0  0  0  0  0  0  0  0  0  0  0  0
  188.5990  172.9390  137.6880 F   0  0  0  0  0  0  0  0  0  0  0  0
  187.5990  175.6400  139.8240 N   0  0  0  0  0  0  0  0  0  0  0  0
  189.2800  173.4340  139.9690 C   0  0  0  0  0  0  0  0  0  0  0  0
  188.0000  176.3700  142.1430 C   0  0  2  0  0  3  0  0  0  0  0  0
  190.2630  171.3150  138.9280 C   0  0  0  0  0  1  0  0  0  0  0  0
  189.9750  174.0780  142.2460 C   0  0  0  0  0  0  0  0  0  0  0  0
  190.8720  172.0640  141.2170 C   0  0  0  0  0  0  0  0  0  0  0  0
  187.7150  174.8290  138.7510 C   0  0  0  0  0  3  0  0  0  0  0  0
  190.4120  176.4370  142.9710 C   0  0  0  0  0  2  0  0  0  0  0  0
  190.0170  175.0330  143.4270 C   0  0  2  0  0  3  0  0  0  0  0  0
  188.2730  175.4300  140.9860 C   0  0  0  0  0  0  0  0  0  0  0  0
  190.7970  172.9500  142.2790 C   0  0  0  0  0  3  0  0  0  0  0  0
  189.6380  174.9800  146.8560 C   0  0  1  0  0  3  0  0  0  0  0  0
  190.9470  175.3680  147.5570 C   0  0  0  0  0  2  0  0  0  0  0  0
  190.8180  174.5570  144.6510 C   0  0  2  0  0  3  0  0  0  0  0  0
  192.1710  175.3470  146.6310 C   0  0  0  0  0  2  0  0  0  0  0  0
  189.8780  173.9830  145.7240 C   0  0  0  0  0  2  0  0  0  0  0  0
  191.7820  175.6350  145.1850 C   0  0  0  0  0  2  0  0  0  0  0  0
  188.7530  174.4360  147.7850 O   0  0  0  0  0  1  0  0  0  0  0  0
  186.6920  177.1690  142.0480 C   0  0  0  0  0  2  0  0  0  0  0  0
  186.7650  178.5240  142.7440 C   0  0  0  0  0  2  0  0  0  0  0  0
  187.0040  178.3540  144.2390 C   0  0  0  0  0  2  0  0  0  0  0  0
  183.7070  178.8440  145.8270 O   0  0  0  0  0  1  0  0  0  0  0  0
  185.7470  177.9070  144.9890 C   0  0  2  0  0  3  0  0  0  0  0  0
  185.0860  179.0520  145.7800 C   0  0  2  0  0  3  0  0  0  0  0  0
  186.1020  178.0880  147.8280 C   0  0  0  0  0  3  0  0  0  0  0  0
  186.1940  176.7820  147.1520 C   0  0  0  0  0  3  0  0  0  0  0  0
  186.0020  176.6820  145.8340 C   0  0  0  0  0  3  0  0  0  0  0  0
  185.6210  179.1570  147.1860 C   0  0  0  0  0  3  0  0  0  0  0  0
  1 12  1  0  0  0  0
  2  8  1  0  0  0  0
  3 11  2  0  0  0  0
  4 14  1  0  0  0  0
  6  2  1  0  0  0  0
  7 16  2  0  0  0  0
  8  1  2  0  0  0  0
  8  3  1  0  0  0  0
  9 25  1  6  0  0  0
  9  4  1  0  0  0  0
 10  1  1  0  0  0  0
 11 17  1  0  0  0  0
 11 15  1  0  0  0  0
 12  5  1  0  0  0  0
 12 17  2  0  0  0  0
 13  2  2  0  0  0  0
 13  7  1  0  0  0  0
 15 14  1  6  0  0  0
 15 20  1  0  0  0  0
 16  3  1  0  0  0  0
 16  9  1  0  0  0  0
 18 19  1  0  0  0  0
 18 24  1  1  0  0  0
 20 23  1  1  0  0  0
 20 22  1  0  0  0  0
 21 19  1  0  0  0  0
 22 18  1  0  0  0  0
 23 21  1  0  0  0  0
 25 26  1  0  0  0  0
 26 27  1  0  0  0  0
 29 27  1  1  0  0  0
 29 30  1  0  0  0  0
 29 33  1  0  0  0  0
 30 28  1  1  0  0  0
 30 34  1  0  0  0  0
 32 31  1  0  0  0  0
 33 32  2  0  0  0  0
 34 31  2  0  0  0  0
M  END
>  <MODEL>
3

>  <REMARK>
 VINA RESULT:      -8.2      1.373      1.766
  Name = 
  5 active torsions:
  status: ('A' for Active; 'I' for Inactive)
    1  A    between atoms: C_3  and  C_13
    2  A    between atoms: C_3  and  C_17
    3  A    between atoms: C_12  and  C_28
    4  A    between atoms: C_17  and  C_29
    5  A    between atoms: C_18  and  C_29
                            x       y       z     vdW  Elec       q    Type
                         _______ _______ _______ _____ _____    ______ ____

>  <TORSDO>
F 5

$$$$
=
 OpenBabel11052418423D

 34 38  0  0  1  0  0  0  0  0999 V2000
  194.2280  176.4260  144.5570 C   0  0  0  0  0  0  0  0  0  0  0  0
  193.4240  176.7780  146.8700 C   0  0  0  0  0  0  0  0  0  0  0  0
  192.0130  175.5870  145.2560 C   0  0  0  0  0  0  0  0  0  0  0  0
  189.6910  173.3740  145.7880 C   0  0  0  0  0  2  0  0  0  0  0  0
  195.2090  176.0430  141.9960 Cl  0  0  0  0  0  0  0  0  0  0  0  0
  194.5570  177.4200  147.2500 F   0  0  0  0  0  0  0  0  0  0  0  0
  191.2760  175.9960  147.5140 N   0  0  0  0  0  0  0  0  0  0  0  0
  193.2340  176.2720  145.5630 C   0  0  0  0  0  0  0  0  0  0  0  0
  189.6510  174.8840  146.0330 C   0  0  2  0  0  3  0  0  0  0  0  0
  195.5120  177.1570  144.8080 C   0  0  0  0  0  1  0  0  0  0  0  0
  191.8500  175.0140  143.9560 C   0  0  0  0  0  0  0  0  0  0  0  0
  194.0180  175.8870  143.2810 C   0  0  0  0  0  0  0  0  0  0  0  0
  192.4340  176.6160  147.8260 C   0  0  0  0  0  3  0  0  0  0  0  0
  190.4950  172.9900  144.5470 C   0  0  0  0  0  2  0  0  0  0  0  0
  190.6450  174.1660  143.5830 C   0  0  2  0  0  3  0  0  0  0  0  0
  191.0180  175.4920  146.2780 C   0  0  0  0  0  0  0  0  0  0  0  0
  192.8560  175.1870  143.0030 C   0  0  0  0  0  3  0  0  0  0  0  0
  188.4060  174.4960  140.9780 C   0  0  1  0  0  3  0  0  0  0  0  0
  188.2790  173.1820  140.1970 C   0  0  0  0  0  2  0  0  0  0  0  0
  190.5490  173.7430  142.1070 C   0  0  2  0  0  3  0  0  0  0  0  0
  189.3870  172.1680  140.5120 C   0  0  0  0  0  2  0  0  0  0  0  0
  189.8660  174.8390  141.2730 C   0  0  0  0  0  2  0  0  0  0  0  0
  189.9200  172.3470  141.9300 C   0  0  0  0  0  2  0  0  0  0  0  0
  187.8150  175.5300  140.2550 O   0  0  0  0  0  1  0  0  0  0  0  0
  188.5600  175.2920  147.0320 C   0  0  0  0  0  2  0  0  0  0  0  0
  187.9460  176.6540  146.7300 C   0  0  0  0  0  2  0  0  0  0  0  0
  187.7470  176.8380  145.2310 C   0  0  0  0  0  2  0  0  0  0  0  0
  184.8860  177.5410  143.0050 O   0  0  0  0  0  1  0  0  0  0  0  0
  186.2700  176.8320  144.8280 C   0  0  2  0  0  3  0  0  0  0  0  0
  185.9150  177.9650  143.8460 C   0  0  2  0  0  3  0  0  0  0  0  0
  184.9170  179.1780  145.7670 C   0  0  0  0  0  3  0  0  0  0  0  0
  184.7560  177.8970  146.4770 C   0  0  0  0  0  3  0  0  0  0  0  0
  185.3590  176.7910  146.0310 C   0  0  0  0  0  3  0  0  0  0  0  0
  185.4880  179.2230  144.5590 C   0  0  0  0  0  3  0  0  0  0  0  0
  1 10  1  0  0  0  0
  1  8  1  0  0  0  0
  2  6  1  0  0  0  0
  2 13  1  0  0  0  0
  3  8  1  0  0  0  0
  3 16  2  0  0  0  0
  4  9  1  0  0  0  0
  5 12  1  0  0  0  0
  7 13  2  0  0  0  0
  8  2  2  0  0  0  0
  9 16  1  0  0  0  0
  9 25  1  1  0  0  0
 11  3  1  0  0  0  0
 12  1  2  0  0  0  0
 14  4  1  0  0  0  0
 15 11  1  0  0  0  0
 15 14  1  1  0  0  0
 16  7  1  0  0  0  0
 17 12  1  0  0  0  0
 17 11  2  0  0  0  0
 18 24  1  6  0  0  0
 18 22  1  0  0  0  0
 19 21  1  0  0  0  0
 19 18  1  0  0  0  0
 20 22  1  6  0  0  0
 20 15  1  0  0  0  0
 21 23  1  0  0  0  0
 23 20  1  0  0  0  0
 26 25  1  0  0  0  0
 27 26  1  0  0  0  0
 29 27  1  1  0  0  0
 29 33  1  0  0  0  0
 30 28  1  6  0  0  0
 30 34  1  0  0  0  0
 30 29  1  0  0  0  0
 31 32  1  0  0  0  0
 33 32  2  0  0  0  0
 34 31  2  0  0  0  0
M  END
>  <MODEL>
4

>  <REMARK>
 VINA RESULT:      -8.0      3.447      5.909
  Name = 
  5 active torsions:
  status: ('A' for Active; 'I' for Inactive)
    1  A    between atoms: C_3  and  C_13
    2  A    between atoms: C_3  and  C_17
    3  A    between atoms: C_12  and  C_28
    4  A    between atoms: C_17  and  C_29
    5  A    between atoms: C_18  and  C_29
                            x       y       z     vdW  Elec       q    Type
                         _______ _______ _______ _____ _____    ______ ____

>  <TORSDO>
F 5

$$$$
=
 OpenBabel11052418423D

 34 38  0  0  1  0  0  0  0  0999 V2000
  192.5540  174.5650  144.9250 C   0  0  0  0  0  0  0  0  0  0  0  0
  191.2560  176.5180  145.7120 C   0  0  0  0  0  0  0  0  0  0  0  0
  190.6870  175.4550  143.5770 C   0  0  0  0  0  0  0  0  0  0  0  0
  187.8430  175.3850  142.0030 C   0  0  0  0  0  2  0  0  0  0  0  0
  194.0320  172.3630  144.1260 Cl  0  0  0  0  0  0  0  0  0  0  0  0
  191.9710  176.6320  146.8580 F   0  0  0  0  0  0  0  0  0  0  0  0
  189.4870  177.3830  144.3840 N   0  0  0  0  0  0  0  0  0  0  0  0
  191.5090  175.5140  144.7490 C   0  0  0  0  0  0  0  0  0  0  0  0
  188.8220  176.5500  142.1620 C   0  0  2  0  0  3  0  0  0  0  0  0
  193.4650  174.5920  146.1150 C   0  0  0  0  0  1  0  0  0  0  0  0
  190.8960  174.3970  142.6380 C   0  0  0  0  0  0  0  0  0  0  0  0
  192.7580  173.5650  143.9650 C   0  0  0  0  0  0  0  0  0  0  0  0
  190.2330  177.4310  145.5080 C   0  0  0  0  0  3  0  0  0  0  0  0
  188.5390  174.0320  141.8690 C   0  0  0  0  0  2  0  0  0  0  0  0
  189.9950  174.1840  141.4330 C   0  0  2  0  0  3  0  0  0  0  0  0
  189.6760  176.4530  143.4110 C   0  0  0  0  0  0  0  0  0  0  0  0
  191.9320  173.4860  142.8570 C   0  0  0  0  0  3  0  0  0  0  0  0
  190.1350  173.7500  138.0120 C   0  0  1  0  0  3  0  0  0  0  0  0
  189.6730  172.3410  137.6210 C   0  0  0  0  0  2  0  0  0  0  0  0
  190.4380  173.0920  140.4430 C   0  0  2  0  0  3  0  0  0  0  0  0
  189.5940  171.3670  138.8050 C   0  0  0  0  0  2  0  0  0  0  0  0
  191.0940  173.7200  139.2020 C   0  0  0  0  0  2  0  0  0  0  0  0
  189.3070  172.0990  140.1110 C   0  0  0  0  0  2  0  0  0  0  0  0
  190.7550  174.3590  136.9230 O   0  0  0  0  0  1  0  0  0  0  0  0
  188.1610  177.9140  141.9210 C   0  0  0  0  0  2  0  0  0  0  0  0
  186.6550  177.9030  142.1570 C   0  0  0  0  0  2  0  0  0  0  0  0
  186.2820  178.8100  143.3220 C   0  0  0  0  0  2  0  0  0  0  0  0
  183.6880  178.6920  145.9460 O   0  0  0  0  0  1  0  0  0  0  0  0
  185.3690  178.1190  144.3370 C   0  0  2  0  0  3  0  0  0  0  0  0
  184.9610  179.0450  145.4990 C   0  0  2  0  0  3  0  0  0  0  0  0
  186.6440  177.8690  146.8920 C   0  0  0  0  0  3  0  0  0  0  0  0
  186.5610  176.7070  145.9890 C   0  0  0  0  0  3  0  0  0  0  0  0
  185.9440  176.8060  144.8090 C   0  0  0  0  0  3  0  0  0  0  0  0
  185.9300  178.9730  146.6520 C   0  0  0  0  0  3  0  0  0  0  0  0
  1 10  1  0  0  0  0
  2  6  1  0  0  0  0
  3  8  1  0  0  0  0
  4  9  1  0  0  0  0
  7 13  2  0  0  0  0
  8  1  1  0  0  0  0
  8  2  2  0  0  0  0
  9 25  1  1  0  0  0
  9 16  1  0  0  0  0
 11 17  2  0  0  0  0
 11  3  1  0  0  0  0
 12  5  1  0  0  0  0
 12  1  2  0  0  0  0
 13  2  1  0  0  0  0
 14  4  1  0  0  0  0
 15 14  1  1  0  0  0
 15 11  1  0  0  0  0
 16  3  2  0  0  0  0
 16  7  1  0  0  0  0
 17 12  1  0  0  0  0
 18 24  1  6  0  0  0
 18 22  1  0  0  0  0
 19 18  1  0  0  0  0
 19 21  1  0  0  0  0
 20 22  1  6  0  0  0
 20 15  1  0  0  0  0
 21 23  1  0  0  0  0
 23 20  1  0  0  0  0
 25 26  1  0  0  0  0
 26 27  1  0  0  0  0
 29 27  1  1  0  0  0
 29 33  1  0  0  0  0
 29 30  1  0  0  0  0
 30 28  1  1  0  0  0
 30 34  1  0  0  0  0
 32 31  1  0  0  0  0
 33 32  2  0  0  0  0
 34 31  2  0  0  0  0
M  END
>  <MODEL>
5

>  <REMARK>
 VINA RESULT:      -7.9      3.113      5.476
  Name = 
  5 active torsions:
  status: ('A' for Active; 'I' for Inactive)
    1  A    between atoms: C_3  and  C_13
    2  A    between atoms: C_3  and  C_17
    3  A    between atoms: C_12  and  C_28
    4  A    between atoms: C_17  and  C_29
    5  A    between atoms: C_18  and  C_29
                            x       y       z     vdW  Elec       q    Type
                         _______ _______ _______ _____ _____    ______ ____

>  <TORSDO>
F 5

$$$$
=
 OpenBabel11052418423D

 34 38  0  0  1  0  0  0  0  0999 V2000
  193.5760  174.6350  144.7340 C   0  0  0  0  0  0  0  0  0  0  0  0
  192.0730  176.2730  145.8200 C   0  0  0  0  0  0  0  0  0  0  0  0
  191.3700  175.1530  143.7550 C   0  0  0  0  0  0  0  0  0  0  0  0
  188.3700  174.5370  142.6630 C   0  0  0  0  0  2  0  0  0  0  0  0
  195.2990  172.7910  143.5960 Cl  0  0  0  0  0  0  0  0  0  0  0  0
  192.9360  176.5100  146.8380 F   0  0  0  0  0  0  0  0  0  0  0  0
  189.9700  176.7850  144.8420 N   0  0  0  0  0  0  0  0  0  0  0  0
  192.3510  175.3570  144.7790 C   0  0  0  0  0  0  0  0  0  0  0  0
  189.1140  175.8720  142.7200 C   0  0  2  0  0  3  0  0  0  0  0  0
  194.6520  174.8260  145.7600 C   0  0  0  0  0  1  0  0  0  0  0  0
  191.6200  174.1750  142.7420 C   0  0  0  0  0  0  0  0  0  0  0  0
  193.8060  173.7140  143.7060 C   0  0  0  0  0  0  0  0  0  0  0  0
  190.8720  176.9640  145.8310 C   0  0  0  0  0  3  0  0  0  0  0  0
  189.2850  173.3540  142.3510 C   0  0  0  0  0  2  0  0  0  0  0  0
  190.5880  173.8050  141.6910 C   0  0  2  0  0  3  0  0  0  0  0  0
  190.1700  175.9290  143.8060 C   0  0  0  0  0  0  0  0  0  0  0  0
  192.8360  173.4880  142.7430 C   0  0  0  0  0  3  0  0  0  0  0  0
  189.5140  172.7650  138.5810 C   0  0  1  0  0  3  0  0  0  0  0  0
  189.6910  171.2500  138.4200 C   0  0  0  0  0  2  0  0  0  0  0  0
  191.0610  172.8410  140.5890 C   0  0  2  0  0  3  0  0  0  0  0  0
  190.5920  170.6170  139.4890 C   0  0  0  0  0  2  0  0  0  0  0  0
  190.7510  173.4160  139.1970 C   0  0  0  0  0  2  0  0  0  0  0  0
  190.5440  171.4040  140.7950 C   0  0  0  0  0  2  0  0  0  0  0  0
  189.2470  173.3400  137.3400 O   0  0  0  0  0  1  0  0  0  0  0  0
  188.1670  177.0800  142.6580 C   0  0  0  0  0  2  0  0  0  0  0  0
  186.7640  176.7190  142.1820 C   0  0  0  0  0  2  0  0  0  0  0  0
  185.7560  176.8560  143.3150 C   0  0  0  0  0  2  0  0  0  0  0  0
  187.1750  177.1680  146.7090 O   0  0  0  0  0  1  0  0  0  0  0  0
  186.3200  177.6180  144.5160 C   0  0  2  0  0  3  0  0  0  0  0  0
  186.1210  176.8660  145.8470 C   0  0  2  0  0  3  0  0  0  0  0  0
  184.2410  178.4140  146.3230 C   0  0  0  0  0  3  0  0  0  0  0  0
  184.8280  179.3940  145.3920 C   0  0  0  0  0  3  0  0  0  0  0  0
  185.8180  179.0410  144.5670 C   0  0  0  0  0  3  0  0  0  0  0  0
  184.8160  177.2220  146.5130 C   0  0  0  0  0  3  0  0  0  0  0  0
  1  8  1  0  0  0  0
  1 10  1  0  0  0  0
  2 13  1  0  0  0  0
  2  6  1  0  0  0  0
  3 16  2  0  0  0  0
  3  8  1  0  0  0  0
  4  9  1  0  0  0  0
  5 12  1  0  0  0  0
  7 13  2  0  0  0  0
  8  2  2  0  0  0  0
  9 25  1  1  0  0  0
  9 16  1  0  0  0  0
 11 17  2  0  0  0  0
 11  3  1  0  0  0  0
 12  1  2  0  0  0  0
 14  4  1  0  0  0  0
 15 14  1  1  0  0  0
 15 11  1  0  0  0  0
 16  7  1  0  0  0  0
 17 12  1  0  0  0  0
 18 24  1  6  0  0  0
 18 22  1  0  0  0  0
 19 18  1  0  0  0  0
 19 21  1  0  0  0  0
 20 22  1  6  0  0  0
 20 23  1  0  0  0  0
 20 15  1  0  0  0  0
 21 23  1  0  0  0  0
 26 25  1  0  0  0  0
 26 27  1  0  0  0  0
 29 27  1  6  0  0  0
 29 33  1  0  0  0  0
 29 30  1  0  0  0  0
 30 34  1  0  0  0  0
 30 28  1  1  0  0  0
 31 34  2  0  0  0  0
 32 31  1  0  0  0  0
 33 32  2  0  0  0  0
M  END
>  <MODEL>
6

>  <REMARK>
 VINA RESULT:      -7.6      3.140      5.434
  Name = 
  5 active torsions:
  status: ('A' for Active; 'I' for Inactive)
    1  A    between atoms: C_3  and  C_13
    2  A    between atoms: C_3  and  C_17
    3  A    between atoms: C_12  and  C_28
    4  A    between atoms: C_17  and  C_29
    5  A    between atoms: C_18  and  C_29
                            x       y       z     vdW  Elec       q    Type
                         _______ _______ _______ _____ _____    ______ ____

>  <TORSDO>
F 5

$$$$
=
 OpenBabel11052418423D

 34 38  0  0  1  0  0  0  0  0999 V2000
  194.6880  176.3540  143.9570 C   0  0  0  0  0  0  0  0  0  0  0  0
  193.8600  176.3460  146.2880 C   0  0  0  0  0  0  0  0  0  0  0  0
  192.5660  175.2290  144.5290 C   0  0  0  0  0  0  0  0  0  0  0  0
  190.4690  172.7570  144.7670 C   0  0  0  0  0  2  0  0  0  0  0  0
  195.6970  176.3790  141.3780 Cl  0  0  0  0  0  0  0  0  0  0  0  0
  194.9260  177.0420  146.7540 F   0  0  0  0  0  0  0  0  0  0  0  0
  191.7980  175.2900  146.8120 N   0  0  0  0  0  0  0  0  0  0  0  0
  193.7160  175.9860  144.9280 C   0  0  0  0  0  0  0  0  0  0  0  0
  190.2840  174.2150  145.1920 C   0  0  2  0  0  3  0  0  0  0  0  0
  195.8970  177.1690  144.3070 C   0  0  0  0  0  1  0  0  0  0  0  0
  192.4560  174.8040  143.1680 C   0  0  0  0  0  0  0  0  0  0  0  0
  194.5290  175.9560  142.6240 C   0  0  0  0  0  0  0  0  0  0  0  0
  192.8910  175.9760  147.2080 C   0  0  0  0  0  3  0  0  0  0  0  0
  191.3030  172.6040  143.4970 C   0  0  0  0  0  2  0  0  0  0  0  0
  191.3380  173.8970  142.6830 C   0  0  2  0  0  3  0  0  0  0  0  0
  191.5870  174.9170  145.5220 C   0  0  0  0  0  0  0  0  0  0  0  0
  193.4390  175.1870  142.2530 C   0  0  0  0  0  3  0  0  0  0  0  0
  189.1410  172.5150  140.4100 C   0  0  1  0  0  3  0  0  0  0  0  0
  189.8860  171.6450  139.3900 C   0  0  0  0  0  2  0  0  0  0  0  0
  191.2800  173.6480  141.1660 C   0  0  2  0  0  3  0  0  0  0  0  0
  191.4050  171.8580  139.3910 C   0  0  0  0  0  2  0  0  0  0  0  0
  189.8500  173.8490  140.6380 C   0  0  0  0  0  2  0  0  0  0  0  0
  191.9050  172.2990  140.7620 C   0  0  0  0  0  2  0  0  0  0  0  0
  187.8380  172.7430  139.9690 O   0  0  0  0  0  1  0  0  0  0  0  0
  189.1600  174.3920  146.2230 C   0  0  0  0  0  2  0  0  0  0  0  0
  188.6300  175.8200  146.2940 C   0  0  0  0  0  2  0  0  0  0  0  0
  187.6520  176.0920  145.1590 C   0  0  0  0  0  2  0  0  0  0  0  0
  187.0680  178.7230  142.6350 O   0  0  0  0  0  1  0  0  0  0  0  0
  187.8840  177.4520  144.4960 C   0  0  2  0  0  3  0  0  0  0  0  0
  187.5210  177.4550  142.9980 C   0  0  2  0  0  3  0  0  0  0  0  0
  189.9500  177.3130  142.5140 C   0  0  0  0  0  3  0  0  0  0  0  0
  190.2360  177.8830  143.8420 C   0  0  0  0  0  3  0  0  0  0  0  0
  189.2730  177.9790  144.7620 C   0  0  0  0  0  3  0  0  0  0  0  0
  188.6920  177.0770  142.1270 C   0  0  0  0  0  3  0  0  0  0  0  0
  1 10  1  0  0  0  0
  1  8  1  0  0  0  0
  2  6  1  0  0  0  0
  2 13  1  0  0  0  0
  3  8  1  0  0  0  0
  3 16  2  0  0  0  0
  4  9  1  0  0  0  0
  5 12  1  0  0  0  0
  7 13  2  0  0  0  0
  8  2  2  0  0  0  0
  9 16  1  0  0  0  0
  9 25  1  1  0  0  0
 11  3  1  0  0  0  0
 12  1  2  0  0  0  0
 14  4  1  0  0  0  0
 15 11  1  0  0  0  0
 15 14  1  1  0  0  0
 16  7  1  0  0  0  0
 17 12  1  0  0  0  0
 17 11  2  0  0  0  0
 18 24  1  6  0  0  0
 18 22  1  0  0  0  0
 19 21  1  0  0  0  0
 19 18  1  0  0  0  0
 20 22  1  1  0  0  0
 20 15  1  0  0  0  0
 21 23  1  0  0  0  0
 23 20  1  0  0  0  0
 25 26  1  0  0  0  0
 27 26  1  0  0  0  0
 29 33  1  0  0  0  0
 29 27  1  6  0  0  0
 30 28  1  6  0  0  0
 30 29  1  0  0  0  0
 31 32  1  0  0  0  0
 32 33  2  0  0  0  0
 34 31  2  0  0  0  0
 34 30  1  0  0  0  0
M  END
>  <MODEL>
7

>  <REMARK>
 VINA RESULT:      -7.5      3.694      6.343
  Name = 
  5 active torsions:
  status: ('A' for Active; 'I' for Inactive)
    1  A    between atoms: C_3  and  C_13
    2  A    between atoms: C_3  and  C_17
    3  A    between atoms: C_12  and  C_28
    4  A    between atoms: C_17  and  C_29
    5  A    between atoms: C_18  and  C_29
                            x       y       z     vdW  Elec       q    Type
                         _______ _______ _______ _____ _____    ______ ____

>  <TORSDO>
F 5

$$$$
=
 OpenBabel11052418423D

 34 38  0  0  1  0  0  0  0  0999 V2000
  190.7320  173.2290  139.6450 C   0  0  0  0  0  0  0  0  0  0  0  0
  188.5650  173.9790  140.5740 C   0  0  0  0  0  0  0  0  0  0  0  0
  190.6340  174.3740  141.8310 C   0  0  0  0  0  0  0  0  0  0  0  0
  191.3040  176.6740  144.0280 C   0  0  0  0  0  2  0  0  0  0  0  0
  193.1210  172.3890  138.5250 Cl  0  0  0  0  0  0  0  0  0  0  0  0
  187.8620  173.5340  139.5040 F   0  0  0  0  0  0  0  0  0  0  0  0
  188.4870  175.0450  142.6950 N   0  0  0  0  0  0  0  0  0  0  0  0
  189.9710  173.8530  140.6710 C   0  0  0  0  0  0  0  0  0  0  0  0
  190.4170  175.4360  144.1760 C   0  0  2  0  0  3  0  0  0  0  0  0
  190.0930  172.6410  138.4230 C   0  0  0  0  0  1  0  0  0  0  0  0
  192.0610  174.3100  141.8970 C   0  0  0  0  0  0  0  0  0  0  0  0
  192.1250  173.1480  139.7610 C   0  0  0  0  0  0  0  0  0  0  0  0
  187.8520  174.5880  141.5950 C   0  0  0  0  0  3  0  0  0  0  0  0
  192.5270  176.4330  143.1460 C   0  0  0  0  0  2  0  0  0  0  0  0
  192.8550  174.9450  143.0270 C   0  0  2  0  0  3  0  0  0  0  0  0
  189.8330  174.9520  142.8640 C   0  0  0  0  0  0  0  0  0  0  0  0
  192.7650  173.6920  140.8620 C   0  0  0  0  0  3  0  0  0  0  0  0
  195.1970  173.6010  145.1750 C   0  0  1  0  0  3  0  0  0  0  0  0
  196.4870  174.4300  145.1650 C   0  0  0  0  0  2  0  0  0  0  0  0
  194.3680  174.6660  143.0280 C   0  0  2  0  0  3  0  0  0  0  0  0
  196.5760  175.4180  143.9940 C   0  0  0  0  0  2  0  0  0  0  0  0
  194.6760  173.3500  143.7610 C   0  0  0  0  0  2  0  0  0  0  0  0
  195.1920  175.8650  143.5360 C   0  0  0  0  0  2  0  0  0  0  0  0
  195.4260  172.3850  145.8160 O   0  0  0  0  0  1  0  0  0  0  0  0
  189.4190  175.5600  145.3360 C   0  0  0  0  0  2  0  0  0  0  0  0
  189.0570  177.0030  145.6660 C   0  0  0  0  0  2  0  0  0  0  0  0
  187.7820  177.0670  146.4960 C   0  0  0  0  0  2  0  0  0  0  0  0
  185.7750  177.0510  143.3970 O   0  0  0  0  0  1  0  0  0  0  0  0
  186.5230  176.8190  145.6620 C   0  0  2  0  0  3  0  0  0  0  0  0
  186.4430  177.7270  144.4190 C   0  0  2  0  0  3  0  0  0  0  0  0
  184.7980  179.1080  145.6610 C   0  0  0  0  0  3  0  0  0  0  0  0
  184.4900  177.9490  146.5180 C   0  0  0  0  0  3  0  0  0  0  0  0
  185.2710  176.8660  146.5030 C   0  0  0  0  0  3  0  0  0  0  0  0
  185.7300  179.0240  144.7070 C   0  0  0  0  0  3  0  0  0  0  0  0
  1 12  2  0  0  0  0
  1  8  1  0  0  0  0
  2  8  2  0  0  0  0
  2 13  1  0  0  0  0
  3 11  1  0  0  0  0
  3 16  2  0  0  0  0
  4  9  1  0  0  0  0
  5 12  1  0  0  0  0
  6  2  1  0  0  0  0
  7 16  1  0  0  0  0
  8  3  1  0  0  0  0
  9 25  1  1  0  0  0
 10  1  1  0  0  0  0
 11 15  1  0  0  0  0
 12 17  1  0  0  0  0
 13  7  2  0  0  0  0
 14  4  1  0  0  0  0
 15 20  1  0  0  0  0
 15 14  1  6  0  0  0
 16  9  1  0  0  0  0
 17 11  2  0  0  0  0
 18 24  1  6  0  0  0
 19 18  1  0  0  0  0
 20 23  1  1  0  0  0
 20 22  1  0  0  0  0
 21 19  1  0  0  0  0
 22 18  1  0  0  0  0
 23 21  1  0  0  0  0
 25 26  1  0  0  0  0
 26 27  1  0  0  0  0
 29 27  1  1  0  0  0
 29 33  1  0  0  0  0
 30 28  1  6  0  0  0
 30 34  1  0  0  0  0
 30 29  1  0  0  0  0
 31 32  1  0  0  0  0
 33 32  2  0  0  0  0
 34 31  2  0  0  0  0
M  END
>  <MODEL>
8

>  <REMARK>
 VINA RESULT:      -7.2      2.940      3.785
  Name = 
  5 active torsions:
  status: ('A' for Active; 'I' for Inactive)
    1  A    between atoms: C_3  and  C_13
    2  A    between atoms: C_3  and  C_17
    3  A    between atoms: C_12  and  C_28
    4  A    between atoms: C_17  and  C_29
    5  A    between atoms: C_18  and  C_29
                            x       y       z     vdW  Elec       q    Type
                         _______ _______ _______ _____ _____    ______ ____

>  <TORSDO>
F 5

$$$$
=
 OpenBabel11052418423D

 34 38  0  0  1  0  0  0  0  0999 V2000
  186.3370  178.3440  146.4740 C   0  0  0  0  0  0  0  0  0  0  0  0
  185.0000  177.7730  144.4720 C   0  0  0  0  0  0  0  0  0  0  0  0
  187.3410  177.0590  144.6210 C   0  0  0  0  0  0  0  0  0  0  0  0
  188.8220  174.5410  143.1930 C   0  0  0  0  0  2  0  0  0  0  0  0
  187.7600  178.9930  148.7600 Cl  0  0  0  0  0  0  0  0  0  0  0  0
  183.8820  178.3720  144.9510 F   0  0  0  0  0  0  0  0  0  0  0  0
  185.9940  176.5680  142.6840 N   0  0  0  0  0  0  0  0  0  0  0  0
  186.2150  177.7340  145.1950 C   0  0  0  0  0  0  0  0  0  0  0  0
  188.3500  175.8560  142.5690 C   0  0  2  0  0  3  0  0  0  0  0  0
  185.2050  179.0890  147.1140 C   0  0  0  0  0  1  0  0  0  0  0  0
  188.5480  176.9580  145.3810 C   0  0  0  0  0  0  0  0  0  0  0  0
  187.5470  178.2610  147.1750 C   0  0  0  0  0  0  0  0  0  0  0  0
  184.9160  177.1740  143.2260 C   0  0  0  0  0  3  0  0  0  0  0  0
  189.3500  174.7100  144.6170 C   0  0  0  0  0  2  0  0  0  0  0  0
  189.7480  176.1570  144.9050 C   0  0  2  0  0  3  0  0  0  0  0  0
  187.1970  176.4980  143.3140 C   0  0  0  0  0  0  0  0  0  0  0  0
  188.6180  177.5690  146.6350 C   0  0  0  0  0  3  0  0  0  0  0  0
  193.1540  175.7900  144.4870 C   0  0  1  0  0  3  0  0  0  0  0  0
  193.7710  175.0300  145.6680 C   0  0  0  0  0  2  0  0  0  0  0  0
  191.0170  176.2640  145.7690 C   0  0  2  0  0  3  0  0  0  0  0  0
  192.8410  174.9200  146.8840 C   0  0  0  0  0  2  0  0  0  0  0  0
  192.1760  176.8660  144.9570 C   0  0  0  0  0  2  0  0  0  0  0  0
  191.3740  174.9370  146.4670 C   0  0  0  0  0  2  0  0  0  0  0  0
  194.1650  176.3720  143.7250 O   0  0  0  0  0  1  0  0  0  0  0  0
  188.1780  175.7580  141.0460 C   0  0  0  0  0  2  0  0  0  0  0  0
  188.0880  174.3220  140.5420 C   0  0  0  0  0  2  0  0  0  0  0  0
  188.7110  174.1920  139.1590 C   0  0  0  0  0  2  0  0  0  0  0  0
  190.4700  171.1950  140.4030 O   0  0  0  0  0  1  0  0  0  0  0  0
  189.6890  173.0200  139.0610 C   0  0  2  0  0  3  0  0  0  0  0  0
  190.2150  172.5660  140.4370 C   0  0  2  0  0  3  0  0  0  0  0  0
  192.3190  173.7750  139.9170 C   0  0  0  0  0  3  0  0  0  0  0  0
  192.0090  173.6700  138.4800 C   0  0  0  0  0  3  0  0  0  0  0  0
  190.7960  173.2910  138.0710 C   0  0  0  0  0  3  0  0  0  0  0  0
  191.4730  173.2960  140.8340 C   0  0  0  0  0  3  0  0  0  0  0  0
  1 10  1  0  0  0  0
  1 12  1  0  0  0  0
  2  6  1  0  0  0  0
  2  8  1  0  0  0  0
  3  8  1  0  0  0  0
  3 11  2  0  0  0  0
  4 14  1  0  0  0  0
  7 13  1  0  0  0  0
  7 16  2  0  0  0  0
  8  1  2  0  0  0  0
  9 25  1  6  0  0  0
  9  4  1  0  0  0  0
  9 16  1  0  0  0  0
 11 17  1  0  0  0  0
 12  5  1  0  0  0  0
 13  2  2  0  0  0  0
 15 14  1  1  0  0  0
 15 11  1  0  0  0  0
 15 20  1  0  0  0  0
 16  3  1  0  0  0  0
 17 12  2  0  0  0  0
 18 24  1  1  0  0  0
 18 22  1  0  0  0  0
 18 19  1  0  0  0  0
 19 21  1  0  0  0  0
 20 22  1  6  0  0  0
 20 23  1  0  0  0  0
 23 21  1  0  0  0  0
 26 25  1  0  0  0  0
 27 26  1  0  0  0  0
 29 27  1  1  0  0  0
 29 30  1  0  0  0  0
 30 28  1  6  0  0  0
 30 34  1  0  0  0  0
 31 34  2  0  0  0  0
 32 31  1  0  0  0  0
 33 32  2  0  0  0  0
 33 29  1  0  0  0  0
M  END
>  <MODEL>
9

>  <REMARK>
 VINA RESULT:      -7.1      3.699      6.929
  Name = 
  5 active torsions:
  status: ('A' for Active; 'I' for Inactive)
    1  A    between atoms: C_3  and  C_13
    2  A    between atoms: C_3  and  C_17
    3  A    between atoms: C_12  and  C_28
    4  A    between atoms: C_17  and  C_29
    5  A    between atoms: C_18  and  C_29
                            x       y       z     vdW  Elec       q    Type
                         _______ _______ _______ _____ _____    ______ ____

>  <TORSDO>
F 5

$$$$
