=
 OpenBabel11052420183D

 34 38  0  0  1  0  0  0  0  0999 V2000
  194.0150  175.1190  145.0350 C   0  0  0  0  0  0  0  0  0  0  0  0
  195.3700  171.4830  145.3900 C   0  0  0  0  0  2  0  0  0  0  0  0
  193.1400  172.3110  144.5200 C   0  0  0  0  0  2  0  0  0  0  0  0
  194.3050  176.2860  145.2530 O   0  0  0  0  0  0  0  0  0  0  0  0
  190.4470  174.8290  143.8730 N   0  0  0  0  0  2  0  0  0  0  0  0
  190.8670  173.4410  144.1020 C   0  0  1  0  0  3  0  0  0  0  0  0
  191.5950  175.6870  144.1930 C   0  0  2  0  0  3  0  0  0  0  0  0
  192.2140  173.4980  144.7770 C   0  0  2  0  0  3  0  0  0  0  0  0
  192.7970  174.7590  144.2300 C   0  0  2  0  0  3  0  0  0  0  0  0
  189.8650  172.7440  145.0010 C   0  0  0  0  0  1  0  0  0  0  0  0
  196.6160  171.9050  146.1830 C   0  0  0  0  0  2  0  0  0  0  0  0
  197.3170  173.1350  145.5830 C   0  0  2  0  0  3  0  0  0  0  0  0
  194.6220  172.6680  144.7730 C   0  0  1  0  0  3  0  0  0  0  0  0
  196.3770  174.3460  145.4580 C   0  0  0  0  0  2  0  0  0  0  0  0
  194.8870  173.9890  145.5430 C   0  0  1  0  0  3  0  0  0  0  0  0
  191.3470  176.3860  145.5330 C   0  0  0  0  0  2  0  0  0  0  0  0
  189.5000  177.9630  144.0530 F   0  0  0  0  0  0  0  0  0  0  0  0
  188.0390  175.7440  147.2540 C   0  0  0  0  0  3  0  0  0  0  0  0
  185.2670  177.8050  144.7560 C   0  0  1  0  0  3  0  0  0  0  0  0
  186.7460  178.1990  144.6330 C   0  0  0  0  0  2  0  0  0  0  0  0
  187.6510  177.2790  145.4080 C   0  0  0  0  0  0  0  0  0  0  0  0
  189.8880  176.4350  145.8500 C   0  0  0  0  0  0  0  0  0  0  0  0
  185.7010  176.5080  146.8500 C   0  0  0  0  0  2  0  0  0  0  0  0
  187.1640  176.5430  146.5110 C   0  0  0  0  0  0  0  0  0  0  0  0
  184.9410  177.6860  146.2480 C   0  0  0  0  0  2  0  0  0  0  0  0
  189.3960  175.6960  146.9290 C   0  0  0  0  0  3  0  0  0  0  0  0
  189.0190  177.2330  145.0920 C   0  0  0  0  0  0  0  0  0  0  0  0
  185.1170  180.0710  144.0610 C   0  0  0  0  0  1  0  0  0  0  0  0
  184.4050  178.8010  144.1070 N   0  0  0  0  0  0  0  0  0  0  0  0
  184.2240  178.4200  142.7130 C   0  0  0  0  0  1  0  0  0  0  0  0
  197.9410  172.8240  144.2260 C   0  0  0  0  0  2  0  0  0  0  0  0
  197.8720  174.0260  143.2910 C   0  0  0  0  0  2  0  0  0  0  0  0
  197.2770  173.6540  141.9420 C   0  0  0  0  0  2  0  0  0  0  0  0
  195.9040  174.2770  141.7790 C   0  0  0  0  0  1  0  0  0  0  0  0
  1  4  2  0  0  0  0
  1 15  1  0  0  0  0
  2 11  1  0  0  0  0
  5  6  1  0  0  0  0
  5  7  1  0  0  0  0
  6  8  1  0  0  0  0
  6 10  1  1  0  0  0
  7  9  1  0  0  0  0
  7 16  1  1  0  0  0
  8  3  1  6  0  0  0
  9  8  1  0  0  0  0
  9  1  1  1  0  0  0
 12 31  1  6  0  0  0
 12 11  1  0  0  0  0
 13  3  1  1  0  0  0
 13  2  1  0  0  0  0
 13 15  1  0  0  0  0
 14 12  1  0  0  0  0
 15 14  1  6  0  0  0
 16 22  1  0  0  0  0
 17 27  1  0  0  0  0
 19 29  1  1  0  0  0
 19 25  1  0  0  0  0
 20 19  1  0  0  0  0
 20 21  1  0  0  0  0
 21 24  1  0  0  0  0
 22 26  2  0  0  0  0
 24 23  1  0  0  0  0
 24 18  2  0  0  0  0
 25 23  1  0  0  0  0
 26 18  1  0  0  0  0
 27 21  2  0  0  0  0
 27 22  1  0  0  0  0
 28 29  1  0  0  0  0
 30 29  1  0  0  0  0
 32 31  1  0  0  0  0
 33 32  1  0  0  0  0
 34 33  1  0  0  0  0
M  END
>  <MODEL>
1

>  <REMARK>
 VINA RESULT:      -8.3      0.000      0.000
  Name = 
  6 active torsions:
  status: ('A' for Active; 'I' for Inactive)
    1  A    between atoms: C_3  and  C_24
    2  A    between atoms: C_7  and  N_15
    3  A    between atoms: C_8  and  C_17
    4  A    between atoms: C_8  and  C_18
    5  A    between atoms: C_24  and  C_25
    6  A    between atoms: C_25  and  C_27
                            x       y       z     vdW  Elec       q    Type
                         _______ _______ _______ _____ _____    ______ ____

>  <TORSDO>
F 6

$$$$
=
 OpenBabel11052420183D

 34 38  0  0  1  0  0  0  0  0999 V2000
  193.2730  173.1710  145.2440 C   0  0  0  0  0  0  0  0  0  0  0  0
  197.0890  172.5910  144.7110 C   0  0  0  0  0  2  0  0  0  0  0  0
  195.8770  174.4970  145.8580 C   0  0  0  0  0  2  0  0  0  0  0  0
  192.1770  172.6910  144.9950 O   0  0  0  0  0  0  0  0  0  0  0  0
  192.9140  176.5580  146.8470 N   0  0  0  0  0  2  0  0  0  0  0  0
  194.3500  176.4420  146.5620 C   0  0  1  0  0  3  0  0  0  0  0  0
  192.2800  175.3150  146.3860 C   0  0  2  0  0  3  0  0  0  0  0  0
  194.5310  175.2030  145.7230 C   0  0  2  0  0  3  0  0  0  0  0  0
  193.4180  174.3270  146.1960 C   0  0  2  0  0  3  0  0  0  0  0  0
  194.8200  177.6620  145.7950 C   0  0  0  0  0  1  0  0  0  0  0  0
  196.8890  171.3940  143.7690 C   0  0  0  0  0  2  0  0  0  0  0  0
  195.8320  170.4030  144.2800 C   0  0  2  0  0  3  0  0  0  0  0  0
  195.8010  173.0160  145.4210 C   0  0  1  0  0  3  0  0  0  0  0  0
  194.4680  171.0700  144.5260 C   0  0  0  0  0  2  0  0  0  0  0  0
  194.5340  172.6000  144.6280 C   0  0  1  0  0  3  0  0  0  0  0  0
  191.5110  175.5880  145.0910 C   0  0  0  0  0  2  0  0  0  0  0  0
  189.8980  177.1300  143.3280 F   0  0  0  0  0  0  0  0  0  0  0  0
  188.1680  175.7620  146.8550 C   0  0  0  0  0  3  0  0  0  0  0  0
  185.6980  177.7280  143.9920 C   0  0  1  0  0  3  0  0  0  0  0  0
  187.2180  177.8710  143.8200 C   0  0  0  0  0  2  0  0  0  0  0  0
  187.9870  176.9810  144.7590 C   0  0  0  0  0  0  0  0  0  0  0  0
  190.0800  175.9080  145.3750 C   0  0  0  0  0  0  0  0  0  0  0  0
  185.9640  176.7780  146.2890 C   0  0  0  0  0  2  0  0  0  0  0  0
  187.4110  176.5340  145.9700 C   0  0  0  0  0  0  0  0  0  0  0  0
  185.3790  177.9290  145.4760 C   0  0  0  0  0  2  0  0  0  0  0  0
  189.4980  175.4550  146.5620 C   0  0  0  0  0  3  0  0  0  0  0  0
  189.3280  176.6770  144.4740 C   0  0  0  0  0  0  0  0  0  0  0  0
  184.5780  178.0580  141.9240 C   0  0  0  0  0  1  0  0  0  0  0  0
  184.9840  178.7080  143.1630 N   0  0  0  0  0  0  0  0  0  0  0  0
  183.7370  179.0590  143.8300 C   0  0  0  0  0  1  0  0  0  0  0  0
  196.2910  169.6870  145.5450 C   0  0  0  0  0  2  0  0  0  0  0  0
  195.1440  169.5070  146.5330 C   0  0  0  0  0  2  0  0  0  0  0  0
  195.5000  168.5160  147.6320 C   0  0  0  0  0  2  0  0  0  0  0  0
  196.9990  168.4940  147.8600 C   0  0  0  0  0  1  0  0  0  0  0  0
  4  1  2  0  0  0  0
  6 10  1  6  0  0  0
  6  5  1  0  0  0  0
  7 16  1  6  0  0  0
  7  5  1  0  0  0  0
  8  3  1  1  0  0  0
  8  9  1  0  0  0  0
  8  6  1  0  0  0  0
  9  1  1  6  0  0  0
  9  7  1  0  0  0  0
 11 12  1  0  0  0  0
 11  2  1  0  0  0  0
 12 14  1  0  0  0  0
 12 31  1  1  0  0  0
 13  2  1  6  0  0  0
 13  3  1  0  0  0  0
 15 14  1  1  0  0  0
 15  1  1  0  0  0  0
 15 13  1  0  0  0  0
 16 22  1  0  0  0  0
 17 27  1  0  0  0  0
 19 29  1  6  0  0  0
 19 25  1  0  0  0  0
 20 19  1  0  0  0  0
 20 21  1  0  0  0  0
 21 24  1  0  0  0  0
 22 26  2  0  0  0  0
 24 23  1  0  0  0  0
 24 18  2  0  0  0  0
 25 23  1  0  0  0  0
 26 18  1  0  0  0  0
 27 21  2  0  0  0  0
 27 22  1  0  0  0  0
 28 29  1  0  0  0  0
 29 30  1  0  0  0  0
 31 32  1  0  0  0  0
 32 33  1  0  0  0  0
 33 34  1  0  0  0  0
M  END
>  <MODEL>
2

>  <REMARK>
 VINA RESULT:      -8.2      1.838      3.421
  Name = 
  6 active torsions:
  status: ('A' for Active; 'I' for Inactive)
    1  A    between atoms: C_3  and  C_24
    2  A    between atoms: C_7  and  N_15
    3  A    between atoms: C_8  and  C_17
    4  A    between atoms: C_8  and  C_18
    5  A    between atoms: C_24  and  C_25
    6  A    between atoms: C_25  and  C_27
                            x       y       z     vdW  Elec       q    Type
                         _______ _______ _______ _____ _____    ______ ____

>  <TORSDO>
F 6

$$$$
=
 OpenBabel11052420183D

 34 38  0  0  1  0  0  0  0  0999 V2000
  188.5740  177.1750  144.5040 C   0  0  0  0  0  0  0  0  0  0  0  0
  185.3730  177.3060  142.2870 C   0  0  0  0  0  2  0  0  0  0  0  0
  187.0330  175.4250  142.6390 C   0  0  0  0  0  2  0  0  0  0  0  0
  189.2630  177.8540  145.2520 O   0  0  0  0  0  0  0  0  0  0  0  0
  190.2170  173.8560  143.8270 N   0  0  0  0  0  2  0  0  0  0  0  0
  189.0900  173.9020  142.8860 C   0  0  1  0  0  3  0  0  0  0  0  0
  190.1880  175.1070  144.5960 C   0  0  2  0  0  3  0  0  0  0  0  0
  188.5220  175.2960  142.9520 C   0  0  2  0  0  3  0  0  0  0  0  0
  188.8070  175.6950  144.3620 C   0  0  2  0  0  3  0  0  0  0  0  0
  189.5840  173.6080  141.4830 C   0  0  0  0  0  1  0  0  0  0  0  0
  185.1600  178.8140  142.4880 C   0  0  0  0  0  2  0  0  0  0  0  0
  185.3300  179.2500  143.9520 C   0  0  2  0  0  3  0  0  0  0  0  0
  186.4270  176.7190  143.2290 C   0  0  1  0  0  3  0  0  0  0  0  0
  186.7030  178.8650  144.5260 C   0  0  0  0  0  2  0  0  0  0  0  0
  187.4390  177.7910  143.7130 C   0  0  1  0  0  3  0  0  0  0  0  0
  191.3130  176.0260  144.1110 C   0  0  0  0  0  2  0  0  0  0  0  0
  193.0390  174.4600  142.4820 F   0  0  0  0  0  0  0  0  0  0  0  0
  194.2990  175.3710  146.3400 C   0  0  0  0  0  3  0  0  0  0  0  0
  197.0050  173.3770  143.7210 C   0  0  1  0  0  3  0  0  0  0  0  0
  195.5260  173.4080  143.3070 C   0  0  0  0  0  2  0  0  0  0  0  0
  194.7010  174.3010  144.1950 C   0  0  0  0  0  0  0  0  0  0  0  0
  192.6440  175.5370  144.5790 C   0  0  0  0  0  0  0  0  0  0  0  0
  196.4630  174.1750  146.0270 C   0  0  0  0  0  2  0  0  0  0  0  0
  195.1140  174.5920  145.5140 C   0  0  0  0  0  0  0  0  0  0  0  0
  197.0630  173.0330  145.2120 C   0  0  0  0  0  2  0  0  0  0  0  0
  193.0670  175.8370  145.8780 C   0  0  0  0  0  3  0  0  0  0  0  0
  193.4570  174.7640  143.7380 C   0  0  0  0  0  0  0  0  0  0  0  0
  197.4150  171.0580  143.4060 C   0  0  0  0  0  1  0  0  0  0  0  0
  197.7500  172.3920  142.9250 N   0  0  0  0  0  0  0  0  0  0  0  0
  197.2580  172.4330  141.5550 C   0  0  0  0  0  1  0  0  0  0  0  0
  184.2240  178.6910  144.8410 C   0  0  0  0  0  2  0  0  0  0  0  0
  184.7110  178.4770  146.2700 C   0  0  0  0  0  2  0  0  0  0  0  0
  184.9030  177.0000  146.5810 C   0  0  0  0  0  2  0  0  0  0  0  0
  186.1830  176.7870  147.3670 C   0  0  0  0  0  1  0  0  0  0  0  0
  1  4  2  0  0  0  0
  2 11  1  0  0  0  0
  3 13  1  0  0  0  0
  5  7  1  0  0  0  0
  6 10  1  6  0  0  0
  6  8  1  0  0  0  0
  6  5  1  0  0  0  0
  7 16  1  6  0  0  0
  8  3  1  1  0  0  0
  8  9  1  0  0  0  0
  9  1  1  6  0  0  0
  9  7  1  0  0  0  0
 11 12  1  0  0  0  0
 12 14  1  0  0  0  0
 12 31  1  1  0  0  0
 13  2  1  6  0  0  0
 13 15  1  0  0  0  0
 15  1  1  0  0  0  0
 15 14  1  1  0  0  0
 16 22  1  0  0  0  0
 17 27  1  0  0  0  0
 19 29  1  6  0  0  0
 19 25  1  0  0  0  0
 20 19  1  0  0  0  0
 20 21  1  0  0  0  0
 21 24  1  0  0  0  0
 22 26  2  0  0  0  0
 24 23  1  0  0  0  0
 24 18  2  0  0  0  0
 25 23  1  0  0  0  0
 26 18  1  0  0  0  0
 27 21  2  0  0  0  0
 27 22  1  0  0  0  0
 29 28  1  0  0  0  0
 30 29  1  0  0  0  0
 31 32  1  0  0  0  0
 32 33  1  0  0  0  0
 33 34  1  0  0  0  0
M  END
>  <MODEL>
3

>  <REMARK>
 VINA RESULT:      -8.0      2.357      9.656
  Name = 
  6 active torsions:
  status: ('A' for Active; 'I' for Inactive)
    1  A    between atoms: C_3  and  C_24
    2  A    between atoms: C_7  and  N_15
    3  A    between atoms: C_8  and  C_17
    4  A    between atoms: C_8  and  C_18
    5  A    between atoms: C_24  and  C_25
    6  A    between atoms: C_25  and  C_27
                            x       y       z     vdW  Elec       q    Type
                         _______ _______ _______ _____ _____    ______ ____

>  <TORSDO>
F 6

$$$$
=
 OpenBabel11052420183D

 34 38  0  0  1  0  0  0  0  0999 V2000
  193.1430  173.3840  144.4690 C   0  0  0  0  0  0  0  0  0  0  0  0
  195.5900  174.4940  141.6470 C   0  0  0  0  0  2  0  0  0  0  0  0
  194.2050  175.8910  143.2430 C   0  0  0  0  0  2  0  0  0  0  0  0
  192.6510  172.3930  144.9900 O   0  0  0  0  0  0  0  0  0  0  0  0
  191.5730  176.5230  145.8280 N   0  0  0  0  0  2  0  0  0  0  0  0
  192.3890  176.9860  144.6980 C   0  0  1  0  0  3  0  0  0  0  0  0
  191.7410  175.0670  145.9150 C   0  0  2  0  0  3  0  0  0  0  0  0
  192.8720  175.7550  143.9740 C   0  0  2  0  0  3  0  0  0  0  0  0
  192.9660  174.7490  145.0740 C   0  0  2  0  0  3  0  0  0  0  0  0
  191.5440  177.8350  143.7700 C   0  0  0  0  0  1  0  0  0  0  0  0
  195.7630  173.0740  141.0850 C   0  0  0  0  0  2  0  0  0  0  0  0
  195.9810  172.0210  142.1830 C   0  0  2  0  0  3  0  0  0  0  0  0
  194.8750  174.5190  143.0000 C   0  0  1  0  0  3  0  0  0  0  0  0
  194.8460  172.0060  143.2190 C   0  0  0  0  0  2  0  0  0  0  0  0
  193.9770  173.2710  143.2090 C   0  0  1  0  0  3  0  0  0  0  0  0
  190.4750  174.3780  145.3970 C   0  0  0  0  0  2  0  0  0  0  0  0
  189.1870  175.6010  143.1760 F   0  0  0  0  0  0  0  0  0  0  0  0
  187.6800  176.3830  146.9740 C   0  0  0  0  0  3  0  0  0  0  0  0
  185.5560  177.8560  143.5860 C   0  0  1  0  0  3  0  0  0  0  0  0
  186.9940  177.3730  143.3530 C   0  0  0  0  0  2  0  0  0  0  0  0
  187.5750  176.6950  144.5650 C   0  0  0  0  0  0  0  0  0  0  0  0
  189.2840  175.2680  145.5420 C   0  0  0  0  0  0  0  0  0  0  0  0
  185.8560  177.8200  146.0680 C   0  0  0  0  0  2  0  0  0  0  0  0
  187.0820  176.9760  145.8590 C   0  0  0  0  0  0  0  0  0  0  0  0
  185.5510  178.7030  144.8620 C   0  0  0  0  0  2  0  0  0  0  0  0
  188.7800  175.5370  146.8170 C   0  0  0  0  0  3  0  0  0  0  0  0
  188.6870  175.8510  144.4140 C   0  0  0  0  0  0  0  0  0  0  0  0
  185.7760  178.1820  141.2440 C   0  0  0  0  0  1  0  0  0  0  0  0
  185.0720  178.6340  142.4370 N   0  0  0  0  0  0  0  0  0  0  0  0
  183.6760  178.2940  142.2010 C   0  0  0  0  0  1  0  0  0  0  0  0
  197.3210  172.2070  142.8880 C   0  0  0  0  0  2  0  0  0  0  0  0
  197.1750  172.1000  144.4010 C   0  0  0  0  0  2  0  0  0  0  0  0
  197.6250  173.3750  145.0990 C   0  0  0  0  0  2  0  0  0  0  0  0
  196.6030  173.8010  146.1360 C   0  0  0  0  0  1  0  0  0  0  0  0
  1  4  2  0  0  0  0
  5  7  1  0  0  0  0
  6 10  1  6  0  0  0
  6  5  1  0  0  0  0
  7 16  1  6  0  0  0
  8  3  1  1  0  0  0
  8  6  1  0  0  0  0
  8  9  1  0  0  0  0
  9  1  1  6  0  0  0
  9  7  1  0  0  0  0
 11  2  1  0  0  0  0
 11 12  1  0  0  0  0
 12 31  1  1  0  0  0
 12 14  1  0  0  0  0
 13  2  1  6  0  0  0
 13 15  1  0  0  0  0
 13  3  1  0  0  0  0
 15 14  1  1  0  0  0
 15  1  1  0  0  0  0
 16 22  1  0  0  0  0
 17 27  1  0  0  0  0
 19 29  1  6  0  0  0
 19 25  1  0  0  0  0
 20 19  1  0  0  0  0
 20 21  1  0  0  0  0
 21 24  1  0  0  0  0
 22 26  2  0  0  0  0
 24 23  1  0  0  0  0
 24 18  2  0  0  0  0
 25 23  1  0  0  0  0
 26 18  1  0  0  0  0
 27 21  2  0  0  0  0
 27 22  1  0  0  0  0
 28 29  1  0  0  0  0
 30 29  1  0  0  0  0
 31 32  1  0  0  0  0
 32 33  1  0  0  0  0
 33 34  1  0  0  0  0
M  END
>  <MODEL>
4

>  <REMARK>
 VINA RESULT:      -7.8      1.643      2.843
  Name = 
  6 active torsions:
  status: ('A' for Active; 'I' for Inactive)
    1  A    between atoms: C_3  and  C_24
    2  A    between atoms: C_7  and  N_15
    3  A    between atoms: C_8  and  C_17
    4  A    between atoms: C_8  and  C_18
    5  A    between atoms: C_24  and  C_25
    6  A    between atoms: C_25  and  C_27
                            x       y       z     vdW  Elec       q    Type
                         _______ _______ _______ _____ _____    ______ ____

>  <TORSDO>
F 6

$$$$
=
 OpenBabel11052420183D

 34 38  0  0  1  0  0  0  0  0999 V2000
  192.4740  176.0900  143.6020 C   0  0  0  0  0  0  0  0  0  0  0  0
  196.0300  175.0650  144.8180 C   0  0  0  0  0  2  0  0  0  0  0  0
  193.7710  174.7050  145.9070 C   0  0  0  0  0  2  0  0  0  0  0  0
  191.8890  176.6750  142.7010 O   0  0  0  0  0  0  0  0  0  0  0  0
  190.0860  175.1720  146.3630 N   0  0  0  0  0  2  0  0  0  0  0  0
  191.4130  174.8750  146.9180 C   0  0  1  0  0  3  0  0  0  0  0  0
  190.2910  175.6810  145.0000 C   0  0  2  0  0  3  0  0  0  0  0  0
  192.4260  175.4250  145.9460 C   0  0  2  0  0  3  0  0  0  0  0  0
  191.7170  175.3050  144.6370 C   0  0  2  0  0  3  0  0  0  0  0  0
  191.5670  175.5520  148.2650 C   0  0  0  0  0  1  0  0  0  0  0  0
  196.7570  175.8590  143.7210 C   0  0  0  0  0  2  0  0  0  0  0  0
  196.1270  175.6680  142.3320 C   0  0  2  0  0  3  0  0  0  0  0  0
  194.5230  174.9540  144.5790 C   0  0  1  0  0  3  0  0  0  0  0  0
  194.6350  176.0400  142.3050 C   0  0  0  0  0  2  0  0  0  0  0  0
  193.9860  176.1090  143.6940 C   0  0  1  0  0  3  0  0  0  0  0  0
  190.0570  177.1950  144.9840 C   0  0  0  0  0  2  0  0  0  0  0  0
  188.5510  177.6660  142.6180 F   0  0  0  0  0  0  0  0  0  0  0  0
  186.5720  177.9180  146.2690 C   0  0  0  0  0  3  0  0  0  0  0  0
  184.2930  178.2160  142.6800 C   0  0  1  0  0  3  0  0  0  0  0  0
  185.8160  178.3680  142.5560 C   0  0  0  0  0  2  0  0  0  0  0  0
  186.5310  178.0490  143.8420 C   0  0  0  0  0  0  0  0  0  0  0  0
  188.5980  177.5110  145.0040 C   0  0  0  0  0  0  0  0  0  0  0  0
  184.3920  178.4210  145.1700 C   0  0  0  0  0  2  0  0  0  0  0  0
  185.8690  178.1580  145.0850 C   0  0  0  0  0  0  0  0  0  0  0  0
  183.8420  179.0410  143.8890 C   0  0  0  0  0  2  0  0  0  0  0  0
  187.9320  177.6030  146.2290 C   0  0  0  0  0  3  0  0  0  0  0  0
  187.9000  177.7400  143.8080 C   0  0  0  0  0  0  0  0  0  0  0  0
  184.4350  178.2830  140.3100 C   0  0  0  0  0  1  0  0  0  0  0  0
  183.6200  178.6680  141.4550 N   0  0  0  0  0  0  0  0  0  0  0  0
  182.3800  177.9210  141.3030 C   0  0  0  0  0  1  0  0  0  0  0  0
  196.3130  174.2450  141.8160 C   0  0  0  0  0  2  0  0  0  0  0  0
  195.1170  173.7900  140.9890 C   0  0  0  0  0  2  0  0  0  0  0  0
  194.6580  172.3950  141.3860 C   0  0  0  0  0  2  0  0  0  0  0  0
  193.3840  172.4700  142.2050 C   0  0  0  0  0  1  0  0  0  0  0  0
  1 15  1  0  0  0  0
  4  1  2  0  0  0  0
  5  6  1  0  0  0  0
  6 10  1  1  0  0  0
  7 16  1  1  0  0  0
  7  5  1  0  0  0  0
  8  3  1  6  0  0  0
  8  6  1  0  0  0  0
  9  1  1  6  0  0  0
  9  7  1  0  0  0  0
  9  8  1  0  0  0  0
 11  2  1  0  0  0  0
 12 31  1  1  0  0  0
 12 11  1  0  0  0  0
 13  2  1  1  0  0  0
 13  3  1  0  0  0  0
 14 12  1  0  0  0  0
 15 14  1  6  0  0  0
 15 13  1  0  0  0  0
 16 22  1  0  0  0  0
 17 27  1  0  0  0  0
 19 29  1  6  0  0  0
 19 25  1  0  0  0  0
 20 19  1  0  0  0  0
 20 21  1  0  0  0  0
 21 24  1  0  0  0  0
 22 26  2  0  0  0  0
 24 23  1  0  0  0  0
 24 18  2  0  0  0  0
 25 23  1  0  0  0  0
 26 18  1  0  0  0  0
 27 21  2  0  0  0  0
 27 22  1  0  0  0  0
 28 29  1  0  0  0  0
 30 29  1  0  0  0  0
 32 33  1  0  0  0  0
 32 31  1  0  0  0  0
 33 34  1  0  0  0  0
M  END
>  <MODEL>
5

>  <REMARK>
 VINA RESULT:      -7.7      1.981      2.942
  Name = 
  6 active torsions:
  status: ('A' for Active; 'I' for Inactive)
    1  A    between atoms: C_3  and  C_24
    2  A    between atoms: C_7  and  N_15
    3  A    between atoms: C_8  and  C_17
    4  A    between atoms: C_8  and  C_18
    5  A    between atoms: C_24  and  C_25
    6  A    between atoms: C_25  and  C_27
                            x       y       z     vdW  Elec       q    Type
                         _______ _______ _______ _____ _____    ______ ____

>  <TORSDO>
F 6

$$$$
=
 OpenBabel11052420183D

 34 38  0  0  1  0  0  0  0  0999 V2000
  187.5500  176.0400  143.8630 C   0  0  0  0  0  0  0  0  0  0  0  0
  187.4270  177.8510  147.3100 C   0  0  0  0  0  2  0  0  0  0  0  0
  189.3660  177.5200  145.7150 C   0  0  0  0  0  2  0  0  0  0  0  0
  186.8630  175.4000  143.0800 O   0  0  0  0  0  0  0  0  0  0  0  0
  191.1480  176.0750  142.7570 N   0  0  0  0  0  2  0  0  0  0  0  0
  191.1770  176.6590  144.1040 C   0  0  1  0  0  3  0  0  0  0  0  0
  189.7470  175.7500  142.4570 C   0  0  2  0  0  3  0  0  0  0  0  0
  189.8000  176.4740  144.6910 C   0  0  2  0  0  3  0  0  0  0  0  0
  188.9260  176.5140  143.4820 C   0  0  2  0  0  3  0  0  0  0  0  0
  192.2040  175.9370  144.9530 C   0  0  0  0  0  1  0  0  0  0  0  0
  186.0060  177.3670  147.6400 C   0  0  0  0  0  2  0  0  0  0  0  0
  185.0400  177.5010  146.4520 C   0  0  2  0  0  3  0  0  0  0  0  0
  187.8280  177.5860  145.8570 C   0  0  1  0  0  3  0  0  0  0  0  0
  185.5370  176.7580  145.2010 C   0  0  0  0  0  2  0  0  0  0  0  0
  187.0310  176.4080  145.2380 C   0  0  1  0  0  3  0  0  0  0  0  0
  189.5460  174.2350  142.5490 C   0  0  0  0  0  2  0  0  0  0  0  0
  190.6850  171.6940  141.9720 F   0  0  0  0  0  0  0  0  0  0  0  0
  188.8570  173.7610  138.8580 C   0  0  0  0  0  3  0  0  0  0  0  0
  190.2220  169.7860  138.1530 C   0  0  1  0  0  3  0  0  0  0  0  0
  190.7360  170.4870  139.4180 C   0  0  0  0  0  2  0  0  0  0  0  0
  190.0410  171.7990  139.6700 C   0  0  0  0  0  0  0  0  0  0  0  0
  189.5000  173.6180  141.1900 C   0  0  0  0  0  0  0  0  0  0  0  0
  189.3150  171.9270  137.2340 C   0  0  0  0  0  2  0  0  0  0  0  0
  189.4400  172.5150  138.6110 C   0  0  0  0  0  0  0  0  0  0  0  0
  190.3050  170.7910  137.0000 C   0  0  0  0  0  2  0  0  0  0  0  0
  188.8920  174.3130  140.1400 C   0  0  0  0  0  3  0  0  0  0  0  0
  190.0810  172.3620  140.9550 C   0  0  0  0  0  0  0  0  0  0  0  0
  191.5300  168.6870  136.5020 C   0  0  0  0  0  1  0  0  0  0  0  0
  191.0160  168.5840  137.8620 N   0  0  0  0  0  0  0  0  0  0  0  0
  192.1970  168.5900  138.7130 C   0  0  0  0  0  1  0  0  0  0  0  0
  184.7640  178.9620  146.1090 C   0  0  0  0  0  2  0  0  0  0  0  0
  184.4510  179.1380  144.6280 C   0  0  0  0  0  2  0  0  0  0  0  0
  185.5670  179.8740  143.9020 C   0  0  0  0  0  2  0  0  0  0  0  0
  186.0780  179.0460  142.7380 C   0  0  0  0  0  1  0  0  0  0  0  0
  1 15  1  0  0  0  0
  2 11  1  0  0  0  0
  4  1  2  0  0  0  0
  5  6  1  0  0  0  0
  6  8  1  0  0  0  0
  6 10  1  1  0  0  0
  7 16  1  1  0  0  0
  7  5  1  0  0  0  0
  7  9  1  0  0  0  0
  8  3  1  1  0  0  0
  9  1  1  1  0  0  0
  9  8  1  0  0  0  0
 12 31  1  6  0  0  0
 12 11  1  0  0  0  0
 13  3  1  1  0  0  0
 13  2  1  0  0  0  0
 14 12  1  0  0  0  0
 15 14  1  6  0  0  0
 15 13  1  0  0  0  0
 18 26  1  0  0  0  0
 19 29  1  6  0  0  0
 19 20  1  0  0  0  0
 20 21  1  0  0  0  0
 21 27  2  0  0  0  0
 22 16  1  0  0  0  0
 23 24  1  0  0  0  0
 24 18  2  0  0  0  0
 24 21  1  0  0  0  0
 25 23  1  0  0  0  0
 25 19  1  0  0  0  0
 26 22  2  0  0  0  0
 27 22  1  0  0  0  0
 27 17  1  0  0  0  0
 28 29  1  0  0  0  0
 29 30  1  0  0  0  0
 32 31  1  0  0  0  0
 33 32  1  0  0  0  0
 34 33  1  0  0  0  0
M  END
>  <MODEL>
6

>  <REMARK>
 VINA RESULT:      -7.6      4.431      9.623
  Name = 
  6 active torsions:
  status: ('A' for Active; 'I' for Inactive)
    1  A    between atoms: C_3  and  C_24
    2  A    between atoms: C_7  and  N_15
    3  A    between atoms: C_8  and  C_17
    4  A    between atoms: C_8  and  C_18
    5  A    between atoms: C_24  and  C_25
    6  A    between atoms: C_25  and  C_27
                            x       y       z     vdW  Elec       q    Type
                         _______ _______ _______ _____ _____    ______ ____

>  <TORSDO>
F 6

$$$$
=
 OpenBabel11052420183D

 34 38  0  0  1  0  0  0  0  0999 V2000
  193.6720  173.2970  144.3660 C   0  0  0  0  0  0  0  0  0  0  0  0
  197.4340  172.6490  145.1410 C   0  0  0  0  0  2  0  0  0  0  0  0
  195.8600  174.4040  146.0690 C   0  0  0  0  0  2  0  0  0  0  0  0
  192.7450  172.9070  143.6710 O   0  0  0  0  0  0  0  0  0  0  0  0
  192.7050  176.4080  146.2520 N   0  0  0  0  0  2  0  0  0  0  0  0
  194.1490  176.2780  146.4830 C   0  0  1  0  0  3  0  0  0  0  0  0
  192.2990  175.2780  145.4050 C   0  0  2  0  0  3  0  0  0  0  0  0
  194.6390  175.1770  145.5770 C   0  0  2  0  0  3  0  0  0  0  0  0
  193.4460  174.2850  145.4780 C   0  0  2  0  0  3  0  0  0  0  0  0
  194.8410  177.5820  146.1370 C   0  0  0  0  0  1  0  0  0  0  0  0
  197.6060  171.6220  144.0120 C   0  0  0  0  0  2  0  0  0  0  0  0
  196.4530  170.6080  143.9490 C   0  0  2  0  0  3  0  0  0  0  0  0
  195.9710  173.0130  145.4040 C   0  0  1  0  0  3  0  0  0  0  0  0
  195.0800  171.2850  143.7960 C   0  0  0  0  0  2  0  0  0  0  0  0
  195.0790  172.7770  144.1570 C   0  0  1  0  0  3  0  0  0  0  0  0
  192.0400  175.7790  143.9820 C   0  0  0  0  0  2  0  0  0  0  0  0
  190.4120  177.8870  144.9780 F   0  0  0  0  0  0  0  0  0  0  0  0
  188.5860  174.9330  142.6880 C   0  0  0  0  0  3  0  0  0  0  0  0
  186.2870  178.3220  143.8690 C   0  0  1  0  0  3  0  0  0  0  0  0
  187.6220  178.0960  144.5920 C   0  0  0  0  0  2  0  0  0  0  0  0
  188.4360  176.9970  143.9650 C   0  0  0  0  0  0  0  0  0  0  0  0
  190.5750  175.8710  143.7050 C   0  0  0  0  0  0  0  0  0  0  0  0
  186.3590  176.0410  142.8490 C   0  0  0  0  0  2  0  0  0  0  0  0
  187.8160  175.9780  143.2070 C   0  0  0  0  0  0  0  0  0  0  0  0
  185.5760  176.9690  143.7730 C   0  0  0  0  0  2  0  0  0  0  0  0
  189.9580  174.8760  142.9410 C   0  0  0  0  0  3  0  0  0  0  0  0
  189.8150  176.9290  144.2230 C   0  0  0  0  0  0  0  0  0  0  0  0
  184.0610  179.0470  144.2700 C   0  0  0  0  0  1  0  0  0  0  0  0
  185.4600  179.3010  144.5880 N   0  0  0  0  0  0  0  0  0  0  0  0
  185.5740  179.0430  146.0170 C   0  0  0  0  0  1  0  0  0  0  0  0
  196.4410  169.6870  145.1640 C   0  0  0  0  0  2  0  0  0  0  0  0
  195.0200  169.4080  145.6410 C   0  0  0  0  0  2  0  0  0  0  0  0
  194.9610  169.2200  147.1490 C   0  0  0  0  0  2  0  0  0  0  0  0
  196.1730  168.4490  147.6350 C   0  0  0  0  0  1  0  0  0  0  0  0
  4  1  2  0  0  0  0
  5  6  1  0  0  0  0
  6 10  1  6  0  0  0
  7 16  1  6  0  0  0
  7  9  1  0  0  0  0
  7  5  1  0  0  0  0
  8  3  1  1  0  0  0
  8  6  1  0  0  0  0
  9  1  1  6  0  0  0
  9  8  1  0  0  0  0
 11  2  1  0  0  0  0
 12 11  1  0  0  0  0
 12 31  1  1  0  0  0
 13  2  1  6  0  0  0
 13  3  1  0  0  0  0
 14 12  1  0  0  0  0
 15 14  1  1  0  0  0
 15  1  1  0  0  0  0
 15 13  1  0  0  0  0
 18 26  2  0  0  0  0
 18 24  1  0  0  0  0
 19 29  1  1  0  0  0
 19 20  1  0  0  0  0
 21 27  1  0  0  0  0
 21 20  1  0  0  0  0
 22 16  1  0  0  0  0
 22 27  2  0  0  0  0
 23 24  1  0  0  0  0
 23 25  1  0  0  0  0
 24 21  2  0  0  0  0
 25 19  1  0  0  0  0
 26 22  1  0  0  0  0
 27 17  1  0  0  0  0
 28 29  1  0  0  0  0
 29 30  1  0  0  0  0
 31 32  1  0  0  0  0
 32 33  1  0  0  0  0
 33 34  1  0  0  0  0
M  END
>  <MODEL>
7

>  <REMARK>
 VINA RESULT:      -7.5      2.005      3.650
  Name = 
  6 active torsions:
  status: ('A' for Active; 'I' for Inactive)
    1  A    between atoms: C_3  and  C_24
    2  A    between atoms: C_7  and  N_15
    3  A    between atoms: C_8  and  C_17
    4  A    between atoms: C_8  and  C_18
    5  A    between atoms: C_24  and  C_25
    6  A    between atoms: C_25  and  C_27
                            x       y       z     vdW  Elec       q    Type
                         _______ _______ _______ _____ _____    ______ ____

>  <TORSDO>
F 6

$$$$
=
 OpenBabel11052420183D

 34 38  0  0  1  0  0  0  0  0999 V2000
  188.8740  176.3840  143.9680 C   0  0  0  0  0  0  0  0  0  0  0  0
  187.1720  177.2890  147.3540 C   0  0  0  0  0  2  0  0  0  0  0  0
  189.6220  177.3000  146.7100 C   0  0  0  0  0  2  0  0  0  0  0  0
  188.6320  175.9810  142.8390 O   0  0  0  0  0  0  0  0  0  0  0  0
  192.5890  176.5740  144.5470 N   0  0  0  0  0  2  0  0  0  0  0  0
  192.0030  176.8060  145.8730 C   0  0  1  0  0  3  0  0  0  0  0  0
  191.4740  176.3800  143.6100 C   0  0  2  0  0  3  0  0  0  0  0  0
  190.5260  176.5260  145.7540 C   0  0  2  0  0  3  0  0  0  0  0  0
  190.2420  176.8920  144.3350 C   0  0  2  0  0  3  0  0  0  0  0  0
  192.6300  175.8630  146.8810 C   0  0  0  0  0  1  0  0  0  0  0  0
  185.7870  176.7850  146.9200 C   0  0  0  0  0  2  0  0  0  0  0  0
  185.4030  177.2400  145.5030 C   0  0  2  0  0  3  0  0  0  0  0  0
  188.1670  177.3790  146.1940 C   0  0  1  0  0  3  0  0  0  0  0  0
  186.4370  176.8140  144.4470 C   0  0  0  0  0  2  0  0  0  0  0  0
  187.7980  176.4170  145.0340 C   0  0  1  0  0  3  0  0  0  0  0  0
  191.3710  174.8970  143.2440 C   0  0  0  0  0  2  0  0  0  0  0  0
  192.0040  173.0110  145.2760 F   0  0  0  0  0  0  0  0  0  0  0  0
  194.9560  173.9430  142.4980 C   0  0  0  0  0  3  0  0  0  0  0  0
  195.7060  170.8360  145.3160 C   0  0  1  0  0  3  0  0  0  0  0  0
  194.5190  171.7670  145.6010 C   0  0  0  0  0  2  0  0  0  0  0  0
  194.2270  172.6930  144.4510 C   0  0  0  0  0  0  0  0  0  0  0  0
  192.7030  174.2270  143.3410 C   0  0  0  0  0  0  0  0  0  0  0  0
  196.5750  172.3550  143.5300 C   0  0  0  0  0  2  0  0  0  0  0  0
  195.2340  173.0310  143.5200 C   0  0  0  0  0  0  0  0  0  0  0  0
  196.8860  171.7100  144.8780 C   0  0  0  0  0  2  0  0  0  0  0  0
  193.6990  174.5440  142.4120 C   0  0  0  0  0  3  0  0  0  0  0  0
  192.9670  173.3060  144.3650 C   0  0  0  0  0  0  0  0  0  0  0  0
  194.9740  169.0990  146.7610 C   0  0  0  0  0  1  0  0  0  0  0  0
  196.0510  170.0470  146.5070 N   0  0  0  0  0  0  0  0  0  0  0  0
  197.2120  169.2240  146.1990 C   0  0  0  0  0  1  0  0  0  0  0  0
  185.1860  178.7480  145.4330 C   0  0  0  0  0  2  0  0  0  0  0  0
  185.1370  179.2390  143.9900 C   0  0  0  0  0  2  0  0  0  0  0  0
  183.7620  179.0340  143.3750 C   0  0  0  0  0  2  0  0  0  0  0  0
  183.8750  178.2870  142.0590 C   0  0  0  0  0  1  0  0  0  0  0  0
  1 15  1  0  0  0  0
  4  1  2  0  0  0  0
  5  6  1  0  0  0  0
  6 10  1  1  0  0  0
  7 16  1  1  0  0  0
  7  9  1  0  0  0  0
  7  5  1  0  0  0  0
  8  6  1  0  0  0  0
  8  3  1  1  0  0  0
  9  1  1  6  0  0  0
  9  8  1  0  0  0  0
 11  2  1  0  0  0  0
 12 31  1  1  0  0  0
 12 11  1  0  0  0  0
 13  3  1  1  0  0  0
 13  2  1  0  0  0  0
 14 12  1  0  0  0  0
 15 14  1  6  0  0  0
 15 13  1  0  0  0  0
 16 22  1  0  0  0  0
 18 24  1  0  0  0  0
 19 20  1  0  0  0  0
 19 29  1  1  0  0  0
 21 20  1  0  0  0  0
 22 27  2  0  0  0  0
 23 25  1  0  0  0  0
 24 23  1  0  0  0  0
 24 21  2  0  0  0  0
 25 19  1  0  0  0  0
 26 18  2  0  0  0  0
 26 22  1  0  0  0  0
 27 21  1  0  0  0  0
 27 17  1  0  0  0  0
 29 28  1  0  0  0  0
 30 29  1  0  0  0  0
 32 31  1  0  0  0  0
 33 32  1  0  0  0  0
 34 33  1  0  0  0  0
M  END
>  <MODEL>
8

>  <REMARK>
 VINA RESULT:      -7.5      2.529      9.743
  Name = 
  6 active torsions:
  status: ('A' for Active; 'I' for Inactive)
    1  A    between atoms: C_3  and  C_24
    2  A    between atoms: C_7  and  N_15
    3  A    between atoms: C_8  and  C_17
    4  A    between atoms: C_8  and  C_18
    5  A    between atoms: C_24  and  C_25
    6  A    between atoms: C_25  and  C_27
                            x       y       z     vdW  Elec       q    Type
                         _______ _______ _______ _____ _____    ______ ____

>  <TORSDO>
F 6

$$$$
=
 OpenBabel11052420183D

 34 38  0  0  1  0  0  0  0  0999 V2000
  192.0070  175.4230  142.9980 C   0  0  0  0  0  0  0  0  0  0  0  0
  195.6970  174.5740  142.0790 C   0  0  0  0  0  2  0  0  0  0  0  0
  194.6500  175.0490  144.3360 C   0  0  0  0  0  2  0  0  0  0  0  0
  190.9060  175.6180  142.5040 O   0  0  0  0  0  0  0  0  0  0  0  0
  191.9620  176.1670  146.6880 N   0  0  0  0  0  2  0  0  0  0  0  0
  193.3830  175.9710  146.3750 C   0  0  1  0  0  3  0  0  0  0  0  0
  191.2150  175.9820  145.4370 C   0  0  2  0  0  3  0  0  0  0  0  0
  193.4930  175.8860  144.8740 C   0  0  2  0  0  3  0  0  0  0  0  0
  192.1790  175.2930  144.4870 C   0  0  2  0  0  3  0  0  0  0  0  0
  194.1870  177.1500  146.8880 C   0  0  0  0  0  1  0  0  0  0  0  0
  195.4640  174.6880  140.5650 C   0  0  0  0  0  2  0  0  0  0  0  0
  194.1760  173.9860  140.1050 C   0  0  2  0  0  3  0  0  0  0  0  0
  194.3970  174.5740  142.8870 C   0  0  1  0  0  3  0  0  0  0  0  0
  192.9280  174.5060  140.8380 C   0  0  0  0  0  2  0  0  0  0  0  0
  193.2390  175.2750  142.1290 C   0  0  1  0  0  3  0  0  0  0  0  0
  190.7480  177.3450  144.9190 C   0  0  0  0  0  2  0  0  0  0  0  0
  189.1390  178.1100  142.7030 F   0  0  0  0  0  0  0  0  0  0  0  0
  187.2340  177.3540  146.3230 C   0  0  0  0  0  3  0  0  0  0  0  0
  184.8480  178.1090  142.8740 C   0  0  1  0  0  3  0  0  0  0  0  0
  186.3380  178.4690  142.7850 C   0  0  0  0  0  2  0  0  0  0  0  0
  187.1180  177.9800  143.9770 C   0  0  0  0  0  0  0  0  0  0  0  0
  189.2620  177.4700  145.0030 C   0  0  0  0  0  0  0  0  0  0  0  0
  184.9830  177.8030  145.3510 C   0  0  0  0  0  2  0  0  0  0  0  0
  186.4780  177.7460  145.2150 C   0  0  0  0  0  0  0  0  0  0  0  0
  184.3310  178.6030  144.2280 C   0  0  0  0  0  2  0  0  0  0  0  0
  188.6200  177.2230  146.2200 C   0  0  0  0  0  3  0  0  0  0  0  0
  188.5130  177.8550  143.8810 C   0  0  0  0  0  0  0  0  0  0  0  0
  184.5950  178.1760  140.5130 C   0  0  0  0  0  1  0  0  0  0  0  0
  184.0960  178.7200  141.7690 N   0  0  0  0  0  0  0  0  0  0  0  0
  182.7120  178.2760  141.8480 C   0  0  0  0  0  1  0  0  0  0  0  0
  194.2710  172.4710  140.2600 C   0  0  0  0  0  2  0  0  0  0  0  0
  192.8910  171.8250  140.2920 C   0  0  0  0  0  2  0  0  0  0  0  0
  192.8060  170.7360  141.3510 C   0  0  0  0  0  2  0  0  0  0  0  0
  192.9000  171.3390  142.7400 C   0  0  0  0  0  1  0  0  0  0  0  0
  4  1  2  0  0  0  0
  6  5  1  0  0  0  0
  6 10  1  6  0  0  0
  7 16  1  6  0  0  0
  7  5  1  0  0  0  0
  8  3  1  1  0  0  0
  8  6  1  0  0  0  0
  9  1  1  6  0  0  0
  9  8  1  0  0  0  0
  9  7  1  0  0  0  0
 11  2  1  0  0  0  0
 12 31  1  1  0  0  0
 12 11  1  0  0  0  0
 12 14  1  0  0  0  0
 13  2  1  6  0  0  0
 13  3  1  0  0  0  0
 15 14  1  6  0  0  0
 15 13  1  0  0  0  0
 15  1  1  0  0  0  0
 16 22  1  0  0  0  0
 17 27  1  0  0  0  0
 19 29  1  6  0  0  0
 19 25  1  0  0  0  0
 20 19  1  0  0  0  0
 20 21  1  0  0  0  0
 21 24  1  0  0  0  0
 22 26  2  0  0  0  0
 24 23  1  0  0  0  0
 24 18  2  0  0  0  0
 25 23  1  0  0  0  0
 26 18  1  0  0  0  0
 27 21  2  0  0  0  0
 27 22  1  0  0  0  0
 28 29  1  0  0  0  0
 29 30  1  0  0  0  0
 31 32  1  0  0  0  0
 32 33  1  0  0  0  0
 33 34  1  0  0  0  0
M  END
>  <MODEL>
9

>  <REMARK>
 VINA RESULT:      -7.4      2.200      3.666
  Name = 
  6 active torsions:
  status: ('A' for Active; 'I' for Inactive)
    1  A    between atoms: C_3  and  C_24
    2  A    between atoms: C_7  and  N_15
    3  A    between atoms: C_8  and  C_17
    4  A    between atoms: C_8  and  C_18
    5  A    between atoms: C_24  and  C_25
    6  A    between atoms: C_25  and  C_27
                            x       y       z     vdW  Elec       q    Type
                         _______ _______ _______ _____ _____    ______ ____

>  <TORSDO>
F 6

$$$$
