=
 OpenBabel11052417223D

 30 32  0  0  1  0  0  0  0  0999 V2000
  190.9050  174.8780  143.8590 C   0  0  0  0  0  0  0  0  0  0  0  0
  191.2570  176.3030  147.9480 C   0  0  0  0  0  2  0  0  0  0  0  0
  190.2690  175.4800  147.1490 C   0  0  2  0  0  0  0  0  0  0  0  0
  191.8840  175.5530  144.6370 N   0  0  0  0  0  0  0  0  0  0  0  0
  191.2260  173.8770  143.1670 O   0  0  0  0  0  0  0  0  0  0  0  0
  191.7630  175.1330  147.0930 C   0  0  1  0  0  3  0  0  0  0  0  0
  192.6600  175.6030  145.9110 C   0  0  2  0  0  3  0  0  0  0  0  0
  189.4730  175.3150  143.9370 C   0  0  1  0  0  3  0  0  0  0  0  0
  189.6250  176.1670  146.0200 N   0  0  0  0  0  0  0  0  0  0  0  0
  189.4800  174.6200  147.9180 O   0  0  0  0  0  1  0  0  0  0  0  0
  192.3470  176.8050  145.3080 C   0  0  0  0  0  2  0  0  0  0  0  0
  188.9680  175.2390  145.2600 O   0  0  0  0  0  0  0  0  0  0  0  0
  189.2200  176.6720  143.2650 C   0  0  1  0  0  3  0  0  0  0  0  0
  190.2840  176.9970  142.4170 O   0  0  0  0  0  1  0  0  0  0  0  0
  187.8930  176.6660  142.4970 C   0  0  1  0  0  3  0  0  0  0  0  0
  187.8110  177.7890  141.4620 C   0  0  0  0  0  2  0  0  0  0  0  0
  186.1260  178.0330  140.8120 S   0  0  0  0  0  0  0  0  0  0  0  0
  184.0490  178.1550  142.5660 C   0  0  0  0  0  1  0  0  0  0  0  0
  185.5060  178.5470  142.4360 C   0  0  0  0  0  2  0  0  0  0  0  0
  187.5330  175.2990  141.9250 C   0  0  0  0  0  2  0  0  0  0  0  0
  188.2760  175.0650  140.6980 N   0  0  0  0  0  2  0  0  0  0  0  0
  188.7370  172.7420  141.3050 O   0  0  0  0  0  1  0  0  0  0  0  0
  189.4950  173.6330  139.3360 O   0  0  0  0  0  0  0  0  0  0  0  0
  188.8610  173.7970  140.4100 C   0  0  0  0  0  0  0  0  0  0  0  0
  188.6630  177.1640  146.5110 C   0  0  0  0  0  2  0  0  0  0  0  0
  187.2100  176.7300  146.3440 C   0  0  0  0  0  2  0  0  0  0  0  0
  186.3590  177.9390  146.0000 C   0  0  0  0  0  2  0  0  0  0  0  0
  184.8810  177.6570  146.2280 C   0  0  2  0  0  3  0  0  0  0  0  0
  184.3800  178.4730  147.2420 O   0  0  0  0  0  1  0  0  0  0  0  0
  184.6850  176.3270  146.5540 F   0  0  0  0  0  0  0  0  0  0  0  0
  1  8  1  0  0  0  0
  1  4  1  0  0  0  0
  3 10  1  1  0  0  0
  3  2  1  0  0  0  0
  4 11  1  0  0  0  0
  4  7  1  0  0  0  0
  5  1  2  0  0  0  0
  6  3  1  0  0  0  0
  6  2  1  1  0  0  0
  7 11  1  1  0  0  0
  7  6  1  0  0  0  0
  8 13  1  1  0  0  0
  8 12  1  0  0  0  0
  9 25  1  0  0  0  0
  9  3  1  0  0  0  0
 12  9  1  0  0  0  0
 13 14  1  6  0  0  0
 15 16  1  6  0  0  0
 15 13  1  0  0  0  0
 17 16  1  0  0  0  0
 17 19  1  0  0  0  0
 19 18  1  0  0  0  0
 20 15  1  0  0  0  0
 21 20  1  0  0  0  0
 23 24  2  0  0  0  0
 24 21  1  0  0  0  0
 24 22  1  0  0  0  0
 26 25  1  0  0  0  0
 27 28  1  0  0  0  0
 27 26  1  0  0  0  0
 28 30  1  1  0  0  0
 28 29  1  0  0  0  0
M  END
>  <MODEL>
1

>  <REMARK>
 VINA RESULT:      -6.1      0.000      0.000
  Name = 
  11 active torsions:
  status: ('A' for Active; 'I' for Inactive)
    1  A    between atoms: C_1  and  C_4
    2  A    between atoms: C_1  and  C_22
    3  A    between atoms: C_4  and  C_9
    4  A    between atoms: C_4  and  C_12
    5  A    between atoms: C_7  and  N_23
    6  A    between atoms: C_7  and  C_25
    7  A    between atoms: N_8  and  C_12
    8  A    between atoms: C_9  and  S_21
    9  A    between atoms: C_10  and  C_15
   10  A    between atoms: C_15  and  C_25
   11  A    between atoms: C_17  and  S_21
                            x       y       z     vdW  Elec       q    Type
                         _______ _______ _______ _____ _____    ______ ____

>  <TORSDO>
F 11

$$$$
=
 OpenBabel11052417223D

 30 32  0  0  1  0  0  0  0  0999 V2000
  189.5380  177.4820  146.8890 C   0  0  0  0  0  0  0  0  0  0  0  0
  192.4870  175.4970  144.3910 C   0  0  0  0  0  2  0  0  0  0  0  0
  191.5620  176.6900  144.2690 C   0  0  2  0  0  0  0  0  0  0  0  0
  190.4850  176.4340  147.0430 N   0  0  0  0  0  0  0  0  0  0  0  0
  189.4770  178.4090  147.7380 O   0  0  0  0  0  0  0  0  0  0  0  0
  192.4510  176.5450  145.5120 C   0  0  1  0  0  3  0  0  0  0  0  0
  191.8900  175.9720  146.8460 C   0  0  2  0  0  3  0  0  0  0  0  0
  188.6740  177.5200  145.6650 C   0  0  1  0  0  3  0  0  0  0  0  0
  190.1230  176.3990  144.3490 N   0  0  0  0  0  0  0  0  0  0  0  0
  191.9780  177.6490  143.3410 O   0  0  0  0  0  1  0  0  0  0  0  0
  190.8910  175.0230  146.7650 C   0  0  0  0  0  2  0  0  0  0  0  0
  189.4450  177.5800  144.4760 O   0  0  0  0  0  0  0  0  0  0  0  0
  187.6080  176.4150  145.6450 C   0  0  1  0  0  3  0  0  0  0  0  0
  187.3060  176.0130  146.9500 O   0  0  0  0  0  1  0  0  0  0  0  0
  186.3450  176.8830  144.9130 C   0  0  1  0  0  3  0  0  0  0  0  0
  186.1720  178.4010  144.9540 C   0  0  0  0  0  2  0  0  0  0  0  0
  184.5100  178.9130  145.4980 S   0  0  0  0  0  0  0  0  0  0  0  0
  186.0050  179.2930  147.7390 C   0  0  0  0  0  1  0  0  0  0  0  0
  184.8610  178.4510  147.2160 C   0  0  0  0  0  2  0  0  0  0  0  0
  186.2130  176.3040  143.5080 C   0  0  0  0  0  2  0  0  0  0  0  0
  185.6820  177.3120  142.6060 N   0  0  0  0  0  2  0  0  0  0  0  0
  187.1960  176.6400  140.8070 O   0  0  0  0  0  1  0  0  0  0  0  0
  185.6920  178.3440  140.5260 O   0  0  0  0  0  0  0  0  0  0  0  0
  186.1790  177.4610  141.2780 C   0  0  0  0  0  0  0  0  0  0  0  0
  189.6750  175.7070  143.1320 C   0  0  0  0  0  2  0  0  0  0  0  0
  189.2730  174.2560  143.3790 C   0  0  0  0  0  2  0  0  0  0  0  0
  189.6980  173.4060  142.1960 C   0  0  0  0  0  2  0  0  0  0  0  0
  188.4980  172.9800  141.3630 C   0  0  2  0  0  3  0  0  0  0  0  0
  188.5220  173.6100  140.1180 O   0  0  0  0  0  1  0  0  0  0  0  0
  187.3190  173.2800  142.0200 F   0  0  0  0  0  0  0  0  0  0  0  0
  1  4  1  0  0  0  0
  1  5  2  0  0  0  0
  3 10  1  6  0  0  0
  3  9  1  0  0  0  0
  3  2  1  0  0  0  0
  3  6  1  0  0  0  0
  6  2  1  6  0  0  0
  6  7  1  0  0  0  0
  7 11  1  6  0  0  0
  7  4  1  0  0  0  0
  8 13  1  6  0  0  0
  8  1  1  0  0  0  0
  9 12  1  0  0  0  0
 11  4  1  0  0  0  0
 12  8  1  0  0  0  0
 13 14  1  1  0  0  0
 15 20  1  6  0  0  0
 15 16  1  0  0  0  0
 15 13  1  0  0  0  0
 16 17  1  0  0  0  0
 17 19  1  0  0  0  0
 19 18  1  0  0  0  0
 21 20  1  0  0  0  0
 22 24  1  0  0  0  0
 23 24  2  0  0  0  0
 24 21  1  0  0  0  0
 25 26  1  0  0  0  0
 25  9  1  0  0  0  0
 27 26  1  0  0  0  0
 28 29  1  6  0  0  0
 28 30  1  0  0  0  0
 28 27  1  0  0  0  0
M  END
>  <MODEL>
2

>  <REMARK>
 VINA RESULT:      -6.1      2.491      4.736
  Name = 
  11 active torsions:
  status: ('A' for Active; 'I' for Inactive)
    1  A    between atoms: C_1  and  C_4
    2  A    between atoms: C_1  and  C_22
    3  A    between atoms: C_4  and  C_9
    4  A    between atoms: C_4  and  C_12
    5  A    between atoms: C_7  and  N_23
    6  A    between atoms: C_7  and  C_25
    7  A    between atoms: N_8  and  C_12
    8  A    between atoms: C_9  and  S_21
    9  A    between atoms: C_10  and  C_15
   10  A    between atoms: C_15  and  C_25
   11  A    between atoms: C_17  and  S_21
                            x       y       z     vdW  Elec       q    Type
                         _______ _______ _______ _____ _____    ______ ____

>  <TORSDO>
F 11

$$$$
=
 OpenBabel11052417223D

 30 32  0  0  1  0  0  0  0  0999 V2000
  191.1970  174.9420  143.8490 C   0  0  0  0  0  0  0  0  0  0  0  0
  191.0890  176.1550  148.0200 C   0  0  0  0  0  2  0  0  0  0  0  0
  190.1670  175.4370  147.0560 C   0  0  2  0  0  0  0  0  0  0  0  0
  192.1030  175.5140  144.7830 N   0  0  0  0  0  0  0  0  0  0  0  0
  191.5460  173.9540  143.1530 O   0  0  0  0  0  0  0  0  0  0  0  0
  191.6320  174.9930  147.1760 C   0  0  1  0  0  3  0  0  0  0  0  0
  192.7050  175.4550  146.1470 C   0  0  2  0  0  3  0  0  0  0  0  0
  189.7970  175.4700  143.7640 C   0  0  1  0  0  3  0  0  0  0  0  0
  189.7220  176.2150  145.8910 N   0  0  0  0  0  0  0  0  0  0  0  0
  189.2330  174.5980  147.6690 O   0  0  0  0  0  1  0  0  0  0  0  0
  192.5480  176.7010  145.5740 C   0  0  0  0  0  2  0  0  0  0  0  0
  189.1170  175.3680  145.0040 O   0  0  0  0  0  0  0  0  0  0  0  0
  189.7180  176.8700  143.1380 C   0  0  1  0  0  3  0  0  0  0  0  0
  190.9620  177.2340  142.6130 O   0  0  0  0  0  1  0  0  0  0  0  0
  188.6320  176.9290  142.0580 C   0  0  1  0  0  3  0  0  0  0  0  0
  187.8800  175.6060  141.9100 C   0  0  0  0  0  2  0  0  0  0  0  0
  188.3750  174.6700  140.4250 S   0  0  0  0  0  0  0  0  0  0  0  0
  189.5040  172.2420  140.9050 C   0  0  0  0  0  1  0  0  0  0  0  0
  188.3270  173.0960  141.3250 C   0  0  0  0  0  2  0  0  0  0  0  0
  187.7030  178.1300  142.2020 C   0  0  0  0  0  2  0  0  0  0  0  0
  186.3210  177.6830  142.2620 N   0  0  0  0  0  2  0  0  0  0  0  0
  185.6610  179.5960  143.6360 O   0  0  0  0  0  1  0  0  0  0  0  0
  184.1440  178.0020  143.0020 O   0  0  0  0  0  0  0  0  0  0  0  0
  185.3290  178.4200  142.9740 C   0  0  0  0  0  0  0  0  0  0  0  0
  188.7660  177.2510  146.3060 C   0  0  0  0  0  2  0  0  0  0  0  0
  187.3190  176.9070  145.9630 C   0  0  0  0  0  2  0  0  0  0  0  0
  186.4810  176.9290  147.2280 C   0  0  0  0  0  2  0  0  0  0  0  0
  185.4370  178.0350  147.1800 C   0  0  2  0  0  3  0  0  0  0  0  0
  184.3850  177.6750  146.3380 O   0  0  0  0  0  1  0  0  0  0  0  0
  186.0040  179.2190  146.7440 F   0  0  0  0  0  0  0  0  0  0  0  0
  1  4  1  0  0  0  0
  3  6  1  0  0  0  0
  3 10  1  1  0  0  0
  3  2  1  0  0  0  0
  4 11  1  0  0  0  0
  4  7  1  0  0  0  0
  5  1  2  0  0  0  0
  6  2  1  1  0  0  0
  7 11  1  1  0  0  0
  7  6  1  0  0  0  0
  8 13  1  1  0  0  0
  8  1  1  0  0  0  0
  8 12  1  0  0  0  0
  9 25  1  0  0  0  0
  9  3  1  0  0  0  0
 12  9  1  0  0  0  0
 13 14  1  6  0  0  0
 15 16  1  1  0  0  0
 15 20  1  0  0  0  0
 15 13  1  0  0  0  0
 17 19  1  0  0  0  0
 17 16  1  0  0  0  0
 18 19  1  0  0  0  0
 20 21  1  0  0  0  0
 21 24  1  0  0  0  0
 24 23  2  0  0  0  0
 24 22  1  0  0  0  0
 26 25  1  0  0  0  0
 26 27  1  0  0  0  0
 28 29  1  6  0  0  0
 28 27  1  0  0  0  0
 30 28  1  0  0  0  0
M  END
>  <MODEL>
3

>  <REMARK>
 VINA RESULT:      -6.1      1.702      3.322
  Name = 
  11 active torsions:
  status: ('A' for Active; 'I' for Inactive)
    1  A    between atoms: C_1  and  C_4
    2  A    between atoms: C_1  and  C_22
    3  A    between atoms: C_4  and  C_9
    4  A    between atoms: C_4  and  C_12
    5  A    between atoms: C_7  and  N_23
    6  A    between atoms: C_7  and  C_25
    7  A    between atoms: N_8  and  C_12
    8  A    between atoms: C_9  and  S_21
    9  A    between atoms: C_10  and  C_15
   10  A    between atoms: C_15  and  C_25
   11  A    between atoms: C_17  and  S_21
                            x       y       z     vdW  Elec       q    Type
                         _______ _______ _______ _____ _____    ______ ____

>  <TORSDO>
F 11

$$$$
=
 OpenBabel11052417223D

 30 32  0  0  1  0  0  0  0  0999 V2000
  188.3970  177.6570  142.4950 C   0  0  0  0  0  0  0  0  0  0  0  0
  185.3010  177.1360  145.4980 C   0  0  0  0  0  2  0  0  0  0  0  0
  186.6890  177.7380  145.4390 C   0  0  2  0  0  0  0  0  0  0  0  0
  187.0530  177.1960  142.5240 N   0  0  0  0  0  0  0  0  0  0  0  0
  188.7570  178.5020  141.6330 O   0  0  0  0  0  0  0  0  0  0  0  0
  185.6530  178.1170  144.3720 C   0  0  1  0  0  3  0  0  0  0  0  0
  185.6500  177.4410  142.9690 C   0  0  2  0  0  3  0  0  0  0  0  0
  189.3570  177.1980  143.5500 C   0  0  1  0  0  3  0  0  0  0  0  0
  187.7800  176.8080  145.1150 N   0  0  0  0  0  0  0  0  0  0  0  0
  186.9370  178.7120  146.4100 O   0  0  0  0  0  1  0  0  0  0  0  0
  186.0730  176.1290  142.8910 C   0  0  0  0  0  2  0  0  0  0  0  0
  188.9100  177.5320  144.8530 O   0  0  0  0  0  0  0  0  0  0  0  0
  189.7530  175.7220  143.4010 C   0  0  1  0  0  3  0  0  0  0  0  0
  189.6080  175.3140  142.0710 O   0  0  0  0  0  1  0  0  0  0  0  0
  191.1870  175.4850  143.8900 C   0  0  1  0  0  3  0  0  0  0  0  0
  191.7810  174.1810  143.3560 C   0  0  0  0  0  2  0  0  0  0  0  0
  192.5420  173.1610  144.6600 S   0  0  0  0  0  0  0  0  0  0  0  0
  190.8870  172.0000  142.8390 C   0  0  0  0  0  1  0  0  0  0  0  0
  191.7850  171.6480  144.0050 C   0  0  0  0  0  2  0  0  0  0  0  0
  192.1010  176.6880  143.6810 C   0  0  0  0  0  2  0  0  0  0  0  0
  192.6800  177.0960  144.9500 N   0  0  0  0  0  2  0  0  0  0  0  0
  194.8750  176.2010  144.3480 O   0  0  0  0  0  0  0  0  0  0  0  0
  194.5140  177.2180  146.3680 O   0  0  0  0  0  1  0  0  0  0  0  0
  194.0490  176.8480  145.2600 C   0  0  0  0  0  0  0  0  0  0  0  0
  188.0310  175.9030  146.2460 C   0  0  0  0  0  2  0  0  0  0  0  0
  189.2480  176.3030  147.0760 C   0  0  0  0  0  2  0  0  0  0  0  0
  190.0970  175.0750  147.3500 C   0  0  0  0  0  2  0  0  0  0  0  0
  191.3820  175.4430  148.0790 C   0  0  2  0  0  3  0  0  0  0  0  0
  191.5040  176.8290  148.1800 O   0  0  0  0  0  1  0  0  0  0  0  0
  192.4800  174.9210  147.4200 F   0  0  0  0  0  0  0  0  0  0  0  0
  1  4  1  0  0  0  0
  1  8  1  0  0  0  0
  3  2  1  0  0  0  0
  3 10  1  1  0  0  0
  4 11  1  0  0  0  0
  4  7  1  0  0  0  0
  5  1  2  0  0  0  0
  6  3  1  0  0  0  0
  6  2  1  1  0  0  0
  7 11  1  1  0  0  0
  7  6  1  0  0  0  0
  8 13  1  1  0  0  0
  8 12  1  0  0  0  0
  9  3  1  0  0  0  0
  9 25  1  0  0  0  0
 12  9  1  0  0  0  0
 13 14  1  6  0  0  0
 13 15  1  0  0  0  0
 15 16  1  6  0  0  0
 16 17  1  0  0  0  0
 18 19  1  0  0  0  0
 19 17  1  0  0  0  0
 20 15  1  0  0  0  0
 20 21  1  0  0  0  0
 21 24  1  0  0  0  0
 22 24  2  0  0  0  0
 24 23  1  0  0  0  0
 25 26  1  0  0  0  0
 26 27  1  0  0  0  0
 27 28  1  0  0  0  0
 28 30  1  6  0  0  0
 28 29  1  0  0  0  0
M  END
>  <MODEL>
4

>  <REMARK>
 VINA RESULT:      -5.9      3.093      6.102
  Name = 
  11 active torsions:
  status: ('A' for Active; 'I' for Inactive)
    1  A    between atoms: C_1  and  C_4
    2  A    between atoms: C_1  and  C_22
    3  A    between atoms: C_4  and  C_9
    4  A    between atoms: C_4  and  C_12
    5  A    between atoms: C_7  and  N_23
    6  A    between atoms: C_7  and  C_25
    7  A    between atoms: N_8  and  C_12
    8  A    between atoms: C_9  and  S_21
    9  A    between atoms: C_10  and  C_15
   10  A    between atoms: C_15  and  C_25
   11  A    between atoms: C_17  and  S_21
                            x       y       z     vdW  Elec       q    Type
                         _______ _______ _______ _____ _____    ______ ____

>  <TORSDO>
F 11

$$$$
=
 OpenBabel11052417223D

 30 32  0  0  1  0  0  0  0  0999 V2000
  186.1170  178.7520  144.1560 C   0  0  0  0  0  0  0  0  0  0  0  0
  185.9130  177.7920  148.3890 C   0  0  0  0  0  2  0  0  0  0  0  0
  186.9920  178.1660  147.3940 C   0  0  2  0  0  0  0  0  0  0  0  0
  185.0940  178.5130  145.1130 N   0  0  0  0  0  0  0  0  0  0  0  0
  186.0560  179.7580  143.4020 O   0  0  0  0  0  0  0  0  0  0  0  0
  185.7140  179.0110  147.4770 C   0  0  1  0  0  3  0  0  0  0  0  0
  184.5450  178.8160  146.4670 C   0  0  2  0  0  3  0  0  0  0  0  0
  187.3100  177.8450  144.1110 C   0  0  1  0  0  3  0  0  0  0  0  0
  187.1890  177.2290  146.2770 N   0  0  0  0  0  0  0  0  0  0  0  0
  188.1310  178.7380  147.9660 O   0  0  0  0  0  1  0  0  0  0  0  0
  184.3390  177.5460  145.9660 C   0  0  0  0  0  2  0  0  0  0  0  0
  188.0010  177.8190  145.3490 O   0  0  0  0  0  0  0  0  0  0  0  0
  186.9840  176.4480  143.5650 C   0  0  1  0  0  3  0  0  0  0  0  0
  186.0950  176.5440  142.4900 O   0  0  0  0  0  1  0  0  0  0  0  0
  188.2610  175.7070  143.1510 C   0  0  1  0  0  3  0  0  0  0  0  0
  187.9690  174.4430  142.3420 C   0  0  0  0  0  2  0  0  0  0  0  0
  188.5710  174.5450  140.6250 S   0  0  0  0  0  0  0  0  0  0  0  0
  191.0940  173.5280  140.6590 C   0  0  0  0  0  1  0  0  0  0  0  0
  189.6530  173.1080  140.8520 C   0  0  0  0  0  2  0  0  0  0  0  0
  189.2960  176.6130  142.4910 C   0  0  0  0  0  2  0  0  0  0  0  0
  190.6110  176.3550  143.0540 N   0  0  0  0  0  2  0  0  0  0  0  0
  190.8130  178.6460  143.8840 O   0  0  0  0  0  0  0  0  0  0  0  0
  192.4770  177.1060  144.2120 O   0  0  0  0  0  1  0  0  0  0  0  0
  191.3430  177.3690  143.7370 C   0  0  0  0  0  0  0  0  0  0  0  0
  187.8170  175.9900  146.7570 C   0  0  0  0  0  2  0  0  0  0  0  0
  189.3240  175.9510  146.5260 C   0  0  0  0  0  2  0  0  0  0  0  0
  189.9490  174.9140  147.4420 C   0  0  0  0  0  2  0  0  0  0  0  0
  191.3300  175.3500  147.9090 C   0  0  2  0  0  3  0  0  0  0  0  0
  191.3570  176.7270  148.1300 O   0  0  0  0  0  1  0  0  0  0  0  0
  192.2900  175.0040  146.9760 F   0  0  0  0  0  0  0  0  0  0  0  0
  1  4  1  0  0  0  0
  3  6  1  0  0  0  0
  3 10  1  1  0  0  0
  3  2  1  0  0  0  0
  4 11  1  0  0  0  0
  4  7  1  0  0  0  0
  5  1  2  0  0  0  0
  6  2  1  1  0  0  0
  7 11  1  1  0  0  0
  7  6  1  0  0  0  0
  8 13  1  1  0  0  0
  8  1  1  0  0  0  0
  8 12  1  0  0  0  0
  9 25  1  0  0  0  0
  9  3  1  0  0  0  0
 12  9  1  0  0  0  0
 13 14  1  6  0  0  0
 15 16  1  6  0  0  0
 15 13  1  0  0  0  0
 17 19  1  0  0  0  0
 17 16  1  0  0  0  0
 18 19  1  0  0  0  0
 20 21  1  0  0  0  0
 20 15  1  0  0  0  0
 21 24  1  0  0  0  0
 24 22  2  0  0  0  0
 24 23  1  0  0  0  0
 26 25  1  0  0  0  0
 26 27  1  0  0  0  0
 27 28  1  0  0  0  0
 28 30  1  6  0  0  0
 28 29  1  0  0  0  0
M  END
>  <MODEL>
5

>  <REMARK>
 VINA RESULT:      -5.8      2.886      5.632
  Name = 
  11 active torsions:
  status: ('A' for Active; 'I' for Inactive)
    1  A    between atoms: C_1  and  C_4
    2  A    between atoms: C_1  and  C_22
    3  A    between atoms: C_4  and  C_9
    4  A    between atoms: C_4  and  C_12
    5  A    between atoms: C_7  and  N_23
    6  A    between atoms: C_7  and  C_25
    7  A    between atoms: N_8  and  C_12
    8  A    between atoms: C_9  and  S_21
    9  A    between atoms: C_10  and  C_15
   10  A    between atoms: C_15  and  C_25
   11  A    between atoms: C_17  and  S_21
                            x       y       z     vdW  Elec       q    Type
                         _______ _______ _______ _____ _____    ______ ____

>  <TORSDO>
F 11

$$$$
=
 OpenBabel11052417223D

 30 32  0  0  1  0  0  0  0  0999 V2000
  189.4500  177.3120  146.8010 C   0  0  0  0  0  0  0  0  0  0  0  0
  192.4730  175.1330  144.5660 C   0  0  0  0  0  2  0  0  0  0  0  0
  191.7440  176.4550  144.4360 C   0  0  2  0  0  0  0  0  0  0  0  0
  190.2150  176.1280  146.9810 N   0  0  0  0  0  0  0  0  0  0  0  0
  189.3770  178.1640  147.7250 O   0  0  0  0  0  0  0  0  0  0  0  0
  192.3960  176.0790  145.7730 C   0  0  1  0  0  3  0  0  0  0  0  0
  191.5600  175.4840  146.9440 C   0  0  2  0  0  3  0  0  0  0  0  0
  188.8050  177.5780  145.4750 C   0  0  1  0  0  3  0  0  0  0  0  0
  190.2850  176.3720  144.2740 N   0  0  0  0  0  0  0  0  0  0  0  0
  192.4240  177.4170  143.6840 O   0  0  0  0  0  1  0  0  0  0  0  0
  190.4700  174.7010  146.6180 C   0  0  0  0  0  2  0  0  0  0  0  0
  189.7560  177.6240  144.4240 O   0  0  0  0  0  0  0  0  0  0  0  0
  187.6200  176.6460  145.1840 C   0  0  1  0  0  3  0  0  0  0  0  0
  187.1880  176.0320  146.3640 O   0  0  0  0  0  1  0  0  0  0  0  0
  186.4710  177.4100  144.5150 C   0  0  1  0  0  3  0  0  0  0  0  0
  185.9690  176.7210  143.2470 C   0  0  0  0  0  2  0  0  0  0  0  0
  186.0850  177.7810  141.7690 S   0  0  0  0  0  0  0  0  0  0  0  0
  183.7460  178.2920  140.4760 C   0  0  0  0  0  1  0  0  0  0  0  0
  184.3300  178.2230  141.8710 C   0  0  0  0  0  2  0  0  0  0  0  0
  185.3480  177.7760  145.4810 C   0  0  0  0  0  2  0  0  0  0  0  0
  185.6550  179.0310  146.1460 N   0  0  0  0  0  2  0  0  0  0  0  0
  185.9100  177.9310  148.3150 O   0  0  0  0  0  1  0  0  0  0  0  0
  186.1950  180.1920  148.0820 O   0  0  0  0  0  0  0  0  0  0  0  0
  185.9310  179.0870  147.5430 C   0  0  0  0  0  0  0  0  0  0  0  0
  189.9490  175.8570  142.9390 C   0  0  0  0  0  2  0  0  0  0  0  0
  189.3820  174.4400  142.9670 C   0  0  0  0  0  2  0  0  0  0  0  0
  188.2800  174.3180  141.9310 C   0  0  0  0  0  2  0  0  0  0  0  0
  188.0680  172.8680  141.5180 C   0  0  2  0  0  3  0  0  0  0  0  0
  188.1230  172.7450  140.1290 O   0  0  0  0  0  1  0  0  0  0  0  0
  186.8520  172.4030  141.9840 F   0  0  0  0  0  0  0  0  0  0  0  0
  1  4  1  0  0  0  0
  1  5  2  0  0  0  0
  3 10  1  6  0  0  0
  3  2  1  0  0  0  0
  3  6  1  0  0  0  0
  6  2  1  6  0  0  0
  6  7  1  0  0  0  0
  7 11  1  6  0  0  0
  7  4  1  0  0  0  0
  8 13  1  6  0  0  0
  8  1  1  0  0  0  0
  9 12  1  0  0  0  0
  9  3  1  0  0  0  0
 11  4  1  0  0  0  0
 12  8  1  0  0  0  0
 13 14  1  1  0  0  0
 15 16  1  6  0  0  0
 15 13  1  0  0  0  0
 15 20  1  0  0  0  0
 17 19  1  0  0  0  0
 17 16  1  0  0  0  0
 18 19  1  0  0  0  0
 20 21  1  0  0  0  0
 21 24  1  0  0  0  0
 24 23  2  0  0  0  0
 24 22  1  0  0  0  0
 25 26  1  0  0  0  0
 25  9  1  0  0  0  0
 27 26  1  0  0  0  0
 28 29  1  6  0  0  0
 28 27  1  0  0  0  0
 28 30  1  0  0  0  0
M  END
>  <MODEL>
6

>  <REMARK>
 VINA RESULT:      -5.8      2.188      5.344
  Name = 
  11 active torsions:
  status: ('A' for Active; 'I' for Inactive)
    1  A    between atoms: C_1  and  C_4
    2  A    between atoms: C_1  and  C_22
    3  A    between atoms: C_4  and  C_9
    4  A    between atoms: C_4  and  C_12
    5  A    between atoms: C_7  and  N_23
    6  A    between atoms: C_7  and  C_25
    7  A    between atoms: N_8  and  C_12
    8  A    between atoms: C_9  and  S_21
    9  A    between atoms: C_10  and  C_15
   10  A    between atoms: C_15  and  C_25
   11  A    between atoms: C_17  and  S_21
                            x       y       z     vdW  Elec       q    Type
                         _______ _______ _______ _____ _____    ______ ____

>  <TORSDO>
F 11

$$$$
=
 OpenBabel11052417223D

 30 32  0  0  1  0  0  0  0  0999 V2000
  188.5240  175.5840  146.8140 C   0  0  0  0  0  0  0  0  0  0  0  0
  185.4150  178.0960  145.1110 C   0  0  0  0  0  2  0  0  0  0  0  0
  186.2240  176.8930  144.6720 C   0  0  2  0  0  0  0  0  0  0  0  0
  187.6850  176.6390  147.2650 N   0  0  0  0  0  0  0  0  0  0  0  0
  188.6320  174.5290  147.4920 O   0  0  0  0  0  0  0  0  0  0  0  0
  185.5270  176.8780  146.0390 C   0  0  1  0  0  3  0  0  0  0  0  0
  186.3040  177.1970  147.3490 C   0  0  2  0  0  3  0  0  0  0  0  0
  189.2080  175.7030  145.4860 C   0  0  1  0  0  3  0  0  0  0  0  0
  187.6780  177.0940  144.5850 N   0  0  0  0  0  0  0  0  0  0  0  0
  185.6180  176.1210  143.6780 O   0  0  0  0  0  1  0  0  0  0  0  0
  187.3500  178.0950  147.2700 C   0  0  0  0  0  2  0  0  0  0  0  0
  188.2800  175.8770  144.4270 O   0  0  0  0  0  0  0  0  0  0  0  0
  190.3390  176.7410  145.4820 C   0  0  1  0  0  3  0  0  0  0  0  0
  191.0180  176.7200  146.7040 O   0  0  0  0  0  1  0  0  0  0  0  0
  191.3060  176.4960  144.3170 C   0  0  1  0  0  3  0  0  0  0  0  0
  192.6510  177.1960  144.5150 C   0  0  0  0  0  2  0  0  0  0  0  0
  194.0730  176.1180  144.1490 S   0  0  0  0  0  0  0  0  0  0  0  0
  195.4280  174.8270  146.1240 C   0  0  0  0  0  1  0  0  0  0  0  0
  194.5390  176.0310  145.8990 C   0  0  0  0  0  2  0  0  0  0  0  0
  191.4480  175.0220  143.9520 C   0  0  0  0  0  2  0  0  0  0  0  0
  191.0660  174.8160  142.5650 N   0  0  0  0  0  2  0  0  0  0  0  0
  189.5070  173.0280  143.1580 O   0  0  0  0  0  1  0  0  0  0  0  0
  189.8010  173.6820  140.9830 O   0  0  0  0  0  0  0  0  0  0  0  0
  190.1070  173.8290  142.1940 C   0  0  0  0  0  0  0  0  0  0  0  0
  188.0060  177.9520  143.4370 C   0  0  0  0  0  2  0  0  0  0  0  0
  188.3360  177.1650  142.1730 C   0  0  0  0  0  2  0  0  0  0  0  0
  187.8190  177.9170  140.9600 C   0  0  0  0  0  2  0  0  0  0  0  0
  186.3730  177.5530  140.6580 C   0  0  2  0  0  3  0  0  0  0  0  0
  186.2300  177.1980  139.3170 O   0  0  0  0  0  1  0  0  0  0  0  0
  185.5330  178.6100  140.9580 F   0  0  0  0  0  0  0  0  0  0  0  0
  1  4  1  0  0  0  0
  1  5  2  0  0  0  0
  3 10  1  6  0  0  0
  3  2  1  0  0  0  0
  3  6  1  0  0  0  0
  4 11  1  0  0  0  0
  4  7  1  0  0  0  0
  6  2  1  6  0  0  0
  6  7  1  0  0  0  0
  7 11  1  6  0  0  0
  8 13  1  1  0  0  0
  8  1  1  0  0  0  0
  9  3  1  0  0  0  0
 12  9  1  0  0  0  0
 12  8  1  0  0  0  0
 13 14  1  1  0  0  0
 15 20  1  1  0  0  0
 15 16  1  0  0  0  0
 15 13  1  0  0  0  0
 17 16  1  0  0  0  0
 17 19  1  0  0  0  0
 19 18  1  0  0  0  0
 21 20  1  0  0  0  0
 23 24  2  0  0  0  0
 24 21  1  0  0  0  0
 24 22  1  0  0  0  0
 25  9  1  0  0  0  0
 26 25  1  0  0  0  0
 27 26  1  0  0  0  0
 28 29  1  6  0  0  0
 28 30  1  0  0  0  0
 28 27  1  0  0  0  0
M  END
>  <MODEL>
7

>  <REMARK>
 VINA RESULT:      -5.7      2.801      5.607
  Name = 
  11 active torsions:
  status: ('A' for Active; 'I' for Inactive)
    1  A    between atoms: C_1  and  C_4
    2  A    between atoms: C_1  and  C_22
    3  A    between atoms: C_4  and  C_9
    4  A    between atoms: C_4  and  C_12
    5  A    between atoms: C_7  and  N_23
    6  A    between atoms: C_7  and  C_25
    7  A    between atoms: N_8  and  C_12
    8  A    between atoms: C_9  and  S_21
    9  A    between atoms: C_10  and  C_15
   10  A    between atoms: C_15  and  C_25
   11  A    between atoms: C_17  and  S_21
                            x       y       z     vdW  Elec       q    Type
                         _______ _______ _______ _____ _____    ______ ____

>  <TORSDO>
F 11

$$$$
=
 OpenBabel11052417223D

 30 32  0  0  1  0  0  0  0  0999 V2000
  188.6390  177.8970  142.4580 C   0  0  0  0  0  0  0  0  0  0  0  0
  184.4460  178.2950  143.5240 C   0  0  0  0  0  2  0  0  0  0  0  0
  185.7810  178.6250  144.1590 C   0  0  2  0  0  0  0  0  0  0  0  0
  187.3860  177.6930  141.8190 N   0  0  0  0  0  0  0  0  0  0  0  0
  189.5430  178.5570  141.8820 O   0  0  0  0  0  0  0  0  0  0  0  0
  185.5020  179.0600  142.7130 C   0  0  1  0  0  3  0  0  0  0  0  0
  186.0340  178.2380  141.5030 C   0  0  2  0  0  3  0  0  0  0  0  0
  188.8430  177.3960  143.8560 C   0  0  1  0  0  3  0  0  0  0  0  0
  186.6640  177.4820  144.4310 N   0  0  0  0  0  0  0  0  0  0  0  0
  185.7290  179.6440  145.1140 O   0  0  0  0  0  1  0  0  0  0  0  0
  186.1490  176.8710  141.6590 C   0  0  0  0  0  2  0  0  0  0  0  0
  187.9040  177.9540  144.7600 O   0  0  0  0  0  0  0  0  0  0  0  0
  188.9340  175.8660  143.9390 C   0  0  1  0  0  3  0  0  0  0  0  0
  189.1660  175.3260  142.6700 O   0  0  0  0  0  1  0  0  0  0  0  0
  190.0270  175.4330  144.9240 C   0  0  1  0  0  3  0  0  0  0  0  0
  189.8320  174.0010  145.4220 C   0  0  0  0  0  2  0  0  0  0  0  0
  190.8770  172.7940  144.5420 S   0  0  0  0  0  0  0  0  0  0  0  0
  189.5950  171.8360  142.3420 C   0  0  0  0  0  1  0  0  0  0  0  0
  189.4290  171.9570  143.8420 C   0  0  0  0  0  2  0  0  0  0  0  0
  191.4390  175.7010  144.4130 C   0  0  0  0  0  2  0  0  0  0  0  0
  192.1390  176.5830  145.3310 N   0  0  0  0  0  2  0  0  0  0  0  0
  193.4800  174.7450  146.2270 O   0  0  0  0  0  0  0  0  0  0  0  0
  193.7270  176.8880  146.9970 O   0  0  0  0  0  1  0  0  0  0  0  0
  193.1420  176.0930  146.2180 C   0  0  0  0  0  0  0  0  0  0  0  0
  186.1340  176.6840  145.5460 C   0  0  0  0  0  2  0  0  0  0  0  0
  186.8980  176.8920  146.8500 C   0  0  0  0  0  2  0  0  0  0  0  0
  186.0420  177.6900  147.8150 C   0  0  0  0  0  2  0  0  0  0  0  0
  186.8370  178.8180  148.4580 C   0  0  2  0  0  3  0  0  0  0  0  0
  186.2730  180.0530  148.1400 O   0  0  0  0  0  1  0  0  0  0  0  0
  188.1550  178.7800  148.0420 F   0  0  0  0  0  0  0  0  0  0  0  0
  1  8  1  0  0  0  0
  2  3  1  0  0  0  0
  3  9  1  0  0  0  0
  3 10  1  1  0  0  0
  4  1  1  0  0  0  0
  5  1  2  0  0  0  0
  6  2  1  6  0  0  0
  6  3  1  0  0  0  0
  7 11  1  1  0  0  0
  7  4  1  0  0  0  0
  7  6  1  0  0  0  0
  8 13  1  6  0  0  0
  8 12  1  0  0  0  0
  9 12  1  0  0  0  0
  9 25  1  0  0  0  0
 11  4  1  0  0  0  0
 13 14  1  6  0  0  0
 13 15  1  0  0  0  0
 15 20  1  6  0  0  0
 15 16  1  0  0  0  0
 17 16  1  0  0  0  0
 18 19  1  0  0  0  0
 19 17  1  0  0  0  0
 20 21  1  0  0  0  0
 21 24  1  0  0  0  0
 24 22  2  0  0  0  0
 24 23  1  0  0  0  0
 25 26  1  0  0  0  0
 26 27  1  0  0  0  0
 27 28  1  0  0  0  0
 28 30  1  6  0  0  0
 29 28  1  0  0  0  0
M  END
>  <MODEL>
8

>  <REMARK>
 VINA RESULT:      -5.7      2.764      5.788
  Name = 
  11 active torsions:
  status: ('A' for Active; 'I' for Inactive)
    1  A    between atoms: C_1  and  C_4
    2  A    between atoms: C_1  and  C_22
    3  A    between atoms: C_4  and  C_9
    4  A    between atoms: C_4  and  C_12
    5  A    between atoms: C_7  and  N_23
    6  A    between atoms: C_7  and  C_25
    7  A    between atoms: N_8  and  C_12
    8  A    between atoms: C_9  and  S_21
    9  A    between atoms: C_10  and  C_15
   10  A    between atoms: C_15  and  C_25
   11  A    between atoms: C_17  and  S_21
                            x       y       z     vdW  Elec       q    Type
                         _______ _______ _______ _____ _____    ______ ____

>  <TORSDO>
F 11

$$$$
=
 OpenBabel11052417223D

 30 32  0  0  1  0  0  0  0  0999 V2000
  189.6840  177.5070  147.0240 C   0  0  0  0  0  0  0  0  0  0  0  0
  192.7860  174.6910  145.8720 C   0  0  0  0  0  2  0  0  0  0  0  0
  192.2930  176.0420  145.3980 C   0  0  2  0  0  0  0  0  0  0  0  0
  190.2210  176.2940  147.5350 N   0  0  0  0  0  0  0  0  0  0  0  0
  189.5320  178.5010  147.7810 O   0  0  0  0  0  0  0  0  0  0  0  0
  192.5830  175.8220  146.8890 C   0  0  1  0  0  3  0  0  0  0  0  0
  191.4400  175.5160  147.9010 C   0  0  2  0  0  3  0  0  0  0  0  0
  189.3830  177.6190  145.5600 C   0  0  1  0  0  3  0  0  0  0  0  0
  190.9060  176.0860  144.9130 N   0  0  0  0  0  0  0  0  0  0  0  0
  193.2450  176.7930  144.7040 O   0  0  0  0  0  1  0  0  0  0  0  0
  190.3490  174.8090  147.4390 C   0  0  0  0  0  2  0  0  0  0  0  0
  190.5350  177.3940  144.7640 O   0  0  0  0  0  0  0  0  0  0  0  0
  188.1710  176.7810  145.1290 C   0  0  1  0  0  3  0  0  0  0  0  0
  187.3450  176.5250  146.2280 O   0  0  0  0  0  1  0  0  0  0  0  0
  187.3880  177.4800  144.0110 C   0  0  1  0  0  3  0  0  0  0  0  0
  186.5930  176.4980  143.1500 C   0  0  0  0  0  2  0  0  0  0  0  0
  187.5090  175.9440  141.6750 S   0  0  0  0  0  0  0  0  0  0  0  0
  185.9900  177.7750  140.3540 C   0  0  0  0  0  1  0  0  0  0  0  0
  187.3870  177.5810  140.9060 C   0  0  0  0  0  2  0  0  0  0  0  0
  186.5510  178.6550  144.5050 C   0  0  0  0  0  2  0  0  0  0  0  0
  185.3600  178.7930  143.6850 N   0  0  0  0  0  2  0  0  0  0  0  0
  183.9060  178.9180  145.6470 O   0  0  0  0  0  1  0  0  0  0  0  0
  183.0570  179.0410  143.5230 O   0  0  0  0  0  0  0  0  0  0  0  0
  184.0640  178.9220  144.2660 C   0  0  0  0  0  0  0  0  0  0  0  0
  190.7970  175.3980  143.6180 C   0  0  0  0  0  2  0  0  0  0  0  0
  190.0160  174.0900  143.6970 C   0  0  0  0  0  2  0  0  0  0  0  0
  190.7760  173.0030  142.9580 C   0  0  0  0  0  2  0  0  0  0  0  0
  189.8390  171.9050  142.4740 C   0  0  2  0  0  3  0  0  0  0  0  0
  189.6640  171.9900  141.0930 O   0  0  0  0  0  1  0  0  0  0  0  0
  188.6150  171.9960  143.1110 F   0  0  0  0  0  0  0  0  0  0  0  0
  1  4  1  0  0  0  0
  1  5  2  0  0  0  0
  3 10  1  6  0  0  0
  3  2  1  0  0  0  0
  3  6  1  0  0  0  0
  4  7  1  0  0  0  0
  6  2  1  6  0  0  0
  6  7  1  0  0  0  0
  7 11  1  6  0  0  0
  8 13  1  6  0  0  0
  8  1  1  0  0  0  0
  9  3  1  0  0  0  0
 11  4  1  0  0  0  0
 12  9  1  0  0  0  0
 12  8  1  0  0  0  0
 13 14  1  1  0  0  0
 15 16  1  1  0  0  0
 15 20  1  0  0  0  0
 15 13  1  0  0  0  0
 17 16  1  0  0  0  0
 18 19  1  0  0  0  0
 19 17  1  0  0  0  0
 21 24  1  0  0  0  0
 21 20  1  0  0  0  0
 23 24  2  0  0  0  0
 24 22  1  0  0  0  0
 25 26  1  0  0  0  0
 25  9  1  0  0  0  0
 27 26  1  0  0  0  0
 28 29  1  6  0  0  0
 28 27  1  0  0  0  0
 28 30  1  0  0  0  0
M  END
>  <MODEL>
9

>  <REMARK>
 VINA RESULT:      -5.7      2.508      5.223
  Name = 
  11 active torsions:
  status: ('A' for Active; 'I' for Inactive)
    1  A    between atoms: C_1  and  C_4
    2  A    between atoms: C_1  and  C_22
    3  A    between atoms: C_4  and  C_9
    4  A    between atoms: C_4  and  C_12
    5  A    between atoms: C_7  and  N_23
    6  A    between atoms: C_7  and  C_25
    7  A    between atoms: N_8  and  C_12
    8  A    between atoms: C_9  and  S_21
    9  A    between atoms: C_10  and  C_15
   10  A    between atoms: C_15  and  C_25
   11  A    between atoms: C_17  and  S_21
                            x       y       z     vdW  Elec       q    Type
                         _______ _______ _______ _____ _____    ______ ____

>  <TORSDO>
F 11

$$$$
