=
 OpenBabel11052420053D

 37 36  0  0  1  0  0  0  0  0999 V2000
  188.9340  175.3530  143.2720 C   0  0  2  0  0  3  0  0  0  0  0  0
  189.2550  173.8550  143.1340 C   0  0  1  0  0  3  0  0  0  0  0  0
  187.8270  172.6710  142.0440 O   0  0  0  0  0  1  0  0  0  0  0  0
  188.9440  173.3460  141.8660 O   0  0  0  0  0  0  0  0  0  0  0  0
  190.7210  173.5720  143.4730 C   0  0  0  0  0  2  0  0  0  0  0  0
  191.1830  172.2020  142.9880 C   0  0  2  0  0  3  0  0  0  0  0  0
  191.5720  171.4230  144.0780 O   0  0  0  0  0  1  0  0  0  0  0  0
  192.3670  172.3590  142.0450 C   0  0  0  0  0  2  0  0  0  0  0  0
  192.6640  173.8170  141.6880 C   0  0  2  0  0  3  0  0  0  0  0  0
  192.3260  174.1100  140.3640 O   0  0  0  0  0  0  0  0  0  0  0  0
  192.3800  172.9510  139.7400 O   0  0  0  0  0  1  0  0  0  0  0  0
  194.0980  174.2370  142.0140 C   0  0  0  0  0  2  0  0  0  0  0  0
  194.2870  174.5810  143.4840 C   0  0  0  0  0  2  0  0  0  0  0  0
  195.7590  174.5100  143.8280 C   0  0  0  0  0  2  0  0  0  0  0  0
  196.7080  173.8130  146.0030 C   0  0  0  0  0  1  0  0  0  0  0  0
  196.0070  173.3340  144.7490 C   0  0  0  0  0  2  0  0  0  0  0  0
  188.7760  175.9810  141.8910 C   0  0  0  0  0  2  0  0  0  0  0  0
  187.7250  178.2080  142.3660 C   0  0  0  0  0  1  0  0  0  0  0  0
  187.5060  176.8200  141.7850 C   0  0  1  0  0  3  0  0  0  0  0  0
  185.8640  177.8160  140.3240 C   0  0  0  0  0  1  0  0  0  0  0  0
  186.9890  176.8890  140.4140 N   0  0  0  0  0  2  0  0  0  0  0  0
  190.0180  176.1130  144.0290 C   0  0  0  0  0  2  0  0  0  0  0  0
  189.4490  176.7610  145.2060 N   0  0  0  0  0  0  0  0  0  0  0  0
  188.4130  175.8940  145.7850 C   0  0  0  0  0  2  0  0  0  0  0  0
  187.1490  177.6360  146.9720 C   0  0  0  0  0  3  0  0  0  0  0  0
  187.1360  176.6200  146.1100 C   0  0  0  0  0  3  0  0  0  0  0  0
  185.8910  178.3720  147.3240 C   0  0  0  0  0  2  0  0  0  0  0  0
  184.6820  177.7490  146.6450 C   0  0  0  0  0  2  0  0  0  0  0  0
  183.9570  178.7820  145.7940 C   0  0  0  0  0  2  0  0  0  0  0  0
  184.5390  178.8190  144.3920 C   0  0  0  0  0  2  0  0  0  0  0  0
  185.3440  180.0890  144.1840 C   0  0  0  0  0  1  0  0  0  0  0  0
  190.5170  176.9930  146.1750 C   0  0  0  0  0  2  0  0  0  0  0  0
  191.8720  176.6530  145.5680 C   0  0  0  0  0  2  0  0  0  0  0  0
  192.2670  175.0550  147.2870 O   0  0  0  0  0  0  0  0  0  0  0  0
  192.7490  175.9660  146.5610 C   0  0  0  0  0  0  0  0  0  0  0  0
  194.0860  176.3490  146.6890 O   0  0  0  0  0  0  0  0  0  0  0  0
  194.6500  177.3840  145.8970 C   0  0  0  0  0  1  0  0  0  0  0  0
  1 17  1  6  0  0  0
  1 22  1  0  0  0  0
  2  1  1  0  0  0  0
  2  5  1  6  0  0  0
  4  3  1  0  0  0  0
  4  2  1  0  0  0  0
  6  5  1  0  0  0  0
  6  7  1  1  0  0  0
  8  6  1  0  0  0  0
  9 12  1  6  0  0  0
  9  8  1  0  0  0  0
 10  9  1  0  0  0  0
 11 10  1  0  0  0  0
 12 13  1  0  0  0  0
 13 14  1  0  0  0  0
 14 16  1  0  0  0  0
 16 15  1  0  0  0  0
 19 17  1  0  0  0  0
 19 18  1  6  0  0  0
 20 21  1  0  0  0  0
 21 19  1  0  0  0  0
 22 23  1  0  0  0  0
 23 24  1  0  0  0  0
 23 32  1  0  0  0  0
 24 26  1  0  0  0  0
 25 27  1  0  0  0  0
 26 25  2  0  0  0  0
 28 27  1  0  0  0  0
 29 28  1  0  0  0  0
 30 29  1  0  0  0  0
 31 30  1  0  0  0  0
 33 32  1  0  0  0  0
 33 35  1  0  0  0  0
 35 36  1  0  0  0  0
 35 34  2  0  0  0  0
 37 36  1  0  0  0  0
M  END
>  <MODEL>
1

>  <REMARK>
 VINA RESULT:      -4.8      0.000      0.000
  Name = 
  26 active torsions:
  status: ('A' for Active; 'I' for Inactive)
    1  A    between atoms: O_1  and  C_23
    2  A    between atoms: O_2  and  C_8
    3  A    between atoms: C_3  and  C_15
    4  A    between atoms: C_3  and  C_30
    5  A    between atoms: C_4  and  C_10
    6  A    between atoms: C_4  and  C_24
    7  A    between atoms: C_6  and  C_8
    8  A    between atoms: C_6  and  C_31
    9  A    between atoms: C_7  and  C_33
   10  A    between atoms: C_8  and  C_19
   11  A    between atoms: C_10  and  C_13
   12  A    between atoms: C_10  and  C_30
   13  A    between atoms: C_11  and  C_26
   14  A    between atoms: C_13  and  N_20
   15  A    between atoms: C_14  and  C_31
   16  A    between atoms: C_14  and  C_37
   17  A    between atoms: C_15  and  C_19
   18  A    between atoms: C_17  and  C_26
   19  A    between atoms: C_17  and  C_33
   20  A    between atoms: N_20  and  C_21
   21  A    between atoms: N_20  and  C_29
   22  A    between atoms: C_21  and  C_25
   23  A    between atoms: C_23  and  C_25
   24  A    between atoms: C_24  and  N_28
   25  A    between atoms: C_29  and  C_36
   26  A    between atoms: C_30  and  O_32
                            x       y       z     vdW  Elec       q    Type
                         _______ _______ _______ _____ _____    ______ ____

>  <TORSDO>
F 26

$$$$
=
 OpenBabel11052420053D

 37 36  0  0  1  0  0  0  0  0999 V2000
  191.6450  173.4550  142.6520 C   0  0  2  0  0  3  0  0  0  0  0  0
  191.1970  173.4650  144.1240 C   0  0  1  0  0  3  0  0  0  0  0  0
  189.6580  172.1110  144.7780 O   0  0  0  0  0  1  0  0  0  0  0  0
  190.9650  172.1790  144.6300 O   0  0  0  0  0  0  0  0  0  0  0  0
  192.2070  174.2060  145.0030 C   0  0  0  0  0  2  0  0  0  0  0  0
  191.5800  175.3690  145.7650 C   0  0  2  0  0  3  0  0  0  0  0  0
  191.6610  175.1310  147.1370 O   0  0  0  0  0  1  0  0  0  0  0  0
  190.1170  175.5160  145.3750 C   0  0  0  0  0  2  0  0  0  0  0  0
  189.8170  176.8270  144.6440 C   0  0  2  0  0  3  0  0  0  0  0  0
  190.9400  177.6570  144.5770 O   0  0  0  0  0  0  0  0  0  0  0  0
  190.7650  178.3690  143.4830 O   0  0  0  0  0  1  0  0  0  0  0  0
  188.5990  177.5640  145.2020 C   0  0  0  0  0  2  0  0  0  0  0  0
  187.3590  176.6850  145.2580 C   0  0  0  0  0  2  0  0  0  0  0  0
  186.8140  176.6800  146.6710 C   0  0  0  0  0  2  0  0  0  0  0  0
  185.2050  178.3760  147.4780 C   0  0  0  0  0  1  0  0  0  0  0  0
  186.6600  178.1050  147.1590 C   0  0  0  0  0  2  0  0  0  0  0  0
  192.9250  174.2680  142.4920 C   0  0  0  0  0  2  0  0  0  0  0  0
  194.6400  172.4600  142.7790 C   0  0  0  0  0  1  0  0  0  0  0  0
  194.0320  173.4650  141.8140 C   0  0  1  0  0  3  0  0  0  0  0  0
  194.6470  172.7900  139.5800 C   0  0  0  0  0  1  0  0  0  0  0  0
  193.5810  172.8160  140.5780 N   0  0  0  0  0  2  0  0  0  0  0  0
  190.5850  174.0320  141.7190 C   0  0  0  0  0  2  0  0  0  0  0  0
  189.4290  173.1440  141.6610 N   0  0  0  0  0  0  0  0  0  0  0  0
  188.2130  173.9090  141.9770 C   0  0  0  0  0  2  0  0  0  0  0  0
  187.2740  176.1330  141.5130 C   0  0  0  0  0  3  0  0  0  0  0  0
  188.3560  175.3880  141.7400 C   0  0  0  0  0  3  0  0  0  0  0  0
  187.3850  177.6060  141.2640 C   0  0  0  0  0  2  0  0  0  0  0  0
  186.0660  178.3120  141.5350 C   0  0  0  0  0  2  0  0  0  0  0  0
  185.2900  177.5900  142.6270 C   0  0  0  0  0  2  0  0  0  0  0  0
  184.4220  178.5690  143.3990 C   0  0  0  0  0  2  0  0  0  0  0  0
  185.2810  179.6340  144.0560 C   0  0  0  0  0  1  0  0  0  0  0  0
  189.3380  172.5790  140.3180 C   0  0  0  0  0  2  0  0  0  0  0  0
  190.1180  173.4320  139.3260 C   0  0  0  0  0  2  0  0  0  0  0  0
  188.0130  174.0830  138.4260 O   0  0  0  0  0  0  0  0  0  0  0  0
  189.2410  173.8990  138.2120 C   0  0  0  0  0  0  0  0  0  0  0  0
  189.7830  174.1090  136.9420 O   0  0  0  0  0  0  0  0  0  0  0  0
  189.0500  174.7520  135.9100 C   0  0  0  0  0  1  0  0  0  0  0  0
  1 22  1  6  0  0  0
  1  2  1  0  0  0  0
  2  4  1  0  0  0  0
  2  5  1  1  0  0  0
  4  3  1  0  0  0  0
  5  6  1  0  0  0  0
  6  7  1  1  0  0  0
  8  6  1  0  0  0  0
  9 12  1  1  0  0  0
  9  8  1  0  0  0  0
 10  9  1  0  0  0  0
 11 10  1  0  0  0  0
 12 13  1  0  0  0  0
 13 14  1  0  0  0  0
 14 16  1  0  0  0  0
 16 15  1  0  0  0  0
 17  1  1  0  0  0  0
 19 17  1  0  0  0  0
 19 18  1  1  0  0  0
 20 21  1  0  0  0  0
 21 19  1  0  0  0  0
 23 22  1  0  0  0  0
 23 24  1  0  0  0  0
 25 26  2  0  0  0  0
 26 24  1  0  0  0  0
 27 25  1  0  0  0  0
 27 28  1  0  0  0  0
 28 29  1  0  0  0  0
 29 30  1  0  0  0  0
 30 31  1  0  0  0  0
 32 23  1  0  0  0  0
 33 32  1  0  0  0  0
 35 34  2  0  0  0  0
 35 33  1  0  0  0  0
 36 35  1  0  0  0  0
 37 36  1  0  0  0  0
M  END
>  <MODEL>
2

>  <REMARK>
 VINA RESULT:      -4.8      2.735      6.867
  Name = 
  26 active torsions:
  status: ('A' for Active; 'I' for Inactive)
    1  A    between atoms: O_1  and  C_23
    2  A    between atoms: O_2  and  C_8
    3  A    between atoms: C_3  and  C_15
    4  A    between atoms: C_3  and  C_30
    5  A    between atoms: C_4  and  C_10
    6  A    between atoms: C_4  and  C_24
    7  A    between atoms: C_6  and  C_8
    8  A    between atoms: C_6  and  C_31
    9  A    between atoms: C_7  and  C_33
   10  A    between atoms: C_8  and  C_19
   11  A    between atoms: C_10  and  C_13
   12  A    between atoms: C_10  and  C_30
   13  A    between atoms: C_11  and  C_26
   14  A    between atoms: C_13  and  N_20
   15  A    between atoms: C_14  and  C_31
   16  A    between atoms: C_14  and  C_37
   17  A    between atoms: C_15  and  C_19
   18  A    between atoms: C_17  and  C_26
   19  A    between atoms: C_17  and  C_33
   20  A    between atoms: N_20  and  C_21
   21  A    between atoms: N_20  and  C_29
   22  A    between atoms: C_21  and  C_25
   23  A    between atoms: C_23  and  C_25
   24  A    between atoms: C_24  and  N_28
   25  A    between atoms: C_29  and  C_36
   26  A    between atoms: C_30  and  O_32
                            x       y       z     vdW  Elec       q    Type
                         _______ _______ _______ _____ _____    ______ ____

>  <TORSDO>
F 26

$$$$
=
 OpenBabel11052420053D

 37 36  0  0  1  0  0  0  0  0999 V2000
  189.4090  177.3300  144.4030 C   0  0  2  0  0  3  0  0  0  0  0  0
  190.8770  176.9140  144.2120 C   0  0  1  0  0  3  0  0  0  0  0  0
  191.2950  178.9680  143.7290 O   0  0  0  0  0  1  0  0  0  0  0  0
  191.5670  177.7460  143.3210 O   0  0  0  0  0  0  0  0  0  0  0  0
  191.6110  176.8500  145.5540 C   0  0  0  0  0  2  0  0  0  0  0  0
  192.3030  175.5110  145.7830 C   0  0  2  0  0  3  0  0  0  0  0  0
  192.4460  175.2810  147.1510 O   0  0  0  0  0  1  0  0  0  0  0  0
  193.6820  175.5240  145.1370 C   0  0  0  0  0  2  0  0  0  0  0  0
  193.9960  174.2420  144.3620 C   0  0  2  0  0  3  0  0  0  0  0  0
  194.7660  174.4960  143.2230 O   0  0  0  0  0  0  0  0  0  0  0  0
  193.8860  174.6600  142.2550 O   0  0  0  0  0  1  0  0  0  0  0  0
  192.7530  173.4150  144.0340 C   0  0  0  0  0  2  0  0  0  0  0  0
  192.8150  172.0110  144.6170 C   0  0  0  0  0  2  0  0  0  0  0  0
  194.0710  171.8700  145.4500 C   0  0  0  0  0  2  0  0  0  0  0  0
  195.6510  170.9030  143.8110 C   0  0  0  0  0  1  0  0  0  0  0  0
  194.8120  170.6150  145.0390 C   0  0  0  0  0  2  0  0  0  0  0  0
  189.0490  177.3050  145.8850 C   0  0  0  0  0  2  0  0  0  0  0  0
  188.7680  175.0770  147.0020 C   0  0  0  0  0  1  0  0  0  0  0  0
  188.0730  176.1800  146.2190 C   0  0  1  0  0  3  0  0  0  0  0  0
  185.7450  176.7760  146.0000 C   0  0  0  0  0  1  0  0  0  0  0  0
  186.8760  176.6610  146.9170 N   0  0  0  0  0  2  0  0  0  0  0  0
  188.4430  176.4170  143.6540 C   0  0  0  0  0  2  0  0  0  0  0  0
  188.7160  176.4630  142.2220 N   0  0  0  0  0  0  0  0  0  0  0  0
  188.1040  175.2950  141.5730 C   0  0  0  0  0  2  0  0  0  0  0  0
  189.3120  173.2130  142.0690 C   0  0  0  0  0  3  0  0  0  0  0  0
  188.2850  174.0160  142.3440 C   0  0  0  0  0  3  0  0  0  0  0  0
  189.5130  171.9280  142.8130 C   0  0  0  0  0  2  0  0  0  0  0  0
  190.3700  170.9570  142.0150 C   0  0  0  0  0  2  0  0  0  0  0  0
  191.1990  171.7050  140.9800 C   0  0  0  0  0  2  0  0  0  0  0  0
  192.6310  171.2000  140.9800 C   0  0  0  0  0  2  0  0  0  0  0  0
  192.7130  169.8390  141.6470 C   0  0  0  0  0  1  0  0  0  0  0  0
  188.1560  177.6980  141.6780 C   0  0  0  0  0  2  0  0  0  0  0  0
  186.7340  177.4650  141.1820 C   0  0  0  0  0  2  0  0  0  0  0  0
  186.1710  179.0830  142.8340 O   0  0  0  0  0  0  0  0  0  0  0  0
  185.7530  178.2710  141.9660 C   0  0  0  0  0  0  0  0  0  0  0  0
  184.3840  178.1050  141.7440 O   0  0  0  0  0  0  0  0  0  0  0  0
  183.8000  178.3130  140.4670 C   0  0  0  0  0  1  0  0  0  0  0  0
  1 22  1  6  0  0  0
  1 17  1  0  0  0  0
  2  1  1  0  0  0  0
  2  5  1  1  0  0  0
  4  3  1  0  0  0  0
  4  2  1  0  0  0  0
  5  6  1  0  0  0  0
  6  7  1  1  0  0  0
  8  6  1  0  0  0  0
  9 12  1  6  0  0  0
  9  8  1  0  0  0  0
 10  9  1  0  0  0  0
 11 10  1  0  0  0  0
 12 13  1  0  0  0  0
 13 14  1  0  0  0  0
 15 16  1  0  0  0  0
 16 14  1  0  0  0  0
 17 19  1  0  0  0  0
 19 21  1  0  0  0  0
 19 18  1  1  0  0  0
 20 21  1  0  0  0  0
 23 22  1  0  0  0  0
 24 23  1  0  0  0  0
 24 26  1  0  0  0  0
 25 26  2  0  0  0  0
 25 27  1  0  0  0  0
 28 27  1  0  0  0  0
 29 30  1  0  0  0  0
 29 28  1  0  0  0  0
 30 31  1  0  0  0  0
 32 23  1  0  0  0  0
 33 32  1  0  0  0  0
 33 35  1  0  0  0  0
 35 34  2  0  0  0  0
 36 35  1  0  0  0  0
 37 36  1  0  0  0  0
M  END
>  <MODEL>
3

>  <REMARK>
 VINA RESULT:      -4.8      2.565      6.598
  Name = 
  26 active torsions:
  status: ('A' for Active; 'I' for Inactive)
    1  A    between atoms: O_1  and  C_23
    2  A    between atoms: O_2  and  C_8
    3  A    between atoms: C_3  and  C_15
    4  A    between atoms: C_3  and  C_30
    5  A    between atoms: C_4  and  C_10
    6  A    between atoms: C_4  and  C_24
    7  A    between atoms: C_6  and  C_8
    8  A    between atoms: C_6  and  C_31
    9  A    between atoms: C_7  and  C_33
   10  A    between atoms: C_8  and  C_19
   11  A    between atoms: C_10  and  C_13
   12  A    between atoms: C_10  and  C_30
   13  A    between atoms: C_11  and  C_26
   14  A    between atoms: C_13  and  N_20
   15  A    between atoms: C_14  and  C_31
   16  A    between atoms: C_14  and  C_37
   17  A    between atoms: C_15  and  C_19
   18  A    between atoms: C_17  and  C_26
   19  A    between atoms: C_17  and  C_33
   20  A    between atoms: N_20  and  C_21
   21  A    between atoms: N_20  and  C_29
   22  A    between atoms: C_21  and  C_25
   23  A    between atoms: C_23  and  C_25
   24  A    between atoms: C_24  and  N_28
   25  A    between atoms: C_29  and  C_36
   26  A    between atoms: C_30  and  O_32
                            x       y       z     vdW  Elec       q    Type
                         _______ _______ _______ _____ _____    ______ ____

>  <TORSDO>
F 26

$$$$
=
 OpenBabel11052420053D

 37 36  0  0  1  0  0  0  0  0999 V2000
  187.8190  176.9960  145.5810 C   0  0  2  0  0  3  0  0  0  0  0  0
  188.7850  176.3910  146.6150 C   0  0  1  0  0  3  0  0  0  0  0  0
  188.7650  174.5240  147.6830 O   0  0  0  0  0  1  0  0  0  0  0  0
  188.9390  175.0060  146.4700 O   0  0  0  0  0  0  0  0  0  0  0  0
  190.1490  177.0830  146.5660 C   0  0  0  0  0  2  0  0  0  0  0  0
  191.2900  176.1140  146.2740 C   0  0  2  0  0  3  0  0  0  0  0  0
  192.0360  175.9010  147.4330 O   0  0  0  0  0  1  0  0  0  0  0  0
  192.2000  176.6930  145.2000 C   0  0  0  0  0  2  0  0  0  0  0  0
  193.6010  176.0770  145.2000 C   0  0  2  0  0  3  0  0  0  0  0  0
  194.5980  177.0460  145.0540 O   0  0  0  0  0  0  0  0  0  0  0  0
  194.7100  177.5920  146.2480 O   0  0  0  0  0  1  0  0  0  0  0  0
  193.7610  174.9410  144.1900 C   0  0  0  0  0  2  0  0  0  0  0  0
  193.6430  175.4180  142.7500 C   0  0  0  0  0  2  0  0  0  0  0  0
  194.8420  174.9340  141.9630 C   0  0  0  0  0  2  0  0  0  0  0  0
  193.2360  174.4260  140.1530 C   0  0  0  0  0  1  0  0  0  0  0  0
  194.5640  175.0740  140.4810 C   0  0  0  0  0  2  0  0  0  0  0  0
  186.3770  176.7620  146.0170 C   0  0  0  0  0  2  0  0  0  0  0  0
  184.2220  177.9910  146.3890 C   0  0  0  0  0  1  0  0  0  0  0  0
  185.7320  178.0320  146.5670 C   0  0  1  0  0  3  0  0  0  0  0  0
  186.4280  179.7000  148.1650 C   0  0  0  0  0  1  0  0  0  0  0  0
  186.0990  178.2910  147.9630 N   0  0  0  0  0  2  0  0  0  0  0  0
  188.0080  176.4000  144.1900 C   0  0  0  0  0  2  0  0  0  0  0  0
  188.6400  177.3730  143.3070 N   0  0  0  0  0  0  0  0  0  0  0  0
  189.6550  176.6970  142.4850 C   0  0  0  0  0  2  0  0  0  0  0  0
  190.1940  174.3470  142.0090 C   0  0  0  0  0  3  0  0  0  0  0  0
  189.9370  175.2850  142.9200 C   0  0  0  0  0  3  0  0  0  0  0  0
  190.4690  172.9300  142.4120 C   0  0  0  0  0  2  0  0  0  0  0  0
  189.7210  171.9500  141.5230 C   0  0  0  0  0  2  0  0  0  0  0  0
  190.5700  171.5710  140.3160 C   0  0  0  0  0  2  0  0  0  0  0  0
  190.0560  172.2650  139.0670 C   0  0  0  0  0  2  0  0  0  0  0  0
  188.5580  172.4880  139.1620 C   0  0  0  0  0  1  0  0  0  0  0  0
  187.6130  177.9690  142.4560 C   0  0  0  0  0  2  0  0  0  0  0  0
  187.3480  177.0890  141.2420 C   0  0  0  0  0  2  0  0  0  0  0  0
  186.1900  177.4830  139.2000 O   0  0  0  0  0  0  0  0  0  0  0  0
  186.1840  177.5930  140.4560 C   0  0  0  0  0  0  0  0  0  0  0  0
  185.1100  178.1960  141.1140 O   0  0  0  0  0  0  0  0  0  0  0  0
  183.8420  178.3540  140.4950 C   0  0  0  0  0  1  0  0  0  0  0  0
  1 22  1  6  0  0  0
  1 17  1  0  0  0  0
  1  2  1  0  0  0  0
  2  5  1  6  0  0  0
  4  2  1  0  0  0  0
  4  3  1  0  0  0  0
  6  5  1  0  0  0  0
  6  7  1  1  0  0  0
  8  9  1  0  0  0  0
  8  6  1  0  0  0  0
  9 12  1  6  0  0  0
 10  9  1  0  0  0  0
 10 11  1  0  0  0  0
 13 12  1  0  0  0  0
 14 13  1  0  0  0  0
 15 16  1  0  0  0  0
 16 14  1  0  0  0  0
 17 19  1  0  0  0  0
 19 18  1  1  0  0  0
 19 21  1  0  0  0  0
 21 20  1  0  0  0  0
 23 22  1  0  0  0  0
 24 26  1  0  0  0  0
 24 23  1  0  0  0  0
 25 27  1  0  0  0  0
 25 26  2  0  0  0  0
 28 27  1  0  0  0  0
 29 28  1  0  0  0  0
 30 31  1  0  0  0  0
 30 29  1  0  0  0  0
 32 23  1  0  0  0  0
 33 32  1  0  0  0  0
 34 35  2  0  0  0  0
 35 36  1  0  0  0  0
 35 33  1  0  0  0  0
 37 36  1  0  0  0  0
M  END
>  <MODEL>
4

>  <REMARK>
 VINA RESULT:      -4.7      2.612      6.757
  Name = 
  26 active torsions:
  status: ('A' for Active; 'I' for Inactive)
    1  A    between atoms: O_1  and  C_23
    2  A    between atoms: O_2  and  C_8
    3  A    between atoms: C_3  and  C_15
    4  A    between atoms: C_3  and  C_30
    5  A    between atoms: C_4  and  C_10
    6  A    between atoms: C_4  and  C_24
    7  A    between atoms: C_6  and  C_8
    8  A    between atoms: C_6  and  C_31
    9  A    between atoms: C_7  and  C_33
   10  A    between atoms: C_8  and  C_19
   11  A    between atoms: C_10  and  C_13
   12  A    between atoms: C_10  and  C_30
   13  A    between atoms: C_11  and  C_26
   14  A    between atoms: C_13  and  N_20
   15  A    between atoms: C_14  and  C_31
   16  A    between atoms: C_14  and  C_37
   17  A    between atoms: C_15  and  C_19
   18  A    between atoms: C_17  and  C_26
   19  A    between atoms: C_17  and  C_33
   20  A    between atoms: N_20  and  C_21
   21  A    between atoms: N_20  and  C_29
   22  A    between atoms: C_21  and  C_25
   23  A    between atoms: C_23  and  C_25
   24  A    between atoms: C_24  and  N_28
   25  A    between atoms: C_29  and  C_36
   26  A    between atoms: C_30  and  O_32
                            x       y       z     vdW  Elec       q    Type
                         _______ _______ _______ _____ _____    ______ ____

>  <TORSDO>
F 26

$$$$
=
 OpenBabel11052420053D

 37 36  0  0  1  0  0  0  0  0999 V2000
  189.1080  176.3260  143.8160 C   0  0  2  0  0  3  0  0  0  0  0  0
  190.4630  175.9220  143.2090 C   0  0  1  0  0  3  0  0  0  0  0  0
  192.0950  177.2440  142.7420 O   0  0  0  0  0  1  0  0  0  0  0  0
  191.5400  176.6260  143.7650 O   0  0  0  0  0  0  0  0  0  0  0  0
  190.6950  174.4150  143.3350 C   0  0  0  0  0  2  0  0  0  0  0  0
  190.7900  173.7200  141.9810 C   0  0  2  0  0  3  0  0  0  0  0  0
  191.7140  174.3830  141.1740 O   0  0  0  0  0  1  0  0  0  0  0  0
  189.4310  173.7370  141.2940 C   0  0  0  0  0  2  0  0  0  0  0  0
  189.3980  172.9150  140.0030 C   0  0  2  0  0  3  0  0  0  0  0  0
  188.1030  172.8060  139.4870 O   0  0  0  0  0  0  0  0  0  0  0  0
  188.0550  173.6920  138.5140 O   0  0  0  0  0  1  0  0  0  0  0  0
  190.0730  171.5500  140.1390 C   0  0  0  0  0  2  0  0  0  0  0  0
  190.7200  171.0860  138.8430 C   0  0  0  0  0  2  0  0  0  0  0  0
  189.7830  170.1350  138.1290 C   0  0  0  0  0  2  0  0  0  0  0  0
  191.0640  168.1850  137.3110 C   0  0  0  0  0  1  0  0  0  0  0  0
  190.4890  169.5340  136.9320 C   0  0  0  0  0  2  0  0  0  0  0  0
  188.5320  177.5170  143.0570 C   0  0  0  0  0  2  0  0  0  0  0  0
  186.4590  176.1110  142.9230 C   0  0  0  0  0  1  0  0  0  0  0  0
  187.3330  177.1230  142.1980 C   0  0  1  0  0  3  0  0  0  0  0  0
  185.8270  177.9840  140.5210 C   0  0  0  0  0  1  0  0  0  0  0  0
  186.5540  178.2820  141.7520 N   0  0  0  0  0  2  0  0  0  0  0  0
  189.2210  176.7010  145.2910 C   0  0  0  0  0  2  0  0  0  0  0  0
  188.7100  175.6180  146.1250 N   0  0  0  0  0  0  0  0  0  0  0  0
  189.8250  175.0040  146.8610 C   0  0  0  0  0  2  0  0  0  0  0  0
  192.2440  175.4400  146.8620 C   0  0  0  0  0  3  0  0  0  0  0  0
  191.0090  175.9160  147.0270 C   0  0  0  0  0  3  0  0  0  0  0  0
  193.4430  176.3220  147.0320 C   0  0  0  0  0  2  0  0  0  0  0  0
  194.4320  176.1320  145.8930 C   0  0  0  0  0  2  0  0  0  0  0  0
  194.8490  174.6710  145.7870 C   0  0  0  0  0  2  0  0  0  0  0  0
  196.2640  174.5600  145.2480 C   0  0  0  0  0  2  0  0  0  0  0  0
  196.4280  175.4170  144.0070 C   0  0  0  0  0  1  0  0  0  0  0  0
  187.7290  176.1680  147.0570 C   0  0  0  0  0  2  0  0  0  0  0  0
  187.3520  177.5890  146.6570 C   0  0  0  0  0  2  0  0  0  0  0  0
  185.1240  176.7640  146.5120 O   0  0  0  0  0  0  0  0  0  0  0  0
  185.9460  177.6530  146.1600 C   0  0  0  0  0  0  0  0  0  0  0  0
  185.5600  178.6810  145.2970 O   0  0  0  0  0  0  0  0  0  0  0  0
  184.2400  178.7730  144.7820 C   0  0  0  0  0  1  0  0  0  0  0  0
  1 17  1  6  0  0  0
  1 22  1  0  0  0  0
  2  5  1  1  0  0  0
  2  4  1  0  0  0  0
  2  1  1  0  0  0  0
  3  4  1  0  0  0  0
  6  7  1  6  0  0  0
  6  5  1  0  0  0  0
  8  6  1  0  0  0  0
  9 12  1  1  0  0  0
  9  8  1  0  0  0  0
 10  9  1  0  0  0  0
 11 10  1  0  0  0  0
 13 12  1  0  0  0  0
 14 13  1  0  0  0  0
 16 15  1  0  0  0  0
 16 14  1  0  0  0  0
 19 18  1  1  0  0  0
 19 17  1  0  0  0  0
 20 21  1  0  0  0  0
 21 19  1  0  0  0  0
 22 23  1  0  0  0  0
 23 24  1  0  0  0  0
 23 32  1  0  0  0  0
 24 26  1  0  0  0  0
 25 26  2  0  0  0  0
 25 27  1  0  0  0  0
 28 27  1  0  0  0  0
 29 28  1  0  0  0  0
 30 29  1  0  0  0  0
 31 30  1  0  0  0  0
 33 32  1  0  0  0  0
 35 34  2  0  0  0  0
 35 33  1  0  0  0  0
 36 35  1  0  0  0  0
 37 36  1  0  0  0  0
M  END
>  <MODEL>
5

>  <REMARK>
 VINA RESULT:      -4.6      2.978      6.484
  Name = 
  26 active torsions:
  status: ('A' for Active; 'I' for Inactive)
    1  A    between atoms: O_1  and  C_23
    2  A    between atoms: O_2  and  C_8
    3  A    between atoms: C_3  and  C_15
    4  A    between atoms: C_3  and  C_30
    5  A    between atoms: C_4  and  C_10
    6  A    between atoms: C_4  and  C_24
    7  A    between atoms: C_6  and  C_8
    8  A    between atoms: C_6  and  C_31
    9  A    between atoms: C_7  and  C_33
   10  A    between atoms: C_8  and  C_19
   11  A    between atoms: C_10  and  C_13
   12  A    between atoms: C_10  and  C_30
   13  A    between atoms: C_11  and  C_26
   14  A    between atoms: C_13  and  N_20
   15  A    between atoms: C_14  and  C_31
   16  A    between atoms: C_14  and  C_37
   17  A    between atoms: C_15  and  C_19
   18  A    between atoms: C_17  and  C_26
   19  A    between atoms: C_17  and  C_33
   20  A    between atoms: N_20  and  C_21
   21  A    between atoms: N_20  and  C_29
   22  A    between atoms: C_21  and  C_25
   23  A    between atoms: C_23  and  C_25
   24  A    between atoms: C_24  and  N_28
   25  A    between atoms: C_29  and  C_36
   26  A    between atoms: C_30  and  O_32
                            x       y       z     vdW  Elec       q    Type
                         _______ _______ _______ _____ _____    ______ ____

>  <TORSDO>
F 26

$$$$
=
 OpenBabel11052420053D

 37 36  0  0  1  0  0  0  0  0999 V2000
  188.6340  175.7300  143.4160 C   0  0  2  0  0  3  0  0  0  0  0  0
  189.0660  174.4240  142.7280 C   0  0  1  0  0  3  0  0  0  0  0  0
  188.2290  173.7190  140.8760 O   0  0  0  0  0  1  0  0  0  0  0  0
  187.9900  173.7200  142.1710 O   0  0  0  0  0  0  0  0  0  0  0  0
  190.1340  174.6880  141.6640 C   0  0  0  0  0  2  0  0  0  0  0  0
  191.4890  174.0930  142.0300 C   0  0  2  0  0  3  0  0  0  0  0  0
  191.3290  173.1380  143.0340 O   0  0  0  0  0  1  0  0  0  0  0  0
  192.4170  175.1890  142.5340 C   0  0  0  0  0  2  0  0  0  0  0  0
  193.7370  175.2630  141.7620 C   0  0  2  0  0  3  0  0  0  0  0  0
  194.1520  174.0050  141.3150 O   0  0  0  0  0  0  0  0  0  0  0  0
  194.7700  173.4700  142.3480 O   0  0  0  0  0  1  0  0  0  0  0  0
  194.8450  175.9870  142.5280 C   0  0  0  0  0  2  0  0  0  0  0  0
  195.9310  176.5290  141.6110 C   0  0  0  0  0  2  0  0  0  0  0  0
  197.2680  175.9500  142.0230 C   0  0  0  0  0  2  0  0  0  0  0  0
  197.7570  175.5500  139.6330 C   0  0  0  0  0  1  0  0  0  0  0  0
  197.7050  174.9160  141.0070 C   0  0  0  0  0  2  0  0  0  0  0  0
  188.5780  176.8620  142.3960 C   0  0  0  0  0  2  0  0  0  0  0  0
  186.7280  178.5560  142.4050 C   0  0  0  0  0  1  0  0  0  0  0  0
  187.1490  177.1660  141.9540 C   0  0  1  0  0  3  0  0  0  0  0  0
  185.8150  177.7700  140.0360 C   0  0  0  0  0  1  0  0  0  0  0  0
  186.9550  176.9890  140.5110 N   0  0  0  0  0  2  0  0  0  0  0  0
  189.5820  176.1360  144.5400 C   0  0  0  0  0  2  0  0  0  0  0  0
  189.0600  175.6860  145.8250 N   0  0  0  0  0  0  0  0  0  0  0  0
  190.1660  175.1670  146.6440 C   0  0  0  0  0  2  0  0  0  0  0  0
  192.6190  175.2090  146.7950 C   0  0  0  0  0  3  0  0  0  0  0  0
  191.5260  175.4740  146.0790 C   0  0  0  0  0  3  0  0  0  0  0  0
  193.9870  175.5120  146.2630 C   0  0  0  0  0  2  0  0  0  0  0  0
  194.6760  174.2520  145.7650 C   0  0  0  0  0  2  0  0  0  0  0  0
  196.1870  174.4350  145.7660 C   0  0  0  0  0  2  0  0  0  0  0  0
  196.8670  173.2510  145.1000 C   0  0  0  0  0  2  0  0  0  0  0  0
  196.7200  172.0060  145.9550 C   0  0  0  0  0  1  0  0  0  0  0  0
  188.4220  176.8170  146.4940 C   0  0  0  0  0  2  0  0  0  0  0  0
  187.0650  176.4100  147.0540 C   0  0  0  0  0  2  0  0  0  0  0  0
  185.7220  176.6060  145.0980 O   0  0  0  0  0  0  0  0  0  0  0  0
  185.9530  177.0190  146.2660 C   0  0  0  0  0  0  0  0  0  0  0  0
  185.1930  178.0510  146.8220 O   0  0  0  0  0  0  0  0  0  0  0  0
  185.7950  179.1620  147.4690 C   0  0  0  0  0  1  0  0  0  0  0  0
  1 17  1  6  0  0  0
  1 22  1  0  0  0  0
  2  5  1  6  0  0  0
  2  1  1  0  0  0  0
  3  4  1  0  0  0  0
  4  2  1  0  0  0  0
  5  6  1  0  0  0  0
  6  8  1  0  0  0  0
  6  7  1  1  0  0  0
  9 12  1  1  0  0  0
  9  8  1  0  0  0  0
 10  9  1  0  0  0  0
 10 11  1  0  0  0  0
 13 14  1  0  0  0  0
 13 12  1  0  0  0  0
 15 16  1  0  0  0  0
 16 14  1  0  0  0  0
 19 17  1  0  0  0  0
 19 18  1  6  0  0  0
 20 21  1  0  0  0  0
 21 19  1  0  0  0  0
 22 23  1  0  0  0  0
 23 32  1  0  0  0  0
 23 24  1  0  0  0  0
 26 24  1  0  0  0  0
 26 25  2  0  0  0  0
 27 25  1  0  0  0  0
 28 29  1  0  0  0  0
 28 27  1  0  0  0  0
 30 29  1  0  0  0  0
 30 31  1  0  0  0  0
 32 33  1  0  0  0  0
 34 35  2  0  0  0  0
 35 36  1  0  0  0  0
 35 33  1  0  0  0  0
 36 37  1  0  0  0  0
M  END
>  <MODEL>
6

>  <REMARK>
 VINA RESULT:      -4.6      2.308      5.762
  Name = 
  26 active torsions:
  status: ('A' for Active; 'I' for Inactive)
    1  A    between atoms: O_1  and  C_23
    2  A    between atoms: O_2  and  C_8
    3  A    between atoms: C_3  and  C_15
    4  A    between atoms: C_3  and  C_30
    5  A    between atoms: C_4  and  C_10
    6  A    between atoms: C_4  and  C_24
    7  A    between atoms: C_6  and  C_8
    8  A    between atoms: C_6  and  C_31
    9  A    between atoms: C_7  and  C_33
   10  A    between atoms: C_8  and  C_19
   11  A    between atoms: C_10  and  C_13
   12  A    between atoms: C_10  and  C_30
   13  A    between atoms: C_11  and  C_26
   14  A    between atoms: C_13  and  N_20
   15  A    between atoms: C_14  and  C_31
   16  A    between atoms: C_14  and  C_37
   17  A    between atoms: C_15  and  C_19
   18  A    between atoms: C_17  and  C_26
   19  A    between atoms: C_17  and  C_33
   20  A    between atoms: N_20  and  C_21
   21  A    between atoms: N_20  and  C_29
   22  A    between atoms: C_21  and  C_25
   23  A    between atoms: C_23  and  C_25
   24  A    between atoms: C_24  and  N_28
   25  A    between atoms: C_29  and  C_36
   26  A    between atoms: C_30  and  O_32
                            x       y       z     vdW  Elec       q    Type
                         _______ _______ _______ _____ _____    ______ ____

>  <TORSDO>
F 26

$$$$
=
 OpenBabel11052420053D

 37 36  0  0  1  0  0  0  0  0999 V2000
  191.7170  173.0850  141.4580 C   0  0  2  0  0  3  0  0  0  0  0  0
  190.2600  173.2510  141.9230 C   0  0  1  0  0  3  0  0  0  0  0  0
  189.2580  171.8800  143.2450 O   0  0  0  0  0  1  0  0  0  0  0  0
  190.0770  172.9120  143.2710 O   0  0  0  0  0  0  0  0  0  0  0  0
  189.7560  174.6720  141.6620 C   0  0  0  0  0  2  0  0  0  0  0  0
  188.6950  175.1130  142.6640 C   0  0  2  0  0  3  0  0  0  0  0  0
  187.4410  174.6590  142.2530 O   0  0  0  0  0  1  0  0  0  0  0  0
  188.6660  176.6320  142.7530 C   0  0  0  0  0  2  0  0  0  0  0  0
  187.2730  177.1920  143.0520 C   0  0  2  0  0  3  0  0  0  0  0  0
  186.7620  177.9240  141.9760 O   0  0  0  0  0  0  0  0  0  0  0  0
  187.7730  178.0380  141.1390 O   0  0  0  0  0  1  0  0  0  0  0  0
  187.2080  177.9830  144.3590 C   0  0  0  0  0  2  0  0  0  0  0  0
  187.1240  177.0840  145.5830 C   0  0  0  0  0  2  0  0  0  0  0  0
  185.6790  176.7010  145.8240 C   0  0  0  0  0  2  0  0  0  0  0  0
  185.0160  178.5430  147.3360 C   0  0  0  0  0  1  0  0  0  0  0  0
  184.8390  177.9550  145.9520 C   0  0  0  0  0  2  0  0  0  0  0  0
  191.7610  172.2920  140.1560 C   0  0  0  0  0  2  0  0  0  0  0  0
  189.7760  171.5960  138.7890 C   0  0  0  0  0  1  0  0  0  0  0  0
  190.5940  171.3150  140.0400 C   0  0  1  0  0  3  0  0  0  0  0  0
  190.8430  169.3630  141.4370 C   0  0  0  0  0  1  0  0  0  0  0  0
  191.0240  169.9140  140.0960 N   0  0  0  0  0  2  0  0  0  0  0  0
  192.5790  172.3680  142.4920 C   0  0  0  0  0  2  0  0  0  0  0  0
  193.6050  173.2690  143.0050 N   0  0  0  0  0  0  0  0  0  0  0  0
  193.4610  173.3900  144.4630 C   0  0  0  0  0  2  0  0  0  0  0  0
  192.7670  175.7440  144.3290 C   0  0  0  0  0  3  0  0  0  0  0  0
  192.5970  174.5460  144.8880 C   0  0  0  0  0  3  0  0  0  0  0  0
  191.9290  176.9160  144.7390 C   0  0  0  0  0  2  0  0  0  0  0  0
  190.7590  176.4800  145.6070 C   0  0  0  0  0  2  0  0  0  0  0  0
  191.1160  176.6000  147.0820 C   0  0  0  0  0  2  0  0  0  0  0  0
  190.6600  175.3660  147.8410 C   0  0  0  0  0  2  0  0  0  0  0  0
  189.4820  174.7170  147.1390 C   0  0  0  0  0  1  0  0  0  0  0  0
  194.9180  172.7260  142.6670 C   0  0  0  0  0  2  0  0  0  0  0  0
  195.9230  173.0360  143.7690 C   0  0  0  0  0  2  0  0  0  0  0  0
  197.8910  174.0000  142.8390 O   0  0  0  0  0  0  0  0  0  0  0  0
  196.7800  174.2010  143.4010 C   0  0  0  0  0  0  0  0  0  0  0  0
  196.3550  175.4980  143.6980 O   0  0  0  0  0  0  0  0  0  0  0  0
  196.0910  176.4530  142.6800 C   0  0  0  0  0  1  0  0  0  0  0  0
  1 17  1  6  0  0  0
  1  2  1  0  0  0  0
  1 22  1  0  0  0  0
  2  5  1  1  0  0  0
  2  4  1  0  0  0  0
  3  4  1  0  0  0  0
  5  6  1  0  0  0  0
  6  7  1  6  0  0  0
  6  8  1  0  0  0  0
  9  8  1  6  0  0  0
  9 12  1  0  0  0  0
 10  9  1  0  0  0  0
 11 10  1  0  0  0  0
 12 13  1  0  0  0  0
 13 14  1  0  0  0  0
 14 16  1  0  0  0  0
 16 15  1  0  0  0  0
 19 18  1  6  0  0  0
 19 21  1  0  0  0  0
 19 17  1  0  0  0  0
 21 20  1  0  0  0  0
 22 23  1  0  0  0  0
 23 24  1  0  0  0  0
 24 26  1  0  0  0  0
 25 27  1  0  0  0  0
 25 26  2  0  0  0  0
 27 28  1  0  0  0  0
 28 29  1  0  0  0  0
 29 30  1  0  0  0  0
 31 30  1  0  0  0  0
 32 23  1  0  0  0  0
 32 33  1  0  0  0  0
 34 35  2  0  0  0  0
 35 36  1  0  0  0  0
 35 33  1  0  0  0  0
 37 36  1  0  0  0  0
M  END
>  <MODEL>
7

>  <REMARK>
 VINA RESULT:      -4.5      2.868      6.795
  Name = 
  26 active torsions:
  status: ('A' for Active; 'I' for Inactive)
    1  A    between atoms: O_1  and  C_23
    2  A    between atoms: O_2  and  C_8
    3  A    between atoms: C_3  and  C_15
    4  A    between atoms: C_3  and  C_30
    5  A    between atoms: C_4  and  C_10
    6  A    between atoms: C_4  and  C_24
    7  A    between atoms: C_6  and  C_8
    8  A    between atoms: C_6  and  C_31
    9  A    between atoms: C_7  and  C_33
   10  A    between atoms: C_8  and  C_19
   11  A    between atoms: C_10  and  C_13
   12  A    between atoms: C_10  and  C_30
   13  A    between atoms: C_11  and  C_26
   14  A    between atoms: C_13  and  N_20
   15  A    between atoms: C_14  and  C_31
   16  A    between atoms: C_14  and  C_37
   17  A    between atoms: C_15  and  C_19
   18  A    between atoms: C_17  and  C_26
   19  A    between atoms: C_17  and  C_33
   20  A    between atoms: N_20  and  C_21
   21  A    between atoms: N_20  and  C_29
   22  A    between atoms: C_21  and  C_25
   23  A    between atoms: C_23  and  C_25
   24  A    between atoms: C_24  and  N_28
   25  A    between atoms: C_29  and  C_36
   26  A    between atoms: C_30  and  O_32
                            x       y       z     vdW  Elec       q    Type
                         _______ _______ _______ _____ _____    ______ ____

>  <TORSDO>
F 26

$$$$
=
 OpenBabel11052420053D

 37 36  0  0  1  0  0  0  0  0999 V2000
  192.2810  175.3510  145.5350 C   0  0  2  0  0  3  0  0  0  0  0  0
  191.4470  175.9010  146.7050 C   0  0  1  0  0  3  0  0  0  0  0  0
  191.3650  176.9820  148.5630 O   0  0  0  0  0  1  0  0  0  0  0  0
  192.2000  176.6870  147.5870 O   0  0  0  0  0  0  0  0  0  0  0  0
  190.2360  176.6870  146.1970 C   0  0  0  0  0  2  0  0  0  0  0  0
  188.9160  176.1470  146.7370 C   0  0  2  0  0  3  0  0  0  0  0  0
  188.9820  174.7570  146.8400 O   0  0  0  0  0  1  0  0  0  0  0  0
  187.7800  176.5200  145.7960 C   0  0  0  0  0  2  0  0  0  0  0  0
  187.1200  177.8550  146.1470 C   0  0  2  0  0  3  0  0  0  0  0  0
  187.0290  178.0450  147.5300 O   0  0  0  0  0  0  0  0  0  0  0  0
  185.8320  177.5960  147.8510 O   0  0  0  0  0  1  0  0  0  0  0  0
  185.7720  178.0630  145.4560 C   0  0  0  0  0  2  0  0  0  0  0  0
  185.7870  179.2360  144.4870 C   0  0  0  0  0  2  0  0  0  0  0  0
  185.5250  178.7290  143.0850 C   0  0  0  0  0  2  0  0  0  0  0  0
  186.7120  176.8670  141.9710 C   0  0  0  0  0  1  0  0  0  0  0  0
  186.8310  178.2980  142.4520 C   0  0  0  0  0  2  0  0  0  0  0  0
  192.8720  176.5040  144.7300 C   0  0  0  0  0  2  0  0  0  0  0  0
  195.0210  175.5990  145.6540 C   0  0  0  0  0  1  0  0  0  0  0  0
  194.3690  176.3270  144.4890 C   0  0  1  0  0  3  0  0  0  0  0  0
  193.7900  176.1660  142.1520 C   0  0  0  0  0  1  0  0  0  0  0  0
  194.6600  175.6650  143.2130 N   0  0  0  0  0  2  0  0  0  0  0  0
  191.4580  174.4750  144.5950 C   0  0  0  0  0  2  0  0  0  0  0  0
  191.7110  173.0660  144.8710 N   0  0  0  0  0  0  0  0  0  0  0  0
  190.5740  172.2660  144.3930 C   0  0  0  0  0  2  0  0  0  0  0  0
  188.7580  172.3780  142.7410 C   0  0  0  0  0  3  0  0  0  0  0  0
  189.6310  173.0320  143.5060 C   0  0  0  0  0  3  0  0  0  0  0  0
  187.8130  173.1140  141.8400 C   0  0  0  0  0  2  0  0  0  0  0  0
  188.5590  173.8290  140.7250 C   0  0  0  0  0  2  0  0  0  0  0  0
  188.3650  173.1010  139.4020 C   0  0  0  0  0  2  0  0  0  0  0  0
  188.2470  174.0960  138.2600 C   0  0  0  0  0  2  0  0  0  0  0  0
  189.1120  173.6650  137.0900 C   0  0  0  0  0  1  0  0  0  0  0  0
  192.9370  172.6660  144.1850 C   0  0  0  0  0  2  0  0  0  0  0  0
  192.7390  171.3360  143.4700 C   0  0  0  0  0  2  0  0  0  0  0  0
  194.2820  171.4200  141.6590 O   0  0  0  0  0  0  0  0  0  0  0  0
  193.0740  171.4500  142.0200 C   0  0  0  0  0  0  0  0  0  0  0  0
  192.0520  171.6070  141.0810 O   0  0  0  0  0  0  0  0  0  0  0  0
  191.1560  170.5520  140.7650 C   0  0  0  0  0  1  0  0  0  0  0  0
  1 22  1  6  0  0  0
  1  2  1  0  0  0  0
  2  5  1  6  0  0  0
  2  4  1  0  0  0  0
  4  3  1  0  0  0  0
  5  6  1  0  0  0  0
  6  7  1  6  0  0  0
  8  9  1  0  0  0  0
  8  6  1  0  0  0  0
  9 12  1  1  0  0  0
  9 10  1  0  0  0  0
 10 11  1  0  0  0  0
 13 12  1  0  0  0  0
 14 13  1  0  0  0  0
 15 16  1  0  0  0  0
 16 14  1  0  0  0  0
 17  1  1  0  0  0  0
 19 17  1  0  0  0  0
 19 18  1  1  0  0  0
 20 21  1  0  0  0  0
 21 19  1  0  0  0  0
 22 23  1  0  0  0  0
 24 23  1  0  0  0  0
 25 26  2  0  0  0  0
 26 24  1  0  0  0  0
 27 25  1  0  0  0  0
 28 27  1  0  0  0  0
 29 28  1  0  0  0  0
 30 29  1  0  0  0  0
 31 30  1  0  0  0  0
 32 23  1  0  0  0  0
 33 32  1  0  0  0  0
 34 35  2  0  0  0  0
 35 33  1  0  0  0  0
 36 35  1  0  0  0  0
 37 36  1  0  0  0  0
M  END
>  <MODEL>
8

>  <REMARK>
 VINA RESULT:      -4.4      2.799      7.783
  Name = 
  26 active torsions:
  status: ('A' for Active; 'I' for Inactive)
    1  A    between atoms: O_1  and  C_23
    2  A    between atoms: O_2  and  C_8
    3  A    between atoms: C_3  and  C_15
    4  A    between atoms: C_3  and  C_30
    5  A    between atoms: C_4  and  C_10
    6  A    between atoms: C_4  and  C_24
    7  A    between atoms: C_6  and  C_8
    8  A    between atoms: C_6  and  C_31
    9  A    between atoms: C_7  and  C_33
   10  A    between atoms: C_8  and  C_19
   11  A    between atoms: C_10  and  C_13
   12  A    between atoms: C_10  and  C_30
   13  A    between atoms: C_11  and  C_26
   14  A    between atoms: C_13  and  N_20
   15  A    between atoms: C_14  and  C_31
   16  A    between atoms: C_14  and  C_37
   17  A    between atoms: C_15  and  C_19
   18  A    between atoms: C_17  and  C_26
   19  A    between atoms: C_17  and  C_33
   20  A    between atoms: N_20  and  C_21
   21  A    between atoms: N_20  and  C_29
   22  A    between atoms: C_21  and  C_25
   23  A    between atoms: C_23  and  C_25
   24  A    between atoms: C_24  and  N_28
   25  A    between atoms: C_29  and  C_36
   26  A    between atoms: C_30  and  O_32
                            x       y       z     vdW  Elec       q    Type
                         _______ _______ _______ _____ _____    ______ ____

>  <TORSDO>
F 26

$$$$
=
 OpenBabel11052420053D

 37 36  0  0  1  0  0  0  0  0999 V2000
  189.4150  177.3070  144.2550 C   0  0  2  0  0  3  0  0  0  0  0  0
  190.8240  177.3680  143.6400 C   0  0  1  0  0  3  0  0  0  0  0  0
  191.5340  179.3830  143.8900 O   0  0  0  0  0  1  0  0  0  0  0  0
  191.0710  178.5700  142.9630 O   0  0  0  0  0  0  0  0  0  0  0  0
  191.8990  177.1270  144.7020 C   0  0  0  0  0  2  0  0  0  0  0  0
  192.7050  175.8580  144.4460 C   0  0  2  0  0  3  0  0  0  0  0  0
  192.5760  175.4790  143.1100 O   0  0  0  0  0  1  0  0  0  0  0  0
  192.1920  174.7310  145.3320 C   0  0  0  0  0  2  0  0  0  0  0  0
  191.6320  173.5480  144.5380 C   0  0  2  0  0  3  0  0  0  0  0  0
  190.3860  173.1380  145.0200 O   0  0  0  0  0  0  0  0  0  0  0  0
  190.0300  172.1480  144.2280 O   0  0  0  0  0  1  0  0  0  0  0  0
  192.6110  172.3790  144.4280 C   0  0  0  0  0  2  0  0  0  0  0  0
  193.6720  172.3990  145.5180 C   0  0  0  0  0  2  0  0  0  0  0  0
  195.0370  172.5590  144.8840 C   0  0  0  0  0  2  0  0  0  0  0  0
  197.1710  173.4870  145.7210 C   0  0  0  0  0  1  0  0  0  0  0  0
  195.7140  173.7920  145.4440 C   0  0  0  0  0  2  0  0  0  0  0  0
  189.5130  177.1050  145.7630 C   0  0  0  0  0  2  0  0  0  0  0  0
  188.5680  175.3300  147.2630 C   0  0  0  0  0  1  0  0  0  0  0  0
  188.2390  176.4970  146.3440 C   0  0  1  0  0  3  0  0  0  0  0  0
  186.0890  176.9300  147.3500 C   0  0  0  0  0  1  0  0  0  0  0  0
  187.3970  177.4900  147.0190 N   0  0  0  0  0  2  0  0  0  0  0  0
  188.5730  176.1790  143.6680 C   0  0  0  0  0  2  0  0  0  0  0  0
  187.6110  176.7140  142.7120 N   0  0  0  0  0  0  0  0  0  0  0  0
  187.8590  176.1230  141.3890 C   0  0  0  0  0  2  0  0  0  0  0  0
  188.5930  173.9810  140.4340 C   0  0  0  0  0  3  0  0  0  0  0  0
  188.6610  174.8510  141.4410 C   0  0  0  0  0  3  0  0  0  0  0  0
  189.3720  172.7010  140.4620 C   0  0  0  0  0  2  0  0  0  0  0  0
  190.7750  172.9220  141.0050 C   0  0  0  0  0  2  0  0  0  0  0  0
  191.6850  171.7650  140.6170 C   0  0  0  0  0  2  0  0  0  0  0  0
  192.9820  172.2850  140.0220 C   0  0  0  0  0  2  0  0  0  0  0  0
  192.9300  173.7950  139.8760 C   0  0  0  0  0  1  0  0  0  0  0  0
  186.2630  176.3860  143.1700 C   0  0  0  0  0  2  0  0  0  0  0  0
  185.5780  177.6200  143.7430 C   0  0  0  0  0  2  0  0  0  0  0  0
  183.4900  178.6800  143.3170 O   0  0  0  0  0  0  0  0  0  0  0  0
  184.5050  178.1120  142.8310 C   0  0  0  0  0  0  0  0  0  0  0  0
  184.6240  177.9220  141.4520 O   0  0  0  0  0  0  0  0  0  0  0  0
  183.6640  178.4320  140.5390 C   0  0  0  0  0  1  0  0  0  0  0  0
  1 22  1  6  0  0  0
  1 17  1  0  0  0  0
  2  1  1  0  0  0  0
  2  5  1  1  0  0  0
  4  2  1  0  0  0  0
  4  3  1  0  0  0  0
  6  7  1  6  0  0  0
  6  5  1  0  0  0  0
  6  8  1  0  0  0  0
  9 12  1  1  0  0  0
  9 10  1  0  0  0  0
  9  8  1  0  0  0  0
 11 10  1  0  0  0  0
 12 13  1  0  0  0  0
 14 16  1  0  0  0  0
 14 13  1  0  0  0  0
 16 15  1  0  0  0  0
 17 19  1  0  0  0  0
 19 21  1  0  0  0  0
 19 18  1  1  0  0  0
 21 20  1  0  0  0  0
 23 32  1  0  0  0  0
 23 22  1  0  0  0  0
 24 26  1  0  0  0  0
 24 23  1  0  0  0  0
 25 27  1  0  0  0  0
 25 26  2  0  0  0  0
 27 28  1  0  0  0  0
 29 28  1  0  0  0  0
 30 29  1  0  0  0  0
 31 30  1  0  0  0  0
 32 33  1  0  0  0  0
 35 34  2  0  0  0  0
 35 33  1  0  0  0  0
 36 35  1  0  0  0  0
 37 36  1  0  0  0  0
M  END
>  <MODEL>
9

>  <REMARK>
 VINA RESULT:      -4.4      2.640      6.693
  Name = 
  26 active torsions:
  status: ('A' for Active; 'I' for Inactive)
    1  A    between atoms: O_1  and  C_23
    2  A    between atoms: O_2  and  C_8
    3  A    between atoms: C_3  and  C_15
    4  A    between atoms: C_3  and  C_30
    5  A    between atoms: C_4  and  C_10
    6  A    between atoms: C_4  and  C_24
    7  A    between atoms: C_6  and  C_8
    8  A    between atoms: C_6  and  C_31
    9  A    between atoms: C_7  and  C_33
   10  A    between atoms: C_8  and  C_19
   11  A    between atoms: C_10  and  C_13
   12  A    between atoms: C_10  and  C_30
   13  A    between atoms: C_11  and  C_26
   14  A    between atoms: C_13  and  N_20
   15  A    between atoms: C_14  and  C_31
   16  A    between atoms: C_14  and  C_37
   17  A    between atoms: C_15  and  C_19
   18  A    between atoms: C_17  and  C_26
   19  A    between atoms: C_17  and  C_33
   20  A    between atoms: N_20  and  C_21
   21  A    between atoms: N_20  and  C_29
   22  A    between atoms: C_21  and  C_25
   23  A    between atoms: C_23  and  C_25
   24  A    between atoms: C_24  and  N_28
   25  A    between atoms: C_29  and  C_36
   26  A    between atoms: C_30  and  O_32
                            x       y       z     vdW  Elec       q    Type
                         _______ _______ _______ _____ _____    ______ ____

>  <TORSDO>
F 26

$$$$
