=
 OpenBabel11052417353D

 25 27  0  0  1  0  0  0  0  0999 V2000
  186.4430  178.3120  145.1600 C   0  0  0  0  0  0  0  0  0  0  0  0
  187.6000  177.5560  145.2460 C   0  0  0  0  0  0  0  0  0  0  0  0
  185.3820  177.7300  146.3300 S   0  0  0  0  0  0  0  0  0  0  0  0
  186.3740  176.5290  146.9850 C   0  0  0  0  0  3  0  0  0  0  0  0
  188.6640  175.7400  146.4680 C   0  0  0  0  0  0  0  0  0  0  0  0
  188.6440  174.7730  147.4650 O   0  0  0  0  0  1  0  0  0  0  0  0
  188.7270  177.7010  144.4330 C   0  0  0  0  0  3  0  0  0  0  0  0
  189.7960  175.8850  145.6540 C   0  0  0  0  0  3  0  0  0  0  0  0
  189.8260  176.8540  144.6370 C   0  0  0  0  0  0  0  0  0  0  0  0
  187.5630  176.5790  146.2580 C   0  0  0  0  0  0  0  0  0  0  0  0
  186.1490  179.3740  144.1440 C   0  0  2  0  0  3  0  0  0  0  0  0
  185.4160  180.4150  144.7150 O   0  0  0  0  0  1  0  0  0  0  0  0
  185.4210  178.8060  142.9650 C   0  0  0  0  0  0  0  0  0  0  0  0
  184.0520  178.2830  140.5110 C   0  0  0  0  0  2  0  0  0  0  0  0
  186.1390  178.4560  141.8840 C   0  0  0  0  0  3  0  0  0  0  0  0
  185.5110  177.8660  140.6490 C   0  0  0  0  0  2  0  0  0  0  0  0
  183.3250  177.9580  141.8070 C   0  0  0  0  0  2  0  0  0  0  0  0
  183.9060  178.7880  142.9520 C   0  0  0  0  0  2  0  0  0  0  0  0
  191.0440  177.0090  143.7990 C   0  0  0  0  0  2  0  0  0  0  0  0
  192.2000  177.2420  144.6500 N   0  0  0  0  0  2  0  0  0  0  0  0
  193.2920  176.3230  144.7100 C   0  0  0  0  0  0  0  0  0  0  0  0
  193.2790  175.2720  144.0140 O   0  0  0  0  0  0  0  0  0  0  0  0
  194.4340  176.6090  145.5850 C   0  0  0  0  0  0  0  0  0  0  0  0
  195.0350  175.5840  146.3030 O   0  0  0  0  0  1  0  0  0  0  0  0
  194.8750  177.7840  145.6900 O   0  0  0  0  0  0  0  0  0  0  0  0
  1  2  2  0  0  0  0
  1  3  1  0  0  0  0
  2 10  1  0  0  0  0
  3  4  1  0  0  0  0
  5  6  1  0  0  0  0
  7  9  2  0  0  0  0
  7  2  1  0  0  0  0
  8  5  2  0  0  0  0
  9  8  1  0  0  0  0
 10  5  1  0  0  0  0
 10  4  2  0  0  0  0
 11 12  1  1  0  0  0
 11  1  1  0  0  0  0
 13 11  1  0  0  0  0
 14 16  1  0  0  0  0
 14 17  1  0  0  0  0
 15 13  2  0  0  0  0
 16 15  1  0  0  0  0
 17 18  1  0  0  0  0
 18 13  1  0  0  0  0
 19  9  1  0  0  0  0
 19 20  1  0  0  0  0
 20 21  1  0  0  0  0
 21 23  1  0  0  0  0
 22 21  2  0  0  0  0
 23 25  2  0  0  0  0
 23 24  1  0  0  0  0
M  END
>  <MODEL>
1

>  <REMARK>
 VINA RESULT:      -7.1      0.000      0.000
  Name = 
  5 active torsions:
  status: ('A' for Active; 'I' for Inactive)
    1  A    between atoms: C_1  and  C_18
    2  A    between atoms: C_2  and  C_21
    3  A    between atoms: C_5  and  C_18
    4  A    between atoms: C_6  and  N_15
    5  A    between atoms: C_6  and  C_23
                            x       y       z     vdW  Elec       q    Type
                         _______ _______ _______ _____ _____    ______ ____

>  <TORSDO>
F 5

$$$$
=
 OpenBabel11052417353D

 25 27  0  0  1  0  0  0  0  0999 V2000
  188.9790  176.1960  145.1600 C   0  0  0  0  0  0  0  0  0  0  0  0
  188.7440  175.9240  143.8220 C   0  0  0  0  0  0  0  0  0  0  0  0
  189.6020  174.7910  145.8490 S   0  0  0  0  0  0  0  0  0  0  0  0
  189.6110  173.8220  144.4650 C   0  0  0  0  0  3  0  0  0  0  0  0
  188.9240  174.1970  142.1160 C   0  0  0  0  0  0  0  0  0  0  0  0
  189.2730  172.9120  141.7220 O   0  0  0  0  0  1  0  0  0  0  0  0
  188.2040  176.8180  142.8950 C   0  0  0  0  0  3  0  0  0  0  0  0
  188.3840  175.0950  141.1840 C   0  0  0  0  0  3  0  0  0  0  0  0
  188.0190  176.3950  141.5710 C   0  0  0  0  0  0  0  0  0  0  0  0
  189.1000  174.6170  143.4390 C   0  0  0  0  0  0  0  0  0  0  0  0
  188.6410  177.4630  145.8820 C   0  0  2  0  0  3  0  0  0  0  0  0
  189.2420  177.4920  147.1410 O   0  0  0  0  0  1  0  0  0  0  0  0
  187.1580  177.6350  146.0060 C   0  0  0  0  0  0  0  0  0  0  0  0
  184.4700  178.2970  146.7160 C   0  0  0  0  0  2  0  0  0  0  0  0
  186.5990  178.7360  145.4740 C   0  0  0  0  0  3  0  0  0  0  0  0
  185.1190  179.0030  145.5320 C   0  0  0  0  0  2  0  0  0  0  0  0
  184.8460  176.8240  146.6730 C   0  0  0  0  0  2  0  0  0  0  0  0
  186.3550  176.6660  146.8500 C   0  0  0  0  0  2  0  0  0  0  0  0
  187.4700  177.3400  140.5630 C   0  0  0  0  0  2  0  0  0  0  0  0
  186.0170  177.3250  140.6170 N   0  0  0  0  0  2  0  0  0  0  0  0
  185.2790  178.2490  141.4190 C   0  0  0  0  0  0  0  0  0  0  0  0
  185.8820  179.1140  142.1100 O   0  0  0  0  0  0  0  0  0  0  0  0
  183.8140  178.1890  141.4340 C   0  0  0  0  0  0  0  0  0  0  0  0
  183.1120  178.0060  140.2490 O   0  0  0  0  0  0  0  0  0  0  0  0
  183.1850  178.3020  142.5190 O   0  0  0  0  0  1  0  0  0  0  0  0
  1  3  1  0  0  0  0
  1 11  1  0  0  0  0
  2  1  2  0  0  0  0
  4  3  1  0  0  0  0
  5 10  1  0  0  0  0
  6  5  1  0  0  0  0
  7  2  1  0  0  0  0
  8  9  1  0  0  0  0
  8  5  2  0  0  0  0
  9  7  2  0  0  0  0
 10  2  1  0  0  0  0
 10  4  2  0  0  0  0
 11 13  1  0  0  0  0
 11 12  1  1  0  0  0
 13 18  1  0  0  0  0
 15 16  1  0  0  0  0
 15 13  2  0  0  0  0
 16 14  1  0  0  0  0
 17 14  1  0  0  0  0
 17 18  1  0  0  0  0
 19 20  1  0  0  0  0
 19  9  1  0  0  0  0
 20 21  1  0  0  0  0
 21 23  1  0  0  0  0
 21 22  2  0  0  0  0
 23 25  1  0  0  0  0
 24 23  2  0  0  0  0
M  END
>  <MODEL>
2

>  <REMARK>
 VINA RESULT:      -7.1      3.297      6.507
  Name = 
  5 active torsions:
  status: ('A' for Active; 'I' for Inactive)
    1  A    between atoms: C_1  and  C_18
    2  A    between atoms: C_2  and  C_21
    3  A    between atoms: C_5  and  C_18
    4  A    between atoms: C_6  and  N_15
    5  A    between atoms: C_6  and  C_23
                            x       y       z     vdW  Elec       q    Type
                         _______ _______ _______ _____ _____    ______ ____

>  <TORSDO>
F 5

$$$$
=
 OpenBabel11052417353D

 25 27  0  0  1  0  0  0  0  0999 V2000
  189.6340  175.4780  145.1260 C   0  0  0  0  0  0  0  0  0  0  0  0
  188.5510  176.3280  144.9700 C   0  0  0  0  0  0  0  0  0  0  0  0
  189.5860  174.9000  146.7070 S   0  0  0  0  0  0  0  0  0  0  0  0
  188.1830  175.6910  147.2150 C   0  0  0  0  0  3  0  0  0  0  0  0
  186.6140  177.2580  146.1140 C   0  0  0  0  0  0  0  0  0  0  0  0
  185.8090  177.3740  147.2400 O   0  0  0  0  0  1  0  0  0  0  0  0
  188.2370  177.0380  143.8100 C   0  0  0  0  0  3  0  0  0  0  0  0
  186.2960  177.9690  144.9480 C   0  0  0  0  0  3  0  0  0  0  0  0
  187.1060  177.8670  143.8050 C   0  0  0  0  0  0  0  0  0  0  0  0
  187.7480  176.4380  146.1210 C   0  0  0  0  0  0  0  0  0  0  0  0
  190.7070  175.2110  144.1150 C   0  0  2  0  0  3  0  0  0  0  0  0
  190.5960  173.9170  143.6070 O   0  0  0  0  0  1  0  0  0  0  0  0
  192.0680  175.4300  144.7010 C   0  0  0  0  0  0  0  0  0  0  0  0
  194.3850  175.7680  146.3390 C   0  0  0  0  0  2  0  0  0  0  0  0
  192.8080  174.3500  145.0060 C   0  0  0  0  0  3  0  0  0  0  0  0
  194.1920  174.4550  145.5890 C   0  0  0  0  0  2  0  0  0  0  0  0
  193.9960  176.9170  145.4220 C   0  0  0  0  0  2  0  0  0  0  0  0
  192.5100  176.8290  145.0790 C   0  0  0  0  0  2  0  0  0  0  0  0
  186.7400  178.6110  142.5700 C   0  0  0  0  0  2  0  0  0  0  0  0
  185.2980  178.5860  142.3910 N   0  0  0  0  0  2  0  0  0  0  0  0
  184.6940  178.1580  141.1690 C   0  0  0  0  0  0  0  0  0  0  0  0
  185.4110  177.7850  140.2020 O   0  0  0  0  0  0  0  0  0  0  0  0
  183.2330  178.1520  141.0440 C   0  0  0  0  0  0  0  0  0  0  0  0
  182.4400  178.5400  142.1170 O   0  0  0  0  0  1  0  0  0  0  0  0
  182.6890  177.7970  139.9650 O   0  0  0  0  0  0  0  0  0  0  0  0
  1  3  1  0  0  0  0
  2  1  2  0  0  0  0
  2 10  1  0  0  0  0
  3  4  1  0  0  0  0
  5 10  1  0  0  0  0
  5  6  1  0  0  0  0
  7  2  1  0  0  0  0
  8  5  2  0  0  0  0
  9  7  2  0  0  0  0
  9  8  1  0  0  0  0
 10  4  2  0  0  0  0
 11 12  1  1  0  0  0
 11 13  1  0  0  0  0
 11  1  1  0  0  0  0
 13 15  2  0  0  0  0
 13 18  1  0  0  0  0
 15 16  1  0  0  0  0
 16 14  1  0  0  0  0
 17 14  1  0  0  0  0
 18 17  1  0  0  0  0
 19  9  1  0  0  0  0
 20 19  1  0  0  0  0
 21 20  1  0  0  0  0
 22 21  2  0  0  0  0
 23 21  1  0  0  0  0
 23 24  1  0  0  0  0
 25 23  2  0  0  0  0
M  END
>  <MODEL>
3

>  <REMARK>
 VINA RESULT:      -6.9      2.937      7.926
  Name = 
  5 active torsions:
  status: ('A' for Active; 'I' for Inactive)
    1  A    between atoms: C_1  and  C_18
    2  A    between atoms: C_2  and  C_21
    3  A    between atoms: C_5  and  C_18
    4  A    between atoms: C_6  and  N_15
    5  A    between atoms: C_6  and  C_23
                            x       y       z     vdW  Elec       q    Type
                         _______ _______ _______ _____ _____    ______ ____

>  <TORSDO>
F 5

$$$$
=
 OpenBabel11052417353D

 25 27  0  0  1  0  0  0  0  0999 V2000
  186.7190  177.8900  142.7490 C   0  0  0  0  0  0  0  0  0  0  0  0
  186.7550  177.8450  144.1330 C   0  0  0  0  0  0  0  0  0  0  0  0
  185.1160  178.1450  142.3020 S   0  0  0  0  0  0  0  0  0  0  0  0
  184.4410  178.2300  143.8480 C   0  0  0  0  0  3  0  0  0  0  0  0
  185.3780  178.0270  146.1310 C   0  0  0  0  0  0  0  0  0  0  0  0
  184.1460  178.2220  146.7430 O   0  0  0  0  0  1  0  0  0  0  0  0
  187.8950  177.6270  144.9090 C   0  0  0  0  0  3  0  0  0  0  0  0
  186.5220  177.8100  146.9120 C   0  0  0  0  0  3  0  0  0  0  0  0
  187.7730  177.6040  146.3050 C   0  0  0  0  0  0  0  0  0  0  0  0
  185.4990  178.0410  144.7370 C   0  0  0  0  0  0  0  0  0  0  0  0
  187.8710  177.6460  141.8220 C   0  0  2  0  0  3  0  0  0  0  0  0
  187.4810  177.8160  140.4930 O   0  0  0  0  0  1  0  0  0  0  0  0
  188.4510  176.2810  142.0280 C   0  0  0  0  0  0  0  0  0  0  0  0
  189.3340  173.7310  142.9700 C   0  0  0  0  0  2  0  0  0  0  0  0
  187.6440  175.2180  141.8720 C   0  0  0  0  0  3  0  0  0  0  0  0
  188.1250  173.8020  142.0450 C   0  0  0  0  0  2  0  0  0  0  0  0
  190.3920  174.7030  142.4680 C   0  0  0  0  0  2  0  0  0  0  0  0
  189.8650  176.1350  142.5530 C   0  0  0  0  0  2  0  0  0  0  0  0
  188.9800  177.3990  147.1490 C   0  0  0  0  0  2  0  0  0  0  0  0
  190.1380  177.1650  146.3020 N   0  0  0  0  0  2  0  0  0  0  0  0
  191.2620  176.4050  146.7500 C   0  0  0  0  0  0  0  0  0  0  0  0
  191.2750  175.9130  147.9100 O   0  0  0  0  0  0  0  0  0  0  0  0
  192.4030  176.1990  145.8520 C   0  0  0  0  0  0  0  0  0  0  0  0
  193.3550  175.2320  146.1460 O   0  0  0  0  0  1  0  0  0  0  0  0
  192.5250  176.8960  144.8100 O   0  0  0  0  0  0  0  0  0  0  0  0
  1  2  2  0  0  0  0
  2 10  1  0  0  0  0
  2  7  1  0  0  0  0
  3  1  1  0  0  0  0
  3  4  1  0  0  0  0
  4 10  2  0  0  0  0
  5  6  1  0  0  0  0
  5  8  2  0  0  0  0
  7  9  2  0  0  0  0
  9  8  1  0  0  0  0
  9 19  1  0  0  0  0
 10  5  1  0  0  0  0
 11 12  1  6  0  0  0
 11 13  1  0  0  0  0
 11  1  1  0  0  0  0
 13 18  1  0  0  0  0
 15 13  2  0  0  0  0
 15 16  1  0  0  0  0
 16 14  1  0  0  0  0
 17 18  1  0  0  0  0
 17 14  1  0  0  0  0
 20 21  1  0  0  0  0
 20 19  1  0  0  0  0
 21 22  2  0  0  0  0
 23 24  1  0  0  0  0
 23 21  1  0  0  0  0
 25 23  2  0  0  0  0
M  END
>  <MODEL>
4

>  <REMARK>
 VINA RESULT:      -6.8      2.562      4.200
  Name = 
  5 active torsions:
  status: ('A' for Active; 'I' for Inactive)
    1  A    between atoms: C_1  and  C_18
    2  A    between atoms: C_2  and  C_21
    3  A    between atoms: C_5  and  C_18
    4  A    between atoms: C_6  and  N_15
    5  A    between atoms: C_6  and  C_23
                            x       y       z     vdW  Elec       q    Type
                         _______ _______ _______ _____ _____    ______ ____

>  <TORSDO>
F 5

$$$$
=
 OpenBabel11052417353D

 25 27  0  0  1  0  0  0  0  0999 V2000
  187.2080  177.7160  143.1440 C   0  0  0  0  0  0  0  0  0  0  0  0
  187.1740  177.4490  144.5030 C   0  0  0  0  0  0  0  0  0  0  0  0
  186.1070  178.9570  142.8550 S   0  0  0  0  0  0  0  0  0  0  0  0
  185.5870  179.1980  144.4440 C   0  0  0  0  0  3  0  0  0  0  0  0
  186.1460  178.1230  146.6030 C   0  0  0  0  0  0  0  0  0  0  0  0
  185.2750  178.9300  147.3250 O   0  0  0  0  0  1  0  0  0  0  0  0
  187.9230  176.4680  145.1560 C   0  0  0  0  0  3  0  0  0  0  0  0
  186.8990  177.1400  147.2610 C   0  0  0  0  0  3  0  0  0  0  0  0
  187.7770  176.3120  146.5420 C   0  0  0  0  0  0  0  0  0  0  0  0
  186.2850  178.2730  145.2190 C   0  0  0  0  0  0  0  0  0  0  0  0
  187.9940  176.9690  142.1110 C   0  0  2  0  0  3  0  0  0  0  0  0
  187.4150  175.7250  141.8540 O   0  0  0  0  0  1  0  0  0  0  0  0
  189.4220  176.8050  142.5320 C   0  0  0  0  0  0  0  0  0  0  0  0
  192.2640  176.6100  142.7620 C   0  0  0  0  0  2  0  0  0  0  0  0
  190.1240  177.9090  142.8390 C   0  0  0  0  0  3  0  0  0  0  0  0
  191.5620  177.8580  143.2830 C   0  0  0  0  0  2  0  0  0  0  0  0
  191.4400  175.3900  143.1440 C   0  0  0  0  0  2  0  0  0  0  0  0
  190.0800  175.4420  142.4500 C   0  0  0  0  0  2  0  0  0  0  0  0
  188.5850  175.2900  147.2600 C   0  0  0  0  0  2  0  0  0  0  0  0
  189.9090  175.2060  146.6660 N   0  0  0  0  0  2  0  0  0  0  0  0
  191.0340  175.8860  147.2250 C   0  0  0  0  0  0  0  0  0  0  0  0
  190.9020  176.5860  148.2650 O   0  0  0  0  0  0  0  0  0  0  0  0
  192.3480  175.7640  146.5850 C   0  0  0  0  0  0  0  0  0  0  0  0
  192.8400  174.5130  146.2350 O   0  0  0  0  0  0  0  0  0  0  0  0
  193.0370  176.7920  146.3480 O   0  0  0  0  0  1  0  0  0  0  0  0
  1  2  2  0  0  0  0
  2  7  1  0  0  0  0
  2 10  1  0  0  0  0
  3  1  1  0  0  0  0
  3  4  1  0  0  0  0
  4 10  2  0  0  0  0
  5  8  2  0  0  0  0
  5  6  1  0  0  0  0
  7  9  2  0  0  0  0
  9 19  1  0  0  0  0
  9  8  1  0  0  0  0
 10  5  1  0  0  0  0
 11 12  1  1  0  0  0
 11 13  1  0  0  0  0
 11  1  1  0  0  0  0
 13 15  2  0  0  0  0
 14 17  1  0  0  0  0
 14 16  1  0  0  0  0
 15 16  1  0  0  0  0
 18 13  1  0  0  0  0
 18 17  1  0  0  0  0
 20 21  1  0  0  0  0
 20 19  1  0  0  0  0
 21 22  2  0  0  0  0
 23 21  1  0  0  0  0
 24 23  2  0  0  0  0
 25 23  1  0  0  0  0
M  END
>  <MODEL>
5

>  <REMARK>
 VINA RESULT:      -6.7      2.349      4.558
  Name = 
  5 active torsions:
  status: ('A' for Active; 'I' for Inactive)
    1  A    between atoms: C_1  and  C_18
    2  A    between atoms: C_2  and  C_21
    3  A    between atoms: C_5  and  C_18
    4  A    between atoms: C_6  and  N_15
    5  A    between atoms: C_6  and  C_23
                            x       y       z     vdW  Elec       q    Type
                         _______ _______ _______ _____ _____    ______ ____

>  <TORSDO>
F 5

$$$$
=
 OpenBabel11052417353D

 25 27  0  0  1  0  0  0  0  0999 V2000
  188.0770  176.3080  144.8550 C   0  0  0  0  0  0  0  0  0  0  0  0
  186.8840  176.9500  144.5670 C   0  0  0  0  0  0  0  0  0  0  0  0
  188.2370  176.2890  146.5320 S   0  0  0  0  0  0  0  0  0  0  0  0
  186.7900  177.0670  146.9250 C   0  0  0  0  0  3  0  0  0  0  0  0
  184.9450  178.0190  145.5760 C   0  0  0  0  0  0  0  0  0  0  0  0
  184.2280  178.4280  146.6940 O   0  0  0  0  0  1  0  0  0  0  0  0
  186.3840  177.1970  143.2870 C   0  0  0  0  0  3  0  0  0  0  0  0
  184.4410  178.2660  144.2920 C   0  0  0  0  0  3  0  0  0  0  0  0
  185.1590  177.8650  143.1520 C   0  0  0  0  0  0  0  0  0  0  0  0
  186.1720  177.3600  145.7100 C   0  0  0  0  0  0  0  0  0  0  0  0
  189.0870  175.8210  143.8620 C   0  0  2  0  0  3  0  0  0  0  0  0
  188.7430  174.5560  143.3850 O   0  0  0  0  0  1  0  0  0  0  0  0
  190.4620  175.8020  144.4550 C   0  0  0  0  0  0  0  0  0  0  0  0
  192.7970  175.8350  146.1030 C   0  0  0  0  0  2  0  0  0  0  0  0
  190.9270  174.6390  144.9440 C   0  0  0  0  0  3  0  0  0  0  0  0
  192.2980  174.5050  145.5530 C   0  0  0  0  0  2  0  0  0  0  0  0
  192.6900  176.8890  145.0110 C   0  0  0  0  0  2  0  0  0  0  0  0
  191.2240  177.0990  144.6340 C   0  0  0  0  0  2  0  0  0  0  0  0
  184.5980  178.1150  141.7980 C   0  0  0  0  0  2  0  0  0  0  0  0
  183.2140  178.5470  141.9120 N   0  0  0  0  0  2  0  0  0  0  0  0
  182.2380  178.2270  140.9190 C   0  0  0  0  0  0  0  0  0  0  0  0
  182.5600  177.5520  139.9040 O   0  0  0  0  0  0  0  0  0  0  0  0
  180.8560  178.6880  141.0850 C   0  0  0  0  0  0  0  0  0  0  0  0
  180.4820  179.9480  140.6380 O   0  0  0  0  0  0  0  0  0  0  0  0
  180.0000  177.9430  141.6340 O   0  0  0  0  0  1  0  0  0  0  0  0
  1  3  1  0  0  0  0
  2  1  2  0  0  0  0
  2 10  1  0  0  0  0
  3  4  1  0  0  0  0
  5 10  1  0  0  0  0
  5  6  1  0  0  0  0
  7  2  1  0  0  0  0
  8  5  2  0  0  0  0
  9  7  2  0  0  0  0
  9  8  1  0  0  0  0
 10  4  2  0  0  0  0
 11 12  1  1  0  0  0
 11 13  1  0  0  0  0
 11  1  1  0  0  0  0
 13 18  1  0  0  0  0
 13 15  2  0  0  0  0
 15 16  1  0  0  0  0
 16 14  1  0  0  0  0
 17 14  1  0  0  0  0
 18 17  1  0  0  0  0
 19 20  1  0  0  0  0
 19  9  1  0  0  0  0
 21 23  1  0  0  0  0
 21 20  1  0  0  0  0
 22 21  2  0  0  0  0
 23 25  1  0  0  0  0
 24 23  2  0  0  0  0
M  END
>  <MODEL>
6

>  <REMARK>
 VINA RESULT:      -6.7      3.424      8.420
  Name = 
  5 active torsions:
  status: ('A' for Active; 'I' for Inactive)
    1  A    between atoms: C_1  and  C_18
    2  A    between atoms: C_2  and  C_21
    3  A    between atoms: C_5  and  C_18
    4  A    between atoms: C_6  and  N_15
    5  A    between atoms: C_6  and  C_23
                            x       y       z     vdW  Elec       q    Type
                         _______ _______ _______ _____ _____    ______ ____

>  <TORSDO>
F 5

$$$$
=
 OpenBabel11052417353D

 25 27  0  0  1  0  0  0  0  0999 V2000
  188.5240  177.0490  145.1450 C   0  0  0  0  0  0  0  0  0  0  0  0
  187.2190  177.4430  144.8980 C   0  0  0  0  0  0  0  0  0  0  0  0
  188.7800  177.1950  146.8030 S   0  0  0  0  0  0  0  0  0  0  0  0
  187.2400  177.7330  147.2420 C   0  0  0  0  0  3  0  0  0  0  0  0
  185.1780  178.2290  145.9640 C   0  0  0  0  0  0  0  0  0  0  0  0
  184.4640  178.5940  147.0980 O   0  0  0  0  0  1  0  0  0  0  0  0
  186.6110  177.4920  143.6420 C   0  0  0  0  0  3  0  0  0  0  0  0
  184.5650  178.2780  144.7040 C   0  0  0  0  0  3  0  0  0  0  0  0
  185.2780  177.9190  143.5480 C   0  0  0  0  0  0  0  0  0  0  0  0
  186.5110  177.8120  146.0560 C   0  0  0  0  0  0  0  0  0  0  0  0
  189.5480  176.6700  144.1200 C   0  0  2  0  0  3  0  0  0  0  0  0
  189.4890  177.5290  143.0210 O   0  0  0  0  0  1  0  0  0  0  0  0
  189.3750  175.2480  143.6820 C   0  0  0  0  0  0  0  0  0  0  0  0
  189.6040  172.5930  142.6500 C   0  0  0  0  0  2  0  0  0  0  0  0
  189.8270  174.2750  144.4920 C   0  0  0  0  0  3  0  0  0  0  0  0
  189.6960  172.8140  144.1550 C   0  0  0  0  0  2  0  0  0  0  0  0
  188.4950  173.4730  142.0930 C   0  0  0  0  0  2  0  0  0  0  0  0
  188.8490  174.9460  142.2940 C   0  0  0  0  0  2  0  0  0  0  0  0
  184.6060  177.9540  142.2220 C   0  0  0  0  0  2  0  0  0  0  0  0
  183.2000  178.2840  142.3940 N   0  0  0  0  0  2  0  0  0  0  0  0
  182.2760  178.2470  141.3050 C   0  0  0  0  0  0  0  0  0  0  0  0
  182.6650  177.9220  140.1510 O   0  0  0  0  0  0  0  0  0  0  0  0
  180.8680  178.5890  141.5360 C   0  0  0  0  0  0  0  0  0  0  0  0
  179.9470  177.5910  141.8270 O   0  0  0  0  0  1  0  0  0  0  0  0
  180.4870  179.7890  141.4730 O   0  0  0  0  0  0  0  0  0  0  0  0
  1  3  1  0  0  0  0
  2  1  2  0  0  0  0
  2 10  1  0  0  0  0
  3  4  1  0  0  0  0
  5 10  1  0  0  0  0
  5  6  1  0  0  0  0
  7  2  1  0  0  0  0
  8  5  2  0  0  0  0
  9  7  2  0  0  0  0
  9  8  1  0  0  0  0
 10  4  2  0  0  0  0
 11 12  1  6  0  0  0
 11  1  1  0  0  0  0
 13 11  1  0  0  0  0
 13 15  2  0  0  0  0
 14 16  1  0  0  0  0
 16 15  1  0  0  0  0
 17 18  1  0  0  0  0
 17 14  1  0  0  0  0
 18 13  1  0  0  0  0
 19 20  1  0  0  0  0
 19  9  1  0  0  0  0
 21 23  1  0  0  0  0
 21 20  1  0  0  0  0
 22 21  2  0  0  0  0
 23 24  1  0  0  0  0
 25 23  2  0  0  0  0
M  END
>  <MODEL>
7

>  <REMARK>
 VINA RESULT:      -6.7      3.684      7.867
  Name = 
  5 active torsions:
  status: ('A' for Active; 'I' for Inactive)
    1  A    between atoms: C_1  and  C_18
    2  A    between atoms: C_2  and  C_21
    3  A    between atoms: C_5  and  C_18
    4  A    between atoms: C_6  and  N_15
    5  A    between atoms: C_6  and  C_23
                            x       y       z     vdW  Elec       q    Type
                         _______ _______ _______ _____ _____    ______ ____

>  <TORSDO>
F 5

$$$$
=
 OpenBabel11052417353D

 25 27  0  0  1  0  0  0  0  0999 V2000
  187.7110  177.2020  142.7440 C   0  0  0  0  0  0  0  0  0  0  0  0
  188.2550  175.9280  142.7080 C   0  0  0  0  0  0  0  0  0  0  0  0
  187.0690  177.5090  141.2180 S   0  0  0  0  0  0  0  0  0  0  0  0
  187.4420  176.0300  140.4920 C   0  0  0  0  0  3  0  0  0  0  0  0
  188.5930  173.9850  141.2820 C   0  0  0  0  0  0  0  0  0  0  0  0
  188.4450  173.3320  140.0650 O   0  0  0  0  0  1  0  0  0  0  0  0
  188.9090  175.2950  143.7670 C   0  0  0  0  0  3  0  0  0  0  0  0
  189.2490  173.3480  142.3450 C   0  0  0  0  0  3  0  0  0  0  0  0
  189.4130  174.0000  143.5790 C   0  0  0  0  0  0  0  0  0  0  0  0
  188.0980  175.2810  141.4680 C   0  0  0  0  0  0  0  0  0  0  0  0
  187.7790  178.1650  143.8880 C   0  0  2  0  0  3  0  0  0  0  0  0
  188.9260  177.9460  144.6520 O   0  0  0  0  0  1  0  0  0  0  0  0
  186.5540  178.0740  144.7450 C   0  0  0  0  0  0  0  0  0  0  0  0
  184.5050  178.2900  146.7260 C   0  0  0  0  0  2  0  0  0  0  0  0
  185.6010  179.0100  144.5930 C   0  0  0  0  0  3  0  0  0  0  0  0
  184.3260  179.0080  145.3940 C   0  0  0  0  0  2  0  0  0  0  0  0
  185.0900  176.9110  146.4640 C   0  0  0  0  0  2  0  0  0  0  0  0
  186.4850  177.0440  145.8540 C   0  0  0  0  0  2  0  0  0  0  0  0
  190.0900  173.3000  144.7020 C   0  0  0  0  0  2  0  0  0  0  0  0
  191.0310  174.2030  145.3470 N   0  0  0  0  0  2  0  0  0  0  0  0
  190.7210  174.8680  146.5730 C   0  0  0  0  0  0  0  0  0  0  0  0
  189.6060  174.6840  147.1320 O   0  0  0  0  0  0  0  0  0  0  0  0
  191.7080  175.7670  147.1800 C   0  0  0  0  0  0  0  0  0  0  0  0
  191.3010  176.7410  148.0820 O   0  0  0  0  0  1  0  0  0  0  0  0
  192.9290  175.6600  146.8880 O   0  0  0  0  0  0  0  0  0  0  0  0
  1 11  1  0  0  0  0
  2  1  2  0  0  0  0
  2  7  1  0  0  0  0
  3  1  1  0  0  0  0
  4  3  1  0  0  0  0
  4 10  2  0  0  0  0
  5 10  1  0  0  0  0
  5  8  2  0  0  0  0
  6  5  1  0  0  0  0
  8  9  1  0  0  0  0
  9  7  2  0  0  0  0
  9 19  1  0  0  0  0
 10  2  1  0  0  0  0
 11 12  1  1  0  0  0
 11 13  1  0  0  0  0
 13 18  1  0  0  0  0
 15 13  2  0  0  0  0
 15 16  1  0  0  0  0
 16 14  1  0  0  0  0
 17 14  1  0  0  0  0
 18 17  1  0  0  0  0
 19 20  1  0  0  0  0
 20 21  1  0  0  0  0
 21 22  2  0  0  0  0
 21 23  1  0  0  0  0
 23 24  1  0  0  0  0
 25 23  2  0  0  0  0
M  END
>  <MODEL>
8

>  <REMARK>
 VINA RESULT:      -6.6      3.059      4.385
  Name = 
  5 active torsions:
  status: ('A' for Active; 'I' for Inactive)
    1  A    between atoms: C_1  and  C_18
    2  A    between atoms: C_2  and  C_21
    3  A    between atoms: C_5  and  C_18
    4  A    between atoms: C_6  and  N_15
    5  A    between atoms: C_6  and  C_23
                            x       y       z     vdW  Elec       q    Type
                         _______ _______ _______ _____ _____    ______ ____

>  <TORSDO>
F 5

$$$$
=
 OpenBabel11052417353D

 25 27  0  0  1  0  0  0  0  0999 V2000
  185.7730  177.4620  145.6440 C   0  0  0  0  0  0  0  0  0  0  0  0
  186.1280  177.1600  144.3400 C   0  0  0  0  0  0  0  0  0  0  0  0
  184.7640  178.8090  145.5850 S   0  0  0  0  0  0  0  0  0  0  0  0
  184.7360  179.0200  143.9090 C   0  0  0  0  0  3  0  0  0  0  0  0
  185.8120  177.8320  142.0220 C   0  0  0  0  0  0  0  0  0  0  0  0
  185.2460  178.6660  141.0660 O   0  0  0  0  0  1  0  0  0  0  0  0
  186.9760  176.1230  143.9490 C   0  0  0  0  0  3  0  0  0  0  0  0
  186.6620  176.7890  141.6280 C   0  0  0  0  0  3  0  0  0  0  0  0
  187.2480  175.9430  142.5850 C   0  0  0  0  0  0  0  0  0  0  0  0
  185.5490  178.0160  143.3840 C   0  0  0  0  0  0  0  0  0  0  0  0
  186.2790  176.7860  146.8810 C   0  0  2  0  0  3  0  0  0  0  0  0
  185.9440  177.5220  148.0190 O   0  0  0  0  0  1  0  0  0  0  0  0
  187.7590  176.5710  146.8130 C   0  0  0  0  0  0  0  0  0  0  0  0
  190.5750  176.3440  147.2500 C   0  0  0  0  0  2  0  0  0  0  0  0
  188.2530  175.4040  147.2620 C   0  0  0  0  0  3  0  0  0  0  0  0
  189.7230  175.0800  147.2310 C   0  0  0  0  0  2  0  0  0  0  0  0
  190.1060  177.2670  146.1360 C   0  0  0  0  0  2  0  0  0  0  0  0
  188.6670  177.7100  146.3970 C   0  0  0  0  0  2  0  0  0  0  0  0
  188.1290  174.8280  142.1470 C   0  0  0  0  0  2  0  0  0  0  0  0
  189.5150  175.1540  142.4400 N   0  0  0  0  0  2  0  0  0  0  0  0
  190.2400  174.5020  143.4840 C   0  0  0  0  0  0  0  0  0  0  0  0
  189.6850  173.6140  144.1860 O   0  0  0  0  0  0  0  0  0  0  0  0
  191.6380  174.8690  143.7350 C   0  0  0  0  0  0  0  0  0  0  0  0
  192.3770  174.1840  144.6910 O   0  0  0  0  0  1  0  0  0  0  0  0
  192.1750  175.8060  143.0870 O   0  0  0  0  0  0  0  0  0  0  0  0
  1 11  1  0  0  0  0
  2  1  2  0  0  0  0
  3  1  1  0  0  0  0
  4  3  1  0  0  0  0
  5 10  1  0  0  0  0
  6  5  1  0  0  0  0
  7  2  1  0  0  0  0
  8  5  2  0  0  0  0
  8  9  1  0  0  0  0
  9  7  2  0  0  0  0
 10  4  2  0  0  0  0
 10  2  1  0  0  0  0
 11 12  1  1  0  0  0
 13 11  1  0  0  0  0
 13 15  2  0  0  0  0
 16 14  1  0  0  0  0
 16 15  1  0  0  0  0
 17 18  1  0  0  0  0
 17 14  1  0  0  0  0
 18 13  1  0  0  0  0
 19 20  1  0  0  0  0
 19  9  1  0  0  0  0
 20 21  1  0  0  0  0
 21 23  1  0  0  0  0
 21 22  2  0  0  0  0
 23 24  1  0  0  0  0
 25 23  2  0  0  0  0
M  END
>  <MODEL>
9

>  <REMARK>
 VINA RESULT:      -6.5      2.349      5.111
  Name = 
  5 active torsions:
  status: ('A' for Active; 'I' for Inactive)
    1  A    between atoms: C_1  and  C_18
    2  A    between atoms: C_2  and  C_21
    3  A    between atoms: C_5  and  C_18
    4  A    between atoms: C_6  and  N_15
    5  A    between atoms: C_6  and  C_23
                            x       y       z     vdW  Elec       q    Type
                         _______ _______ _______ _____ _____    ______ ____

>  <TORSDO>
F 5

$$$$
