=
 OpenBabel11052419173D

 32 37  0  0  1  0  0  0  0  0999 V2000
  189.4570  175.1270  144.7650 C   0  0  1  0  0  3  0  0  0  0  0  0
  187.5340  176.6690  144.3410 C   0  0  1  0  0  3  0  0  0  0  0  0
  190.7560  175.0200  145.5600 C   0  0  0  0  0  2  0  0  0  0  0  0
  188.8270  176.4720  145.1100 C   0  0  1  0  0  3  0  0  0  0  0  0
  186.8860  177.9320  144.7360 N   0  0  1  0  0  0  0  0  0  0  0  0
  186.0090  177.5120  139.7250 C   0  0  0  0  0  3  0  0  0  0  0  0
  187.9700  176.6960  142.8750 C   0  0  1  0  0  3  0  0  0  0  0  0
  184.8490  178.4660  141.6230 C   0  0  0  0  0  3  0  0  0  0  0  0
  185.8200  177.9470  142.4860 C   0  0  0  0  0  0  0  0  0  0  0  0
  188.6440  176.6840  146.5780 C   0  0  0  0  0  0  0  0  0  0  0  0
  185.6460  178.1370  143.9670 C   0  0  0  0  0  2  0  0  0  0  0  0
  187.6740  177.5920  147.0000 O   0  0  0  0  0  0  0  0  0  0  0  0
  189.4410  176.0780  147.4650 C   0  0  0  0  0  3  0  0  0  0  0  0
  188.4610  175.3680  142.4960 N   0  0  0  0  0  2  0  0  0  0  0  0
  189.6980  175.0780  143.2430 C   0  0  2  0  0  3  0  0  0  0  0  0
  186.8730  177.1710  141.9680 C   0  0  0  0  0  0  0  0  0  0  0  0
  186.5420  177.9050  146.1820 C   0  0  2  0  0  3  0  0  0  0  0  0
  190.4440  175.0210  147.0620 C   0  0  0  0  0  2  0  0  0  0  0  0
  184.9450  178.2510  140.2450 C   0  0  0  0  0  3  0  0  0  0  0  0
  186.9760  176.9810  140.5830 C   0  0  0  0  0  3  0  0  0  0  0  0
  190.6700  173.0830  140.3200 C   0  0  1  0  0  3  0  0  0  0  0  0
  190.8410  169.5790  141.4930 O   0  0  0  0  0  0  0  0  0  0  0  0
  191.1310  173.6750  139.1580 F   0  0  0  0  0  0  0  0  0  0  0  0
  189.7900  171.3240  142.5900 N   0  0  0  0  0  2  0  0  0  0  0  0
  190.2890  173.7310  142.8080 C   0  0  1  0  0  3  0  0  0  0  0  0
  191.2020  171.6600  140.4250 C   0  0  0  0  0  2  0  0  0  0  0  0
  189.2060  172.6560  142.6900 C   0  0  0  0  0  2  0  0  0  0  0  0
  191.0710  173.8800  141.5310 C   0  0  0  0  0  0  0  0  0  0  0  0
  192.2610  174.4820  141.5730 C   0  0  0  0  0  2  0  0  0  0  0  0
  190.5870  170.8110  141.5100 C   0  0  0  0  0  0  0  0  0  0  0  0
  185.3610  176.9850  146.5420 C   0  0  0  0  0  2  0  0  0  0  0  0
  184.2540  177.7230  146.9650 O   0  0  0  0  0  1  0  0  0  0  0  0
  1  4  1  0  0  0  0
  1  3  1  1  0  0  0
  2  5  1  0  0  0  0
  2  4  1  0  0  0  0
  3 18  1  0  0  0  0
  4 10  1  0  0  0  0
  5 17  1  0  0  0  0
  6 19  2  0  0  0  0
  6 20  1  0  0  0  0
  7  2  1  0  0  0  0
  8  9  2  0  0  0  0
  9 11  1  0  0  0  0
 10 12  1  0  0  0  0
 10 13  2  0  0  0  0
 11  5  1  0  0  0  0
 14  7  1  0  0  0  0
 14 15  1  0  0  0  0
 15  1  1  0  0  0  0
 16  9  1  0  0  0  0
 16  7  1  0  0  0  0
 17 31  1  0  0  0  0
 17 12  1  0  0  0  0
 18 13  1  0  0  0  0
 19  8  1  0  0  0  0
 20 16  2  0  0  0  0
 21 26  1  0  0  0  0
 21 28  1  0  0  0  0
 22 30  2  0  0  0  0
 23 21  1  0  0  0  0
 24 27  1  0  0  0  0
 25 15  1  0  0  0  0
 26 30  1  0  0  0  0
 27 25  1  0  0  0  0
 28 29  2  0  0  0  0
 28 25  1  0  0  0  0
 30 24  1  0  0  0  0
 31 32  1  0  0  0  0
M  END
>  <MODEL>
1

>  <REMARK>
 VINA RESULT:      -8.3      0.000      0.000
  Name = 
  2 active torsions:
  status: ('A' for Active; 'I' for Inactive)
    1  A    between atoms: C_13  and  C_29
    2  A    between atoms: C_16  and  C_27
                            x       y       z     vdW  Elec       q    Type
                         _______ _______ _______ _____ _____    ______ ____

>  <TORSDO>
F 2

$$$$
=
 OpenBabel11052419173D

 32 37  0  0  1  0  0  0  0  0999 V2000
  189.8700  175.3160  143.2280 C   0  0  1  0  0  3  0  0  0  0  0  0
  187.8140  176.6670  143.6790 C   0  0  1  0  0  3  0  0  0  0  0  0
  190.3280  174.0010  142.6040 C   0  0  0  0  0  2  0  0  0  0  0  0
  188.3560  175.3910  143.0620 C   0  0  1  0  0  3  0  0  0  0  0  0
  186.3630  176.7750  143.4470 N   0  0  1  0  0  0  0  0  0  0  0  0
  187.0950  178.6670  148.1310 C   0  0  0  0  0  3  0  0  0  0  0  0
  188.1360  176.5300  145.1680 C   0  0  1  0  0  3  0  0  0  0  0  0
  185.5500  179.0690  146.3120 C   0  0  0  0  0  3  0  0  0  0  0  0
  186.2630  178.1800  145.5010 C   0  0  0  0  0  0  0  0  0  0  0  0
  187.9030  175.2140  141.6500 C   0  0  0  0  0  0  0  0  0  0  0  0
  185.8320  177.9990  144.0730 C   0  0  0  0  0  2  0  0  0  0  0  0
  186.6610  175.7320  141.2830 O   0  0  0  0  0  0  0  0  0  0  0  0
  188.6310  174.5100  140.7770 C   0  0  0  0  0  3  0  0  0  0  0  0
  189.5890  176.5850  145.3510 N   0  0  0  0  0  2  0  0  0  0  0  0
  190.2010  175.3950  144.7320 C   0  0  2  0  0  3  0  0  0  0  0  0
  187.4250  177.5590  145.9960 C   0  0  0  0  0  0  0  0  0  0  0  0
  186.0760  176.8310  141.9900 C   0  0  2  0  0  3  0  0  0  0  0  0
  190.0190  174.0070  141.1010 C   0  0  0  0  0  2  0  0  0  0  0  0
  185.9640  179.3110  147.6250 C   0  0  0  0  0  3  0  0  0  0  0  0
  187.8180  177.7870  147.3230 C   0  0  0  0  0  3  0  0  0  0  0  0
  192.8870  176.8820  146.7420 C   0  0  1  0  0  3  0  0  0  0  0  0
  196.0260  176.2020  144.9070 O   0  0  0  0  0  0  0  0  0  0  0  0
  192.6680  177.3180  148.0370 F   0  0  0  0  0  0  0  0  0  0  0  0
  193.8880  176.0600  144.0320 N   0  0  0  0  0  2  0  0  0  0  0  0
  191.7150  175.3750  144.9790 C   0  0  1  0  0  3  0  0  0  0  0  0
  194.3570  176.5330  146.5520 C   0  0  0  0  0  2  0  0  0  0  0  0
  192.4510  176.3100  144.0170 C   0  0  0  0  0  2  0  0  0  0  0  0
  192.0230  175.6940  146.4170 C   0  0  0  0  0  0  0  0  0  0  0  0
  191.7760  174.7700  147.3470 C   0  0  0  0  0  2  0  0  0  0  0  0
  194.7900  176.2810  145.1290 C   0  0  0  0  0  0  0  0  0  0  0  0
  186.4590  178.1590  141.3120 C   0  0  0  0  0  2  0  0  0  0  0  0
  186.4390  178.0420  139.9210 O   0  0  0  0  0  1  0  0  0  0  0  0
  1  3  1  1  0  0  0
  1 15  1  0  0  0  0
  2  7  1  0  0  0  0
  4  1  1  0  0  0  0
  4  2  1  0  0  0  0
  5  2  1  0  0  0  0
  5 11  1  0  0  0  0
  7 14  1  0  0  0  0
  7 16  1  0  0  0  0
  8 19  2  0  0  0  0
  9 16  2  0  0  0  0
  9  8  1  0  0  0  0
 10  4  1  0  0  0  0
 11  9  1  0  0  0  0
 12 10  1  0  0  0  0
 12 17  1  0  0  0  0
 13 18  1  0  0  0  0
 13 10  2  0  0  0  0
 15 25  1  0  0  0  0
 15 14  1  0  0  0  0
 16 20  1  0  0  0  0
 17  5  1  0  0  0  0
 18  3  1  0  0  0  0
 19  6  1  0  0  0  0
 20  6  2  0  0  0  0
 21 23  1  0  0  0  0
 22 30  2  0  0  0  0
 24 30  1  0  0  0  0
 25 28  1  0  0  0  0
 26 21  1  0  0  0  0
 27 24  1  0  0  0  0
 27 25  1  0  0  0  0
 28 21  1  0  0  0  0
 28 29  2  0  0  0  0
 30 26  1  0  0  0  0
 31 17  1  0  0  0  0
 32 31  1  0  0  0  0
M  END
>  <MODEL>
2

>  <REMARK>
 VINA RESULT:      -8.1      3.510      5.662
  Name = 
  2 active torsions:
  status: ('A' for Active; 'I' for Inactive)
    1  A    between atoms: C_13  and  C_29
    2  A    between atoms: C_16  and  C_27
                            x       y       z     vdW  Elec       q    Type
                         _______ _______ _______ _____ _____    ______ ____

>  <TORSDO>
F 2

$$$$
=
 OpenBabel11052419173D

 32 37  0  0  1  0  0  0  0  0999 V2000
  190.1820  176.0440  145.5750 C   0  0  1  0  0  3  0  0  0  0  0  0
  191.1020  174.4510  143.8810 C   0  0  1  0  0  3  0  0  0  0  0  0
  190.1220  176.2920  147.0800 C   0  0  0  0  0  2  0  0  0  0  0  0
  191.0110  174.7830  145.3580 C   0  0  1  0  0  3  0  0  0  0  0  0
  191.9690  173.2790  143.6680 N   0  0  1  0  0  0  0  0  0  0  0  0
  188.2320  172.7960  140.2250 C   0  0  0  0  0  3  0  0  0  0  0  0
  189.6570  174.1630  143.4700 C   0  0  1  0  0  3  0  0  0  0  0  0
  190.5730  172.1960  140.3500 C   0  0  0  0  0  3  0  0  0  0  0  0
  190.6850  172.8610  141.5760 C   0  0  0  0  0  0  0  0  0  0  0  0
  192.3560  174.8360  146.0060 C   0  0  0  0  0  0  0  0  0  0  0  0
  192.0330  172.9390  142.2360 C   0  0  0  0  0  2  0  0  0  0  0  0
  193.3660  174.0170  145.5030 O   0  0  0  0  0  0  0  0  0  0  0  0
  192.5690  175.5900  147.0890 C   0  0  0  0  0  3  0  0  0  0  0  0
  188.8780  175.4020  143.5540 N   0  0  0  0  0  2  0  0  0  0  0  0
  188.7840  175.8200  144.9640 C   0  0  2  0  0  3  0  0  0  0  0  0
  189.5710  173.5330  142.1120 C   0  0  0  0  0  0  0  0  0  0  0  0
  193.3480  173.5630  144.1450 C   0  0  2  0  0  3  0  0  0  0  0  0
  191.5340  176.5590  147.6160 C   0  0  0  0  0  2  0  0  0  0  0  0
  189.3480  172.1620  139.6770 C   0  0  0  0  0  3  0  0  0  0  0  0
  188.3400  173.4720  141.4430 C   0  0  0  0  0  3  0  0  0  0  0  0
  185.3590  176.9620  145.6200 C   0  0  1  0  0  3  0  0  0  0  0  0
  185.1810  180.4290  144.3440 O   0  0  0  0  0  0  0  0  0  0  0  0
  184.5030  176.2520  146.4430 F   0  0  0  0  0  0  0  0  0  0  0  0
  186.8140  178.8760  143.8200 N   0  0  0  0  0  2  0  0  0  0  0  0
  187.9030  177.0690  145.0990 C   0  0  1  0  0  3  0  0  0  0  0  0
  184.9520  178.4290  145.5880 C   0  0  0  0  0  2  0  0  0  0  0  0
  187.3770  177.5330  143.7390 C   0  0  0  0  0  2  0  0  0  0  0  0
  186.7850  176.8270  146.0780 C   0  0  0  0  0  0  0  0  0  0  0  0
  187.0710  176.7870  147.3810 C   0  0  0  0  0  2  0  0  0  0  0  0
  185.6390  179.2750  144.5450 C   0  0  0  0  0  0  0  0  0  0  0  0
  194.1460  174.5330  143.2540 C   0  0  0  0  0  2  0  0  0  0  0  0
  195.2160  175.0980  143.9510 O   0  0  0  0  0  1  0  0  0  0  0  0
  1  3  1  1  0  0  0
  2  4  1  0  0  0  0
  3 18  1  0  0  0  0
  4  1  1  0  0  0  0
  4 10  1  0  0  0  0
  5  2  1  0  0  0  0
  5 17  1  0  0  0  0
  6 20  1  0  0  0  0
  7 14  1  0  0  0  0
  7  2  1  0  0  0  0
  8  9  2  0  0  0  0
  9 16  1  0  0  0  0
  9 11  1  0  0  0  0
 10 13  2  0  0  0  0
 11  5  1  0  0  0  0
 12 10  1  0  0  0  0
 13 18  1  0  0  0  0
 14 15  1  0  0  0  0
 15 25  1  0  0  0  0
 15  1  1  0  0  0  0
 16  7  1  0  0  0  0
 17 12  1  0  0  0  0
 19  6  2  0  0  0  0
 19  8  1  0  0  0  0
 20 16  2  0  0  0  0
 21 28  1  0  0  0  0
 21 23  1  0  0  0  0
 22 30  2  0  0  0  0
 24 30  1  0  0  0  0
 25 28  1  0  0  0  0
 26 21  1  0  0  0  0
 27 24  1  0  0  0  0
 27 25  1  0  0  0  0
 28 29  2  0  0  0  0
 30 26  1  0  0  0  0
 31 32  1  0  0  0  0
 31 17  1  0  0  0  0
M  END
>  <MODEL>
3

>  <REMARK>
 VINA RESULT:      -8.1      3.014      7.004
  Name = 
  2 active torsions:
  status: ('A' for Active; 'I' for Inactive)
    1  A    between atoms: C_13  and  C_29
    2  A    between atoms: C_16  and  C_27
                            x       y       z     vdW  Elec       q    Type
                         _______ _______ _______ _____ _____    ______ ____

>  <TORSDO>
F 2

$$$$
=
 OpenBabel11052419173D

 32 37  0  0  1  0  0  0  0  0999 V2000
  191.0170  174.7770  143.8920 C   0  0  1  0  0  3  0  0  0  0  0  0
  189.1050  176.3640  144.1740 C   0  0  1  0  0  3  0  0  0  0  0  0
  192.4900  174.5980  144.2480 C   0  0  0  0  0  2  0  0  0  0  0  0
  190.5610  176.0980  144.5020 C   0  0  1  0  0  3  0  0  0  0  0  0
  188.6450  177.6000  144.8320 N   0  0  1  0  0  0  0  0  0  0  0  0
  186.2920  177.5650  140.3020 C   0  0  0  0  0  3  0  0  0  0  0  0
  189.0810  176.4970  142.6510 C   0  0  1  0  0  3  0  0  0  0  0  0
  185.7850  178.3850  142.5220 C   0  0  0  0  0  3  0  0  0  0  0  0
  186.9540  177.7940  143.0150 C   0  0  0  0  0  0  0  0  0  0  0  0
  190.8340  176.2010  145.9680 C   0  0  0  0  0  0  0  0  0  0  0  0
  187.2390  177.8740  144.4880 C   0  0  0  0  0  2  0  0  0  0  0  0
  190.0650  177.0850  146.7240 O   0  0  0  0  0  0  0  0  0  0  0  0
  191.8410  175.5240  146.5290 C   0  0  0  0  0  3  0  0  0  0  0  0
  189.3930  175.1960  142.0510 N   0  0  0  0  0  2  0  0  0  0  0  0
  190.7880  174.8400  142.3680 C   0  0  2  0  0  3  0  0  0  0  0  0
  187.7780  177.0480  142.1520 C   0  0  0  0  0  0  0  0  0  0  0  0
  188.7500  177.4680  146.3090 C   0  0  2  0  0  3  0  0  0  0  0  0
  192.6430  174.4890  145.7710 C   0  0  0  0  0  2  0  0  0  0  0  0
  185.4560  178.2730  141.1680 C   0  0  0  0  0  3  0  0  0  0  0  0
  187.4540  176.9620  140.7900 C   0  0  0  0  0  3  0  0  0  0  0  0
  191.2440  173.2280  139.1030 C   0  0  1  0  0  3  0  0  0  0  0  0
  191.1280  169.5870  139.7410 O   0  0  0  0  0  0  0  0  0  0  0  0
  191.6570  173.9430  137.9920 F   0  0  0  0  0  0  0  0  0  0  0  0
  190.3910  171.2390  141.1850 N   0  0  0  0  0  2  0  0  0  0  0  0
  191.1780  173.5230  141.6840 C   0  0  1  0  0  3  0  0  0  0  0  0
  191.6190  171.7610  138.9460 C   0  0  0  0  0  2  0  0  0  0  0  0
  189.9730  172.5910  141.5360 C   0  0  0  0  0  2  0  0  0  0  0  0
  191.8460  173.7880  140.3620 C   0  0  0  0  0  0  0  0  0  0  0  0
  193.0960  174.2570  140.3570 C   0  0  0  0  0  2  0  0  0  0  0  0
  191.0180  170.8200  139.9610 C   0  0  0  0  0  0  0  0  0  0  0  0
  187.7030  176.5350  146.9440 C   0  0  0  0  0  2  0  0  0  0  0  0
  188.2580  175.2960  147.2680 O   0  0  0  0  0  1  0  0  0  0  0  0
  1  3  1  6  0  0  0
  1  4  1  0  0  0  0
  2  4  1  0  0  0  0
  2  5  1  0  0  0  0
  3 18  1  0  0  0  0
  4 10  1  0  0  0  0
  5 17  1  0  0  0  0
  6 20  2  0  0  0  0
  6 19  1  0  0  0  0
  7  2  1  0  0  0  0
  8  9  1  0  0  0  0
  9 11  1  0  0  0  0
 10 13  2  0  0  0  0
 10 12  1  0  0  0  0
 11  5  1  0  0  0  0
 14 15  1  0  0  0  0
 14  7  1  0  0  0  0
 15  1  1  0  0  0  0
 16  7  1  0  0  0  0
 16  9  2  0  0  0  0
 17 12  1  0  0  0  0
 17 31  1  0  0  0  0
 18 13  1  0  0  0  0
 19  8  2  0  0  0  0
 20 16  1  0  0  0  0
 21 28  1  0  0  0  0
 22 30  2  0  0  0  0
 23 21  1  0  0  0  0
 24 27  1  0  0  0  0
 25 15  1  0  0  0  0
 26 21  1  0  0  0  0
 26 30  1  0  0  0  0
 27 25  1  0  0  0  0
 28 25  1  0  0  0  0
 29 28  2  0  0  0  0
 30 24  1  0  0  0  0
 31 32  1  0  0  0  0
M  END
>  <MODEL>
4

>  <REMARK>
 VINA RESULT:      -7.7      1.589      1.864
  Name = 
  2 active torsions:
  status: ('A' for Active; 'I' for Inactive)
    1  A    between atoms: C_13  and  C_29
    2  A    between atoms: C_16  and  C_27
                            x       y       z     vdW  Elec       q    Type
                         _______ _______ _______ _____ _____    ______ ____

>  <TORSDO>
F 2

$$$$
=
 OpenBabel11052419173D

 32 37  0  0  1  0  0  0  0  0999 V2000
  190.0580  176.3760  144.6180 C   0  0  1  0  0  3  0  0  0  0  0  0
  187.7320  177.2860  144.4960 C   0  0  1  0  0  3  0  0  0  0  0  0
  191.4080  176.6170  145.2910 C   0  0  0  0  0  2  0  0  0  0  0  0
  189.0990  177.4420  145.1350 C   0  0  1  0  0  3  0  0  0  0  0  0
  186.7850  178.2660  145.0570 N   0  0  1  0  0  0  0  0  0  0  0  0
  185.5480  177.9160  140.1180 C   0  0  0  0  0  3  0  0  0  0  0  0
  187.9830  177.5360  143.0080 C   0  0  1  0  0  3  0  0  0  0  0  0
  184.3650  178.3520  142.1830 C   0  0  0  0  0  3  0  0  0  0  0  0
  185.5310  178.0990  142.9130 C   0  0  0  0  0  0  0  0  0  0  0  0
  189.0180  177.4960  146.6260 C   0  0  0  0  0  0  0  0  0  0  0  0
  185.4660  178.1340  144.4140 C   0  0  0  0  0  2  0  0  0  0  0  0
  187.8740  178.0400  147.2080 O   0  0  0  0  0  0  0  0  0  0  0  0
  190.0470  177.1060  147.3860 C   0  0  0  0  0  3  0  0  0  0  0  0
  188.8020  176.4450  142.4700 N   0  0  0  0  0  2  0  0  0  0  0  0
  190.1410  176.4980  143.0830 C   0  0  2  0  0  3  0  0  0  0  0  0
  186.7060  177.7120  142.2420 C   0  0  0  0  0  0  0  0  0  0  0  0
  186.6200  178.0450  146.5180 C   0  0  2  0  0  3  0  0  0  0  0  0
  191.2690  176.4290  146.8070 C   0  0  0  0  0  2  0  0  0  0  0  0
  184.3730  178.2630  140.7880 C   0  0  0  0  0  3  0  0  0  0  0  0
  186.7130  177.6500  140.8410 C   0  0  0  0  0  3  0  0  0  0  0  0
  192.1430  173.5300  143.8880 C   0  0  1  0  0  3  0  0  0  0  0  0
  194.5080  173.1050  141.0760 O   0  0  0  0  0  0  0  0  0  0  0  0
  191.7890  172.6720  144.9140 F   0  0  0  0  0  0  0  0  0  0  0  0
  193.3080  175.0240  141.5570 N   0  0  0  0  0  2  0  0  0  0  0  0
  191.0540  175.4230  142.4800 C   0  0  1  0  0  3  0  0  0  0  0  0
  192.9800  172.7880  142.8560 C   0  0  0  0  0  2  0  0  0  0  0  0
  192.5070  175.8990  142.4060 C   0  0  0  0  0  2  0  0  0  0  0  0
  190.9270  174.1300  143.2390 C   0  0  0  0  0  0  0  0  0  0  0  0
  189.8220  173.3980  143.0800 C   0  0  0  0  0  2  0  0  0  0  0  0
  193.6440  173.6500  141.8100 C   0  0  0  0  0  0  0  0  0  0  0  0
  185.8080  176.7900  146.8870 C   0  0  0  0  0  2  0  0  0  0  0  0
  185.9900  176.4460  148.2280 O   0  0  0  0  0  1  0  0  0  0  0  0
  1  4  1  0  0  0  0
  1  3  1  1  0  0  0
  2  5  1  0  0  0  0
  2  4  1  0  0  0  0
  3 18  1  0  0  0  0
  4 10  1  0  0  0  0
  5 17  1  0  0  0  0
  6 19  2  0  0  0  0
  6 20  1  0  0  0  0
  7  2  1  0  0  0  0
  8  9  2  0  0  0  0
  9 11  1  0  0  0  0
 10 12  1  0  0  0  0
 10 13  2  0  0  0  0
 11  5  1  0  0  0  0
 14  7  1  0  0  0  0
 14 15  1  0  0  0  0
 15  1  1  0  0  0  0
 16  9  1  0  0  0  0
 16  7  1  0  0  0  0
 17 31  1  0  0  0  0
 17 12  1  0  0  0  0
 18 13  1  0  0  0  0
 19  8  1  0  0  0  0
 20 16  2  0  0  0  0
 21 23  1  0  0  0  0
 22 30  2  0  0  0  0
 24 30  1  0  0  0  0
 24 27  1  0  0  0  0
 25 15  1  0  0  0  0
 25 28  1  0  0  0  0
 26 21  1  0  0  0  0
 27 25  1  0  0  0  0
 28 21  1  0  0  0  0
 29 28  2  0  0  0  0
 30 26  1  0  0  0  0
 31 32  1  0  0  0  0
M  END
>  <MODEL>
5

>  <REMARK>
 VINA RESULT:      -7.6      2.161      2.464
  Name = 
  2 active torsions:
  status: ('A' for Active; 'I' for Inactive)
    1  A    between atoms: C_13  and  C_29
    2  A    between atoms: C_16  and  C_27
                            x       y       z     vdW  Elec       q    Type
                         _______ _______ _______ _____ _____    ______ ____

>  <TORSDO>
F 2

$$$$
=
 OpenBabel11052419173D

 32 37  0  0  1  0  0  0  0  0999 V2000
  191.2860  174.5760  141.9080 C   0  0  1  0  0  3  0  0  0  0  0  0
  189.1920  175.6850  142.7060 C   0  0  1  0  0  3  0  0  0  0  0  0
  191.7790  173.3480  141.1470 C   0  0  0  0  0  2  0  0  0  0  0  0
  189.7640  174.5050  141.9440 C   0  0  1  0  0  3  0  0  0  0  0  0
  187.7190  175.6580  142.6700 N   0  0  1  0  0  0  0  0  0  0  0  0
  188.8910  177.3680  147.3340 C   0  0  0  0  0  3  0  0  0  0  0  0
  189.7220  175.5060  144.1300 C   0  0  1  0  0  3  0  0  0  0  0  0
  187.0860  177.7050  145.7580 C   0  0  0  0  0  3  0  0  0  0  0  0
  187.7640  176.9360  144.8070 C   0  0  0  0  0  0  0  0  0  0  0  0
  189.1440  174.3570  140.5920 C   0  0  0  0  0  0  0  0  0  0  0  0
  187.1640  176.7870  143.4370 C   0  0  0  0  0  2  0  0  0  0  0  0
  187.8210  174.7640  140.4220 O   0  0  0  0  0  0  0  0  0  0  0  0
  189.8110  173.7760  139.5900 C   0  0  0  0  0  3  0  0  0  0  0  0
  191.1750  175.6980  144.1280 N   0  0  0  0  0  2  0  0  0  0  0  0
  191.8070  174.6100  143.3600 C   0  0  2  0  0  3  0  0  0  0  0  0
  189.0350  176.4120  145.1070 C   0  0  0  0  0  0  0  0  0  0  0  0
  187.2350  175.7590  141.2690 C   0  0  2  0  0  3  0  0  0  0  0  0
  191.2720  173.4010  139.7000 C   0  0  0  0  0  2  0  0  0  0  0  0
  187.6470  177.9190  147.0200 C   0  0  0  0  0  3  0  0  0  0  0  0
  189.5790  176.6090  146.3840 C   0  0  0  0  0  3  0  0  0  0  0  0
  194.6180  175.7220  145.4400 C   0  0  1  0  0  3  0  0  0  0  0  0
  197.4780  176.1580  143.1360 O   0  0  0  0  0  0  0  0  0  0  0  0
  194.5650  175.6660  146.8220 F   0  0  0  0  0  0  0  0  0  0  0  0
  195.2530  176.0030  142.5180 N   0  0  0  0  0  2  0  0  0  0  0  0
  193.3350  174.7320  143.4090 C   0  0  1  0  0  3  0  0  0  0  0  0
  196.0660  175.6750  144.9730 C   0  0  0  0  0  2  0  0  0  0  0  0
  193.8150  176.0300  142.7570 C   0  0  0  0  0  2  0  0  0  0  0  0
  193.8350  174.5970  144.8220 C   0  0  0  0  0  0  0  0  0  0  0  0
  193.8300  173.3900  145.3920 C   0  0  0  0  0  2  0  0  0  0  0  0
  196.2920  175.9760  143.5120 C   0  0  0  0  0  0  0  0  0  0  0  0
  187.3970  177.1530  140.6340 C   0  0  0  0  0  2  0  0  0  0  0  0
  186.5280  177.3230  139.5550 O   0  0  0  0  0  1  0  0  0  0  0  0
  1  3  1  1  0  0  0
  1  4  1  0  0  0  0
  1 15  1  0  0  0  0
  2  7  1  0  0  0  0
  4  2  1  0  0  0  0
  5  2  1  0  0  0  0
  5 11  1  0  0  0  0
  7 16  1  0  0  0  0
  8 19  2  0  0  0  0
  9 16  2  0  0  0  0
  9  8  1  0  0  0  0
 10  4  1  0  0  0  0
 11  9  1  0  0  0  0
 12 10  1  0  0  0  0
 12 17  1  0  0  0  0
 13 18  1  0  0  0  0
 13 10  2  0  0  0  0
 14  7  1  0  0  0  0
 15 25  1  0  0  0  0
 15 14  1  0  0  0  0
 16 20  1  0  0  0  0
 17  5  1  0  0  0  0
 18  3  1  0  0  0  0
 19  6  1  0  0  0  0
 20  6  2  0  0  0  0
 21 23  1  0  0  0  0
 22 30  2  0  0  0  0
 24 27  1  0  0  0  0
 24 30  1  0  0  0  0
 25 28  1  0  0  0  0
 26 21  1  0  0  0  0
 27 25  1  0  0  0  0
 28 29  2  0  0  0  0
 28 21  1  0  0  0  0
 30 26  1  0  0  0  0
 31 17  1  0  0  0  0
 32 31  1  0  0  0  0
M  END
>  <MODEL>
6

>  <REMARK>
 VINA RESULT:      -7.3      3.695      5.904
  Name = 
  2 active torsions:
  status: ('A' for Active; 'I' for Inactive)
    1  A    between atoms: C_13  and  C_29
    2  A    between atoms: C_16  and  C_27
                            x       y       z     vdW  Elec       q    Type
                         _______ _______ _______ _____ _____    ______ ____

>  <TORSDO>
F 2

$$$$
=
 OpenBabel11052419173D

 32 37  0  0  1  0  0  0  0  0999 V2000
  190.5860  175.9900  145.1230 C   0  0  1  0  0  3  0  0  0  0  0  0
  192.7690  175.4690  144.0190 C   0  0  1  0  0  3  0  0  0  0  0  0
  189.8140  175.7650  146.4200 C   0  0  0  0  0  2  0  0  0  0  0  0
  191.9410  175.3100  145.2800 C   0  0  1  0  0  3  0  0  0  0  0  0
  194.1070  174.8800  144.2020 N   0  0  1  0  0  0  0  0  0  0  0  0
  192.8590  173.8350  139.3640 C   0  0  0  0  0  3  0  0  0  0  0  0
  191.9690  174.7230  142.9490 C   0  0  1  0  0  3  0  0  0  0  0  0
  194.9060  174.2700  140.5800 C   0  0  0  0  0  3  0  0  0  0  0  0
  194.1680  174.5540  141.7340 C   0  0  0  0  0  0  0  0  0  0  0  0
  192.6880  175.7460  146.4990 C   0  0  0  0  0  0  0  0  0  0  0  0
  194.8990  175.0080  142.9660 C   0  0  0  0  0  2  0  0  0  0  0  0
  194.0750  175.6030  146.5130 O   0  0  0  0  0  0  0  0  0  0  0  0
  192.0390  176.1880  147.5810 C   0  0  0  0  0  3  0  0  0  0  0  0
  190.7160  175.4420  142.6980 N   0  0  0  0  0  2  0  0  0  0  0  0
  189.8700  175.3760  143.9030 C   0  0  2  0  0  3  0  0  0  0  0  0
  192.7620  174.5170  141.6920 C   0  0  0  0  0  0  0  0  0  0  0  0
  194.8310  175.5770  145.2970 C   0  0  2  0  0  3  0  0  0  0  0  0
  190.5490  176.4440  147.5830 C   0  0  0  0  0  2  0  0  0  0  0  0
  194.2530  173.9090  139.3980 C   0  0  0  0  0  3  0  0  0  0  0  0
  192.1160  174.1290  140.5100 C   0  0  0  0  0  3  0  0  0  0  0  0
  187.6370  176.6210  141.2700 C   0  0  1  0  0  3  0  0  0  0  0  0
  185.2880  178.9380  142.9410 O   0  0  0  0  0  0  0  0  0  0  0  0
  187.6030  176.0400  140.0140 F   0  0  0  0  0  0  0  0  0  0  0  0
  187.2960  178.1840  143.8110 N   0  0  0  0  0  2  0  0  0  0  0  0
  188.5140  176.0450  143.6480 C   0  0  1  0  0  3  0  0  0  0  0  0
  186.3110  177.3080  141.5620 C   0  0  0  0  0  2  0  0  0  0  0  0
  188.6160  177.5690  143.7360 C   0  0  0  0  0  2  0  0  0  0  0  0
  187.9390  175.5980  142.3310 C   0  0  0  0  0  0  0  0  0  0  0  0
  187.4410  174.3630  142.2330 C   0  0  0  0  0  2  0  0  0  0  0  0
  186.2880  178.1910  142.7860 C   0  0  0  0  0  0  0  0  0  0  0  0
  195.3130  176.9960  144.9450 C   0  0  0  0  0  2  0  0  0  0  0  0
  194.9410  177.9160  145.9280 O   0  0  0  0  0  1  0  0  0  0  0  0
  1  4  1  0  0  0  0
  1  3  1  1  0  0  0
  2  5  1  0  0  0  0
  2  4  1  0  0  0  0
  3 18  1  0  0  0  0
  4 10  1  0  0  0  0
  5 17  1  0  0  0  0
  6 19  2  0  0  0  0
  6 20  1  0  0  0  0
  7  2  1  0  0  0  0
  8  9  2  0  0  0  0
  9 11  1  0  0  0  0
 10 12  1  0  0  0  0
 10 13  2  0  0  0  0
 11  5  1  0  0  0  0
 13 18  1  0  0  0  0
 14  7  1  0  0  0  0
 14 15  1  0  0  0  0
 15  1  1  0  0  0  0
 16  9  1  0  0  0  0
 16  7  1  0  0  0  0
 17 12  1  0  0  0  0
 19  8  1  0  0  0  0
 20 16  2  0  0  0  0
 21 26  1  0  0  0  0
 21 28  1  0  0  0  0
 23 21  1  0  0  0  0
 25 27  1  0  0  0  0
 25 15  1  0  0  0  0
 26 30  1  0  0  0  0
 27 24  1  0  0  0  0
 28 25  1  0  0  0  0
 29 28  2  0  0  0  0
 30 22  2  0  0  0  0
 30 24  1  0  0  0  0
 31 17  1  0  0  0  0
 31 32  1  0  0  0  0
M  END
>  <MODEL>
7

>  <REMARK>
 VINA RESULT:      -7.2      3.024      6.746
  Name = 
  2 active torsions:
  status: ('A' for Active; 'I' for Inactive)
    1  A    between atoms: C_13  and  C_29
    2  A    between atoms: C_16  and  C_27
                            x       y       z     vdW  Elec       q    Type
                         _______ _______ _______ _____ _____    ______ ____

>  <TORSDO>
F 2

$$$$
=
 OpenBabel11052419173D

 32 37  0  0  1  0  0  0  0  0999 V2000
  193.1430  175.8890  144.5700 C   0  0  1  0  0  3  0  0  0  0  0  0
  193.6750  174.1750  142.8280 C   0  0  1  0  0  3  0  0  0  0  0  0
  193.7500  176.6060  145.7720 C   0  0  0  0  0  2  0  0  0  0  0  0
  194.2080  174.9480  144.0200 C   0  0  1  0  0  3  0  0  0  0  0  0
  194.7300  173.3260  142.2490 N   0  0  1  0  0  0  0  0  0  0  0  0
  190.4500  170.5760  141.8310 C   0  0  0  0  0  3  0  0  0  0  0  0
  192.5330  173.3370  143.4040 C   0  0  1  0  0  3  0  0  0  0  0  0
  192.5050  170.8020  140.5740 C   0  0  0  0  0  3  0  0  0  0  0  0
  192.9110  171.8460  141.4110 C   0  0  0  0  0  0  0  0  0  0  0  0
  195.5020  175.6280  143.7130 C   0  0  0  0  0  0  0  0  0  0  0  0
  194.2030  172.5530  141.1100 C   0  0  0  0  0  2  0  0  0  0  0  0
  196.3580  175.0370  142.7840 O   0  0  0  0  0  0  0  0  0  0  0  0
  195.8700  176.7340  144.3690 C   0  0  0  0  0  3  0  0  0  0  0  0
  191.4460  174.2280  143.8210 N   0  0  0  0  0  2  0  0  0  0  0  0
  191.9040  175.0540  144.9530 C   0  0  2  0  0  3  0  0  0  0  0  0
  192.0620  172.2860  142.4430 C   0  0  0  0  0  0  0  0  0  0  0  0
  195.8590  174.1630  141.7650 C   0  0  2  0  0  3  0  0  0  0  0  0
  194.9420  177.4590  145.3170 C   0  0  0  0  0  2  0  0  0  0  0  0
  191.2780  170.1660  140.7850 C   0  0  0  0  0  3  0  0  0  0  0  0
  190.8450  171.6270  142.6640 C   0  0  0  0  0  3  0  0  0  0  0  0
  188.8170  175.0370  146.9370 C   0  0  1  0  0  3  0  0  0  0  0  0
  186.9730  178.0950  145.9740 O   0  0  0  0  0  0  0  0  0  0  0  0
  188.6410  174.1660  147.9970 F   0  0  0  0  0  0  0  0  0  0  0  0
  188.7170  177.1370  144.7930 N   0  0  0  0  0  2  0  0  0  0  0  0
  190.7640  175.9400  145.4720 C   0  0  1  0  0  3  0  0  0  0  0  0
  187.9440  176.2700  147.1260 C   0  0  0  0  0  2  0  0  0  0  0  0
  189.6370  176.0620  144.4430 C   0  0  0  0  0  2  0  0  0  0  0  0
  190.2600  175.4360  146.7970 C   0  0  0  0  0  0  0  0  0  0  0  0
  191.0120  175.6250  147.8840 C   0  0  0  0  0  2  0  0  0  0  0  0
  187.8440  177.1890  145.9340 C   0  0  0  0  0  0  0  0  0  0  0  0
  195.5590  174.9640  140.4840 C   0  0  0  0  0  2  0  0  0  0  0  0
  196.6530  175.7450  140.1070 O   0  0  0  0  0  1  0  0  0  0  0  0
  1 15  1  0  0  0  0
  1  3  1  1  0  0  0
  2  7  1  0  0  0  0
  2  4  1  0  0  0  0
  4  1  1  0  0  0  0
  5  2  1  0  0  0  0
  6 20  1  0  0  0  0
  7 14  1  0  0  0  0
  8 19  1  0  0  0  0
  8  9  2  0  0  0  0
  9 16  1  0  0  0  0
 10  4  1  0  0  0  0
 10 13  2  0  0  0  0
 11  9  1  0  0  0  0
 11  5  1  0  0  0  0
 12 10  1  0  0  0  0
 13 18  1  0  0  0  0
 14 15  1  0  0  0  0
 15 25  1  0  0  0  0
 16 20  2  0  0  0  0
 16  7  1  0  0  0  0
 17  5  1  0  0  0  0
 17 12  1  0  0  0  0
 18  3  1  0  0  0  0
 19  6  2  0  0  0  0
 21 26  1  0  0  0  0
 21 23  1  0  0  0  0
 24 30  1  0  0  0  0
 25 28  1  0  0  0  0
 27 24  1  0  0  0  0
 27 25  1  0  0  0  0
 28 21  1  0  0  0  0
 28 29  2  0  0  0  0
 30 22  2  0  0  0  0
 30 26  1  0  0  0  0
 31 17  1  0  0  0  0
 32 31  1  0  0  0  0
M  END
>  <MODEL>
8

>  <REMARK>
 VINA RESULT:      -7.2      3.650      8.056
  Name = 
  2 active torsions:
  status: ('A' for Active; 'I' for Inactive)
    1  A    between atoms: C_13  and  C_29
    2  A    between atoms: C_16  and  C_27
                            x       y       z     vdW  Elec       q    Type
                         _______ _______ _______ _____ _____    ______ ____

>  <TORSDO>
F 2

$$$$
=
 OpenBabel11052419173D

 32 37  0  0  1  0  0  0  0  0999 V2000
  190.7030  174.7310  143.0930 C   0  0  1  0  0  3  0  0  0  0  0  0
  188.5060  175.9160  143.2530 C   0  0  1  0  0  3  0  0  0  0  0  0
  191.3520  173.4820  142.5030 C   0  0  0  0  0  2  0  0  0  0  0  0
  189.2340  174.7120  142.6850 C   0  0  1  0  0  3  0  0  0  0  0  0
  187.1070  175.9380  142.7910 N   0  0  1  0  0  0  0  0  0  0  0  0
  186.9360  177.6410  147.6000 C   0  0  0  0  0  3  0  0  0  0  0  0
  188.5950  175.7290  144.7680 C   0  0  1  0  0  3  0  0  0  0  0  0
  185.6780  178.0280  145.5700 C   0  0  0  0  0  3  0  0  0  0  0  0
  186.5750  177.2300  144.8530 C   0  0  0  0  0  0  0  0  0  0  0  0
  189.0280  174.5750  141.2120 C   0  0  0  0  0  0  0  0  0  0  0  0
  186.3930  177.0910  143.3680 C   0  0  0  0  0  2  0  0  0  0  0  0
  187.8260  175.0260  140.6670 O   0  0  0  0  0  0  0  0  0  0  0  0
  189.9360  173.9650  140.4440 C   0  0  0  0  0  3  0  0  0  0  0  0
  189.9920  175.8710  145.1890 N   0  0  0  0  0  2  0  0  0  0  0  0
  190.7810  174.7580  144.6330 C   0  0  2  0  0  3  0  0  0  0  0  0
  187.6850  176.6650  145.5080 C   0  0  0  0  0  0  0  0  0  0  0  0
  187.0540  176.0460  141.3100 C   0  0  2  0  0  3  0  0  0  0  0  0
  191.2880  173.5410  140.9710 C   0  0  0  0  0  2  0  0  0  0  0  0
  185.8560  178.2320  146.9410 C   0  0  0  0  0  3  0  0  0  0  0  0
  187.8430  176.8530  146.8880 C   0  0  0  0  0  3  0  0  0  0  0  0
  194.2220  175.4880  143.5870 C   0  0  1  0  0  3  0  0  0  0  0  0
  196.4110  173.9190  146.1220 O   0  0  0  0  0  0  0  0  0  0  0  0
  194.4970  176.4150  142.5960 F   0  0  0  0  0  0  0  0  0  0  0  0
  194.1690  173.4510  145.7920 N   0  0  0  0  0  2  0  0  0  0  0  0
  192.2330  174.8270  145.1230 C   0  0  1  0  0  3  0  0  0  0  0  0
  195.4200  175.3470  144.5150 C   0  0  0  0  0  2  0  0  0  0  0  0
  192.9170  173.4600  145.0440 C   0  0  0  0  0  2  0  0  0  0  0  0
  192.9990  175.8810  144.3700 C   0  0  0  0  0  0  0  0  0  0  0  0
  192.7600  177.1660  144.6400 C   0  0  0  0  0  2  0  0  0  0  0  0
  195.3590  174.1980  145.4910 C   0  0  0  0  0  0  0  0  0  0  0  0
  187.4410  177.4290  140.7540 C   0  0  0  0  0  2  0  0  0  0  0  0
  186.4700  177.9120  139.8760 O   0  0  0  0  0  1  0  0  0  0  0  0
  1  3  1  1  0  0  0
  1 15  1  0  0  0  0
  2  7  1  0  0  0  0
  4  1  1  0  0  0  0
  4  2  1  0  0  0  0
  5  2  1  0  0  0  0
  5 11  1  0  0  0  0
  7 14  1  0  0  0  0
  7 16  1  0  0  0  0
  8 19  2  0  0  0  0
  9 16  2  0  0  0  0
  9  8  1  0  0  0  0
 10  4  1  0  0  0  0
 11  9  1  0  0  0  0
 12 10  1  0  0  0  0
 12 17  1  0  0  0  0
 13 18  1  0  0  0  0
 13 10  2  0  0  0  0
 15 25  1  0  0  0  0
 15 14  1  0  0  0  0
 16 20  1  0  0  0  0
 17  5  1  0  0  0  0
 18  3  1  0  0  0  0
 19  6  1  0  0  0  0
 20  6  2  0  0  0  0
 21 28  1  0  0  0  0
 21 26  1  0  0  0  0
 23 21  1  0  0  0  0
 26 30  1  0  0  0  0
 27 25  1  0  0  0  0
 27 24  1  0  0  0  0
 28 29  2  0  0  0  0
 28 25  1  0  0  0  0
 30 24  1  0  0  0  0
 30 22  2  0  0  0  0
 31 17  1  0  0  0  0
 32 31  1  0  0  0  0
M  END
>  <MODEL>
9

>  <REMARK>
 VINA RESULT:      -7.2      3.262      5.192
  Name = 
  2 active torsions:
  status: ('A' for Active; 'I' for Inactive)
    1  A    between atoms: C_13  and  C_29
    2  A    between atoms: C_16  and  C_27
                            x       y       z     vdW  Elec       q    Type
                         _______ _______ _______ _____ _____    ______ ____

>  <TORSDO>
F 2

$$$$
