=
 OpenBabel11052418163D

 28 29  0  0  1  0  0  0  0  0999 V2000
  187.0860  177.3440  143.4810 O   0  0  0  0  0  0  0  0  0  0  0  0
  186.7160  176.2760  146.1060 O   0  0  0  0  0  1  0  0  0  0  0  0
  189.0240  176.6810  145.5730 C   0  0  1  0  0  3  0  0  0  0  0  0
  190.1690  178.0250  143.7760 C   0  0  0  0  0  3  0  0  0  0  0  0
  187.6320  177.2930  145.8240 C   0  0  1  0  0  3  0  0  0  0  0  0
  190.0280  177.6760  145.0640 C   0  0  0  0  0  3  0  0  0  0  0  0
  189.3610  177.5090  142.6120 C   0  0  2  0  0  3  0  0  0  0  0  0
  187.9060  177.9860  142.5440 C   0  0  0  0  0  2  0  0  0  0  0  0
  187.1360  178.1370  144.6370 C   0  0  2  0  0  3  0  0  0  0  0  0
  185.7990  180.0900  144.2580 O   0  0  0  0  0  1  0  0  0  0  0  0
  185.7840  178.8510  144.9010 C   0  0  2  0  0  0  0  0  0  0  0  0
  185.5800  179.1370  146.3990 C   0  0  0  0  0  2  0  0  0  0  0  0
  184.3290  178.5060  146.9960 C   0  0  0  0  0  1  0  0  0  0  0  0
  184.5880  178.0600  144.3360 C   0  0  0  0  0  2  0  0  0  0  0  0
  183.8040  178.7750  143.2400 C   0  0  0  0  0  2  0  0  0  0  0  0
  184.0520  178.1210  141.8950 C   0  0  0  0  0  1  0  0  0  0  0  0
  191.0850  175.6490  142.3580 C   0  0  0  0  0  1  0  0  0  0  0  0
  189.6400  176.0720  142.1670 C   0  0  0  0  0  2  0  0  0  0  0  0
  189.6110  175.9520  146.7920 C   0  0  1  0  0  3  0  0  0  0  0  0
  189.7440  174.4310  146.6310 C   0  0  0  0  0  2  0  0  0  0  0  0
  189.4970  173.9610  145.2030 C   0  0  0  0  0  2  0  0  0  0  0  0
  190.1440  172.6070  144.9730 C   0  0  0  0  0  2  0  0  0  0  0  0
  191.6000  172.7780  144.5810 C   0  0  0  0  0  1  0  0  0  0  0  0
  190.8640  176.6340  147.3390 C   0  0  0  0  0  2  0  0  0  0  0  0
  192.0550  175.6880  147.3350 C   0  0  0  0  0  2  0  0  0  0  0  0
  193.2290  176.3050  146.5980 C   0  0  2  0  0  3  0  0  0  0  0  0
  193.1370  175.9690  145.2360 O   0  0  0  0  0  0  0  0  0  0  0  0
  194.0660  175.2430  146.0040 C   0  0  0  0  0  2  0  0  0  0  0  0
  1  9  1  0  0  0  0
  3  5  1  0  0  0  0
  3 19  1  1  0  0  0
  4  6  2  0  0  0  0
  5  2  1  6  0  0  0
  6  3  1  0  0  0  0
  7 18  1  1  0  0  0
  7  4  1  0  0  0  0
  8  7  1  0  0  0  0
  8  1  1  0  0  0  0
  9 11  1  1  0  0  0
  9  5  1  0  0  0  0
 11 10  1  6  0  0  0
 11 12  1  0  0  0  0
 12 13  1  0  0  0  0
 14 11  1  0  0  0  0
 15 14  1  0  0  0  0
 16 15  1  0  0  0  0
 18 17  1  0  0  0  0
 19 20  1  6  0  0  0
 19 24  1  0  0  0  0
 21 20  1  0  0  0  0
 22 21  1  0  0  0  0
 23 22  1  0  0  0  0
 25 24  1  0  0  0  0
 26 25  1  1  0  0  0
 27 28  1  0  0  0  0
 27 26  1  0  0  0  0
 28 26  1  0  0  0  0
M  END
>  <MODEL>
1

>  <REMARK>
 VINA RESULT:      -6.1      0.000      0.000
  Name = 
  12 active torsions:
  status: ('A' for Active; 'I' for Inactive)
    1  A    between atoms: C_3  and  C_7
    2  A    between atoms: C_3  and  C_11
    3  A    between atoms: C_3  and  C_27
    4  A    between atoms: C_4  and  C_12
    5  A    between atoms: C_4  and  C_24
    6  A    between atoms: C_6  and  C_11
    7  A    between atoms: C_9  and  C_13
    8  A    between atoms: C_9  and  C_18
    9  A    between atoms: C_10  and  C_13
   10  A    between atoms: C_13  and  C_24
   11  A    between atoms: C_14  and  C_18
   12  A    between atoms: C_19  and  C_21
                            x       y       z     vdW  Elec       q    Type
                         _______ _______ _______ _____ _____    ______ ____

>  <TORSDO>
F 12

$$$$
=
 OpenBabel11052418163D

 28 29  0  0  1  0  0  0  0  0999 V2000
  188.4880  177.3890  145.6170 O   0  0  0  0  0  0  0  0  0  0  0  0
  188.8280  176.8420  142.8320 O   0  0  0  0  0  1  0  0  0  0  0  0
  189.7840  175.1500  144.2460 C   0  0  1  0  0  3  0  0  0  0  0  0
  189.5100  174.5840  146.6860 C   0  0  0  0  0  3  0  0  0  0  0  0
  188.5000  175.8530  143.7640 C   0  0  1  0  0  3  0  0  0  0  0  0
  189.5520  174.2120  145.3970 C   0  0  0  0  0  3  0  0  0  0  0  0
  189.6730  175.9840  147.2230 C   0  0  2  0  0  3  0  0  0  0  0  0
  188.5130  176.9450  146.9460 C   0  0  0  0  0  2  0  0  0  0  0  0
  187.6930  176.4650  144.9220 C   0  0  2  0  0  3  0  0  0  0  0  0
  185.8970  176.4250  143.3360 O   0  0  0  0  0  1  0  0  0  0  0  0
  186.3430  177.0900  144.4800 C   0  0  2  0  0  0  0  0  0  0  0  0
  186.5070  178.5690  144.0930 C   0  0  0  0  0  2  0  0  0  0  0  0
  186.0550  178.9030  142.6770 C   0  0  0  0  0  1  0  0  0  0  0  0
  185.2480  176.9310  145.5530 C   0  0  0  0  0  2  0  0  0  0  0  0
  184.6640  178.2400  146.0740 C   0  0  0  0  0  2  0  0  0  0  0  0
  185.1180  178.4960  147.4970 C   0  0  0  0  0  1  0  0  0  0  0  0
  191.5380  177.1460  148.5160 C   0  0  0  0  0  1  0  0  0  0  0  0
  191.0850  176.5730  147.1850 C   0  0  0  0  0  2  0  0  0  0  0  0
  190.5390  174.4050  143.1340 C   0  0  1  0  0  3  0  0  0  0  0  0
  192.0680  174.5310  143.1960 C   0  0  0  0  0  2  0  0  0  0  0  0
  192.5320  175.7210  144.0250 C   0  0  0  0  0  2  0  0  0  0  0  0
  193.6790  175.3170  144.9350 C   0  0  0  0  0  2  0  0  0  0  0  0
  193.3120  174.0760  145.7260 C   0  0  0  0  0  1  0  0  0  0  0  0
  190.0370  172.9740  142.9380 C   0  0  0  0  0  2  0  0  0  0  0  0
  189.0760  172.8800  141.7640 C   0  0  0  0  0  2  0  0  0  0  0  0
  189.4670  173.8570  140.6700 C   0  0  2  0  0  3  0  0  0  0  0  0
  188.3600  174.6690  140.3690 O   0  0  0  0  0  0  0  0  0  0  0  0
  188.6400  173.6260  139.4680 C   0  0  0  0  0  2  0  0  0  0  0  0
  1  8  1  0  0  0  0
  3 19  1  6  0  0  0
  3  6  1  0  0  0  0
  4  7  1  0  0  0  0
  5  2  1  6  0  0  0
  5  3  1  0  0  0  0
  5  9  1  0  0  0  0
  6  4  2  0  0  0  0
  7 18  1  6  0  0  0
  8  7  1  0  0  0  0
  9 11  1  6  0  0  0
  9  1  1  0  0  0  0
 11 10  1  6  0  0  0
 11 14  1  0  0  0  0
 12 11  1  0  0  0  0
 13 12  1  0  0  0  0
 14 15  1  0  0  0  0
 15 16  1  0  0  0  0
 18 17  1  0  0  0  0
 19 24  1  1  0  0  0
 19 20  1  0  0  0  0
 20 21  1  0  0  0  0
 21 22  1  0  0  0  0
 22 23  1  0  0  0  0
 25 24  1  0  0  0  0
 26 25  1  1  0  0  0
 27 26  1  0  0  0  0
 28 27  1  0  0  0  0
 28 26  1  0  0  0  0
M  END
>  <MODEL>
2

>  <REMARK>
 VINA RESULT:      -5.7      2.002      4.654
  Name = 
  12 active torsions:
  status: ('A' for Active; 'I' for Inactive)
    1  A    between atoms: C_3  and  C_7
    2  A    between atoms: C_3  and  C_11
    3  A    between atoms: C_3  and  C_27
    4  A    between atoms: C_4  and  C_12
    5  A    between atoms: C_4  and  C_24
    6  A    between atoms: C_6  and  C_11
    7  A    between atoms: C_9  and  C_13
    8  A    between atoms: C_9  and  C_18
    9  A    between atoms: C_10  and  C_13
   10  A    between atoms: C_13  and  C_24
   11  A    between atoms: C_14  and  C_18
   12  A    between atoms: C_19  and  C_21
                            x       y       z     vdW  Elec       q    Type
                         _______ _______ _______ _____ _____    ______ ____

>  <TORSDO>
F 12

$$$$
=
 OpenBabel11052418163D

 28 29  0  0  1  0  0  0  0  0999 V2000
  188.6670  177.0150  145.8220 O   0  0  0  0  0  0  0  0  0  0  0  0
  188.9980  177.5480  143.0330 O   0  0  0  0  0  1  0  0  0  0  0  0
  189.9570  175.4510  143.7100 C   0  0  1  0  0  3  0  0  0  0  0  0
  189.6910  174.0150  145.7630 C   0  0  0  0  0  3  0  0  0  0  0  0
  188.6720  176.2820  143.5300 C   0  0  1  0  0  3  0  0  0  0  0  0
  189.7290  174.1510  144.4290 C   0  0  0  0  0  3  0  0  0  0  0  0
  189.8560  175.1130  146.7840 C   0  0  2  0  0  3  0  0  0  0  0  0
  188.6960  176.1080  146.8890 C   0  0  0  0  0  2  0  0  0  0  0  0
  187.8690  176.4170  144.8350 C   0  0  2  0  0  3  0  0  0  0  0  0
  186.7490  178.5350  144.7620 O   0  0  0  0  0  1  0  0  0  0  0  0
  186.5180  177.1610  144.6610 C   0  0  2  0  0  0  0  0  0  0  0  0
  185.5270  176.7990  145.7800 C   0  0  0  0  0  2  0  0  0  0  0  0
  184.7400  177.9810  146.3310 C   0  0  0  0  0  1  0  0  0  0  0  0
  185.8870  176.9080  143.2790 C   0  0  0  0  0  2  0  0  0  0  0  0
  185.4570  178.1630  142.5270 C   0  0  0  0  0  2  0  0  0  0  0  0
  183.9470  178.2920  142.5270 C   0  0  0  0  0  1  0  0  0  0  0  0
  191.3500  176.7840  147.9960 C   0  0  0  0  0  1  0  0  0  0  0  0
  191.2680  175.6750  146.9640 C   0  0  0  0  0  2  0  0  0  0  0  0
  190.7080  175.1750  142.3980 C   0  0  1  0  0  3  0  0  0  0  0  0
  192.1820  175.6080  142.3950 C   0  0  0  0  0  2  0  0  0  0  0  0
  192.5370  176.5140  143.5670 C   0  0  0  0  0  2  0  0  0  0  0  0
  193.8270  176.0520  144.2210 C   0  0  0  0  0  2  0  0  0  0  0  0
  193.7560  174.5700  144.5390 C   0  0  0  0  0  1  0  0  0  0  0  0
  190.4720  173.7610  141.8700 C   0  0  0  0  0  2  0  0  0  0  0  0
  190.1100  173.7750  140.3930 C   0  0  0  0  0  2  0  0  0  0  0  0
  188.6040  173.8300  140.2100 C   0  0  2  0  0  3  0  0  0  0  0  0
  188.1870  172.6740  139.5280 O   0  0  0  0  0  0  0  0  0  0  0  0
  188.2720  173.8560  138.7700 C   0  0  0  0  0  2  0  0  0  0  0  0
  1  8  1  0  0  0  0
  3 19  1  6  0  0  0
  3  6  1  0  0  0  0
  4  7  1  0  0  0  0
  5  2  1  1  0  0  0
  5  3  1  0  0  0  0
  5  9  1  0  0  0  0
  6  4  2  0  0  0  0
  7  8  1  0  0  0  0
  7 18  1  6  0  0  0
  9 11  1  6  0  0  0
  9  1  1  0  0  0  0
 11 10  1  1  0  0  0
 11 12  1  0  0  0  0
 12 13  1  0  0  0  0
 14 11  1  0  0  0  0
 15 16  1  0  0  0  0
 15 14  1  0  0  0  0
 18 17  1  0  0  0  0
 19 24  1  1  0  0  0
 20 19  1  0  0  0  0
 20 21  1  0  0  0  0
 21 22  1  0  0  0  0
 22 23  1  0  0  0  0
 25 24  1  0  0  0  0
 26 25  1  6  0  0  0
 27 26  1  0  0  0  0
 28 27  1  0  0  0  0
 28 26  1  0  0  0  0
M  END
>  <MODEL>
3

>  <REMARK>
 VINA RESULT:      -5.6      2.142      4.699
  Name = 
  12 active torsions:
  status: ('A' for Active; 'I' for Inactive)
    1  A    between atoms: C_3  and  C_7
    2  A    between atoms: C_3  and  C_11
    3  A    between atoms: C_3  and  C_27
    4  A    between atoms: C_4  and  C_12
    5  A    between atoms: C_4  and  C_24
    6  A    between atoms: C_6  and  C_11
    7  A    between atoms: C_9  and  C_13
    8  A    between atoms: C_9  and  C_18
    9  A    between atoms: C_10  and  C_13
   10  A    between atoms: C_13  and  C_24
   11  A    between atoms: C_14  and  C_18
   12  A    between atoms: C_19  and  C_21
                            x       y       z     vdW  Elec       q    Type
                         _______ _______ _______ _____ _____    ______ ____

>  <TORSDO>
F 12

$$$$
=
 OpenBabel11052418163D

 28 29  0  0  1  0  0  0  0  0999 V2000
  188.4300  177.2720  144.8570 O   0  0  0  0  0  0  0  0  0  0  0  0
  190.0090  177.3130  142.4750 O   0  0  0  0  0  1  0  0  0  0  0  0
  190.6170  175.5360  143.9760 C   0  0  1  0  0  3  0  0  0  0  0  0
  189.4730  174.4880  145.9600 C   0  0  0  0  0  3  0  0  0  0  0  0
  189.5360  176.1300  143.0510 C   0  0  1  0  0  3  0  0  0  0  0  0
  190.1270  174.3760  144.7940 C   0  0  0  0  0  3  0  0  0  0  0  0
  189.1000  175.7700  146.6610 C   0  0  2  0  0  3  0  0  0  0  0  0
  187.9890  176.5930  146.0020 C   0  0  0  0  0  2  0  0  0  0  0  0
  188.2100  176.3930  143.7860 C   0  0  2  0  0  3  0  0  0  0  0  0
  185.8680  176.3250  143.2810 O   0  0  0  0  0  1  0  0  0  0  0  0
  187.0720  176.8930  142.8580 C   0  0  2  0  0  0  0  0  0  0  0  0
  187.2860  176.4370  141.4050 C   0  0  0  0  0  2  0  0  0  0  0  0
  186.8700  177.4590  140.3560 C   0  0  0  0  0  1  0  0  0  0  0  0
  186.8980  178.4230  142.9220 C   0  0  0  0  0  2  0  0  0  0  0  0
  185.5370  178.8960  143.4200 C   0  0  0  0  0  2  0  0  0  0  0  0
  185.6600  179.5170  144.7970 C   0  0  0  0  0  1  0  0  0  0  0  0
  191.2420  175.6620  148.0380 C   0  0  0  0  0  1  0  0  0  0  0  0
  190.2400  176.5490  147.3210 C   0  0  0  0  0  2  0  0  0  0  0  0
  191.9050  175.1280  143.2440 C   0  0  1  0  0  3  0  0  0  0  0  0
  193.1630  175.8970  143.6740 C   0  0  0  0  0  2  0  0  0  0  0  0
  192.9060  176.8570  144.8290 C   0  0  0  0  0  2  0  0  0  0  0  0
  194.1530  177.0060  145.6810 C   0  0  0  0  0  2  0  0  0  0  0  0
  194.5410  175.6690  146.2850 C   0  0  0  0  0  1  0  0  0  0  0  0
  192.0910  173.6130  143.1800 C   0  0  0  0  0  2  0  0  0  0  0  0
  193.4230  173.1930  143.7830 C   0  0  0  0  0  2  0  0  0  0  0  0
  193.2310  172.0580  144.7720 C   0  0  2  0  0  3  0  0  0  0  0  0
  194.2300  172.1410  145.7580 O   0  0  0  0  0  0  0  0  0  0  0  0
  194.4120  171.1710  144.7560 C   0  0  0  0  0  2  0  0  0  0  0  0
  1  8  1  0  0  0  0
  3 19  1  6  0  0  0
  3  6  1  0  0  0  0
  4  7  1  0  0  0  0
  5  2  1  1  0  0  0
  5  9  1  0  0  0  0
  5  3  1  0  0  0  0
  6  4  2  0  0  0  0
  7 18  1  6  0  0  0
  8  7  1  0  0  0  0
  9 11  1  6  0  0  0
  9  1  1  0  0  0  0
 11 14  1  0  0  0  0
 11 10  1  1  0  0  0
 12 11  1  0  0  0  0
 13 12  1  0  0  0  0
 14 15  1  0  0  0  0
 15 16  1  0  0  0  0
 18 17  1  0  0  0  0
 19 24  1  1  0  0  0
 19 20  1  0  0  0  0
 20 21  1  0  0  0  0
 21 22  1  0  0  0  0
 22 23  1  0  0  0  0
 24 25  1  0  0  0  0
 26 25  1  6  0  0  0
 26 27  1  0  0  0  0
 28 26  1  0  0  0  0
 28 27  1  0  0  0  0
M  END
>  <MODEL>
4

>  <REMARK>
 VINA RESULT:      -5.6      1.836      4.355
  Name = 
  12 active torsions:
  status: ('A' for Active; 'I' for Inactive)
    1  A    between atoms: C_3  and  C_7
    2  A    between atoms: C_3  and  C_11
    3  A    between atoms: C_3  and  C_27
    4  A    between atoms: C_4  and  C_12
    5  A    between atoms: C_4  and  C_24
    6  A    between atoms: C_6  and  C_11
    7  A    between atoms: C_9  and  C_13
    8  A    between atoms: C_9  and  C_18
    9  A    between atoms: C_10  and  C_13
   10  A    between atoms: C_13  and  C_24
   11  A    between atoms: C_14  and  C_18
   12  A    between atoms: C_19  and  C_21
                            x       y       z     vdW  Elec       q    Type
                         _______ _______ _______ _____ _____    ______ ____

>  <TORSDO>
F 12

$$$$
=
 OpenBabel11052418163D

 28 29  0  0  1  0  0  0  0  0999 V2000
  188.5680  177.0680  146.0880 O   0  0  0  0  0  0  0  0  0  0  0  0
  189.0420  177.5680  143.3140 O   0  0  0  0  0  1  0  0  0  0  0  0
  190.0110  175.5050  144.0770 C   0  0  1  0  0  3  0  0  0  0  0  0
  189.6630  174.0930  146.1340 C   0  0  0  0  0  3  0  0  0  0  0  0
  188.7190  176.3020  143.8110 C   0  0  1  0  0  3  0  0  0  0  0  0
  189.7730  174.2110  144.8010 C   0  0  0  0  0  3  0  0  0  0  0  0
  189.7450  175.2100  147.1440 C   0  0  2  0  0  3  0  0  0  0  0  0
  188.5580  176.1770  147.1690 C   0  0  0  0  0  2  0  0  0  0  0  0
  187.8410  176.4370  145.0680 C   0  0  2  0  0  3  0  0  0  0  0  0
  186.6750  178.5250  144.9070 O   0  0  0  0  0  1  0  0  0  0  0  0
  186.4850  177.1450  144.8070 C   0  0  2  0  0  0  0  0  0  0  0  0
  185.4390  176.7690  145.8700 C   0  0  0  0  0  2  0  0  0  0  0  0
  184.6630  177.9510  146.4370 C   0  0  0  0  0  1  0  0  0  0  0  0
  185.9420  176.8630  143.3930 C   0  0  0  0  0  2  0  0  0  0  0  0
  185.5130  178.0990  142.6100 C   0  0  0  0  0  2  0  0  0  0  0  0
  184.0030  178.1610  142.4970 C   0  0  0  0  0  1  0  0  0  0  0  0
  191.1220  176.9670  148.3740 C   0  0  0  0  0  1  0  0  0  0  0  0
  191.1320  175.8080  147.3940 C   0  0  0  0  0  2  0  0  0  0  0  0
  190.8410  175.2290  142.8120 C   0  0  1  0  0  3  0  0  0  0  0  0
  192.2670  174.7230  143.0750 C   0  0  0  0  0  2  0  0  0  0  0  0
  193.0210  175.5740  144.0890 C   0  0  0  0  0  2  0  0  0  0  0  0
  193.7500  174.6880  145.0840 C   0  0  0  0  0  2  0  0  0  0  0  0
  194.5440  175.5360  146.0600 C   0  0  0  0  0  1  0  0  0  0  0  0
  190.0730  174.4180  141.7700 C   0  0  0  0  0  2  0  0  0  0  0  0
  190.8370  173.1650  141.3700 C   0  0  0  0  0  2  0  0  0  0  0  0
  189.9050  171.9710  141.2880 C   0  0  2  0  0  3  0  0  0  0  0  0
  189.6520  171.5010  142.5890 O   0  0  0  0  0  0  0  0  0  0  0  0
  190.5770  170.7690  141.8230 C   0  0  0  0  0  2  0  0  0  0  0  0
  1  8  1  0  0  0  0
  3 19  1  6  0  0  0
  3  6  1  0  0  0  0
  4  7  1  0  0  0  0
  5  2  1  1  0  0  0
  5  3  1  0  0  0  0
  5  9  1  0  0  0  0
  6  4  2  0  0  0  0
  7  8  1  0  0  0  0
  7 18  1  6  0  0  0
  9 11  1  6  0  0  0
  9  1  1  0  0  0  0
 11 10  1  1  0  0  0
 11 12  1  0  0  0  0
 12 13  1  0  0  0  0
 14 11  1  0  0  0  0
 15 14  1  0  0  0  0
 16 15  1  0  0  0  0
 18 17  1  0  0  0  0
 19 24  1  6  0  0  0
 19 20  1  0  0  0  0
 20 21  1  0  0  0  0
 21 22  1  0  0  0  0
 22 23  1  0  0  0  0
 25 24  1  0  0  0  0
 26 25  1  1  0  0  0
 26 28  1  0  0  0  0
 26 27  1  0  0  0  0
 28 27  1  0  0  0  0
M  END
>  <MODEL>
5

>  <REMARK>
 VINA RESULT:      -5.5      2.109      4.343
  Name = 
  12 active torsions:
  status: ('A' for Active; 'I' for Inactive)
    1  A    between atoms: C_3  and  C_7
    2  A    between atoms: C_3  and  C_11
    3  A    between atoms: C_3  and  C_27
    4  A    between atoms: C_4  and  C_12
    5  A    between atoms: C_4  and  C_24
    6  A    between atoms: C_6  and  C_11
    7  A    between atoms: C_9  and  C_13
    8  A    between atoms: C_9  and  C_18
    9  A    between atoms: C_10  and  C_13
   10  A    between atoms: C_13  and  C_24
   11  A    between atoms: C_14  and  C_18
   12  A    between atoms: C_19  and  C_21
                            x       y       z     vdW  Elec       q    Type
                         _______ _______ _______ _____ _____    ______ ____

>  <TORSDO>
F 12

$$$$
=
 OpenBabel11052418163D

 28 29  0  0  1  0  0  0  0  0999 V2000
  192.3140  174.6100  143.4990 O   0  0  0  0  0  0  0  0  0  0  0  0
  191.7490  177.3010  144.2830 O   0  0  0  0  0  1  0  0  0  0  0  0
  189.9860  175.7680  144.8460 C   0  0  1  0  0  3  0  0  0  0  0  0
  189.8640  173.2560  144.9890 C   0  0  0  0  0  3  0  0  0  0  0  0
  191.4460  176.1980  145.0860 C   0  0  1  0  0  3  0  0  0  0  0  0
  189.6300  174.4690  145.5120 C   0  0  0  0  0  3  0  0  0  0  0  0
  190.5240  172.9590  143.6660 C   0  0  2  0  0  3  0  0  0  0  0  0
  192.0270  173.2420  143.5900 C   0  0  0  0  0  2  0  0  0  0  0  0
  192.4470  175.0600  144.8220 C   0  0  2  0  0  3  0  0  0  0  0  0
  194.6110  174.2640  145.4750 O   0  0  0  0  0  1  0  0  0  0  0  0
  193.9160  175.4320  145.1550 C   0  0  2  0  0  0  0  0  0  0  0  0
  194.0000  176.3450  146.3900 C   0  0  0  0  0  2  0  0  0  0  0  0
  194.7360  177.6580  146.1530 C   0  0  0  0  0  1  0  0  0  0  0  0
  194.6400  176.0770  143.9570 C   0  0  0  0  0  2  0  0  0  0  0  0
  195.9110  175.3600  143.5110 C   0  0  0  0  0  2  0  0  0  0  0  0
  197.0140  176.3610  143.2290 C   0  0  0  0  0  1  0  0  0  0  0  0
  188.3890  172.4880  142.3550 C   0  0  0  0  0  1  0  0  0  0  0  0
  189.7000  173.2500  142.4090 C   0  0  0  0  0  2  0  0  0  0  0  0
  188.9510  176.8350  145.2380 C   0  0  1  0  0  3  0  0  0  0  0  0
  188.2340  177.5030  144.0560 C   0  0  0  0  0  2  0  0  0  0  0  0
  188.3140  176.6850  142.7740 C   0  0  0  0  0  2  0  0  0  0  0  0
  187.0160  175.9320  142.5450 C   0  0  0  0  0  2  0  0  0  0  0  0
  185.8280  176.8190  142.8650 C   0  0  0  0  0  1  0  0  0  0  0  0
  188.0160  176.3660  146.3520 C   0  0  0  0  0  2  0  0  0  0  0  0
  187.1880  177.5180  146.9010 C   0  0  0  0  0  2  0  0  0  0  0  0
  185.7200  177.1410  146.9670 C   0  0  2  0  0  3  0  0  0  0  0  0
  185.0260  177.8380  145.9620 O   0  0  0  0  0  0  0  0  0  0  0  0
  184.9060  178.3350  147.2720 C   0  0  0  0  0  2  0  0  0  0  0  0
  1  8  1  0  0  0  0
  1  9  1  0  0  0  0
  3  5  1  0  0  0  0
  3 19  1  1  0  0  0
  3  6  1  0  0  0  0
  4  6  2  0  0  0  0
  5  2  1  6  0  0  0
  7 18  1  6  0  0  0
  7  4  1  0  0  0  0
  8  7  1  0  0  0  0
  9  5  1  0  0  0  0
  9 11  1  6  0  0  0
 11 10  1  1  0  0  0
 11 12  1  0  0  0  0
 13 12  1  0  0  0  0
 14 11  1  0  0  0  0
 15 14  1  0  0  0  0
 16 15  1  0  0  0  0
 17 18  1  0  0  0  0
 19 20  1  6  0  0  0
 19 24  1  0  0  0  0
 21 20  1  0  0  0  0
 22 21  1  0  0  0  0
 22 23  1  0  0  0  0
 24 25  1  0  0  0  0
 26 25  1  6  0  0  0
 26 28  1  0  0  0  0
 27 26  1  0  0  0  0
 27 28  1  0  0  0  0
M  END
>  <MODEL>
6

>  <REMARK>
 VINA RESULT:      -5.5      1.998      7.159
  Name = 
  12 active torsions:
  status: ('A' for Active; 'I' for Inactive)
    1  A    between atoms: C_3  and  C_7
    2  A    between atoms: C_3  and  C_11
    3  A    between atoms: C_3  and  C_27
    4  A    between atoms: C_4  and  C_12
    5  A    between atoms: C_4  and  C_24
    6  A    between atoms: C_6  and  C_11
    7  A    between atoms: C_9  and  C_13
    8  A    between atoms: C_9  and  C_18
    9  A    between atoms: C_10  and  C_13
   10  A    between atoms: C_13  and  C_24
   11  A    between atoms: C_14  and  C_18
   12  A    between atoms: C_19  and  C_21
                            x       y       z     vdW  Elec       q    Type
                         _______ _______ _______ _____ _____    ______ ____

>  <TORSDO>
F 12

$$$$
=
 OpenBabel11052418163D

 28 29  0  0  1  0  0  0  0  0999 V2000
  186.2860  179.1100  144.6900 O   0  0  0  0  0  0  0  0  0  0  0  0
  188.7310  177.8920  143.8470 O   0  0  0  0  0  1  0  0  0  0  0  0
  187.9960  177.1310  146.0050 C   0  0  1  0  0  3  0  0  0  0  0  0
  185.7980  177.2730  147.2270 C   0  0  0  0  0  3  0  0  0  0  0  0
  187.7130  177.1820  144.4910 C   0  0  1  0  0  3  0  0  0  0  0  0
  186.8560  176.5650  146.8030 C   0  0  0  0  0  3  0  0  0  0  0  0
  185.5420  178.7390  146.9840 C   0  0  2  0  0  3  0  0  0  0  0  0
  185.1780  179.1250  145.5470 C   0  0  0  0  0  2  0  0  0  0  0  0
  186.3460  177.8090  144.1670 C   0  0  2  0  0  3  0  0  0  0  0  0
  186.7580  178.7420  141.9980 O   0  0  0  0  0  1  0  0  0  0  0  0
  185.9880  177.7810  142.6570 C   0  0  2  0  0  0  0  0  0  0  0  0
  184.5170  178.1590  142.4190 C   0  0  0  0  0  2  0  0  0  0  0  0
  184.1250  178.2700  140.9520 C   0  0  0  0  0  1  0  0  0  0  0  0
  186.3080  176.4200  142.0090 C   0  0  0  0  0  2  0  0  0  0  0  0
  187.4110  176.4520  140.9570 C   0  0  0  0  0  2  0  0  0  0  0  0
  188.1730  175.1420  140.9450 C   0  0  0  0  0  1  0  0  0  0  0  0
  187.2950  179.0610  148.8070 C   0  0  0  0  0  1  0  0  0  0  0  0
  186.4110  179.7260  147.7680 C   0  0  0  0  0  2  0  0  0  0  0  0
  189.2880  176.3820  146.3700 C   0  0  1  0  0  3  0  0  0  0  0  0
  190.3370  177.2270  147.1070 C   0  0  0  0  0  2  0  0  0  0  0  0
  191.4670  176.3900  147.6940 C   0  0  0  0  0  2  0  0  0  0  0  0
  192.4910  176.0580  146.6230 C   0  0  0  0  0  2  0  0  0  0  0  0
  193.7600  176.8600  146.8410 C   0  0  0  0  0  1  0  0  0  0  0  0
  189.0180  175.0220  147.0130 C   0  0  0  0  0  2  0  0  0  0  0  0
  189.5680  173.8880  146.1620 C   0  0  0  0  0  2  0  0  0  0  0  0
  189.9660  174.3920  144.7880 C   0  0  2  0  0  3  0  0  0  0  0  0
  189.5610  173.4520  143.8250 O   0  0  0  0  0  0  0  0  0  0  0  0
  190.9260  173.4570  144.1660 C   0  0  0  0  0  2  0  0  0  0  0  0
  1  8  1  0  0  0  0
  3 19  1  6  0  0  0
  3  6  1  0  0  0  0
  5  2  1  6  0  0  0
  5  3  1  0  0  0  0
  6  4  2  0  0  0  0
  7  4  1  0  0  0  0
  7 18  1  6  0  0  0
  8  7  1  0  0  0  0
  9 11  1  6  0  0  0
  9  5  1  0  0  0  0
  9  1  1  0  0  0  0
 11 10  1  6  0  0  0
 12 11  1  0  0  0  0
 13 12  1  0  0  0  0
 14 11  1  0  0  0  0
 15 14  1  0  0  0  0
 16 15  1  0  0  0  0
 18 17  1  0  0  0  0
 19 24  1  1  0  0  0
 19 20  1  0  0  0  0
 20 21  1  0  0  0  0
 22 23  1  0  0  0  0
 22 21  1  0  0  0  0
 25 24  1  0  0  0  0
 26 25  1  1  0  0  0
 27 28  1  0  0  0  0
 27 26  1  0  0  0  0
 28 26  1  0  0  0  0
M  END
>  <MODEL>
7

>  <REMARK>
 VINA RESULT:      -5.5      1.789      4.294
  Name = 
  12 active torsions:
  status: ('A' for Active; 'I' for Inactive)
    1  A    between atoms: C_3  and  C_7
    2  A    between atoms: C_3  and  C_11
    3  A    between atoms: C_3  and  C_27
    4  A    between atoms: C_4  and  C_12
    5  A    between atoms: C_4  and  C_24
    6  A    between atoms: C_6  and  C_11
    7  A    between atoms: C_9  and  C_13
    8  A    between atoms: C_9  and  C_18
    9  A    between atoms: C_10  and  C_13
   10  A    between atoms: C_13  and  C_24
   11  A    between atoms: C_14  and  C_18
   12  A    between atoms: C_19  and  C_21
                            x       y       z     vdW  Elec       q    Type
                         _______ _______ _______ _____ _____    ______ ____

>  <TORSDO>
F 12

$$$$
=
 OpenBabel11052418163D

 28 29  0  0  1  0  0  0  0  0999 V2000
  186.5170  176.2180  143.4930 O   0  0  0  0  0  0  0  0  0  0  0  0
  187.1740  176.3290  146.2730 O   0  0  0  0  0  1  0  0  0  0  0  0
  189.1110  176.2740  144.8500 C   0  0  1  0  0  3  0  0  0  0  0  0
  189.4530  176.6740  142.3870 C   0  0  0  0  0  3  0  0  0  0  0  0
  187.8640  177.0600  145.3010 C   0  0  1  0  0  3  0  0  0  0  0  0
  189.8030  176.8850  143.6650 C   0  0  0  0  0  3  0  0  0  0  0  0
  188.3170  175.8120  141.8960 C   0  0  2  0  0  3  0  0  0  0  0  0
  186.9070  176.3530  142.1540 C   0  0  0  0  0  2  0  0  0  0  0  0
  186.9260  177.3990  144.1300 C   0  0  2  0  0  3  0  0  0  0  0  0
  184.7080  177.4510  145.0370 O   0  0  0  0  0  1  0  0  0  0  0  0
  185.7140  178.2800  144.5370 C   0  0  2  0  0  0  0  0  0  0  0  0
  185.1170  179.0120  143.3240 C   0  0  0  0  0  2  0  0  0  0  0  0
  183.8760  178.3520  142.7370 C   0  0  0  0  0  1  0  0  0  0  0  0
  186.0710  179.2830  145.6510 C   0  0  0  0  0  2  0  0  0  0  0  0
  185.3810  179.0320  146.9870 C   0  0  0  0  0  2  0  0  0  0  0  0
  186.3200  179.3390  148.1370 C   0  0  0  0  0  1  0  0  0  0  0  0
  189.6800  173.7760  141.1940 C   0  0  0  0  0  1  0  0  0  0  0  0
  188.5090  174.2980  142.0060 C   0  0  0  0  0  2  0  0  0  0  0  0
  190.1380  176.0430  145.9700 C   0  0  1  0  0  3  0  0  0  0  0  0
  190.5270  174.5750  146.1970 C   0  0  0  0  0  2  0  0  0  0  0  0
  189.6880  173.6050  145.3740 C   0  0  0  0  0  2  0  0  0  0  0  0
  190.5840  172.6340  144.6260 C   0  0  0  0  0  2  0  0  0  0  0  0
  191.8580  173.3270  144.1830 C   0  0  0  0  0  1  0  0  0  0  0  0
  191.3280  176.9980  145.8820 C   0  0  0  0  0  2  0  0  0  0  0  0
  192.6060  176.3360  146.3750 C   0  0  0  0  0  2  0  0  0  0  0  0
  193.6990  176.4300  145.3260 C   0  0  2  0  0  3  0  0  0  0  0  0
  194.9130  176.0110  145.8980 O   0  0  0  0  0  0  0  0  0  0  0  0
  194.7280  177.3980  145.7570 C   0  0  0  0  0  2  0  0  0  0  0  0
  1  9  1  0  0  0  0
  3  5  1  0  0  0  0
  3 19  1  1  0  0  0
  4  6  2  0  0  0  0
  5  2  1  1  0  0  0
  6  3  1  0  0  0  0
  7 18  1  1  0  0  0
  7  8  1  0  0  0  0
  7  4  1  0  0  0  0
  8  1  1  0  0  0  0
  9 11  1  1  0  0  0
  9  5  1  0  0  0  0
 11 10  1  1  0  0  0
 11 14  1  0  0  0  0
 12 11  1  0  0  0  0
 13 12  1  0  0  0  0
 14 15  1  0  0  0  0
 15 16  1  0  0  0  0
 17 18  1  0  0  0  0
 19 24  1  6  0  0  0
 19 20  1  0  0  0  0
 21 20  1  0  0  0  0
 22 21  1  0  0  0  0
 23 22  1  0  0  0  0
 24 25  1  0  0  0  0
 26 28  1  0  0  0  0
 26 27  1  0  0  0  0
 26 25  1  1  0  0  0
 28 27  1  0  0  0  0
M  END
>  <MODEL>
8

>  <REMARK>
 VINA RESULT:      -5.4      1.355      2.335
  Name = 
  12 active torsions:
  status: ('A' for Active; 'I' for Inactive)
    1  A    between atoms: C_3  and  C_7
    2  A    between atoms: C_3  and  C_11
    3  A    between atoms: C_3  and  C_27
    4  A    between atoms: C_4  and  C_12
    5  A    between atoms: C_4  and  C_24
    6  A    between atoms: C_6  and  C_11
    7  A    between atoms: C_9  and  C_13
    8  A    between atoms: C_9  and  C_18
    9  A    between atoms: C_10  and  C_13
   10  A    between atoms: C_13  and  C_24
   11  A    between atoms: C_14  and  C_18
   12  A    between atoms: C_19  and  C_21
                            x       y       z     vdW  Elec       q    Type
                         _______ _______ _______ _____ _____    ______ ____

>  <TORSDO>
F 12

$$$$
=
 OpenBabel11052418163D

 28 29  0  0  1  0  0  0  0  0999 V2000
  188.6490  177.1530  146.0510 O   0  0  0  0  0  0  0  0  0  0  0  0
  189.0000  177.3090  143.2190 O   0  0  0  0  0  1  0  0  0  0  0  0
  189.9260  175.3060  144.1720 C   0  0  1  0  0  3  0  0  0  0  0  0
  189.6310  174.1570  146.3940 C   0  0  0  0  0  3  0  0  0  0  0  0
  188.6540  176.1240  143.8760 C   0  0  1  0  0  3  0  0  0  0  0  0
  189.6760  174.1160  145.0540 C   0  0  0  0  0  3  0  0  0  0  0  0
  189.8070  175.3780  147.2630 C   0  0  2  0  0  3  0  0  0  0  0  0
  188.6610  176.3940  147.2290 C   0  0  0  0  0  2  0  0  0  0  0  0
  187.8470  176.4410  145.1470 C   0  0  2  0  0  3  0  0  0  0  0  0
  186.7320  178.5510  144.9240 O   0  0  0  0  0  1  0  0  0  0  0  0
  186.5080  177.1740  144.8690 C   0  0  2  0  0  0  0  0  0  0  0  0
  185.4570  176.8570  145.9460 C   0  0  0  0  0  2  0  0  0  0  0  0
  184.6920  178.0710  146.4560 C   0  0  0  0  0  1  0  0  0  0  0  0
  185.9530  176.8600  143.4660 C   0  0  0  0  0  2  0  0  0  0  0  0
  185.5730  178.0830  142.6360 C   0  0  0  0  0  2  0  0  0  0  0  0
  184.0670  178.2500  142.5940 C   0  0  0  0  0  1  0  0  0  0  0  0
  191.3450  177.0890  148.3600 C   0  0  0  0  0  1  0  0  0  0  0  0
  191.2260  175.9390  147.3760 C   0  0  0  0  0  2  0  0  0  0  0  0
  190.6790  174.8500  142.9120 C   0  0  1  0  0  3  0  0  0  0  0  0
  189.7950  174.6350  141.6750 C   0  0  0  0  0  2  0  0  0  0  0  0
  189.0940  173.2830  141.6740 C   0  0  0  0  0  2  0  0  0  0  0  0
  190.0010  172.2170  141.0860 C   0  0  0  0  0  2  0  0  0  0  0  0
  190.3520  171.1830  142.1390 C   0  0  0  0  0  1  0  0  0  0  0  0
  191.9350  175.6780  142.6450 C   0  0  0  0  0  2  0  0  0  0  0  0
  192.4040  176.3940  143.9020 C   0  0  0  0  0  2  0  0  0  0  0  0
  193.8830  176.1490  144.1400 C   0  0  2  0  0  3  0  0  0  0  0  0
  194.0340  175.3890  145.3130 O   0  0  0  0  0  0  0  0  0  0  0  0
  194.2970  176.7670  145.4160 C   0  0  0  0  0  2  0  0  0  0  0  0
  1  8  1  0  0  0  0
  3 19  1  6  0  0  0
  3  6  1  0  0  0  0
  4  7  1  0  0  0  0
  5  2  1  1  0  0  0
  5  3  1  0  0  0  0
  5  9  1  0  0  0  0
  6  4  2  0  0  0  0
  7 18  1  6  0  0  0
  8  7  1  0  0  0  0
  9 11  1  6  0  0  0
  9  1  1  0  0  0  0
 11 10  1  1  0  0  0
 11 12  1  0  0  0  0
 12 13  1  0  0  0  0
 14 11  1  0  0  0  0
 15 14  1  0  0  0  0
 16 15  1  0  0  0  0
 18 17  1  0  0  0  0
 19 20  1  6  0  0  0
 21 20  1  0  0  0  0
 22 21  1  0  0  0  0
 22 23  1  0  0  0  0
 24 19  1  0  0  0  0
 24 25  1  0  0  0  0
 26 25  1  1  0  0  0
 26 27  1  0  0  0  0
 26 28  1  0  0  0  0
 27 28  1  0  0  0  0
M  END
>  <MODEL>
9

>  <REMARK>
 VINA RESULT:      -5.2      1.773      3.491
  Name = 
  12 active torsions:
  status: ('A' for Active; 'I' for Inactive)
    1  A    between atoms: C_3  and  C_7
    2  A    between atoms: C_3  and  C_11
    3  A    between atoms: C_3  and  C_27
    4  A    between atoms: C_4  and  C_12
    5  A    between atoms: C_4  and  C_24
    6  A    between atoms: C_6  and  C_11
    7  A    between atoms: C_9  and  C_13
    8  A    between atoms: C_9  and  C_18
    9  A    between atoms: C_10  and  C_13
   10  A    between atoms: C_13  and  C_24
   11  A    between atoms: C_14  and  C_18
   12  A    between atoms: C_19  and  C_21
                            x       y       z     vdW  Elec       q    Type
                         _______ _______ _______ _____ _____    ______ ____

>  <TORSDO>
F 12

$$$$
