=
 OpenBabel11052417283D

 25 26  0  0  1  0  0  0  0  0999 V2000
  185.6890  180.0030  143.6860 C   0  0  0  0  0  1  0  0  0  0  0  0
  188.0950  177.9170  145.0070 C   0  0  0  0  0  2  0  0  0  0  0  0
  185.7650  178.6760  144.4170 C   0  0  1  0  0  3  0  0  0  0  0  0
  186.1490  177.6870  146.7210 C   0  0  0  0  0  0  0  0  0  0  0  0
  185.1780  176.5340  146.4830 C   0  0  0  0  0  1  0  0  0  0  0  0
  186.9940  177.9580  144.0450 N   0  0  0  0  0  0  0  0  0  0  0  0
  186.1080  178.0340  148.1940 C   0  0  0  0  0  1  0  0  0  0  0  0
  187.6160  177.3380  146.3440 C   0  0  1  0  0  3  0  0  0  0  0  0
  185.6690  178.9090  145.9310 C   0  0  0  0  0  2  0  0  0  0  0  0
  187.0420  177.1560  142.8430 C   0  0  0  0  0  0  0  0  0  0  0  0
  186.5530  175.9170  142.8540 C   0  0  0  0  0  2  0  0  0  0  0  0
  187.6360  177.6690  141.5850 C   0  0  0  0  0  0  0  0  0  0  0  0
  186.9670  177.4790  140.3400 N   0  0  0  0  0  1  0  0  0  0  0  0
  188.7280  178.2970  141.5980 O   0  0  0  0  0  0  0  0  0  0  0  0
  188.0420  175.8800  146.5340 C   0  0  0  0  0  2  0  0  0  0  0  0
  190.4550  175.2170  146.0700 C   0  0  0  0  0  0  0  0  0  0  0  0
  189.4500  175.7930  146.9090 N   0  0  0  0  0  2  0  0  0  0  0  0
  191.6630  175.4910  146.2970 O   0  0  0  0  0  0  0  0  0  0  0  0
  190.1180  174.3290  144.9400 C   0  0  0  0  0  0  0  0  0  0  0  0
  189.4320  172.5960  142.8410 C   0  0  0  0  0  3  0  0  0  0  0  0
  190.0320  174.8120  143.6190 C   0  0  0  0  0  0  0  0  0  0  0  0
  189.6940  173.9430  142.5770 C   0  0  0  0  0  3  0  0  0  0  0  0
  189.4960  172.1170  144.1500 C   0  0  0  0  0  3  0  0  0  0  0  0
  190.2230  176.1260  143.3410 F   0  0  0  0  0  0  0  0  0  0  0  0
  189.8310  172.9800  145.1950 C   0  0  0  0  0  3  0  0  0  0  0  0
  2  8  1  0  0  0  0
  3  1  1  6  0  0  0
  3  9  1  0  0  0  0
  4  7  1  0  0  0  0
  5  4  1  0  0  0  0
  6  3  1  0  0  0  0
  6  2  1  0  0  0  0
  8 15  1  6  0  0  0
  8  4  1  0  0  0  0
  9  4  1  0  0  0  0
 10 11  2  0  0  0  0
 10  6  1  0  0  0  0
 12 14  2  0  0  0  0
 12 10  1  0  0  0  0
 13 12  1  0  0  0  0
 15 17  1  0  0  0  0
 16 18  2  0  0  0  0
 16 17  1  0  0  0  0
 19 25  1  0  0  0  0
 19 16  1  0  0  0  0
 20 23  1  0  0  0  0
 21 19  2  0  0  0  0
 22 20  2  0  0  0  0
 22 21  1  0  0  0  0
 23 25  2  0  0  0  0
 24 21  1  0  0  0  0
M  END
>  <MODEL>
1

>  <REMARK>
 VINA RESULT:      -6.9      0.000      0.000
  Name = 
  5 active torsions:
  status: ('A' for Active; 'I' for Inactive)
    1  A    between atoms: C_1  and  C_5
    2  A    between atoms: C_2  and  C_21
    3  A    between atoms: N_3  and  C_16
    4  A    between atoms: N_15  and  C_21
    5  A    between atoms: C_16  and  C_23
                            x       y       z     vdW  Elec       q    Type
                         _______ _______ _______ _____ _____    ______ ____

>  <TORSDO>
F 5

$$$$
=
 OpenBabel11052417283D

 25 26  0  0  1  0  0  0  0  0999 V2000
  192.7090  173.9710  142.7440 C   0  0  0  0  0  1  0  0  0  0  0  0
  189.8440  175.8800  142.5720 C   0  0  0  0  0  2  0  0  0  0  0  0
  191.2080  173.7770  142.8360 C   0  0  1  0  0  3  0  0  0  0  0  0
  189.1180  173.6720  141.4010 C   0  0  0  0  0  0  0  0  0  0  0  0
  188.4550  172.6260  142.2920 C   0  0  0  0  0  1  0  0  0  0  0  0
  190.5770  174.9600  143.4410 N   0  0  0  0  0  0  0  0  0  0  0  0
  188.6540  173.4340  139.9790 C   0  0  0  0  0  1  0  0  0  0  0  0
  188.7560  175.1300  141.7950 C   0  0  1  0  0  3  0  0  0  0  0  0
  190.6370  173.4670  141.4450 C   0  0  0  0  0  2  0  0  0  0  0  0
  190.5200  175.1080  144.8780 C   0  0  0  0  0  0  0  0  0  0  0  0
  189.6920  174.3450  145.5890 C   0  0  0  0  0  2  0  0  0  0  0  0
  191.3540  176.1030  145.5940 C   0  0  0  0  0  0  0  0  0  0  0  0
  192.3850  176.8090  144.9070 N   0  0  0  0  0  1  0  0  0  0  0  0
  191.1530  176.3540  146.8110 O   0  0  0  0  0  0  0  0  0  0  0  0
  187.3600  175.3510  142.3850 C   0  0  0  0  0  2  0  0  0  0  0  0
  186.6730  177.7330  142.9580 C   0  0  0  0  0  0  0  0  0  0  0  0
  186.8420  176.6650  142.0220 N   0  0  0  0  0  2  0  0  0  0  0  0
  186.5650  178.9090  142.5220 O   0  0  0  0  0  0  0  0  0  0  0  0
  186.6400  177.4990  144.4150 C   0  0  0  0  0  0  0  0  0  0  0  0
  186.5210  176.9970  147.1740 C   0  0  0  0  0  3  0  0  0  0  0  0
  187.7780  177.6950  145.2230 C   0  0  0  0  0  0  0  0  0  0  0  0
  187.7110  177.4470  146.5970 C   0  0  0  0  0  3  0  0  0  0  0  0
  185.3960  176.7820  146.3760 C   0  0  0  0  0  3  0  0  0  0  0  0
  188.9620  178.0750  144.6820 F   0  0  0  0  0  0  0  0  0  0  0  0
  185.4580  177.0260  145.0030 C   0  0  0  0  0  3  0  0  0  0  0  0
  2  6  1  0  0  0  0
  3  1  1  6  0  0  0
  3  6  1  0  0  0  0
  4  9  1  0  0  0  0
  4  8  1  0  0  0  0
  4  5  1  0  0  0  0
  6 10  1  0  0  0  0
  7  4  1  0  0  0  0
  8 15  1  1  0  0  0
  8  2  1  0  0  0  0
  9  3  1  0  0  0  0
 10 11  2  0  0  0  0
 10 12  1  0  0  0  0
 12 14  2  0  0  0  0
 13 12  1  0  0  0  0
 16 19  1  0  0  0  0
 17 15  1  0  0  0  0
 17 16  1  0  0  0  0
 18 16  2  0  0  0  0
 19 25  2  0  0  0  0
 19 21  1  0  0  0  0
 21 22  2  0  0  0  0
 22 20  1  0  0  0  0
 23 20  2  0  0  0  0
 24 21  1  0  0  0  0
 25 23  1  0  0  0  0
M  END
>  <MODEL>
2

>  <REMARK>
 VINA RESULT:      -6.6      1.855      6.218
  Name = 
  5 active torsions:
  status: ('A' for Active; 'I' for Inactive)
    1  A    between atoms: C_1  and  C_5
    2  A    between atoms: C_2  and  C_21
    3  A    between atoms: N_3  and  C_16
    4  A    between atoms: N_15  and  C_21
    5  A    between atoms: C_16  and  C_23
                            x       y       z     vdW  Elec       q    Type
                         _______ _______ _______ _____ _____    ______ ____

>  <TORSDO>
F 5

$$$$
=
 OpenBabel11052417283D

 25 26  0  0  1  0  0  0  0  0999 V2000
  192.1580  172.4280  144.4630 C   0  0  0  0  0  1  0  0  0  0  0  0
  189.6370  174.4980  145.5780 C   0  0  0  0  0  2  0  0  0  0  0  0
  191.8250  173.9080  144.4760 C   0  0  1  0  0  3  0  0  0  0  0  0
  191.7690  175.9260  146.0120 C   0  0  0  0  0  0  0  0  0  0  0  0
  192.1680  176.8920  144.9000 C   0  0  0  0  0  1  0  0  0  0  0  0
  190.3710  174.1050  144.3760 N   0  0  0  0  0  0  0  0  0  0  0  0
  192.3340  176.4550  147.3130 C   0  0  0  0  0  1  0  0  0  0  0  0
  190.2310  175.7800  146.1730 C   0  0  1  0  0  3  0  0  0  0  0  0
  192.4100  174.5620  145.7360 C   0  0  0  0  0  2  0  0  0  0  0  0
  189.7150  174.0970  143.0870 C   0  0  0  0  0  0  0  0  0  0  0  0
  189.8820  175.1220  142.2540 C   0  0  0  0  0  2  0  0  0  0  0  0
  188.8420  172.9760  142.6620 C   0  0  0  0  0  0  0  0  0  0  0  0
  187.8250  173.1840  141.6840 N   0  0  0  0  0  1  0  0  0  0  0  0
  188.9970  171.8230  143.1420 O   0  0  0  0  0  0  0  0  0  0  0  0
  189.3900  177.0180  145.8470 C   0  0  0  0  0  2  0  0  0  0  0  0
  186.8600  177.0460  146.1150 C   0  0  0  0  0  0  0  0  0  0  0  0
  188.1810  177.0570  146.6630 N   0  0  0  0  0  2  0  0  0  0  0  0
  185.8970  176.7290  146.8620 O   0  0  0  0  0  0  0  0  0  0  0  0
  186.5950  177.3790  144.7020 C   0  0  0  0  0  0  0  0  0  0  0  0
  186.0670  177.9370  142.0020 C   0  0  0  0  0  3  0  0  0  0  0  0
  186.2150  178.6770  144.3050 C   0  0  0  0  0  0  0  0  0  0  0  0
  185.9570  178.9490  142.9580 C   0  0  0  0  0  3  0  0  0  0  0  0
  186.4240  176.6450  142.3910 C   0  0  0  0  0  3  0  0  0  0  0  0
  186.0430  179.6640  145.2190 F   0  0  0  0  0  0  0  0  0  0  0  0
  186.6810  176.3670  143.7350 C   0  0  0  0  0  3  0  0  0  0  0  0
  2  8  1  0  0  0  0
  3  1  1  1  0  0  0
  3  9  1  0  0  0  0
  4  8  1  0  0  0  0
  4  7  1  0  0  0  0
  5  4  1  0  0  0  0
  6  3  1  0  0  0  0
  6  2  1  0  0  0  0
  8 15  1  6  0  0  0
  9  4  1  0  0  0  0
 10  6  1  0  0  0  0
 11 10  2  0  0  0  0
 12 10  1  0  0  0  0
 12 14  2  0  0  0  0
 13 12  1  0  0  0  0
 15 17  1  0  0  0  0
 16 17  1  0  0  0  0
 16 18  2  0  0  0  0
 19 16  1  0  0  0  0
 20 23  2  0  0  0  0
 20 22  1  0  0  0  0
 21 19  1  0  0  0  0
 21 24  1  0  0  0  0
 22 21  2  0  0  0  0
 23 25  1  0  0  0  0
 25 19  2  0  0  0  0
M  END
>  <MODEL>
3

>  <REMARK>
 VINA RESULT:      -6.4      2.676      5.660
  Name = 
  5 active torsions:
  status: ('A' for Active; 'I' for Inactive)
    1  A    between atoms: C_1  and  C_5
    2  A    between atoms: C_2  and  C_21
    3  A    between atoms: N_3  and  C_16
    4  A    between atoms: N_15  and  C_21
    5  A    between atoms: C_16  and  C_23
                            x       y       z     vdW  Elec       q    Type
                         _______ _______ _______ _____ _____    ______ ____

>  <TORSDO>
F 5

$$$$
=
 OpenBabel11052417283D

 25 26  0  0  1  0  0  0  0  0999 V2000
  190.3670  172.3550  144.6710 C   0  0  0  0  0  1  0  0  0  0  0  0
  188.5380  174.8990  143.2320 C   0  0  0  0  0  2  0  0  0  0  0  0
  190.4590  173.8580  144.4900 C   0  0  1  0  0  3  0  0  0  0  0  0
  189.4980  176.0350  145.3690 C   0  0  0  0  0  0  0  0  0  0  0  0
  190.8140  176.7870  145.1950 C   0  0  0  0  0  1  0  0  0  0  0  0
  189.8520  174.2560  143.2100 N   0  0  0  0  0  0  0  0  0  0  0  0
  188.7750  176.6300  146.5590 C   0  0  0  0  0  1  0  0  0  0  0  0
  188.5650  176.1420  144.1300 C   0  0  1  0  0  3  0  0  0  0  0  0
  189.8040  174.5670  145.6840 C   0  0  0  0  0  2  0  0  0  0  0  0
  190.6130  174.1880  141.9830 C   0  0  0  0  0  0  0  0  0  0  0  0
  191.7270  174.9070  141.8550 C   0  0  0  0  0  2  0  0  0  0  0  0
  190.1820  173.3440  140.8420 C   0  0  0  0  0  0  0  0  0  0  0  0
  189.8720  171.9660  141.0410 N   0  0  0  0  0  1  0  0  0  0  0  0
  190.0630  173.8340  139.6890 O   0  0  0  0  0  0  0  0  0  0  0  0
  188.6450  177.4410  143.3250 C   0  0  0  0  0  2  0  0  0  0  0  0
  186.2390  178.0000  142.7100 C   0  0  0  0  0  0  0  0  0  0  0  0
  187.5470  177.5310  142.3690 N   0  0  0  0  0  2  0  0  0  0  0  0
  185.4710  178.3760  141.7870 O   0  0  0  0  0  0  0  0  0  0  0  0
  185.7730  178.0690  144.1090 C   0  0  0  0  0  0  0  0  0  0  0  0
  184.9230  178.1320  146.7830 C   0  0  0  0  0  3  0  0  0  0  0  0
  185.5930  179.3020  144.7690 C   0  0  0  0  0  0  0  0  0  0  0  0
  185.1660  179.3260  146.1000 C   0  0  0  0  0  3  0  0  0  0  0  0
  185.1180  176.9080  146.1410 C   0  0  0  0  0  3  0  0  0  0  0  0
  185.8770  180.4740  144.1500 F   0  0  0  0  0  0  0  0  0  0  0  0
  185.5470  176.8780  144.8130 C   0  0  0  0  0  3  0  0  0  0  0  0
  2  8  1  0  0  0  0
  3  1  1  1  0  0  0
  3  9  1  0  0  0  0
  4  9  1  0  0  0  0
  4  7  1  0  0  0  0
  5  4  1  0  0  0  0
  6  2  1  0  0  0  0
  6  3  1  0  0  0  0
  8 15  1  6  0  0  0
  8  4  1  0  0  0  0
 10  6  1  0  0  0  0
 11 10  2  0  0  0  0
 12 13  1  0  0  0  0
 12 10  1  0  0  0  0
 14 12  2  0  0  0  0
 16 19  1  0  0  0  0
 17 16  1  0  0  0  0
 17 15  1  0  0  0  0
 18 16  2  0  0  0  0
 19 21  2  0  0  0  0
 19 25  1  0  0  0  0
 21 22  1  0  0  0  0
 22 20  2  0  0  0  0
 23 20  1  0  0  0  0
 24 21  1  0  0  0  0
 25 23  2  0  0  0  0
M  END
>  <MODEL>
4

>  <REMARK>
 VINA RESULT:      -6.3      2.605      5.909
  Name = 
  5 active torsions:
  status: ('A' for Active; 'I' for Inactive)
    1  A    between atoms: C_1  and  C_5
    2  A    between atoms: C_2  and  C_21
    3  A    between atoms: N_3  and  C_16
    4  A    between atoms: N_15  and  C_21
    5  A    between atoms: C_16  and  C_23
                            x       y       z     vdW  Elec       q    Type
                         _______ _______ _______ _____ _____    ______ ____

>  <TORSDO>
F 5

$$$$
=
 OpenBabel11052417283D

 25 26  0  0  1  0  0  0  0  0999 V2000
  192.9190  172.6220  144.9590 C   0  0  0  0  0  1  0  0  0  0  0  0
  189.7990  174.0520  145.2830 C   0  0  0  0  0  2  0  0  0  0  0  0
  192.2700  173.9820  144.7900 C   0  0  1  0  0  3  0  0  0  0  0  0
  191.3750  175.9450  146.1240 C   0  0  0  0  0  0  0  0  0  0  0  0
  191.8140  176.9670  145.0800 C   0  0  0  0  0  1  0  0  0  0  0  0
  190.8820  173.8310  144.3260 N   0  0  0  0  0  0  0  0  0  0  0  0
  191.4590  176.6050  147.4850 C   0  0  0  0  0  1  0  0  0  0  0  0
  189.9190  175.4440  145.9150 C   0  0  1  0  0  3  0  0  0  0  0  0
  192.3550  174.7670  146.1060 C   0  0  0  0  0  2  0  0  0  0  0  0
  190.5920  173.6570  142.9200 C   0  0  0  0  0  0  0  0  0  0  0  0
  191.0820  174.5190  142.0320 C   0  0  0  0  0  2  0  0  0  0  0  0
  189.7460  172.5420  142.4290 C   0  0  0  0  0  0  0  0  0  0  0  0
  190.3100  171.2510  142.2080 N   0  0  0  0  0  1  0  0  0  0  0  0
  188.5160  172.7120  142.2200 O   0  0  0  0  0  0  0  0  0  0  0  0
  188.9310  176.4460  145.3110 C   0  0  0  0  0  2  0  0  0  0  0  0
  186.9950  176.3630  143.6620 C   0  0  0  0  0  0  0  0  0  0  0  0
  188.2420  175.8710  144.1620 N   0  0  0  0  0  2  0  0  0  0  0  0
  186.6490  176.0590  142.4910 O   0  0  0  0  0  0  0  0  0  0  0  0
  186.1140  177.2260  144.4720 C   0  0  0  0  0  0  0  0  0  0  0  0
  184.4570  178.8260  146.0770 C   0  0  0  0  0  3  0  0  0  0  0  0
  185.8990  178.5800  144.1440 C   0  0  0  0  0  0  0  0  0  0  0  0
  185.0700  179.3710  144.9450 C   0  0  0  0  0  3  0  0  0  0  0  0
  184.6810  177.4910  146.4170 C   0  0  0  0  0  3  0  0  0  0  0  0
  186.5270  179.1510  143.0870 F   0  0  0  0  0  0  0  0  0  0  0  0
  185.5100  176.6980  145.6220 C   0  0  0  0  0  3  0  0  0  0  0  0
  2  8  1  0  0  0  0
  3  1  1  1  0  0  0
  3  9  1  0  0  0  0
  4  7  1  0  0  0  0
  5  4  1  0  0  0  0
  6  3  1  0  0  0  0
  6  2  1  0  0  0  0
  8 15  1  6  0  0  0
  8  4  1  0  0  0  0
  9  4  1  0  0  0  0
 10  6  1  0  0  0  0
 11 10  2  0  0  0  0
 12 10  1  0  0  0  0
 13 12  1  0  0  0  0
 14 12  2  0  0  0  0
 16 17  1  0  0  0  0
 16 19  1  0  0  0  0
 17 15  1  0  0  0  0
 18 16  2  0  0  0  0
 19 25  1  0  0  0  0
 20 23  1  0  0  0  0
 21 19  2  0  0  0  0
 21 22  1  0  0  0  0
 22 20  2  0  0  0  0
 24 21  1  0  0  0  0
 25 23  2  0  0  0  0
M  END
>  <MODEL>
5

>  <REMARK>
 VINA RESULT:      -6.2      2.626      6.121
  Name = 
  5 active torsions:
  status: ('A' for Active; 'I' for Inactive)
    1  A    between atoms: C_1  and  C_5
    2  A    between atoms: C_2  and  C_21
    3  A    between atoms: N_3  and  C_16
    4  A    between atoms: N_15  and  C_21
    5  A    between atoms: C_16  and  C_23
                            x       y       z     vdW  Elec       q    Type
                         _______ _______ _______ _____ _____    ______ ____

>  <TORSDO>
F 5

$$$$
=
 OpenBabel11052417283D

 25 26  0  0  1  0  0  0  0  0999 V2000
  196.8150  173.5160  145.8420 C   0  0  0  0  0  1  0  0  0  0  0  0
  194.0990  174.3870  143.9050 C   0  0  0  0  0  2  0  0  0  0  0  0
  196.0480  174.7670  145.4570 C   0  0  1  0  0  3  0  0  0  0  0  0
  193.8860  176.0060  145.9310 C   0  0  0  0  0  0  0  0  0  0  0  0
  194.5350  177.3770  145.7650 C   0  0  0  0  0  1  0  0  0  0  0  0
  195.5270  174.6440  144.0870 N   0  0  0  0  0  0  0  0  0  0  0  0
  192.7820  176.1350  146.9590 C   0  0  0  0  0  1  0  0  0  0  0  0
  193.2660  175.4600  144.6160 C   0  0  1  0  0  3  0  0  0  0  0  0
  194.9320  175.0270  146.4770 C   0  0  0  0  0  2  0  0  0  0  0  0
  196.3640  174.9590  142.9510 C   0  0  0  0  0  0  0  0  0  0  0  0
  196.9920  173.9820  142.3000 C   0  0  0  0  0  2  0  0  0  0  0  0
  196.5590  176.3550  142.4880 C   0  0  0  0  0  0  0  0  0  0  0  0
  195.9790  176.7970  141.2620 N   0  0  0  0  0  1  0  0  0  0  0  0
  197.2210  177.1740  143.1780 O   0  0  0  0  0  0  0  0  0  0  0  0
  192.7030  176.4990  143.6430 C   0  0  0  0  0  2  0  0  0  0  0  0
  190.3540  175.7060  143.0690 C   0  0  0  0  0  0  0  0  0  0  0  0
  191.7320  175.8950  142.7370 N   0  0  0  0  0  2  0  0  0  0  0  0
  189.5280  175.5140  142.1390 O   0  0  0  0  0  0  0  0  0  0  0  0
  189.8720  175.7450  144.4640 C   0  0  0  0  0  0  0  0  0  0  0  0
  188.9990  175.7540  147.1320 C   0  0  0  0  0  3  0  0  0  0  0  0
  189.5670  176.9610  145.1080 C   0  0  0  0  0  0  0  0  0  0  0  0
  189.1290  176.9590  146.4360 C   0  0  0  0  0  3  0  0  0  0  0  0
  189.3180  174.5480  146.5060 C   0  0  0  0  0  3  0  0  0  0  0  0
  189.7410  178.1490  144.4770 F   0  0  0  0  0  0  0  0  0  0  0  0
  189.7580  174.5450  145.1800 C   0  0  0  0  0  3  0  0  0  0  0  0
  2  6  1  0  0  0  0
  2  8  1  0  0  0  0
  3  1  1  1  0  0  0
  3  9  1  0  0  0  0
  4  9  1  0  0  0  0
  4  7  1  0  0  0  0
  5  4  1  0  0  0  0
  6  3  1  0  0  0  0
  8 15  1  6  0  0  0
  8  4  1  0  0  0  0
 10  6  1  0  0  0  0
 11 10  2  0  0  0  0
 12 10  1  0  0  0  0
 12 14  2  0  0  0  0
 13 12  1  0  0  0  0
 16 19  1  0  0  0  0
 17 16  1  0  0  0  0
 17 15  1  0  0  0  0
 18 16  2  0  0  0  0
 19 21  2  0  0  0  0
 19 25  1  0  0  0  0
 21 22  1  0  0  0  0
 22 20  2  0  0  0  0
 23 20  1  0  0  0  0
 24 21  1  0  0  0  0
 25 23  2  0  0  0  0
M  END
>  <MODEL>
6

>  <REMARK>
 VINA RESULT:      -6.2      4.582      7.427
  Name = 
  5 active torsions:
  status: ('A' for Active; 'I' for Inactive)
    1  A    between atoms: C_1  and  C_5
    2  A    between atoms: C_2  and  C_21
    3  A    between atoms: N_3  and  C_16
    4  A    between atoms: N_15  and  C_21
    5  A    between atoms: C_16  and  C_23
                            x       y       z     vdW  Elec       q    Type
                         _______ _______ _______ _____ _____    ______ ____

>  <TORSDO>
F 5

$$$$
=
 OpenBabel11052417283D

 25 26  0  0  1  0  0  0  0  0999 V2000
  194.1810  172.3040  144.9620 C   0  0  0  0  0  1  0  0  0  0  0  0
  192.1650  174.5670  143.3180 C   0  0  0  0  0  2  0  0  0  0  0  0
  192.7410  172.7800  144.9990 C   0  0  1  0  0  3  0  0  0  0  0  0
  190.5400  172.5810  143.7530 C   0  0  0  0  0  0  0  0  0  0  0  0
  189.7100  172.6600  145.0310 C   0  0  0  0  0  1  0  0  0  0  0  0
  192.6650  174.2060  144.6430 N   0  0  0  0  0  0  0  0  0  0  0  0
  189.7980  171.7010  142.7690 C   0  0  0  0  0  1  0  0  0  0  0  0
  190.7740  173.9650  143.0880 C   0  0  1  0  0  3  0  0  0  0  0  0
  191.8800  171.9090  144.0750 C   0  0  0  0  0  2  0  0  0  0  0  0
  192.8970  175.2260  145.6410 C   0  0  0  0  0  0  0  0  0  0  0  0
  191.9780  175.4560  146.5770 C   0  0  0  0  0  2  0  0  0  0  0  0
  194.1350  176.0430  145.6500 C   0  0  0  0  0  0  0  0  0  0  0  0
  194.2720  177.1370  146.5550 N   0  0  0  0  0  1  0  0  0  0  0  0
  195.0900  175.7720  144.8750 O   0  0  0  0  0  0  0  0  0  0  0  0
  189.6570  174.9990  143.2530 C   0  0  0  0  0  2  0  0  0  0  0  0
  189.7430  177.3250  144.2830 C   0  0  0  0  0  0  0  0  0  0  0  0
  190.2040  176.3490  143.3450 N   0  0  0  0  0  2  0  0  0  0  0  0
  190.4780  178.3140  144.5380 O   0  0  0  0  0  0  0  0  0  0  0  0
  188.4430  177.1980  144.9700 C   0  0  0  0  0  0  0  0  0  0  0  0
  186.0080  176.9620  146.3470 C   0  0  0  0  0  3  0  0  0  0  0  0
  187.2500  177.6760  144.3920 C   0  0  0  0  0  0  0  0  0  0  0  0
  186.0390  177.5520  145.0810 C   0  0  0  0  0  3  0  0  0  0  0  0
  187.1890  176.5030  146.9330 C   0  0  0  0  0  3  0  0  0  0  0  0
  187.2590  178.3070  143.1910 F   0  0  0  0  0  0  0  0  0  0  0  0
  188.4000  176.6260  146.2500 C   0  0  0  0  0  3  0  0  0  0  0  0
  2  6  1  0  0  0  0
  3  1  1  6  0  0  0
  4  9  1  0  0  0  0
  4  5  1  0  0  0  0
  6  3  1  0  0  0  0
  6 10  1  0  0  0  0
  7  4  1  0  0  0  0
  8 15  1  1  0  0  0
  8  2  1  0  0  0  0
  8  4  1  0  0  0  0
  9  3  1  0  0  0  0
 10 12  1  0  0  0  0
 10 11  2  0  0  0  0
 12 13  1  0  0  0  0
 14 12  2  0  0  0  0
 15 17  1  0  0  0  0
 16 18  2  0  0  0  0
 16 19  1  0  0  0  0
 17 16  1  0  0  0  0
 19 25  1  0  0  0  0
 20 23  1  0  0  0  0
 21 19  2  0  0  0  0
 21 22  1  0  0  0  0
 22 20  2  0  0  0  0
 24 21  1  0  0  0  0
 25 23  2  0  0  0  0
M  END
>  <MODEL>
7

>  <REMARK>
 VINA RESULT:      -6.1      2.618      6.652
  Name = 
  5 active torsions:
  status: ('A' for Active; 'I' for Inactive)
    1  A    between atoms: C_1  and  C_5
    2  A    between atoms: C_2  and  C_21
    3  A    between atoms: N_3  and  C_16
    4  A    between atoms: N_15  and  C_21
    5  A    between atoms: C_16  and  C_23
                            x       y       z     vdW  Elec       q    Type
                         _______ _______ _______ _____ _____    ______ ____

>  <TORSDO>
F 5

$$$$
=
 OpenBabel11052417283D

 25 26  0  0  1  0  0  0  0  0999 V2000
  184.5970  178.4980  144.0600 C   0  0  0  0  0  1  0  0  0  0  0  0
  186.8570  175.9090  143.7960 C   0  0  0  0  0  2  0  0  0  0  0  0
  186.0020  178.2650  143.5380 C   0  0  1  0  0  3  0  0  0  0  0  0
  187.2620  177.2340  141.5930 C   0  0  0  0  0  0  0  0  0  0  0  0
  188.3650  178.2870  141.6360 C   0  0  0  0  0  1  0  0  0  0  0  0
  186.6870  177.2500  144.3530 N   0  0  0  0  0  0  0  0  0  0  0  0
  187.0910  176.7980  140.1530 C   0  0  0  0  0  1  0  0  0  0  0  0
  187.5830  175.9770  142.4470 C   0  0  1  0  0  3  0  0  0  0  0  0
  185.9480  177.8740  142.0550 C   0  0  0  0  0  2  0  0  0  0  0  0
  187.3410  177.6180  145.5880 C   0  0  0  0  0  0  0  0  0  0  0  0
  188.6410  177.9100  145.5870 C   0  0  0  0  0  2  0  0  0  0  0  0
  186.6070  177.6690  146.8760 C   0  0  0  0  0  0  0  0  0  0  0  0
  186.0630  178.9000  147.3480 N   0  0  0  0  0  1  0  0  0  0  0  0
  186.4350  176.6260  147.5600 O   0  0  0  0  0  0  0  0  0  0  0  0
  189.0590  175.5850  142.5590 C   0  0  0  0  0  2  0  0  0  0  0  0
  189.5400  173.4180  143.8030 C   0  0  0  0  0  0  0  0  0  0  0  0
  189.2130  174.1360  142.6100 N   0  0  0  0  0  2  0  0  0  0  0  0
  189.3110  172.1810  143.8480 O   0  0  0  0  0  0  0  0  0  0  0  0
  190.1220  174.0860  144.9830 C   0  0  0  0  0  0  0  0  0  0  0  0
  191.1770  175.3160  147.2750 C   0  0  0  0  0  3  0  0  0  0  0  0
  191.4760  174.4750  145.0220 C   0  0  0  0  0  0  0  0  0  0  0  0
  191.9950  175.0910  146.1650 C   0  0  0  0  0  3  0  0  0  0  0  0
  189.8400  174.9150  147.2510 C   0  0  0  0  0  3  0  0  0  0  0  0
  192.3070  174.2170  143.9820 F   0  0  0  0  0  0  0  0  0  0  0  0
  189.3180  174.2980  146.1120 C   0  0  0  0  0  3  0  0  0  0  0  0
  2  6  1  0  0  0  0
  3  1  1  1  0  0  0
  3  6  1  0  0  0  0
  4  5  1  0  0  0  0
  4  9  1  0  0  0  0
  4  8  1  0  0  0  0
  6 10  1  0  0  0  0
  7  4  1  0  0  0  0
  8 15  1  1  0  0  0
  8  2  1  0  0  0  0
  9  3  1  0  0  0  0
 10 12  1  0  0  0  0
 11 10  2  0  0  0  0
 12 13  1  0  0  0  0
 12 14  2  0  0  0  0
 15 17  1  0  0  0  0
 16 18  2  0  0  0  0
 16 19  1  0  0  0  0
 17 16  1  0  0  0  0
 19 21  2  0  0  0  0
 19 25  1  0  0  0  0
 21 22  1  0  0  0  0
 22 20  2  0  0  0  0
 23 20  1  0  0  0  0
 24 21  1  0  0  0  0
 25 23  2  0  0  0  0
M  END
>  <MODEL>
8

>  <REMARK>
 VINA RESULT:      -6.1      2.362      4.372
  Name = 
  5 active torsions:
  status: ('A' for Active; 'I' for Inactive)
    1  A    between atoms: C_1  and  C_5
    2  A    between atoms: C_2  and  C_21
    3  A    between atoms: N_3  and  C_16
    4  A    between atoms: N_15  and  C_21
    5  A    between atoms: C_16  and  C_23
                            x       y       z     vdW  Elec       q    Type
                         _______ _______ _______ _____ _____    ______ ____

>  <TORSDO>
F 5

$$$$
=
 OpenBabel11052417283D

 25 26  0  0  1  0  0  0  0  0999 V2000
  184.4630  177.9050  141.7030 C   0  0  0  0  0  1  0  0  0  0  0  0
  186.2110  176.5780  144.3630 C   0  0  0  0  0  2  0  0  0  0  0  0
  185.8430  178.0120  142.3230 C   0  0  1  0  0  3  0  0  0  0  0  0
  188.0430  176.7640  142.5230 C   0  0  0  0  0  0  0  0  0  0  0  0
  188.8700  178.0460  142.5270 C   0  0  0  0  0  1  0  0  0  0  0  0
  185.7620  177.8430  143.7820 N   0  0  0  0  0  0  0  0  0  0  0  0
  188.8670  175.6800  141.8620 C   0  0  0  0  0  1  0  0  0  0  0  0
  187.6570  176.2810  143.9490 C   0  0  1  0  0  3  0  0  0  0  0  0
  186.7860  176.9880  141.6760 C   0  0  0  0  0  2  0  0  0  0  0  0
  185.4300  178.9630  144.6340 C   0  0  0  0  0  0  0  0  0  0  0  0
  185.5600  180.2060  144.1740 C   0  0  0  0  0  2  0  0  0  0  0  0
  184.9540  178.7710  146.0260 C   0  0  0  0  0  0  0  0  0  0  0  0
  185.8680  178.8480  147.1180 N   0  0  0  0  0  1  0  0  0  0  0  0
  183.7370  178.5570  146.2660 O   0  0  0  0  0  0  0  0  0  0  0  0
  188.6570  176.5850  145.0670 C   0  0  0  0  0  2  0  0  0  0  0  0
  189.6100  175.0460  146.8550 C   0  0  0  0  0  0  0  0  0  0  0  0
  188.5060  175.6460  146.1730 N   0  0  0  0  0  2  0  0  0  0  0  0
  189.4180  174.5410  147.9920 O   0  0  0  0  0  0  0  0  0  0  0  0
  190.9660  175.0150  146.2730 C   0  0  0  0  0  0  0  0  0  0  0  0
  193.5760  174.9690  145.2400 C   0  0  0  0  0  3  0  0  0  0  0  0
  191.2690  174.2330  145.1410 C   0  0  0  0  0  0  0  0  0  0  0  0
  192.5700  174.2170  144.6280 C   0  0  0  0  0  3  0  0  0  0  0  0
  193.2870  175.7300  146.3740 C   0  0  0  0  0  3  0  0  0  0  0  0
  190.3270  173.4470  144.5620 F   0  0  0  0  0  0  0  0  0  0  0  0
  191.9900  175.7480  146.8910 C   0  0  0  0  0  3  0  0  0  0  0  0
  3  1  1  6  0  0  0
  3  6  1  0  0  0  0
  4  5  1  0  0  0  0
  4  8  1  0  0  0  0
  6  2  1  0  0  0  0
  6 10  1  0  0  0  0
  7  4  1  0  0  0  0
  8  2  1  0  0  0  0
  8 15  1  1  0  0  0
  9  3  1  0  0  0  0
  9  4  1  0  0  0  0
 10 12  1  0  0  0  0
 11 10  2  0  0  0  0
 12 14  2  0  0  0  0
 12 13  1  0  0  0  0
 15 17  1  0  0  0  0
 16 18  2  0  0  0  0
 17 16  1  0  0  0  0
 19 16  1  0  0  0  0
 19 25  1  0  0  0  0
 20 23  1  0  0  0  0
 21 19  2  0  0  0  0
 22 21  1  0  0  0  0
 22 20  2  0  0  0  0
 23 25  2  0  0  0  0
 24 21  1  0  0  0  0
M  END
>  <MODEL>
9

>  <REMARK>
 VINA RESULT:      -6.1      2.394      4.157
  Name = 
  5 active torsions:
  status: ('A' for Active; 'I' for Inactive)
    1  A    between atoms: C_1  and  C_5
    2  A    between atoms: C_2  and  C_21
    3  A    between atoms: N_3  and  C_16
    4  A    between atoms: N_15  and  C_21
    5  A    between atoms: C_16  and  C_23
                            x       y       z     vdW  Elec       q    Type
                         _______ _______ _______ _____ _____    ______ ____

>  <TORSDO>
F 5

$$$$
