=
 OpenBabel11052417593D

 31 34  0  0  1  0  0  0  0  0999 V2000
  189.0620  176.0880  144.9520 C   0  0  0  0  0  2  0  0  0  0  0  0
  188.1880  176.9480  144.0420 C   0  0  1  0  0  3  0  0  0  0  0  0
  188.1910  178.2680  141.9830 N   0  0  0  0  0  2  0  0  0  0  0  0
  188.8050  177.1140  142.6570 C   0  0  2  0  0  3  0  0  0  0  0  0
  187.7940  176.8990  141.6260 C   0  0  0  0  0  2  0  0  0  0  0  0
  186.7510  176.4200  143.9590 C   0  0  0  0  0  2  0  0  0  0  0  0
  185.7040  177.2220  144.7690 C   0  0  1  0  0  3  0  0  0  0  0  0
  186.2410  177.9340  146.0230 C   0  0  1  0  0  3  0  0  0  0  0  0
  185.2270  178.1010  146.9850 O   0  0  0  0  0  0  0  0  0  0  0  0
  186.1800  177.0970  147.2450 C   0  0  0  0  0  2  0  0  0  0  0  0
  185.4170  179.5890  143.8820 C   0  0  0  0  0  1  0  0  0  0  0  0
  184.8380  178.1820  143.9410 C   0  0  1  0  0  3  0  0  0  0  0  0
  184.6370  177.6900  142.6510 O   0  0  0  0  0  0  0  0  0  0  0  0
  183.4360  178.2600  142.2270 C   0  0  0  0  0  2  0  0  0  0  0  0
  184.7160  178.3710  140.2300 O   0  0  0  0  0  1  0  0  0  0  0  0
  183.4110  178.3110  140.7140 C   0  0  0  0  0  2  0  0  0  0  0  0
  190.4610  175.8940  144.3710 C   0  0  1  0  0  3  0  0  0  0  0  0
  195.1430  175.1700  146.0230 C   0  0  0  0  0  1  0  0  0  0  0  0
  191.5250  176.6920  145.1360 C   0  0  2  0  0  3  0  0  0  0  0  0
  192.6650  176.1800  147.2030 O   0  0  0  0  0  0  0  0  0  0  0  0
  193.2100  176.3930  144.4740 S   0  0  0  0  0  0  0  0  0  0  0  0
  193.6860  175.0380  145.6270 C   0  0  2  0  0  3  0  0  0  0  0  0
  192.8650  174.9460  146.7710 O   0  0  0  0  0  0  0  0  0  0  0  0
  191.4290  176.5580  146.6600 C   0  0  0  0  0  2  0  0  0  0  0  0
  190.8170  174.4180  144.1450 C   0  0  1  0  0  3  0  0  0  0  0  0
  189.6480  172.2640  144.6600 C   0  0  0  0  0  3  0  0  0  0  0  0
  190.0680  173.4740  145.0610 C   0  0  0  0  0  3  0  0  0  0  0  0
  189.7960  171.7910  143.2370 C   0  0  0  0  0  2  0  0  0  0  0  0
  190.8290  172.2360  141.1330 O   0  0  0  0  0  1  0  0  0  0  0  0
  190.6650  174.0530  142.6680 C   0  0  0  0  0  2  0  0  0  0  0  0
  190.8850  172.5560  142.4880 C   0  0  1  0  0  3  0  0  0  0  0  0
  2  6  1  6  0  0  0
  2  1  1  0  0  0  0
  3  4  1  0  0  0  0
  4  2  1  1  0  0  0
  5  3  1  0  0  0  0
  5  4  1  0  0  0  0
  7  6  1  6  0  0  0
  8  7  1  6  0  0  0
  8  9  1  0  0  0  0
  8 10  1  0  0  0  0
  9 10  1  0  0  0  0
 12 11  1  6  0  0  0
 12  7  1  0  0  0  0
 13 12  1  0  0  0  0
 14 13  1  0  0  0  0
 15 16  1  0  0  0  0
 16 14  1  0  0  0  0
 17  1  1  1  0  0  0
 19 17  1  6  0  0  0
 19 24  1  0  0  0  0
 21 19  1  0  0  0  0
 21 22  1  0  0  0  0
 22 18  1  1  0  0  0
 22 23  1  0  0  0  0
 23 20  1  0  0  0  0
 24 20  1  0  0  0  0
 25 17  1  6  0  0  0
 25 27  1  0  0  0  0
 26 27  2  0  0  0  0
 28 26  1  0  0  0  0
 30 25  1  0  0  0  0
 31 29  1  6  0  0  0
 31 30  1  0  0  0  0
 31 28  1  0  0  0  0
M  END
>  <MODEL>
1

>  <REMARK>
 VINA RESULT:      -6.3      0.000      0.000
  Name = 
  12 active torsions:
  status: ('A' for Active; 'I' for Inactive)
    1  A    between atoms: C_1  and  C_24
    2  A    between atoms: C_3  and  C_15
    3  A    between atoms: C_3  and  C_24
    4  A    between atoms: C_4  and  C_27
    5  A    between atoms: C_5  and  C_27
    6  A    between atoms: C_9  and  C_23
    7  A    between atoms: C_15  and  C_20
    8  A    between atoms: C_15  and  C_21
    9  A    between atoms: C_19  and  O_22
   10  A    between atoms: C_19  and  C_24
   11  A    between atoms: C_20  and  C_27
   12  A    between atoms: O_22  and  C_23
                            x       y       z     vdW  Elec       q    Type
                         _______ _______ _______ _____ _____    ______ ____

>  <TORSDO>
F 12

$$$$
=
 OpenBabel11052417593D

 31 34  0  0  1  0  0  0  0  0999 V2000
  189.0260  177.3550  144.6850 C   0  0  0  0  0  2  0  0  0  0  0  0
  189.7260  176.6270  143.5400 C   0  0  1  0  0  3  0  0  0  0  0  0
  191.9730  177.3890  142.9470 N   0  0  0  0  0  2  0  0  0  0  0  0
  191.2190  176.4610  143.8030 C   0  0  2  0  0  3  0  0  0  0  0  0
  191.8890  175.9630  142.6060 C   0  0  0  0  0  2  0  0  0  0  0  0
  189.0580  175.2860  143.2170 C   0  0  0  0  0  2  0  0  0  0  0  0
  188.3230  175.2230  141.8560 C   0  0  1  0  0  3  0  0  0  0  0  0
  188.0450  176.5830  141.1900 C   0  0  1  0  0  3  0  0  0  0  0  0
  187.1400  176.4490  140.1210 O   0  0  0  0  0  0  0  0  0  0  0  0
  186.6320  177.0160  141.3060 C   0  0  0  0  0  2  0  0  0  0  0  0
  189.9200  173.2820  141.4670 C   0  0  0  0  0  1  0  0  0  0  0  0
  188.9230  174.2450  140.8370 C   0  0  1  0  0  3  0  0  0  0  0  0
  187.9210  173.5350  140.1740 O   0  0  0  0  0  0  0  0  0  0  0  0
  188.5320  173.0280  139.0260 C   0  0  0  0  0  2  0  0  0  0  0  0
  189.4880  174.0780  137.1230 O   0  0  0  0  0  1  0  0  0  0  0  0
  188.3200  173.9910  137.8770 C   0  0  0  0  0  2  0  0  0  0  0  0
  187.9470  176.4840  145.3290 C   0  0  1  0  0  3  0  0  0  0  0  0
  191.7150  177.2140  148.5610 C   0  0  0  0  0  1  0  0  0  0  0  0
  188.2380  176.1970  146.8080 C   0  0  2  0  0  3  0  0  0  0  0  0
  190.0320  174.9390  147.8230 O   0  0  0  0  0  0  0  0  0  0  0  0
  189.1490  177.5770  147.6050 S   0  0  0  0  0  0  0  0  0  0  0  0
  190.8510  176.9210  147.3490 C   0  0  2  0  0  3  0  0  0  0  0  0
  190.8930  175.5490  147.0270 O   0  0  0  0  0  0  0  0  0  0  0  0
  188.8590  174.8200  147.0650 C   0  0  0  0  0  2  0  0  0  0  0  0
  186.5250  176.9870  145.0480 C   0  0  1  0  0  3  0  0  0  0  0  0
  184.5750  177.5540  146.5130 C   0  0  0  0  0  3  0  0  0  0  0  0
  185.5550  176.7020  146.1750 C   0  0  0  0  0  3  0  0  0  0  0  0
  184.4260  178.9080  145.8690 C   0  0  0  0  0  2  0  0  0  0  0  0
  185.1420  180.2970  144.0660 O   0  0  0  0  0  1  0  0  0  0  0  0
  186.5490  178.4620  144.6490 C   0  0  0  0  0  2  0  0  0  0  0  0
  185.1210  178.9770  144.5110 C   0  0  1  0  0  3  0  0  0  0  0  0
  2  6  1  1  0  0  0
  2  1  1  0  0  0  0
  3  4  1  0  0  0  0
  4  2  1  6  0  0  0
  5  3  1  0  0  0  0
  5  4  1  0  0  0  0
  7  6  1  1  0  0  0
  8 10  1  0  0  0  0
  8  7  1  1  0  0  0
  9  8  1  0  0  0  0
  9 10  1  0  0  0  0
 12 11  1  1  0  0  0
 12  7  1  0  0  0  0
 13 12  1  0  0  0  0
 14 13  1  0  0  0  0
 15 16  1  0  0  0  0
 16 14  1  0  0  0  0
 17  1  1  1  0  0  0
 19 17  1  6  0  0  0
 19 24  1  0  0  0  0
 19 21  1  0  0  0  0
 22 21  1  0  0  0  0
 22 18  1  1  0  0  0
 23 22  1  0  0  0  0
 23 20  1  0  0  0  0
 24 20  1  0  0  0  0
 25 17  1  1  0  0  0
 25 27  1  0  0  0  0
 27 26  2  0  0  0  0
 28 26  1  0  0  0  0
 30 25  1  0  0  0  0
 31 29  1  1  0  0  0
 31 30  1  0  0  0  0
 31 28  1  0  0  0  0
M  END
>  <MODEL>
2

>  <REMARK>
 VINA RESULT:      -6.3      2.568      5.772
  Name = 
  12 active torsions:
  status: ('A' for Active; 'I' for Inactive)
    1  A    between atoms: C_1  and  C_24
    2  A    between atoms: C_3  and  C_15
    3  A    between atoms: C_3  and  C_24
    4  A    between atoms: C_4  and  C_27
    5  A    between atoms: C_5  and  C_27
    6  A    between atoms: C_9  and  C_23
    7  A    between atoms: C_15  and  C_20
    8  A    between atoms: C_15  and  C_21
    9  A    between atoms: C_19  and  O_22
   10  A    between atoms: C_19  and  C_24
   11  A    between atoms: C_20  and  C_27
   12  A    between atoms: O_22  and  C_23
                            x       y       z     vdW  Elec       q    Type
                         _______ _______ _______ _____ _____    ______ ____

>  <TORSDO>
F 12

$$$$
=
 OpenBabel11052417593D

 31 34  0  0  1  0  0  0  0  0999 V2000
  188.8480  176.4960  143.9560 C   0  0  0  0  0  2  0  0  0  0  0  0
  189.1400  175.2700  143.0940 C   0  0  1  0  0  3  0  0  0  0  0  0
  187.7700  173.6140  141.9270 N   0  0  0  0  0  2  0  0  0  0  0  0
  188.0640  175.0510  142.0370 C   0  0  2  0  0  3  0  0  0  0  0  0
  188.6050  174.2820  140.9200 C   0  0  0  0  0  2  0  0  0  0  0  0
  190.5400  175.3260  142.4720 C   0  0  0  0  0  2  0  0  0  0  0  0
  191.5800  174.3640  143.0950 C   0  0  1  0  0  3  0  0  0  0  0  0
  191.2700  172.8640  142.9430 C   0  0  1  0  0  3  0  0  0  0  0  0
  192.1990  172.0790  143.6510 O   0  0  0  0  0  0  0  0  0  0  0  0
  190.9180  172.2040  144.2230 C   0  0  0  0  0  2  0  0  0  0  0  0
  193.2960  174.4780  141.2210 C   0  0  0  0  0  1  0  0  0  0  0  0
  193.0390  174.6470  142.7120 C   0  0  1  0  0  3  0  0  0  0  0  0
  193.4280  175.9210  143.1270 O   0  0  0  0  0  0  0  0  0  0  0  0
  194.7360  176.0720  142.6630 C   0  0  0  0  0  2  0  0  0  0  0  0
  196.7210  177.0740  143.4950 O   0  0  0  0  0  1  0  0  0  0  0  0
  195.6720  176.2270  143.8430 C   0  0  0  0  0  2  0  0  0  0  0  0
  187.8740  176.1700  145.0880 C   0  0  1  0  0  3  0  0  0  0  0  0
  192.4990  176.3810  147.0220 C   0  0  0  0  0  1  0  0  0  0  0  0
  188.5130  176.3460  146.4730 C   0  0  2  0  0  3  0  0  0  0  0  0
  190.0510  174.9170  147.6670 O   0  0  0  0  0  0  0  0  0  0  0  0
  190.0090  177.4060  146.4040 S   0  0  0  0  0  0  0  0  0  0  0  0
  191.2520  176.0580  146.2230 C   0  0  2  0  0  3  0  0  0  0  0  0
  190.7610  174.7790  146.5600 O   0  0  0  0  0  0  0  0  0  0  0  0
  188.7230  175.0320  147.2330 C   0  0  0  0  0  2  0  0  0  0  0  0
  186.5130  176.8600  144.9250 C   0  0  1  0  0  3  0  0  0  0  0  0
  184.7740  177.6490  146.5450 C   0  0  0  0  0  3  0  0  0  0  0  0
  185.6040  176.6820  146.1230 C   0  0  0  0  0  3  0  0  0  0  0  0
  184.7570  179.0230  145.9280 C   0  0  0  0  0  2  0  0  0  0  0  0
  185.5080  180.3410  144.0870 O   0  0  0  0  0  1  0  0  0  0  0  0
  186.7010  178.3270  144.5390 C   0  0  0  0  0  2  0  0  0  0  0  0
  185.3470  179.0270  144.5200 C   0  0  1  0  0  3  0  0  0  0  0  0
  2  6  1  6  0  0  0
  2  1  1  0  0  0  0
  3  4  1  0  0  0  0
  4  2  1  1  0  0  0
  5  3  1  0  0  0  0
  5  4  1  0  0  0  0
  7  6  1  6  0  0  0
  8  7  1  1  0  0  0
  8  9  1  0  0  0  0
  8 10  1  0  0  0  0
  9 10  1  0  0  0  0
 12 11  1  6  0  0  0
 12  7  1  0  0  0  0
 12 13  1  0  0  0  0
 14 13  1  0  0  0  0
 14 16  1  0  0  0  0
 15 16  1  0  0  0  0
 17  1  1  6  0  0  0
 19 17  1  6  0  0  0
 19 24  1  0  0  0  0
 21 19  1  0  0  0  0
 22 21  1  0  0  0  0
 22 23  1  0  0  0  0
 22 18  1  1  0  0  0
 23 20  1  0  0  0  0
 24 20  1  0  0  0  0
 25 17  1  1  0  0  0
 25 27  1  0  0  0  0
 27 26  2  0  0  0  0
 28 26  1  0  0  0  0
 30 25  1  0  0  0  0
 31 29  1  1  0  0  0
 31 30  1  0  0  0  0
 31 28  1  0  0  0  0
M  END
>  <MODEL>
3

>  <REMARK>
 VINA RESULT:      -6.2      2.471      6.990
  Name = 
  12 active torsions:
  status: ('A' for Active; 'I' for Inactive)
    1  A    between atoms: C_1  and  C_24
    2  A    between atoms: C_3  and  C_15
    3  A    between atoms: C_3  and  C_24
    4  A    between atoms: C_4  and  C_27
    5  A    between atoms: C_5  and  C_27
    6  A    between atoms: C_9  and  C_23
    7  A    between atoms: C_15  and  C_20
    8  A    between atoms: C_15  and  C_21
    9  A    between atoms: C_19  and  O_22
   10  A    between atoms: C_19  and  C_24
   11  A    between atoms: C_20  and  C_27
   12  A    between atoms: O_22  and  C_23
                            x       y       z     vdW  Elec       q    Type
                         _______ _______ _______ _____ _____    ______ ____

>  <TORSDO>
F 12

$$$$
=
 OpenBabel11052417593D

 31 34  0  0  1  0  0  0  0  0999 V2000
  188.6540  176.1130  143.3720 C   0  0  0  0  0  2  0  0  0  0  0  0
  187.6810  175.5990  142.3140 C   0  0  1  0  0  3  0  0  0  0  0  0
  187.7990  177.7950  141.2440 N   0  0  0  0  0  2  0  0  0  0  0  0
  187.8340  176.3460  140.9930 C   0  0  2  0  0  3  0  0  0  0  0  0
  186.6220  177.1050  140.7000 C   0  0  0  0  0  2  0  0  0  0  0  0
  187.7910  174.0820  142.1200 C   0  0  0  0  0  2  0  0  0  0  0  0
  189.1590  173.4650  142.4990 C   0  0  1  0  0  3  0  0  0  0  0  0
  189.0930  172.1440  143.2870 C   0  0  1  0  0  3  0  0  0  0  0  0
  190.3810  171.6230  143.5130 O   0  0  0  0  0  0  0  0  0  0  0  0
  189.7420  172.2200  144.6180 C   0  0  0  0  0  2  0  0  0  0  0  0
  189.4920  173.0060  140.0190 C   0  0  0  0  0  1  0  0  0  0  0  0
  190.1620  173.3460  141.3430 C   0  0  1  0  0  3  0  0  0  0  0  0
  190.9190  174.5110  141.2150 O   0  0  0  0  0  0  0  0  0  0  0  0
  191.9070  174.4140  142.1970 C   0  0  0  0  0  2  0  0  0  0  0  0
  193.0640  176.4720  142.4530 O   0  0  0  0  0  1  0  0  0  0  0  0
  193.1030  175.2470  141.7890 C   0  0  0  0  0  2  0  0  0  0  0  0
  187.9720  176.2840  144.7290 C   0  0  1  0  0  3  0  0  0  0  0  0
  192.8050  175.9960  146.0460 C   0  0  0  0  0  1  0  0  0  0  0  0
  188.8990  176.9270  145.7690 C   0  0  2  0  0  3  0  0  0  0  0  0
  190.2580  175.9010  147.4820 O   0  0  0  0  0  0  0  0  0  0  0  0
  190.5600  177.2820  145.0760 S   0  0  0  0  0  0  0  0  0  0  0  0
  191.3810  175.7200  145.6020 C   0  0  2  0  0  3  0  0  0  0  0  0
  190.6780  175.0120  146.5980 O   0  0  0  0  0  0  0  0  0  0  0  0
  188.9370  176.1870  147.1110 C   0  0  0  0  0  2  0  0  0  0  0  0
  186.5870  176.9370  144.6250 C   0  0  1  0  0  3  0  0  0  0  0  0
  184.8020  177.4710  146.2970 C   0  0  0  0  0  3  0  0  0  0  0  0
  185.6720  176.5900  145.7810 C   0  0  0  0  0  3  0  0  0  0  0  0
  184.7370  178.9050  145.8390 C   0  0  0  0  0  2  0  0  0  0  0  0
  185.4570  180.4520  144.1710 O   0  0  0  0  0  1  0  0  0  0  0  0
  186.7220  178.4440  144.4100 C   0  0  0  0  0  2  0  0  0  0  0  0
  185.3430  179.0910  144.4500 C   0  0  1  0  0  3  0  0  0  0  0  0
  2  6  1  6  0  0  0
  2  1  1  0  0  0  0
  4  3  1  0  0  0  0
  4  2  1  1  0  0  0
  5  4  1  0  0  0  0
  5  3  1  0  0  0  0
  7  6  1  6  0  0  0
  8  7  1  6  0  0  0
  8  9  1  0  0  0  0
  8 10  1  0  0  0  0
  9 10  1  0  0  0  0
 12 11  1  6  0  0  0
 12  7  1  0  0  0  0
 13 12  1  0  0  0  0
 13 14  1  0  0  0  0
 16 14  1  0  0  0  0
 16 15  1  0  0  0  0
 17  1  1  6  0  0  0
 19 17  1  6  0  0  0
 19 24  1  0  0  0  0
 21 22  1  0  0  0  0
 21 19  1  0  0  0  0
 22 18  1  1  0  0  0
 22 23  1  0  0  0  0
 23 20  1  0  0  0  0
 24 20  1  0  0  0  0
 25 17  1  1  0  0  0
 25 27  1  0  0  0  0
 27 26  2  0  0  0  0
 28 26  1  0  0  0  0
 30 31  1  0  0  0  0
 30 25  1  0  0  0  0
 31 29  1  1  0  0  0
 31 28  1  0  0  0  0
M  END
>  <MODEL>
4

>  <REMARK>
 VINA RESULT:      -6.2      2.029      6.080
  Name = 
  12 active torsions:
  status: ('A' for Active; 'I' for Inactive)
    1  A    between atoms: C_1  and  C_24
    2  A    between atoms: C_3  and  C_15
    3  A    between atoms: C_3  and  C_24
    4  A    between atoms: C_4  and  C_27
    5  A    between atoms: C_5  and  C_27
    6  A    between atoms: C_9  and  C_23
    7  A    between atoms: C_15  and  C_20
    8  A    between atoms: C_15  and  C_21
    9  A    between atoms: C_19  and  O_22
   10  A    between atoms: C_19  and  C_24
   11  A    between atoms: C_20  and  C_27
   12  A    between atoms: O_22  and  C_23
                            x       y       z     vdW  Elec       q    Type
                         _______ _______ _______ _____ _____    ______ ____

>  <TORSDO>
F 12

$$$$
=
 OpenBabel11052417593D

 31 34  0  0  1  0  0  0  0  0999 V2000
  190.7640  173.9350  145.1940 C   0  0  0  0  0  2  0  0  0  0  0  0
  190.5910  174.1250  143.6890 C   0  0  1  0  0  3  0  0  0  0  0  0
  192.3520  173.2520  142.2340 N   0  0  0  0  0  2  0  0  0  0  0  0
  191.0870  172.9150  142.9050 C   0  0  2  0  0  3  0  0  0  0  0  0
  191.0950  173.2100  141.4750 C   0  0  0  0  0  2  0  0  0  0  0  0
  189.1480  174.4840  143.3170 C   0  0  0  0  0  2  0  0  0  0  0  0
  188.9080  175.9690  142.9530 C   0  0  1  0  0  3  0  0  0  0  0  0
  190.1770  176.7960  142.6760 C   0  0  1  0  0  3  0  0  0  0  0  0
  189.8530  178.1220  142.3320 O   0  0  0  0  0  0  0  0  0  0  0  0
  190.3660  177.9170  143.6280 C   0  0  0  0  0  2  0  0  0  0  0  0
  188.0110  175.2380  140.6880 C   0  0  0  0  0  1  0  0  0  0  0  0
  187.8670  176.2090  141.8520 C   0  0  1  0  0  3  0  0  0  0  0  0
  186.5700  176.1530  142.3670 O   0  0  0  0  0  0  0  0  0  0  0  0
  186.4560  177.2780  143.1860 C   0  0  0  0  0  2  0  0  0  0  0  0
  184.9970  178.5340  141.7970 O   0  0  0  0  0  1  0  0  0  0  0  0
  186.2860  178.5110  142.3250 C   0  0  0  0  0  2  0  0  0  0  0  0
  191.4020  175.1610  145.8460 C   0  0  1  0  0  3  0  0  0  0  0  0
  186.7720  176.5530  147.1840 C   0  0  0  0  0  1  0  0  0  0  0  0
  190.6760  175.5810  147.1310 C   0  0  2  0  0  3  0  0  0  0  0  0
  189.4620  177.6060  147.6390 O   0  0  0  0  0  0  0  0  0  0  0  0
  188.9780  174.8910  147.2120 S   0  0  0  0  0  0  0  0  0  0  0  0
  188.0960  176.3330  146.4800 C   0  0  2  0  0  3  0  0  0  0  0  0
  188.8570  177.5210  146.4670 O   0  0  0  0  0  0  0  0  0  0  0  0
  190.7450  177.0840  147.4230 C   0  0  0  0  0  2  0  0  0  0  0  0
  192.9250  175.0390  145.9900 C   0  0  1  0  0  3  0  0  0  0  0  0
  194.5960  173.3260  145.2490 C   0  0  0  0  0  3  0  0  0  0  0  0
  193.4290  173.6180  145.8450 C   0  0  0  0  0  3  0  0  0  0  0  0
  195.4470  174.3770  144.5840 C   0  0  0  0  0  2  0  0  0  0  0  0
  195.7840  176.7230  144.3080 O   0  0  0  0  0  1  0  0  0  0  0  0
  193.6300  176.0140  145.0470 C   0  0  0  0  0  2  0  0  0  0  0  0
  195.1350  175.7800  145.1020 C   0  0  1  0  0  3  0  0  0  0  0  0
  2  6  1  1  0  0  0
  2  1  1  0  0  0  0
  3  4  1  0  0  0  0
  4  2  1  1  0  0  0
  5  3  1  0  0  0  0
  5  4  1  0  0  0  0
  7  6  1  6  0  0  0
  8  7  1  1  0  0  0
  8 10  1  0  0  0  0
  9  8  1  0  0  0  0
  9 10  1  0  0  0  0
 12 11  1  6  0  0  0
 12 13  1  0  0  0  0
 12  7  1  0  0  0  0
 13 14  1  0  0  0  0
 15 16  1  0  0  0  0
 16 14  1  0  0  0  0
 17  1  1  1  0  0  0
 19 17  1  6  0  0  0
 19 21  1  0  0  0  0
 19 24  1  0  0  0  0
 22 18  1  1  0  0  0
 22 21  1  0  0  0  0
 23 22  1  0  0  0  0
 23 20  1  0  0  0  0
 24 20  1  0  0  0  0
 25 17  1  6  0  0  0
 26 27  2  0  0  0  0
 27 25  1  0  0  0  0
 28 31  1  0  0  0  0
 28 26  1  0  0  0  0
 30 31  1  0  0  0  0
 30 25  1  0  0  0  0
 31 29  1  6  0  0  0
M  END
>  <MODEL>
5

>  <REMARK>
 VINA RESULT:      -6.1      2.645      4.747
  Name = 
  12 active torsions:
  status: ('A' for Active; 'I' for Inactive)
    1  A    between atoms: C_1  and  C_24
    2  A    between atoms: C_3  and  C_15
    3  A    between atoms: C_3  and  C_24
    4  A    between atoms: C_4  and  C_27
    5  A    between atoms: C_5  and  C_27
    6  A    between atoms: C_9  and  C_23
    7  A    between atoms: C_15  and  C_20
    8  A    between atoms: C_15  and  C_21
    9  A    between atoms: C_19  and  O_22
   10  A    between atoms: C_19  and  C_24
   11  A    between atoms: C_20  and  C_27
   12  A    between atoms: O_22  and  C_23
                            x       y       z     vdW  Elec       q    Type
                         _______ _______ _______ _____ _____    ______ ____

>  <TORSDO>
F 12

$$$$
=
 OpenBabel11052417593D

 31 34  0  0  1  0  0  0  0  0999 V2000
  189.6610  177.4380  145.4500 C   0  0  0  0  0  2  0  0  0  0  0  0
  190.7110  176.5310  144.8120 C   0  0  1  0  0  3  0  0  0  0  0  0
  191.7130  178.2590  143.4020 N   0  0  0  0  0  2  0  0  0  0  0  0
  191.9880  177.2930  144.4760 C   0  0  2  0  0  3  0  0  0  0  0  0
  192.4060  176.9980  143.1100 C   0  0  0  0  0  2  0  0  0  0  0  0
  191.0000  175.2950  145.6700 C   0  0  0  0  0  2  0  0  0  0  0  0
  191.8960  174.2230  145.0050 C   0  0  1  0  0  3  0  0  0  0  0  0
  193.1810  173.8640  145.7730 C   0  0  1  0  0  3  0  0  0  0  0  0
  194.0950  173.1850  144.9440 O   0  0  0  0  0  0  0  0  0  0  0  0
  194.3920  174.5310  145.2360 C   0  0  0  0  0  2  0  0  0  0  0  0
  189.7340  172.8860  145.0770 C   0  0  0  0  0  1  0  0  0  0  0  0
  191.1660  172.9460  144.5650 C   0  0  1  0  0  3  0  0  0  0  0  0
  191.1880  172.8100  143.1760 O   0  0  0  0  0  0  0  0  0  0  0  0
  190.1590  171.9140  142.8810 C   0  0  0  0  0  2  0  0  0  0  0  0
  188.8410  172.7370  141.0850 O   0  0  0  0  0  1  0  0  0  0  0  0
  189.9160  171.9030  141.3870 C   0  0  0  0  0  2  0  0  0  0  0  0
  188.4300  177.5910  144.5570 C   0  0  1  0  0  3  0  0  0  0  0  0
  186.2830  177.7000  140.0230 C   0  0  0  0  0  1  0  0  0  0  0  0
  188.5940  176.8710  143.2120 C   0  0  2  0  0  3  0  0  0  0  0  0
  186.9960  175.5970  141.9270 O   0  0  0  0  0  0  0  0  0  0  0  0
  188.3800  178.0160  141.7940 S   0  0  0  0  0  0  0  0  0  0  0  0
  186.5860  177.7140  141.5090 C   0  0  2  0  0  3  0  0  0  0  0  0
  186.0970  176.5450  142.1290 O   0  0  0  0  0  0  0  0  0  0  0  0
  187.7750  175.5810  143.0920 C   0  0  0  0  0  2  0  0  0  0  0  0
  187.1170  177.2790  145.2870 C   0  0  1  0  0  3  0  0  0  0  0  0
  186.4330  177.3100  147.6960 C   0  0  0  0  0  3  0  0  0  0  0  0
  187.3110  176.9400  146.7500 C   0  0  0  0  0  3  0  0  0  0  0  0
  185.2420  178.1820  147.3940 C   0  0  0  0  0  2  0  0  0  0  0  0
  183.9090  179.1260  145.6560 O   0  0  0  0  0  1  0  0  0  0  0  0
  186.1060  178.4050  145.0710 C   0  0  0  0  0  2  0  0  0  0  0  0
  184.8640  178.1450  145.9150 C   0  0  1  0  0  3  0  0  0  0  0  0
  2  1  1  1  0  0  0
  2  6  1  0  0  0  0
  3  4  1  0  0  0  0
  4  2  1  6  0  0  0
  5  3  1  0  0  0  0
  5  4  1  0  0  0  0
  7  6  1  1  0  0  0
  8  7  1  6  0  0  0
  9 10  1  0  0  0  0
  9  8  1  0  0  0  0
 10  8  1  0  0  0  0
 12  7  1  0  0  0  0
 12 11  1  6  0  0  0
 13 12  1  0  0  0  0
 14 13  1  0  0  0  0
 15 16  1  0  0  0  0
 16 14  1  0  0  0  0
 17  1  1  1  0  0  0
 19 17  1  1  0  0  0
 20 23  1  0  0  0  0
 20 24  1  0  0  0  0
 21 19  1  0  0  0  0
 22 18  1  6  0  0  0
 22 21  1  0  0  0  0
 22 23  1  0  0  0  0
 24 19  1  0  0  0  0
 25 17  1  1  0  0  0
 25 27  1  0  0  0  0
 27 26  2  0  0  0  0
 28 26  1  0  0  0  0
 30 25  1  0  0  0  0
 30 31  1  0  0  0  0
 31 29  1  1  0  0  0
 31 28  1  0  0  0  0
M  END
>  <MODEL>
6

>  <REMARK>
 VINA RESULT:      -6.0      2.172      7.217
  Name = 
  12 active torsions:
  status: ('A' for Active; 'I' for Inactive)
    1  A    between atoms: C_1  and  C_24
    2  A    between atoms: C_3  and  C_15
    3  A    between atoms: C_3  and  C_24
    4  A    between atoms: C_4  and  C_27
    5  A    between atoms: C_5  and  C_27
    6  A    between atoms: C_9  and  C_23
    7  A    between atoms: C_15  and  C_20
    8  A    between atoms: C_15  and  C_21
    9  A    between atoms: C_19  and  O_22
   10  A    between atoms: C_19  and  C_24
   11  A    between atoms: C_20  and  C_27
   12  A    between atoms: O_22  and  C_23
                            x       y       z     vdW  Elec       q    Type
                         _______ _______ _______ _____ _____    ______ ____

>  <TORSDO>
F 12

$$$$
=
 OpenBabel11052417593D

 31 34  0  0  1  0  0  0  0  0999 V2000
  188.9780  176.5930  144.1420 C   0  0  0  0  0  2  0  0  0  0  0  0
  189.2740  175.4680  143.1520 C   0  0  1  0  0  3  0  0  0  0  0  0
  187.8690  173.8090  142.0330 N   0  0  0  0  0  2  0  0  0  0  0  0
  188.1200  175.2510  142.1800 C   0  0  2  0  0  3  0  0  0  0  0  0
  188.5900  174.5500  140.9890 C   0  0  0  0  0  2  0  0  0  0  0  0
  190.5990  175.6880  142.4140 C   0  0  0  0  0  2  0  0  0  0  0  0
  191.7120  174.6600  142.7330 C   0  0  1  0  0  3  0  0  0  0  0  0
  192.9200  175.2120  143.5110 C   0  0  1  0  0  3  0  0  0  0  0  0
  194.1240  174.6580  143.0400 O   0  0  0  0  0  0  0  0  0  0  0  0
  193.8580  175.9900  142.6660 C   0  0  0  0  0  2  0  0  0  0  0  0
  191.2300  172.1870  142.3830 C   0  0  0  0  0  1  0  0  0  0  0  0
  191.2260  173.3500  143.3660 C   0  0  1  0  0  3  0  0  0  0  0  0
  191.9800  173.0290  144.4960 O   0  0  0  0  0  0  0  0  0  0  0  0
  192.4150  171.7200  144.2840 C   0  0  0  0  0  2  0  0  0  0  0  0
  194.0570  172.5870  145.7640 O   0  0  0  0  0  1  0  0  0  0  0  0
  193.8010  171.5500  144.8690 C   0  0  0  0  0  2  0  0  0  0  0  0
  187.9660  176.1580  145.2020 C   0  0  1  0  0  3  0  0  0  0  0  0
  192.4590  176.7730  147.3480 C   0  0  0  0  0  1  0  0  0  0  0  0
  188.5340  176.2550  146.6240 C   0  0  2  0  0  3  0  0  0  0  0  0
  190.2260  174.9200  147.7140 O   0  0  0  0  0  0  0  0  0  0  0  0
  189.8670  177.5110  146.7420 S   0  0  0  0  0  0  0  0  0  0  0  0
  191.2920  176.3790  146.4640 C   0  0  2  0  0  3  0  0  0  0  0  0
  190.9790  175.0130  146.6320 O   0  0  0  0  0  0  0  0  0  0  0  0
  188.9070  174.9010  147.2390 C   0  0  0  0  0  2  0  0  0  0  0  0
  186.5910  176.8160  145.0220 C   0  0  1  0  0  3  0  0  0  0  0  0
  184.9040  177.7500  146.6200 C   0  0  0  0  0  3  0  0  0  0  0  0
  185.7290  176.7530  146.2660 C   0  0  0  0  0  3  0  0  0  0  0  0
  184.8460  179.0550  145.8680 C   0  0  0  0  0  2  0  0  0  0  0  0
  185.5120  180.1860  143.8760 O   0  0  0  0  0  1  0  0  0  0  0  0
  186.7460  178.2380  144.4830 C   0  0  0  0  0  2  0  0  0  0  0  0
  185.3840  178.9210  144.4450 C   0  0  1  0  0  3  0  0  0  0  0  0
  2  6  1  6  0  0  0
  2  1  1  0  0  0  0
  3  4  1  0  0  0  0
  4  2  1  1  0  0  0
  5  3  1  0  0  0  0
  5  4  1  0  0  0  0
  7  6  1  1  0  0  0
  7 12  1  0  0  0  0
  8  7  1  6  0  0  0
  9  8  1  0  0  0  0
 10  9  1  0  0  0  0
 10  8  1  0  0  0  0
 12 11  1  6  0  0  0
 12 13  1  0  0  0  0
 14 13  1  0  0  0  0
 14 16  1  0  0  0  0
 16 15  1  0  0  0  0
 17  1  1  6  0  0  0
 19 17  1  6  0  0  0
 19 21  1  0  0  0  0
 19 24  1  0  0  0  0
 22 23  1  0  0  0  0
 22 21  1  0  0  0  0
 22 18  1  1  0  0  0
 23 20  1  0  0  0  0
 24 20  1  0  0  0  0
 25 17  1  1  0  0  0
 25 27  1  0  0  0  0
 27 26  2  0  0  0  0
 28 26  1  0  0  0  0
 30 25  1  0  0  0  0
 31 29  1  1  0  0  0
 31 30  1  0  0  0  0
 31 28  1  0  0  0  0
M  END
>  <MODEL>
7

>  <REMARK>
 VINA RESULT:      -6.0      2.394      6.986
  Name = 
  12 active torsions:
  status: ('A' for Active; 'I' for Inactive)
    1  A    between atoms: C_1  and  C_24
    2  A    between atoms: C_3  and  C_15
    3  A    between atoms: C_3  and  C_24
    4  A    between atoms: C_4  and  C_27
    5  A    between atoms: C_5  and  C_27
    6  A    between atoms: C_9  and  C_23
    7  A    between atoms: C_15  and  C_20
    8  A    between atoms: C_15  and  C_21
    9  A    between atoms: C_19  and  O_22
   10  A    between atoms: C_19  and  C_24
   11  A    between atoms: C_20  and  C_27
   12  A    between atoms: O_22  and  C_23
                            x       y       z     vdW  Elec       q    Type
                         _______ _______ _______ _____ _____    ______ ____

>  <TORSDO>
F 12

$$$$
=
 OpenBabel11052417593D

 31 34  0  0  1  0  0  0  0  0999 V2000
  190.7120  175.7480  144.2560 C   0  0  0  0  0  2  0  0  0  0  0  0
  189.4300  176.3320  144.8430 C   0  0  1  0  0  3  0  0  0  0  0  0
  188.2500  175.7360  146.9000 N   0  0  0  0  0  2  0  0  0  0  0  0
  189.4680  176.3660  146.3660 C   0  0  2  0  0  3  0  0  0  0  0  0
  188.3850  177.1990  146.8790 C   0  0  0  0  0  2  0  0  0  0  0  0
  189.1070  177.7120  144.2560 C   0  0  0  0  0  2  0  0  0  0  0  0
  187.7430  177.8200  143.5330 C   0  0  1  0  0  3  0  0  0  0  0  0
  187.3050  176.5660  142.7550 C   0  0  1  0  0  3  0  0  0  0  0  0
  186.3980  176.8960  141.7300 O   0  0  0  0  0  0  0  0  0  0  0  0
  187.7130  176.5860  141.3300 C   0  0  0  0  0  2  0  0  0  0  0  0
  185.8350  179.4890  143.7400 C   0  0  0  0  0  1  0  0  0  0  0  0
  186.5870  178.3410  144.3980 C   0  0  1  0  0  3  0  0  0  0  0  0
  185.7040  177.3110  144.7260 O   0  0  0  0  0  0  0  0  0  0  0  0
  184.6620  177.9310  145.4170 C   0  0  0  0  0  2  0  0  0  0  0  0
  185.1020  178.7770  147.5910 O   0  0  0  0  0  1  0  0  0  0  0  0
  184.7810  177.6150  146.8930 C   0  0  0  0  0  2  0  0  0  0  0  0
  191.1590  174.4970  145.0120 C   0  0  1  0  0  3  0  0  0  0  0  0
  189.5050  173.2300  140.4470 C   0  0  0  0  0  1  0  0  0  0  0  0
  191.1290  173.2420  144.1300 C   0  0  2  0  0  3  0  0  0  0  0  0
  189.2560  172.0910  143.1290 O   0  0  0  0  0  0  0  0  0  0  0  0
  191.4490  173.6390  142.3670 S   0  0  0  0  0  0  0  0  0  0  0  0
  189.6950  173.8110  141.8350 C   0  0  2  0  0  3  0  0  0  0  0  0
  188.7660  173.2550  142.7390 O   0  0  0  0  0  0  0  0  0  0  0  0
  189.8970  172.3570  144.3480 C   0  0  0  0  0  2  0  0  0  0  0  0
  192.4700  174.6990  145.7830 C   0  0  1  0  0  3  0  0  0  0  0  0
  194.8090  173.8680  145.4550 C   0  0  0  0  0  3  0  0  0  0  0  0
  193.4930  173.6140  145.5200 C   0  0  0  0  0  3  0  0  0  0  0  0
  195.3660  175.2660  145.5330 C   0  0  0  0  0  2  0  0  0  0  0  0
  194.8570  177.5400  146.0440 O   0  0  0  0  0  1  0  0  0  0  0  0
  193.0220  176.1030  145.5380 C   0  0  0  0  0  2  0  0  0  0  0  0
  194.3900  176.2360  146.1960 C   0  0  1  0  0  3  0  0  0  0  0  0
  1  2  1  0  0  0  0
  2  6  1  6  0  0  0
  4  2  1  6  0  0  0
  4  5  1  0  0  0  0
  4  3  1  0  0  0  0
  5  3  1  0  0  0  0
  7  6  1  1  0  0  0
  7 12  1  0  0  0  0
  8  7  1  1  0  0  0
  9  8  1  0  0  0  0
 10  9  1  0  0  0  0
 10  8  1  0  0  0  0
 12 11  1  6  0  0  0
 12 13  1  0  0  0  0
 13 14  1  0  0  0  0
 14 16  1  0  0  0  0
 16 15  1  0  0  0  0
 17  1  1  6  0  0  0
 19 24  1  0  0  0  0
 19 17  1  1  0  0  0
 20 24  1  0  0  0  0
 21 19  1  0  0  0  0
 22 18  1  6  0  0  0
 22 21  1  0  0  0  0
 22 23  1  0  0  0  0
 23 20  1  0  0  0  0
 25 17  1  6  0  0  0
 26 27  2  0  0  0  0
 26 28  1  0  0  0  0
 27 25  1  0  0  0  0
 28 31  1  0  0  0  0
 30 25  1  0  0  0  0
 30 31  1  0  0  0  0
 31 29  1  6  0  0  0
M  END
>  <MODEL>
8

>  <REMARK>
 VINA RESULT:      -6.0      2.149      4.911
  Name = 
  12 active torsions:
  status: ('A' for Active; 'I' for Inactive)
    1  A    between atoms: C_1  and  C_24
    2  A    between atoms: C_3  and  C_15
    3  A    between atoms: C_3  and  C_24
    4  A    between atoms: C_4  and  C_27
    5  A    between atoms: C_5  and  C_27
    6  A    between atoms: C_9  and  C_23
    7  A    between atoms: C_15  and  C_20
    8  A    between atoms: C_15  and  C_21
    9  A    between atoms: C_19  and  O_22
   10  A    between atoms: C_19  and  C_24
   11  A    between atoms: C_20  and  C_27
   12  A    between atoms: O_22  and  C_23
                            x       y       z     vdW  Elec       q    Type
                         _______ _______ _______ _____ _____    ______ ____

>  <TORSDO>
F 12

$$$$
=
 OpenBabel11052417593D

 31 34  0  0  1  0  0  0  0  0999 V2000
  189.8110  174.9660  144.0990 C   0  0  0  0  0  2  0  0  0  0  0  0
  189.1830  176.3240  143.7980 C   0  0  1  0  0  3  0  0  0  0  0  0
  190.3540  178.3990  143.2450 N   0  0  0  0  0  2  0  0  0  0  0  0
  189.9580  177.0810  142.7250 C   0  0  2  0  0  3  0  0  0  0  0  0
  189.2220  178.2740  142.3180 C   0  0  0  0  0  2  0  0  0  0  0  0
  187.6970  176.2030  143.4390 C   0  0  0  0  0  2  0  0  0  0  0  0
  186.7130  176.7190  144.5160 C   0  0  1  0  0  3  0  0  0  0  0  0
  187.3630  177.3790  145.7460 C   0  0  1  0  0  3  0  0  0  0  0  0
  186.4480  177.4790  146.8110 O   0  0  0  0  0  0  0  0  0  0  0  0
  187.4360  176.4820  146.9240 C   0  0  0  0  0  2  0  0  0  0  0  0
  185.9290  179.0730  143.9520 C   0  0  0  0  0  1  0  0  0  0  0  0
  185.5690  177.5940  143.9860 C   0  0  1  0  0  3  0  0  0  0  0  0
  185.1580  177.1690  142.7210 O   0  0  0  0  0  0  0  0  0  0  0  0
  184.8710  178.3400  142.0180 C   0  0  0  0  0  2  0  0  0  0  0  0
  186.4860  177.8860  140.3380 O   0  0  0  0  0  1  0  0  0  0  0  0
  185.1280  178.1170  140.5430 C   0  0  0  0  0  2  0  0  0  0  0  0
  190.7840  174.5380  143.0010 C   0  0  1  0  0  3  0  0  0  0  0  0
  193.7640  176.4770  146.5410 C   0  0  0  0  0  1  0  0  0  0  0  0
  192.2010  174.3000  143.5390 C   0  0  2  0  0  3  0  0  0  0  0  0
  194.0730  175.8150  143.7090 O   0  0  0  0  0  0  0  0  0  0  0  0
  192.2750  174.4690  145.3650 S   0  0  0  0  0  0  0  0  0  0  0  0
  192.7670  176.2430  145.4230 C   0  0  2  0  0  3  0  0  0  0  0  0
  193.2640  176.7390  144.2000 O   0  0  0  0  0  0  0  0  0  0  0  0
  193.2880  175.0900  142.8020 C   0  0  0  0  0  2  0  0  0  0  0  0
  190.2380  173.4020  142.1270 C   0  0  1  0  0  3  0  0  0  0  0  0
  187.9280  172.6470  141.5220 C   0  0  0  0  0  3  0  0  0  0  0  0
  188.8110  173.0200  142.4610 C   0  0  0  0  0  3  0  0  0  0  0  0
  188.2530  172.6790  140.0510 C   0  0  0  0  0  2  0  0  0  0  0  0
  190.0040  172.9080  138.4470 O   0  0  0  0  0  1  0  0  0  0  0  0
  190.4300  173.7280  140.6460 C   0  0  0  0  0  2  0  0  0  0  0  0
  189.7580  172.6570  139.7950 C   0  0  1  0  0  3  0  0  0  0  0  0
  2  6  1  6  0  0  0
  2  1  1  0  0  0  0
  4  3  1  0  0  0  0
  4  2  1  1  0  0  0
  5  4  1  0  0  0  0
  5  3  1  0  0  0  0
  7  6  1  6  0  0  0
  8  7  1  6  0  0  0
  8  9  1  0  0  0  0
  8 10  1  0  0  0  0
  9 10  1  0  0  0  0
 12 11  1  6  0  0  0
 12  7  1  0  0  0  0
 13 12  1  0  0  0  0
 14 13  1  0  0  0  0
 15 16  1  0  0  0  0
 16 14  1  0  0  0  0
 17  1  1  1  0  0  0
 19 17  1  6  0  0  0
 19 21  1  0  0  0  0
 20 23  1  0  0  0  0
 21 22  1  0  0  0  0
 22 18  1  1  0  0  0
 23 22  1  0  0  0  0
 24 19  1  0  0  0  0
 24 20  1  0  0  0  0
 25 27  1  0  0  0  0
 25 17  1  1  0  0  0
 26 27  2  0  0  0  0
 28 26  1  0  0  0  0
 30 25  1  0  0  0  0
 31 29  1  6  0  0  0
 31 28  1  0  0  0  0
 31 30  1  0  0  0  0
M  END
>  <MODEL>
9

>  <REMARK>
 VINA RESULT:      -6.0      1.940      2.307
  Name = 
  12 active torsions:
  status: ('A' for Active; 'I' for Inactive)
    1  A    between atoms: C_1  and  C_24
    2  A    between atoms: C_3  and  C_15
    3  A    between atoms: C_3  and  C_24
    4  A    between atoms: C_4  and  C_27
    5  A    between atoms: C_5  and  C_27
    6  A    between atoms: C_9  and  C_23
    7  A    between atoms: C_15  and  C_20
    8  A    between atoms: C_15  and  C_21
    9  A    between atoms: C_19  and  O_22
   10  A    between atoms: C_19  and  C_24
   11  A    between atoms: C_20  and  C_27
   12  A    between atoms: O_22  and  C_23
                            x       y       z     vdW  Elec       q    Type
                         _______ _______ _______ _____ _____    ______ ____

>  <TORSDO>
F 12

$$$$
