=
 OpenBabel11052421253D

 32 37  0  0  1  0  0  0  0  0999 V2000
  192.2400  174.9280  146.5360 C   0  0  0  0  0  3  0  0  0  0  0  0
  188.3940  177.2770  144.2080 C   0  0  0  0  0  0  0  0  0  0  0  0
  185.7330  178.9130  148.1240 C   0  0  0  0  0  2  0  0  0  0  0  0
  184.5170  178.2440  147.4800 C   0  0  0  0  0  2  0  0  0  0  0  0
  186.8960  177.3230  142.0740 C   0  0  0  0  0  0  0  0  0  0  0  0
  187.5520  176.6390  140.9480 C   0  0  0  0  0  0  0  0  0  0  0  0
  190.7230  176.5550  144.4240 C   0  0  2  0  0  3  0  0  0  0  0  0
  189.4320  177.3530  146.4300 C   0  0  0  0  0  3  0  0  0  0  0  0
  184.9880  177.8030  140.6400 N   0  0  0  0  0  0  0  0  0  0  0  0
  191.0700  175.5530  146.6620 C   0  0  0  0  0  3  0  0  0  0  0  0
  186.9880  178.3190  147.5650 C   0  0  0  0  0  2  0  0  0  0  0  0
  188.3560  177.5790  145.6580 C   0  0  0  0  0  0  0  0  0  0  0  0
  187.1140  178.1490  146.2430 C   0  0  0  0  0  0  0  0  0  0  0  0
  186.0900  178.1390  143.9710 N   0  0  0  0  0  0  0  0  0  0  0  0
  185.7760  177.4640  139.4480 C   0  0  0  0  0  2  0  0  0  0  0  0
  193.1160  175.8200  144.3890 C   0  0  0  0  0  3  0  0  0  0  0  0
  190.7300  176.7960  145.9120 C   0  0  0  0  0  0  0  0  0  0  0  0
  186.9780  176.6680  139.7770 N   0  0  0  0  0  0  0  0  0  0  0  0
  191.8200  176.1740  143.7720 C   0  0  0  0  0  3  0  0  0  0  0  0
  193.3300  175.3100  145.6140 C   0  0  0  0  0  0  0  0  0  0  0  0
  184.5980  178.1840  145.9410 C   0  0  0  0  0  2  0  0  0  0  0  0
  185.9640  178.5990  145.3570 C   0  0  0  0  0  0  0  0  0  0  0  0
  185.1550  178.3350  143.0500 N   0  0  0  0  0  0  0  0  0  0  0  0
  189.5110  176.8210  143.6390 C   0  0  0  0  0  3  0  0  0  0  0  0
  188.6980  175.8180  141.1360 N   0  0  0  0  0  1  0  0  0  0  0  0
  183.6420  178.3260  140.4850 C   0  0  0  0  0  1  0  0  0  0  0  0
  187.1760  177.5430  143.4210 C   0  0  0  0  0  0  0  0  0  0  0  0
  185.6480  177.8370  141.9030 C   0  0  0  0  0  0  0  0  0  0  0  0
  195.4640  173.8750  145.5640 C   0  0  0  0  0  0  0  0  0  0  0  0
  194.6620  174.9690  146.0280 N   0  0  0  0  0  2  0  0  0  0  0  0
  195.0560  173.1010  144.6580 O   0  0  0  0  0  0  0  0  0  0  0  0
  196.8090  173.6580  146.1560 C   0  0  0  0  0  1  0  0  0  0  0  0
  1 10  1  0  0  0  0
  2 12  1  0  0  0  0
  4  3  1  0  0  0  0
  5 27  2  0  0  0  0
  6 25  1  0  0  0  0
  6  5  1  0  0  0  0
  7 24  1  6  0  0  0
  7 17  1  0  0  0  0
  9 28  1  0  0  0  0
 11  3  1  0  0  0  0
 12 13  1  0  0  0  0
 12  8  2  0  0  0  0
 13 11  1  0  0  0  0
 14 22  1  0  0  0  0
 15 18  1  0  0  0  0
 15  9  1  0  0  0  0
 16 20  1  0  0  0  0
 17  8  1  0  0  0  0
 17 10  2  0  0  0  0
 18  6  2  0  0  0  0
 19 16  2  0  0  0  0
 19  7  1  0  0  0  0
 20 30  1  0  0  0  0
 20  1  2  0  0  0  0
 21  4  1  0  0  0  0
 22 21  1  0  0  0  0
 22 13  2  0  0  0  0
 23 14  1  0  0  0  0
 24  2  2  0  0  0  0
 26  9  1  0  0  0  0
 27 14  1  0  0  0  0
 27  2  1  0  0  0  0
 28  5  1  0  0  0  0
 28 23  2  0  0  0  0
 29 30  1  0  0  0  0
 29 32  1  0  0  0  0
 31 29  2  0  0  0  0
M  END
>  <MODEL>
1

>  <REMARK>
 VINA RESULT:      -9.7      0.000      0.000
  Name = 
  1 active torsions:
  status: ('A' for Active; 'I' for Inactive)
    1  A    between atoms: N_10  and  C_24
                            x       y       z     vdW  Elec       q    Type
                         _______ _______ _______ _____ _____    ______ ____

>  <TORSDO>
F 1

$$$$
=
 OpenBabel11052421253D

 32 37  0  0  1  0  0  0  0  0999 V2000
  189.7730  172.1330  140.1760 C   0  0  0  0  0  3  0  0  0  0  0  0
  188.9020  175.7860  143.5850 C   0  0  0  0  0  0  0  0  0  0  0  0
  192.7680  175.1540  146.7060 C   0  0  0  0  0  2  0  0  0  0  0  0
  191.7450  175.1090  147.8420 C   0  0  0  0  0  2  0  0  0  0  0  0
  187.0660  177.2080  144.7720 C   0  0  0  0  0  0  0  0  0  0  0  0
  185.8190  177.2280  143.9890 C   0  0  0  0  0  0  0  0  0  0  0  0
  188.8730  174.8280  141.3330 C   0  0  2  0  0  3  0  0  0  0  0  0
  190.8370  174.4640  142.8620 C   0  0  0  0  0  3  0  0  0  0  0  0
  186.0090  178.6240  146.4470 N   0  0  0  0  0  0  0  0  0  0  0  0
  190.1280  172.6940  141.3310 C   0  0  0  0  0  3  0  0  0  0  0  0
  192.0870  174.8580  145.4060 C   0  0  0  0  0  2  0  0  0  0  0  0
  190.2450  175.2050  143.8130 C   0  0  0  0  0  0  0  0  0  0  0  0
  190.9330  175.4650  145.1050 C   0  0  0  0  0  0  0  0  0  0  0  0
  188.9970  176.8690  145.8050 N   0  0  0  0  0  0  0  0  0  0  0  0
  184.9220  178.9480  145.5140 C   0  0  0  0  0  2  0  0  0  0  0  0
  188.6390  173.9960  138.9830 C   0  0  0  0  0  3  0  0  0  0  0  0
  190.2150  174.1700  141.5240 C   0  0  0  0  0  0  0  0  0  0  0  0
  184.8370  177.9850  144.3950 N   0  0  0  0  0  0  0  0  0  0  0  0
  188.2260  174.7760  140.1690 C   0  0  0  0  0  3  0  0  0  0  0  0
  189.3520  172.8560  138.9570 C   0  0  0  0  0  0  0  0  0  0  0  0
  190.4750  175.9350  147.5520 C   0  0  0  0  0  2  0  0  0  0  0  0
  190.3720  176.4610  146.1060 C   0  0  0  0  0  0  0  0  0  0  0  0
  188.2800  177.6560  146.5970 N   0  0  0  0  0  0  0  0  0  0  0  0
  188.2810  175.6230  142.4160 C   0  0  0  0  0  3  0  0  0  0  0  0
  185.6000  176.3310  142.9080 N   0  0  0  0  0  1  0  0  0  0  0  0
  186.0620  179.2810  147.7420 C   0  0  0  0  0  1  0  0  0  0  0  0
  188.3080  176.5840  144.6740 C   0  0  0  0  0  0  0  0  0  0  0  0
  187.1100  177.8560  145.9670 C   0  0  0  0  0  0  0  0  0  0  0  0
  190.8170  172.2470  136.9320 C   0  0  0  0  0  0  0  0  0  0  0  0
  189.6120  172.1990  137.7070 N   0  0  0  0  0  2  0  0  0  0  0  0
  191.8320  172.8740  137.3370 O   0  0  0  0  0  0  0  0  0  0  0  0
  190.8730  171.5340  135.6300 C   0  0  0  0  0  1  0  0  0  0  0  0
  1 10  1  0  0  0  0
  2 12  1  0  0  0  0
  2 27  1  0  0  0  0
  3  4  1  0  0  0  0
  5 28  1  0  0  0  0
  6 18  2  0  0  0  0
  6  5  1  0  0  0  0
  7 19  1  6  0  0  0
  7 17  1  0  0  0  0
  7 24  1  0  0  0  0
  8 12  2  0  0  0  0
  9 26  1  0  0  0  0
 10 17  2  0  0  0  0
 11  3  1  0  0  0  0
 12 13  1  0  0  0  0
 13 11  1  0  0  0  0
 13 22  2  0  0  0  0
 14 22  1  0  0  0  0
 14 23  1  0  0  0  0
 15  9  1  0  0  0  0
 16 19  2  0  0  0  0
 17  8  1  0  0  0  0
 18 15  1  0  0  0  0
 20 16  1  0  0  0  0
 20  1  2  0  0  0  0
 21  4  1  0  0  0  0
 22 21  1  0  0  0  0
 24  2  2  0  0  0  0
 25  6  1  0  0  0  0
 27  5  2  0  0  0  0
 27 14  1  0  0  0  0
 28  9  1  0  0  0  0
 28 23  2  0  0  0  0
 29 31  2  0  0  0  0
 29 30  1  0  0  0  0
 30 20  1  0  0  0  0
 32 29  1  0  0  0  0
M  END
>  <MODEL>
2

>  <REMARK>
 VINA RESULT:      -8.3      3.382      6.259
  Name = 
  1 active torsions:
  status: ('A' for Active; 'I' for Inactive)
    1  A    between atoms: N_10  and  C_24
                            x       y       z     vdW  Elec       q    Type
                         _______ _______ _______ _____ _____    ______ ____

>  <TORSDO>
F 1

$$$$
=
 OpenBabel11052421253D

 32 37  0  0  1  0  0  0  0  0999 V2000
  186.3760  177.4120  139.0800 C   0  0  0  0  0  3  0  0  0  0  0  0
  188.0310  176.2480  143.7310 C   0  0  0  0  0  0  0  0  0  0  0  0
  184.4420  178.2690  146.5810 C   0  0  0  0  0  2  0  0  0  0  0  0
  185.5590  178.9770  147.3510 C   0  0  0  0  0  2  0  0  0  0  0  0
  190.1400  175.7990  145.1980 C   0  0  0  0  0  0  0  0  0  0  0  0
  191.2960  175.4230  144.3680 C   0  0  0  0  0  0  0  0  0  0  0  0
  187.7170  175.8300  141.3400 C   0  0  2  0  0  3  0  0  0  0  0  0
  185.8830  176.8610  142.7170 C   0  0  0  0  0  3  0  0  0  0  0  0
  191.5270  175.5780  147.1870 N   0  0  0  0  0  0  0  0  0  0  0  0
  186.2090  177.5510  140.3950 C   0  0  0  0  0  3  0  0  0  0  0  0
  184.9490  177.8470  145.2370 C   0  0  0  0  0  2  0  0  0  0  0  0
  186.6540  176.7880  143.8150 C   0  0  0  0  0  0  0  0  0  0  0  0
  186.1350  177.2360  145.1340 C   0  0  0  0  0  0  0  0  0  0  0  0
  188.2920  176.5420  146.1710 N   0  0  0  0  0  0  0  0  0  0  0  0
  192.5480  174.8570  146.4170 C   0  0  0  0  0  2  0  0  0  0  0  0
  187.6120  175.2630  138.9040 C   0  0  0  0  0  3  0  0  0  0  0  0
  186.3280  176.4130  141.3520 C   0  0  0  0  0  0  0  0  0  0  0  0
  192.4010  175.0610  144.9600 N   0  0  0  0  0  0  0  0  0  0  0  0
  188.2350  175.2750  140.2440 C   0  0  0  0  0  3  0  0  0  0  0  0
  186.7620  176.1660  138.3840 C   0  0  0  0  0  0  0  0  0  0  0  0
  186.8870  178.1950  147.3550 C   0  0  0  0  0  2  0  0  0  0  0  0
  186.9130  176.9740  146.4130 C   0  0  0  0  0  0  0  0  0  0  0  0
  189.1770  176.3500  147.1410 N   0  0  0  0  0  0  0  0  0  0  0  0
  188.5090  175.7830  142.5750 C   0  0  0  0  0  3  0  0  0  0  0  0
  191.2930  175.5990  142.9570 N   0  0  0  0  0  1  0  0  0  0  0  0
  191.6840  175.7270  148.6240 C   0  0  0  0  0  1  0  0  0  0  0  0
  188.8260  176.2020  144.9730 C   0  0  0  0  0  0  0  0  0  0  0  0
  190.2950  175.9020  146.5460 C   0  0  0  0  0  0  0  0  0  0  0  0
  186.8750  176.5970  135.8510 C   0  0  0  0  0  0  0  0  0  0  0  0
  186.3000  176.0240  137.0320 N   0  0  0  0  0  2  0  0  0  0  0  0
  187.9320  177.2800  135.9010 O   0  0  0  0  0  0  0  0  0  0  0  0
  186.2160  176.3720  134.5380 C   0  0  0  0  0  1  0  0  0  0  0  0
  1 10  1  0  0  0  0
  2 12  1  0  0  0  0
  2 27  1  0  0  0  0
  3  4  1  0  0  0  0
  4 21  1  0  0  0  0
  5 28  1  0  0  0  0
  6 18  2  0  0  0  0
  6  5  1  0  0  0  0
  7 19  1  1  0  0  0
  7 17  1  0  0  0  0
  7 24  1  0  0  0  0
  8 12  2  0  0  0  0
  9 26  1  0  0  0  0
 10 17  2  0  0  0  0
 11  3  1  0  0  0  0
 12 13  1  0  0  0  0
 13 11  1  0  0  0  0
 13 22  2  0  0  0  0
 14 22  1  0  0  0  0
 14 23  1  0  0  0  0
 15  9  1  0  0  0  0
 16 19  2  0  0  0  0
 17  8  1  0  0  0  0
 18 15  1  0  0  0  0
 20 16  1  0  0  0  0
 20  1  2  0  0  0  0
 22 21  1  0  0  0  0
 24  2  2  0  0  0  0
 25  6  1  0  0  0  0
 27  5  2  0  0  0  0
 27 14  1  0  0  0  0
 28 23  2  0  0  0  0
 28  9  1  0  0  0  0
 29 31  2  0  0  0  0
 29 30  1  0  0  0  0
 30 20  1  0  0  0  0
 32 29  1  0  0  0  0
M  END
>  <MODEL>
3

>  <REMARK>
 VINA RESULT:      -8.1      3.040      7.400
  Name = 
  1 active torsions:
  status: ('A' for Active; 'I' for Inactive)
    1  A    between atoms: N_10  and  C_24
                            x       y       z     vdW  Elec       q    Type
                         _______ _______ _______ _____ _____    ______ ____

>  <TORSDO>
F 1

$$$$
=
 OpenBabel11052421253D

 32 37  0  0  1  0  0  0  0  0999 V2000
  193.8620  174.9000  143.9160 C   0  0  0  0  0  3  0  0  0  0  0  0
  188.9220  175.9880  144.2860 C   0  0  0  0  0  0  0  0  0  0  0  0
  187.4410  175.4390  139.5320 C   0  0  0  0  0  2  0  0  0  0  0  0
  186.8260  176.8350  139.6430 C   0  0  0  0  0  2  0  0  0  0  0  0
  187.1280  177.3600  145.5890 C   0  0  0  0  0  0  0  0  0  0  0  0
  187.6180  177.7470  146.9220 C   0  0  0  0  0  0  0  0  0  0  0  0
  191.0400  175.0760  145.1050 C   0  0  0  0  0  0  0  0  0  0  0  0
  190.3560  174.7810  142.7030 C   0  0  0  0  0  3  0  0  0  0  0  0
  185.0220  178.4870  146.0630 N   0  0  0  0  0  0  0  0  0  0  0  0
  192.7100  175.1040  143.2780 C   0  0  0  0  0  3  0  0  0  0  0  0
  188.4780  175.2620  140.5970 C   0  0  0  0  0  2  0  0  0  0  0  0
  189.2110  175.4420  142.9390 C   0  0  0  0  0  0  0  0  0  0  0  0
  188.2080  175.6240  141.8570 C   0  0  0  0  0  0  0  0  0  0  0  0
  186.7220  176.7840  143.4880 N   0  0  0  0  0  0  0  0  0  0  0  0
  185.3550  178.5470  147.4920 C   0  0  0  0  0  2  0  0  0  0  0  0
  193.1210  174.1940  146.1810 C   0  0  0  0  0  3  0  0  0  0  0  0
  191.4120  174.5400  143.7470 C   0  0  1  0  0  3  0  0  0  0  0  0
  186.7990  178.3470  147.7410 N   0  0  0  0  0  0  0  0  0  0  0  0
  191.7990  174.8540  146.1780 C   0  0  0  0  0  3  0  0  0  0  0  0
  194.0280  174.1650  145.1880 C   0  0  0  0  0  0  0  0  0  0  0  0
  186.3770  177.1920  141.0750 C   0  0  0  0  0  2  0  0  0  0  0  0
  186.8270  176.1860  142.1540 C   0  0  0  0  0  0  0  0  0  0  0  0
  185.6390  177.4170  143.9200 N   0  0  0  0  0  0  0  0  0  0  0  0
  189.7720  175.7920  145.2940 C   0  0  0  0  0  3  0  0  0  0  0  0
  188.9900  177.6330  147.2770 N   0  0  0  0  0  1  0  0  0  0  0  0
  183.7180  178.9420  145.6110 C   0  0  0  0  0  1  0  0  0  0  0  0
  187.6480  176.7080  144.4740 C   0  0  0  0  0  0  0  0  0  0  0  0
  185.8910  177.7660  145.1930 C   0  0  0  0  0  0  0  0  0  0  0  0
  195.5500  172.1140  145.4940 C   0  0  0  0  0  0  0  0  0  0  0  0
  195.2950  173.5210  145.3900 N   0  0  0  0  0  2  0  0  0  0  0  0
  194.6260  171.2690  145.3590 O   0  0  0  0  0  0  0  0  0  0  0  0
  196.9340  171.6430  145.7550 C   0  0  0  0  0  1  0  0  0  0  0  0
  1 20  1  0  0  0  0
  2 27  1  0  0  0  0
  2 24  2  0  0  0  0
  3  4  1  0  0  0  0
  3 11  1  0  0  0  0
  4 21  1  0  0  0  0
  5  6  1  0  0  0  0
  6 25  1  0  0  0  0
  6 18  2  0  0  0  0
  7 24  1  0  0  0  0
  7 19  2  0  0  0  0
  8 12  2  0  0  0  0
  9 15  1  0  0  0  0
 10 17  1  0  0  0  0
 10  1  2  0  0  0  0
 11 13  1  0  0  0  0
 12  2  1  0  0  0  0
 13 22  2  0  0  0  0
 13 12  1  0  0  0  0
 14 23  1  0  0  0  0
 14 27  1  0  0  0  0
 15 18  1  0  0  0  0
 17  8  1  6  0  0  0
 17  7  1  0  0  0  0
 19 16  1  0  0  0  0
 20 30  1  0  0  0  0
 20 16  2  0  0  0  0
 21 22  1  0  0  0  0
 22 14  1  0  0  0  0
 23 28  2  0  0  0  0
 26  9  1  0  0  0  0
 27  5  2  0  0  0  0
 28  5  1  0  0  0  0
 28  9  1  0  0  0  0
 29 32  1  0  0  0  0
 30 29  1  0  0  0  0
 31 29  2  0  0  0  0
M  END
>  <MODEL>
4

>  <REMARK>
 VINA RESULT:      -8.1      1.769      4.650
  Name = 
  1 active torsions:
  status: ('A' for Active; 'I' for Inactive)
    1  A    between atoms: N_10  and  C_24
                            x       y       z     vdW  Elec       q    Type
                         _______ _______ _______ _____ _____    ______ ____

>  <TORSDO>
F 1

$$$$
=
 OpenBabel11052421253D

 32 37  0  0  0  0  0  0  0  0999 V2000
  189.2030  173.4680  139.1220 C   0  0  0  0  0  3  0  0  0  0  0  0
  188.8390  175.4510  143.7760 C   0  0  0  0  0  0  0  0  0  0  0  0
  184.5700  178.0460  143.4030 C   0  0  0  0  0  2  0  0  0  0  0  0
  185.3460  179.2510  143.9390 C   0  0  0  0  0  2  0  0  0  0  0  0
  190.1760  176.2950  145.8490 C   0  0  0  0  0  0  0  0  0  0  0  0
  191.5360  175.7310  145.8720 C   0  0  0  0  0  0  0  0  0  0  0  0
  189.4500  173.7090  142.1700 C   0  0  0  0  0  0  0  0  0  0  0  0
  187.3000  174.9890  141.9220 C   0  0  0  0  0  2  0  0  0  0  0  0
  190.6630  177.4880  147.9150 N   0  0  0  0  0  0  0  0  0  0  0  0
  188.5480  174.2920  139.9390 C   0  0  0  0  0  3  0  0  0  0  0  0
  185.5290  177.0380  142.8500 C   0  0  0  0  0  2  0  0  0  0  0  0
  187.5770  175.6870  143.0350 C   0  0  0  0  0  0  0  0  0  0  0  0
  186.6190  176.7000  143.5510 C   0  0  0  0  0  0  0  0  0  0  0  0
  188.1510  177.1120  145.4720 N   0  0  0  0  0  0  0  0  0  0  0  0
  191.8520  176.6550  148.1370 C   0  0  0  0  0  2  0  0  0  0  0  0
  190.2610  171.8580  140.6920 C   0  0  0  0  0  3  0  0  0  0  0  0
  188.2090  173.9370  141.3470 C   0  0  0  0  0  0  0  0  0  0  0  0
  192.2970  175.9710  146.9040 N   0  0  0  0  0  0  0  0  0  0  0  0
  190.3140  172.7360  141.8790 C   0  0  0  0  0  3  0  0  0  0  0  0
  189.7440  172.1410  139.4830 C   0  0  0  0  0  0  0  0  0  0  0  0
  186.5120  178.8610  144.8690 C   0  0  0  0  0  2  0  0  0  0  0  0
  186.8180  177.3500  144.9090 C   0  0  0  0  0  0  0  0  0  0  0  0
  188.5740  177.6630  146.6030 N   0  0  0  0  0  0  0  0  0  0  0  0
  189.6950  174.5100  143.3750 C   0  0  0  0  0  3  0  0  0  0  0  0
  192.0930  175.0760  144.7400 N   0  0  0  0  0  1  0  0  0  0  0  0
  190.2600  178.4470  148.9290 C   0  0  0  0  0  1  0  0  0  0  0  0
  189.0830  176.2580  144.9860 C   0  0  0  0  0  0  0  0  0  0  0  0
  189.8030  177.1670  146.8250 C   0  0  0  0  0  0  0  0  0  0  0  0
  190.9040  171.0220  137.4780 C   0  0  0  0  0  0  0  0  0  0  0  0
  189.8340  171.1800  138.4200 N   0  0  0  0  0  2  0  0  0  0  0  0
  191.9440  171.7300  137.5420 O   0  0  0  0  0  0  0  0  0  0  0  0
  190.7880  169.9940  136.4120 C   0  0  0  0  0  1  0  0  0  0  0  0
  1 20  2  0  0  0  0
  1 10  1  0  0  0  0
  2 27  1  0  0  0  0
  3  4  1  0  0  0  0
  4 21  1  0  0  0  0
  5  6  1  0  0  0  0
  5 28  1  0  0  0  0
  6 18  2  0  0  0  0
  7 24  2  0  0  0  0
  8 12  1  0  0  0  0
  9 15  1  0  0  0  0
  9 26  1  0  0  0  0
 10 17  2  0  0  0  0
 11  3  1  0  0  0  0
 11 13  1  0  0  0  0
 12 13  1  0  0  0  0
 12  2  2  0  0  0  0
 13 22  2  0  0  0  0
 14 23  1  0  0  0  0
 16 19  2  0  0  0  0
 17  8  1  0  0  0  0
 17  7  1  0  0  0  0
 18 15  1  0  0  0  0
 19  7  1  0  0  0  0
 20 16  1  0  0  0  0
 21 22  1  0  0  0  0
 22 14  1  0  0  0  0
 23 28  2  0  0  0  0
 24  2  1  0  0  0  0
 25  6  1  0  0  0  0
 27 14  1  0  0  0  0
 27  5  2  0  0  0  0
 28  9  1  0  0  0  0
 29 31  2  0  0  0  0
 29 30  1  0  0  0  0
 30 20  1  0  0  0  0
 32 29  1  0  0  0  0
M  END
>  <MODEL>
5

>  <REMARK>
 VINA RESULT:      -8.0      3.735      6.571
  Name = 
  1 active torsions:
  status: ('A' for Active; 'I' for Inactive)
    1  A    between atoms: N_10  and  C_24
                            x       y       z     vdW  Elec       q    Type
                         _______ _______ _______ _____ _____    ______ ____

>  <TORSDO>
F 1

$$$$
=
 OpenBabel11052421253D

 32 37  0  0  0  0  0  0  0  0999 V2000
  188.6600  175.5300  146.8970 C   0  0  0  0  0  3  0  0  0  0  0  0
  192.3570  174.4470  143.5990 C   0  0  0  0  0  0  0  0  0  0  0  0
  190.9560  169.9060  142.0140 C   0  0  0  0  0  2  0  0  0  0  0  0
  192.3700  169.4340  142.3580 C   0  0  0  0  0  2  0  0  0  0  0  0
  194.8680  174.8260  143.0030 C   0  0  0  0  0  0  0  0  0  0  0  0
  195.3900  176.0420  143.6460 C   0  0  0  0  0  0  0  0  0  0  0  0
  190.8190  175.9550  144.7600 C   0  0  0  0  0  0  0  0  0  0  0  0
  190.0620  173.6800  144.0010 C   0  0  0  0  0  3  0  0  0  0  0  0
  197.0530  174.4470  141.9980 N   0  0  0  0  0  0  0  0  0  0  0  0
  189.2080  174.6240  146.0880 C   0  0  0  0  0  3  0  0  0  0  0  0
  190.6560  171.1730  142.7540 C   0  0  0  0  0  2  0  0  0  0  0  0
  191.2780  173.4390  143.4830 C   0  0  0  0  0  0  0  0  0  0  0  0
  191.5570  172.1630  142.7730 C   0  0  0  0  0  0  0  0  0  0  0  0
  193.8640  172.9780  142.3020 N   0  0  0  0  0  0  0  0  0  0  0  0
  197.4590  175.8210  142.3210 C   0  0  0  0  0  2  0  0  0  0  0  0
  189.4220  177.6810  145.9150 C   0  0  0  0  0  3  0  0  0  0  0  0
  189.6970  174.9510  144.7170 C   0  0  0  0  0  0  0  0  0  0  0  0
  196.6030  176.4300  143.3610 N   0  0  0  0  0  0  0  0  0  0  0  0
  190.6440  177.1810  145.2510 C   0  0  0  0  0  3  0  0  0  0  0  0
  188.5140  176.9720  146.6090 C   0  0  0  0  0  0  0  0  0  0  0  0
  193.4310  170.5460  142.2340 C   0  0  0  0  0  2  0  0  0  0  0  0
  192.8530  171.9570  142.0080 C   0  0  0  0  0  0  0  0  0  0  0  0
  195.1000  172.9410  141.8190 N   0  0  0  0  0  0  0  0  0  0  0  0
  192.1260  175.6260  144.1770 C   0  0  0  0  0  2  0  0  0  0  0  0
  194.6770  176.7060  144.6820 N   0  0  0  0  0  1  0  0  0  0  0  0
  197.9410  173.6010  141.2190 C   0  0  0  0  0  1  0  0  0  0  0  0
  193.6700  174.1150  143.0120 C   0  0  0  0  0  0  0  0  0  0  0  0
  195.7040  174.0610  142.2490 C   0  0  0  0  0  0  0  0  0  0  0  0
  186.0240  177.5510  146.8890 C   0  0  0  0  0  0  0  0  0  0  0  0
  187.4110  177.6380  147.2410 N   0  0  0  0  0  2  0  0  0  0  0  0
  185.6280  176.7930  145.9640 O   0  0  0  0  0  0  0  0  0  0  0  0
  185.0310  178.3630  147.6390 C   0  0  0  0  0  1  0  0  0  0  0  0
  2 24  1  0  0  0  0
  3  4  1  0  0  0  0
  3 11  1  0  0  0  0
  5 27  2  0  0  0  0
  5  6  1  0  0  0  0
  6 25  1  0  0  0  0
  7 19  2  0  0  0  0
  8 17  2  0  0  0  0
  9 28  1  0  0  0  0
  9 15  1  0  0  0  0
 10  1  2  0  0  0  0
 11 13  1  0  0  0  0
 12  2  2  0  0  0  0
 12  8  1  0  0  0  0
 13 12  1  0  0  0  0
 14 27  1  0  0  0  0
 15 18  1  0  0  0  0
 16 20  2  0  0  0  0
 17  7  1  0  0  0  0
 17 10  1  0  0  0  0
 18  6  2  0  0  0  0
 19 16  1  0  0  0  0
 20  1  1  0  0  0  0
 20 30  1  0  0  0  0
 21  4  1  0  0  0  0
 22 21  1  0  0  0  0
 22 14  1  0  0  0  0
 22 13  2  0  0  0  0
 23 28  2  0  0  0  0
 23 14  1  0  0  0  0
 24  7  1  0  0  0  0
 26  9  1  0  0  0  0
 27  2  1  0  0  0  0
 28  5  1  0  0  0  0
 29 30  1  0  0  0  0
 29 32  1  0  0  0  0
 31 29  2  0  0  0  0
M  END
>  <MODEL>
6

>  <REMARK>
 VINA RESULT:      -7.9      4.038      8.887
  Name = 
  1 active torsions:
  status: ('A' for Active; 'I' for Inactive)
    1  A    between atoms: N_10  and  C_24
                            x       y       z     vdW  Elec       q    Type
                         _______ _______ _______ _____ _____    ______ ____

>  <TORSDO>
F 1

$$$$
=
 OpenBabel11052421253D

 32 37  0  0  0  0  0  0  0  0999 V2000
  189.4040  177.3860  145.1700 C   0  0  0  0  0  3  0  0  0  0  0  0
  193.1410  173.9940  144.6710 C   0  0  0  0  0  0  0  0  0  0  0  0
  197.0080  176.9600  143.5130 C   0  0  0  0  0  2  0  0  0  0  0  0
  197.2490  176.0470  142.3100 C   0  0  0  0  0  2  0  0  0  0  0  0
  193.7230  171.5360  144.0230 C   0  0  0  0  0  0  0  0  0  0  0  0
  192.5420  170.6630  144.1280 C   0  0  0  0  0  0  0  0  0  0  0  0
  191.0800  174.8650  145.6620 C   0  0  0  0  0  0  0  0  0  0  0  0
  192.9830  176.4060  145.0880 C   0  0  0  0  0  3  0  0  0  0  0  0
  195.0470  169.6180  143.3160 N   0  0  0  0  0  0  0  0  0  0  0  0
  190.6720  177.1600  144.8280 C   0  0  0  0  0  3  0  0  0  0  0  0
  195.6010  176.7900  143.9970 C   0  0  0  0  0  2  0  0  0  0  0  0
  193.7070  175.3630  144.6510 C   0  0  0  0  0  0  0  0  0  0  0  0
  195.0940  175.5620  144.1530 C   0  0  0  0  0  0  0  0  0  0  0  0
  195.2760  173.1010  143.8010 N   0  0  0  0  0  0  0  0  0  0  0  0
  193.9930  168.7010  143.7700 C   0  0  0  0  0  2  0  0  0  0  0  0
  188.9070  175.5120  146.7240 C   0  0  0  0  0  3  0  0  0  0  0  0
  191.5820  176.2850  145.6220 C   0  0  0  0  0  0  0  0  0  0  0  0
  192.6910  169.3810  143.9400 N   0  0  0  0  0  0  0  0  0  0  0  0
  189.9070  174.5520  146.2110 C   0  0  0  0  0  3  0  0  0  0  0  0
  188.6930  176.7740  146.3110 C   0  0  0  0  0  0  0  0  0  0  0  0
  196.7980  174.5920  142.5490 C   0  0  0  0  0  2  0  0  0  0  0  0
  195.9960  174.3780  143.8480 C   0  0  0  0  0  0  0  0  0  0  0  0
  195.8480  171.9540  143.4590 N   0  0  0  0  0  0  0  0  0  0  0  0
  191.9230  173.7700  145.1650 C   0  0  0  0  0  2  0  0  0  0  0  0
  191.2300  171.1940  144.2630 N   0  0  0  0  0  1  0  0  0  0  0  0
  196.3030  169.0800  142.8250 C   0  0  0  0  0  1  0  0  0  0  0  0
  193.9890  172.8950  144.1710 C   0  0  0  0  0  0  0  0  0  0  0  0
  194.9020  171.0090  143.5930 C   0  0  0  0  0  0  0  0  0  0  0  0
  186.2490  177.5530  146.5020 C   0  0  0  0  0  0  0  0  0  0  0  0
  187.6300  177.5480  146.8870 N   0  0  0  0  0  2  0  0  0  0  0  0
  185.8190  176.7910  145.5960 O   0  0  0  0  0  0  0  0  0  0  0  0
  185.3050  178.4680  147.1930 C   0  0  0  0  0  1  0  0  0  0  0  0
  1 20  1  0  0  0  0
  2 24  1  0  0  0  0
  3 11  1  0  0  0  0
  4 21  1  0  0  0  0
  4  3  1  0  0  0  0
  5  6  1  0  0  0  0
  5 27  2  0  0  0  0
  6 25  1  0  0  0  0
  7 19  2  0  0  0  0
  8 17  2  0  0  0  0
  9 28  1  0  0  0  0
  9 15  1  0  0  0  0
 10  1  2  0  0  0  0
 10 17  1  0  0  0  0
 11 13  1  0  0  0  0
 12  2  2  0  0  0  0
 12  8  1  0  0  0  0
 13 12  1  0  0  0  0
 14 22  1  0  0  0  0
 14 27  1  0  0  0  0
 15 18  1  0  0  0  0
 17  7  1  0  0  0  0
 18  6  2  0  0  0  0
 19 16  1  0  0  0  0
 20 16  2  0  0  0  0
 20 30  1  0  0  0  0
 21 22  1  0  0  0  0
 22 13  2  0  0  0  0
 23 28  2  0  0  0  0
 23 14  1  0  0  0  0
 24  7  1  0  0  0  0
 26  9  1  0  0  0  0
 27  2  1  0  0  0  0
 28  5  1  0  0  0  0
 29 30  1  0  0  0  0
 29 32  1  0  0  0  0
 31 29  2  0  0  0  0
M  END
>  <MODEL>
7

>  <REMARK>
 VINA RESULT:      -7.8      3.832      9.284
  Name = 
  1 active torsions:
  status: ('A' for Active; 'I' for Inactive)
    1  A    between atoms: N_10  and  C_24
                            x       y       z     vdW  Elec       q    Type
                         _______ _______ _______ _____ _____    ______ ____

>  <TORSDO>
F 1

$$$$
=
 OpenBabel11052421253D

 32 37  0  0  1  0  0  0  0  0999 V2000
  187.9850  177.6350  144.2510 C   0  0  0  0  0  3  0  0  0  0  0  0
  190.5030  173.6830  142.3110 C   0  0  0  0  0  0  0  0  0  0  0  0
  194.2380  173.1870  145.6110 C   0  0  0  0  0  2  0  0  0  0  0  0
  195.1940  173.2180  144.4180 C   0  0  0  0  0  2  0  0  0  0  0  0
  191.1190  172.4090  140.1210 C   0  0  0  0  0  0  0  0  0  0  0  0
  190.1660  172.7130  139.0410 C   0  0  0  0  0  0  0  0  0  0  0  0
  188.4840  174.9740  142.8100 C   0  0  2  0  0  3  0  0  0  0  0  0
  190.3340  174.7730  144.5020 C   0  0  0  0  0  3  0  0  0  0  0  0
  192.3300  170.9370  138.6050 N   0  0  0  0  0  0  0  0  0  0  0  0
  189.0600  176.8510  144.3180 C   0  0  0  0  0  3  0  0  0  0  0  0
  192.9250  173.7890  145.2180 C   0  0  0  0  0  2  0  0  0  0  0  0
  191.0340  173.9970  143.6580 C   0  0  0  0  0  0  0  0  0  0  0  0
  192.3470  173.4310  144.0650 C   0  0  0  0  0  0  0  0  0  0  0  0
  192.4780  172.2660  141.8660 N   0  0  0  0  0  0  0  0  0  0  0  0
  191.1990  170.9430  137.6680 C   0  0  0  0  0  2  0  0  0  0  0  0
  186.3160  176.1890  143.1090 C   0  0  0  0  0  3  0  0  0  0  0  0
  188.9920  175.3680  144.1720 C   0  0  0  0  0  0  0  0  0  0  0  0
  190.2740  172.0700  137.9110 N   0  0  0  0  0  0  0  0  0  0  0  0
  187.2640  175.3110  142.3930 C   0  0  0  0  0  3  0  0  0  0  0  0
  186.6060  177.1900  143.9610 C   0  0  0  0  0  0  0  0  0  0  0  0
  194.5690  172.6640  143.1210 C   0  0  0  0  0  2  0  0  0  0  0  0
  193.0540  172.3940  143.2080 C   0  0  0  0  0  0  0  0  0  0  0  0
  192.9960  171.4900  140.9220 N   0  0  0  0  0  0  0  0  0  0  0  0
  189.3020  174.1250  141.9340 C   0  0  0  0  0  3  0  0  0  0  0  0
  189.2440  173.7910  139.1390 N   0  0  0  0  0  1  0  0  0  0  0  0
  193.4770  170.0860  138.3400 C   0  0  0  0  0  1  0  0  0  0  0  0
  191.3260  172.8310  141.4320 C   0  0  0  0  0  0  0  0  0  0  0  0
  192.1700  171.5830  139.8660 C   0  0  0  0  0  0  0  0  0  0  0  0
  184.8450  177.7510  145.7490 C   0  0  0  0  0  0  0  0  0  0  0  0
  185.5500  177.9830  144.5230 N   0  0  0  0  0  2  0  0  0  0  0  0
  185.1480  176.7930  146.5090 O   0  0  0  0  0  0  0  0  0  0  0  0
  183.7400  178.6660  146.1380 C   0  0  0  0  0  1  0  0  0  0  0  0
  1 10  1  0  0  0  0
  2 12  1  0  0  0  0
  4  3  1  0  0  0  0
  5 27  2  0  0  0  0
  6 25  1  0  0  0  0
  6  5  1  0  0  0  0
  7 24  1  1  0  0  0
  7 17  1  0  0  0  0
  9 28  1  0  0  0  0
 11  3  1  0  0  0  0
 12 13  1  0  0  0  0
 12  8  2  0  0  0  0
 13 11  1  0  0  0  0
 14 22  1  0  0  0  0
 15 18  1  0  0  0  0
 15  9  1  0  0  0  0
 16 20  1  0  0  0  0
 17 10  2  0  0  0  0
 17  8  1  0  0  0  0
 18  6  2  0  0  0  0
 19  7  1  0  0  0  0
 19 16  2  0  0  0  0
 20  1  2  0  0  0  0
 20 30  1  0  0  0  0
 21 22  1  0  0  0  0
 21  4  1  0  0  0  0
 22 13  2  0  0  0  0
 23 14  1  0  0  0  0
 24  2  2  0  0  0  0
 26  9  1  0  0  0  0
 27 14  1  0  0  0  0
 27  2  1  0  0  0  0
 28  5  1  0  0  0  0
 28 23  2  0  0  0  0
 29 32  1  0  0  0  0
 29 31  2  0  0  0  0
 30 29  1  0  0  0  0
M  END
>  <MODEL>
8

>  <REMARK>
 VINA RESULT:      -7.6      4.231      8.247
  Name = 
  1 active torsions:
  status: ('A' for Active; 'I' for Inactive)
    1  A    between atoms: N_10  and  C_24
                            x       y       z     vdW  Elec       q    Type
                         _______ _______ _______ _____ _____    ______ ____

>  <TORSDO>
F 1

$$$$
=
 OpenBabel11052421253D

 32 37  0  0  0  0  0  0  0  0999 V2000
  188.1080  177.8580  144.3300 C   0  0  0  0  0  3  0  0  0  0  0  0
  190.1650  174.1670  141.5250 C   0  0  0  0  0  0  0  0  0  0  0  0
  194.5790  173.5450  143.8120 C   0  0  0  0  0  2  0  0  0  0  0  0
  195.2280  173.7050  142.4360 C   0  0  0  0  0  2  0  0  0  0  0  0
  190.2720  173.0940  139.1510 C   0  0  0  0  0  0  0  0  0  0  0  0
  189.0870  173.4480  138.3530 C   0  0  0  0  0  0  0  0  0  0  0  0
  188.3000  175.3390  142.5890 C   0  0  0  0  0  0  0  0  0  0  0  0
  190.4980  175.0710  143.7810 C   0  0  0  0  0  3  0  0  0  0  0  0
  191.1170  171.7930  137.2740 N   0  0  0  0  0  0  0  0  0  0  0  0
  189.1820  177.1100  144.0780 C   0  0  0  0  0  3  0  0  0  0  0  0
  193.2000  174.1280  143.7870 C   0  0  0  0  0  2  0  0  0  0  0  0
  190.9930  174.3920  142.7340 C   0  0  0  0  0  0  0  0  0  0  0  0
  192.3730  173.8430  142.7740 C   0  0  0  0  0  0  0  0  0  0  0  0
  192.0050  172.8620  140.5130 N   0  0  0  0  0  0  0  0  0  0  0  0
  189.7980  171.8330  136.6300 C   0  0  0  0  0  2  0  0  0  0  0  0
  186.2430  176.4480  143.4880 C   0  0  0  0  0  3  0  0  0  0  0  0
  189.1070  175.6420  143.8250 C   0  0  0  0  0  0  0  0  0  0  0  0
  188.9370  172.9030  137.1770 N   0  0  0  0  0  0  0  0  0  0  0  0
  187.0100  175.6650  142.4980 C   0  0  0  0  0  3  0  0  0  0  0  0
  186.7070  177.3870  144.3320 C   0  0  0  0  0  0  0  0  0  0  0  0
  194.3250  173.2340  141.2780 C   0  0  0  0  0  2  0  0  0  0  0  0
  192.8770  172.9040  141.6910 C   0  0  0  0  0  0  0  0  0  0  0  0
  192.2990  172.1830  139.4110 N   0  0  0  0  0  0  0  0  0  0  0  0
  188.9030  174.5940  141.4780 C   0  0  0  0  0  2  0  0  0  0  0  0
  188.1960  174.4810  138.7540 N   0  0  0  0  0  1  0  0  0  0  0  0
  192.1830  171.0080  136.6770 C   0  0  0  0  0  1  0  0  0  0  0  0
  190.7740  173.4180  140.4090 C   0  0  0  0  0  0  0  0  0  0  0  0
  191.2470  172.3300  138.5880 C   0  0  0  0  0  0  0  0  0  0  0  0
  185.4480  177.7700  146.5410 C   0  0  0  0  0  0  0  0  0  0  0  0
  185.7990  178.0940  145.1900 N   0  0  0  0  0  2  0  0  0  0  0  0
  185.9800  176.7990  147.1420 O   0  0  0  0  0  0  0  0  0  0  0  0
  184.4430  178.6030  147.2510 C   0  0  0  0  0  1  0  0  0  0  0  0
  1 20  1  0  0  0  0
  2 12  2  0  0  0  0
  4  3  1  0  0  0  0
  5 27  2  0  0  0  0
  6 25  1  0  0  0  0
  6  5  1  0  0  0  0
  7 17  1  0  0  0  0
  8 17  2  0  0  0  0
  9 28  1  0  0  0  0
 10  1  2  0  0  0  0
 11  3  1  0  0  0  0
 12 13  1  0  0  0  0
 12  8  1  0  0  0  0
 13 11  1  0  0  0  0
 14 22  1  0  0  0  0
 15 18  1  0  0  0  0
 15  9  1  0  0  0  0
 16 20  2  0  0  0  0
 17 10  1  0  0  0  0
 18  6  2  0  0  0  0
 19  7  2  0  0  0  0
 19 16  1  0  0  0  0
 20 30  1  0  0  0  0
 21 22  1  0  0  0  0
 21  4  1  0  0  0  0
 22 13  2  0  0  0  0
 23 14  1  0  0  0  0
 24  2  1  0  0  0  0
 24  7  1  0  0  0  0
 26  9  1  0  0  0  0
 27 14  1  0  0  0  0
 27  2  1  0  0  0  0
 28  5  1  0  0  0  0
 28 23  2  0  0  0  0
 29 31  2  0  0  0  0
 29 32  1  0  0  0  0
 30 29  1  0  0  0  0
M  END
>  <MODEL>
9

>  <REMARK>
 VINA RESULT:      -7.5      4.100      8.005
  Name = 
  1 active torsions:
  status: ('A' for Active; 'I' for Inactive)
    1  A    between atoms: N_10  and  C_24
                            x       y       z     vdW  Elec       q    Type
                         _______ _______ _______ _____ _____    ______ ____

>  <TORSDO>
F 1

$$$$
