=
 OpenBabel11052421373D

 32 35  0  0  1  0  0  0  0  0999 V2000
  184.2610  178.4060  143.0670 C   0  0  0  0  0  0  0  0  0  0  0  0
  189.0810  176.9630  143.7620 C   0  0  0  0  0  0  0  0  0  0  0  0
  190.0410  173.6010  140.2920 C   0  0  0  0  0  3  0  0  0  0  0  0
  191.3610  173.5330  140.7390 C   0  0  0  0  0  3  0  0  0  0  0  0
  186.9430  178.1360  143.8220 C   0  0  0  0  0  0  0  0  0  0  0  0
  187.3260  176.4240  142.0210 C   0  0  0  0  0  2  0  0  0  0  0  0
  185.0830  177.4900  142.4020 C   0  0  0  0  0  3  0  0  0  0  0  0
  189.1050  174.3660  140.9910 C   0  0  0  0  0  3  0  0  0  0  0  0
  188.4470  175.8700  142.9190 C   0  0  1  0  0  3  0  0  0  0  0  0
  189.4810  175.0910  142.1350 C   0  0  0  0  0  0  0  0  0  0  0  0
  191.2510  175.6710  143.8680 C   0  0  1  0  0  3  0  0  0  0  0  0
  184.7850  179.2010  144.0940 C   0  0  0  0  0  3  0  0  0  0  0  0
  186.4190  177.3420  142.7870 C   0  0  0  0  0  0  0  0  0  0  0  0
  186.1250  179.0660  144.4710 C   0  0  0  0  0  3  0  0  0  0  0  0
  191.7450  174.2230  141.8900 C   0  0  0  0  0  3  0  0  0  0  0  0
  190.8150  174.9970  142.5950 C   0  0  0  0  0  0  0  0  0  0  0  0
  188.3500  177.9840  144.2170 C   0  0  0  0  0  3  0  0  0  0  0  0
  190.4490  176.8560  144.1590 N   0  0  0  0  0  2  0  0  0  0  0  0
  182.8430  178.5710  142.6490 C   0  0  0  0  0  2  0  0  0  0  0  0
  182.6600  178.0420  141.3080 N   0  0  0  0  0  2  0  0  0  0  0  0
  181.5630  178.7150  140.7570 N   0  0  0  0  0  2  0  0  0  0  0  0
  180.6140  178.9210  141.8350 C   0  0  0  0  0  2  0  0  0  0  0  0
  179.5070  178.0960  141.6430 O   0  0  0  0  0  1  0  0  0  0  0  0
  191.2810  174.7170  145.0660 C   0  0  0  0  0  2  0  0  0  0  0  0
  191.6690  175.4030  146.3790 C   0  0  1  0  0  3  0  0  0  0  0  0
  190.6270  175.1640  147.4730 C   0  0  0  0  0  2  0  0  0  0  0  0
  189.2770  174.7940  146.9320 C   0  0  0  0  0  3  0  0  0  0  0  0
  188.2490  175.6350  147.0210 C   0  0  0  0  0  2  0  0  0  0  0  0
  192.9540  174.9690  146.8090 O   0  0  0  0  0  0  0  0  0  0  0  0
  195.0750  174.8750  145.8900 O   0  0  0  0  0  0  0  0  0  0  0  0
  194.2750  177.0460  146.4310 C   0  0  0  0  0  1  0  0  0  0  0  0
  194.1330  175.5680  146.3610 C   0  0  0  0  0  0  0  0  0  0  0  0
  1 12  1  0  0  0  0
  2 18  1  0  0  0  0
  2 17  2  0  0  0  0
  3  4  2  0  0  0  0
  3  8  1  0  0  0  0
  4 15  1  0  0  0  0
  5 17  1  0  0  0  0
  5 14  1  0  0  0  0
  6 13  1  0  0  0  0
  7 13  1  0  0  0  0
  7  1  2  0  0  0  0
  8 10  2  0  0  0  0
  9  6  1  6  0  0  0
  9  2  1  0  0  0  0
 10 16  1  0  0  0  0
 10  9  1  0  0  0  0
 11 18  1  0  0  0  0
 11 24  1  1  0  0  0
 12 14  2  0  0  0  0
 13  5  2  0  0  0  0
 15 16  2  0  0  0  0
 16 11  1  0  0  0  0
 19  1  1  0  0  0  0
 20 19  1  0  0  0  0
 21 20  1  0  0  0  0
 21 22  1  0  0  0  0
 23 22  1  0  0  0  0
 25 24  1  6  0  0  0
 25 29  1  0  0  0  0
 25 26  1  0  0  0  0
 27 28  2  0  0  0  0
 27 26  1  0  0  0  0
 30 32  2  0  0  0  0
 32 31  1  0  0  0  0
 32 29  1  0  0  0  0
M  END
>  <MODEL>
1

>  <REMARK>
 VINA RESULT:      -6.9      0.000      0.000
  Name = 
  10 active torsions:
  status: ('A' for Active; 'I' for Inactive)
    1  A    between atoms: N_1  and  N_10
    2  A    between atoms: N_1  and  C_17
    3  A    between atoms: C_2  and  C_24
    4  A    between atoms: C_6  and  C_7
    5  A    between atoms: C_7  and  C_32
    6  A    between atoms: N_10  and  C_24
    7  A    between atoms: C_16  and  C_27
    8  A    between atoms: O_22  and  C_30
    9  A    between atoms: O_22  and  C_32
   10  A    between atoms: C_27  and  C_32
                            x       y       z     vdW  Elec       q    Type
                         _______ _______ _______ _____ _____    ______ ____

>  <TORSDO>
F 10

$$$$
=
 OpenBabel11052421373D

 32 35  0  0  1  0  0  0  0  0999 V2000
  193.2270  176.1000  145.5040 C   0  0  0  0  0  0  0  0  0  0  0  0
  188.6910  177.7980  143.9730 C   0  0  0  0  0  0  0  0  0  0  0  0
  185.8560  178.0130  147.9950 C   0  0  0  0  0  3  0  0  0  0  0  0
  184.8250  178.5540  147.2260 C   0  0  0  0  0  3  0  0  0  0  0  0
  191.0500  177.1940  144.1250 C   0  0  0  0  0  0  0  0  0  0  0  0
  189.6850  177.2550  146.2360 C   0  0  0  0  0  2  0  0  0  0  0  0
  192.0320  176.3620  146.1830 C   0  0  0  0  0  3  0  0  0  0  0  0
  187.0300  177.5720  147.3800 C   0  0  0  0  0  3  0  0  0  0  0  0
  188.4480  177.1500  145.3250 C   0  0  1  0  0  3  0  0  0  0  0  0
  187.1970  177.6850  145.9900 C   0  0  0  0  0  0  0  0  0  0  0  0
  186.2210  178.2650  143.7130 C   0  0  1  0  0  3  0  0  0  0  0  0
  193.3390  176.4050  144.1420 C   0  0  0  0  0  3  0  0  0  0  0  0
  190.9380  176.8940  145.4940 C   0  0  0  0  0  0  0  0  0  0  0  0
  192.2510  176.9510  143.4520 C   0  0  0  0  0  3  0  0  0  0  0  0
  184.9630  178.6470  145.8400 C   0  0  0  0  0  3  0  0  0  0  0  0
  186.1370  178.2120  145.2150 C   0  0  0  0  0  0  0  0  0  0  0  0
  189.9000  177.7610  143.4070 C   0  0  0  0  0  3  0  0  0  0  0  0
  187.6010  178.3680  143.2480 N   0  0  0  0  0  2  0  0  0  0  0  0
  194.3950  175.5460  146.2400 C   0  0  0  0  0  2  0  0  0  0  0  0
  195.4540  175.2130  145.3040 N   0  0  0  0  0  2  0  0  0  0  0  0
  195.5960  173.8210  145.3350 N   0  0  0  0  0  2  0  0  0  0  0  0
  196.8040  173.5400  146.0890 C   0  0  0  0  0  2  0  0  0  0  0  0
  197.1120  172.1860  145.9850 O   0  0  0  0  0  1  0  0  0  0  0  0
  185.4950  177.1000  143.0340 C   0  0  0  0  0  2  0  0  0  0  0  0
  184.9380  177.4540  141.6530 C   0  0  1  0  0  3  0  0  0  0  0  0
  183.8080  178.4820  141.7440 C   0  0  0  0  0  2  0  0  0  0  0  0
  182.6400  178.1540  140.8610 C   0  0  0  0  0  3  0  0  0  0  0  0
  181.3920  178.3960  141.2570 C   0  0  0  0  0  2  0  0  0  0  0  0
  185.9750  177.9260  140.8010 O   0  0  0  0  0  0  0  0  0  0  0  0
  186.5740  177.0900  138.7290 O   0  0  0  0  0  0  0  0  0  0  0  0
  187.6900  176.1330  140.5950 C   0  0  0  0  0  1  0  0  0  0  0  0
  186.7150  177.0710  139.9810 C   0  0  0  0  0  0  0  0  0  0  0  0
  1  7  1  0  0  0  0
  1 19  1  0  0  0  0
  2  9  1  0  0  0  0
  4  3  2  0  0  0  0
  5 13  1  0  0  0  0
  8  3  1  0  0  0  0
  9 10  1  0  0  0  0
  9  6  1  1  0  0  0
 10  8  2  0  0  0  0
 11 24  1  6  0  0  0
 11 16  1  0  0  0  0
 12  1  2  0  0  0  0
 13  7  2  0  0  0  0
 13  6  1  0  0  0  0
 14  5  2  0  0  0  0
 14 12  1  0  0  0  0
 15  4  1  0  0  0  0
 16 15  2  0  0  0  0
 16 10  1  0  0  0  0
 17  2  2  0  0  0  0
 17  5  1  0  0  0  0
 18 11  1  0  0  0  0
 18  2  1  0  0  0  0
 20 21  1  0  0  0  0
 20 19  1  0  0  0  0
 21 22  1  0  0  0  0
 23 22  1  0  0  0  0
 25 26  1  1  0  0  0
 25 24  1  0  0  0  0
 27 28  2  0  0  0  0
 27 26  1  0  0  0  0
 29 25  1  0  0  0  0
 30 32  2  0  0  0  0
 32 31  1  0  0  0  0
 32 29  1  0  0  0  0
M  END
>  <MODEL>
2

>  <REMARK>
 VINA RESULT:      -6.7      2.956      9.445
  Name = 
  10 active torsions:
  status: ('A' for Active; 'I' for Inactive)
    1  A    between atoms: N_1  and  N_10
    2  A    between atoms: N_1  and  C_17
    3  A    between atoms: C_2  and  C_24
    4  A    between atoms: C_6  and  C_7
    5  A    between atoms: C_7  and  C_32
    6  A    between atoms: N_10  and  C_24
    7  A    between atoms: C_16  and  C_27
    8  A    between atoms: O_22  and  C_30
    9  A    between atoms: O_22  and  C_32
   10  A    between atoms: C_27  and  C_32
                            x       y       z     vdW  Elec       q    Type
                         _______ _______ _______ _____ _____    ______ ____

>  <TORSDO>
F 10

$$$$
=
 OpenBabel11052421373D

 32 35  0  0  1  0  0  0  0  0999 V2000
  196.1130  173.0800  145.2980 C   0  0  0  0  0  0  0  0  0  0  0  0
  192.5270  176.5780  144.4590 C   0  0  0  0  0  0  0  0  0  0  0  0
  188.6150  175.2290  147.1300 C   0  0  0  0  0  3  0  0  0  0  0  0
  187.9510  176.3870  146.7230 C   0  0  0  0  0  3  0  0  0  0  0  0
  194.6280  175.3450  144.5900 C   0  0  0  0  0  0  0  0  0  0  0  0
  192.6850  174.5620  145.9800 C   0  0  0  0  0  2  0  0  0  0  0  0
  194.8040  173.2310  145.7710 C   0  0  0  0  0  3  0  0  0  0  0  0
  189.8610  174.9100  146.5880 C   0  0  0  0  0  3  0  0  0  0  0  0
  191.7940  175.3710  145.0190 C   0  0  1  0  0  3  0  0  0  0  0  0
  190.4700  175.7550  145.6450 C   0  0  0  0  0  0  0  0  0  0  0  0
  190.3390  177.8030  144.1410 C   0  0  1  0  0  3  0  0  0  0  0  0
  196.6840  174.0700  144.4900 C   0  0  0  0  0  3  0  0  0  0  0  0
  194.0550  174.3540  145.4070 C   0  0  0  0  0  0  0  0  0  0  0  0
  195.9430  175.2020  144.1360 C   0  0  0  0  0  3  0  0  0  0  0  0
  188.5290  177.2220  145.7660 C   0  0  0  0  0  3  0  0  0  0  0  0
  189.7800  176.9140  145.2190 C   0  0  0  0  0  0  0  0  0  0  0  0
  193.8390  176.5280  144.2170 C   0  0  0  0  0  3  0  0  0  0  0  0
  191.7970  177.7500  144.0930 N   0  0  0  0  0  2  0  0  0  0  0  0
  196.9140  171.8910  145.6960 C   0  0  0  0  0  2  0  0  0  0  0  0
  196.0470  170.7320  145.8180 N   0  0  0  0  0  2  0  0  0  0  0  0
  196.7150  169.8140  146.6380 N   0  0  0  0  0  2  0  0  0  0  0  0
  195.7030  168.9360  147.1940 C   0  0  0  0  0  2  0  0  0  0  0  0
  194.4980  169.1320  146.5220 O   0  0  0  0  0  1  0  0  0  0  0  0
  189.7310  177.5220  142.7640 C   0  0  0  0  0  2  0  0  0  0  0  0
  189.1180  176.1240  142.6440 C   0  0  1  0  0  3  0  0  0  0  0  0
  187.7820  176.1530  141.8990 C   0  0  0  0  0  2  0  0  0  0  0  0
  186.6020  175.9090  142.7940 C   0  0  0  0  0  3  0  0  0  0  0  0
  185.8180  176.9120  143.1820 C   0  0  0  0  0  2  0  0  0  0  0  0
  190.0260  175.2330  142.0060 O   0  0  0  0  0  0  0  0  0  0  0  0
  189.8860  173.2280  140.8610 O   0  0  0  0  0  0  0  0  0  0  0  0
  189.4750  173.1170  143.1980 C   0  0  0  0  0  1  0  0  0  0  0  0
  189.8040  173.8550  141.9510 C   0  0  0  0  0  0  0  0  0  0  0  0
  1 19  1  0  0  0  0
  1  7  1  0  0  0  0
  2  9  1  0  0  0  0
  4  3  1  0  0  0  0
  5 13  1  0  0  0  0
  8  3  2  0  0  0  0
  9 10  1  0  0  0  0
  9  6  1  1  0  0  0
 10  8  1  0  0  0  0
 11 24  1  6  0  0  0
 11 16  1  0  0  0  0
 12  1  2  0  0  0  0
 13  7  2  0  0  0  0
 13  6  1  0  0  0  0
 14 12  1  0  0  0  0
 14  5  2  0  0  0  0
 15  4  2  0  0  0  0
 16 10  2  0  0  0  0
 16 15  1  0  0  0  0
 17  2  2  0  0  0  0
 17  5  1  0  0  0  0
 18 11  1  0  0  0  0
 18  2  1  0  0  0  0
 19 20  1  0  0  0  0
 20 21  1  0  0  0  0
 21 22  1  0  0  0  0
 23 22  1  0  0  0  0
 25 26  1  6  0  0  0
 25 24  1  0  0  0  0
 26 27  1  0  0  0  0
 27 28  2  0  0  0  0
 29 25  1  0  0  0  0
 30 32  2  0  0  0  0
 32 29  1  0  0  0  0
 32 31  1  0  0  0  0
M  END
>  <MODEL>
3

>  <REMARK>
 VINA RESULT:      -6.6      3.953      9.468
  Name = 
  10 active torsions:
  status: ('A' for Active; 'I' for Inactive)
    1  A    between atoms: N_1  and  N_10
    2  A    between atoms: N_1  and  C_17
    3  A    between atoms: C_2  and  C_24
    4  A    between atoms: C_6  and  C_7
    5  A    between atoms: C_7  and  C_32
    6  A    between atoms: N_10  and  C_24
    7  A    between atoms: C_16  and  C_27
    8  A    between atoms: O_22  and  C_30
    9  A    between atoms: O_22  and  C_32
   10  A    between atoms: C_27  and  C_32
                            x       y       z     vdW  Elec       q    Type
                         _______ _______ _______ _____ _____    ______ ____

>  <TORSDO>
F 10

$$$$
=
 OpenBabel11052421373D

 32 35  0  0  1  0  0  0  0  0999 V2000
  188.4090  177.4660  144.9560 C   0  0  0  0  0  0  0  0  0  0  0  0
  193.2160  176.0360  145.7670 C   0  0  0  0  0  0  0  0  0  0  0  0
  195.5420  176.4660  141.4470 C   0  0  0  0  0  3  0  0  0  0  0  0
  196.7370  176.0940  142.0660 C   0  0  0  0  0  3  0  0  0  0  0  0
  190.8940  176.7410  146.0230 C   0  0  0  0  0  0  0  0  0  0  0  0
  191.9840  176.9840  143.7710 C   0  0  0  0  0  2  0  0  0  0  0  0
  189.5280  177.3750  144.1190 C   0  0  0  0  0  3  0  0  0  0  0  0
  194.3440  176.4310  142.1630 C   0  0  0  0  0  3  0  0  0  0  0  0
  193.0140  175.9520  144.2640 C   0  0  1  0  0  3  0  0  0  0  0  0
  194.3260  176.0430  143.5130 C   0  0  0  0  0  0  0  0  0  0  0  0
  195.5630  175.1270  145.5390 C   0  0  1  0  0  3  0  0  0  0  0  0
  188.5390  177.2140  146.3270 C   0  0  0  0  0  3  0  0  0  0  0  0
  190.7660  176.9990  144.6460 C   0  0  0  0  0  0  0  0  0  0  0  0
  189.7800  176.8520  146.8610 C   0  0  0  0  0  3  0  0  0  0  0  0
  196.7330  175.6790  143.3990 C   0  0  0  0  0  3  0  0  0  0  0  0
  195.5370  175.6450  144.1260 C   0  0  0  0  0  0  0  0  0  0  0  0
  192.2000  176.3530  146.5740 C   0  0  0  0  0  3  0  0  0  0  0  0
  194.4730  175.6760  146.3400 N   0  0  0  0  0  2  0  0  0  0  0  0
  187.0940  177.8780  144.3970 C   0  0  0  0  0  2  0  0  0  0  0  0
  186.0370  177.0700  144.9790 N   0  0  0  0  0  2  0  0  0  0  0  0
  184.9310  177.9130  145.1450 N   0  0  0  0  0  2  0  0  0  0  0  0
  184.5900  177.8820  146.5540 C   0  0  0  0  0  2  0  0  0  0  0  0
  185.2290  178.9320  147.2100 O   0  0  0  0  0  1  0  0  0  0  0  0
  195.5850  173.5980  145.6120 C   0  0  0  0  0  2  0  0  0  0  0  0
  194.6920  172.9270  144.5650 C   0  0  1  0  0  3  0  0  0  0  0  0
  195.4820  171.9560  143.6850 C   0  0  0  0  0  2  0  0  0  0  0  0
  195.5540  172.3860  142.2490 C   0  0  0  0  0  3  0  0  0  0  0  0
  194.4690  172.8050  141.6030 C   0  0  0  0  0  2  0  0  0  0  0  0
  193.6020  172.2600  145.1910 O   0  0  0  0  0  0  0  0  0  0  0  0
  192.2690  170.7410  144.0640 O   0  0  0  0  0  0  0  0  0  0  0  0
  191.3900  172.9390  144.2710 C   0  0  0  0  0  1  0  0  0  0  0  0
  192.4410  171.9130  144.4960 C   0  0  0  0  0  0  0  0  0  0  0  0
  1 12  1  0  0  0  0
  2 18  1  0  0  0  0
  2 17  2  0  0  0  0
  3  4  2  0  0  0  0
  3  8  1  0  0  0  0
  4 15  1  0  0  0  0
  5 17  1  0  0  0  0
  5 14  1  0  0  0  0
  6 13  1  0  0  0  0
  7 13  1  0  0  0  0
  7  1  2  0  0  0  0
  8 10  2  0  0  0  0
  9  6  1  6  0  0  0
  9  2  1  0  0  0  0
 10 16  1  0  0  0  0
 10  9  1  0  0  0  0
 11 24  1  6  0  0  0
 11 18  1  0  0  0  0
 12 14  2  0  0  0  0
 13  5  2  0  0  0  0
 15 16  2  0  0  0  0
 16 11  1  0  0  0  0
 19  1  1  0  0  0  0
 19 20  1  0  0  0  0
 20 21  1  0  0  0  0
 21 22  1  0  0  0  0
 22 23  1  0  0  0  0
 25 26  1  1  0  0  0
 25 29  1  0  0  0  0
 25 24  1  0  0  0  0
 27 26  1  0  0  0  0
 28 27  2  0  0  0  0
 30 32  2  0  0  0  0
 31 32  1  0  0  0  0
 32 29  1  0  0  0  0
M  END
>  <MODEL>
4

>  <REMARK>
 VINA RESULT:      -6.5      3.366      5.489
  Name = 
  10 active torsions:
  status: ('A' for Active; 'I' for Inactive)
    1  A    between atoms: N_1  and  N_10
    2  A    between atoms: N_1  and  C_17
    3  A    between atoms: C_2  and  C_24
    4  A    between atoms: C_6  and  C_7
    5  A    between atoms: C_7  and  C_32
    6  A    between atoms: N_10  and  C_24
    7  A    between atoms: C_16  and  C_27
    8  A    between atoms: O_22  and  C_30
    9  A    between atoms: O_22  and  C_32
   10  A    between atoms: C_27  and  C_32
                            x       y       z     vdW  Elec       q    Type
                         _______ _______ _______ _____ _____    ______ ____

>  <TORSDO>
F 10

$$$$
=
 OpenBabel11052421373D

 32 35  0  0  1  0  0  0  0  0999 V2000
  188.4430  177.5050  144.9950 C   0  0  0  0  0  0  0  0  0  0  0  0
  193.2650  176.0810  145.7140 C   0  0  0  0  0  0  0  0  0  0  0  0
  195.4870  176.4320  141.3320 C   0  0  0  0  0  3  0  0  0  0  0  0
  196.6960  176.0690  141.9290 C   0  0  0  0  0  3  0  0  0  0  0  0
  190.9510  176.7940  146.0130 C   0  0  0  0  0  0  0  0  0  0  0  0
  191.9870  176.9970  143.7320 C   0  0  0  0  0  2  0  0  0  0  0  0
  189.5400  177.3980  144.1330 C   0  0  0  0  0  3  0  0  0  0  0  0
  194.3070  176.4110  142.0770 C   0  0  0  0  0  3  0  0  0  0  0  0
  193.0280  175.9720  144.2180 C   0  0  1  0  0  3  0  0  0  0  0  0
  194.3210  176.0480  143.4340 C   0  0  0  0  0  0  0  0  0  0  0  0
  195.6060  175.1650  145.4450 C   0  0  1  0  0  3  0  0  0  0  0  0
  188.6050  177.2770  146.3670 C   0  0  0  0  0  3  0  0  0  0  0  0
  190.7910  177.0290  144.6360 C   0  0  0  0  0  0  0  0  0  0  0  0
  189.8580  176.9220  146.8760 C   0  0  0  0  0  3  0  0  0  0  0  0
  196.7240  175.6780  143.2680 C   0  0  0  0  0  3  0  0  0  0  0  0
  195.5460  175.6580  144.0250 C   0  0  0  0  0  0  0  0  0  0  0  0
  192.2700  176.4150  146.5400 C   0  0  0  0  0  3  0  0  0  0  0  0
  194.5360  175.7300  146.2630 N   0  0  0  0  0  2  0  0  0  0  0  0
  187.1150  177.9090  144.4600 C   0  0  0  0  0  2  0  0  0  0  0  0
  187.2290  178.2270  143.0470 N   0  0  0  0  0  2  0  0  0  0  0  0
  186.1340  179.0380  142.7270 N   0  0  0  0  0  2  0  0  0  0  0  0
  184.9840  178.4770  143.4120 C   0  0  0  0  0  2  0  0  0  0  0  0
  184.0680  178.0090  142.4730 O   0  0  0  0  0  1  0  0  0  0  0  0
  195.6280  173.6370  145.5450 C   0  0  0  0  0  2  0  0  0  0  0  0
  194.7200  172.9490  144.5210 C   0  0  1  0  0  3  0  0  0  0  0  0
  195.4750  171.8880  143.7180 C   0  0  0  0  0  2  0  0  0  0  0  0
  195.6840  172.2710  142.2830 C   0  0  0  0  0  3  0  0  0  0  0  0
  194.6680  172.6840  141.5280 C   0  0  0  0  0  2  0  0  0  0  0  0
  193.5870  172.3770  145.1630 O   0  0  0  0  0  0  0  0  0  0  0  0
  192.2500  171.1090  143.7640 O   0  0  0  0  0  0  0  0  0  0  0  0
  191.2630  173.0910  144.6250 C   0  0  0  0  0  1  0  0  0  0  0  0
  192.3900  172.1330  144.4850 C   0  0  0  0  0  0  0  0  0  0  0  0
  1 12  1  0  0  0  0
  2 18  1  0  0  0  0
  2 17  2  0  0  0  0
  3  4  2  0  0  0  0
  3  8  1  0  0  0  0
  4 15  1  0  0  0  0
  5 17  1  0  0  0  0
  5 14  1  0  0  0  0
  6 13  1  0  0  0  0
  7 13  1  0  0  0  0
  7  1  2  0  0  0  0
  8 10  2  0  0  0  0
  9  6  1  6  0  0  0
  9  2  1  0  0  0  0
 10 16  1  0  0  0  0
 10  9  1  0  0  0  0
 11 24  1  6  0  0  0
 11 18  1  0  0  0  0
 12 14  2  0  0  0  0
 13  5  2  0  0  0  0
 15 16  2  0  0  0  0
 16 11  1  0  0  0  0
 19  1  1  0  0  0  0
 20 19  1  0  0  0  0
 21 20  1  0  0  0  0
 21 22  1  0  0  0  0
 23 22  1  0  0  0  0
 25 26  1  1  0  0  0
 25 29  1  0  0  0  0
 25 24  1  0  0  0  0
 27 26  1  0  0  0  0
 28 27  2  0  0  0  0
 30 32  2  0  0  0  0
 32 31  1  0  0  0  0
 32 29  1  0  0  0  0
M  END
>  <MODEL>
5

>  <REMARK>
 VINA RESULT:      -6.4      3.080      5.290
  Name = 
  10 active torsions:
  status: ('A' for Active; 'I' for Inactive)
    1  A    between atoms: N_1  and  N_10
    2  A    between atoms: N_1  and  C_17
    3  A    between atoms: C_2  and  C_24
    4  A    between atoms: C_6  and  C_7
    5  A    between atoms: C_7  and  C_32
    6  A    between atoms: N_10  and  C_24
    7  A    between atoms: C_16  and  C_27
    8  A    between atoms: O_22  and  C_30
    9  A    between atoms: O_22  and  C_32
   10  A    between atoms: C_27  and  C_32
                            x       y       z     vdW  Elec       q    Type
                         _______ _______ _______ _____ _____    ______ ____

>  <TORSDO>
F 10

$$$$
=
 OpenBabel11052421373D

 32 35  0  0  1  0  0  0  0  0999 V2000
  192.6220  175.2810  145.0790 C   0  0  0  0  0  0  0  0  0  0  0  0
  188.4060  177.7780  143.7390 C   0  0  0  0  0  0  0  0  0  0  0  0
  185.5290  177.8940  147.7340 C   0  0  0  0  0  3  0  0  0  0  0  0
  184.6020  178.6660  147.0310 C   0  0  0  0  0  3  0  0  0  0  0  0
  190.6540  176.8320  143.8320 C   0  0  0  0  0  0  0  0  0  0  0  0
  189.2580  176.8250  145.9230 C   0  0  0  0  0  2  0  0  0  0  0  0
  191.4580  175.6230  145.7770 C   0  0  0  0  0  3  0  0  0  0  0  0
  186.6440  177.3710  147.0780 C   0  0  0  0  0  3  0  0  0  0  0  0
  188.0420  177.0100  144.9970 C   0  0  1  0  0  3  0  0  0  0  0  0
  186.8600  177.6290  145.7140 C   0  0  0  0  0  0  0  0  0  0  0  0
  186.0330  178.6180  143.5210 C   0  0  1  0  0  3  0  0  0  0  0  0
  192.8100  175.7320  143.7670 C   0  0  0  0  0  3  0  0  0  0  0  0
  190.4670  176.3850  145.1520 C   0  0  0  0  0  0  0  0  0  0  0  0
  191.8270  176.5070  143.1430 C   0  0  0  0  0  3  0  0  0  0  0  0
  184.7870  178.9080  145.6690 C   0  0  0  0  0  3  0  0  0  0  0  0
  185.9050  178.3920  145.0030 C   0  0  0  0  0  0  0  0  0  0  0  0
  189.6120  177.6400  143.1820 C   0  0  0  0  0  3  0  0  0  0  0  0
  187.4250  178.5810  143.0820 N   0  0  0  0  0  2  0  0  0  0  0  0
  193.6820  174.4800  145.7490 C   0  0  0  0  0  2  0  0  0  0  0  0
  194.2130  173.4940  144.8240 N   0  0  0  0  0  2  0  0  0  0  0  0
  193.7330  172.2480  145.2450 N   0  0  0  0  0  2  0  0  0  0  0  0
  194.8860  171.4820  145.6790 C   0  0  0  0  0  2  0  0  0  0  0  0
  194.5420  170.1350  145.7680 O   0  0  0  0  0  1  0  0  0  0  0  0
  185.1690  177.6600  142.6960 C   0  0  0  0  0  2  0  0  0  0  0  0
  184.1670  178.3760  141.7860 C   0  0  1  0  0  3  0  0  0  0  0  0
  184.5750  178.2870  140.3140 C   0  0  0  0  0  2  0  0  0  0  0  0
  185.9690  177.7700  140.1170 C   0  0  0  0  0  3  0  0  0  0  0  0
  186.3210  177.1550  138.9910 C   0  0  0  0  0  2  0  0  0  0  0  0
  182.8580  177.8520  141.9740 O   0  0  0  0  0  0  0  0  0  0  0  0
  181.3080  179.4100  142.6980 O   0  0  0  0  0  0  0  0  0  0  0  0
  180.9600  178.5380  140.5150 C   0  0  0  0  0  1  0  0  0  0  0  0
  181.7110  178.6290  141.7940 C   0  0  0  0  0  0  0  0  0  0  0  0
  1 19  1  0  0  0  0
  1  7  1  0  0  0  0
  2  9  1  0  0  0  0
  4  3  2  0  0  0  0
  5 13  1  0  0  0  0
  8  3  1  0  0  0  0
  9 10  1  0  0  0  0
  9  6  1  1  0  0  0
 10  8  2  0  0  0  0
 11 24  1  6  0  0  0
 11 16  1  0  0  0  0
 12  1  2  0  0  0  0
 13  7  2  0  0  0  0
 13  6  1  0  0  0  0
 14 12  1  0  0  0  0
 14  5  2  0  0  0  0
 15  4  1  0  0  0  0
 16 15  2  0  0  0  0
 16 10  1  0  0  0  0
 17  2  2  0  0  0  0
 17  5  1  0  0  0  0
 18 11  1  0  0  0  0
 18  2  1  0  0  0  0
 20 21  1  0  0  0  0
 20 19  1  0  0  0  0
 21 22  1  0  0  0  0
 22 23  1  0  0  0  0
 25 26  1  6  0  0  0
 25 29  1  0  0  0  0
 25 24  1  0  0  0  0
 27 26  1  0  0  0  0
 28 27  2  0  0  0  0
 31 32  1  0  0  0  0
 32 29  1  0  0  0  0
 32 30  2  0  0  0  0
M  END
>  <MODEL>
6

>  <REMARK>
 VINA RESULT:      -6.3      2.798      9.697
  Name = 
  10 active torsions:
  status: ('A' for Active; 'I' for Inactive)
    1  A    between atoms: N_1  and  N_10
    2  A    between atoms: N_1  and  C_17
    3  A    between atoms: C_2  and  C_24
    4  A    between atoms: C_6  and  C_7
    5  A    between atoms: C_7  and  C_32
    6  A    between atoms: N_10  and  C_24
    7  A    between atoms: C_16  and  C_27
    8  A    between atoms: O_22  and  C_30
    9  A    between atoms: O_22  and  C_32
   10  A    between atoms: C_27  and  C_32
                            x       y       z     vdW  Elec       q    Type
                         _______ _______ _______ _____ _____    ______ ____

>  <TORSDO>
F 10

$$$$
=
 OpenBabel11052421373D

 32 35  0  0  1  0  0  0  0  0999 V2000
  189.8400  171.4950  139.5470 C   0  0  0  0  0  0  0  0  0  0  0  0
  188.1980  175.6260  142.0050 C   0  0  0  0  0  0  0  0  0  0  0  0
  189.9990  175.3310  146.5790 C   0  0  0  0  0  3  0  0  0  0  0  0
  189.4400  176.5760  146.8680 C   0  0  0  0  0  3  0  0  0  0  0  0
  188.7940  173.9770  140.3070 C   0  0  0  0  0  0  0  0  0  0  0  0
  189.7520  173.7250  142.6180 C   0  0  0  0  0  2  0  0  0  0  0  0
  190.0220  171.9560  140.8560 C   0  0  0  0  0  3  0  0  0  0  0  0
  189.7390  174.7150  145.3530 C   0  0  0  0  0  3  0  0  0  0  0  0
  188.6100  174.6440  143.0880 C   0  0  1  0  0  3  0  0  0  0  0  0
  188.9330  175.3450  144.3910 C   0  0  0  0  0  0  0  0  0  0  0  0
  187.4010  177.2720  143.7480 C   0  0  1  0  0  3  0  0  0  0  0  0
  189.1550  172.2830  138.6150 C   0  0  0  0  0  3  0  0  0  0  0  0
  189.4870  173.1880  141.2430 C   0  0  0  0  0  0  0  0  0  0  0  0
  188.6320  173.5240  138.9940 C   0  0  0  0  0  3  0  0  0  0  0  0
  188.6130  177.2030  145.9340 C   0  0  0  0  0  3  0  0  0  0  0  0
  188.3500  176.5960  144.7000 C   0  0  0  0  0  0  0  0  0  0  0  0
  188.2410  175.2760  140.7160 C   0  0  0  0  0  3  0  0  0  0  0  0
  187.6650  176.9020  142.3610 N   0  0  0  0  0  2  0  0  0  0  0  0
  190.4200  170.1880  139.1330 C   0  0  0  0  0  2  0  0  0  0  0  0
  189.7810  169.7330  137.9100 N   0  0  0  0  0  2  0  0  0  0  0  0
  190.7840  169.1490  137.1260 N   0  0  0  0  0  2  0  0  0  0  0  0
  191.3090  170.1960  136.2710 C   0  0  0  0  0  2  0  0  0  0  0  0
  192.6860  170.3020  136.4590 O   0  0  0  0  0  1  0  0  0  0  0  0
  185.9310  177.0420  144.1110 C   0  0  0  0  0  2  0  0  0  0  0  0
  185.0900  178.3210  144.0790 C   0  0  1  0  0  3  0  0  0  0  0  0
  185.6280  179.3760  145.0490 C   0  0  0  0  0  2  0  0  0  0  0  0
  185.5270  178.9620  146.4870 C   0  0  0  0  0  3  0  0  0  0  0  0
  184.4420  178.3450  146.9490 C   0  0  0  0  0  2  0  0  0  0  0  0
  185.0250  178.8440  142.7580 O   0  0  0  0  0  0  0  0  0  0  0  0
  182.9780  177.9620  142.1380 O   0  0  0  0  0  0  0  0  0  0  0  0
  184.5350  178.3070  140.3770 C   0  0  0  0  0  1  0  0  0  0  0  0
  184.1290  178.3550  141.8050 C   0  0  0  0  0  0  0  0  0  0  0  0
  1  7  1  0  0  0  0
  2 18  1  0  0  0  0
  2  9  1  0  0  0  0
  3  4  1  0  0  0  0
  5 17  1  0  0  0  0
  5 13  1  0  0  0  0
  7 13  2  0  0  0  0
  8  3  2  0  0  0  0
  9  6  1  6  0  0  0
  9 10  1  0  0  0  0
 10 16  2  0  0  0  0
 10  8  1  0  0  0  0
 11 24  1  1  0  0  0
 11 16  1  0  0  0  0
 12 14  1  0  0  0  0
 12  1  2  0  0  0  0
 13  6  1  0  0  0  0
 14  5  2  0  0  0  0
 15  4  2  0  0  0  0
 16 15  1  0  0  0  0
 17  2  2  0  0  0  0
 18 11  1  0  0  0  0
 19  1  1  0  0  0  0
 20 19  1  0  0  0  0
 21 20  1  0  0  0  0
 22 23  1  0  0  0  0
 22 21  1  0  0  0  0
 25 24  1  6  0  0  0
 25 26  1  0  0  0  0
 26 27  1  0  0  0  0
 27 28  2  0  0  0  0
 29 25  1  0  0  0  0
 31 32  1  0  0  0  0
 32 30  2  0  0  0  0
 32 29  1  0  0  0  0
M  END
>  <MODEL>
7

>  <REMARK>
 VINA RESULT:      -6.2      3.859      8.429
  Name = 
  10 active torsions:
  status: ('A' for Active; 'I' for Inactive)
    1  A    between atoms: N_1  and  N_10
    2  A    between atoms: N_1  and  C_17
    3  A    between atoms: C_2  and  C_24
    4  A    between atoms: C_6  and  C_7
    5  A    between atoms: C_7  and  C_32
    6  A    between atoms: N_10  and  C_24
    7  A    between atoms: C_16  and  C_27
    8  A    between atoms: O_22  and  C_30
    9  A    between atoms: O_22  and  C_32
   10  A    between atoms: C_27  and  C_32
                            x       y       z     vdW  Elec       q    Type
                         _______ _______ _______ _____ _____    ______ ____

>  <TORSDO>
F 10

$$$$
=
 OpenBabel11052421373D

 32 35  0  0  1  0  0  0  0  0999 V2000
  186.7920  177.9000  143.5790 C   0  0  0  0  0  0  0  0  0  0  0  0
  190.5110  174.4450  143.7630 C   0  0  0  0  0  0  0  0  0  0  0  0
  194.2110  176.5170  146.2680 C   0  0  0  0  0  3  0  0  0  0  0  0
  194.9290  175.3230  146.1730 C   0  0  0  0  0  3  0  0  0  0  0  0
  188.3750  175.5940  143.4910 C   0  0  0  0  0  0  0  0  0  0  0  0
  190.2070  176.7460  144.7710 C   0  0  0  0  0  2  0  0  0  0  0  0
  188.0720  177.9110  144.1460 C   0  0  0  0  0  3  0  0  0  0  0  0
  192.9940  176.6550  145.5980 C   0  0  0  0  0  3  0  0  0  0  0  0
  191.1760  175.7760  144.0710 C   0  0  1  0  0  3  0  0  0  0  0  0
  192.4670  175.5960  144.8410 C   0  0  0  0  0  0  0  0  0  0  0  0
  192.7450  173.2670  143.8550 C   0  0  1  0  0  3  0  0  0  0  0  0
  186.2980  176.7310  142.9880 C   0  0  0  0  0  3  0  0  0  0  0  0
  188.8700  176.7660  144.0900 C   0  0  0  0  0  0  0  0  0  0  0  0
  187.0890  175.5780  142.9440 C   0  0  0  0  0  3  0  0  0  0  0  0
  194.4340  174.2710  145.4020 C   0  0  0  0  0  3  0  0  0  0  0  0
  193.2120  174.3980  144.7310 C   0  0  0  0  0  0  0  0  0  0  0  0
  189.2160  174.3890  143.4420 C   0  0  0  0  0  3  0  0  0  0  0  0
  191.2920  173.2500  143.7150 N   0  0  0  0  0  2  0  0  0  0  0  0
  185.9380  179.1160  143.6490 C   0  0  0  0  0  2  0  0  0  0  0  0
  184.7350  178.8290  144.4110 N   0  0  0  0  0  2  0  0  0  0  0  0
  185.0610  179.0110  145.7610 N   0  0  0  0  0  2  0  0  0  0  0  0
  184.4440  177.9190  146.4900 C   0  0  0  0  0  2  0  0  0  0  0  0
  185.3340  176.8500  146.5660 O   0  0  0  0  0  1  0  0  0  0  0  0
  193.4310  173.2520  142.4860 C   0  0  0  0  0  2  0  0  0  0  0  0
  192.7710  174.1820  141.4650 C   0  0  1  0  0  3  0  0  0  0  0  0
  193.6690  175.3730  141.1200 C   0  0  0  0  0  2  0  0  0  0  0  0
  195.0240  175.2950  141.7590 C   0  0  0  0  0  3  0  0  0  0  0  0
  195.5940  176.3730  142.2910 C   0  0  0  0  0  2  0  0  0  0  0  0
  192.4190  173.4650  140.2880 O   0  0  0  0  0  0  0  0  0  0  0  0
  190.2560  173.7550  139.5200 O   0  0  0  0  0  0  0  0  0  0  0  0
  190.7560  171.6180  140.4290 C   0  0  0  0  0  1  0  0  0  0  0  0
  191.1200  173.0080  140.0530 C   0  0  0  0  0  0  0  0  0  0  0  0
  1 19  1  0  0  0  0
  1  7  1  0  0  0  0
  2  9  1  0  0  0  0
  4  3  1  0  0  0  0
  5 13  1  0  0  0  0
  8  3  2  0  0  0  0
  9  6  1  1  0  0  0
  9 10  1  0  0  0  0
 10  8  1  0  0  0  0
 11 24  1  6  0  0  0
 11 16  1  0  0  0  0
 12  1  2  0  0  0  0
 13  7  2  0  0  0  0
 13  6  1  0  0  0  0
 14 12  1  0  0  0  0
 14  5  2  0  0  0  0
 15  4  2  0  0  0  0
 16 10  2  0  0  0  0
 16 15  1  0  0  0  0
 17  5  1  0  0  0  0
 17  2  2  0  0  0  0
 18  2  1  0  0  0  0
 18 11  1  0  0  0  0
 19 20  1  0  0  0  0
 20 21  1  0  0  0  0
 21 22  1  0  0  0  0
 22 23  1  0  0  0  0
 25 26  1  6  0  0  0
 25 24  1  0  0  0  0
 26 27  1  0  0  0  0
 27 28  2  0  0  0  0
 29 25  1  0  0  0  0
 30 32  2  0  0  0  0
 32 29  1  0  0  0  0
 32 31  1  0  0  0  0
M  END
>  <MODEL>
8

>  <REMARK>
 VINA RESULT:      -6.2      3.063      5.465
  Name = 
  10 active torsions:
  status: ('A' for Active; 'I' for Inactive)
    1  A    between atoms: N_1  and  N_10
    2  A    between atoms: N_1  and  C_17
    3  A    between atoms: C_2  and  C_24
    4  A    between atoms: C_6  and  C_7
    5  A    between atoms: C_7  and  C_32
    6  A    between atoms: N_10  and  C_24
    7  A    between atoms: C_16  and  C_27
    8  A    between atoms: O_22  and  C_30
    9  A    between atoms: O_22  and  C_32
   10  A    between atoms: C_27  and  C_32
                            x       y       z     vdW  Elec       q    Type
                         _______ _______ _______ _____ _____    ______ ____

>  <TORSDO>
F 10

$$$$
=
 OpenBabel11052421373D

 32 35  0  0  1  0  0  0  0  0999 V2000
  186.5990  177.9210  143.5410 C   0  0  0  0  0  0  0  0  0  0  0  0
  190.4650  174.6300  143.7120 C   0  0  0  0  0  0  0  0  0  0  0  0
  193.9000  176.6680  146.5930 C   0  0  0  0  0  3  0  0  0  0  0  0
  194.6800  175.5180  146.4580 C   0  0  0  0  0  3  0  0  0  0  0  0
  188.2960  175.7000  143.3880 C   0  0  0  0  0  0  0  0  0  0  0  0
  189.9880  176.8320  144.8630 C   0  0  0  0  0  2  0  0  0  0  0  0
  187.8400  177.9460  144.1890 C   0  0  0  0  0  3  0  0  0  0  0  0
  192.7210  176.8030  145.8590 C   0  0  0  0  0  3  0  0  0  0  0  0
  191.0440  175.9610  144.1580 C   0  0  1  0  0  3  0  0  0  0  0  0
  192.2930  175.7810  144.9950 C   0  0  0  0  0  0  0  0  0  0  0  0
  192.7440  173.5480  143.8610 C   0  0  1  0  0  3  0  0  0  0  0  0
  186.1990  176.7790  142.8370 C   0  0  0  0  0  3  0  0  0  0  0  0
  188.6950  176.8440  144.1010 C   0  0  0  0  0  0  0  0  0  0  0  0
  187.0470  175.6690  142.7590 C   0  0  0  0  0  3  0  0  0  0  0  0
  194.2840  174.5050  145.5820 C   0  0  0  0  0  3  0  0  0  0  0  0
  193.1010  174.6290  144.8450 C   0  0  0  0  0  0  0  0  0  0  0  0
  189.1950  174.5400  143.3060 C   0  0  0  0  0  3  0  0  0  0  0  0
  191.3040  173.4780  143.6270 N   0  0  0  0  0  2  0  0  0  0  0  0
  185.6840  179.0890  143.6450 C   0  0  0  0  0  2  0  0  0  0  0  0
  185.4230  179.3880  145.0430 N   0  0  0  0  0  2  0  0  0  0  0  0
  184.2510  178.7040  145.3880 N   0  0  0  0  0  2  0  0  0  0  0  0
  184.4970  178.0750  146.6720 C   0  0  0  0  0  2  0  0  0  0  0  0
  185.0140  176.7970  146.4710 O   0  0  0  0  0  1  0  0  0  0  0  0
  193.5120  173.6670  142.5420 C   0  0  0  0  0  2  0  0  0  0  0  0
  195.0120  173.9030  142.7320 C   0  0  1  0  0  3  0  0  0  0  0  0
  195.8320  172.6620  142.3680 C   0  0  0  0  0  2  0  0  0  0  0  0
  196.6040  172.1040  143.5260 C   0  0  0  0  0  3  0  0  0  0  0  0
  197.3000  172.9000  144.3340 C   0  0  0  0  0  2  0  0  0  0  0  0
  195.4430  175.0260  141.9720 O   0  0  0  0  0  0  0  0  0  0  0  0
  197.6500  175.6770  141.7360 O   0  0  0  0  0  0  0  0  0  0  0  0
  196.4240  176.7730  143.4510 C   0  0  0  0  0  1  0  0  0  0  0  0
  196.5500  175.7950  142.3390 C   0  0  0  0  0  0  0  0  0  0  0  0
  1 19  1  0  0  0  0
  1  7  1  0  0  0  0
  2  9  1  0  0  0  0
  4  3  1  0  0  0  0
  5 13  1  0  0  0  0
  8  3  2  0  0  0  0
  9  6  1  1  0  0  0
  9 10  1  0  0  0  0
 10  8  1  0  0  0  0
 11 24  1  6  0  0  0
 11 16  1  0  0  0  0
 12  1  2  0  0  0  0
 13  7  2  0  0  0  0
 13  6  1  0  0  0  0
 14 12  1  0  0  0  0
 14  5  2  0  0  0  0
 15  4  2  0  0  0  0
 16 10  2  0  0  0  0
 16 15  1  0  0  0  0
 17  5  1  0  0  0  0
 17  2  2  0  0  0  0
 18  2  1  0  0  0  0
 18 11  1  0  0  0  0
 19 20  1  0  0  0  0
 20 21  1  0  0  0  0
 21 22  1  0  0  0  0
 23 22  1  0  0  0  0
 24 25  1  0  0  0  0
 25 26  1  6  0  0  0
 26 27  1  0  0  0  0
 27 28  2  0  0  0  0
 29 32  1  0  0  0  0
 29 25  1  0  0  0  0
 30 32  2  0  0  0  0
 32 31  1  0  0  0  0
M  END
>  <MODEL>
9

>  <REMARK>
 VINA RESULT:      -6.2      3.068      5.109
  Name = 
  10 active torsions:
  status: ('A' for Active; 'I' for Inactive)
    1  A    between atoms: N_1  and  N_10
    2  A    between atoms: N_1  and  C_17
    3  A    between atoms: C_2  and  C_24
    4  A    between atoms: C_6  and  C_7
    5  A    between atoms: C_7  and  C_32
    6  A    between atoms: N_10  and  C_24
    7  A    between atoms: C_16  and  C_27
    8  A    between atoms: O_22  and  C_30
    9  A    between atoms: O_22  and  C_32
   10  A    between atoms: C_27  and  C_32
                            x       y       z     vdW  Elec       q    Type
                         _______ _______ _______ _____ _____    ______ ____

>  <TORSDO>
F 10

$$$$
