=
 OpenBabel11052418063D

 28 31  0  0  1  0  0  0  0  0999 V2000
  186.1540  178.2130  144.2460 C   0  0  1  0  0  3  0  0  0  0  0  0
  186.9550  178.7660  148.4270 N   0  0  0  0  0  1  0  0  0  0  0  0
  188.7980  176.0760  144.6770 C   0  0  1  0  0  3  0  0  0  0  0  0
  187.3510  177.5250  146.3610 C   0  0  2  0  0  3  0  0  0  0  0  0
  187.4410  176.1050  144.2850 O   0  0  0  0  0  0  0  0  0  0  0  0
  185.8050  179.4740  146.4100 C   0  0  0  0  0  2  0  0  0  0  0  0
  187.9700  176.3290  147.0710 C   0  0  0  0  0  2  0  0  0  0  0  0
  186.3300  178.2800  147.2090 C   0  0  2  0  0  3  0  0  0  0  0  0
  188.9670  175.6270  146.1430 C   0  0  0  0  0  2  0  0  0  0  0  0
  185.1700  179.0270  145.0910 C   0  0  0  0  0  2  0  0  0  0  0  0
  186.6830  177.0260  145.0650 C   0  0  2  0  0  3  0  0  0  0  0  0
  188.6820  174.3880  142.8490 C   0  0  0  0  0  2  0  0  0  0  0  0
  191.8180  175.2030  142.3930 C   0  0  0  0  0  3  0  0  0  0  0  0
  190.6360  172.9700  142.1650 C   0  0  2  0  0  3  0  0  0  0  0  0
  189.6340  175.2490  143.6910 C   0  0  1  0  0  3  0  0  0  0  0  0
  191.1600  177.3100  143.4410 C   0  0  0  0  0  1  0  0  0  0  0  0
  191.8170  173.8950  142.0820 C   0  0  0  0  0  3  0  0  0  0  0  0
  190.6290  176.0350  142.8030 C   0  0  1  0  0  3  0  0  0  0  0  0
  190.8790  171.8400  141.3850 O   0  0  0  0  0  1  0  0  0  0  0  0
  189.3570  173.6440  141.6980 C   0  0  0  0  0  2  0  0  0  0  0  0
  185.5170  177.8200  142.9020 C   0  0  1  0  0  3  0  0  0  0  0  0
  184.0630  178.2980  142.8820 C   0  0  0  0  0  2  0  0  0  0  0  0
  185.5050  178.1680  140.3890 C   0  0  0  0  0  0  0  0  0  0  0  0
  183.3720  177.8410  141.6070 C   0  0  0  0  0  2  0  0  0  0  0  0
  187.6310  177.5450  141.5530 C   0  0  0  0  0  1  0  0  0  0  0  0
  186.3120  178.3000  141.6630 C   0  0  2  0  0  3  0  0  0  0  0  0
  186.0500  177.9240  139.3240 O   0  0  0  0  0  0  0  0  0  0  0  0
  184.0400  178.4830  140.4000 C   0  0  0  0  0  2  0  0  0  0  0  0
  1 11  1  0  0  0  0
  1 10  1  1  0  0  0
  3  9  1  1  0  0  0
  4  7  1  1  0  0  0
  4  8  1  0  0  0  0
  5  3  1  0  0  0  0
  6  8  1  0  0  0  0
  8  2  1  1  0  0  0
  9  7  1  0  0  0  0
 10  6  1  0  0  0  0
 11  5  1  6  0  0  0
 11  4  1  0  0  0  0
 13 18  1  0  0  0  0
 14 19  1  6  0  0  0
 15 12  1  6  0  0  0
 15  3  1  0  0  0  0
 17 14  1  0  0  0  0
 17 13  2  0  0  0  0
 18 16  1  1  0  0  0
 18 15  1  0  0  0  0
 20 14  1  0  0  0  0
 20 12  1  0  0  0  0
 21 22  1  6  0  0  0
 21  1  1  0  0  0  0
 23 28  1  0  0  0  0
 23 26  1  0  0  0  0
 24 22  1  0  0  0  0
 26 25  1  6  0  0  0
 26 21  1  0  0  0  0
 27 23  2  0  0  0  0
 28 24  1  0  0  0  0
M  END
>  <MODEL>
1

>  <REMARK>
 VINA RESULT:      -8.0      0.000      0.000
  Name = 
  2 active torsions:
  status: ('A' for Active; 'I' for Inactive)
    1  A    between atoms: C_1  and  C_2
    2  A    between atoms: C_10  and  C_13
                            x       y       z     vdW  Elec       q    Type
                         _______ _______ _______ _____ _____    ______ ____

>  <TORSDO>
F 2

$$$$
=
 OpenBabel11052418063D

 28 31  0  0  1  0  0  0  0  0999 V2000
  191.7990  174.7260  142.6400 C   0  0  1  0  0  3  0  0  0  0  0  0
  190.0950  173.2830  138.9730 N   0  0  0  0  0  1  0  0  0  0  0  0
  188.5110  175.5830  143.0830 C   0  0  1  0  0  3  0  0  0  0  0  0
  189.7810  174.1900  141.2190 C   0  0  2  0  0  3  0  0  0  0  0  0
  189.5450  174.8040  143.6480 O   0  0  0  0  0  0  0  0  0  0  0  0
  192.0600  173.8090  140.2980 C   0  0  0  0  0  2  0  0  0  0  0  0
  188.3160  173.7810  141.2950 C   0  0  0  0  0  2  0  0  0  0  0  0
  190.6240  173.2820  140.3270 C   0  0  2  0  0  3  0  0  0  0  0  0
  187.5530  174.7360  142.2200 C   0  0  0  0  0  2  0  0  0  0  0  0
  192.6590  173.8710  141.7060 C   0  0  0  0  0  2  0  0  0  0  0  0
  190.3570  174.1950  142.6480 C   0  0  2  0  0  3  0  0  0  0  0  0
  188.4950  176.1640  145.5050 C   0  0  0  0  0  2  0  0  0  0  0  0
  186.3850  178.4800  144.5630 C   0  0  0  0  0  3  0  0  0  0  0  0
  186.4810  177.0880  146.6830 C   0  0  2  0  0  3  0  0  0  0  0  0
  187.7880  176.4000  144.1630 C   0  0  1  0  0  3  0  0  0  0  0  0
  187.4920  178.2530  142.3980 C   0  0  0  0  0  1  0  0  0  0  0  0
  185.9240  178.1570  145.7840 C   0  0  0  0  0  3  0  0  0  0  0  0
  187.6000  177.9090  143.8760 C   0  0  1  0  0  3  0  0  0  0  0  0
  186.0530  177.3150  147.9900 O   0  0  0  0  0  1  0  0  0  0  0  0
  188.0000  177.0530  146.6450 C   0  0  0  0  0  2  0  0  0  0  0  0
  192.4440  174.8220  144.0340 C   0  0  1  0  0  3  0  0  0  0  0  0
  193.4230  173.6590  144.2100 C   0  0  0  0  0  2  0  0  0  0  0  0
  193.9780  176.1420  145.5630 C   0  0  0  0  0  0  0  0  0  0  0  0
  194.0070  173.6660  145.6140 C   0  0  0  0  0  2  0  0  0  0  0  0
  192.0330  177.2730  144.4670 C   0  0  0  0  0  1  0  0  0  0  0  0
  193.0990  176.1930  144.3310 C   0  0  2  0  0  3  0  0  0  0  0  0
  194.1020  177.1190  146.2850 O   0  0  0  0  0  0  0  0  0  0  0  0
  194.8220  174.9330  145.8260 C   0  0  0  0  0  2  0  0  0  0  0  0
  1 10  1  6  0  0  0
  1 11  1  0  0  0  0
  1 21  1  0  0  0  0
  3  9  1  1  0  0  0
  3  5  1  0  0  0  0
  3 15  1  0  0  0  0
  4  7  1  1  0  0  0
  4 11  1  0  0  0  0
  6  8  1  0  0  0  0
  6 10  1  0  0  0  0
  7  9  1  0  0  0  0
  8  2  1  6  0  0  0
  8  4  1  0  0  0  0
 11  5  1  1  0  0  0
 12 20  1  0  0  0  0
 13 17  2  0  0  0  0
 14 19  1  1  0  0  0
 15 12  1  1  0  0  0
 17 14  1  0  0  0  0
 18 16  1  6  0  0  0
 18 15  1  0  0  0  0
 18 13  1  0  0  0  0
 20 14  1  0  0  0  0
 21 22  1  6  0  0  0
 21 26  1  0  0  0  0
 22 24  1  0  0  0  0
 23 28  1  0  0  0  0
 23 27  2  0  0  0  0
 24 28  1  0  0  0  0
 26 25  1  1  0  0  0
 26 23  1  0  0  0  0
M  END
>  <MODEL>
2

>  <REMARK>
 VINA RESULT:      -7.9      3.256      7.859
  Name = 
  2 active torsions:
  status: ('A' for Active; 'I' for Inactive)
    1  A    between atoms: C_1  and  C_2
    2  A    between atoms: C_10  and  C_13
                            x       y       z     vdW  Elec       q    Type
                         _______ _______ _______ _____ _____    ______ ____

>  <TORSDO>
F 2

$$$$
=
 OpenBabel11052418063D

 28 31  0  0  1  0  0  0  0  0999 V2000
  189.5480  175.3840  143.8260 C   0  0  1  0  0  3  0  0  0  0  0  0
  188.3160  177.7360  147.2000 N   0  0  0  0  0  1  0  0  0  0  0  0
  192.1570  174.8310  145.9770 C   0  0  1  0  0  3  0  0  0  0  0  0
  189.8370  176.0860  146.2350 C   0  0  2  0  0  3  0  0  0  0  0  0
  191.1360  174.1600  145.2690 O   0  0  0  0  0  0  0  0  0  0  0  0
  188.0210  177.1060  144.8740 C   0  0  0  0  0  2  0  0  0  0  0  0
  190.3440  175.6050  147.5870 C   0  0  0  0  0  2  0  0  0  0  0  0
  188.4070  176.6210  146.2730 C   0  0  2  0  0  3  0  0  0  0  0  0
  191.7760  175.0740  147.4520 C   0  0  0  0  0  2  0  0  0  0  0  0
  188.1380  175.9820  143.8430 C   0  0  0  0  0  2  0  0  0  0  0  0
  189.9270  174.9140  145.2390 C   0  0  2  0  0  3  0  0  0  0  0  0
  193.2760  172.8460  144.9710 C   0  0  0  0  0  2  0  0  0  0  0  0
  196.0180  174.4580  145.7370 C   0  0  0  0  0  3  0  0  0  0  0  0
  195.4940  171.9750  145.7560 C   0  0  2  0  0  3  0  0  0  0  0  0
  193.5020  174.1100  145.8120 C   0  0  1  0  0  3  0  0  0  0  0  0
  194.5910  176.4360  145.6090 C   0  0  0  0  0  1  0  0  0  0  0  0
  196.3840  173.1760  145.9130 C   0  0  0  0  0  3  0  0  0  0  0  0
  194.6760  174.9570  145.2630 C   0  0  1  0  0  3  0  0  0  0  0  0
  196.2810  170.8360  145.5950 O   0  0  0  0  0  1  0  0  0  0  0  0
  194.5580  172.1180  144.5690 C   0  0  0  0  0  2  0  0  0  0  0  0
  189.6620  174.2940  142.7460 C   0  0  1  0  0  3  0  0  0  0  0  0
  188.2580  173.9370  142.2510 C   0  0  0  0  0  2  0  0  0  0  0  0
  190.4670  173.7120  140.4120 C   0  0  0  0  0  0  0  0  0  0  0  0
  188.3250  172.7920  141.2510 C   0  0  0  0  0  2  0  0  0  0  0  0
  192.0630  174.6810  142.0780 C   0  0  0  0  0  1  0  0  0  0  0  0
  190.6210  174.6550  141.5860 C   0  0  2  0  0  3  0  0  0  0  0  0
  191.4210  173.4300  139.7050 O   0  0  0  0  0  0  0  0  0  0  0  0
  189.1040  173.2290  140.0200 C   0  0  0  0  0  2  0  0  0  0  0  0
  1 10  1  1  0  0  0
  1 11  1  0  0  0  0
  3  9  1  1  0  0  0
  4  8  1  0  0  0  0
  4  7  1  1  0  0  0
  5  3  1  0  0  0  0
  6  8  1  0  0  0  0
  8  2  1  1  0  0  0
  9  7  1  0  0  0  0
 10  6  1  0  0  0  0
 11  5  1  6  0  0  0
 11  4  1  0  0  0  0
 13 17  2  0  0  0  0
 14 19  1  6  0  0  0
 14 17  1  0  0  0  0
 15 12  1  6  0  0  0
 15  3  1  0  0  0  0
 18 16  1  1  0  0  0
 18 13  1  0  0  0  0
 18 15  1  0  0  0  0
 20 12  1  0  0  0  0
 20 14  1  0  0  0  0
 21 22  1  6  0  0  0
 21  1  1  0  0  0  0
 23 26  1  0  0  0  0
 24 22  1  0  0  0  0
 26 25  1  1  0  0  0
 26 21  1  0  0  0  0
 27 23  2  0  0  0  0
 28 23  1  0  0  0  0
 28 24  1  0  0  0  0
M  END
>  <MODEL>
3

>  <REMARK>
 VINA RESULT:      -7.2      3.243      5.137
  Name = 
  2 active torsions:
  status: ('A' for Active; 'I' for Inactive)
    1  A    between atoms: C_1  and  C_2
    2  A    between atoms: C_10  and  C_13
                            x       y       z     vdW  Elec       q    Type
                         _______ _______ _______ _____ _____    ______ ____

>  <TORSDO>
F 2

$$$$
=
 OpenBabel11052418063D

 28 31  0  0  1  0  0  0  0  0999 V2000
  188.5390  176.1240  144.5890 C   0  0  1  0  0  3  0  0  0  0  0  0
  185.3630  177.8770  142.2920 N   0  0  0  0  0  1  0  0  0  0  0  0
  188.7720  174.3110  141.6910 C   0  0  1  0  0  3  0  0  0  0  0  0
  187.3110  176.4060  142.4010 C   0  0  2  0  0  3  0  0  0  0  0  0
  189.5090  175.1860  142.5200 O   0  0  0  0  0  0  0  0  0  0  0  0
  186.5010  177.6130  144.4200 C   0  0  0  0  0  2  0  0  0  0  0  0
  187.4960  176.3630  140.8900 C   0  0  0  0  0  2  0  0  0  0  0  0
  186.6700  177.6980  142.9020 C   0  0  2  0  0  3  0  0  0  0  0  0
  188.1560  175.0420  140.4800 C   0  0  0  0  0  2  0  0  0  0  0  0
  187.8440  177.3820  145.1180 C   0  0  0  0  0  2  0  0  0  0  0  0
  188.6890  176.2180  143.0630 C   0  0  2  0  0  3  0  0  0  0  0  0
  190.7160  173.5560  140.3290 C   0  0  0  0  0  2  0  0  0  0  0  0
  190.4040  170.8050  142.0730 C   0  0  0  0  0  3  0  0  0  0  0  0
  191.0720  171.1660  139.6520 C   0  0  2  0  0  3  0  0  0  0  0  0
  189.6160  173.0920  141.2950 C   0  0  1  0  0  3  0  0  0  0  0  0
  189.3530  172.2690  143.7220 C   0  0  0  0  0  1  0  0  0  0  0  0
  190.8160  170.3400  140.8810 C   0  0  0  0  0  3  0  0  0  0  0  0
  190.1960  172.2490  142.4560 C   0  0  1  0  0  3  0  0  0  0  0  0
  191.8720  170.4430  138.7680 O   0  0  0  0  0  1  0  0  0  0  0  0
  191.7500  172.4840  139.9880 C   0  0  0  0  0  2  0  0  0  0  0  0
  189.8590  175.8780  145.3400 C   0  0  1  0  0  3  0  0  0  0  0  0
  190.8800  176.9340  144.9100 C   0  0  0  0  0  2  0  0  0  0  0  0
  191.0420  175.8720  147.5840 C   0  0  0  0  0  0  0  0  0  0  0  0
  192.2290  176.6630  145.5590 C   0  0  0  0  0  2  0  0  0  0  0  0
  188.9460  174.5410  147.2740 C   0  0  0  0  0  1  0  0  0  0  0  0
  189.7040  175.8020  146.8790 C   0  0  2  0  0  3  0  0  0  0  0  0
  191.2270  175.2800  148.6360 O   0  0  0  0  0  0  0  0  0  0  0  0
  192.1070  176.7910  147.0700 C   0  0  0  0  0  2  0  0  0  0  0  0
  1 10  1  1  0  0  0
  1 21  1  0  0  0  0
  3  9  1  6  0  0  0
  3  5  1  0  0  0  0
  4  7  1  6  0  0  0
  4  8  1  0  0  0  0
  4 11  1  0  0  0  0
  6 10  1  0  0  0  0
  8  2  1  6  0  0  0
  8  6  1  0  0  0  0
  9  7  1  0  0  0  0
 11  5  1  6  0  0  0
 11  1  1  0  0  0  0
 13 18  1  0  0  0  0
 14 19  1  6  0  0  0
 14 20  1  0  0  0  0
 14 17  1  0  0  0  0
 15 12  1  1  0  0  0
 15  3  1  0  0  0  0
 15 18  1  0  0  0  0
 17 13  2  0  0  0  0
 18 16  1  1  0  0  0
 20 12  1  0  0  0  0
 21 22  1  1  0  0  0
 21 26  1  0  0  0  0
 22 24  1  0  0  0  0
 23 27  2  0  0  0  0
 24 28  1  0  0  0  0
 26 25  1  6  0  0  0
 26 23  1  0  0  0  0
 28 23  1  0  0  0  0
M  END
>  <MODEL>
4

>  <REMARK>
 VINA RESULT:      -7.1      2.576      5.738
  Name = 
  2 active torsions:
  status: ('A' for Active; 'I' for Inactive)
    1  A    between atoms: C_1  and  C_2
    2  A    between atoms: C_10  and  C_13
                            x       y       z     vdW  Elec       q    Type
                         _______ _______ _______ _____ _____    ______ ____

>  <TORSDO>
F 2

$$$$
=
 OpenBabel11052418063D

 28 31  0  0  1  0  0  0  0  0999 V2000
  192.4290  173.8290  143.0290 C   0  0  1  0  0  3  0  0  0  0  0  0
  195.6370  174.4000  145.8240 N   0  0  0  0  0  1  0  0  0  0  0  0
  190.9490  175.9530  145.2740 C   0  0  1  0  0  3  0  0  0  0  0  0
  193.4220  175.0350  145.0130 C   0  0  2  0  0  3  0  0  0  0  0  0
  191.3100  175.8460  143.9120 O   0  0  0  0  0  0  0  0  0  0  0  0
  194.7070  173.2000  143.9310 C   0  0  0  0  0  2  0  0  0  0  0  0
  193.4150  176.3660  145.7540 C   0  0  0  0  0  2  0  0  0  0  0  0
  194.8210  174.5540  144.6320 C   0  0  2  0  0  3  0  0  0  0  0  0
  191.9750  176.7750  146.0820 C   0  0  0  0  0  2  0  0  0  0  0  0
  193.8200  173.2900  142.6860 C   0  0  0  0  0  2  0  0  0  0  0  0
  192.5590  175.1820  143.7460 C   0  0  2  0  0  3  0  0  0  0  0  0
  188.9790  176.8270  144.0250 C   0  0  0  0  0  2  0  0  0  0  0  0
  187.4230  176.3380  146.8620 C   0  0  0  0  0  3  0  0  0  0  0  0
  187.1440  178.1520  145.1090 C   0  0  2  0  0  3  0  0  0  0  0  0
  189.5120  176.4710  145.4200 C   0  0  1  0  0  3  0  0  0  0  0  0
  189.1820  174.6890  147.2520 C   0  0  0  0  0  1  0  0  0  0  0  0
  186.8020  177.4300  146.3820 C   0  0  0  0  0  3  0  0  0  0  0  0
  188.5260  175.5590  146.1900 C   0  0  1  0  0  3  0  0  0  0  0  0
  186.0620  178.9420  144.7210 O   0  0  0  0  0  1  0  0  0  0  0  0
  187.4940  177.1860  143.9890 C   0  0  0  0  0  2  0  0  0  0  0  0
  191.5360  173.8600  141.7770 C   0  0  1  0  0  3  0  0  0  0  0  0
  192.4030  173.6070  140.5420 C   0  0  0  0  0  2  0  0  0  0  0  0
  189.6550  172.7390  140.4970 C   0  0  0  0  0  0  0  0  0  0  0  0
  191.5700  173.7280  139.2750 C   0  0  0  0  0  2  0  0  0  0  0  0
  189.3180  173.3980  142.8870 C   0  0  0  0  0  1  0  0  0  0  0  0
  190.3180  172.9070  141.8470 C   0  0  2  0  0  3  0  0  0  0  0  0
  188.4510  172.5550  140.4080 O   0  0  0  0  0  0  0  0  0  0  0  0
  190.4960  172.6500  139.2600 C   0  0  0  0  0  2  0  0  0  0  0  0
  1 10  1  6  0  0  0
  1 11  1  0  0  0  0
  3 15  1  0  0  0  0
  3  9  1  1  0  0  0
  4  7  1  6  0  0  0
  5  3  1  0  0  0  0
  6  8  1  0  0  0  0
  7  9  1  0  0  0  0
  8  4  1  0  0  0  0
  8  2  1  1  0  0  0
 10  6  1  0  0  0  0
 11  5  1  1  0  0  0
 11  4  1  0  0  0  0
 14 19  1  6  0  0  0
 14 17  1  0  0  0  0
 15 12  1  6  0  0  0
 15 18  1  0  0  0  0
 17 13  2  0  0  0  0
 18 13  1  0  0  0  0
 18 16  1  1  0  0  0
 20 12  1  0  0  0  0
 20 14  1  0  0  0  0
 21 22  1  6  0  0  0
 21 26  1  0  0  0  0
 21  1  1  0  0  0  0
 23 26  1  0  0  0  0
 24 22  1  0  0  0  0
 26 25  1  1  0  0  0
 27 23  2  0  0  0  0
 28 24  1  0  0  0  0
 28 23  1  0  0  0  0
M  END
>  <MODEL>
5

>  <REMARK>
 VINA RESULT:      -7.1      3.193      7.093
  Name = 
  2 active torsions:
  status: ('A' for Active; 'I' for Inactive)
    1  A    between atoms: C_1  and  C_2
    2  A    between atoms: C_10  and  C_13
                            x       y       z     vdW  Elec       q    Type
                         _______ _______ _______ _____ _____    ______ ____

>  <TORSDO>
F 2

$$$$
=
 OpenBabel11052418063D

 28 31  0  0  1  0  0  0  0  0999 V2000
  188.6590  177.1990  145.8270 C   0  0  1  0  0  3  0  0  0  0  0  0
  192.2450  176.6880  148.1320 N   0  0  0  0  0  1  0  0  0  0  0  0
  190.3260  174.8960  143.9130 C   0  0  1  0  0  3  0  0  0  0  0  0
  190.8130  175.9640  146.2900 C   0  0  2  0  0  3  0  0  0  0  0  0
  189.1290  175.0840  144.6400 O   0  0  0  0  0  0  0  0  0  0  0  0
  190.1950  177.9160  147.7040 C   0  0  0  0  0  2  0  0  0  0  0  0
  191.4850  174.6040  146.1610 C   0  0  0  0  0  2  0  0  0  0  0  0
  190.8640  176.5410  147.7030 C   0  0  2  0  0  3  0  0  0  0  0  0
  191.3740  174.0990  144.7180 C   0  0  0  0  0  2  0  0  0  0  0  0
  188.7460  177.8300  147.2190 C   0  0  0  0  0  2  0  0  0  0  0  0
  189.3470  175.8250  145.8380 C   0  0  2  0  0  3  0  0  0  0  0  0
  188.6170  174.6940  142.1120 C   0  0  0  0  0  2  0  0  0  0  0  0
  191.1220  173.5130  140.3700 C   0  0  0  0  0  3  0  0  0  0  0  0
  188.6640  172.8860  140.3730 C   0  0  2  0  0  3  0  0  0  0  0  0
  190.0380  174.2920  142.5320 C   0  0  1  0  0  3  0  0  0  0  0  0
  192.4870  174.8130  141.9240 C   0  0  0  0  0  1  0  0  0  0  0  0
  190.0850  172.8030  139.8920 C   0  0  0  0  0  3  0  0  0  0  0  0
  191.0690  174.5960  141.4180 C   0  0  1  0  0  3  0  0  0  0  0  0
  187.8170  172.3540  139.4010 O   0  0  0  0  0  1  0  0  0  0  0  0
  188.2530  174.3160  140.6770 C   0  0  0  0  0  2  0  0  0  0  0  0
  187.2020  177.1720  145.3330 C   0  0  1  0  0  3  0  0  0  0  0  0
  186.2670  177.2580  146.5420 C   0  0  0  0  0  2  0  0  0  0  0  0
  185.3900  178.3840  144.0370 C   0  0  0  0  0  0  0  0  0  0  0  0
  184.8160  177.1350  146.0990 C   0  0  0  0  0  2  0  0  0  0  0  0
  187.5980  177.9190  142.9570 C   0  0  0  0  0  1  0  0  0  0  0  0
  186.8800  178.2410  144.2620 C   0  0  2  0  0  3  0  0  0  0  0  0
  184.9460  178.6770  142.9380 O   0  0  0  0  0  0  0  0  0  0  0  0
  184.4510  178.3090  145.2020 C   0  0  0  0  0  2  0  0  0  0  0  0
  1 11  1  0  0  0  0
  1 10  1  1  0  0  0
  3  5  1  0  0  0  0
  3  9  1  1  0  0  0
  4  7  1  1  0  0  0
  4  8  1  0  0  0  0
  8  6  1  0  0  0  0
  8  2  1  6  0  0  0
  9  7  1  0  0  0  0
 10  6  1  0  0  0  0
 11  5  1  6  0  0  0
 11  4  1  0  0  0  0
 13 18  1  0  0  0  0
 14 19  1  6  0  0  0
 14 20  1  0  0  0  0
 15 12  1  6  0  0  0
 15  3  1  0  0  0  0
 17 13  2  0  0  0  0
 17 14  1  0  0  0  0
 18 16  1  1  0  0  0
 18 15  1  0  0  0  0
 20 12  1  0  0  0  0
 21  1  1  0  0  0  0
 21 22  1  1  0  0  0
 23 26  1  0  0  0  0
 23 28  1  0  0  0  0
 24 22  1  0  0  0  0
 26 25  1  6  0  0  0
 26 21  1  0  0  0  0
 27 23  2  0  0  0  0
 28 24  1  0  0  0  0
M  END
>  <MODEL>
6

>  <REMARK>
 VINA RESULT:      -7.0      2.253      3.462
  Name = 
  2 active torsions:
  status: ('A' for Active; 'I' for Inactive)
    1  A    between atoms: C_1  and  C_2
    2  A    between atoms: C_10  and  C_13
                            x       y       z     vdW  Elec       q    Type
                         _______ _______ _______ _____ _____    ______ ____

>  <TORSDO>
F 2

$$$$
=
 OpenBabel11052418063D

 28 31  0  0  1  0  0  0  0  0999 V2000
  187.3710  176.9720  146.1060 C   0  0  1  0  0  3  0  0  0  0  0  0
  184.7040  179.4130  143.7920 N   0  0  0  0  0  1  0  0  0  0  0  0
  188.6090  176.4580  142.9530 C   0  0  1  0  0  3  0  0  0  0  0  0
  186.7380  178.0660  143.9200 C   0  0  2  0  0  3  0  0  0  0  0  0
  188.9730  176.9510  144.2260 O   0  0  0  0  0  0  0  0  0  0  0  0
  185.2640  178.3570  145.9040 C   0  0  0  0  0  2  0  0  0  0  0  0
  187.3200  178.6290  142.6310 C   0  0  0  0  0  2  0  0  0  0  0  0
  185.8150  179.0390  144.6510 C   0  0  2  0  0  3  0  0  0  0  0  0
  188.2410  177.5930  141.9760 C   0  0  0  0  0  2  0  0  0  0  0  0
  186.3940  177.9010  146.8310 C   0  0  0  0  0  2  0  0  0  0  0  0
  187.9040  177.6640  144.8430 C   0  0  2  0  0  3  0  0  0  0  0  0
  190.9610  175.6900  143.2450 C   0  0  0  0  0  2  0  0  0  0  0  0
  190.0620  173.3240  141.1710 C   0  0  0  0  0  3  0  0  0  0  0  0
  192.2680  174.5500  141.4320 C   0  0  2  0  0  3  0  0  0  0  0  0
  189.6890  175.5150  142.4030 C   0  0  1  0  0  3  0  0  0  0  0  0
  187.8160  173.7910  142.0110 C   0  0  0  0  0  1  0  0  0  0  0  0
  191.3490  173.5220  140.8350 C   0  0  0  0  0  3  0  0  0  0  0  0
  189.2970  174.0240  142.2670 C   0  0  1  0  0  3  0  0  0  0  0  0
  193.5900  174.1950  141.1680 O   0  0  0  0  0  1  0  0  0  0  0  0
  192.0680  174.6850  142.9320 C   0  0  0  0  0  2  0  0  0  0  0  0
  188.4670  176.4810  147.0680 C   0  0  1  0  0  3  0  0  0  0  0  0
  188.9470  175.1020  146.6110 C   0  0  0  0  0  2  0  0  0  0  0  0
  190.8180  176.8390  147.9480 C   0  0  0  0  0  0  0  0  0  0  0  0
  189.9630  174.5410  147.5960 C   0  0  0  0  0  2  0  0  0  0  0  0
  189.1620  178.7140  148.0140 C   0  0  0  0  0  1  0  0  0  0  0  0
  189.6340  177.4800  147.2550 C   0  0  2  0  0  3  0  0  0  0  0  0
  191.5430  177.4920  148.6840 O   0  0  0  0  0  0  0  0  0  0  0  0
  191.1990  175.4280  147.6210 C   0  0  0  0  0  2  0  0  0  0  0  0
  1 10  1  1  0  0  0
  1 21  1  0  0  0  0
  3  9  1  6  0  0  0
  3  5  1  0  0  0  0
  4  7  1  6  0  0  0
  4  8  1  0  0  0  0
  4 11  1  0  0  0  0
  6 10  1  0  0  0  0
  8  2  1  6  0  0  0
  8  6  1  0  0  0  0
  9  7  1  0  0  0  0
 11  5  1  6  0  0  0
 11  1  1  0  0  0  0
 13 18  1  0  0  0  0
 14 19  1  1  0  0  0
 14 20  1  0  0  0  0
 15  3  1  0  0  0  0
 15 12  1  1  0  0  0
 17 13  2  0  0  0  0
 17 14  1  0  0  0  0
 18 16  1  6  0  0  0
 18 15  1  0  0  0  0
 20 12  1  0  0  0  0
 21 22  1  6  0  0  0
 21 26  1  0  0  0  0
 22 24  1  0  0  0  0
 23 27  2  0  0  0  0
 24 28  1  0  0  0  0
 26 23  1  0  0  0  0
 26 25  1  1  0  0  0
 28 23  1  0  0  0  0
M  END
>  <MODEL>
7

>  <REMARK>
 VINA RESULT:      -7.0      2.297      5.216
  Name = 
  2 active torsions:
  status: ('A' for Active; 'I' for Inactive)
    1  A    between atoms: C_1  and  C_2
    2  A    between atoms: C_10  and  C_13
                            x       y       z     vdW  Elec       q    Type
                         _______ _______ _______ _____ _____    ______ ____

>  <TORSDO>
F 2

$$$$
=
 OpenBabel11052418063D

 28 31  0  0  1  0  0  0  0  0999 V2000
  192.7910  173.6840  142.5880 C   0  0  1  0  0  3  0  0  0  0  0  0
  191.0770  172.0150  139.0230 N   0  0  0  0  0  1  0  0  0  0  0  0
  189.5300  174.6820  142.9200 C   0  0  1  0  0  3  0  0  0  0  0  0
  190.7710  173.1050  141.1870 C   0  0  2  0  0  3  0  0  0  0  0  0
  190.5310  173.9160  143.5580 O   0  0  0  0  0  0  0  0  0  0  0  0
  193.0450  172.5770  140.3280 C   0  0  0  0  0  2  0  0  0  0  0  0
  189.2920  172.7530  141.2770 C   0  0  0  0  0  2  0  0  0  0  0  0
  191.5920  172.1030  140.3790 C   0  0  2  0  0  3  0  0  0  0  0  0
  188.5520  173.8020  142.1140 C   0  0  0  0  0  2  0  0  0  0  0  0
  193.6310  172.7300  141.7340 C   0  0  0  0  0  2  0  0  0  0  0  0
  191.3320  173.2040  142.6180 C   0  0  2  0  0  3  0  0  0  0  0  0
  189.1900  175.1480  145.3440 C   0  0  0  0  0  2  0  0  0  0  0  0
  187.8930  177.9460  144.2500 C   0  0  0  0  0  3  0  0  0  0  0  0
  187.2590  176.4850  146.2270 C   0  0  2  0  0  3  0  0  0  0  0  0
  188.8240  175.6040  143.9240 C   0  0  1  0  0  3  0  0  0  0  0  0
  189.3080  177.5450  142.3000 C   0  0  0  0  0  1  0  0  0  0  0  0
  187.1460  177.6940  145.3400 C   0  0  0  0  0  3  0  0  0  0  0  0
  189.0500  177.1250  143.7390 C   0  0  1  0  0  3  0  0  0  0  0  0
  186.6550  176.7550  147.4540 O   0  0  0  0  0  1  0  0  0  0  0  0
  188.7070  176.0830  146.4510 C   0  0  0  0  0  2  0  0  0  0  0  0
  193.4260  173.8680  143.9770 C   0  0  1  0  0  3  0  0  0  0  0  0
  194.5100  172.8060  144.1730 C   0  0  0  0  0  2  0  0  0  0  0  0
  194.8290  175.3570  145.4760 C   0  0  0  0  0  0  0  0  0  0  0  0
  195.0920  172.8960  145.5750 C   0  0  0  0  0  2  0  0  0  0  0  0
  192.7850  176.2770  144.3640 C   0  0  0  0  0  1  0  0  0  0  0  0
  193.9480  175.3000  144.2460 C   0  0  2  0  0  3  0  0  0  0  0  0
  194.8600  176.3550  146.1790 O   0  0  0  0  0  0  0  0  0  0  0  0
  195.7840  174.2380  145.7610 C   0  0  0  0  0  2  0  0  0  0  0  0
  1 10  1  6  0  0  0
  1 11  1  0  0  0  0
  1 21  1  0  0  0  0
  3  9  1  1  0  0  0
  3  5  1  0  0  0  0
  3 15  1  0  0  0  0
  4  7  1  1  0  0  0
  4 11  1  0  0  0  0
  6  8  1  0  0  0  0
  6 10  1  0  0  0  0
  7  9  1  0  0  0  0
  8  2  1  6  0  0  0
  8  4  1  0  0  0  0
 11  5  1  1  0  0  0
 12 20  1  0  0  0  0
 13 17  2  0  0  0  0
 14 20  1  0  0  0  0
 14 19  1  1  0  0  0
 15 12  1  1  0  0  0
 17 14  1  0  0  0  0
 18 16  1  6  0  0  0
 18 15  1  0  0  0  0
 18 13  1  0  0  0  0
 21 22  1  6  0  0  0
 21 26  1  0  0  0  0
 22 24  1  0  0  0  0
 23 28  1  0  0  0  0
 23 27  2  0  0  0  0
 24 28  1  0  0  0  0
 26 25  1  1  0  0  0
 26 23  1  0  0  0  0
M  END
>  <MODEL>
8

>  <REMARK>
 VINA RESULT:      -6.9      3.661      8.362
  Name = 
  2 active torsions:
  status: ('A' for Active; 'I' for Inactive)
    1  A    between atoms: C_1  and  C_2
    2  A    between atoms: C_10  and  C_13
                            x       y       z     vdW  Elec       q    Type
                         _______ _______ _______ _____ _____    ______ ____

>  <TORSDO>
F 2

$$$$
=
 OpenBabel11052418063D

 28 31  0  0  1  0  0  0  0  0999 V2000
  192.2220  174.8240  145.7300 C   0  0  1  0  0  3  0  0  0  0  0  0
  188.9640  177.3300  146.9690 N   0  0  0  0  0  1  0  0  0  0  0  0
  190.3300  174.8700  142.8730 C   0  0  1  0  0  3  0  0  0  0  0  0
  190.1490  176.1580  145.1830 C   0  0  2  0  0  3  0  0  0  0  0  0
  191.6100  175.2080  143.3670 O   0  0  0  0  0  0  0  0  0  0  0  0
  190.9380  176.0370  147.5390 C   0  0  0  0  0  2  0  0  0  0  0  0
  189.4700  176.9450  144.0700 C   0  0  0  0  0  2  0  0  0  0  0  0
  190.2790  176.9350  146.4910 C   0  0  2  0  0  3  0  0  0  0  0  0
  189.3970  176.0960  142.7960 C   0  0  0  0  0  2  0  0  0  0  0  0
  192.3130  175.5540  147.0720 C   0  0  0  0  0  2  0  0  0  0  0  0
  191.5450  175.7320  144.6910 C   0  0  2  0  0  3  0  0  0  0  0  0
  191.9070  174.1380  141.0880 C   0  0  0  0  0  2  0  0  0  0  0  0
  189.3950  172.2640  140.1460 C   0  0  0  0  0  3  0  0  0  0  0  0
  191.1620  173.4760  138.7860 C   0  0  2  0  0  3  0  0  0  0  0  0
  190.4400  174.1110  141.5430 C   0  0  1  0  0  3  0  0  0  0  0  0
  188.7050  172.4540  142.4810 C   0  0  0  0  0  1  0  0  0  0  0  0
  189.9730  172.5750  138.9720 C   0  0  0  0  0  3  0  0  0  0  0  0
  189.8630  172.6750  141.5200 C   0  0  1  0  0  3  0  0  0  0  0  0
  191.7320  173.2340  137.5370 O   0  0  0  0  0  1  0  0  0  0  0  0
  192.2050  173.2660  139.8700 C   0  0  0  0  0  2  0  0  0  0  0  0
  193.6040  174.2970  145.3040 C   0  0  1  0  0  3  0  0  0  0  0  0
  194.6850  175.0690  146.0640 C   0  0  0  0  0  2  0  0  0  0  0  0
  195.2110  172.3350  145.3180 C   0  0  0  0  0  0  0  0  0  0  0  0
  196.0690  174.6430  145.5970 C   0  0  0  0  0  2  0  0  0  0  0  0
  192.8910  172.0420  144.4270 C   0  0  0  0  0  1  0  0  0  0  0  0
  193.7650  172.7640  145.4460 C   0  0  2  0  0  3  0  0  0  0  0  0
  195.5040  171.2550  144.8300 O   0  0  0  0  0  0  0  0  0  0  0  0
  196.2930  173.1740  145.9250 C   0  0  0  0  0  2  0  0  0  0  0  0
  1 10  1  1  0  0  0
  3  9  1  6  0  0  0
  3  5  1  0  0  0  0
  4  7  1  6  0  0  0
  4  8  1  0  0  0  0
  8  2  1  1  0  0  0
  8  6  1  0  0  0  0
  9  7  1  0  0  0  0
 10  6  1  0  0  0  0
 11  5  1  6  0  0  0
 11  4  1  0  0  0  0
 11  1  1  0  0  0  0
 13 18  1  0  0  0  0
 14 19  1  6  0  0  0
 14 17  1  0  0  0  0
 14 20  1  0  0  0  0
 15 12  1  1  0  0  0
 15  3  1  0  0  0  0
 17 13  2  0  0  0  0
 18 15  1  0  0  0  0
 18 16  1  1  0  0  0
 20 12  1  0  0  0  0
 21 26  1  0  0  0  0
 21  1  1  0  0  0  0
 21 22  1  1  0  0  0
 23 26  1  0  0  0  0
 23 28  1  0  0  0  0
 24 28  1  0  0  0  0
 24 22  1  0  0  0  0
 26 25  1  6  0  0  0
 27 23  2  0  0  0  0
M  END
>  <MODEL>
9

>  <REMARK>
 VINA RESULT:      -6.8      3.776      7.332
  Name = 
  2 active torsions:
  status: ('A' for Active; 'I' for Inactive)
    1  A    between atoms: C_1  and  C_2
    2  A    between atoms: C_10  and  C_13
                            x       y       z     vdW  Elec       q    Type
                         _______ _______ _______ _____ _____    ______ ____

>  <TORSDO>
F 2

$$$$
