=
 OpenBabel11052420163D

 34 38  0  0  1  0  0  0  0  0999 V2000
  187.9890  176.7590  145.6510 C   0  0  0  0  0  0  0  0  0  0  0  0
  187.3370  175.3260  142.2070 C   0  0  0  0  0  2  0  0  0  0  0  0
  189.9840  173.1630  141.7380 C   0  0  0  0  0  0  0  0  0  0  0  0
  186.0770  176.8970  143.5940 N   0  0  0  0  0  0  0  0  0  0  0  0
  186.4480  178.2300  147.0150 C   0  0  0  0  0  3  0  0  0  0  0  0
  184.1870  178.4900  146.1270 C   0  0  0  0  0  3  0  0  0  0  0  0
  190.8080  172.4860  142.4080 O   0  0  0  0  0  0  0  0  0  0  0  0
  185.1680  178.5400  147.2290 C   0  0  0  0  0  3  0  0  0  0  0  0
  185.8450  177.5850  144.6720 C   0  0  0  0  0  0  0  0  0  0  0  0
  186.9750  177.8910  145.6380 C   0  0  2  0  0  3  0  0  0  0  0  0
  184.5160  178.0350  144.9540 N   0  0  0  0  0  0  0  0  0  0  0  0
  188.6320  175.2520  141.4090 C   0  0  0  0  0  2  0  0  0  0  0  0
  189.3880  172.5860  140.5800 N   0  0  0  0  0  1  0  0  0  0  0  0
  189.6470  174.5000  142.1390 N   0  0  0  0  0  0  0  0  0  0  0  0
  190.2010  175.0590  143.3660 C   0  0  0  0  0  2  0  0  0  0  0  0
  187.4210  176.4270  143.2590 C   0  0  1  0  0  3  0  0  0  0  0  0
  189.1930  174.9060  144.4960 C   0  0  0  0  0  2  0  0  0  0  0  0
  188.1990  176.0430  144.5130 C   0  0  0  0  0  0  0  0  0  0  0  0
  188.8340  176.5320  146.8780 C   0  0  0  0  0  2  0  0  0  0  0  0
  190.0560  177.3190  146.7910 N   0  0  0  0  0  2  0  0  0  0  0  0
  190.9700  176.7930  147.7920 C   0  0  0  0  0  2  0  0  0  0  0  0
  194.5140  176.5520  146.4620 C   0  0  0  0  0  3  0  0  0  0  0  0
  192.2090  174.9510  146.6270 C   0  0  0  0  0  3  0  0  0  0  0  0
  195.7250  173.4150  144.8860 C   0  0  0  0  0  0  0  0  0  0  0  0
  195.6990  174.7300  145.3840 C   0  0  0  0  0  3  0  0  0  0  0  0
  194.5340  175.2440  145.9610 C   0  0  0  0  0  0  0  0  0  0  0  0
  193.3990  173.1300  145.5520 C   0  0  0  0  0  3  0  0  0  0  0  0
  193.3730  174.4370  146.0460 C   0  0  0  0  0  0  0  0  0  0  0  0
  194.5690  172.6230  144.9760 C   0  0  0  0  0  3  0  0  0  0  0  0
  192.1930  176.2620  147.1240 C   0  0  0  0  0  0  0  0  0  0  0  0
  193.3460  177.0570  147.0470 C   0  0  0  0  0  3  0  0  0  0  0  0
  196.9530  172.8730  144.2720 C   0  0  0  0  0  0  0  0  0  0  0  0
  197.4710  173.4460  143.2760 O   0  0  0  0  0  0  0  0  0  0  0  0
  197.6070  171.6410  144.8090 C   0  0  0  0  0  1  0  0  0  0  0  0
  1 19  1  0  0  0  0
  3 14  1  0  0  0  0
  3  7  2  0  0  0  0
  4  9  2  0  0  0  0
  5  8  2  0  0  0  0
  6  8  1  0  0  0  0
  9 11  1  0  0  0  0
  9 10  1  0  0  0  0
 10  1  1  0  0  0  0
 10  5  1  1  0  0  0
 11  6  2  0  0  0  0
 12 14  1  0  0  0  0
 12  2  1  0  0  0  0
 13  3  1  0  0  0  0
 14 15  1  0  0  0  0
 15 17  1  0  0  0  0
 16  2  1  6  0  0  0
 16  4  1  0  0  0  0
 16 18  1  0  0  0  0
 17 18  1  0  0  0  0
 18  1  2  0  0  0  0
 20 19  1  0  0  0  0
 20 21  1  0  0  0  0
 22 31  1  0  0  0  0
 23 30  1  0  0  0  0
 24 29  1  0  0  0  0
 24 25  2  0  0  0  0
 25 26  1  0  0  0  0
 26 28  1  0  0  0  0
 26 22  2  0  0  0  0
 27 28  1  0  0  0  0
 28 23  2  0  0  0  0
 29 27  2  0  0  0  0
 30 21  1  0  0  0  0
 31 30  2  0  0  0  0
 32 34  1  0  0  0  0
 32 24  1  0  0  0  0
 33 32  2  0  0  0  0
M  END
>  <MODEL>
1

>  <REMARK>
 VINA RESULT:      -8.7      0.000      0.000
  Name = 
  5 active torsions:
  status: ('A' for Active; 'I' for Inactive)
    1  A    between atoms: C_1  and  C_9
    2  A    between atoms: C_7  and  C_11
    3  A    between atoms: N_8  and  C_9
    4  A    between atoms: N_8  and  C_18
    5  A    between atoms: C_18  and  C_30
                            x       y       z     vdW  Elec       q    Type
                         _______ _______ _______ _____ _____    ______ ____

>  <TORSDO>
F 5

$$$$
=
 OpenBabel11052420163D

 34 38  0  0  1  0  0  0  0  0999 V2000
  193.3990  173.2700  144.4730 C   0  0  0  0  0  0  0  0  0  0  0  0
  190.7040  171.2630  142.7260 C   0  0  0  0  0  2  0  0  0  0  0  0
  188.7870  173.6860  141.1910 C   0  0  0  0  0  0  0  0  0  0  0  0
  192.6460  170.5930  144.0530 N   0  0  0  0  0  0  0  0  0  0  0  0
  195.4590  172.3770  145.6380 C   0  0  0  0  0  3  0  0  0  0  0  0
  195.8920  169.9930  145.3300 C   0  0  0  0  0  3  0  0  0  0  0  0
  188.8860  174.8650  140.7570 O   0  0  0  0  0  0  0  0  0  0  0  0
  196.3260  171.3640  145.6650 C   0  0  0  0  0  3  0  0  0  0  0  0
  193.7310  170.8080  144.7350 C   0  0  0  0  0  0  0  0  0  0  0  0
  193.9900  172.1730  145.3450 C   0  0  2  0  0  3  0  0  0  0  0  0
  194.6910  169.7570  144.8910 N   0  0  0  0  0  0  0  0  0  0  0  0
  189.3480  171.9330  142.8980 C   0  0  0  0  0  2  0  0  0  0  0  0
  188.0690  172.7220  140.4260 N   0  0  0  0  0  1  0  0  0  0  0  0
  189.3930  173.3180  142.4390 N   0  0  0  0  0  0  0  0  0  0  0  0
  190.1910  174.2880  143.1810 C   0  0  0  0  0  2  0  0  0  0  0  0
  191.6320  171.6330  143.8790 C   0  0  1  0  0  3  0  0  0  0  0  0
  191.6650  174.0770  142.8730 C   0  0  0  0  0  2  0  0  0  0  0  0
  192.2720  173.0110  143.7560 C   0  0  0  0  0  0  0  0  0  0  0  0
  193.9920  174.6540  144.5160 C   0  0  0  0  0  2  0  0  0  0  0  0
  193.4280  175.4010  145.6320 N   0  0  0  0  0  2  0  0  0  0  0  0
  193.2700  176.7750  145.1840 C   0  0  0  0  0  2  0  0  0  0  0  0
  190.0120  178.0380  143.7100 C   0  0  0  0  0  3  0  0  0  0  0  0
  190.8970  176.6370  145.9800 C   0  0  0  0  0  3  0  0  0  0  0  0
  186.7880  177.3910  145.4350 C   0  0  0  0  0  0  0  0  0  0  0  0
  187.7210  177.8410  144.4840 C   0  0  0  0  0  3  0  0  0  0  0  0
  189.0860  177.5940  144.6620 C   0  0  0  0  0  0  0  0  0  0  0  0
  188.6040  176.4390  146.7490 C   0  0  0  0  0  3  0  0  0  0  0  0
  189.5310  176.8870  145.8060 C   0  0  0  0  0  0  0  0  0  0  0  0
  187.2390  176.6900  146.5640 C   0  0  0  0  0  3  0  0  0  0  0  0
  191.8200  177.0870  145.0260 C   0  0  0  0  0  0  0  0  0  0  0  0
  191.3760  177.7800  143.8900 C   0  0  0  0  0  3  0  0  0  0  0  0
  185.3460  177.6550  145.2500 C   0  0  0  0  0  0  0  0  0  0  0  0
  184.8630  177.7480  144.0900 O   0  0  0  0  0  0  0  0  0  0  0  0
  184.4340  177.8210  146.4220 C   0  0  0  0  0  1  0  0  0  0  0  0
  1 19  1  0  0  0  0
  1 10  1  0  0  0  0
  2 12  1  0  0  0  0
  3 14  1  0  0  0  0
  4  9  2  0  0  0  0
  5  8  2  0  0  0  0
  6  8  1  0  0  0  0
  7  3  2  0  0  0  0
  9 11  1  0  0  0  0
  9 10  1  0  0  0  0
 10  5  1  6  0  0  0
 11  6  2  0  0  0  0
 13  3  1  0  0  0  0
 14 12  1  0  0  0  0
 14 15  1  0  0  0  0
 16  2  1  6  0  0  0
 16  4  1  0  0  0  0
 17 15  1  0  0  0  0
 17 18  1  0  0  0  0
 18 16  1  0  0  0  0
 18  1  2  0  0  0  0
 19 20  1  0  0  0  0
 21 20  1  0  0  0  0
 22 31  2  0  0  0  0
 22 26  1  0  0  0  0
 24 29  1  0  0  0  0
 25 26  1  0  0  0  0
 25 24  2  0  0  0  0
 26 28  2  0  0  0  0
 28 23  1  0  0  0  0
 28 27  1  0  0  0  0
 29 27  2  0  0  0  0
 30 21  1  0  0  0  0
 30 23  2  0  0  0  0
 31 30  1  0  0  0  0
 32 24  1  0  0  0  0
 32 34  1  0  0  0  0
 33 32  2  0  0  0  0
M  END
>  <MODEL>
2

>  <REMARK>
 VINA RESULT:      -8.5      2.778      7.927
  Name = 
  5 active torsions:
  status: ('A' for Active; 'I' for Inactive)
    1  A    between atoms: C_1  and  C_9
    2  A    between atoms: C_7  and  C_11
    3  A    between atoms: N_8  and  C_9
    4  A    between atoms: N_8  and  C_18
    5  A    between atoms: C_18  and  C_30
                            x       y       z     vdW  Elec       q    Type
                         _______ _______ _______ _____ _____    ______ ____

>  <TORSDO>
F 5

$$$$
=
 OpenBabel11052420163D

 34 38  0  0  1  0  0  0  0  0999 V2000
  191.9250  174.7850  145.1160 C   0  0  0  0  0  0  0  0  0  0  0  0
  191.5420  173.7470  141.4950 C   0  0  0  0  0  2  0  0  0  0  0  0
  188.2550  172.7150  141.3130 C   0  0  0  0  0  0  0  0  0  0  0  0
  193.4190  174.7070  142.7350 N   0  0  0  0  0  0  0  0  0  0  0  0
  193.9020  175.9580  146.1720 C   0  0  0  0  0  3  0  0  0  0  0  0
  195.6000  176.7660  144.6120 C   0  0  0  0  0  3  0  0  0  0  0  0
  187.1530  172.8960  141.8950 O   0  0  0  0  0  0  0  0  0  0  0  0
  194.9230  176.7810  145.9240 C   0  0  0  0  0  3  0  0  0  0  0  0
  193.9970  175.2060  143.7860 C   0  0  0  0  0  0  0  0  0  0  0  0
  193.4380  174.9260  145.1690 C   0  0  2  0  0  3  0  0  0  0  0  0
  195.1510  176.0400  143.6330 N   0  0  0  0  0  0  0  0  0  0  0  0
  190.7500  172.4510  141.3950 C   0  0  0  0  0  2  0  0  0  0  0  0
  188.2880  172.6540  139.8900 N   0  0  0  0  0  1  0  0  0  0  0  0
  189.4650  172.5770  142.0740 N   0  0  0  0  0  0  0  0  0  0  0  0
  189.4380  172.7160  143.5250 C   0  0  0  0  0  2  0  0  0  0  0  0
  192.2460  173.8400  142.8450 C   0  0  1  0  0  3  0  0  0  0  0  0
  189.8440  174.1310  143.9090 C   0  0  0  0  0  2  0  0  0  0  0  0
  191.3450  174.2750  143.9960 C   0  0  0  0  0  0  0  0  0  0  0  0
  191.1070  175.0900  146.3440 C   0  0  0  0  0  2  0  0  0  0  0  0
  190.8580  176.5220  146.4320 N   0  0  0  0  0  2  0  0  0  0  0  0
  189.6670  176.6950  147.2460 C   0  0  0  0  0  2  0  0  0  0  0  0
  186.0680  176.7840  146.0520 C   0  0  0  0  0  3  0  0  0  0  0  0
  188.6340  177.3680  145.0630 C   0  0  0  0  0  3  0  0  0  0  0  0
  185.2450  177.9970  142.6400 C   0  0  0  0  0  0  0  0  0  0  0  0
  185.0980  177.4920  143.9440 C   0  0  0  0  0  3  0  0  0  0  0  0
  186.2200  177.2810  144.7510 C   0  0  0  0  0  0  0  0  0  0  0  0
  187.6590  178.0790  142.9580 C   0  0  0  0  0  3  0  0  0  0  0  0
  187.5120  177.5770  144.2530 C   0  0  0  0  0  0  0  0  0  0  0  0
  186.5310  178.2880  142.1560 C   0  0  0  0  0  3  0  0  0  0  0  0
  188.4780  176.8670  146.3630 C   0  0  0  0  0  0  0  0  0  0  0  0
  187.1960  176.5830  146.8580 C   0  0  0  0  0  3  0  0  0  0  0  0
  184.0620  178.2160  141.7850 C   0  0  0  0  0  0  0  0  0  0  0  0
  182.9200  178.3410  142.3030 O   0  0  0  0  0  0  0  0  0  0  0  0
  184.1850  178.2930  140.2980 C   0  0  0  0  0  1  0  0  0  0  0  0
  1 10  1  0  0  0  0
  1 19  1  0  0  0  0
  3  7  2  0  0  0  0
  3 14  1  0  0  0  0
  4 16  1  0  0  0  0
  4  9  2  0  0  0  0
  6  8  1  0  0  0  0
  8  5  2  0  0  0  0
  9 10  1  0  0  0  0
 10  5  1  1  0  0  0
 11  9  1  0  0  0  0
 11  6  2  0  0  0  0
 12  2  1  0  0  0  0
 12 14  1  0  0  0  0
 13  3  1  0  0  0  0
 14 15  1  0  0  0  0
 15 17  1  0  0  0  0
 16  2  1  6  0  0  0
 16 18  1  0  0  0  0
 17 18  1  0  0  0  0
 18  1  2  0  0  0  0
 19 20  1  0  0  0  0
 20 21  1  0  0  0  0
 22 31  1  0  0  0  0
 23 30  1  0  0  0  0
 24 25  2  0  0  0  0
 25 26  1  0  0  0  0
 26 22  2  0  0  0  0
 27 28  1  0  0  0  0
 28 26  1  0  0  0  0
 28 23  2  0  0  0  0
 29 24  1  0  0  0  0
 29 27  2  0  0  0  0
 30 31  2  0  0  0  0
 30 21  1  0  0  0  0
 32 33  2  0  0  0  0
 32 24  1  0  0  0  0
 34 32  1  0  0  0  0
M  END
>  <MODEL>
3

>  <REMARK>
 VINA RESULT:      -8.3      3.073      7.883
  Name = 
  5 active torsions:
  status: ('A' for Active; 'I' for Inactive)
    1  A    between atoms: C_1  and  C_9
    2  A    between atoms: C_7  and  C_11
    3  A    between atoms: N_8  and  C_9
    4  A    between atoms: N_8  and  C_18
    5  A    between atoms: C_18  and  C_30
                            x       y       z     vdW  Elec       q    Type
                         _______ _______ _______ _____ _____    ______ ____

>  <TORSDO>
F 5

$$$$
=
 OpenBabel11052420163D

 34 38  0  0  1  0  0  0  0  0999 V2000
  187.6740  177.3690  144.4620 C   0  0  0  0  0  0  0  0  0  0  0  0
  190.2910  176.8340  147.1470 C   0  0  0  0  0  2  0  0  0  0  0  0
  193.2100  176.4710  145.3440 C   0  0  0  0  0  0  0  0  0  0  0  0
  187.8890  177.2760  147.2650 N   0  0  0  0  0  0  0  0  0  0  0  0
  185.2530  178.0200  144.7930 C   0  0  0  0  0  3  0  0  0  0  0  0
  184.6380  178.6610  147.0690 C   0  0  0  0  0  3  0  0  0  0  0  0
  193.7020  176.7920  144.2290 O   0  0  0  0  0  0  0  0  0  0  0  0
  184.4120  178.6560  145.6090 C   0  0  0  0  0  3  0  0  0  0  0  0
  186.7180  177.5360  146.7640 C   0  0  0  0  0  0  0  0  0  0  0  0
  186.4230  177.2130  145.3100 C   0  0  2  0  0  3  0  0  0  0  0  0
  185.7160  178.1470  147.5830 N   0  0  0  0  0  0  0  0  0  0  0  0
  191.2570  175.7310  146.7360 C   0  0  0  0  0  2  0  0  0  0  0  0
  194.0180  176.5640  146.5130 N   0  0  0  0  0  1  0  0  0  0  0  0
  191.8490  176.0220  145.4340 N   0  0  0  0  0  0  0  0  0  0  0  0
  191.0030  176.0010  144.2460 C   0  0  0  0  0  2  0  0  0  0  0  0
  188.9390  176.6400  146.4690 C   0  0  1  0  0  3  0  0  0  0  0  0
  190.1520  177.2610  144.2040 C   0  0  0  0  0  2  0  0  0  0  0  0
  188.8890  177.1070  145.0180 C   0  0  0  0  0  0  0  0  0  0  0  0
  187.5440  177.6840  142.9950 C   0  0  0  0  0  2  0  0  0  0  0  0
  186.8460  176.6010  142.3150 N   0  0  0  0  0  2  0  0  0  0  0  0
  187.4850  176.4320  141.0210 C   0  0  0  0  0  2  0  0  0  0  0  0
  189.1840  173.3220  139.6710 C   0  0  0  0  0  3  0  0  0  0  0  0
  188.5460  174.4660  142.1580 C   0  0  0  0  0  3  0  0  0  0  0  0
  190.6300  170.8080  141.9910 C   0  0  0  0  0  0  0  0  0  0  0  0
  190.2490  171.4600  140.8040 C   0  0  0  0  0  3  0  0  0  0  0  0
  189.5560  172.6730  140.8550 C   0  0  0  0  0  0  0  0  0  0  0  0
  189.6160  172.6040  143.2870 C   0  0  0  0  0  3  0  0  0  0  0  0
  189.2360  173.2500  142.1080 C   0  0  0  0  0  0  0  0  0  0  0  0
  190.3090  171.3900  143.2280 C   0  0  0  0  0  3  0  0  0  0  0  0
  188.1730  175.1100  140.9700 C   0  0  0  0  0  0  0  0  0  0  0  0
  188.4980  174.5410  139.7300 C   0  0  0  0  0  3  0  0  0  0  0  0
  191.3580  169.5240  141.9380 C   0  0  0  0  0  0  0  0  0  0  0  0
  190.7420  168.4570  141.6740 O   0  0  0  0  0  0  0  0  0  0  0  0
  192.8280  169.4580  142.1980 C   0  0  0  0  0  1  0  0  0  0  0  0
  1 18  2  0  0  0  0
  1 10  1  0  0  0  0
  3 14  1  0  0  0  0
  3 13  1  0  0  0  0
  5  8  2  0  0  0  0
  6 11  2  0  0  0  0
  7  3  2  0  0  0  0
  8  6  1  0  0  0  0
  9  4  2  0  0  0  0
  9 11  1  0  0  0  0
 10  5  1  6  0  0  0
 10  9  1  0  0  0  0
 12  2  1  0  0  0  0
 14 12  1  0  0  0  0
 15 14  1  0  0  0  0
 16  2  1  1  0  0  0
 16  4  1  0  0  0  0
 17 15  1  0  0  0  0
 17 18  1  0  0  0  0
 18 16  1  0  0  0  0
 19  1  1  0  0  0  0
 20 19  1  0  0  0  0
 21 20  1  0  0  0  0
 22 31  2  0  0  0  0
 22 26  1  0  0  0  0
 24 29  1  0  0  0  0
 25 26  1  0  0  0  0
 25 24  2  0  0  0  0
 26 28  2  0  0  0  0
 28 23  1  0  0  0  0
 28 27  1  0  0  0  0
 29 27  2  0  0  0  0
 30 21  1  0  0  0  0
 30 23  2  0  0  0  0
 31 30  1  0  0  0  0
 32 24  1  0  0  0  0
 32 34  1  0  0  0  0
 33 32  2  0  0  0  0
M  END
>  <MODEL>
4

>  <REMARK>
 VINA RESULT:      -8.1      2.703      5.555
  Name = 
  5 active torsions:
  status: ('A' for Active; 'I' for Inactive)
    1  A    between atoms: C_1  and  C_9
    2  A    between atoms: C_7  and  C_11
    3  A    between atoms: N_8  and  C_9
    4  A    between atoms: N_8  and  C_18
    5  A    between atoms: C_18  and  C_30
                            x       y       z     vdW  Elec       q    Type
                         _______ _______ _______ _____ _____    ______ ____

>  <TORSDO>
F 5

$$$$
=
 OpenBabel11052420163D

 34 38  0  0  1  0  0  0  0  0999 V2000
  192.9330  173.9720  144.8410 C   0  0  0  0  0  0  0  0  0  0  0  0
  191.9300  173.5000  141.2200 C   0  0  0  0  0  2  0  0  0  0  0  0
  188.5000  173.8730  141.2960 C   0  0  0  0  0  0  0  0  0  0  0  0
  194.1100  173.5240  142.3270 N   0  0  0  0  0  0  0  0  0  0  0  0
  195.2790  174.1680  145.7670 C   0  0  0  0  0  3  0  0  0  0  0  0
  197.0530  174.3750  144.0990 C   0  0  0  0  0  3  0  0  0  0  0  0
  187.6040  174.4210  141.9910 O   0  0  0  0  0  0  0  0  0  0  0  0
  196.5250  174.5380  145.4690 C   0  0  0  0  0  3  0  0  0  0  0  0
  194.9070  173.6570  143.3440 C   0  0  0  0  0  0  0  0  0  0  0  0
  194.3750  173.4980  144.7560 C   0  0  2  0  0  3  0  0  0  0  0  0
  196.2860  173.9770  143.1280 N   0  0  0  0  0  0  0  0  0  0  0  0
  190.6790  172.6370  141.1240 C   0  0  0  0  0  2  0  0  0  0  0  0
  188.4130  173.9310  139.8760 N   0  0  0  0  0  1  0  0  0  0  0  0
  189.6000  173.1990  141.9290 N   0  0  0  0  0  0  0  0  0  0  0  0
  189.7260  173.2070  143.3820 C   0  0  0  0  0  2  0  0  0  0  0  0
  192.6980  173.1850  142.5000 C   0  0  1  0  0  3  0  0  0  0  0  0
  190.6900  174.3060  143.8040 C   0  0  0  0  0  2  0  0  0  0  0  0
  192.1250  173.8360  143.7550 C   0  0  0  0  0  0  0  0  0  0  0  0
  192.3880  174.4640  146.1570 C   0  0  0  0  0  2  0  0  0  0  0  0
  192.5830  175.9030  146.2680 N   0  0  0  0  0  2  0  0  0  0  0  0
  191.5600  176.3990  147.1730 C   0  0  0  0  0  2  0  0  0  0  0  0
  189.4740  177.9000  144.3840 C   0  0  0  0  0  3  0  0  0  0  0  0
  189.0830  176.6320  146.8610 C   0  0  0  0  0  3  0  0  0  0  0  0
  185.7660  177.8250  144.5550 C   0  0  0  0  0  0  0  0  0  0  0  0
  187.0720  178.0610  144.0900 C   0  0  0  0  0  3  0  0  0  0  0  0
  188.1750  177.6680  144.8530 C   0  0  0  0  0  0  0  0  0  0  0  0
  186.6810  176.7910  146.5620 C   0  0  0  0  0  3  0  0  0  0  0  0
  187.9780  177.0280  146.1010 C   0  0  0  0  0  0  0  0  0  0  0  0
  185.5810  177.1880  145.7930 C   0  0  0  0  0  3  0  0  0  0  0  0
  190.3820  176.8690  146.3890 C   0  0  0  0  0  0  0  0  0  0  0  0
  190.5750  177.4950  145.1490 C   0  0  0  0  0  3  0  0  0  0  0  0
  184.5990  178.2430  143.7520 C   0  0  0  0  0  0  0  0  0  0  0  0
  183.6580  178.8880  144.2890 O   0  0  0  0  0  0  0  0  0  0  0  0
  184.5030  177.9140  142.2980 C   0  0  0  0  0  1  0  0  0  0  0  0
  1 19  1  0  0  0  0
  3 14  1  0  0  0  0
  3  7  2  0  0  0  0
  4 16  1  0  0  0  0
  4  9  2  0  0  0  0
  6  8  1  0  0  0  0
  8  5  2  0  0  0  0
  9 10  1  0  0  0  0
 10  1  1  0  0  0  0
 10  5  1  1  0  0  0
 11  9  1  0  0  0  0
 11  6  2  0  0  0  0
 12  2  1  0  0  0  0
 12 14  1  0  0  0  0
 13  3  1  0  0  0  0
 14 15  1  0  0  0  0
 15 17  1  0  0  0  0
 16  2  1  6  0  0  0
 16 18  1  0  0  0  0
 18 17  1  0  0  0  0
 18  1  2  0  0  0  0
 19 20  1  0  0  0  0
 20 21  1  0  0  0  0
 22 26  2  0  0  0  0
 22 31  1  0  0  0  0
 24 29  1  0  0  0  0
 25 24  2  0  0  0  0
 25 26  1  0  0  0  0
 26 28  1  0  0  0  0
 28 27  1  0  0  0  0
 28 23  2  0  0  0  0
 29 27  2  0  0  0  0
 30 23  1  0  0  0  0
 30 21  1  0  0  0  0
 31 30  2  0  0  0  0
 32 33  2  0  0  0  0
 32 24  1  0  0  0  0
 34 32  1  0  0  0  0
M  END
>  <MODEL>
5

>  <REMARK>
 VINA RESULT:      -8.1      2.833      7.965
  Name = 
  5 active torsions:
  status: ('A' for Active; 'I' for Inactive)
    1  A    between atoms: C_1  and  C_9
    2  A    between atoms: C_7  and  C_11
    3  A    between atoms: N_8  and  C_9
    4  A    between atoms: N_8  and  C_18
    5  A    between atoms: C_18  and  C_30
                            x       y       z     vdW  Elec       q    Type
                         _______ _______ _______ _____ _____    ______ ____

>  <TORSDO>
F 5

$$$$
=
 OpenBabel11052420163D

 34 38  0  0  1  0  0  0  0  0999 V2000
  188.0590  177.0300  145.5130 C   0  0  0  0  0  0  0  0  0  0  0  0
  186.8300  175.7850  142.1540 C   0  0  0  0  0  2  0  0  0  0  0  0
  189.5160  173.9860  140.9480 C   0  0  0  0  0  0  0  0  0  0  0  0
  185.7470  177.0920  143.9140 N   0  0  0  0  0  0  0  0  0  0  0  0
  186.7080  178.2080  147.2970 C   0  0  0  0  0  3  0  0  0  0  0  0
  184.2940  178.2660  146.9200 C   0  0  0  0  0  3  0  0  0  0  0  0
  190.5270  173.3620  141.3680 O   0  0  0  0  0  0  0  0  0  0  0  0
  185.4790  178.3500  147.7970 C   0  0  0  0  0  3  0  0  0  0  0  0
  185.6850  177.6690  145.0770 C   0  0  0  0  0  0  0  0  0  0  0  0
  186.9590  178.0340  145.8150 C   0  0  2  0  0  3  0  0  0  0  0  0
  184.4080  177.9390  145.6670 N   0  0  0  0  0  0  0  0  0  0  0  0
  187.9250  175.9210  141.1040 C   0  0  0  0  0  2  0  0  0  0  0  0
  188.7460  173.4290  139.8870 N   0  0  0  0  0  1  0  0  0  0  0  0
  189.1420  175.2420  141.5360 N   0  0  0  0  0  0  0  0  0  0  0  0
  189.8880  175.7710  142.6720 C   0  0  0  0  0  2  0  0  0  0  0  0
  187.0280  176.8090  143.2670 C   0  0  1  0  0  3  0  0  0  0  0  0
  189.1660  175.4190  143.9630 C   0  0  0  0  0  2  0  0  0  0  0  0
  188.0900  176.4280  144.2930 C   0  0  0  0  0  0  0  0  0  0  0  0
  189.1650  176.8150  146.5130 C   0  0  0  0  0  2  0  0  0  0  0  0
  189.1030  175.4570  147.0370 N   0  0  0  0  0  2  0  0  0  0  0  0
  190.3420  175.2250  147.7600 C   0  0  0  0  0  2  0  0  0  0  0  0
  192.5890  174.1220  144.9110 C   0  0  0  0  0  3  0  0  0  0  0  0
  192.4530  176.1890  146.8100 C   0  0  0  0  0  3  0  0  0  0  0  0
  195.5770  176.1230  143.9840 C   0  0  0  0  0  0  0  0  0  0  0  0
  194.6000  175.1100  143.9820 C   0  0  0  0  0  3  0  0  0  0  0  0
  193.5630  175.1280  144.9190 C   0  0  0  0  0  0  0  0  0  0  0  0
  194.4630  177.1770  145.8770 C   0  0  0  0  0  3  0  0  0  0  0  0
  193.4940  176.1710  145.8750 C   0  0  0  0  0  0  0  0  0  0  0  0
  195.4980  177.1520  144.9360 C   0  0  0  0  0  3  0  0  0  0  0  0
  191.4820  175.1780  146.7990 C   0  0  0  0  0  0  0  0  0  0  0  0
  191.5470  174.1510  145.8460 C   0  0  0  0  0  3  0  0  0  0  0  0
  196.6760  176.1030  142.9980 C   0  0  0  0  0  0  0  0  0  0  0  0
  197.6440  176.9020  143.1120 O   0  0  0  0  0  0  0  0  0  0  0  0
  196.6680  175.1470  141.8500 C   0  0  0  0  0  1  0  0  0  0  0  0
  1 10  1  0  0  0  0
  1 19  1  0  0  0  0
  3  7  2  0  0  0  0
  3 14  1  0  0  0  0
  4  9  2  0  0  0  0
  5  8  2  0  0  0  0
  6  8  1  0  0  0  0
  9 11  1  0  0  0  0
  9 10  1  0  0  0  0
 10  5  1  1  0  0  0
 11  6  2  0  0  0  0
 12 14  1  0  0  0  0
 12  2  1  0  0  0  0
 13  3  1  0  0  0  0
 14 15  1  0  0  0  0
 15 17  1  0  0  0  0
 16  2  1  6  0  0  0
 16  4  1  0  0  0  0
 16 18  1  0  0  0  0
 17 18  1  0  0  0  0
 18  1  2  0  0  0  0
 19 20  1  0  0  0  0
 20 21  1  0  0  0  0
 22 26  2  0  0  0  0
 22 31  1  0  0  0  0
 24 29  1  0  0  0  0
 25 24  2  0  0  0  0
 25 26  1  0  0  0  0
 26 28  1  0  0  0  0
 28 27  1  0  0  0  0
 28 23  2  0  0  0  0
 29 27  2  0  0  0  0
 30 23  1  0  0  0  0
 30 21  1  0  0  0  0
 31 30  2  0  0  0  0
 32 33  2  0  0  0  0
 32 24  1  0  0  0  0
 34 32  1  0  0  0  0
M  END
>  <MODEL>
6

>  <REMARK>
 VINA RESULT:      -8.0      1.606      2.101
  Name = 
  5 active torsions:
  status: ('A' for Active; 'I' for Inactive)
    1  A    between atoms: C_1  and  C_9
    2  A    between atoms: C_7  and  C_11
    3  A    between atoms: N_8  and  C_9
    4  A    between atoms: N_8  and  C_18
    5  A    between atoms: C_18  and  C_30
                            x       y       z     vdW  Elec       q    Type
                         _______ _______ _______ _____ _____    ______ ____

>  <TORSDO>
F 5

$$$$
=
 OpenBabel11052420163D

 34 38  0  0  1  0  0  0  0  0999 V2000
  191.8350  174.1020  144.3950 C   0  0  0  0  0  0  0  0  0  0  0  0
  194.5950  172.3280  142.5040 C   0  0  0  0  0  2  0  0  0  0  0  0
  197.0590  171.9370  144.8870 C   0  0  0  0  0  0  0  0  0  0  0  0
  192.3510  173.0400  141.8430 N   0  0  0  0  0  0  0  0  0  0  0  0
  189.4850  174.5770  143.5860 C   0  0  0  0  0  3  0  0  0  0  0  0
  188.8600  173.5020  141.4830 C   0  0  0  0  0  3  0  0  0  0  0  0
  197.1890  171.8640  146.1380 O   0  0  0  0  0  0  0  0  0  0  0  0
  188.5240  174.1510  142.7660 C   0  0  0  0  0  3  0  0  0  0  0  0
  191.1770  173.5590  142.0470 C   0  0  0  0  0  0  0  0  0  0  0  0
  190.9510  174.4930  143.2210 C   0  0  2  0  0  3  0  0  0  0  0  0
  190.0920  173.2260  141.1740 N   0  0  0  0  0  0  0  0  0  0  0  0
  195.9500  172.9220  142.8610 C   0  0  0  0  0  2  0  0  0  0  0  0
  197.8090  171.0550  144.0570 N   0  0  0  0  0  1  0  0  0  0  0  0
  196.1620  172.8950  144.3050 N   0  0  0  0  0  0  0  0  0  0  0  0
  195.3400  173.7440  145.1600 C   0  0  0  0  0  2  0  0  0  0  0  0
  193.4900  173.3610  142.7020 C   0  0  1  0  0  3  0  0  0  0  0  0
  193.9510  173.1380  145.2950 C   0  0  0  0  0  2  0  0  0  0  0  0
  193.0520  173.5460  144.1510 C   0  0  0  0  0  0  0  0  0  0  0  0
  191.4080  174.4530  145.7960 C   0  0  0  0  0  2  0  0  0  0  0  0
  192.0340  175.7030  146.2070 N   0  0  0  0  0  2  0  0  0  0  0  0
  191.0840  176.3880  147.0680 C   0  0  0  0  0  2  0  0  0  0  0  0
  189.1610  178.0920  144.2790 C   0  0  0  0  0  3  0  0  0  0  0  0
  188.6300  176.6260  146.6170 C   0  0  0  0  0  3  0  0  0  0  0  0
  185.4500  177.9750  144.2050 C   0  0  0  0  0  0  0  0  0  0  0  0
  186.7800  178.2580  143.8450 C   0  0  0  0  0  3  0  0  0  0  0  0
  187.8380  177.8140  144.6430 C   0  0  0  0  0  0  0  0  0  0  0  0
  186.2490  176.7910  146.1780 C   0  0  0  0  0  3  0  0  0  0  0  0
  187.5690  177.0740  145.8210 C   0  0  0  0  0  0  0  0  0  0  0  0
  185.1950  177.2400  145.3730 C   0  0  0  0  0  3  0  0  0  0  0  0
  189.9520  176.9100  146.2490 C   0  0  0  0  0  0  0  0  0  0  0  0
  190.2160  177.6360  145.0780 C   0  0  0  0  0  3  0  0  0  0  0  0
  184.3310  178.4480  143.3640 C   0  0  0  0  0  0  0  0  0  0  0  0
  183.3510  179.0410  143.8890 O   0  0  0  0  0  0  0  0  0  0  0  0
  184.3310  178.2350  141.8850 C   0  0  0  0  0  1  0  0  0  0  0  0
  1 19  1  0  0  0  0
  2 12  1  0  0  0  0
  3  7  2  0  0  0  0
  4  9  2  0  0  0  0
  4 16  1  0  0  0  0
  6  8  1  0  0  0  0
  8  5  2  0  0  0  0
  9 10  1  0  0  0  0
 10  5  1  1  0  0  0
 10  1  1  0  0  0  0
 11  6  2  0  0  0  0
 11  9  1  0  0  0  0
 12 14  1  0  0  0  0
 13  3  1  0  0  0  0
 14  3  1  0  0  0  0
 14 15  1  0  0  0  0
 15 17  1  0  0  0  0
 16  2  1  1  0  0  0
 16 18  1  0  0  0  0
 18  1  2  0  0  0  0
 18 17  1  0  0  0  0
 19 20  1  0  0  0  0
 20 21  1  0  0  0  0
 22 26  2  0  0  0  0
 22 31  1  0  0  0  0
 24 29  1  0  0  0  0
 25 24  2  0  0  0  0
 25 26  1  0  0  0  0
 26 28  1  0  0  0  0
 28 27  1  0  0  0  0
 28 23  2  0  0  0  0
 29 27  2  0  0  0  0
 30 23  1  0  0  0  0
 30 21  1  0  0  0  0
 31 30  2  0  0  0  0
 32 33  2  0  0  0  0
 32 24  1  0  0  0  0
 34 32  1  0  0  0  0
M  END
>  <MODEL>
7

>  <REMARK>
 VINA RESULT:      -8.0      3.121      7.909
  Name = 
  5 active torsions:
  status: ('A' for Active; 'I' for Inactive)
    1  A    between atoms: C_1  and  C_9
    2  A    between atoms: C_7  and  C_11
    3  A    between atoms: N_8  and  C_9
    4  A    between atoms: N_8  and  C_18
    5  A    between atoms: C_18  and  C_30
                            x       y       z     vdW  Elec       q    Type
                         _______ _______ _______ _____ _____    ______ ____

>  <TORSDO>
F 5

$$$$
=
 OpenBabel11052420163D

 34 38  0  0  1  0  0  0  0  0999 V2000
  194.3150  174.3360  143.4230 C   0  0  0  0  0  0  0  0  0  0  0  0
  196.8890  176.2630  141.4230 C   0  0  0  0  0  2  0  0  0  0  0  0
  196.9050  174.6350  138.3810 C   0  0  0  0  0  0  0  0  0  0  0  0
  196.0020  176.5710  143.6810 N   0  0  0  0  0  0  0  0  0  0  0  0
  193.3760  174.9390  145.6930 C   0  0  0  0  0  3  0  0  0  0  0  0
  193.9800  177.1540  146.5260 C   0  0  0  0  0  3  0  0  0  0  0  0
  196.1550  173.9190  137.6650 O   0  0  0  0  0  0  0  0  0  0  0  0
  193.1150  175.9580  146.5130 C   0  0  0  0  0  3  0  0  0  0  0  0
  195.2240  176.2920  144.6830 C   0  0  0  0  0  0  0  0  0  0  0  0
  194.5960  174.9150  144.8000 C   0  0  2  0  0  3  0  0  0  0  0  0
  194.9430  177.2960  145.6650 N   0  0  0  0  0  0  0  0  0  0  0  0
  197.7760  175.3070  140.6370 C   0  0  0  0  0  2  0  0  0  0  0  0
  197.6850  175.6570  137.7670 N   0  0  0  0  0  1  0  0  0  0  0  0
  196.9700  174.4240  139.8000 N   0  0  0  0  0  0  0  0  0  0  0  0
  196.1140  173.4280  140.4330 C   0  0  0  0  0  2  0  0  0  0  0  0
  196.3260  175.5740  142.6610 C   0  0  1  0  0  3  0  0  0  0  0  0
  194.8790  174.1070  141.0050 C   0  0  0  0  0  2  0  0  0  0  0  0
  195.1370  174.6590  142.3880 C   0  0  0  0  0  0  0  0  0  0  0  0
  193.2170  173.3180  143.2550 C   0  0  0  0  0  2  0  0  0  0  0  0
  191.9810  173.9830  142.8620 N   0  0  0  0  0  2  0  0  0  0  0  0
  190.8860  173.1860  143.3910 C   0  0  0  0  0  2  0  0  0  0  0  0
  189.3040  174.5700  146.5480 C   0  0  0  0  0  3  0  0  0  0  0  0
  189.3190  175.1020  143.7880 C   0  0  0  0  0  3  0  0  0  0  0  0
  187.0930  177.5490  146.3970 C   0  0  0  0  0  0  0  0  0  0  0  0
  187.8290  176.4630  146.9020 C   0  0  0  0  0  3  0  0  0  0  0  0
  188.5680  175.6470  146.0400 C   0  0  0  0  0  0  0  0  0  0  0  0
  187.8460  176.9960  144.1470 C   0  0  0  0  0  3  0  0  0  0  0  0
  188.5760  175.9170  144.6490 C   0  0  0  0  0  0  0  0  0  0  0  0
  187.1090  177.8080  145.0170 C   0  0  0  0  0  3  0  0  0  0  0  0
  190.0520  174.0220  144.3010 C   0  0  0  0  0  0  0  0  0  0  0  0
  190.0490  173.7630  145.6790 C   0  0  0  0  0  3  0  0  0  0  0  0
  186.3090  178.4090  147.3060 C   0  0  0  0  0  0  0  0  0  0  0  0
  186.8930  179.1090  148.1770 O   0  0  0  0  0  0  0  0  0  0  0  0
  184.8180  178.4680  147.2210 C   0  0  0  0  0  1  0  0  0  0  0  0
  1 10  1  0  0  0  0
  3 14  1  0  0  0  0
  4  9  2  0  0  0  0
  5  8  2  0  0  0  0
  7  3  2  0  0  0  0
  8  6  1  0  0  0  0
  9 10  1  0  0  0  0
  9 11  1  0  0  0  0
 10  5  1  1  0  0  0
 11  6  2  0  0  0  0
 12  2  1  0  0  0  0
 13  3  1  0  0  0  0
 14 15  1  0  0  0  0
 14 12  1  0  0  0  0
 15 17  1  0  0  0  0
 16  2  1  6  0  0  0
 16  4  1  0  0  0  0
 17 18  1  0  0  0  0
 18 16  1  0  0  0  0
 18  1  2  0  0  0  0
 19  1  1  0  0  0  0
 20 19  1  0  0  0  0
 20 21  1  0  0  0  0
 21 30  1  0  0  0  0
 23 30  2  0  0  0  0
 23 28  1  0  0  0  0
 24 25  1  0  0  0  0
 24 32  1  0  0  0  0
 26 22  1  0  0  0  0
 26 25  2  0  0  0  0
 27 28  2  0  0  0  0
 27 29  1  0  0  0  0
 28 26  1  0  0  0  0
 29 24  2  0  0  0  0
 30 31  1  0  0  0  0
 31 22  2  0  0  0  0
 32 33  2  0  0  0  0
 34 32  1  0  0  0  0
M  END
>  <MODEL>
8

>  <REMARK>
 VINA RESULT:      -7.9      3.868      8.391
  Name = 
  5 active torsions:
  status: ('A' for Active; 'I' for Inactive)
    1  A    between atoms: C_1  and  C_9
    2  A    between atoms: C_7  and  C_11
    3  A    between atoms: N_8  and  C_9
    4  A    between atoms: N_8  and  C_18
    5  A    between atoms: C_18  and  C_30
                            x       y       z     vdW  Elec       q    Type
                         _______ _______ _______ _____ _____    ______ ____

>  <TORSDO>
F 5

$$$$
=
 OpenBabel11052420163D

 34 38  0  0  1  0  0  0  0  0999 V2000
  192.7850  173.2980  143.6320 C   0  0  0  0  0  0  0  0  0  0  0  0
  193.0700  169.6370  144.5610 C   0  0  0  0  0  2  0  0  0  0  0  0
  196.0470  169.4940  146.2990 C   0  0  0  0  0  0  0  0  0  0  0  0
  191.3350  170.9010  143.3890 N   0  0  0  0  0  0  0  0  0  0  0  0
  190.7970  174.4620  142.5880 C   0  0  0  0  0  3  0  0  0  0  0  0
  188.7520  173.1310  142.4510 C   0  0  0  0  0  3  0  0  0  0  0  0
  196.8070  170.2370  146.9760 O   0  0  0  0  0  0  0  0  0  0  0  0
  189.4700  174.4220  142.4660 C   0  0  0  0  0  3  0  0  0  0  0  0
  190.7890  171.9800  142.9140 C   0  0  0  0  0  0  0  0  0  0  0  0
  191.6390  173.2060  142.6380 C   0  0  2  0  0  3  0  0  0  0  0  0
  189.3780  172.0140  142.6720 N   0  0  0  0  0  0  0  0  0  0  0  0
  194.4970  169.1470  144.3550 C   0  0  0  0  0  2  0  0  0  0  0  0
  195.7930  168.1660  146.7480 N   0  0  0  0  0  1  0  0  0  0  0  0
  195.4410  169.9810  145.0920 N   0  0  0  0  0  0  0  0  0  0  0  0
  195.6440  171.3640  144.6770 C   0  0  0  0  0  2  0  0  0  0  0  0
  192.7730  170.8160  143.6400 C   0  0  1  0  0  3  0  0  0  0  0  0
  194.4600  172.2090  145.1240 C   0  0  0  0  0  2  0  0  0  0  0  0
  193.3260  172.1510  144.1280 C   0  0  0  0  0  0  0  0  0  0  0  0
  193.3850  174.6420  143.9540 C   0  0  0  0  0  2  0  0  0  0  0  0
  192.7800  175.1780  145.1660 N   0  0  0  0  0  2  0  0  0  0  0  0
  192.6870  176.6180  144.9900 C   0  0  0  0  0  2  0  0  0  0  0  0
  189.4400  178.1120  143.7220 C   0  0  0  0  0  3  0  0  0  0  0  0
  190.3580  176.6140  145.9160 C   0  0  0  0  0  3  0  0  0  0  0  0
  186.2810  177.6350  145.6150 C   0  0  0  0  0  0  0  0  0  0  0  0
  187.1880  178.0430  144.6210 C   0  0  0  0  0  3  0  0  0  0  0  0
  188.5420  177.7080  144.7180 C   0  0  0  0  0  0  0  0  0  0  0  0
  188.1030  176.5440  146.8100 C   0  0  0  0  0  3  0  0  0  0  0  0
  189.0030  176.9520  145.8230 C   0  0  0  0  0  0  0  0  0  0  0  0
  186.7490  176.8840  146.7060 C   0  0  0  0  0  3  0  0  0  0  0  0
  191.2540  177.0230  144.9190 C   0  0  0  0  0  0  0  0  0  0  0  0
  190.7930  177.7650  143.8210 C   0  0  0  0  0  3  0  0  0  0  0  0
  184.8520  177.9920  145.5160 C   0  0  0  0  0  0  0  0  0  0  0  0
  184.0670  177.7330  146.4680 O   0  0  0  0  0  0  0  0  0  0  0  0
  184.3040  178.6600  144.2970 C   0  0  0  0  0  1  0  0  0  0  0  0
  1 19  1  0  0  0  0
  1 18  2  0  0  0  0
  3 13  1  0  0  0  0
  3  7  2  0  0  0  0
  4 16  1  0  0  0  0
  6  8  1  0  0  0  0
  6 11  2  0  0  0  0
  8  5  2  0  0  0  0
  9  4  2  0  0  0  0
 10  5  1  1  0  0  0
 10  9  1  0  0  0  0
 10  1  1  0  0  0  0
 11  9  1  0  0  0  0
 12  2  1  0  0  0  0
 12 14  1  0  0  0  0
 14  3  1  0  0  0  0
 15 14  1  0  0  0  0
 15 17  1  0  0  0  0
 16 18  1  0  0  0  0
 16  2  1  1  0  0  0
 18 17  1  0  0  0  0
 19 20  1  0  0  0  0
 21 20  1  0  0  0  0
 22 31  2  0  0  0  0
 22 26  1  0  0  0  0
 24 29  1  0  0  0  0
 25 26  1  0  0  0  0
 25 24  2  0  0  0  0
 26 28  2  0  0  0  0
 28 23  1  0  0  0  0
 28 27  1  0  0  0  0
 29 27  2  0  0  0  0
 30 21  1  0  0  0  0
 30 23  2  0  0  0  0
 31 30  1  0  0  0  0
 32 24  1  0  0  0  0
 32 33  2  0  0  0  0
 34 32  1  0  0  0  0
M  END
>  <MODEL>
9

>  <REMARK>
 VINA RESULT:      -7.6      3.503      8.041
  Name = 
  5 active torsions:
  status: ('A' for Active; 'I' for Inactive)
    1  A    between atoms: C_1  and  C_9
    2  A    between atoms: C_7  and  C_11
    3  A    between atoms: N_8  and  C_9
    4  A    between atoms: N_8  and  C_18
    5  A    between atoms: C_18  and  C_30
                            x       y       z     vdW  Elec       q    Type
                         _______ _______ _______ _____ _____    ______ ____

>  <TORSDO>
F 5

$$$$
