=
 OpenBabel11052419393D

 55 59  0  0  1  0  0  0  0  0999 V2000
  187.8800  175.2830  140.3650 C   0  0  0  0  0  2  0  0  0  0  0  0
  186.1520  178.2620  142.0710 C   0  0  0  0  0  2  0  0  0  0  0  0
  188.6130  176.8540  142.2100 C   0  0  1  0  0  3  0  0  0  0  0  0
  188.1690  177.7030  143.2420 O   0  0  0  0  0  0  0  0  0  0  0  0
  189.5590  174.4520  142.1420 C   0  0  2  0  0  3  0  0  0  0  0  0
  189.1930  174.5430  140.6530 C   0  0  1  0  0  3  0  0  0  0  0  0
  188.6340  173.6710  142.8370 O   0  0  0  0  0  1  0  0  0  0  0  0
  186.4330  177.2030  141.0080 C   0  0  0  0  0  2  0  0  0  0  0  0
  187.4810  178.7650  142.6290 C   0  0  0  0  0  2  0  0  0  0  0  0
  189.6270  175.8440  142.7800 C   0  0  1  0  0  3  0  0  0  0  0  0
  187.4170  176.1580  141.5300 C   0  0  1  0  0  3  0  0  0  0  0  0
  188.4680  172.3390  140.1510 O   0  0  0  0  0  0  0  0  0  0  0  0
  189.3240  173.2350  139.9240 C   0  0  0  0  0  0  0  0  0  0  0  0
  192.2800  174.0820  138.1930 O   0  0  0  0  0  0  0  0  0  0  0  0
  190.3280  173.0160  138.9170 N   0  0  0  0  0  0  0  0  0  0  0  0
  191.6940  173.4380  139.1060 C   0  0  0  0  0  0  0  0  0  0  0  0
  190.8090  171.2780  137.2460 C   0  0  0  0  0  3  0  0  0  0  0  0
  190.8750  170.8970  135.9670 C   0  0  0  0  0  3  0  0  0  0  0  0
  189.7850  173.4700  136.5440 C   0  0  0  0  0  2  0  0  0  0  0  0
  189.5760  172.8200  135.2030 C   0  0  0  0  0  3  0  0  0  0  0  0
  190.1240  171.6320  134.9300 C   0  0  0  0  0  3  0  0  0  0  0  0
  189.9030  172.4140  137.6520 C   0  0  2  0  0  3  0  0  0  0  0  0
  192.4410  173.0450  140.3180 C   0  0  0  0  0  0  0  0  0  0  0  0
  191.9970  172.0990  141.0240 O   0  0  0  0  0  0  0  0  0  0  0  0
  195.2040  171.5550  139.9390 Cl  0  0  0  0  0  0  0  0  0  0  0  0
  193.5760  175.0450  141.2560 C   0  0  0  0  0  3  0  0  0  0  0  0
  194.7080  175.7290  141.6970 C   0  0  0  0  0  3  0  0  0  0  0  0
  194.9550  173.1460  140.6390 C   0  0  0  0  0  0  0  0  0  0  0  0
  196.0840  173.8410  141.0760 C   0  0  0  0  0  3  0  0  0  0  0  0
  195.9680  175.1250  141.6260 C   0  0  0  0  0  0  0  0  0  0  0  0
  193.6780  173.7490  140.7290 C   0  0  0  0  0  0  0  0  0  0  0  0
  197.1840  175.8790  142.0630 C   0  0  1  0  0  3  0  0  0  0  0  0
  196.8460  176.8300  143.1230 C   0  0  0  0  0  2  0  0  0  0  0  0
  197.5010  175.5610  143.4670 N   0  0  0  0  0  2  0  0  0  0  0  0
  190.9420  176.3670  142.6550 O   0  0  0  0  0  0  0  0  0  0  0  0
  191.4790  177.2280  143.6110 C   0  0  0  0  0  0  0  0  0  0  0  0
  191.3800  178.4720  143.4480 O   0  0  0  0  0  0  0  0  0  0  0  0
  192.1370  176.7110  144.7310 O   0  0  0  0  0  0  0  0  0  0  0  0
  192.5650  175.3600  144.8040 C   0  0  1  0  0  3  0  0  0  0  0  0
  194.3110  176.1070  146.2960 O   0  0  0  0  0  1  0  0  0  0  0  0
  194.0540  175.3200  145.1670 C   0  0  1  0  0  3  0  0  0  0  0  0
  194.5260  173.8930  145.3950 C   0  0  0  0  0  2  0  0  0  0  0  0
  194.4350  173.1700  144.2060 O   0  0  0  0  0  1  0  0  0  0  0  0
  191.6960  174.6170  145.8130 C   0  0  0  0  0  2  0  0  0  0  0  0
  191.4020  175.3960  148.1490 C   0  0  0  0  0  1  0  0  0  0  0  0
  190.9370  175.5820  146.7130 C   0  0  2  0  0  3  0  0  0  0  0  0
  189.4300  175.3340  146.6030 C   0  0  1  0  0  3  0  0  0  0  0  0
  189.0390  174.2610  147.4170 O   0  0  0  0  0  1  0  0  0  0  0  0
  189.2700  177.5870  146.2980 O   0  0  0  0  0  1  0  0  0  0  0  0
  188.6620  176.5460  146.9190 N   0  0  0  0  0  0  0  0  0  0  0  0
  187.3110  176.4500  146.3770 C   0  0  0  0  0  2  0  0  0  0  0  0
  186.5080  177.4400  146.9460 O   0  0  0  0  0  0  0  0  0  0  0  0
  185.4360  177.5680  146.0610 C   0  0  0  0  0  2  0  0  0  0  0  0
  184.0880  178.9930  145.0570 C   0  0  0  0  0  1  0  0  0  0  0  0
  185.3660  178.8820  145.6010 O   0  0  0  0  0  0  0  0  0  0  0  0
  1  6  1  0  0  0  0
  2  9  1  0  0  0  0
  3 10  1  0  0  0  0
  3  4  1  1  0  0  0
  5 10  1  0  0  0  0
  5  7  1  1  0  0  0
  6 13  1  1  0  0  0
  6  5  1  0  0  0  0
  8 11  1  0  0  0  0
  8  2  1  0  0  0  0
  9  4  1  0  0  0  0
 10 35  1  6  0  0  0
 11  1  1  6  0  0  0
 11  3  1  0  0  0  0
 13 12  2  0  0  0  0
 14 16  2  0  0  0  0
 15 16  1  0  0  0  0
 15 13  1  0  0  0  0
 16 23  1  0  0  0  0
 17 22  1  0  0  0  0
 18 17  2  0  0  0  0
 19 22  1  0  0  0  0
 20 19  1  0  0  0  0
 21 20  2  0  0  0  0
 21 18  1  0  0  0  0
 22 15  1  1  0  0  0
 23 31  1  0  0  0  0
 23 24  2  0  0  0  0
 25 28  1  0  0  0  0
 26 27  1  0  0  0  0
 28 31  1  0  0  0  0
 28 29  2  0  0  0  0
 29 30  1  0  0  0  0
 30 27  2  0  0  0  0
 31 26  2  0  0  0  0
 32 30  1  1  0  0  0
 32 33  1  0  0  0  0
 32 34  1  0  0  0  0
 33 34  1  0  0  0  0
 35 36  1  0  0  0  0
 36 38  1  0  0  0  0
 37 36  2  0  0  0  0
 38 39  1  0  0  0  0
 39 41  1  0  0  0  0
 39 44  1  1  0  0  0
 41 42  1  0  0  0  0
 41 40  1  1  0  0  0
 43 42  1  0  0  0  0
 44 46  1  0  0  0  0
 46 45  1  1  0  0  0
 47 46  1  0  0  0  0
 47 50  1  0  0  0  0
 47 48  1  1  0  0  0
 49 50  1  0  0  0  0
 51 50  1  0  0  0  0
 51 52  1  0  0  0  0
 53 52  1  0  0  0  0
 54 55  1  0  0  0  0
 55 53  1  0  0  0  0
M  END
>  <MODEL>
1

>  <REMARK>
 VINA RESULT:      -6.3      0.000      0.000
  Name = 
  19 active torsions:
  status: ('A' for Active; 'I' for Inactive)
    1  A    between atoms: C_1  and  C_21
    2  A    between atoms: C_1  and  N_53
    3  A    between atoms: C_3  and  O_25
    4  A    between atoms: C_3  and  O_38
    5  A    between atoms: C_6  and  C_14
    6  A    between atoms: C_6  and  O_22
    7  A    between atoms: C_6  and  C_46
    8  A    between atoms: C_8  and  O_22
    9  A    between atoms: C_8  and  O_54
   10  A    between atoms: C_10  and  C_48
   11  A    between atoms: C_14  and  C_20
   12  A    between atoms: C_19  and  C_37
   13  A    between atoms: C_21  and  C_46
   14  A    between atoms: C_26  and  N_45
   15  A    between atoms: C_29  and  O_38
   16  A    between atoms: C_29  and  N_53
   17  A    between atoms: C_33  and  C_49
   18  A    between atoms: C_33  and  C_52
   19  A    between atoms: C_51  and  O_54
                            x       y       z     vdW  Elec       q    Type
                         _______ _______ _______ _____ _____    ______ ____

>  <TORSDO>
F 19

$$$$
=
 OpenBabel11052419393D

 55 59  0  0  1  0  0  0  0  0999 V2000
  188.5690  174.6870  140.6570 C   0  0  0  0  0  2  0  0  0  0  0  0
  186.3520  177.7790  141.2020 C   0  0  0  0  0  2  0  0  0  0  0  0
  188.8730  176.7820  142.0460 C   0  0  1  0  0  3  0  0  0  0  0  0
  188.2040  177.8190  142.7250 O   0  0  0  0  0  0  0  0  0  0  0  0
  190.0170  174.5900  142.7920 C   0  0  2  0  0  3  0  0  0  0  0  0
  189.8800  174.2240  141.3070 C   0  0  1  0  0  3  0  0  0  0  0  0
  189.0660  173.9200  143.5630 O   0  0  0  0  0  1  0  0  0  0  0  0
  186.8830  176.5140  140.5330 C   0  0  0  0  0  2  0  0  0  0  0  0
  187.5320  178.5780  141.7520 C   0  0  0  0  0  2  0  0  0  0  0  0
  189.8690  176.1010  143.0050 C   0  0  1  0  0  3  0  0  0  0  0  0
  187.8590  175.7820  141.4530 C   0  0  1  0  0  3  0  0  0  0  0  0
  189.4110  171.8970  141.3400 O   0  0  0  0  0  0  0  0  0  0  0  0
  190.2310  172.7940  141.0090 C   0  0  0  0  0  0  0  0  0  0  0  0
  193.3930  173.4870  139.6020 O   0  0  0  0  0  0  0  0  0  0  0  0
  191.4170  172.4320  140.2780 N   0  0  0  0  0  0  0  0  0  0  0  0
  192.6920  173.0450  140.5550 C   0  0  0  0  0  0  0  0  0  0  0  0
  190.1150  171.8150  138.2870 C   0  0  0  0  0  3  0  0  0  0  0  0
  189.5500  170.8730  137.5260 C   0  0  0  0  0  3  0  0  0  0  0  0
  191.1740  170.0330  139.7170 C   0  0  0  0  0  2  0  0  0  0  0  0
  190.7990  169.0780  138.6160 C   0  0  0  0  0  3  0  0  0  0  0  0
  190.0060  169.4710  137.6140 C   0  0  0  0  0  3  0  0  0  0  0  0
  191.2760  171.4690  139.1840 C   0  0  2  0  0  3  0  0  0  0  0  0
  193.2260  173.0800  141.9320 C   0  0  0  0  0  0  0  0  0  0  0  0
  193.4690  174.1990  142.4600 O   0  0  0  0  0  0  0  0  0  0  0  0
  196.0470  171.6980  141.5640 Cl  0  0  0  0  0  0  0  0  0  0  0  0
  192.5080  171.3290  143.5400 C   0  0  0  0  0  3  0  0  0  0  0  0
  192.7040  170.1380  144.2380 C   0  0  0  0  0  3  0  0  0  0  0  0
  194.7150  171.1230  142.5540 C   0  0  0  0  0  0  0  0  0  0  0  0
  194.9060  169.9340  143.2620 C   0  0  0  0  0  3  0  0  0  0  0  0
  193.8980  169.4240  144.0900 C   0  0  0  0  0  0  0  0  0  0  0  0
  193.5000  171.8360  142.6880 C   0  0  0  0  0  0  0  0  0  0  0  0
  194.1180  168.1670  144.8730 C   0  0  1  0  0  3  0  0  0  0  0  0
  195.4500  168.1660  145.4780 C   0  0  0  0  0  2  0  0  0  0  0  0
  194.2770  168.4820  146.3040 N   0  0  0  0  0  2  0  0  0  0  0  0
  191.1380  176.7300  142.8980 O   0  0  0  0  0  0  0  0  0  0  0  0
  191.7190  177.3900  143.9790 C   0  0  0  0  0  0  0  0  0  0  0  0
  191.0210  178.1800  144.6680 O   0  0  0  0  0  0  0  0  0  0  0  0
  193.0670  177.1880  144.2840 O   0  0  0  0  0  0  0  0  0  0  0  0
  193.4950  176.2240  145.2340 C   0  0  1  0  0  3  0  0  0  0  0  0
  195.5060  175.1220  145.9950 O   0  0  0  0  0  1  0  0  0  0  0  0
  195.0240  176.2650  145.3440 C   0  0  1  0  0  3  0  0  0  0  0  0
  195.6700  176.4100  143.9760 C   0  0  0  0  0  2  0  0  0  0  0  0
  196.5430  175.3460  143.7510 O   0  0  0  0  0  1  0  0  0  0  0  0
  192.8050  176.4990  146.5660 C   0  0  0  0  0  2  0  0  0  0  0  0
  191.8730  174.2950  145.9160 C   0  0  0  0  0  1  0  0  0  0  0  0
  192.0430  175.2790  147.0620 C   0  0  2  0  0  3  0  0  0  0  0  0
  190.6780  175.6970  147.6150 C   0  0  1  0  0  3  0  0  0  0  0  0
  190.5890  177.0930  147.7260 O   0  0  0  0  0  1  0  0  0  0  0  0
  188.9130  174.2570  147.5570 O   0  0  0  0  0  1  0  0  0  0  0  0
  189.5800  175.1600  146.7990 N   0  0  0  0  0  0  0  0  0  0  0  0
  188.6350  176.2170  146.4550 C   0  0  0  0  0  2  0  0  0  0  0  0
  187.4620  176.0530  147.1920 O   0  0  0  0  0  0  0  0  0  0  0  0
  186.5440  176.9060  146.5780 C   0  0  0  0  0  2  0  0  0  0  0  0
  185.5530  178.6900  147.4090 C   0  0  0  0  0  1  0  0  0  0  0  0
  186.7900  178.2200  146.9760 O   0  0  0  0  0  0  0  0  0  0  0  0
  1  6  1  0  0  0  0
  1 11  1  0  0  0  0
  2  9  1  0  0  0  0
  3  4  1  1  0  0  0
  3 10  1  0  0  0  0
  5 10  1  0  0  0  0
  5  7  1  1  0  0  0
  6 13  1  1  0  0  0
  6  5  1  0  0  0  0
  8  2  1  0  0  0  0
  9  4  1  0  0  0  0
 10 35  1  6  0  0  0
 11  8  1  6  0  0  0
 11  3  1  0  0  0  0
 13 12  2  0  0  0  0
 14 16  2  0  0  0  0
 15 16  1  0  0  0  0
 15 13  1  0  0  0  0
 16 23  1  0  0  0  0
 17 22  1  0  0  0  0
 18 21  1  0  0  0  0
 18 17  2  0  0  0  0
 20 19  1  0  0  0  0
 21 20  2  0  0  0  0
 22 19  1  0  0  0  0
 22 15  1  1  0  0  0
 23 24  2  0  0  0  0
 23 31  1  0  0  0  0
 25 28  1  0  0  0  0
 26 27  1  0  0  0  0
 28 31  1  0  0  0  0
 28 29  2  0  0  0  0
 29 30  1  0  0  0  0
 30 27  2  0  0  0  0
 31 26  2  0  0  0  0
 32 30  1  6  0  0  0
 32 33  1  0  0  0  0
 32 34  1  0  0  0  0
 33 34  1  0  0  0  0
 35 36  1  0  0  0  0
 36 38  1  0  0  0  0
 36 37  2  0  0  0  0
 38 39  1  0  0  0  0
 39 41  1  0  0  0  0
 39 44  1  1  0  0  0
 41 40  1  6  0  0  0
 42 41  1  0  0  0  0
 43 42  1  0  0  0  0
 44 46  1  0  0  0  0
 46 45  1  6  0  0  0
 46 47  1  0  0  0  0
 47 48  1  6  0  0  0
 50 49  1  0  0  0  0
 50 47  1  0  0  0  0
 51 50  1  0  0  0  0
 51 52  1  0  0  0  0
 53 55  1  0  0  0  0
 53 52  1  0  0  0  0
 55 54  1  0  0  0  0
M  END
>  <MODEL>
2

>  <REMARK>
 VINA RESULT:      -6.3      2.407      3.219
  Name = 
  19 active torsions:
  status: ('A' for Active; 'I' for Inactive)
    1  A    between atoms: C_1  and  C_21
    2  A    between atoms: C_1  and  N_53
    3  A    between atoms: C_3  and  O_25
    4  A    between atoms: C_3  and  O_38
    5  A    between atoms: C_6  and  C_14
    6  A    between atoms: C_6  and  O_22
    7  A    between atoms: C_6  and  C_46
    8  A    between atoms: C_8  and  O_22
    9  A    between atoms: C_8  and  O_54
   10  A    between atoms: C_10  and  C_48
   11  A    between atoms: C_14  and  C_20
   12  A    between atoms: C_19  and  C_37
   13  A    between atoms: C_21  and  C_46
   14  A    between atoms: C_26  and  N_45
   15  A    between atoms: C_29  and  O_38
   16  A    between atoms: C_29  and  N_53
   17  A    between atoms: C_33  and  C_49
   18  A    between atoms: C_33  and  C_52
   19  A    between atoms: C_51  and  O_54
                            x       y       z     vdW  Elec       q    Type
                         _______ _______ _______ _____ _____    ______ ____

>  <TORSDO>
F 19

$$$$
=
 OpenBabel11052419393D

 55 59  0  0  1  0  0  0  0  0999 V2000
  193.1120  175.0090  146.6970 C   0  0  0  0  0  2  0  0  0  0  0  0
  190.1240  177.1650  147.7930 C   0  0  0  0  0  2  0  0  0  0  0  0
  191.4900  176.4620  145.4050 C   0  0  1  0  0  3  0  0  0  0  0  0
  190.6250  177.5710  145.4840 O   0  0  0  0  0  0  0  0  0  0  0  0
  193.8770  176.1060  144.4890 C   0  0  2  0  0  3  0  0  0  0  0  0
  193.8240  174.8350  145.3490 C   0  0  1  0  0  3  0  0  0  0  0  0
  194.6580  177.0900  145.0980 O   0  0  0  0  0  1  0  0  0  0  0  0
  191.2010  176.0850  147.8740 C   0  0  0  0  0  2  0  0  0  0  0  0
  189.5880  177.2200  146.3650 C   0  0  0  0  0  2  0  0  0  0  0  0
  192.4710  176.6600  144.2340 C   0  0  1  0  0  3  0  0  0  0  0  0
  192.2190  176.2490  146.7480 C   0  0  1  0  0  3  0  0  0  0  0  0
  196.0190  174.6000  146.2250 O   0  0  0  0  0  0  0  0  0  0  0  0
  195.1450  174.1250  145.4500 C   0  0  0  0  0  0  0  0  0  0  0  0
  194.3910  171.6230  143.0800 O   0  0  0  0  0  0  0  0  0  0  0  0
  195.4020  172.8830  144.7710 N   0  0  0  0  0  0  0  0  0  0  0  0
  195.0080  172.6760  143.3990 C   0  0  0  0  0  0  0  0  0  0  0  0
  197.2230  171.2340  144.8420 C   0  0  0  0  0  3  0  0  0  0  0  0
  197.6500  170.0000  145.1290 C   0  0  0  0  0  3  0  0  0  0  0  0
  194.9870  170.7060  145.8750 C   0  0  0  0  0  2  0  0  0  0  0  0
  195.6640  169.4960  146.4600 C   0  0  0  0  0  3  0  0  0  0  0  0
  196.8970  169.1520  146.0750 C   0  0  0  0  0  3  0  0  0  0  0  0
  196.0130  171.7990  145.5420 C   0  0  2  0  0  3  0  0  0  0  0  0
  195.4000  173.6400  142.3510 C   0  0  0  0  0  0  0  0  0  0  0  0
  196.2640  174.5160  142.6260 O   0  0  0  0  0  0  0  0  0  0  0  0
  196.6570  171.7140  140.1800 Cl  0  0  0  0  0  0  0  0  0  0  0  0
  193.6740  174.4250  140.7470 C   0  0  0  0  0  3  0  0  0  0  0  0
  193.0910  174.4640  139.4810 C   0  0  0  0  0  3  0  0  0  0  0  0
  195.3070  172.8150  139.9540 C   0  0  0  0  0  0  0  0  0  0  0  0
  194.7130  172.8550  138.6910 C   0  0  0  0  0  3  0  0  0  0  0  0
  193.6180  173.6920  138.4400 C   0  0  0  0  0  0  0  0  0  0  0  0
  194.7870  173.6110  141.0030 C   0  0  0  0  0  0  0  0  0  0  0  0
  192.9630  173.7080  137.0940 C   0  0  1  0  0  3  0  0  0  0  0  0
  191.5870  174.1930  137.1970 C   0  0  0  0  0  2  0  0  0  0  0  0
  192.6390  175.0920  136.7030 N   0  0  0  0  0  2  0  0  0  0  0  0
  191.9300  176.0790  143.0560 O   0  0  0  0  0  0  0  0  0  0  0  0
  190.6290  176.3540  142.6380 C   0  0  0  0  0  0  0  0  0  0  0  0
  190.3110  177.5370  142.3450 O   0  0  0  0  0  0  0  0  0  0  0  0
  189.6850  175.3270  142.5600 O   0  0  0  0  0  0  0  0  0  0  0  0
  188.5540  175.3980  141.7050 C   0  0  1  0  0  3  0  0  0  0  0  0
  189.8070  173.8780  140.3070 O   0  0  0  0  0  1  0  0  0  0  0  0
  188.5260  174.1630  140.7970 C   0  0  1  0  0  3  0  0  0  0  0  0
  187.9560  172.9580  141.5270 C   0  0  0  0  0  2  0  0  0  0  0  0
  188.9950  172.1720  142.0250 O   0  0  0  0  0  1  0  0  0  0  0  0
  187.2950  175.5280  142.5550 C   0  0  0  0  0  2  0  0  0  0  0  0
  187.2090  177.5110  141.0690 C   0  0  0  0  0  1  0  0  0  0  0  0
  186.4640  176.7350  142.1420 C   0  0  2  0  0  3  0  0  0  0  0  0
  186.1900  177.6280  143.3550 C   0  0  1  0  0  3  0  0  0  0  0  0
  187.3780  178.2010  143.8320 O   0  0  0  0  0  1  0  0  0  0  0  0
  184.0450  178.0260  142.6980 O   0  0  0  0  0  1  0  0  0  0  0  0
  185.1910  178.6610  143.0470 N   0  0  0  0  0  0  0  0  0  0  0  0
  184.8990  179.4580  144.2330 C   0  0  0  0  0  2  0  0  0  0  0  0
  183.8660  178.8610  144.9560 O   0  0  0  0  0  0  0  0  0  0  0  0
  184.3940  178.6860  146.2360 C   0  0  0  0  0  2  0  0  0  0  0  0
  185.8270  177.2710  147.1300 C   0  0  0  0  0  1  0  0  0  0  0  0
  184.6000  177.3270  146.4730 O   0  0  0  0  0  0  0  0  0  0  0  0
  2  8  1  0  0  0  0
  3  4  1  1  0  0  0
  3 11  1  0  0  0  0
  4  9  1  0  0  0  0
  5  7  1  1  0  0  0
  5  6  1  0  0  0  0
  6 13  1  1  0  0  0
  6  1  1  0  0  0  0
  9  2  1  0  0  0  0
 10 35  1  6  0  0  0
 10  5  1  0  0  0  0
 10  3  1  0  0  0  0
 11  1  1  6  0  0  0
 11  8  1  0  0  0  0
 13 12  2  0  0  0  0
 14 16  2  0  0  0  0
 15 13  1  0  0  0  0
 16 15  1  0  0  0  0
 17 18  2  0  0  0  0
 17 22  1  0  0  0  0
 18 21  1  0  0  0  0
 19 20  1  0  0  0  0
 21 20  2  0  0  0  0
 22 15  1  6  0  0  0
 22 19  1  0  0  0  0
 23 24  2  0  0  0  0
 23 16  1  0  0  0  0
 26 31  1  0  0  0  0
 27 26  2  0  0  0  0
 28 25  1  0  0  0  0
 28 31  2  0  0  0  0
 29 28  1  0  0  0  0
 30 29  2  0  0  0  0
 30 27  1  0  0  0  0
 31 23  1  0  0  0  0
 32 33  1  0  0  0  0
 32 30  1  1  0  0  0
 34 32  1  0  0  0  0
 34 33  1  0  0  0  0
 36 35  1  0  0  0  0
 37 36  2  0  0  0  0
 38 36  1  0  0  0  0
 39 44  1  1  0  0  0
 39 38  1  0  0  0  0
 41 40  1  1  0  0  0
 41 42  1  0  0  0  0
 41 39  1  0  0  0  0
 42 43  1  0  0  0  0
 46 45  1  6  0  0  0
 46 44  1  0  0  0  0
 46 47  1  0  0  0  0
 47 48  1  6  0  0  0
 49 50  1  0  0  0  0
 50 47  1  0  0  0  0
 50 51  1  0  0  0  0
 51 52  1  0  0  0  0
 52 53  1  0  0  0  0
 53 55  1  0  0  0  0
 55 54  1  0  0  0  0
M  END
>  <MODEL>
3

>  <REMARK>
 VINA RESULT:      -6.2      2.297      6.546
  Name = 
  19 active torsions:
  status: ('A' for Active; 'I' for Inactive)
    1  A    between atoms: C_1  and  C_21
    2  A    between atoms: C_1  and  N_53
    3  A    between atoms: C_3  and  O_25
    4  A    between atoms: C_3  and  O_38
    5  A    between atoms: C_6  and  C_14
    6  A    between atoms: C_6  and  O_22
    7  A    between atoms: C_6  and  C_46
    8  A    between atoms: C_8  and  O_22
    9  A    between atoms: C_8  and  O_54
   10  A    between atoms: C_10  and  C_48
   11  A    between atoms: C_14  and  C_20
   12  A    between atoms: C_19  and  C_37
   13  A    between atoms: C_21  and  C_46
   14  A    between atoms: C_26  and  N_45
   15  A    between atoms: C_29  and  O_38
   16  A    between atoms: C_29  and  N_53
   17  A    between atoms: C_33  and  C_49
   18  A    between atoms: C_33  and  C_52
   19  A    between atoms: C_51  and  O_54
                            x       y       z     vdW  Elec       q    Type
                         _______ _______ _______ _____ _____    ______ ____

>  <TORSDO>
F 19

$$$$
=
 OpenBabel11052419393D

 55 59  0  0  1  0  0  0  0  0999 V2000
  193.2170  174.8220  141.8930 C   0  0  0  0  0  2  0  0  0  0  0  0
  196.5590  176.4740  142.8290 C   0  0  0  0  0  2  0  0  0  0  0  0
  193.9830  176.0770  143.9540 C   0  0  1  0  0  3  0  0  0  0  0  0
  194.8810  177.0450  144.4440 O   0  0  0  0  0  0  0  0  0  0  0  0
  191.4830  176.1100  143.3080 C   0  0  2  0  0  3  0  0  0  0  0  0
  191.8410  174.8100  142.5730 C   0  0  1  0  0  3  0  0  0  0  0  0
  191.3470  177.1710  142.4100 O   0  0  0  0  0  1  0  0  0  0  0  0
  195.5860  175.5590  142.0880 C   0  0  0  0  0  2  0  0  0  0  0  0
  196.1730  176.5100  144.3060 C   0  0  0  0  0  2  0  0  0  0  0  0
  192.5460  176.4650  144.3540 C   0  0  1  0  0  3  0  0  0  0  0  0
  194.1400  175.9170  142.4280 C   0  0  1  0  0  3  0  0  0  0  0  0
  189.6230  174.8850  141.7290 O   0  0  0  0  0  0  0  0  0  0  0  0
  190.7360  174.2960  141.6930 C   0  0  0  0  0  0  0  0  0  0  0  0
  192.5760  171.6070  140.3390 O   0  0  0  0  0  0  0  0  0  0  0  0
  190.9390  173.2250  140.7530 N   0  0  0  0  0  0  0  0  0  0  0  0
  191.6730  172.0360  141.1090 C   0  0  0  0  0  0  0  0  0  0  0  0
  189.6250  172.2310  138.9300 C   0  0  0  0  0  3  0  0  0  0  0  0
  189.4580  171.9980  137.6250 C   0  0  0  0  0  3  0  0  0  0  0  0
  191.5860  173.7270  138.4160 C   0  0  0  0  0  2  0  0  0  0  0  0
  191.1030  173.6890  136.9910 C   0  0  0  0  0  3  0  0  0  0  0  0
  190.1320  172.8480  136.6230 C   0  0  0  0  0  3  0  0  0  0  0  0
  190.4410  173.4130  139.3900 C   0  0  2  0  0  3  0  0  0  0  0  0
  191.3150  171.2660  142.3180 C   0  0  0  0  0  0  0  0  0  0  0  0
  190.1060  170.9620  142.5070 O   0  0  0  0  0  0  0  0  0  0  0  0
  192.1310  168.2150  142.4810 Cl  0  0  0  0  0  0  0  0  0  0  0  0
  192.9070  171.8540  144.1310 C   0  0  0  0  0  3  0  0  0  0  0  0
  193.8400  171.5200  145.1120 C   0  0  0  0  0  3  0  0  0  0  0  0
  192.7330  169.5210  143.4900 C   0  0  0  0  0  0  0  0  0  0  0  0
  193.6740  169.1950  144.4700 C   0  0  0  0  0  3  0  0  0  0  0  0
  194.2170  170.1860  145.2990 C   0  0  0  0  0  0  0  0  0  0  0  0
  192.3370  170.8680  143.3130 C   0  0  0  0  0  0  0  0  0  0  0  0
  195.2490  169.8380  146.3260 C   0  0  1  0  0  3  0  0  0  0  0  0
  196.2220  168.8930  145.7770 C   0  0  0  0  0  2  0  0  0  0  0  0
  196.5750  170.3150  145.8940 N   0  0  0  0  0  2  0  0  0  0  0  0
  192.2190  175.8610  145.5970 O   0  0  0  0  0  0  0  0  0  0  0  0
  191.4680  176.5340  146.5600 C   0  0  0  0  0  0  0  0  0  0  0  0
  191.9570  176.7190  147.7060 O   0  0  0  0  0  0  0  0  0  0  0  0
  190.1800  176.9830  146.2580 O   0  0  0  0  0  0  0  0  0  0  0  0
  189.0820  176.0960  146.1070 C   0  0  1  0  0  3  0  0  0  0  0  0
  188.9180  174.1020  147.4600 O   0  0  0  0  0  1  0  0  0  0  0  0
  189.5560  174.6580  146.3440 C   0  0  1  0  0  3  0  0  0  0  0  0
  189.3250  173.7940  145.1150 C   0  0  0  0  0  2  0  0  0  0  0  0
  189.6610  172.4700  145.3990 O   0  0  0  0  0  1  0  0  0  0  0  0
  187.9720  176.5130  147.0660 C   0  0  0  0  0  2  0  0  0  0  0  0
  186.4980  178.4540  147.5220 C   0  0  0  0  0  1  0  0  0  0  0  0
  187.0470  177.5450  146.4350 C   0  0  2  0  0  3  0  0  0  0  0  0
  185.9030  176.8470  145.6940 C   0  0  1  0  0  3  0  0  0  0  0  0
  184.7820  176.7050  146.5250 O   0  0  0  0  0  1  0  0  0  0  0  0
  184.7880  178.6170  144.7920 O   0  0  0  0  0  1  0  0  0  0  0  0
  185.5570  177.5530  144.4530 N   0  0  0  0  0  0  0  0  0  0  0  0
  186.7570  178.0750  143.8100 C   0  0  0  0  0  2  0  0  0  0  0  0
  187.3580  177.0680  143.0530 O   0  0  0  0  0  0  0  0  0  0  0  0
  187.4830  177.6200  141.7780 C   0  0  0  0  0  2  0  0  0  0  0  0
  186.5640  177.4390  139.7830 C   0  0  0  0  0  1  0  0  0  0  0  0
  186.2480  177.5880  141.1320 O   0  0  0  0  0  0  0  0  0  0  0  0
  1  6  1  0  0  0  0
  2  9  1  0  0  0  0
  3 10  1  0  0  0  0
  3  4  1  6  0  0  0
  5  7  1  6  0  0  0
  5 10  1  0  0  0  0
  6 13  1  6  0  0  0
  6  5  1  0  0  0  0
  8 11  1  0  0  0  0
  8  2  1  0  0  0  0
  9  4  1  0  0  0  0
 10 35  1  1  0  0  0
 11  1  1  1  0  0  0
 11  3  1  0  0  0  0
 13 12  2  0  0  0  0
 14 16  2  0  0  0  0
 15 16  1  0  0  0  0
 15 13  1  0  0  0  0
 16 23  1  0  0  0  0
 17 22  1  0  0  0  0
 18 17  2  0  0  0  0
 19 22  1  0  0  0  0
 20 19  1  0  0  0  0
 21 20  2  0  0  0  0
 21 18  1  0  0  0  0
 22 15  1  1  0  0  0
 23 24  2  0  0  0  0
 23 31  1  0  0  0  0
 25 28  1  0  0  0  0
 26 27  1  0  0  0  0
 27 30  2  0  0  0  0
 28 29  2  0  0  0  0
 29 30  1  0  0  0  0
 31 28  1  0  0  0  0
 31 26  2  0  0  0  0
 32 30  1  6  0  0  0
 33 34  1  0  0  0  0
 33 32  1  0  0  0  0
 34 32  1  0  0  0  0
 35 36  1  0  0  0  0
 36 37  2  0  0  0  0
 38 36  1  0  0  0  0
 39 38  1  0  0  0  0
 39 41  1  0  0  0  0
 39 44  1  1  0  0  0
 41 40  1  1  0  0  0
 42 43  1  0  0  0  0
 42 41  1  0  0  0  0
 46 44  1  0  0  0  0
 46 45  1  1  0  0  0
 47 46  1  0  0  0  0
 47 48  1  1  0  0  0
 50 49  1  0  0  0  0
 50 47  1  0  0  0  0
 51 50  1  0  0  0  0
 52 51  1  0  0  0  0
 53 52  1  0  0  0  0
 54 55  1  0  0  0  0
 55 53  1  0  0  0  0
M  END
>  <MODEL>
4

>  <REMARK>
 VINA RESULT:      -6.0      2.408      4.985
  Name = 
  19 active torsions:
  status: ('A' for Active; 'I' for Inactive)
    1  A    between atoms: C_1  and  C_21
    2  A    between atoms: C_1  and  N_53
    3  A    between atoms: C_3  and  O_25
    4  A    between atoms: C_3  and  O_38
    5  A    between atoms: C_6  and  C_14
    6  A    between atoms: C_6  and  O_22
    7  A    between atoms: C_6  and  C_46
    8  A    between atoms: C_8  and  O_22
    9  A    between atoms: C_8  and  O_54
   10  A    between atoms: C_10  and  C_48
   11  A    between atoms: C_14  and  C_20
   12  A    between atoms: C_19  and  C_37
   13  A    between atoms: C_21  and  C_46
   14  A    between atoms: C_26  and  N_45
   15  A    between atoms: C_29  and  O_38
   16  A    between atoms: C_29  and  N_53
   17  A    between atoms: C_33  and  C_49
   18  A    between atoms: C_33  and  C_52
   19  A    between atoms: C_51  and  O_54
                            x       y       z     vdW  Elec       q    Type
                         _______ _______ _______ _____ _____    ______ ____

>  <TORSDO>
F 19

$$$$
=
 OpenBabel11052419393D

 55 59  0  0  1  0  0  0  0  0999 V2000
  191.2600  171.5730  142.2780 C   0  0  0  0  0  2  0  0  0  0  0  0
  190.9850  168.9020  139.5290 C   0  0  0  0  0  2  0  0  0  0  0  0
  190.1740  171.5830  139.9910 C   0  0  1  0  0  3  0  0  0  0  0  0
  189.5960  170.7800  138.9890 O   0  0  0  0  0  0  0  0  0  0  0  0
  189.2220  173.1000  141.8510 C   0  0  2  0  0  3  0  0  0  0  0  0
  190.6360  172.9670  142.4350 C   0  0  1  0  0  3  0  0  0  0  0  0
  188.3150  172.3020  142.5500 O   0  0  0  0  0  1  0  0  0  0  0  0
  191.5160  169.6070  140.7740 C   0  0  0  0  0  2  0  0  0  0  0  0
  190.6160  169.9550  138.4870 C   0  0  0  0  0  2  0  0  0  0  0  0
  189.1980  172.7140  140.3680 C   0  0  1  0  0  3  0  0  0  0  0  0
  190.5700  170.7250  141.2100 C   0  0  1  0  0  3  0  0  0  0  0  0
  190.3710  172.8390  144.7910 O   0  0  0  0  0  0  0  0  0  0  0  0
  190.7670  173.5360  143.8200 C   0  0  0  0  0  0  0  0  0  0  0  0
  192.1260  176.6310  142.8070 O   0  0  0  0  0  0  0  0  0  0  0  0
  191.4130  174.7980  144.0710 N   0  0  0  0  0  0  0  0  0  0  0  0
  191.1580  175.9550  143.2500 C   0  0  0  0  0  0  0  0  0  0  0  0
  192.4910  176.2330  145.7500 C   0  0  0  0  0  3  0  0  0  0  0  0
  193.5910  176.6090  146.4090 C   0  0  0  0  0  3  0  0  0  0  0  0
  193.7730  174.3510  144.6740 C   0  0  0  0  0  2  0  0  0  0  0  0
  194.8320  174.6250  145.7070 C   0  0  0  0  0  3  0  0  0  0  0  0
  194.7580  175.7070  146.4880 C   0  0  0  0  0  3  0  0  0  0  0  0
  192.4020  174.8530  145.1490 C   0  0  2  0  0  3  0  0  0  0  0  0
  189.7740  176.4080  142.9990 C   0  0  0  0  0  0  0  0  0  0  0  0
  189.4070  176.6050  141.8080 O   0  0  0  0  0  0  0  0  0  0  0  0
  186.7550  175.5520  142.6000 Cl  0  0  0  0  0  0  0  0  0  0  0  0
  189.3010  177.2400  145.2900 C   0  0  0  0  0  3  0  0  0  0  0  0
  188.4370  177.5300  146.3450 C   0  0  0  0  0  3  0  0  0  0  0  0
  187.4470  176.3450  144.0060 C   0  0  0  0  0  0  0  0  0  0  0  0
  186.5890  176.6320  145.0700 C   0  0  0  0  0  3  0  0  0  0  0  0
  187.0720  177.2440  146.2350 C   0  0  0  0  0  0  0  0  0  0  0  0
  188.8250  176.6520  144.1090 C   0  0  0  0  0  0  0  0  0  0  0  0
  186.1550  177.5200  147.3860 C   0  0  1  0  0  3  0  0  0  0  0  0
  186.5650  178.7370  148.0880 C   0  0  0  0  0  2  0  0  0  0  0  0
  185.4250  178.7810  147.1610 N   0  0  0  0  0  2  0  0  0  0  0  0
  189.4610  173.8570  139.5680 O   0  0  0  0  0  0  0  0  0  0  0  0
  189.1430  173.8890  138.2110 C   0  0  0  0  0  0  0  0  0  0  0  0
  187.9720  173.6030  137.8450 O   0  0  0  0  0  0  0  0  0  0  0  0
  190.1190  174.2180  137.2680 O   0  0  0  0  0  0  0  0  0  0  0  0
  191.1460  173.3140  136.8890 C   0  0  1  0  0  3  0  0  0  0  0  0
  192.1290  172.2440  134.9590 O   0  0  0  0  0  1  0  0  0  0  0  0
  191.1390  173.1480  135.3650 C   0  0  1  0  0  3  0  0  0  0  0  0
  189.7750  172.7010  134.8670 C   0  0  0  0  0  2  0  0  0  0  0  0
  189.4230  171.4940  135.4710 O   0  0  0  0  0  1  0  0  0  0  0  0
  192.4810  173.8290  137.4160 C   0  0  0  0  0  2  0  0  0  0  0  0
  192.9920  174.2300  139.8090 C   0  0  0  0  0  1  0  0  0  0  0  0
  192.8550  173.1650  138.7340 C   0  0  2  0  0  3  0  0  0  0  0  0
  194.1650  172.3870  138.5810 C   0  0  1  0  0  3  0  0  0  0  0  0
  195.2430  173.2610  138.3760 O   0  0  0  0  0  1  0  0  0  0  0  0
  194.6160  170.2590  139.2570 O   0  0  0  0  0  1  0  0  0  0  0  0
  194.4070  171.5100  139.7350 N   0  0  0  0  0  0  0  0  0  0  0  0
  195.6200  171.9120  140.4370 C   0  0  0  0  0  2  0  0  0  0  0  0
  195.3310  172.1240  141.7860 O   0  0  0  0  0  0  0  0  0  0  0  0
  196.3130  173.0170  142.2150 C   0  0  0  0  0  2  0  0  0  0  0  0
  196.1600  175.1980  141.9370 C   0  0  0  0  0  1  0  0  0  0  0  0
  196.4780  174.0220  141.2630 O   0  0  0  0  0  0  0  0  0  0  0  0
  1  6  1  0  0  0  0
  2  8  1  0  0  0  0
  3  4  1  6  0  0  0
  3 10  1  0  0  0  0
  3 11  1  0  0  0  0
  5  6  1  0  0  0  0
  5  7  1  1  0  0  0
  6 13  1  1  0  0  0
  9  4  1  0  0  0  0
  9  2  1  0  0  0  0
 10 35  1  6  0  0  0
 10  5  1  0  0  0  0
 11  8  1  6  0  0  0
 11  1  1  0  0  0  0
 13 15  1  0  0  0  0
 13 12  2  0  0  0  0
 14 16  2  0  0  0  0
 16 15  1  0  0  0  0
 17 18  2  0  0  0  0
 18 21  1  0  0  0  0
 19 22  1  0  0  0  0
 19 20  1  0  0  0  0
 20 21  2  0  0  0  0
 22 15  1  6  0  0  0
 22 17  1  0  0  0  0
 23 16  1  0  0  0  0
 23 31  1  0  0  0  0
 24 23  2  0  0  0  0
 25 28  1  0  0  0  0
 26 27  1  0  0  0  0
 28 31  1  0  0  0  0
 28 29  2  0  0  0  0
 29 30  1  0  0  0  0
 30 27  2  0  0  0  0
 31 26  2  0  0  0  0
 32 30  1  6  0  0  0
 32 33  1  0  0  0  0
 34 32  1  0  0  0  0
 34 33  1  0  0  0  0
 36 35  1  0  0  0  0
 37 36  2  0  0  0  0
 38 36  1  0  0  0  0
 39 38  1  0  0  0  0
 39 44  1  6  0  0  0
 41 40  1  1  0  0  0
 41 39  1  0  0  0  0
 42 41  1  0  0  0  0
 42 43  1  0  0  0  0
 44 46  1  0  0  0  0
 46 45  1  1  0  0  0
 47 48  1  1  0  0  0
 47 46  1  0  0  0  0
 47 50  1  0  0  0  0
 49 50  1  0  0  0  0
 50 51  1  0  0  0  0
 51 52  1  0  0  0  0
 52 53  1  0  0  0  0
 55 54  1  0  0  0  0
 55 53  1  0  0  0  0
M  END
>  <MODEL>
5

>  <REMARK>
 VINA RESULT:      -5.9      2.880      9.122
  Name = 
  19 active torsions:
  status: ('A' for Active; 'I' for Inactive)
    1  A    between atoms: C_1  and  C_21
    2  A    between atoms: C_1  and  N_53
    3  A    between atoms: C_3  and  O_25
    4  A    between atoms: C_3  and  O_38
    5  A    between atoms: C_6  and  C_14
    6  A    between atoms: C_6  and  O_22
    7  A    between atoms: C_6  and  C_46
    8  A    between atoms: C_8  and  O_22
    9  A    between atoms: C_8  and  O_54
   10  A    between atoms: C_10  and  C_48
   11  A    between atoms: C_14  and  C_20
   12  A    between atoms: C_19  and  C_37
   13  A    between atoms: C_21  and  C_46
   14  A    between atoms: C_26  and  N_45
   15  A    between atoms: C_29  and  O_38
   16  A    between atoms: C_29  and  N_53
   17  A    between atoms: C_33  and  C_49
   18  A    between atoms: C_33  and  C_52
   19  A    between atoms: C_51  and  O_54
                            x       y       z     vdW  Elec       q    Type
                         _______ _______ _______ _____ _____    ______ ____

>  <TORSDO>
F 19

$$$$
=
 OpenBabel11052419393D

 55 59  0  0  1  0  0  0  0  0999 V2000
  189.8760  174.5900  143.8080 C   0  0  0  0  0  2  0  0  0  0  0  0
  189.7900  174.9140  147.6370 C   0  0  0  0  0  2  0  0  0  0  0  0
  191.6560  175.1710  145.5120 C   0  0  1  0  0  3  0  0  0  0  0  0
  192.0540  175.0240  146.8550 O   0  0  0  0  0  0  0  0  0  0  0  0
  192.3460  174.0360  143.2970 C   0  0  2  0  0  3  0  0  0  0  0  0
  191.0240  174.6310  142.7900 C   0  0  1  0  0  3  0  0  0  0  0  0
  192.2210  172.6660  143.5300 O   0  0  0  0  0  1  0  0  0  0  0  0
  189.2620  174.8450  146.2060 C   0  0  0  0  0  2  0  0  0  0  0  0
  191.1020  175.6950  147.6400 C   0  0  0  0  0  2  0  0  0  0  0  0
  192.8050  174.7290  144.5860 C   0  0  1  0  0  3  0  0  0  0  0  0
  190.3560  174.3850  145.2450 C   0  0  1  0  0  3  0  0  0  0  0  0
  191.4970  174.2060  140.5020 O   0  0  0  0  0  0  0  0  0  0  0  0
  190.6370  174.1460  141.4210 C   0  0  0  0  0  0  0  0  0  0  0  0
  187.3090  173.3240  142.2590 O   0  0  0  0  0  0  0  0  0  0  0  0
  189.3610  173.5350  141.1570 N   0  0  0  0  0  0  0  0  0  0  0  0
  188.1360  174.0830  141.6830 C   0  0  0  0  0  0  0  0  0  0  0  0
  190.4220  171.3360  140.8680 C   0  0  0  0  0  3  0  0  0  0  0  0
  190.8670  170.3700  140.0600 C   0  0  0  0  0  3  0  0  0  0  0  0
  189.4540  172.5530  138.8850 C   0  0  0  0  0  2  0  0  0  0  0  0
  189.6750  171.2720  138.1280 C   0  0  0  0  0  3  0  0  0  0  0  0
  190.3720  170.2700  138.6720 C   0  0  0  0  0  3  0  0  0  0  0  0
  189.3500  172.2850  140.3940 C   0  0  2  0  0  3  0  0  0  0  0  0
  187.7990  175.5060  141.4740 C   0  0  0  0  0  0  0  0  0  0  0  0
  187.9190  175.9940  140.3170 O   0  0  0  0  0  0  0  0  0  0  0  0
  189.6850  177.8740  142.3900 Cl  0  0  0  0  0  0  0  0  0  0  0  0
  186.1050  176.1090  143.1870 C   0  0  0  0  0  3  0  0  0  0  0  0
  185.6580  176.8660  144.2700 C   0  0  0  0  0  3  0  0  0  0  0  0
  188.1420  177.4230  143.0990 C   0  0  0  0  0  0  0  0  0  0  0  0
  187.6850  178.1810  144.1800 C   0  0  0  0  0  3  0  0  0  0  0  0
  186.4530  177.8950  144.7840 C   0  0  0  0  0  0  0  0  0  0  0  0
  187.3470  176.3680  142.5910 C   0  0  0  0  0  0  0  0  0  0  0  0
  185.9520  178.7300  145.9210 C   0  0  1  0  0  3  0  0  0  0  0  0
  184.8230  178.0740  146.5820 C   0  0  0  0  0  2  0  0  0  0  0  0
  186.1560  178.0230  147.1980 N   0  0  0  0  0  2  0  0  0  0  0  0
  193.6180  175.8490  144.2670 O   0  0  0  0  0  0  0  0  0  0  0  0
  195.0090  175.7630  144.2570 C   0  0  0  0  0  0  0  0  0  0  0  0
  195.6940  176.8190  144.2570 O   0  0  0  0  0  0  0  0  0  0  0  0
  195.6350  174.5140  144.2300 O   0  0  0  0  0  0  0  0  0  0  0  0
  196.9070  174.3140  143.6340 C   0  0  1  0  0  3  0  0  0  0  0  0
  197.4820  173.7590  145.9140 O   0  0  0  0  0  1  0  0  0  0  0  0
  197.7830  173.4780  144.5750 C   0  0  1  0  0  3  0  0  0  0  0  0
  197.6270  171.9930  144.2960 C   0  0  0  0  0  2  0  0  0  0  0  0
  196.4880  171.5080  144.9390 O   0  0  0  0  0  1  0  0  0  0  0  0
  196.7190  173.6560  142.2710 C   0  0  0  0  0  2  0  0  0  0  0  0
  197.9230  175.7420  141.6790 C   0  0  0  0  0  1  0  0  0  0  0  0
  197.0620  174.6130  141.1370 C   0  0  2  0  0  3  0  0  0  0  0  0
  195.7800  175.1710  140.5120 C   0  0  1  0  0  3  0  0  0  0  0  0
  195.5110  176.4620  140.9910 O   0  0  0  0  0  1  0  0  0  0  0  0
  196.5770  174.0720  138.6820 O   0  0  0  0  0  1  0  0  0  0  0  0
  195.8480  175.1560  139.0440 N   0  0  0  0  0  0  0  0  0  0  0  0
  194.5170  174.9910  138.4730 C   0  0  0  0  0  2  0  0  0  0  0  0
  194.6120  174.8970  137.0840 O   0  0  0  0  0  0  0  0  0  0  0  0
  193.5460  175.6640  136.6100 C   0  0  0  0  0  2  0  0  0  0  0  0
  192.9420  177.3020  135.2650 C   0  0  0  0  0  1  0  0  0  0  0  0
  193.9390  176.3480  135.4600 O   0  0  0  0  0  0  0  0  0  0  0  0
  2  9  1  0  0  0  0
  3  4  1  1  0  0  0
  4  9  1  0  0  0  0
  5  7  1  1  0  0  0
  5 10  1  0  0  0  0
  6 13  1  6  0  0  0
  6  5  1  0  0  0  0
  6  1  1  0  0  0  0
  8  2  1  0  0  0  0
 10 35  1  6  0  0  0
 10  3  1  0  0  0  0
 11  1  1  6  0  0  0
 11  3  1  0  0  0  0
 11  8  1  0  0  0  0
 12 13  2  0  0  0  0
 15 13  1  0  0  0  0
 15 16  1  0  0  0  0
 16 14  2  0  0  0  0
 18 17  2  0  0  0  0
 19 22  1  0  0  0  0
 20 21  2  0  0  0  0
 20 19  1  0  0  0  0
 21 18  1  0  0  0  0
 22 17  1  0  0  0  0
 22 15  1  1  0  0  0
 23 16  1  0  0  0  0
 23 31  1  0  0  0  0
 24 23  2  0  0  0  0
 25 28  1  0  0  0  0
 26 27  1  0  0  0  0
 27 30  2  0  0  0  0
 28 29  2  0  0  0  0
 29 30  1  0  0  0  0
 31 28  1  0  0  0  0
 31 26  2  0  0  0  0
 32 30  1  6  0  0  0
 32 33  1  0  0  0  0
 32 34  1  0  0  0  0
 33 34  1  0  0  0  0
 36 37  2  0  0  0  0
 36 35  1  0  0  0  0
 38 36  1  0  0  0  0
 39 44  1  6  0  0  0
 39 38  1  0  0  0  0
 39 41  1  0  0  0  0
 41 40  1  1  0  0  0
 42 41  1  0  0  0  0
 42 43  1  0  0  0  0
 46 45  1  1  0  0  0
 46 44  1  0  0  0  0
 47 48  1  1  0  0  0
 47 46  1  0  0  0  0
 49 50  1  0  0  0  0
 50 47  1  0  0  0  0
 51 50  1  0  0  0  0
 52 51  1  0  0  0  0
 53 52  1  0  0  0  0
 54 55  1  0  0  0  0
 55 53  1  0  0  0  0
M  END
>  <MODEL>
6

>  <REMARK>
 VINA RESULT:      -5.8      2.726      7.462
  Name = 
  19 active torsions:
  status: ('A' for Active; 'I' for Inactive)
    1  A    between atoms: C_1  and  C_21
    2  A    between atoms: C_1  and  N_53
    3  A    between atoms: C_3  and  O_25
    4  A    between atoms: C_3  and  O_38
    5  A    between atoms: C_6  and  C_14
    6  A    between atoms: C_6  and  O_22
    7  A    between atoms: C_6  and  C_46
    8  A    between atoms: C_8  and  O_22
    9  A    between atoms: C_8  and  O_54
   10  A    between atoms: C_10  and  C_48
   11  A    between atoms: C_14  and  C_20
   12  A    between atoms: C_19  and  C_37
   13  A    between atoms: C_21  and  C_46
   14  A    between atoms: C_26  and  N_45
   15  A    between atoms: C_29  and  O_38
   16  A    between atoms: C_29  and  N_53
   17  A    between atoms: C_33  and  C_49
   18  A    between atoms: C_33  and  C_52
   19  A    between atoms: C_51  and  O_54
                            x       y       z     vdW  Elec       q    Type
                         _______ _______ _______ _____ _____    ______ ____

>  <TORSDO>
F 19

$$$$
=
 OpenBabel11052419393D

 55 59  0  0  1  0  0  0  0  0999 V2000
  188.2980  175.2040  143.1260 C   0  0  0  0  0  2  0  0  0  0  0  0
  188.7190  172.9720  140.0250 C   0  0  0  0  0  2  0  0  0  0  0  0
  190.3210  174.5670  141.7430 C   0  0  1  0  0  3  0  0  0  0  0  0
  190.7600  174.1490  140.4720 O   0  0  0  0  0  0  0  0  0  0  0  0
  190.2950  176.8330  142.9810 C   0  0  2  0  0  3  0  0  0  0  0  0
  189.2660  176.1280  143.8760 C   0  0  1  0  0  3  0  0  0  0  0  0
  189.6710  177.7240  142.1070 O   0  0  0  0  0  1  0  0  0  0  0  0
  188.0680  173.5520  141.2790 C   0  0  0  0  0  2  0  0  0  0  0  0
  190.2250  172.8680  140.2550 C   0  0  0  0  0  2  0  0  0  0  0  0
  191.1110  175.8180  142.1720 C   0  0  1  0  0  3  0  0  0  0  0  0
  188.7980  174.8130  141.7350 C   0  0  1  0  0  3  0  0  0  0  0  0
  188.2100  178.1790  144.4370 O   0  0  0  0  0  0  0  0  0  0  0  0
  188.5890  177.0510  144.8500 C   0  0  0  0  0  0  0  0  0  0  0  0
  188.8650  174.9000  147.6340 O   0  0  0  0  0  0  0  0  0  0  0  0
  188.2790  176.6500  146.1980 N   0  0  0  0  0  0  0  0  0  0  0  0
  189.2300  175.9350  147.0110 C   0  0  0  0  0  0  0  0  0  0  0  0
  185.8980  176.7960  145.6070 C   0  0  0  0  0  3  0  0  0  0  0  0
  184.7180  177.4120  145.7230 C   0  0  0  0  0  3  0  0  0  0  0  0
  186.8620  178.2980  147.3840 C   0  0  0  0  0  2  0  0  0  0  0  0
  185.4370  178.6750  147.6870 C   0  0  0  0  0  3  0  0  0  0  0  0
  184.4440  178.2870  146.8800 C   0  0  0  0  0  3  0  0  0  0  0  0
  186.9310  176.9260  146.6970 C   0  0  2  0  0  3  0  0  0  0  0  0
  190.6020  176.4520  147.1940 C   0  0  0  0  0  0  0  0  0  0  0  0
  190.7620  177.5430  147.8070 O   0  0  0  0  0  0  0  0  0  0  0  0
  190.1330  173.6550  145.7950 Cl  0  0  0  0  0  0  0  0  0  0  0  0
  193.0480  176.3200  146.7810 C   0  0  0  0  0  3  0  0  0  0  0  0
  194.1900  175.6600  146.3310 C   0  0  0  0  0  3  0  0  0  0  0  0
  191.6750  174.4560  146.0560 C   0  0  0  0  0  0  0  0  0  0  0  0
  192.8230  173.8040  145.6010 C   0  0  0  0  0  3  0  0  0  0  0  0
  194.0870  174.3900  145.7530 C   0  0  0  0  0  0  0  0  0  0  0  0
  191.7800  175.7320  146.6580 C   0  0  0  0  0  0  0  0  0  0  0  0
  195.3120  173.7030  145.2350 C   0  0  1  0  0  3  0  0  0  0  0  0
  196.3290  174.6840  144.8550 C   0  0  0  0  0  2  0  0  0  0  0  0
  196.4560  173.9630  146.1290 N   0  0  0  0  0  2  0  0  0  0  0  0
  192.2600  175.4260  142.9090 O   0  0  0  0  0  0  0  0  0  0  0  0
  193.5190  175.3540  142.3150 C   0  0  0  0  0  0  0  0  0  0  0  0
  194.1080  176.4160  141.9850 O   0  0  0  0  0  0  0  0  0  0  0  0
  194.1120  174.1110  142.0750 O   0  0  0  0  0  0  0  0  0  0  0  0
  193.9700  173.4280  140.8380 C   0  0  1  0  0  3  0  0  0  0  0  0
  194.9740  174.8450  139.1590 O   0  0  0  0  0  1  0  0  0  0  0  0
  195.1910  173.7150  139.9580 C   0  0  1  0  0  3  0  0  0  0  0  0
  196.4450  173.8910  140.7980 C   0  0  0  0  0  2  0  0  0  0  0  0
  197.0500  175.1110  140.4950 O   0  0  0  0  0  1  0  0  0  0  0  0
  193.7820  171.9400  141.1120 C   0  0  0  0  0  2  0  0  0  0  0  0
  195.1890  170.8620  142.8470 C   0  0  0  0  0  1  0  0  0  0  0  0
  193.8990  171.6270  142.5980 C   0  0  2  0  0  3  0  0  0  0  0  0
  192.6930  170.8050  143.0610 C   0  0  1  0  0  3  0  0  0  0  0  0
  191.5570  171.6180  143.1980 O   0  0  0  0  0  1  0  0  0  0  0  0
  192.7040  168.5380  142.8360 O   0  0  0  0  0  1  0  0  0  0  0  0
  192.4300  169.6780  142.1550 N   0  0  0  0  0  0  0  0  0  0  0  0
  191.0190  169.6340  141.7890 C   0  0  0  0  0  2  0  0  0  0  0  0
  190.8190  168.6570  140.8140 O   0  0  0  0  0  0  0  0  0  0  0  0
  190.9750  169.3350  139.6050 C   0  0  0  0  0  2  0  0  0  0  0  0
  189.7300  169.9420  137.8900 C   0  0  0  0  0  1  0  0  0  0  0  0
  190.0680  168.8370  138.6700 O   0  0  0  0  0  0  0  0  0  0  0  0
  1  6  1  0  0  0  0
  2  9  1  0  0  0  0
  2  8  1  0  0  0  0
  3  4  1  6  0  0  0
  3 10  1  0  0  0  0
  5  7  1  6  0  0  0
  5  6  1  0  0  0  0
  6 13  1  6  0  0  0
  9  4  1  0  0  0  0
 10 35  1  1  0  0  0
 10  5  1  0  0  0  0
 11  8  1  1  0  0  0
 11  3  1  0  0  0  0
 11  1  1  0  0  0  0
 12 13  2  0  0  0  0
 13 15  1  0  0  0  0
 15 16  1  0  0  0  0
 16 23  1  0  0  0  0
 16 14  2  0  0  0  0
 17 18  2  0  0  0  0
 17 22  1  0  0  0  0
 18 21  1  0  0  0  0
 19 20  1  0  0  0  0
 21 20  2  0  0  0  0
 22 15  1  6  0  0  0
 22 19  1  0  0  0  0
 23 24  2  0  0  0  0
 25 28  1  0  0  0  0
 27 26  2  0  0  0  0
 28 31  2  0  0  0  0
 29 30  2  0  0  0  0
 29 28  1  0  0  0  0
 30 27  1  0  0  0  0
 31 26  1  0  0  0  0
 31 23  1  0  0  0  0
 32 30  1  1  0  0  0
 32 34  1  0  0  0  0
 33 32  1  0  0  0  0
 33 34  1  0  0  0  0
 36 35  1  0  0  0  0
 37 36  2  0  0  0  0
 38 36  1  0  0  0  0
 39 44  1  1  0  0  0
 39 38  1  0  0  0  0
 41 40  1  1  0  0  0
 41 42  1  0  0  0  0
 41 39  1  0  0  0  0
 43 42  1  0  0  0  0
 44 46  1  0  0  0  0
 46 45  1  6  0  0  0
 46 47  1  0  0  0  0
 47 48  1  6  0  0  0
 50 49  1  0  0  0  0
 50 47  1  0  0  0  0
 51 50  1  0  0  0  0
 52 51  1  0  0  0  0
 53 52  1  0  0  0  0
 54 55  1  0  0  0  0
 55 53  1  0  0  0  0
M  END
>  <MODEL>
7

>  <REMARK>
 VINA RESULT:      -5.8      2.498      7.674
  Name = 
  19 active torsions:
  status: ('A' for Active; 'I' for Inactive)
    1  A    between atoms: C_1  and  C_21
    2  A    between atoms: C_1  and  N_53
    3  A    between atoms: C_3  and  O_25
    4  A    between atoms: C_3  and  O_38
    5  A    between atoms: C_6  and  C_14
    6  A    between atoms: C_6  and  O_22
    7  A    between atoms: C_6  and  C_46
    8  A    between atoms: C_8  and  O_22
    9  A    between atoms: C_8  and  O_54
   10  A    between atoms: C_10  and  C_48
   11  A    between atoms: C_14  and  C_20
   12  A    between atoms: C_19  and  C_37
   13  A    between atoms: C_21  and  C_46
   14  A    between atoms: C_26  and  N_45
   15  A    between atoms: C_29  and  O_38
   16  A    between atoms: C_29  and  N_53
   17  A    between atoms: C_33  and  C_49
   18  A    between atoms: C_33  and  C_52
   19  A    between atoms: C_51  and  O_54
                            x       y       z     vdW  Elec       q    Type
                         _______ _______ _______ _____ _____    ______ ____

>  <TORSDO>
F 19

$$$$
=
 OpenBabel11052419393D

 55 59  0  0  1  0  0  0  0  0999 V2000
  188.5130  174.8830  143.2490 C   0  0  0  0  0  2  0  0  0  0  0  0
  188.6700  172.5590  140.1910 C   0  0  0  0  0  2  0  0  0  0  0  0
  190.4020  174.2350  141.6930 C   0  0  1  0  0  3  0  0  0  0  0  0
  190.7220  173.7830  140.3980 O   0  0  0  0  0  0  0  0  0  0  0  0
  190.4550  176.5390  142.8570 C   0  0  2  0  0  3  0  0  0  0  0  0
  189.5320  175.8470  143.8710 C   0  0  1  0  0  3  0  0  0  0  0  0
  189.7310  177.3910  142.0220 O   0  0  0  0  0  1  0  0  0  0  0  0
  188.1350  173.1690  141.4850 C   0  0  0  0  0  2  0  0  0  0  0  0
  190.1930  172.4870  140.2750 C   0  0  0  0  0  2  0  0  0  0  0  0
  191.2070  175.5110  142.0030 C   0  0  1  0  0  3  0  0  0  0  0  0
  188.8820  174.4560  141.8280 C   0  0  1  0  0  3  0  0  0  0  0  0
  188.6520  177.9600  144.5040 O   0  0  0  0  0  0  0  0  0  0  0  0
  188.9360  176.7900  144.8780 C   0  0  0  0  0  0  0  0  0  0  0  0
  189.0350  174.5320  147.5870 O   0  0  0  0  0  0  0  0  0  0  0  0
  188.5960  176.3720  146.2130 N   0  0  0  0  0  0  0  0  0  0  0  0
  189.4850  175.5520  146.9980 C   0  0  0  0  0  0  0  0  0  0  0  0
  186.2230  176.6800  145.6490 C   0  0  0  0  0  3  0  0  0  0  0  0
  185.0910  177.3770  145.7770 C   0  0  0  0  0  3  0  0  0  0  0  0
  187.3110  178.1190  147.4080 C   0  0  0  0  0  2  0  0  0  0  0  0
  185.9200  178.5950  147.7260 C   0  0  0  0  0  3  0  0  0  0  0  0
  184.8930  178.2740  146.9330 C   0  0  0  0  0  3  0  0  0  0  0  0
  187.2770  176.7430  146.7270 C   0  0  2  0  0  3  0  0  0  0  0  0
  190.8950  175.9460  147.1920 C   0  0  0  0  0  0  0  0  0  0  0  0
  191.1490  176.9670  147.8870 O   0  0  0  0  0  0  0  0  0  0  0  0
  193.7950  177.2080  147.2630 Cl  0  0  0  0  0  0  0  0  0  0  0  0
  191.7300  173.9370  145.9950 C   0  0  0  0  0  3  0  0  0  0  0  0
  192.7350  173.2040  145.3630 C   0  0  0  0  0  3  0  0  0  0  0  0
  193.3270  175.6880  146.5170 C   0  0  0  0  0  0  0  0  0  0  0  0
  194.3280  174.9450  145.8880 C   0  0  0  0  0  3  0  0  0  0  0  0
  194.0360  173.7110  145.2900 C   0  0  0  0  0  0  0  0  0  0  0  0
  192.0050  175.1850  146.5740 C   0  0  0  0  0  0  0  0  0  0  0  0
  195.1180  172.9030  144.6450 C   0  0  1  0  0  3  0  0  0  0  0  0
  196.4240  173.2510  145.2070 C   0  0  0  0  0  2  0  0  0  0  0  0
  195.7520  172.0180  145.6410 N   0  0  0  0  0  2  0  0  0  0  0  0
  192.4300  175.1620  142.6350 O   0  0  0  0  0  0  0  0  0  0  0  0
  193.6440  175.2150  141.9530 C   0  0  0  0  0  0  0  0  0  0  0  0
  194.1270  176.3340  141.6360 O   0  0  0  0  0  0  0  0  0  0  0  0
  194.3110  174.0350  141.6130 O   0  0  0  0  0  0  0  0  0  0  0  0
  195.3940  174.0110  140.6960 C   0  0  1  0  0  3  0  0  0  0  0  0
  197.1400  172.6120  141.6070 O   0  0  0  0  0  1  0  0  0  0  0  0
  196.7140  173.9400  141.4720 C   0  0  1  0  0  3  0  0  0  0  0  0
  197.7910  174.7780  140.8040 C   0  0  0  0  0  2  0  0  0  0  0  0
  197.3000  176.0580  140.5460 O   0  0  0  0  0  1  0  0  0  0  0  0
  195.2110  172.8360  139.7420 C   0  0  0  0  0  2  0  0  0  0  0  0
  195.7450  172.5920  137.3320 C   0  0  0  0  0  1  0  0  0  0  0  0
  194.8560  173.3060  138.3380 C   0  0  2  0  0  3  0  0  0  0  0  0
  195.0360  174.8230  138.2270 C   0  0  1  0  0  3  0  0  0  0  0  0
  196.1470  175.1380  137.4310 O   0  0  0  0  0  1  0  0  0  0  0  0
  194.0300  175.7630  136.4120 O   0  0  0  0  0  1  0  0  0  0  0  0
  193.8190  175.4720  137.7190 N   0  0  0  0  0  0  0  0  0  0  0  0
  192.6870  174.5540  137.7800 C   0  0  0  0  0  2  0  0  0  0  0  0
  192.0730  174.4860  136.5290 O   0  0  0  0  0  0  0  0  0  0  0  0
  190.8340  173.8960  136.7820 C   0  0  0  0  0  2  0  0  0  0  0  0
  191.0210  172.1760  135.4160 C   0  0  0  0  0  1  0  0  0  0  0  0
  190.9670  172.5080  136.7680 O   0  0  0  0  0  0  0  0  0  0  0  0
  1  6  1  0  0  0  0
  2  9  1  0  0  0  0
  2  8  1  0  0  0  0
  3  4  1  6  0  0  0
  3 11  1  0  0  0  0
  3 10  1  0  0  0  0
  5  7  1  6  0  0  0
  5  6  1  0  0  0  0
  6 13  1  6  0  0  0
  9  4  1  0  0  0  0
 10 35  1  1  0  0  0
 10  5  1  0  0  0  0
 11  8  1  1  0  0  0
 11  1  1  0  0  0  0
 12 13  2  0  0  0  0
 13 15  1  0  0  0  0
 15 16  1  0  0  0  0
 16 23  1  0  0  0  0
 16 14  2  0  0  0  0
 17 18  2  0  0  0  0
 17 22  1  0  0  0  0
 18 21  1  0  0  0  0
 19 20  1  0  0  0  0
 21 20  2  0  0  0  0
 22 15  1  6  0  0  0
 22 19  1  0  0  0  0
 23 24  2  0  0  0  0
 26 31  1  0  0  0  0
 27 26  2  0  0  0  0
 28 31  2  0  0  0  0
 28 25  1  0  0  0  0
 29 28  1  0  0  0  0
 30 27  1  0  0  0  0
 30 29  2  0  0  0  0
 31 23  1  0  0  0  0
 32 33  1  0  0  0  0
 32 30  1  1  0  0  0
 32 34  1  0  0  0  0
 33 34  1  0  0  0  0
 36 35  1  0  0  0  0
 37 36  2  0  0  0  0
 38 36  1  0  0  0  0
 39 44  1  6  0  0  0
 39 41  1  0  0  0  0
 39 38  1  0  0  0  0
 41 40  1  6  0  0  0
 42 41  1  0  0  0  0
 43 42  1  0  0  0  0
 46 45  1  6  0  0  0
 46 44  1  0  0  0  0
 47 48  1  6  0  0  0
 47 46  1  0  0  0  0
 49 50  1  0  0  0  0
 50 51  1  0  0  0  0
 50 47  1  0  0  0  0
 52 53  1  0  0  0  0
 52 51  1  0  0  0  0
 54 55  1  0  0  0  0
 55 53  1  0  0  0  0
M  END
>  <MODEL>
8

>  <REMARK>
 VINA RESULT:      -5.7      2.477      8.151
  Name = 
  19 active torsions:
  status: ('A' for Active; 'I' for Inactive)
    1  A    between atoms: C_1  and  C_21
    2  A    between atoms: C_1  and  N_53
    3  A    between atoms: C_3  and  O_25
    4  A    between atoms: C_3  and  O_38
    5  A    between atoms: C_6  and  C_14
    6  A    between atoms: C_6  and  O_22
    7  A    between atoms: C_6  and  C_46
    8  A    between atoms: C_8  and  O_22
    9  A    between atoms: C_8  and  O_54
   10  A    between atoms: C_10  and  C_48
   11  A    between atoms: C_14  and  C_20
   12  A    between atoms: C_19  and  C_37
   13  A    between atoms: C_21  and  C_46
   14  A    between atoms: C_26  and  N_45
   15  A    between atoms: C_29  and  O_38
   16  A    between atoms: C_29  and  N_53
   17  A    between atoms: C_33  and  C_49
   18  A    between atoms: C_33  and  C_52
   19  A    between atoms: C_51  and  O_54
                            x       y       z     vdW  Elec       q    Type
                         _______ _______ _______ _____ _____    ______ ____

>  <TORSDO>
F 19

$$$$
=
 OpenBabel11052419393D

 55 59  0  0  1  0  0  0  0  0999 V2000
  193.8630  174.5760  144.0510 C   0  0  0  0  0  2  0  0  0  0  0  0
  194.1240  177.1570  146.8860 C   0  0  0  0  0  2  0  0  0  0  0  0
  192.1220  175.6760  145.5240 C   0  0  1  0  0  3  0  0  0  0  0  0
  191.8250  176.8130  146.3010 O   0  0  0  0  0  0  0  0  0  0  0  0
  191.4650  174.9000  143.1500 C   0  0  2  0  0  3  0  0  0  0  0  0
  192.6630  173.9550  143.3220 C   0  0  1  0  0  3  0  0  0  0  0  0
  191.7860  175.9670  142.3100 O   0  0  0  0  0  1  0  0  0  0  0  0
  194.5740  176.0830  145.8990 C   0  0  0  0  0  2  0  0  0  0  0  0
  192.7220  176.8140  147.3820 C   0  0  0  0  0  2  0  0  0  0  0  0
  190.9910  175.4450  144.5030 C   0  0  1  0  0  3  0  0  0  0  0  0
  193.4980  175.8310  144.8450 C   0  0  1  0  0  3  0  0  0  0  0  0
  193.5470  173.8800  141.1200 O   0  0  0  0  0  0  0  0  0  0  0  0
  193.0330  173.2220  142.0640 C   0  0  0  0  0  0  0  0  0  0  0  0
  191.8700  170.0660  143.1310 O   0  0  0  0  0  0  0  0  0  0  0  0
  192.9070  171.7930  141.9430 N   0  0  0  0  0  0  0  0  0  0  0  0
  191.7360  171.0950  142.4130 C   0  0  0  0  0  0  0  0  0  0  0  0
  195.3490  171.5200  141.9900 C   0  0  0  0  0  3  0  0  0  0  0  0
  196.4980  171.3100  141.3400 C   0  0  0  0  0  3  0  0  0  0  0  0
  194.0650  171.1220  139.8600 C   0  0  0  0  0  2  0  0  0  0  0  0
  195.3520  170.5630  139.3160 C   0  0  0  0  0  3  0  0  0  0  0  0
  196.4930  170.6910  139.9990 C   0  0  0  0  0  3  0  0  0  0  0  0
  194.0450  171.0540  141.3940 C   0  0  2  0  0  3  0  0  0  0  0  0
  190.3870  171.5190  141.9860 C   0  0  0  0  0  0  0  0  0  0  0  0
  189.4630  171.5530  142.8430 O   0  0  0  0  0  0  0  0  0  0  0  0
  190.7990  169.3100  139.7600 Cl  0  0  0  0  0  0  0  0  0  0  0  0
  189.6440  173.1770  140.2930 C   0  0  0  0  0  3  0  0  0  0  0  0
  189.4000  173.5760  138.9790 C   0  0  0  0  0  3  0  0  0  0  0  0
  190.2940  170.9740  139.5110 C   0  0  0  0  0  0  0  0  0  0  0  0
  190.0420  171.3790  138.1980 C   0  0  0  0  0  3  0  0  0  0  0  0
  189.6140  172.6850  137.9220 C   0  0  0  0  0  0  0  0  0  0  0  0
  190.0970  171.8810  140.5790 C   0  0  0  0  0  0  0  0  0  0  0  0
  189.3130  173.1060  136.5170 C   0  0  1  0  0  3  0  0  0  0  0  0
  189.5780  174.5340  136.3410 C   0  0  0  0  0  2  0  0  0  0  0  0
  190.5480  173.5490  135.8450 N   0  0  0  0  0  2  0  0  0  0  0  0
  190.0180  174.5730  145.0600 O   0  0  0  0  0  0  0  0  0  0  0  0
  189.2520  174.9430  146.1630 C   0  0  0  0  0  0  0  0  0  0  0  0
  189.2270  174.1970  147.1770 O   0  0  0  0  0  0  0  0  0  0  0  0
  188.5070  176.1250  146.1360 O   0  0  0  0  0  0  0  0  0  0  0  0
  187.3180  176.2560  145.3720 C   0  0  1  0  0  3  0  0  0  0  0  0
  186.5620  176.8120  147.5980 O   0  0  0  0  0  1  0  0  0  0  0  0
  186.2240  176.8870  146.2410 C   0  0  1  0  0  3  0  0  0  0  0  0
  185.9630  178.3280  145.8360 C   0  0  0  0  0  2  0  0  0  0  0  0
  185.8750  179.1300  146.9740 O   0  0  0  0  0  1  0  0  0  0  0  0
  187.6190  177.0760  144.1220 C   0  0  0  0  0  2  0  0  0  0  0  0
  187.5860  175.0810  142.6510 C   0  0  0  0  0  1  0  0  0  0  0  0
  186.9870  176.4580  142.8830 C   0  0  2  0  0  3  0  0  0  0  0  0
  187.2240  177.3560  141.6650 C   0  0  1  0  0  3  0  0  0  0  0  0
  187.4550  176.5870  140.5150 O   0  0  0  0  0  1  0  0  0  0  0  0
  185.7520  178.2200  140.1560 O   0  0  0  0  0  1  0  0  0  0  0  0
  186.1080  178.2910  141.4620 N   0  0  0  0  0  0  0  0  0  0  0  0
  184.9500  177.8820  142.2480 C   0  0  0  0  0  2  0  0  0  0  0  0
  183.7970  177.9800  141.4680 O   0  0  0  0  0  0  0  0  0  0  0  0
  182.8290  178.4800  142.3400 C   0  0  0  0  0  2  0  0  0  0  0  0
  181.8340  177.9250  140.4540 C   0  0  0  0  0  1  0  0  0  0  0  0
  181.5760  178.4190  141.7310 O   0  0  0  0  0  0  0  0  0  0  0  0
  2  9  1  0  0  0  0
  3  4  1  6  0  0  0
  4  9  1  0  0  0  0
  5  7  1  6  0  0  0
  5  6  1  0  0  0  0
  5 10  1  0  0  0  0
  6 13  1  6  0  0  0
  6  1  1  0  0  0  0
  8  2  1  0  0  0  0
 10 35  1  1  0  0  0
 10  3  1  0  0  0  0
 11  1  1  1  0  0  0
 11  3  1  0  0  0  0
 11  8  1  0  0  0  0
 12 13  2  0  0  0  0
 15 13  1  0  0  0  0
 15 16  1  0  0  0  0
 16 14  2  0  0  0  0
 18 17  2  0  0  0  0
 19 22  1  0  0  0  0
 20 19  1  0  0  0  0
 20 21  2  0  0  0  0
 21 18  1  0  0  0  0
 22 15  1  1  0  0  0
 22 17  1  0  0  0  0
 23 16  1  0  0  0  0
 23 24  2  0  0  0  0
 26 31  1  0  0  0  0
 27 26  2  0  0  0  0
 28 25  1  0  0  0  0
 28 31  2  0  0  0  0
 29 28  1  0  0  0  0
 30 29  2  0  0  0  0
 30 27  1  0  0  0  0
 31 23  1  0  0  0  0
 32 30  1  1  0  0  0
 33 32  1  0  0  0  0
 34 33  1  0  0  0  0
 34 32  1  0  0  0  0
 35 36  1  0  0  0  0
 36 37  2  0  0  0  0
 38 36  1  0  0  0  0
 39 44  1  6  0  0  0
 39 38  1  0  0  0  0
 39 41  1  0  0  0  0
 41 40  1  1  0  0  0
 42 41  1  0  0  0  0
 42 43  1  0  0  0  0
 46 45  1  6  0  0  0
 46 44  1  0  0  0  0
 47 48  1  6  0  0  0
 47 46  1  0  0  0  0
 49 50  1  0  0  0  0
 50 47  1  0  0  0  0
 50 51  1  0  0  0  0
 52 51  1  0  0  0  0
 52 53  1  0  0  0  0
 54 55  1  0  0  0  0
 55 53  1  0  0  0  0
M  END
>  <MODEL>
9

>  <REMARK>
 VINA RESULT:      -5.7      2.505      6.438
  Name = 
  19 active torsions:
  status: ('A' for Active; 'I' for Inactive)
    1  A    between atoms: C_1  and  C_21
    2  A    between atoms: C_1  and  N_53
    3  A    between atoms: C_3  and  O_25
    4  A    between atoms: C_3  and  O_38
    5  A    between atoms: C_6  and  C_14
    6  A    between atoms: C_6  and  O_22
    7  A    between atoms: C_6  and  C_46
    8  A    between atoms: C_8  and  O_22
    9  A    between atoms: C_8  and  O_54
   10  A    between atoms: C_10  and  C_48
   11  A    between atoms: C_14  and  C_20
   12  A    between atoms: C_19  and  C_37
   13  A    between atoms: C_21  and  C_46
   14  A    between atoms: C_26  and  N_45
   15  A    between atoms: C_29  and  O_38
   16  A    between atoms: C_29  and  N_53
   17  A    between atoms: C_33  and  C_49
   18  A    between atoms: C_33  and  C_52
   19  A    between atoms: C_51  and  O_54
                            x       y       z     vdW  Elec       q    Type
                         _______ _______ _______ _____ _____    ______ ____

>  <TORSDO>
F 19

$$$$
