=
 OpenBabel11052417203D

 30 34  0  0  1  0  0  0  0  0999 V2000
  187.1290  177.0150  143.4950 C   0  0  0  0  0  0  0  0  0  0  0  0
  185.3690  177.4020  141.7580 C   0  0  0  0  0  3  0  0  0  0  0  0
  190.4960  174.9820  141.8010 C   0  0  0  0  0  2  0  0  0  0  0  0
  187.4930  177.2620  144.7870 C   0  0  0  0  0  0  0  0  0  0  0  0
  186.5150  177.8710  145.7430 C   0  0  0  0  0  0  0  0  0  0  0  0
  185.8510  178.6700  147.9530 C   0  0  0  0  0  3  0  0  0  0  0  0
  189.7410  174.9610  146.4840 C   0  0  0  0  0  2  0  0  0  0  0  0
  186.8180  178.1220  147.1050 C   0  0  0  0  0  0  0  0  0  0  0  0
  185.2220  178.1800  145.2780 C   0  0  0  0  0  0  0  0  0  0  0  0
  190.5330  175.5050  144.1090 C   0  0  2  0  0  3  0  0  0  0  0  0
  190.3480  174.4140  143.1380 N   0  0  0  0  0  0  0  0  0  0  0  0
  184.8800  177.9530  143.9470 O   0  0  0  0  0  0  0  0  0  0  0  0
  188.0310  177.8350  147.6380 F   0  0  0  0  0  0  0  0  0  0  0  0
  186.0480  176.9770  140.5260 C   0  0  0  0  0  3  0  0  0  0  0  0
  191.9520  175.7470  144.6590 C   0  0  0  0  0  2  0  0  0  0  0  0
  193.5590  175.3770  146.5010 C   0  0  0  0  0  1  0  0  0  0  0  0
  184.2650  178.7270  146.1360 C   0  0  0  0  0  3  0  0  0  0  0  0
  185.7870  177.4350  143.0220 C   0  0  0  0  0  0  0  0  0  0  0  0
  189.1810  174.8720  141.0120 C   0  0  0  0  0  2  0  0  0  0  0  0
  187.5660  176.0910  139.0230 O   0  0  0  0  0  1  0  0  0  0  0  0
  184.5790  178.9730  147.4720 C   0  0  0  0  0  3  0  0  0  0  0  0
  188.0340  176.1940  142.6850 C   0  0  0  0  0  3  0  0  0  0  0  0
  188.9200  177.0310  145.2610 C   0  0  0  0  0  2  0  0  0  0  0  0
  191.3400  173.3560  143.2900 C   0  0  0  0  0  1  0  0  0  0  0  0
  189.3900  175.5850  145.1320 C   0  0  2  0  0  3  0  0  0  0  0  0
  192.1830  175.0150  145.9770 C   0  0  1  0  0  3  0  0  0  0  0  0
  191.3540  174.8030  148.2070 F   0  0  0  0  0  0  0  0  0  0  0  0
  187.2050  176.3460  140.3410 C   0  0  0  0  0  0  0  0  0  0  0  0
  188.1130  175.8710  141.4010 C   0  0  0  0  0  0  0  0  0  0  0  0
  191.1080  175.4100  146.9880 C   0  0  2  0  0  3  0  0  0  0  0  0
  1  4  2  0  0  0  0
  2 18  2  0  0  0  0
  3 11  1  0  0  0  0
  4 23  1  0  0  0  0
  4  5  1  0  0  0  0
  5  8  1  0  0  0  0
  7 30  1  0  0  0  0
  8 13  1  0  0  0  0
  8  6  2  0  0  0  0
  9  5  2  0  0  0  0
  9 17  1  0  0  0  0
 10 15  1  1  0  0  0
 10 25  1  0  0  0  0
 11 24  1  0  0  0  0
 11 10  1  0  0  0  0
 12  9  1  0  0  0  0
 14  2  1  0  0  0  0
 15 26  1  0  0  0  0
 17 21  2  0  0  0  0
 18  1  1  0  0  0  0
 18 12  1  0  0  0  0
 19 29  1  0  0  0  0
 19  3  1  0  0  0  0
 20 28  1  0  0  0  0
 21  6  1  0  0  0  0
 22  1  1  0  0  0  0
 25 23  1  1  0  0  0
 25  7  1  0  0  0  0
 26 16  1  1  0  0  0
 26 30  1  0  0  0  0
 28 14  2  0  0  0  0
 28 29  1  0  0  0  0
 29 22  2  0  0  0  0
 30 27  1  1  0  0  0
M  END
>  <MODEL>
1

>  <REMARK>
 VINA RESULT:      -8.7      0.000      0.000
  Name = 
  0 active torsions:
  status: ('A' for Active; 'I' for Inactive)
                            x       y       z     vdW  Elec       q    Type
                         _______ _______ _______ _____ _____    ______ ____

>  <TORSDO>
F 0

$$$$
=
 OpenBabel11052417203D

 30 34  0  0  1  0  0  0  0  0999 V2000
  190.1380  174.7170  143.3300 C   0  0  0  0  0  0  0  0  0  0  0  0
  192.1470  173.3010  143.8020 C   0  0  0  0  0  3  0  0  0  0  0  0
  189.0780  177.0250  146.7780 C   0  0  0  0  0  2  0  0  0  0  0  0
  189.2590  175.1190  142.3670 C   0  0  0  0  0  0  0  0  0  0  0  0
  189.2450  174.4450  141.0300 C   0  0  0  0  0  0  0  0  0  0  0  0
  188.3590  174.1050  138.7800 C   0  0  0  0  0  3  0  0  0  0  0  0
  185.9270  176.2150  143.3270 C   0  0  0  0  0  2  0  0  0  0  0  0
  188.3370  174.7910  139.9980 C   0  0  0  0  0  0  0  0  0  0  0  0
  190.1560  173.3960  140.7960 C   0  0  0  0  0  0  0  0  0  0  0  0
  187.7400  177.2140  144.8350 C   0  0  2  0  0  3  0  0  0  0  0  0
  187.8030  176.6300  146.1850 N   0  0  0  0  0  0  0  0  0  0  0  0
  191.0680  173.0230  141.7790 O   0  0  0  0  0  0  0  0  0  0  0  0
  187.4160  175.7740  140.1490 F   0  0  0  0  0  0  0  0  0  0  0  0
  192.5630  173.7820  145.1270 C   0  0  0  0  0  3  0  0  0  0  0  0
  187.0800  178.5980  144.6790 C   0  0  0  0  0  2  0  0  0  0  0  0
  185.0520  179.8780  144.0810 C   0  0  0  0  0  1  0  0  0  0  0  0
  190.1660  172.7180  139.5740 C   0  0  0  0  0  3  0  0  0  0  0  0
  191.1380  173.6680  143.0140 C   0  0  0  0  0  0  0  0  0  0  0  0
  189.9620  175.7950  147.0420 C   0  0  0  0  0  2  0  0  0  0  0  0
  192.6350  174.8520  147.1760 O   0  0  0  0  0  1  0  0  0  0  0  0
  189.2710  173.0730  138.5670 C   0  0  0  0  0  3  0  0  0  0  0  0
  189.9340  175.2360  144.6860 C   0  0  0  0  0  3  0  0  0  0  0  0
  188.3520  176.3220  142.5800 C   0  0  0  0  0  2  0  0  0  0  0  0
  186.7350  177.1110  147.0520 C   0  0  0  0  0  1  0  0  0  0  0  0
  187.3940  176.1750  143.7580 C   0  0  2  0  0  3  0  0  0  0  0  0
  185.6050  178.4850  144.3100 C   0  0  1  0  0  3  0  0  0  0  0  0
  184.1160  177.5880  142.6730 F   0  0  0  0  0  0  0  0  0  0  0  0
  191.9560  174.5930  145.9910 C   0  0  0  0  0  0  0  0  0  0  0  0
  190.6290  175.2090  145.8160 C   0  0  0  0  0  0  0  0  0  0  0  0
  185.4450  177.6350  143.0520 C   0  0  2  0  0  3  0  0  0  0  0  0
  1 22  1  0  0  0  0
  2 14  1  0  0  0  0
  3 19  1  0  0  0  0
  4 23  1  0  0  0  0
  4  1  2  0  0  0  0
  5  4  1  0  0  0  0
  6  8  1  0  0  0  0
  7 25  1  0  0  0  0
  8 13  1  0  0  0  0
  8  5  2  0  0  0  0
  9  5  1  0  0  0  0
  9 12  1  0  0  0  0
 10 15  1  1  0  0  0
 10 11  1  0  0  0  0
 11  3  1  0  0  0  0
 11 24  1  0  0  0  0
 12 18  1  0  0  0  0
 14 28  2  0  0  0  0
 17  9  2  0  0  0  0
 18  1  1  0  0  0  0
 18  2  2  0  0  0  0
 21  6  2  0  0  0  0
 21 17  1  0  0  0  0
 22 29  2  0  0  0  0
 25 23  1  6  0  0  0
 25 10  1  0  0  0  0
 26 16  1  6  0  0  0
 26 15  1  0  0  0  0
 28 20  1  0  0  0  0
 29 28  1  0  0  0  0
 29 19  1  0  0  0  0
 30 27  1  1  0  0  0
 30  7  1  0  0  0  0
 30 26  1  0  0  0  0
M  END
>  <MODEL>
2

>  <REMARK>
 VINA RESULT:      -8.6      3.112      7.261
  Name = 
  0 active torsions:
  status: ('A' for Active; 'I' for Inactive)
                            x       y       z     vdW  Elec       q    Type
                         _______ _______ _______ _____ _____    ______ ____

>  <TORSDO>
F 0

$$$$
=
 OpenBabel11052417203D

 30 34  0  0  1  0  0  0  0  0999 V2000
  187.1830  177.5650  144.2670 C   0  0  0  0  0  0  0  0  0  0  0  0
  185.4130  179.0790  145.1840 C   0  0  0  0  0  3  0  0  0  0  0  0
  189.9420  176.4380  147.3420 C   0  0  0  0  0  2  0  0  0  0  0  0
  187.5970  176.8720  143.1660 C   0  0  0  0  0  0  0  0  0  0  0  0
  186.9330  177.0940  141.8430 C   0  0  0  0  0  0  0  0  0  0  0  0
  186.6920  176.7050  139.4430 C   0  0  0  0  0  3  0  0  0  0  0  0
  191.1260  176.0940  142.7620 C   0  0  0  0  0  2  0  0  0  0  0  0
  187.3360  176.4330  140.6540 C   0  0  0  0  0  0  0  0  0  0  0  0
  185.8810  178.0270  141.7640 C   0  0  0  0  0  0  0  0  0  0  0  0
  190.3060  175.6360  145.1450 C   0  0  2  0  0  3  0  0  0  0  0  0
  190.7630  176.6130  146.1470 N   0  0  0  0  0  0  0  0  0  0  0  0
  185.4510  178.6990  142.9060 O   0  0  0  0  0  0  0  0  0  0  0  0
  188.3520  175.5370  140.6380 F   0  0  0  0  0  0  0  0  0  0  0  0
  185.6870  179.0400  146.6260 C   0  0  0  0  0  3  0  0  0  0  0  0
  191.0100  174.2660  145.1020 C   0  0  0  0  0  2  0  0  0  0  0  0
  192.7230  172.8410  144.0320 C   0  0  0  0  0  1  0  0  0  0  0  0
  185.2470  178.2900  140.5470 C   0  0  0  0  0  3  0  0  0  0  0  0
  186.0150  178.4740  144.1610 C   0  0  0  0  0  0  0  0  0  0  0  0
  189.1070  177.6980  147.6210 C   0  0  0  0  0  2  0  0  0  0  0  0
  186.6620  178.6650  148.6900 O   0  0  0  0  0  1  0  0  0  0  0  0
  185.6500  177.6290  139.3890 C   0  0  0  0  0  3  0  0  0  0  0  0
  188.0260  177.4930  145.4640 C   0  0  0  0  0  3  0  0  0  0  0  0
  188.6570  175.7860  143.2710 C   0  0  0  0  0  2  0  0  0  0  0  0
  192.1570  176.4160  146.5260 C   0  0  0  0  0  1  0  0  0  0  0  0
  190.0050  176.2830  143.7850 C   0  0  2  0  0  3  0  0  0  0  0  0
  192.1460  174.2420  144.0850 C   0  0  1  0  0  3  0  0  0  0  0  0
  192.6340  174.5660  141.7700 F   0  0  0  0  0  0  0  0  0  0  0  0
  186.7130  178.5340  147.3070 C   0  0  0  0  0  0  0  0  0  0  0  0
  187.8990  177.8790  146.7270 C   0  0  0  0  0  0  0  0  0  0  0  0
  191.6230  174.6540  142.7110 C   0  0  2  0  0  3  0  0  0  0  0  0
  1 22  1  0  0  0  0
  2 14  1  0  0  0  0
  3 19  1  0  0  0  0
  4 23  1  0  0  0  0
  4  1  2  0  0  0  0
  5  4  1  0  0  0  0
  6  8  1  0  0  0  0
  8  5  2  0  0  0  0
  9  5  1  0  0  0  0
  9 12  1  0  0  0  0
 10 15  1  6  0  0  0
 10 11  1  0  0  0  0
 11 24  1  0  0  0  0
 11  3  1  0  0  0  0
 12 18  1  0  0  0  0
 13  8  1  0  0  0  0
 14 28  2  0  0  0  0
 17  9  2  0  0  0  0
 18  1  1  0  0  0  0
 18  2  2  0  0  0  0
 21  6  2  0  0  0  0
 21 17  1  0  0  0  0
 22 29  2  0  0  0  0
 23 25  1  0  0  0  0
 25  7  1  6  0  0  0
 25 10  1  0  0  0  0
 26 16  1  6  0  0  0
 26 15  1  0  0  0  0
 28 20  1  0  0  0  0
 29 28  1  0  0  0  0
 29 19  1  0  0  0  0
 30 27  1  6  0  0  0
 30  7  1  0  0  0  0
 30 26  1  0  0  0  0
M  END
>  <MODEL>
3

>  <REMARK>
 VINA RESULT:      -8.2      2.466      5.147
  Name = 
  0 active torsions:
  status: ('A' for Active; 'I' for Inactive)
                            x       y       z     vdW  Elec       q    Type
                         _______ _______ _______ _____ _____    ______ ____

>  <TORSDO>
F 0

$$$$
=
 OpenBabel11052417203D

 30 34  0  0  1  0  0  0  0  0999 V2000
  190.5210  174.3990  142.4750 C   0  0  0  0  0  0  0  0  0  0  0  0
  191.1710  173.3480  140.2980 C   0  0  0  0  0  3  0  0  0  0  0  0
  186.7310  176.3610  142.1290 C   0  0  0  0  0  2  0  0  0  0  0  0
  190.8620  174.5440  143.7890 C   0  0  0  0  0  0  0  0  0  0  0  0
  192.1970  174.0750  144.2770 C   0  0  0  0  0  0  0  0  0  0  0  0
  193.8970  173.7880  146.0070 C   0  0  0  0  0  3  0  0  0  0  0  0
  189.7440  177.4820  145.6160 C   0  0  0  0  0  2  0  0  0  0  0  0
  192.6260  174.2250  145.6200 C   0  0  0  0  0  0  0  0  0  0  0  0
  193.0830  173.4860  143.3540 C   0  0  0  0  0  0  0  0  0  0  0  0
  187.8700  176.4580  144.2010 C   0  0  2  0  0  3  0  0  0  0  0  0
  187.5250  177.2290  142.9950 N   0  0  0  0  0  0  0  0  0  0  0  0
  192.7040  173.3170  142.0250 O   0  0  0  0  0  0  0  0  0  0  0  0
  191.8440  174.7990  146.5660 F   0  0  0  0  0  0  0  0  0  0  0  0
  189.9570  173.5290  139.4910 C   0  0  0  0  0  3  0  0  0  0  0  0
  186.9260  176.5580  145.4140 C   0  0  0  0  0  2  0  0  0  0  0  0
  186.4620  177.5990  147.6080 C   0  0  0  0  0  1  0  0  0  0  0  0
  194.3510  173.0560  143.7540 C   0  0  0  0  0  3  0  0  0  0  0  0
  191.4480  173.6960  141.5530 C   0  0  0  0  0  0  0  0  0  0  0  0
  187.4660  176.0890  140.8060 C   0  0  0  0  0  2  0  0  0  0  0  0
  187.8760  174.1950  138.7330 O   0  0  0  0  0  1  0  0  0  0  0  0
  194.7570  173.2050  145.0790 C   0  0  0  0  0  3  0  0  0  0  0  0
  189.3190  175.0980  142.0100 C   0  0  0  0  0  3  0  0  0  0  0  0
  189.8650  175.0770  144.8070 C   0  0  0  0  0  2  0  0  0  0  0  0
  186.7290  178.4130  143.2970 C   0  0  0  0  0  1  0  0  0  0  0  0
  189.3740  176.4910  144.5110 C   0  0  2  0  0  3  0  0  0  0  0  0
  187.3800  177.6270  146.4020 C   0  0  1  0  0  3  0  0  0  0  0  0
  189.2180  178.2910  147.7750 F   0  0  0  0  0  0  0  0  0  0  0  0
  188.8550  174.2410  139.7180 C   0  0  0  0  0  0  0  0  0  0  0  0
  188.5990  175.0890  140.8960 C   0  0  0  0  0  0  0  0  0  0  0  0
  188.8240  177.3650  146.8260 C   0  0  2  0  0  3  0  0  0  0  0  0
  1  4  2  0  0  0  0
  2 18  2  0  0  0  0
  3 11  1  0  0  0  0
  4  5  1  0  0  0  0
  4 23  1  0  0  0  0
  5  8  2  0  0  0  0
  7 30  1  0  0  0  0
  8  6  1  0  0  0  0
  8 13  1  0  0  0  0
  9 17  2  0  0  0  0
  9  5  1  0  0  0  0
 10 25  1  0  0  0  0
 10 15  1  1  0  0  0
 11 24  1  0  0  0  0
 11 10  1  0  0  0  0
 12  9  1  0  0  0  0
 14 28  2  0  0  0  0
 14  2  1  0  0  0  0
 15 26  1  0  0  0  0
 17 21  1  0  0  0  0
 18 12  1  0  0  0  0
 18  1  1  0  0  0  0
 19 29  1  0  0  0  0
 19  3  1  0  0  0  0
 20 28  1  0  0  0  0
 21  6  2  0  0  0  0
 22  1  1  0  0  0  0
 25 23  1  1  0  0  0
 25  7  1  0  0  0  0
 26 30  1  0  0  0  0
 26 16  1  1  0  0  0
 28 29  1  0  0  0  0
 29 22  2  0  0  0  0
 30 27  1  1  0  0  0
M  END
>  <MODEL>
4

>  <REMARK>
 VINA RESULT:      -8.2      2.097      6.057
  Name = 
  0 active torsions:
  status: ('A' for Active; 'I' for Inactive)
                            x       y       z     vdW  Elec       q    Type
                         _______ _______ _______ _____ _____    ______ ____

>  <TORSDO>
F 0

$$$$
=
 OpenBabel11052417203D

 30 34  0  0  1  0  0  0  0  0999 V2000
  189.2120  175.4850  143.5590 C   0  0  0  0  0  0  0  0  0  0  0  0
  186.9170  176.4790  143.6770 C   0  0  0  0  0  3  0  0  0  0  0  0
  191.3440  176.1820  147.2070 C   0  0  0  0  0  2  0  0  0  0  0  0
  190.0600  174.7240  142.8080 C   0  0  0  0  0  0  0  0  0  0  0  0
  189.7030  174.3670  141.3980 C   0  0  0  0  0  0  0  0  0  0  0  0
  190.1720  173.3300  139.2370 C   0  0  0  0  0  3  0  0  0  0  0  0
  193.6530  175.1290  143.1990 C   0  0  0  0  0  2  0  0  0  0  0  0
  190.5530  173.6090  140.5530 C   0  0  0  0  0  0  0  0  0  0  0  0
  188.4810  174.8310  140.8740 C   0  0  0  0  0  0  0  0  0  0  0  0
  192.4440  175.0310  145.4560 C   0  0  2  0  0  3  0  0  0  0  0  0
  192.3460  176.3230  146.1540 N   0  0  0  0  0  0  0  0  0  0  0  0
  187.6140  175.5770  141.6670 O   0  0  0  0  0  0  0  0  0  0  0  0
  191.7540  173.1410  140.9730 F   0  0  0  0  0  0  0  0  0  0  0  0
  186.8320  176.9000  145.0810 C   0  0  0  0  0  3  0  0  0  0  0  0
  193.4960  174.0210  145.9530 C   0  0  0  0  0  2  0  0  0  0  0  0
  195.7490  173.0500  145.6550 C   0  0  0  0  0  1  0  0  0  0  0  0
  188.1140  174.5460  139.5560 C   0  0  0  0  0  3  0  0  0  0  0  0
  187.8960  175.8810  142.9990 C   0  0  0  0  0  0  0  0  0  0  0  0
  190.1430  177.1060  146.9460 C   0  0  0  0  0  2  0  0  0  0  0  0
  187.3420  177.4120  147.2790 O   0  0  0  0  0  1  0  0  0  0  0  0
  188.9570  173.7960  138.7390 C   0  0  0  0  0  3  0  0  0  0  0  0
  189.7240  176.0100  144.8290 C   0  0  0  0  0  3  0  0  0  0  0  0
  191.3260  174.1310  143.4070 C   0  0  0  0  0  2  0  0  0  0  0  0
  193.6030  176.7170  146.7790 C   0  0  0  0  0  1  0  0  0  0  0  0
  192.3100  175.1720  143.9320 C   0  0  2  0  0  3  0  0  0  0  0  0
  194.8030  174.1340  145.1760 C   0  0  1  0  0  3  0  0  0  0  0  0
  195.7260  174.0140  142.9770 F   0  0  0  0  0  0  0  0  0  0  0  0
  187.7630  176.9630  146.0320 C   0  0  0  0  0  0  0  0  0  0  0  0
  189.1900  176.6320  145.8710 C   0  0  0  0  0  0  0  0  0  0  0  0
  194.5350  173.9830  143.6800 C   0  0  2  0  0  3  0  0  0  0  0  0
  1 22  1  0  0  0  0
  2 14  1  0  0  0  0
  4 23  1  0  0  0  0
  4  1  2  0  0  0  0
  5  4  1  0  0  0  0
  6  8  1  0  0  0  0
  7 30  1  0  0  0  0
  8 13  1  0  0  0  0
  8  5  2  0  0  0  0
  9  5  1  0  0  0  0
  9 12  1  0  0  0  0
 10 15  1  6  0  0  0
 10 11  1  0  0  0  0
 11 24  1  0  0  0  0
 11  3  1  0  0  0  0
 12 18  1  0  0  0  0
 14 28  2  0  0  0  0
 17  9  2  0  0  0  0
 18  1  1  0  0  0  0
 18  2  2  0  0  0  0
 19  3  1  0  0  0  0
 21  6  2  0  0  0  0
 21 17  1  0  0  0  0
 22 29  2  0  0  0  0
 23 25  1  0  0  0  0
 25  7  1  6  0  0  0
 25 10  1  0  0  0  0
 26 16  1  1  0  0  0
 26 15  1  0  0  0  0
 28 20  1  0  0  0  0
 29 28  1  0  0  0  0
 29 19  1  0  0  0  0
 30 27  1  6  0  0  0
 30 26  1  0  0  0  0
M  END
>  <MODEL>
5

>  <REMARK>
 VINA RESULT:      -8.2      2.907      5.904
  Name = 
  0 active torsions:
  status: ('A' for Active; 'I' for Inactive)
                            x       y       z     vdW  Elec       q    Type
                         _______ _______ _______ _____ _____    ______ ____

>  <TORSDO>
F 0

$$$$
=
 OpenBabel11052417203D

 30 34  0  0  1  0  0  0  0  0999 V2000
  188.8540  176.3880  145.2260 C   0  0  0  0  0  0  0  0  0  0  0  0
  189.6770  177.1280  147.4710 C   0  0  0  0  0  3  0  0  0  0  0  0
  191.7290  173.8430  143.3310 C   0  0  0  0  0  2  0  0  0  0  0  0
  187.7960  176.4090  144.3640 C   0  0  0  0  0  0  0  0  0  0  0  0
  186.6200  177.2960  144.6340 C   0  0  0  0  0  0  0  0  0  0  0  0
  184.4500  178.2580  144.0620 C   0  0  0  0  0  3  0  0  0  0  0  0
  188.3870  176.0530  140.7930 C   0  0  0  0  0  2  0  0  0  0  0  0
  185.5050  177.3900  143.7640 C   0  0  0  0  0  0  0  0  0  0  0  0
  186.6350  178.0990  145.7910 C   0  0  0  0  0  0  0  0  0  0  0  0
  189.7360  174.3620  142.1650 C   0  0  2  0  0  3  0  0  0  0  0  0
  191.1770  174.6540  142.2500 N   0  0  0  0  0  0  0  0  0  0  0  0
  187.7080  178.0390  146.6760 O   0  0  0  0  0  0  0  0  0  0  0  0
  185.4210  176.6670  142.6200 F   0  0  0  0  0  0  0  0  0  0  0  0
  190.8940  176.3230  147.6370 C   0  0  0  0  0  3  0  0  0  0  0  0
  189.2820  173.2480  141.2030 C   0  0  0  0  0  2  0  0  0  0  0  0
  188.3630  172.6660  138.9830 C   0  0  0  0  0  1  0  0  0  0  0  0
  185.5740  178.9620  146.0760 C   0  0  0  0  0  3  0  0  0  0  0  0
  188.7920  177.1840  146.4770 C   0  0  0  0  0  0  0  0  0  0  0  0
  192.2670  174.7340  144.4630 C   0  0  0  0  0  2  0  0  0  0  0  0
  192.6910  174.9150  147.2630 O   0  0  0  0  0  1  0  0  0  0  0  0
  184.4820  179.0410  145.2140 C   0  0  0  0  0  3  0  0  0  0  0  0
  190.0700  175.7010  144.7820 C   0  0  0  0  0  3  0  0  0  0  0  0
  187.7290  175.4620  143.1750 C   0  0  0  0  0  2  0  0  0  0  0  0
  191.8890  174.3150  141.0240 C   0  0  0  0  0  1  0  0  0  0  0  0
  188.8750  175.6340  142.1810 C   0  0  2  0  0  3  0  0  0  0  0  0
  188.8860  173.8030  139.8390 C   0  0  1  0  0  3  0  0  0  0  0  0
  187.4030  175.3370  138.7660 F   0  0  0  0  0  0  0  0  0  0  0  0
  191.5550  175.5520  146.7760 C   0  0  0  0  0  0  0  0  0  0  0  0
  191.2100  175.3410  145.3590 C   0  0  0  0  0  0  0  0  0  0  0  0
  187.8160  174.8800  140.0040 C   0  0  2  0  0  3  0  0  0  0  0  0
  1 18  1  0  0  0  0
  2 14  1  0  0  0  0
  3 19  1  0  0  0  0
  4  5  1  0  0  0  0
  4  1  2  0  0  0  0
  5  9  1  0  0  0  0
  6 21  2  0  0  0  0
  8  6  1  0  0  0  0
  8  5  2  0  0  0  0
  9 17  2  0  0  0  0
  9 12  1  0  0  0  0
 10 15  1  6  0  0  0
 10 25  1  0  0  0  0
 10 11  1  0  0  0  0
 11  3  1  0  0  0  0
 13  8  1  0  0  0  0
 18 12  1  0  0  0  0
 18  2  2  0  0  0  0
 19 29  1  0  0  0  0
 21 17  1  0  0  0  0
 22  1  1  0  0  0  0
 22 29  2  0  0  0  0
 23  4  1  0  0  0  0
 24 11  1  0  0  0  0
 25  7  1  6  0  0  0
 25 23  1  0  0  0  0
 26 16  1  6  0  0  0
 26 30  1  0  0  0  0
 26 15  1  0  0  0  0
 28 20  1  0  0  0  0
 28 14  2  0  0  0  0
 29 28  1  0  0  0  0
 30 27  1  6  0  0  0
 30  7  1  0  0  0  0
M  END
>  <MODEL>
6

>  <REMARK>
 VINA RESULT:      -8.1      2.945      5.351
  Name = 
  0 active torsions:
  status: ('A' for Active; 'I' for Inactive)
                            x       y       z     vdW  Elec       q    Type
                         _______ _______ _______ _____ _____    ______ ____

>  <TORSDO>
F 0

$$$$
=
 OpenBabel11052417203D

 30 34  0  0  1  0  0  0  0  0999 V2000
  189.3390  175.3290  142.0560 C   0  0  0  0  0  0  0  0  0  0  0  0
  188.2280  174.4390  139.9970 C   0  0  0  0  0  3  0  0  0  0  0  0
  193.3060  173.7590  142.4250 C   0  0  0  0  0  2  0  0  0  0  0  0
  189.2160  176.1960  143.1030 C   0  0  0  0  0  0  0  0  0  0  0  0
  187.9060  176.8680  143.3750 C   0  0  0  0  0  0  0  0  0  0  0  0
  186.4450  178.3280  144.6790 C   0  0  0  0  0  3  0  0  0  0  0  0
  191.0370  175.5530  146.1850 C   0  0  0  0  0  2  0  0  0  0  0  0
  187.7010  177.7520  144.4650 C   0  0  0  0  0  0  0  0  0  0  0  0
  186.8150  176.5850  142.5300 C   0  0  0  0  0  0  0  0  0  0  0  0
  192.5030  175.2130  144.1120 C   0  0  2  0  0  3  0  0  0  0  0  0
  192.7920  173.8050  143.7920 N   0  0  0  0  0  0  0  0  0  0  0  0
  186.9700  175.7240  141.4470 O   0  0  0  0  0  0  0  0  0  0  0  0
  188.6920  178.0620  145.3360 F   0  0  0  0  0  0  0  0  0  0  0  0
  189.3270  173.7270  139.3330 C   0  0  0  0  0  3  0  0  0  0  0  0
  193.6130  176.0410  144.7850 C   0  0  0  0  0  2  0  0  0  0  0  0
  194.5440  176.9500  146.8870 C   0  0  0  0  0  1  0  0  0  0  0  0
  185.5650  177.1660  142.7570 C   0  0  0  0  0  3  0  0  0  0  0  0
  188.1910  175.1250  141.1380 C   0  0  0  0  0  0  0  0  0  0  0  0
  192.3560  172.9690  141.5100 C   0  0  0  0  0  2  0  0  0  0  0  0
  191.3590  172.7260  138.8650 O   0  0  0  0  0  1  0  0  0  0  0  0
  185.3800  178.0380  143.8290 C   0  0  0  0  0  3  0  0  0  0  0  0
  190.5590  174.5180  141.9930 C   0  0  0  0  0  3  0  0  0  0  0  0
  190.4190  176.5870  143.9480 C   0  0  0  0  0  2  0  0  0  0  0  0
  193.8010  173.2270  144.6720 C   0  0  0  0  0  1  0  0  0  0  0  0
  191.0830  175.4130  144.6620 C   0  0  2  0  0  3  0  0  0  0  0  0
  193.4800  176.0410  146.3040 C   0  0  1  0  0  3  0  0  0  0  0  0
  191.9860  176.5940  148.0840 F   0  0  0  0  0  0  0  0  0  0  0  0
  190.5500  173.4160  139.7600 C   0  0  0  0  0  0  0  0  0  0  0  0
  191.1030  173.7090  141.0940 C   0  0  0  0  0  0  0  0  0  0  0  0
  192.0890  176.5250  146.7060 C   0  0  2  0  0  3  0  0  0  0  0  0
  1  4  2  0  0  0  0
  2 18  2  0  0  0  0
  3 11  1  0  0  0  0
  4  5  1  0  0  0  0
  4 23  1  0  0  0  0
  5  8  2  0  0  0  0
  7 30  1  0  0  0  0
  8  6  1  0  0  0  0
  8 13  1  0  0  0  0
  9 17  2  0  0  0  0
  9  5  1  0  0  0  0
 10 25  1  0  0  0  0
 10 15  1  1  0  0  0
 11 10  1  0  0  0  0
 11 24  1  0  0  0  0
 12  9  1  0  0  0  0
 14 28  2  0  0  0  0
 14  2  1  0  0  0  0
 15 26  1  0  0  0  0
 17 21  1  0  0  0  0
 18 12  1  0  0  0  0
 18  1  1  0  0  0  0
 19  3  1  0  0  0  0
 20 28  1  0  0  0  0
 21  6  2  0  0  0  0
 22  1  1  0  0  0  0
 25 23  1  6  0  0  0
 25  7  1  0  0  0  0
 26 30  1  0  0  0  0
 26 16  1  1  0  0  0
 28 29  1  0  0  0  0
 29 19  1  0  0  0  0
 29 22  2  0  0  0  0
 30 27  1  1  0  0  0
M  END
>  <MODEL>
7

>  <REMARK>
 VINA RESULT:      -8.1      1.881      3.175
  Name = 
  0 active torsions:
  status: ('A' for Active; 'I' for Inactive)
                            x       y       z     vdW  Elec       q    Type
                         _______ _______ _______ _____ _____    ______ ____

>  <TORSDO>
F 0

$$$$
=
 OpenBabel11052417203D

 30 34  0  0  1  0  0  0  0  0999 V2000
  187.1230  177.0210  143.6950 C   0  0  0  0  0  0  0  0  0  0  0  0
  185.5030  178.8030  144.3790 C   0  0  0  0  0  3  0  0  0  0  0  0
  189.3140  175.5940  147.0860 C   0  0  0  0  0  2  0  0  0  0  0  0
  187.5540  176.2440  142.6590 C   0  0  0  0  0  0  0  0  0  0  0  0
  187.0870  176.5220  141.2640 C   0  0  0  0  0  0  0  0  0  0  0  0
  187.0660  176.1020  138.8580 C   0  0  0  0  0  3  0  0  0  0  0  0
  190.9520  174.9490  142.6820 C   0  0  0  0  0  2  0  0  0  0  0  0
  187.5210  175.7750  140.1390 C   0  0  0  0  0  0  0  0  0  0  0  0
  186.2000  177.5950  141.0520 C   0  0  0  0  0  0  0  0  0  0  0  0
  189.8060  174.6850  144.9570 C   0  0  2  0  0  3  0  0  0  0  0  0
  190.2840  175.6140  145.9940 N   0  0  0  0  0  0  0  0  0  0  0  0
  185.7450  178.3550  142.1260 O   0  0  0  0  0  0  0  0  0  0  0  0
  188.3880  174.7400  140.2530 F   0  0  0  0  0  0  0  0  0  0  0  0
  185.6020  178.7660  145.8440 C   0  0  0  0  0  3  0  0  0  0  0  0
  190.2990  173.2260  145.0140 C   0  0  0  0  0  2  0  0  0  0  0  0
  191.8940  171.5370  144.1700 C   0  0  0  0  0  1  0  0  0  0  0  0
  185.7550  177.9110  139.7650 C   0  0  0  0  0  3  0  0  0  0  0  0
  186.1220  178.0860  143.4420 C   0  0  0  0  0  0  0  0  0  0  0  0
  188.6490  176.9700  147.2500 C   0  0  0  0  0  2  0  0  0  0  0  0
  186.2680  178.3130  148.0120 O   0  0  0  0  0  1  0  0  0  0  0  0
  186.1860  177.1650  138.6700 C   0  0  0  0  0  3  0  0  0  0  0  0
  187.8040  176.8620  144.9840 C   0  0  0  0  0  3  0  0  0  0  0  0
  188.4220  175.0180  142.9010 C   0  0  0  0  0  2  0  0  0  0  0  0
  191.5810  175.2270  146.5370 C   0  0  0  0  0  1  0  0  0  0  0  0
  189.7610  175.3290  143.5630 C   0  0  2  0  0  3  0  0  0  0  0  0
  191.5280  173.0080  144.1380 C   0  0  1  0  0  3  0  0  0  0  0  0
  192.3210  173.1900  141.8920 F   0  0  0  0  0  0  0  0  0  0  0  0
  186.4570  178.1360  146.6470 C   0  0  0  0  0  0  0  0  0  0  0  0
  187.5920  177.2990  146.2180 C   0  0  0  0  0  0  0  0  0  0  0  0
  191.2330  173.4510  142.7060 C   0  0  2  0  0  3  0  0  0  0  0  0
  1 22  1  0  0  0  0
  2 14  1  0  0  0  0
  3 19  1  0  0  0  0
  4 23  1  0  0  0  0
  4  1  2  0  0  0  0
  5  4  1  0  0  0  0
  6  8  1  0  0  0  0
  7 30  1  0  0  0  0
  8 13  1  0  0  0  0
  8  5  2  0  0  0  0
  9  5  1  0  0  0  0
  9 12  1  0  0  0  0
 10 15  1  6  0  0  0
 10 11  1  0  0  0  0
 11 24  1  0  0  0  0
 11  3  1  0  0  0  0
 12 18  1  0  0  0  0
 14 28  2  0  0  0  0
 17  9  2  0  0  0  0
 18  1  1  0  0  0  0
 18  2  2  0  0  0  0
 21  6  2  0  0  0  0
 21 17  1  0  0  0  0
 22 29  2  0  0  0  0
 23 25  1  0  0  0  0
 25  7  1  6  0  0  0
 25 10  1  0  0  0  0
 26 16  1  6  0  0  0
 26 15  1  0  0  0  0
 28 20  1  0  0  0  0
 29 28  1  0  0  0  0
 29 19  1  0  0  0  0
 30 27  1  6  0  0  0
 30 26  1  0  0  0  0
M  END
>  <MODEL>
8

>  <REMARK>
 VINA RESULT:      -8.1      2.412      5.241
  Name = 
  0 active torsions:
  status: ('A' for Active; 'I' for Inactive)
                            x       y       z     vdW  Elec       q    Type
                         _______ _______ _______ _____ _____    ______ ____

>  <TORSDO>
F 0

$$$$
=
 OpenBabel11052417203D

 30 34  0  0  1  0  0  0  0  0999 V2000
  187.2360  176.7890  142.1630 C   0  0  0  0  0  0  0  0  0  0  0  0
  185.5830  178.6650  142.2880 C   0  0  0  0  0  3  0  0  0  0  0  0
  189.0210  176.0960  145.9920 C   0  0  0  0  0  2  0  0  0  0  0  0
  187.7620  175.8190  141.3600 C   0  0  0  0  0  0  0  0  0  0  0  0
  187.4540  175.8040  139.8950 C   0  0  0  0  0  0  0  0  0  0  0  0
  187.6870  174.9020  137.6370 C   0  0  0  0  0  3  0  0  0  0  0  0
  191.1150  174.5740  142.0180 C   0  0  0  0  0  2  0  0  0  0  0  0
  187.9940  174.8460  139.0000 C   0  0  0  0  0  0  0  0  0  0  0  0
  186.6140  176.8070  139.3730 C   0  0  0  0  0  0  0  0  0  0  0  0
  189.7250  174.7740  144.1600 C   0  0  2  0  0  3  0  0  0  0  0  0
  190.1040  175.8980  145.0320 N   0  0  0  0  0  0  0  0  0  0  0  0
  186.0590  177.7680  140.2130 O   0  0  0  0  0  0  0  0  0  0  0  0
  188.8260  173.8600  139.4170 F   0  0  0  0  0  0  0  0  0  0  0  0
  185.5210  178.9290  143.7320 C   0  0  0  0  0  3  0  0  0  0  0  0
  190.1830  173.3600  144.5660 C   0  0  0  0  0  2  0  0  0  0  0  0
  191.8310  171.5420  144.2630 C   0  0  0  0  0  1  0  0  0  0  0  0
  186.3170  176.8520  138.0080 C   0  0  0  0  0  3  0  0  0  0  0  0
  186.2870  177.7760  141.5900 C   0  0  0  0  0  0  0  0  0  0  0  0
  188.3660  177.4730  145.7990 C   0  0  0  0  0  2  0  0  0  0  0  0
  185.9410  178.9320  146.0060 O   0  0  0  0  0  1  0  0  0  0  0  0
  186.8510  175.9000  137.1420 C   0  0  0  0  0  3  0  0  0  0  0  0
  187.7700  176.9000  143.5230 C   0  0  0  0  0  3  0  0  0  0  0  0
  188.5780  174.6730  141.9390 C   0  0  0  0  0  2  0  0  0  0  0  0
  191.3270  175.6360  145.7810 C   0  0  0  0  0  1  0  0  0  0  0  0
  189.8420  175.1190  142.6680 C   0  0  2  0  0  3  0  0  0  0  0  0
  191.4960  172.9730  143.8930 C   0  0  1  0  0  3  0  0  0  0  0  0
  192.5300  172.6970  141.7580 F   0  0  0  0  0  0  0  0  0  0  0  0
  186.2730  178.4800  144.7340 C   0  0  0  0  0  0  0  0  0  0  0  0
  187.4330  177.5790  144.6120 C   0  0  0  0  0  0  0  0  0  0  0  0
  191.3660  173.1140  142.3770 C   0  0  2  0  0  3  0  0  0  0  0  0
  1 22  1  0  0  0  0
  2 14  1  0  0  0  0
  4 23  1  0  0  0  0
  4  1  2  0  0  0  0
  5  4  1  0  0  0  0
  6  8  1  0  0  0  0
  7 30  1  0  0  0  0
  7 25  1  0  0  0  0
  8 13  1  0  0  0  0
  8  5  2  0  0  0  0
  9  5  1  0  0  0  0
  9 12  1  0  0  0  0
 10 15  1  1  0  0  0
 10 11  1  0  0  0  0
 11 24  1  0  0  0  0
 11  3  1  0  0  0  0
 12 18  1  0  0  0  0
 14 28  2  0  0  0  0
 17  9  2  0  0  0  0
 18  1  1  0  0  0  0
 18  2  2  0  0  0  0
 19  3  1  0  0  0  0
 21  6  2  0  0  0  0
 21 17  1  0  0  0  0
 22 29  2  0  0  0  0
 25 23  1  6  0  0  0
 25 10  1  0  0  0  0
 26 16  1  6  0  0  0
 26 15  1  0  0  0  0
 28 20  1  0  0  0  0
 29 28  1  0  0  0  0
 29 19  1  0  0  0  0
 30 27  1  6  0  0  0
 30 26  1  0  0  0  0
M  END
>  <MODEL>
9

>  <REMARK>
 VINA RESULT:      -8.0      2.638      5.590
  Name = 
  0 active torsions:
  status: ('A' for Active; 'I' for Inactive)
                            x       y       z     vdW  Elec       q    Type
                         _______ _______ _______ _____ _____    ______ ____

>  <TORSDO>
F 0

$$$$
