=
 OpenBabel11052417103D

 30 32  0  0  1  0  0  0  0  0999 V2000
  186.0770  178.2980  147.3840 C   0  0  1  0  0  3  0  0  0  0  0  0
  184.7030  178.6520  147.2520 O   0  0  0  0  0  0  0  0  0  0  0  0
  186.2800  177.7100  148.6200 F   0  0  0  0  0  0  0  0  0  0  0  0
  186.1540  177.9600  144.8790 C   0  0  2  0  0  3  0  0  0  0  0  0
  184.1050  178.8360  146.0040 C   0  0  0  0  0  3  0  0  0  0  0  0
  186.5120  177.3530  146.2610 C   0  0  1  0  0  3  0  0  0  0  0  0
  184.7470  178.5140  144.8820 C   0  0  0  0  0  3  0  0  0  0  0  0
  186.5670  177.5380  140.5100 C   0  0  0  0  0  3  0  0  0  0  0  0
  187.5100  176.6030  140.6640 C   0  0  0  0  0  3  0  0  0  0  0  0
  185.7560  178.0040  141.5540 O   0  0  0  0  0  0  0  0  0  0  0  0
  188.5230  174.8890  142.1320 C   0  0  0  0  0  3  0  0  0  0  0  0
  187.7600  176.9440  143.1820 C   0  0  0  0  0  2  0  0  0  0  0  0
  185.2930  177.1460  142.5960 C   0  0  0  0  0  2  0  0  0  0  0  0
  187.9260  176.0770  141.9770 C   0  0  0  0  0  0  0  0  0  0  0  0
  186.3270  176.9460  143.7210 C   0  0  2  0  0  3  0  0  0  0  0  0
  188.0030  172.9920  140.7740 O   0  0  0  0  0  1  0  0  0  0  0  0
  188.8160  173.9060  141.0730 C   0  0  0  0  0  0  0  0  0  0  0  0
  190.0210  173.9930  140.3910 O   0  0  0  0  0  0  0  0  0  0  0  0
  188.0100  177.1300  146.3970 C   0  0  0  0  0  2  0  0  0  0  0  0
  188.2780  175.6980  146.8120 C   0  0  0  0  0  2  0  0  0  0  0  0
  189.3540  175.1160  145.9150 C   0  0  0  0  0  2  0  0  0  0  0  0
  191.7620  176.1180  145.6520 C   0  0  2  0  0  3  0  0  0  0  0  0
  191.7550  174.7120  145.7800 O   0  0  0  0  0  0  0  0  0  0  0  0
  190.7460  175.4060  146.4710 C   0  0  2  0  0  0  0  0  0  0  0  0
  190.9740  175.3790  147.9690 C   0  0  0  0  0  1  0  0  0  0  0  0
  191.2730  176.4950  144.2600 C   0  0  0  0  0  2  0  0  0  0  0  0
  192.4420  176.5990  143.2940 C   0  0  2  0  0  3  0  0  0  0  0  0
  192.4080  175.4130  142.3510 C   0  0  0  0  0  1  0  0  0  0  0  0
  194.5480  175.9250  143.1680 C   0  0  0  0  0  1  0  0  0  0  0  0
  193.6470  176.5940  144.0000 O   0  0  0  0  0  0  0  0  0  0  0  0
  1  3  1  1  0  0  0
  2  1  1  0  0  0  0
  4  7  1  1  0  0  0
  4  6  1  0  0  0  0
  5  2  1  0  0  0  0
  6 19  1  6  0  0  0
  6  1  1  0  0  0  0
  7  5  2  0  0  0  0
  8  9  2  0  0  0  0
  8 10  1  0  0  0  0
  9 14  1  0  0  0  0
 10 13  1  0  0  0  0
 12 15  1  0  0  0  0
 14 11  2  0  0  0  0
 14 12  1  0  0  0  0
 15 13  1  6  0  0  0
 15  4  1  0  0  0  0
 16 17  1  0  0  0  0
 17 11  1  0  0  0  0
 18 17  2  0  0  0  0
 19 20  1  0  0  0  0
 21 24  1  0  0  0  0
 21 20  1  0  0  0  0
 22 26  1  6  0  0  0
 22 23  1  0  0  0  0
 22 24  1  0  0  0  0
 23 24  1  0  0  0  0
 24 25  1  1  0  0  0
 27 28  1  6  0  0  0
 27 30  1  0  0  0  0
 27 26  1  0  0  0  0
 29 30  1  0  0  0  0
M  END
>  <MODEL>
1

>  <REMARK>
 VINA RESULT:      -6.9      0.000      0.000
  Name = 
  9 active torsions:
  status: ('A' for Active; 'I' for Inactive)
    1  A    between atoms: C_1  and  C_4
    2  A    between atoms: C_1  and  C_5
    3  A    between atoms: C_4  and  C_27
    4  A    between atoms: C_5  and  C_22
    5  A    between atoms: C_8  and  C_12
    6  A    between atoms: C_9  and  C_12
    7  A    between atoms: C_9  and  O_21
    8  A    between atoms: C_15  and  C_16
    9  A    between atoms: C_19  and  C_29
                            x       y       z     vdW  Elec       q    Type
                         _______ _______ _______ _____ _____    ______ ____

>  <TORSDO>
F 9

$$$$
=
 OpenBabel11052417103D

 30 32  0  0  1  0  0  0  0  0999 V2000
  186.0060  177.8790  147.3870 C   0  0  1  0  0  3  0  0  0  0  0  0
  184.8100  178.6070  147.1220 O   0  0  0  0  0  0  0  0  0  0  0  0
  185.8600  177.1750  148.5690 F   0  0  0  0  0  0  0  0  0  0  0  0
  186.3630  177.7030  144.8880 C   0  0  2  0  0  3  0  0  0  0  0  0
  184.4730  179.0320  145.8360 C   0  0  0  0  0  3  0  0  0  0  0  0
  186.3370  176.9290  146.2330 C   0  0  1  0  0  3  0  0  0  0  0  0
  185.1660  178.6230  144.7750 C   0  0  0  0  0  3  0  0  0  0  0  0
  186.5790  177.5560  140.4880 C   0  0  0  0  0  3  0  0  0  0  0  0
  187.4730  176.5630  140.5400 C   0  0  0  0  0  3  0  0  0  0  0  0
  185.8380  177.9930  141.5930 O   0  0  0  0  0  0  0  0  0  0  0  0
  188.4420  174.7010  141.8480 C   0  0  0  0  0  3  0  0  0  0  0  0
  187.8400  176.7180  143.0630 C   0  0  0  0  0  2  0  0  0  0  0  0
  185.3680  177.0940  142.5970 C   0  0  0  0  0  2  0  0  0  0  0  0
  187.9090  175.9270  141.7970 C   0  0  0  0  0  0  0  0  0  0  0  0
  186.4320  176.7620  143.6610 C   0  0  2  0  0  3  0  0  0  0  0  0
  187.8140  172.8590  140.4610 O   0  0  0  0  0  1  0  0  0  0  0  0
  188.6370  173.7770  140.7160 C   0  0  0  0  0  0  0  0  0  0  0  0
  189.7600  173.9260  139.9140 O   0  0  0  0  0  0  0  0  0  0  0  0
  187.6860  176.2930  146.5300 C   0  0  0  0  0  2  0  0  0  0  0  0
  188.7500  177.3680  146.6210 C   0  0  0  0  0  2  0  0  0  0  0  0
  190.1170  176.7120  146.6360 C   0  0  0  0  0  2  0  0  0  0  0  0
  191.0270  175.5120  144.4900 C   0  0  2  0  0  3  0  0  0  0  0  0
  192.0350  176.1630  145.2350 O   0  0  0  0  0  0  0  0  0  0  0  0
  190.7630  176.7600  145.2540 C   0  0  2  0  0  0  0  0  0  0  0  0
  190.7390  178.0510  144.4610 C   0  0  0  0  0  1  0  0  0  0  0  0
  190.6080  174.2440  145.2230 C   0  0  0  0  0  2  0  0  0  0  0  0
  191.1280  173.0130  144.5000 C   0  0  2  0  0  3  0  0  0  0  0  0
  191.6710  173.4300  143.1470 C   0  0  0  0  0  1  0  0  0  0  0  0
  190.3180  171.5440  143.0540 C   0  0  0  0  0  1  0  0  0  0  0  0
  190.0930  172.0930  144.3180 O   0  0  0  0  0  0  0  0  0  0  0  0
  1  3  1  1  0  0  0
  2  1  1  0  0  0  0
  4  7  1  6  0  0  0
  4  6  1  0  0  0  0
  5  2  1  0  0  0  0
  6 19  1  1  0  0  0
  6  1  1  0  0  0  0
  7  5  2  0  0  0  0
  8  9  2  0  0  0  0
  8 10  1  0  0  0  0
  9 14  1  0  0  0  0
 10 13  1  0  0  0  0
 12 15  1  0  0  0  0
 14 11  2  0  0  0  0
 14 12  1  0  0  0  0
 15 13  1  6  0  0  0
 15  4  1  0  0  0  0
 16 17  1  0  0  0  0
 17 11  1  0  0  0  0
 18 17  2  0  0  0  0
 19 20  1  0  0  0  0
 20 21  1  0  0  0  0
 22 26  1  1  0  0  0
 22 23  1  0  0  0  0
 22 24  1  0  0  0  0
 23 24  1  0  0  0  0
 24 25  1  6  0  0  0
 24 21  1  0  0  0  0
 27 28  1  6  0  0  0
 27 26  1  0  0  0  0
 29 30  1  0  0  0  0
 30 27  1  0  0  0  0
M  END
>  <MODEL>
2

>  <REMARK>
 VINA RESULT:      -6.9      1.349      2.122
  Name = 
  9 active torsions:
  status: ('A' for Active; 'I' for Inactive)
    1  A    between atoms: C_1  and  C_4
    2  A    between atoms: C_1  and  C_5
    3  A    between atoms: C_4  and  C_27
    4  A    between atoms: C_5  and  C_22
    5  A    between atoms: C_8  and  C_12
    6  A    between atoms: C_9  and  C_12
    7  A    between atoms: C_9  and  O_21
    8  A    between atoms: C_15  and  C_16
    9  A    between atoms: C_19  and  C_29
                            x       y       z     vdW  Elec       q    Type
                         _______ _______ _______ _____ _____    ______ ____

>  <TORSDO>
F 9

$$$$
=
 OpenBabel11052417103D

 30 32  0  0  1  0  0  0  0  0999 V2000
  184.8580  178.5050  141.7680 C   0  0  1  0  0  3  0  0  0  0  0  0
  184.9690  177.9270  140.4700 O   0  0  0  0  0  0  0  0  0  0  0  0
  183.5820  178.2870  142.2560 F   0  0  0  0  0  0  0  0  0  0  0  0
  187.3230  178.0470  142.1020 C   0  0  2  0  0  3  0  0  0  0  0  0
  186.2050  177.5840  139.9180 C   0  0  0  0  0  3  0  0  0  0  0  0
  185.9050  177.9230  142.7210 C   0  0  1  0  0  3  0  0  0  0  0  0
  187.3160  177.6180  140.6520 C   0  0  0  0  0  3  0  0  0  0  0  0
  190.1400  174.6620  141.9090 C   0  0  0  0  0  3  0  0  0  0  0  0
  191.0770  175.3730  142.5460 C   0  0  0  0  0  3  0  0  0  0  0  0
  188.7990  175.0550  141.8120 O   0  0  0  0  0  0  0  0  0  0  0  0
  191.5880  177.2700  144.0480 C   0  0  0  0  0  3  0  0  0  0  0  0
  189.8070  177.5850  142.4250 C   0  0  0  0  0  2  0  0  0  0  0  0
  188.1260  175.7300  142.8740 C   0  0  0  0  0  2  0  0  0  0  0  0
  190.8490  176.7320  143.0710 C   0  0  0  0  0  0  0  0  0  0  0  0
  188.3880  177.2470  142.8920 C   0  0  2  0  0  3  0  0  0  0  0  0
  192.6550  175.3910  145.0690 O   0  0  0  0  0  0  0  0  0  0  0  0
  192.6850  176.6170  144.7840 C   0  0  0  0  0  0  0  0  0  0  0  0
  193.7790  177.3780  145.1740 O   0  0  0  0  0  1  0  0  0  0  0  0
  185.8070  178.6810  144.0350 C   0  0  0  0  0  2  0  0  0  0  0  0
  184.6370  178.1560  144.8420 C   0  0  0  0  0  2  0  0  0  0  0  0
  185.1440  177.1380  145.8450 C   0  0  0  0  0  2  0  0  0  0  0  0
  187.3090  177.3910  147.3020 C   0  0  2  0  0  3  0  0  0  0  0  0
  186.1890  176.9460  148.0390 O   0  0  0  0  0  0  0  0  0  0  0  0
  185.9240  177.8160  146.9680 C   0  0  2  0  0  0  0  0  0  0  0  0
  185.4970  179.1870  147.4530 C   0  0  0  0  0  1  0  0  0  0  0  0
  187.8240  176.2460  146.4390 C   0  0  0  0  0  2  0  0  0  0  0  0
  189.3310  176.1100  146.5770 C   0  0  2  0  0  3  0  0  0  0  0  0
  189.6430  174.8320  147.3300 C   0  0  0  0  0  1  0  0  0  0  0  0
  190.9620  176.6960  147.9560 C   0  0  0  0  0  1  0  0  0  0  0  0
  189.8460  177.1990  147.2830 O   0  0  0  0  0  0  0  0  0  0  0  0
  1  3  1  1  0  0  0
  1  6  1  0  0  0  0
  2  1  1  0  0  0  0
  4  7  1  6  0  0  0
  4  6  1  0  0  0  0
  4 15  1  0  0  0  0
  5  2  1  0  0  0  0
  5  7  2  0  0  0  0
  6 19  1  1  0  0  0
  8  9  2  0  0  0  0
  9 14  1  0  0  0  0
 10  8  1  0  0  0  0
 10 13  1  0  0  0  0
 11 17  1  0  0  0  0
 12 14  1  0  0  0  0
 13 15  1  0  0  0  0
 14 11  2  0  0  0  0
 15 12  1  6  0  0  0
 17 16  2  0  0  0  0
 17 18  1  0  0  0  0
 19 20  1  0  0  0  0
 20 21  1  0  0  0  0
 21 24  1  0  0  0  0
 22 26  1  6  0  0  0
 22 23  1  0  0  0  0
 24 22  1  0  0  0  0
 24 25  1  1  0  0  0
 24 23  1  0  0  0  0
 26 27  1  0  0  0  0
 27 30  1  0  0  0  0
 27 28  1  1  0  0  0
 30 29  1  0  0  0  0
M  END
>  <MODEL>
3

>  <REMARK>
 VINA RESULT:      -6.7      1.927      5.119
  Name = 
  9 active torsions:
  status: ('A' for Active; 'I' for Inactive)
    1  A    between atoms: C_1  and  C_4
    2  A    between atoms: C_1  and  C_5
    3  A    between atoms: C_4  and  C_27
    4  A    between atoms: C_5  and  C_22
    5  A    between atoms: C_8  and  C_12
    6  A    between atoms: C_9  and  C_12
    7  A    between atoms: C_9  and  O_21
    8  A    between atoms: C_15  and  C_16
    9  A    between atoms: C_19  and  C_29
                            x       y       z     vdW  Elec       q    Type
                         _______ _______ _______ _____ _____    ______ ____

>  <TORSDO>
F 9

$$$$
=
 OpenBabel11052417103D

 30 32  0  0  1  0  0  0  0  0999 V2000
  189.6570  177.0820  147.2890 C   0  0  1  0  0  3  0  0  0  0  0  0
  190.7680  176.2730  147.6650 O   0  0  0  0  0  0  0  0  0  0  0  0
  189.8730  178.3810  147.7150 F   0  0  0  0  0  0  0  0  0  0  0  0
  189.3320  175.5750  145.2840 C   0  0  2  0  0  3  0  0  0  0  0  0
  191.0610  175.0730  147.0140 C   0  0  0  0  0  3  0  0  0  0  0  0
  189.4360  177.0440  145.7750 C   0  0  1  0  0  3  0  0  0  0  0  0
  190.4210  174.7240  145.8990 C   0  0  0  0  0  3  0  0  0  0  0  0
  191.9000  174.6660  141.8180 C   0  0  0  0  0  3  0  0  0  0  0  0
  190.9170  173.9670  141.2410 C   0  0  0  0  0  3  0  0  0  0  0  0
  191.7130  175.4970  142.9300 O   0  0  0  0  0  0  0  0  0  0  0  0
  188.4860  173.5410  141.0730 C   0  0  0  0  0  3  0  0  0  0  0  0
  189.3850  173.9980  143.2840 C   0  0  0  0  0  2  0  0  0  0  0  0
  190.5250  176.2660  143.1130 C   0  0  0  0  0  2  0  0  0  0  0  0
  189.5600  173.8520  141.8070 C   0  0  0  0  0  0  0  0  0  0  0  0
  189.3720  175.4600  143.7400 C   0  0  2  0  0  3  0  0  0  0  0  0
  188.6320  172.1740  139.1170 O   0  0  0  0  0  1  0  0  0  0  0  0
  188.4510  173.3160  139.6160 C   0  0  0  0  0  0  0  0  0  0  0  0
  188.2130  174.3950  138.7760 O   0  0  0  0  0  0  0  0  0  0  0  0
  188.1640  177.8190  145.4720 C   0  0  0  0  0  2  0  0  0  0  0  0
  186.9980  177.2010  146.2160 C   0  0  0  0  0  2  0  0  0  0  0  0
  185.9090  176.8450  145.2230 C   0  0  0  0  0  2  0  0  0  0  0  0
  184.4000  178.3780  143.7250 C   0  0  2  0  0  3  0  0  0  0  0  0
  185.4570  179.0760  144.3490 O   0  0  0  0  0  0  0  0  0  0  0  0
  184.9160  177.9940  145.0650 C   0  0  2  0  0  0  0  0  0  0  0  0
  184.1140  178.4610  146.2630 C   0  0  0  0  0  1  0  0  0  0  0  0
  184.9620  177.5360  142.5870 C   0  0  0  0  0  2  0  0  0  0  0  0
  185.1000  178.3700  141.3240 C   0  0  2  0  0  3  0  0  0  0  0  0
  183.8060  178.2910  140.5380 C   0  0  0  0  0  1  0  0  0  0  0  0
  186.7500  176.8930  141.3220 C   0  0  0  0  0  1  0  0  0  0  0  0
  186.1470  177.8790  140.5400 O   0  0  0  0  0  0  0  0  0  0  0  0
  1  2  1  0  0  0  0
  1  3  1  6  0  0  0
  4  6  1  0  0  0  0
  4  7  1  1  0  0  0
  5  2  1  0  0  0  0
  6 19  1  1  0  0  0
  6  1  1  0  0  0  0
  7  5  2  0  0  0  0
  8 10  1  0  0  0  0
  9 14  1  0  0  0  0
  9  8  2  0  0  0  0
 10 13  1  0  0  0  0
 11 14  2  0  0  0  0
 12 15  1  0  0  0  0
 14 12  1  0  0  0  0
 15 13  1  1  0  0  0
 15  4  1  0  0  0  0
 16 17  1  0  0  0  0
 17 11  1  0  0  0  0
 18 17  2  0  0  0  0
 19 20  1  0  0  0  0
 21 20  1  0  0  0  0
 22 26  1  6  0  0  0
 22 23  1  0  0  0  0
 22 24  1  0  0  0  0
 23 24  1  0  0  0  0
 24 21  1  0  0  0  0
 24 25  1  1  0  0  0
 27 28  1  6  0  0  0
 27 26  1  0  0  0  0
 30 29  1  0  0  0  0
 30 27  1  0  0  0  0
M  END
>  <MODEL>
4

>  <REMARK>
 VINA RESULT:      -6.7      1.778      5.640
  Name = 
  9 active torsions:
  status: ('A' for Active; 'I' for Inactive)
    1  A    between atoms: C_1  and  C_4
    2  A    between atoms: C_1  and  C_5
    3  A    between atoms: C_4  and  C_27
    4  A    between atoms: C_5  and  C_22
    5  A    between atoms: C_8  and  C_12
    6  A    between atoms: C_9  and  C_12
    7  A    between atoms: C_9  and  O_21
    8  A    between atoms: C_15  and  C_16
    9  A    between atoms: C_19  and  C_29
                            x       y       z     vdW  Elec       q    Type
                         _______ _______ _______ _____ _____    ______ ____

>  <TORSDO>
F 9

$$$$
=
 OpenBabel11052417103D

 30 32  0  0  1  0  0  0  0  0999 V2000
  184.5440  179.0150  144.7580 C   0  0  1  0  0  3  0  0  0  0  0  0
  184.0080  178.9640  146.0770 O   0  0  0  0  0  0  0  0  0  0  0  0
  184.2950  180.2620  144.2120 F   0  0  0  0  0  0  0  0  0  0  0  0
  186.3320  177.3870  145.5020 C   0  0  2  0  0  3  0  0  0  0  0  0
  184.4700  178.0510  147.0270 C   0  0  0  0  0  3  0  0  0  0  0  0
  186.0470  178.7220  144.7640 C   0  0  1  0  0  3  0  0  0  0  0  0
  185.5530  177.3120  146.7970 C   0  0  0  0  0  3  0  0  0  0  0  0
  189.3020  174.6170  147.2170 C   0  0  0  0  0  3  0  0  0  0  0  0
  190.1350  174.8380  146.1940 C   0  0  0  0  0  3  0  0  0  0  0  0
  188.1640  175.3930  147.4730 O   0  0  0  0  0  0  0  0  0  0  0  0
  190.8250  176.3450  144.3590 C   0  0  0  0  0  3  0  0  0  0  0  0
  188.4430  176.1470  144.8000 C   0  0  0  0  0  2  0  0  0  0  0  0
  188.1350  176.8010  147.2390 C   0  0  0  0  0  2  0  0  0  0  0  0
  189.8630  175.8100  145.1200 C   0  0  0  0  0  0  0  0  0  0  0  0
  187.8410  177.1650  145.7710 C   0  0  2  0  0  3  0  0  0  0  0  0
  193.0550  177.0010  144.9180 O   0  0  0  0  0  1  0  0  0  0  0  0
  192.2760  176.1130  144.4810 C   0  0  0  0  0  0  0  0  0  0  0  0
  192.7930  174.8830  144.1010 O   0  0  0  0  0  0  0  0  0  0  0  0
  186.5140  178.6650  143.3180 C   0  0  0  0  0  2  0  0  0  0  0  0
  185.6020  177.7560  142.5210 C   0  0  0  0  0  2  0  0  0  0  0  0
  186.2990  176.4280  142.2980 C   0  0  0  0  0  2  0  0  0  0  0  0
  188.1800  175.3960  140.7910 C   0  0  2  0  0  3  0  0  0  0  0  0
  188.5690  176.5970  141.4230 O   0  0  0  0  0  0  0  0  0  0  0  0
  187.2120  176.4870  141.0760 C   0  0  2  0  0  0  0  0  0  0  0  0
  186.8550  177.4000  139.9190 C   0  0  0  0  0  1  0  0  0  0  0  0
  188.1600  174.2740  141.8210 C   0  0  0  0  0  2  0  0  0  0  0  0
  189.0160  173.1080  141.3570 C   0  0  2  0  0  3  0  0  0  0  0  0
  188.5830  172.7040  139.9610 C   0  0  0  0  0  1  0  0  0  0  0  0
  189.4400  172.4300  143.4220 C   0  0  0  0  0  1  0  0  0  0  0  0
  188.8550  172.0230  142.2220 O   0  0  0  0  0  0  0  0  0  0  0  0
  1  3  1  1  0  0  0
  1  6  1  0  0  0  0
  1  2  1  0  0  0  0
  2  5  1  0  0  0  0
  4 15  1  0  0  0  0
  4  7  1  1  0  0  0
  6 19  1  6  0  0  0
  6  4  1  0  0  0  0
  7  5  2  0  0  0  0
  8 10  1  0  0  0  0
  9  8  2  0  0  0  0
 11 17  1  0  0  0  0
 11 14  2  0  0  0  0
 12 14  1  0  0  0  0
 13 10  1  0  0  0  0
 14  9  1  0  0  0  0
 15 12  1  6  0  0  0
 15 13  1  0  0  0  0
 17 16  1  0  0  0  0
 18 17  2  0  0  0  0
 20 19  1  0  0  0  0
 21 20  1  0  0  0  0
 22 24  1  0  0  0  0
 22 23  1  0  0  0  0
 22 26  1  1  0  0  0
 24 25  1  6  0  0  0
 24 23  1  0  0  0  0
 24 21  1  0  0  0  0
 27 28  1  6  0  0  0
 27 26  1  0  0  0  0
 27 30  1  0  0  0  0
 30 29  1  0  0  0  0
M  END
>  <MODEL>
5

>  <REMARK>
 VINA RESULT:      -6.5      1.836      5.185
  Name = 
  9 active torsions:
  status: ('A' for Active; 'I' for Inactive)
    1  A    between atoms: C_1  and  C_4
    2  A    between atoms: C_1  and  C_5
    3  A    between atoms: C_4  and  C_27
    4  A    between atoms: C_5  and  C_22
    5  A    between atoms: C_8  and  C_12
    6  A    between atoms: C_9  and  C_12
    7  A    between atoms: C_9  and  O_21
    8  A    between atoms: C_15  and  C_16
    9  A    between atoms: C_19  and  C_29
                            x       y       z     vdW  Elec       q    Type
                         _______ _______ _______ _____ _____    ______ ____

>  <TORSDO>
F 9

$$$$
=
 OpenBabel11052417103D

 30 32  0  0  1  0  0  0  0  0999 V2000
  185.3600  178.4770  145.8730 C   0  0  1  0  0  3  0  0  0  0  0  0
  185.2680  178.2540  147.2770 O   0  0  0  0  0  0  0  0  0  0  0  0
  185.0200  179.7900  145.5970 F   0  0  0  0  0  0  0  0  0  0  0  0
  187.1970  176.7410  145.7920 C   0  0  2  0  0  3  0  0  0  0  0  0
  185.9570  177.2150  147.9060 C   0  0  0  0  0  3  0  0  0  0  0  0
  186.7680  178.1680  145.3580 C   0  0  1  0  0  3  0  0  0  0  0  0
  186.8670  176.5000  147.2490 C   0  0  0  0  0  3  0  0  0  0  0  0
  191.1650  176.4020  147.6840 C   0  0  0  0  0  3  0  0  0  0  0  0
  191.4600  175.3360  146.9320 C   0  0  0  0  0  3  0  0  0  0  0  0
  190.0650  177.2370  147.4500 O   0  0  0  0  0  0  0  0  0  0  0  0
  191.0090  174.0580  144.8630 C   0  0  0  0  0  3  0  0  0  0  0  0
  189.1030  175.0620  145.9890 C   0  0  0  0  0  2  0  0  0  0  0  0
  189.6150  177.5490  146.1320 C   0  0  0  0  0  2  0  0  0  0  0  0
  190.5720  174.8150  145.8770 C   0  0  0  0  0  0  0  0  0  0  0  0
  188.6990  176.4660  145.5310 C   0  0  2  0  0  3  0  0  0  0  0  0
  193.2130  174.4430  144.0230 O   0  0  0  0  0  0  0  0  0  0  0  0
  192.4040  173.6660  144.5950 C   0  0  0  0  0  0  0  0  0  0  0  0
  192.8320  172.4030  144.9820 O   0  0  0  0  0  1  0  0  0  0  0  0
  186.7480  178.3020  143.8440 C   0  0  0  0  0  2  0  0  0  0  0  0
  185.6720  177.4070  143.2650 C   0  0  0  0  0  2  0  0  0  0  0  0
  186.3090  176.1230  142.7700 C   0  0  0  0  0  2  0  0  0  0  0  0
  188.3310  175.4400  141.2480 C   0  0  2  0  0  3  0  0  0  0  0  0
  188.5710  176.6090  142.0020 O   0  0  0  0  0  0  0  0  0  0  0  0
  187.2430  176.3920  141.5940 C   0  0  2  0  0  0  0  0  0  0  0  0
  186.8240  177.3690  140.5130 C   0  0  0  0  0  1  0  0  0  0  0  0
  188.4020  174.2300  142.1700 C   0  0  0  0  0  2  0  0  0  0  0  0
  188.6980  172.9690  141.3750 C   0  0  2  0  0  3  0  0  0  0  0  0
  190.1940  172.7220  141.3840 C   0  0  0  0  0  1  0  0  0  0  0  0
  189.0480  172.2390  139.3130 C   0  0  0  0  0  1  0  0  0  0  0  0
  188.2640  173.1230  140.0560 O   0  0  0  0  0  0  0  0  0  0  0  0
  1  3  1  1  0  0  0
  1  2  1  0  0  0  0
  2  5  1  0  0  0  0
  4  7  1  1  0  0  0
  6 19  1  6  0  0  0
  6  4  1  0  0  0  0
  6  1  1  0  0  0  0
  7  5  2  0  0  0  0
  9  8  2  0  0  0  0
 10  8  1  0  0  0  0
 11 14  2  0  0  0  0
 13 10  1  0  0  0  0
 14 12  1  0  0  0  0
 14  9  1  0  0  0  0
 15  4  1  0  0  0  0
 15 12  1  1  0  0  0
 15 13  1  0  0  0  0
 16 17  2  0  0  0  0
 17 11  1  0  0  0  0
 17 18  1  0  0  0  0
 20 19  1  0  0  0  0
 21 20  1  0  0  0  0
 22 24  1  0  0  0  0
 22 23  1  0  0  0  0
 22 26  1  1  0  0  0
 24 25  1  6  0  0  0
 24 23  1  0  0  0  0
 24 21  1  0  0  0  0
 27 28  1  6  0  0  0
 27 26  1  0  0  0  0
 29 30  1  0  0  0  0
 30 27  1  0  0  0  0
M  END
>  <MODEL>
6

>  <REMARK>
 VINA RESULT:      -6.4      1.803      5.235
  Name = 
  9 active torsions:
  status: ('A' for Active; 'I' for Inactive)
    1  A    between atoms: C_1  and  C_4
    2  A    between atoms: C_1  and  C_5
    3  A    between atoms: C_4  and  C_27
    4  A    between atoms: C_5  and  C_22
    5  A    between atoms: C_8  and  C_12
    6  A    between atoms: C_9  and  C_12
    7  A    between atoms: C_9  and  O_21
    8  A    between atoms: C_15  and  C_16
    9  A    between atoms: C_19  and  C_29
                            x       y       z     vdW  Elec       q    Type
                         _______ _______ _______ _____ _____    ______ ____

>  <TORSDO>
F 9

$$$$
=
 OpenBabel11052417103D

 30 32  0  0  1  0  0  0  0  0999 V2000
  186.1180  177.4760  140.2730 C   0  0  1  0  0  3  0  0  0  0  0  0
  184.8540  178.1330  140.3220 O   0  0  0  0  0  0  0  0  0  0  0  0
  186.8320  177.9410  139.1830 F   0  0  0  0  0  0  0  0  0  0  0  0
  186.0440  177.3070  142.7960 C   0  0  2  0  0  3  0  0  0  0  0  0
  184.1160  178.2260  141.5030 C   0  0  0  0  0  3  0  0  0  0  0  0
  186.9050  177.7020  141.5660 C   0  0  1  0  0  3  0  0  0  0  0  0
  184.6420  177.8620  142.6710 C   0  0  0  0  0  3  0  0  0  0  0  0
  185.7320  177.0300  147.1850 C   0  0  0  0  0  3  0  0  0  0  0  0
  187.0580  176.9000  147.2950 C   0  0  0  0  0  3  0  0  0  0  0  0
  185.0850  177.4160  146.0030 O   0  0  0  0  0  0  0  0  0  0  0  0
  189.2800  177.2760  146.2760 C   0  0  0  0  0  3  0  0  0  0  0  0
  187.4710  176.6210  144.7910 C   0  0  0  0  0  2  0  0  0  0  0  0
  185.6510  178.3700  145.1040 C   0  0  0  0  0  2  0  0  0  0  0  0
  187.9810  176.9790  146.1490 C   0  0  0  0  0  0  0  0  0  0  0  0
  186.6790  177.7550  144.1360 C   0  0  2  0  0  3  0  0  0  0  0  0
  189.7210  178.6640  148.1720 O   0  0  0  0  0  1  0  0  0  0  0  0
  189.9870  177.6170  147.5240 C   0  0  0  0  0  0  0  0  0  0  0  0
  190.9730  176.7590  147.9920 O   0  0  0  0  0  0  0  0  0  0  0  0
  188.1730  176.8680  141.4890 C   0  0  0  0  0  2  0  0  0  0  0  0
  187.8360  175.4670  141.0200 C   0  0  0  0  0  2  0  0  0  0  0  0
  188.2620  174.4730  142.0830 C   0  0  0  0  0  2  0  0  0  0  0  0
  190.7620  173.7440  142.3940 C   0  0  2  0  0  3  0  0  0  0  0  0
  190.5450  174.5100  141.2280 O   0  0  0  0  0  0  0  0  0  0  0  0
  189.4860  173.6800  141.6330 C   0  0  2  0  0  0  0  0  0  0  0  0
  189.3110  172.5010  140.6960 C   0  0  0  0  0  1  0  0  0  0  0  0
  190.7040  174.6610  143.6100 C   0  0  0  0  0  2  0  0  0  0  0  0
  191.0380  173.8890  144.8750 C   0  0  2  0  0  3  0  0  0  0  0  0
  189.7580  173.6330  145.6470 C   0  0  0  0  0  1  0  0  0  0  0  0
  193.1060  173.9010  145.6690 C   0  0  0  0  0  1  0  0  0  0  0  0
  191.9150  174.6310  145.6690 O   0  0  0  0  0  0  0  0  0  0  0  0
  1  3  1  6  0  0  0
  1  2  1  0  0  0  0
  1  6  1  0  0  0  0
  2  5  1  0  0  0  0
  4  7  1  6  0  0  0
  4 15  1  0  0  0  0
  5  7  2  0  0  0  0
  6 19  1  6  0  0  0
  6  4  1  0  0  0  0
  8  9  2  0  0  0  0
 10  8  1  0  0  0  0
 11 17  1  0  0  0  0
 12 14  1  0  0  0  0
 13 10  1  0  0  0  0
 14 11  2  0  0  0  0
 14  9  1  0  0  0  0
 15 12  1  1  0  0  0
 15 13  1  0  0  0  0
 17 18  2  0  0  0  0
 17 16  1  0  0  0  0
 20 19  1  0  0  0  0
 20 21  1  0  0  0  0
 22 26  1  1  0  0  0
 23 24  1  0  0  0  0
 23 22  1  0  0  0  0
 24 25  1  6  0  0  0
 24 21  1  0  0  0  0
 24 22  1  0  0  0  0
 26 27  1  0  0  0  0
 27 28  1  1  0  0  0
 27 30  1  0  0  0  0
 29 30  1  0  0  0  0
M  END
>  <MODEL>
7

>  <REMARK>
 VINA RESULT:      -6.4      2.462      5.426
  Name = 
  9 active torsions:
  status: ('A' for Active; 'I' for Inactive)
    1  A    between atoms: C_1  and  C_4
    2  A    between atoms: C_1  and  C_5
    3  A    between atoms: C_4  and  C_27
    4  A    between atoms: C_5  and  C_22
    5  A    between atoms: C_8  and  C_12
    6  A    between atoms: C_9  and  C_12
    7  A    between atoms: C_9  and  O_21
    8  A    between atoms: C_15  and  C_16
    9  A    between atoms: C_19  and  C_29
                            x       y       z     vdW  Elec       q    Type
                         _______ _______ _______ _____ _____    ______ ____

>  <TORSDO>
F 9

$$$$
=
 OpenBabel11052417103D

 30 32  0  0  1  0  0  0  0  0999 V2000
  188.3480  176.6350  146.1820 C   0  0  1  0  0  3  0  0  0  0  0  0
  188.3200  175.6410  147.2020 O   0  0  0  0  0  0  0  0  0  0  0  0
  187.7770  177.8000  146.6650 F   0  0  0  0  0  0  0  0  0  0  0  0
  190.4610  175.5630  145.2970 C   0  0  2  0  0  3  0  0  0  0  0  0
  189.1910  174.5500  147.1930 C   0  0  0  0  0  3  0  0  0  0  0  0
  189.7790  176.8960  145.7070 C   0  0  1  0  0  3  0  0  0  0  0  0
  190.2030  174.4880  146.3290 C   0  0  0  0  0  3  0  0  0  0  0  0
  194.3160  173.4280  145.1830 C   0  0  0  0  0  3  0  0  0  0  0  0
  194.6870  174.1050  144.0910 C   0  0  0  0  0  3  0  0  0  0  0  0
  193.2080  173.7690  145.9700 O   0  0  0  0  0  0  0  0  0  0  0  0
  194.3980  176.1270  142.6970 C   0  0  0  0  0  3  0  0  0  0  0  0
  192.3990  175.1680  143.6930 C   0  0  0  0  0  2  0  0  0  0  0  0
  192.8280  175.1260  146.2000 C   0  0  0  0  0  2  0  0  0  0  0  0
  193.8800  175.1820  143.4890 C   0  0  0  0  0  0  0  0  0  0  0  0
  191.9830  175.7210  145.0580 C   0  0  2  0  0  3  0  0  0  0  0  0
  196.6270  176.8980  143.0890 O   0  0  0  0  0  1  0  0  0  0  0  0
  195.8180  176.2930  142.3370 C   0  0  0  0  0  0  0  0  0  0  0  0
  196.2710  175.7690  141.1340 O   0  0  0  0  0  0  0  0  0  0  0  0
  189.7110  177.8640  144.5370 C   0  0  0  0  0  2  0  0  0  0  0  0
  189.0390  177.1930  143.3560 C   0  0  0  0  0  2  0  0  0  0  0  0
  187.9580  178.1080  142.8150 C   0  0  0  0  0  2  0  0  0  0  0  0
  185.5710  177.0230  142.8510 C   0  0  2  0  0  3  0  0  0  0  0  0
  186.6140  176.0740  142.7770 O   0  0  0  0  0  0  0  0  0  0  0  0
  186.8470  177.3060  142.1420 C   0  0  2  0  0  0  0  0  0  0  0  0
  186.8330  177.1680  140.6330 C   0  0  0  0  0  1  0  0  0  0  0  0
  185.5140  177.5930  144.2620 C   0  0  0  0  0  2  0  0  0  0  0  0
  184.5300  178.7490  144.3320 C   0  0  2  0  0  3  0  0  0  0  0  0
  185.2850  180.0500  144.1420 C   0  0  0  0  0  1  0  0  0  0  0  0
  184.5070  177.7370  146.3020 C   0  0  0  0  0  1  0  0  0  0  0  0
  183.8950  178.7610  145.5750 O   0  0  0  0  0  0  0  0  0  0  0  0
  1  3  1  1  0  0  0
  1  2  1  0  0  0  0
  4  6  1  0  0  0  0
  4  7  1  1  0  0  0
  5  2  1  0  0  0  0
  6 19  1  6  0  0  0
  6  1  1  0  0  0  0
  7  5  2  0  0  0  0
  8 10  1  0  0  0  0
  9  8  2  0  0  0  0
 10 13  1  0  0  0  0
 11 14  2  0  0  0  0
 14 12  1  0  0  0  0
 14  9  1  0  0  0  0
 15 12  1  6  0  0  0
 15  4  1  0  0  0  0
 15 13  1  0  0  0  0
 17 11  1  0  0  0  0
 17 16  1  0  0  0  0
 18 17  2  0  0  0  0
 20 19  1  0  0  0  0
 21 20  1  0  0  0  0
 22 26  1  1  0  0  0
 23 22  1  0  0  0  0
 24 25  1  6  0  0  0
 24 23  1  0  0  0  0
 24 21  1  0  0  0  0
 24 22  1  0  0  0  0
 26 27  1  0  0  0  0
 27 28  1  1  0  0  0
 27 30  1  0  0  0  0
 30 29  1  0  0  0  0
M  END
>  <MODEL>
8

>  <REMARK>
 VINA RESULT:      -6.4      1.996      6.985
  Name = 
  9 active torsions:
  status: ('A' for Active; 'I' for Inactive)
    1  A    between atoms: C_1  and  C_4
    2  A    between atoms: C_1  and  C_5
    3  A    between atoms: C_4  and  C_27
    4  A    between atoms: C_5  and  C_22
    5  A    between atoms: C_8  and  C_12
    6  A    between atoms: C_9  and  C_12
    7  A    between atoms: C_9  and  O_21
    8  A    between atoms: C_15  and  C_16
    9  A    between atoms: C_19  and  C_29
                            x       y       z     vdW  Elec       q    Type
                         _______ _______ _______ _____ _____    ______ ____

>  <TORSDO>
F 9

$$$$
=
 OpenBabel11052417103D

 30 32  0  0  1  0  0  0  0  0999 V2000
  191.4900  173.4480  144.0720 C   0  0  1  0  0  3  0  0  0  0  0  0
  192.2420  174.0320  143.0120 O   0  0  0  0  0  0  0  0  0  0  0  0
  192.3590  172.9630  145.0330 F   0  0  0  0  0  0  0  0  0  0  0  0
  189.6450  175.1070  143.5790 C   0  0  2  0  0  3  0  0  0  0  0  0
  191.6870  174.9790  142.1480 C   0  0  0  0  0  3  0  0  0  0  0  0
  190.5230  174.4640  144.6850 C   0  0  1  0  0  3  0  0  0  0  0  0
  190.4880  175.5060  142.3880 C   0  0  0  0  0  3  0  0  0  0  0  0
  187.0670  178.4720  142.3690 C   0  0  0  0  0  3  0  0  0  0  0  0
  186.2570  178.2590  143.4110 C   0  0  0  0  0  3  0  0  0  0  0  0
  188.3260  177.8730  142.2280 O   0  0  0  0  0  0  0  0  0  0  0  0
  185.9830  177.2950  145.6730 C   0  0  0  0  0  3  0  0  0  0  0  0
  187.3300  176.0420  144.0850 C   0  0  0  0  0  2  0  0  0  0  0  0
  189.1790  177.6250  143.3460 C   0  0  0  0  0  2  0  0  0  0  0  0
  186.5140  177.2400  144.4460 C   0  0  0  0  0  0  0  0  0  0  0  0
  188.8350  176.3230  144.0930 C   0  0  2  0  0  3  0  0  0  0  0  0
  183.9920  178.6170  145.7170 O   0  0  0  0  0  0  0  0  0  0  0  0
  185.1220  178.3630  146.2120 C   0  0  0  0  0  0  0  0  0  0  0  0
  185.5730  179.1070  147.2940 O   0  0  0  0  0  1  0  0  0  0  0  0
  189.6720  173.7330  145.7110 C   0  0  0  0  0  2  0  0  0  0  0  0
  189.2680  174.6880  146.8150 C   0  0  0  0  0  2  0  0  0  0  0  0
  190.4970  175.0640  147.6200 C   0  0  0  0  0  2  0  0  0  0  0  0
  192.1840  176.9990  147.0850 C   0  0  2  0  0  3  0  0  0  0  0  0
  191.7410  177.0000  148.4260 O   0  0  0  0  0  0  0  0  0  0  0  0
  190.8190  176.5480  147.4660 C   0  0  2  0  0  0  0  0  0  0  0  0
  189.6930  177.5420  147.2630 C   0  0  0  0  0  1  0  0  0  0  0  0
  193.1730  175.8580  146.8880 C   0  0  0  0  0  2  0  0  0  0  0  0
  194.2660  176.2610  145.9120 C   0  0  2  0  0  3  0  0  0  0  0  0
  193.6230  176.7860  144.6440 C   0  0  0  0  0  1  0  0  0  0  0  0
  195.6810  175.4860  144.3960 C   0  0  0  0  0  1  0  0  0  0  0  0
  195.0620  175.1560  145.6030 O   0  0  0  0  0  0  0  0  0  0  0  0
  1  6  1  0  0  0  0
  1  3  1  1  0  0  0
  2  1  1  0  0  0  0
  4  7  1  6  0  0  0
  4 15  1  0  0  0  0
  4  6  1  0  0  0  0
  5  7  2  0  0  0  0
  5  2  1  0  0  0  0
  6 19  1  1  0  0  0
  8  9  2  0  0  0  0
  9 14  1  0  0  0  0
 10  8  1  0  0  0  0
 10 13  1  0  0  0  0
 11 17  1  0  0  0  0
 12 15  1  0  0  0  0
 12 14  1  0  0  0  0
 14 11  2  0  0  0  0
 15 13  1  6  0  0  0
 16 17  2  0  0  0  0
 17 18  1  0  0  0  0
 19 20  1  0  0  0  0
 20 21  1  0  0  0  0
 22 26  1  1  0  0  0
 22 24  1  0  0  0  0
 22 23  1  0  0  0  0
 24 25  1  6  0  0  0
 24 21  1  0  0  0  0
 24 23  1  0  0  0  0
 27 28  1  6  0  0  0
 27 26  1  0  0  0  0
 29 30  1  0  0  0  0
 30 27  1  0  0  0  0
M  END
>  <MODEL>
9

>  <REMARK>
 VINA RESULT:      -6.3      2.540      5.194
  Name = 
  9 active torsions:
  status: ('A' for Active; 'I' for Inactive)
    1  A    between atoms: C_1  and  C_4
    2  A    between atoms: C_1  and  C_5
    3  A    between atoms: C_4  and  C_27
    4  A    between atoms: C_5  and  C_22
    5  A    between atoms: C_8  and  C_12
    6  A    between atoms: C_9  and  C_12
    7  A    between atoms: C_9  and  O_21
    8  A    between atoms: C_15  and  C_16
    9  A    between atoms: C_19  and  C_29
                            x       y       z     vdW  Elec       q    Type
                         _______ _______ _______ _____ _____    ______ ____

>  <TORSDO>
F 9

$$$$
