=
 OpenBabel11052417493D

 31 34  0  0  1  0  0  0  0  0999 V2000
  194.5670  171.0230  143.3680 C   0  0  0  0  0  0  0  0  0  0  0  0
  193.0670  174.4570  143.0350 N   0  0  0  0  0  0  0  0  0  0  0  0
  193.2350  173.0590  143.3630 C   0  0  0  0  0  0  0  0  0  0  0  0
  193.5360  170.3430  144.0170 C   0  0  0  0  0  3  0  0  0  0  0  0
  191.0630  174.5510  144.4470 C   0  0  1  0  0  3  0  0  0  0  0  0
  196.0500  170.1860  142.9610 Cl  0  0  0  0  0  0  0  0  0  0  0  0
  190.8930  173.0370  144.3250 C   0  0  0  0  0  2  0  0  0  0  0  0
  191.7530  175.0840  143.1990 C   0  0  0  0  0  2  0  0  0  0  0  0
  194.4180  172.3720  143.0390 C   0  0  0  0  0  3  0  0  0  0  0  0
  192.2000  172.3640  144.0250 C   0  0  0  0  0  0  0  0  0  0  0  0
  192.3530  171.0090  144.3390 C   0  0  0  0  0  3  0  0  0  0  0  0
  194.1520  175.2570  142.5310 C   0  0  0  0  0  0  0  0  0  0  0  0
  195.3030  176.2170  140.6600 N   0  0  0  0  0  0  0  0  0  0  0  0
  194.2730  175.4810  141.1520 C   0  0  0  0  0  3  0  0  0  0  0  0
  196.2470  176.7550  141.4770 C   0  0  0  0  0  3  0  0  0  0  0  0
  196.1700  176.5600  142.8550 C   0  0  0  0  0  3  0  0  0  0  0  0
  195.1170  175.8090  143.3950 C   0  0  0  0  0  0  0  0  0  0  0  0
  195.0070  175.6100  144.7780 O   0  0  0  0  0  0  0  0  0  0  0  0
  193.7030  176.0460  146.7590 C   0  0  0  0  0  1  0  0  0  0  0  0
  194.6060  176.6290  145.6880 C   0  0  0  0  0  2  0  0  0  0  0  0
  190.4450  176.6360  146.2820 O   0  0  0  0  0  0  0  0  0  0  0  0
  189.5080  176.2230  145.5450 C   0  0  0  0  0  0  0  0  0  0  0  0
  189.7630  175.1870  144.5900 N   0  0  0  0  0  2  0  0  0  0  0  0
  185.5600  177.8630  145.9500 C   0  0  0  0  0  0  0  0  0  0  0  0
  187.3870  176.5260  146.7990 C   0  0  0  0  0  3  0  0  0  0  0  0
  188.2990  177.9380  143.4920 O   0  0  0  0  0  1  0  0  0  0  0  0
  183.9490  178.5200  146.1350 Cl  0  0  0  0  0  0  0  0  0  0  0  0
  186.1010  177.0510  146.9480 C   0  0  0  0  0  3  0  0  0  0  0  0
  187.5930  177.6280  144.6480 C   0  0  0  0  0  0  0  0  0  0  0  0
  188.1490  176.8050  145.6530 C   0  0  0  0  0  0  0  0  0  0  0  0
  186.3040  178.1500  144.8040 C   0  0  0  0  0  3  0  0  0  0  0  0
  1  4  1  0  0  0  0
  2  8  1  0  0  0  0
  2  3  1  0  0  0  0
  3 10  2  0  0  0  0
  4 11  2  0  0  0  0
  5 23  1  6  0  0  0
  6  1  1  0  0  0  0
  7  5  1  0  0  0  0
  8  5  1  0  0  0  0
  9  3  1  0  0  0  0
  9  1  2  0  0  0  0
 10  7  1  0  0  0  0
 10 11  1  0  0  0  0
 12  2  1  0  0  0  0
 12 17  1  0  0  0  0
 13 14  1  0  0  0  0
 13 15  2  0  0  0  0
 14 12  2  0  0  0  0
 15 16  1  0  0  0  0
 16 17  2  0  0  0  0
 17 18  1  0  0  0  0
 18 20  1  0  0  0  0
 20 19  1  0  0  0  0
 22 30  1  0  0  0  0
 22 21  2  0  0  0  0
 23 22  1  0  0  0  0
 24 27  1  0  0  0  0
 24 28  1  0  0  0  0
 25 28  2  0  0  0  0
 26 29  1  0  0  0  0
 29 31  1  0  0  0  0
 29 30  2  0  0  0  0
 30 25  1  0  0  0  0
 31 24  2  0  0  0  0
M  END
>  <MODEL>
1

>  <REMARK>
 VINA RESULT:      -6.8      0.000      0.000
  Name = 
  5 active torsions:
  status: ('A' for Active; 'I' for Inactive)
    1  A    between atoms: N_4  and  C_5
    2  A    between atoms: C_9  and  C_22
    3  A    between atoms: C_15  and  N_23
    4  A    between atoms: C_29  and  O_31
    5  A    between atoms: C_30  and  O_31
                            x       y       z     vdW  Elec       q    Type
                         _______ _______ _______ _____ _____    ______ ____

>  <TORSDO>
F 5

$$$$
=
 OpenBabel11052417493D

 31 34  0  0  1  0  0  0  0  0999 V2000
  185.3430  178.1810  146.1540 C   0  0  0  0  0  0  0  0  0  0  0  0
  188.1230  177.3780  143.7510 N   0  0  0  0  0  0  0  0  0  0  0  0
  187.3850  177.5770  144.9790 C   0  0  0  0  0  0  0  0  0  0  0  0
  185.9730  177.9510  147.3780 C   0  0  0  0  0  3  0  0  0  0  0  0
  189.9150  176.2670  145.0050 C   0  0  1  0  0  3  0  0  0  0  0  0
  183.6720  178.7010  146.1130 Cl  0  0  0  0  0  0  0  0  0  0  0  0
  189.4620  176.9610  146.2890 C   0  0  0  0  0  2  0  0  0  0  0  0
  189.5680  177.1410  143.8080 C   0  0  0  0  0  2  0  0  0  0  0  0
  186.0450  177.9990  144.9610 C   0  0  0  0  0  3  0  0  0  0  0  0
  188.0120  177.3420  146.2200 C   0  0  0  0  0  0  0  0  0  0  0  0
  187.3060  177.5390  147.4120 C   0  0  0  0  0  3  0  0  0  0  0  0
  187.4850  177.4240  142.4620 C   0  0  0  0  0  0  0  0  0  0  0  0
  186.0260  178.5500  140.9280 N   0  0  0  0  0  0  0  0  0  0  0  0
  186.6520  178.5030  142.1330 C   0  0  0  0  0  3  0  0  0  0  0  0
  186.1820  177.5630  140.0070 C   0  0  0  0  0  3  0  0  0  0  0  0
  187.0010  176.4690  140.2870 C   0  0  0  0  0  3  0  0  0  0  0  0
  187.6630  176.3930  141.5210 C   0  0  0  0  0  0  0  0  0  0  0  0
  188.5040  175.3130  141.8230 O   0  0  0  0  0  0  0  0  0  0  0  0
  188.4250  172.9060  141.9470 C   0  0  0  0  0  1  0  0  0  0  0  0
  188.5590  174.1210  141.0470 C   0  0  0  0  0  2  0  0  0  0  0  0
  191.2780  174.1150  143.7370 O   0  0  0  0  0  0  0  0  0  0  0  0
  191.9800  174.9320  144.3950 C   0  0  0  0  0  0  0  0  0  0  0  0
  191.3520  176.0450  145.0410 N   0  0  0  0  0  2  0  0  0  0  0  0
  196.2180  174.3530  144.7770 C   0  0  0  0  0  0  0  0  0  0  0  0
  193.9540  173.9180  145.5070 C   0  0  0  0  0  3  0  0  0  0  0  0
  193.9120  176.2320  142.6080 O   0  0  0  0  0  1  0  0  0  0  0  0
  197.9410  174.1040  144.9510 Cl  0  0  0  0  0  0  0  0  0  0  0  0
  195.3300  173.7170  145.6460 C   0  0  0  0  0  3  0  0  0  0  0  0
  194.3550  175.3930  143.6240 C   0  0  0  0  0  0  0  0  0  0  0  0
  193.4470  174.7540  144.5000 C   0  0  0  0  0  0  0  0  0  0  0  0
  195.7310  175.1870  143.7700 C   0  0  0  0  0  3  0  0  0  0  0  0
  1  4  1  0  0  0  0
  2  8  1  0  0  0  0
  2  3  1  0  0  0  0
  3 10  2  0  0  0  0
  4 11  2  0  0  0  0
  5 23  1  1  0  0  0
  5  7  1  0  0  0  0
  6  1  1  0  0  0  0
  8  5  1  0  0  0  0
  9  3  1  0  0  0  0
  9  1  2  0  0  0  0
 10  7  1  0  0  0  0
 10 11  1  0  0  0  0
 12  2  1  0  0  0  0
 13 14  2  0  0  0  0
 14 12  1  0  0  0  0
 15 16  2  0  0  0  0
 15 13  1  0  0  0  0
 16 17  1  0  0  0  0
 17 18  1  0  0  0  0
 17 12  2  0  0  0  0
 20 18  1  0  0  0  0
 20 19  1  0  0  0  0
 21 22  2  0  0  0  0
 22 30  1  0  0  0  0
 22 23  1  0  0  0  0
 24 27  1  0  0  0  0
 24 28  1  0  0  0  0
 25 28  2  0  0  0  0
 26 29  1  0  0  0  0
 29 31  1  0  0  0  0
 29 30  2  0  0  0  0
 30 25  1  0  0  0  0
 31 24  2  0  0  0  0
M  END
>  <MODEL>
2

>  <REMARK>
 VINA RESULT:      -6.7      2.747      8.502
  Name = 
  5 active torsions:
  status: ('A' for Active; 'I' for Inactive)
    1  A    between atoms: N_4  and  C_5
    2  A    between atoms: C_9  and  C_22
    3  A    between atoms: C_15  and  N_23
    4  A    between atoms: C_29  and  O_31
    5  A    between atoms: C_30  and  O_31
                            x       y       z     vdW  Elec       q    Type
                         _______ _______ _______ _____ _____    ______ ____

>  <TORSDO>
F 5

$$$$
=
 OpenBabel11052417493D

 31 34  0  0  1  0  0  0  0  0999 V2000
  185.9840  178.3850  145.8850 C   0  0  0  0  0  0  0  0  0  0  0  0
  188.5250  175.8890  144.6730 N   0  0  0  0  0  0  0  0  0  0  0  0
  187.3810  176.7740  144.7140 C   0  0  0  0  0  0  0  0  0  0  0  0
  185.1560  178.4880  144.7670 C   0  0  0  0  0  3  0  0  0  0  0  0
  188.2400  175.6310  142.2500 C   0  0  1  0  0  3  0  0  0  0  0  0
  185.6380  179.3240  147.3210 Cl  0  0  0  0  0  0  0  0  0  0  0  0
  186.7740  176.0460  142.3670 C   0  0  0  0  0  2  0  0  0  0  0  0
  188.6820  174.9660  143.5460 C   0  0  0  0  0  2  0  0  0  0  0  0
  187.0890  177.5310  145.8610 C   0  0  0  0  0  3  0  0  0  0  0  0
  186.5420  176.8890  143.5860 C   0  0  0  0  0  0  0  0  0  0  0  0
  185.4300  177.7370  143.6220 C   0  0  0  0  0  3  0  0  0  0  0  0
  189.5130  175.8720  145.7190 C   0  0  0  0  0  0  0  0  0  0  0  0
  190.3170  174.9330  147.7730 N   0  0  0  0  0  0  0  0  0  0  0  0
  189.4030  174.9490  146.7680 C   0  0  0  0  0  3  0  0  0  0  0  0
  191.3590  175.8060  147.7990 C   0  0  0  0  0  3  0  0  0  0  0  0
  191.5120  176.7430  146.7780 C   0  0  0  0  0  3  0  0  0  0  0  0
  190.5870  176.7820  145.7250 C   0  0  0  0  0  0  0  0  0  0  0  0
  190.7250  177.7020  144.6770 O   0  0  0  0  0  0  0  0  0  0  0  0
  192.5570  176.4570  143.7250 C   0  0  0  0  0  1  0  0  0  0  0  0
  191.4080  177.4120  143.4620 C   0  0  0  0  0  2  0  0  0  0  0  0
  190.7120  174.4990  141.4100 O   0  0  0  0  0  0  0  0  0  0  0  0
  189.6810  174.1720  140.7600 C   0  0  0  0  0  0  0  0  0  0  0  0
  188.4050  174.6980  141.1460 N   0  0  0  0  0  2  0  0  0  0  0  0
  189.9410  171.5720  137.3540 C   0  0  0  0  0  0  0  0  0  0  0  0
  189.6280  173.7690  138.3110 C   0  0  0  0  0  3  0  0  0  0  0  0
  190.1630  171.2890  141.0170 O   0  0  0  0  0  1  0  0  0  0  0  0
  190.0430  170.5290  135.9520 Cl  0  0  0  0  0  0  0  0  0  0  0  0
  189.7110  172.9380  137.1910 C   0  0  0  0  0  3  0  0  0  0  0  0
  190.0090  171.8620  139.7610 C   0  0  0  0  0  0  0  0  0  0  0  0
  189.7760  173.2480  139.6060 C   0  0  0  0  0  0  0  0  0  0  0  0
  190.0900  171.0370  138.6340 C   0  0  0  0  0  3  0  0  0  0  0  0
  1  6  1  0  0  0  0
  2  3  1  0  0  0  0
  2 12  1  0  0  0  0
  3  9  2  0  0  0  0
  4  1  2  0  0  0  0
  5 23  1  6  0  0  0
  5  7  1  0  0  0  0
  5  8  1  0  0  0  0
  7 10  1  0  0  0  0
  8  2  1  0  0  0  0
  9  1  1  0  0  0  0
 10 11  2  0  0  0  0
 10  3  1  0  0  0  0
 11  4  1  0  0  0  0
 12 17  2  0  0  0  0
 12 14  1  0  0  0  0
 13 15  1  0  0  0  0
 14 13  2  0  0  0  0
 16 15  2  0  0  0  0
 17 16  1  0  0  0  0
 18 17  1  0  0  0  0
 20 19  1  0  0  0  0
 20 18  1  0  0  0  0
 22 23  1  0  0  0  0
 22 21  2  0  0  0  0
 24 31  1  0  0  0  0
 25 30  2  0  0  0  0
 27 24  1  0  0  0  0
 28 24  2  0  0  0  0
 28 25  1  0  0  0  0
 29 26  1  0  0  0  0
 30 29  1  0  0  0  0
 30 22  1  0  0  0  0
 31 29  2  0  0  0  0
M  END
>  <MODEL>
3

>  <REMARK>
 VINA RESULT:      -6.7      3.881      8.184
  Name = 
  5 active torsions:
  status: ('A' for Active; 'I' for Inactive)
    1  A    between atoms: N_4  and  C_5
    2  A    between atoms: C_9  and  C_22
    3  A    between atoms: C_15  and  N_23
    4  A    between atoms: C_29  and  O_31
    5  A    between atoms: C_30  and  O_31
                            x       y       z     vdW  Elec       q    Type
                         _______ _______ _______ _____ _____    ______ ____

>  <TORSDO>
F 5

$$$$
=
 OpenBabel11052417493D

 31 34  0  0  1  0  0  0  0  0999 V2000
  191.4410  177.0560  147.8280 C   0  0  0  0  0  0  0  0  0  0  0  0
  188.9330  176.4300  145.0950 N   0  0  0  0  0  0  0  0  0  0  0  0
  190.1680  176.4420  145.8480 C   0  0  0  0  0  0  0  0  0  0  0  0
  192.5770  176.4470  147.2940 C   0  0  0  0  0  3  0  0  0  0  0  0
  189.8940  174.7890  143.5440 C   0  0  1  0  0  3  0  0  0  0  0  0
  191.5150  177.8230  149.4000 Cl  0  0  0  0  0  0  0  0  0  0  0  0
  191.3040  175.2190  143.9460 C   0  0  0  0  0  2  0  0  0  0  0  0
  188.9410  175.9650  143.7050 C   0  0  0  0  0  2  0  0  0  0  0  0
  190.2430  177.0570  147.1100 C   0  0  0  0  0  3  0  0  0  0  0  0
  191.3200  175.8240  145.3180 C   0  0  0  0  0  0  0  0  0  0  0  0
  192.5190  175.8380  146.0390 C   0  0  0  0  0  3  0  0  0  0  0  0
  187.6900  176.8790  145.6620 C   0  0  0  0  0  0  0  0  0  0  0  0
  186.0710  176.7580  147.4270 N   0  0  0  0  0  0  0  0  0  0  0  0
  187.2520  176.3580  146.8880 C   0  0  0  0  0  3  0  0  0  0  0  0
  185.2760  177.6660  146.8020 C   0  0  0  0  0  3  0  0  0  0  0  0
  185.6680  178.2140  145.5810 C   0  0  0  0  0  3  0  0  0  0  0  0
  186.8840  177.8250  145.0000 C   0  0  0  0  0  0  0  0  0  0  0  0
  187.3090  178.3710  143.7820 O   0  0  0  0  0  0  0  0  0  0  0  0
  185.9750  177.4790  141.9820 C   0  0  0  0  0  1  0  0  0  0  0  0
  186.4210  178.7240  142.7270 C   0  0  0  0  0  2  0  0  0  0  0  0
  188.5480  172.4810  142.5660 O   0  0  0  0  0  0  0  0  0  0  0  0
  189.2000  173.1630  141.7280 C   0  0  0  0  0  0  0  0  0  0  0  0
  189.8850  174.3450  142.1590 N   0  0  0  0  0  2  0  0  0  0  0  0
  189.3080  172.0590  137.5800 C   0  0  0  0  0  0  0  0  0  0  0  0
  188.4940  173.4690  139.3680 C   0  0  0  0  0  3  0  0  0  0  0  0
  190.8350  170.9370  140.7360 O   0  0  0  0  0  1  0  0  0  0  0  0
  189.3370  171.6260  135.8850 Cl  0  0  0  0  0  0  0  0  0  0  0  0
  188.5180  173.1250  138.0140 C   0  0  0  0  0  3  0  0  0  0  0  0
  190.0570  171.6800  139.8550 C   0  0  0  0  0  0  0  0  0  0  0  0
  189.2590  172.7570  140.3050 C   0  0  0  0  0  0  0  0  0  0  0  0
  190.0750  171.3400  138.4980 C   0  0  0  0  0  3  0  0  0  0  0  0
  1  6  1  0  0  0  0
  2 12  1  0  0  0  0
  2  3  1  0  0  0  0
  3  9  1  0  0  0  0
  4  1  1  0  0  0  0
  5 23  1  6  0  0  0
  5  8  1  0  0  0  0
  5  7  1  0  0  0  0
  7 10  1  0  0  0  0
  8  2  1  0  0  0  0
  9  1  2  0  0  0  0
 10  3  2  0  0  0  0
 10 11  1  0  0  0  0
 11  4  2  0  0  0  0
 12 14  1  0  0  0  0
 14 13  2  0  0  0  0
 15 13  1  0  0  0  0
 16 15  2  0  0  0  0
 17 16  1  0  0  0  0
 17 12  2  0  0  0  0
 18 17  1  0  0  0  0
 19 20  1  0  0  0  0
 20 18  1  0  0  0  0
 22 23  1  0  0  0  0
 22 21  2  0  0  0  0
 24 28  2  0  0  0  0
 24 31  1  0  0  0  0
 25 30  2  0  0  0  0
 27 24  1  0  0  0  0
 28 25  1  0  0  0  0
 29 30  1  0  0  0  0
 29 26  1  0  0  0  0
 30 22  1  0  0  0  0
 31 29  2  0  0  0  0
M  END
>  <MODEL>
4

>  <REMARK>
 VINA RESULT:      -6.7      4.130      8.135
  Name = 
  5 active torsions:
  status: ('A' for Active; 'I' for Inactive)
    1  A    between atoms: N_4  and  C_5
    2  A    between atoms: C_9  and  C_22
    3  A    between atoms: C_15  and  N_23
    4  A    between atoms: C_29  and  O_31
    5  A    between atoms: C_30  and  O_31
                            x       y       z     vdW  Elec       q    Type
                         _______ _______ _______ _____ _____    ______ ____

>  <TORSDO>
F 5

$$$$
=
 OpenBabel11052417493D

 31 34  0  0  1  0  0  0  0  0999 V2000
  196.3110  174.6200  141.3890 C   0  0  0  0  0  0  0  0  0  0  0  0
  193.6780  173.9050  143.9800 N   0  0  0  0  0  0  0  0  0  0  0  0
  194.4280  174.5570  142.9300 C   0  0  0  0  0  0  0  0  0  0  0  0
  195.8660  175.8440  140.8870 C   0  0  0  0  0  3  0  0  0  0  0  0
  191.8250  175.4740  143.6330 C   0  0  1  0  0  3  0  0  0  0  0  0
  197.7640  173.8850  140.7470 Cl  0  0  0  0  0  0  0  0  0  0  0  0
  192.7800  176.4770  142.9890 C   0  0  0  0  0  2  0  0  0  0  0  0
  192.5870  174.6250  144.6410 C   0  0  0  0  0  2  0  0  0  0  0  0
  195.5990  173.9810  142.4070 C   0  0  0  0  0  3  0  0  0  0  0  0
  193.9830  175.7920  142.4120 C   0  0  0  0  0  0  0  0  0  0  0  0
  194.7080  176.4320  141.4010 C   0  0  0  0  0  3  0  0  0  0  0  0
  193.9810  172.5670  144.4140 C   0  0  0  0  0  0  0  0  0  0  0  0
  193.5260  170.2150  144.3030 N   0  0  0  0  0  0  0  0  0  0  0  0
  193.2650  171.4820  143.8880 C   0  0  0  0  0  3  0  0  0  0  0  0
  194.4790  169.9550  145.2360 C   0  0  0  0  0  3  0  0  0  0  0  0
  195.2180  171.0000  145.7900 C   0  0  0  0  0  3  0  0  0  0  0  0
  194.9750  172.3190  145.3790 C   0  0  0  0  0  0  0  0  0  0  0  0
  195.7140  173.3870  145.9070 O   0  0  0  0  0  0  0  0  0  0  0  0
  197.8120  174.1660  145.0110 C   0  0  0  0  0  1  0  0  0  0  0  0
  197.1250  173.3500  146.0900 C   0  0  0  0  0  2  0  0  0  0  0  0
  189.1670  174.5060  143.9440 O   0  0  0  0  0  0  0  0  0  0  0  0
  189.4230  175.6450  144.4220 C   0  0  0  0  0  0  0  0  0  0  0  0
  190.7470  176.1790  144.3110 N   0  0  0  0  0  2  0  0  0  0  0  0
  186.3540  177.9840  146.3070 C   0  0  0  0  0  0  0  0  0  0  0  0
  187.7300  177.4610  144.3890 C   0  0  0  0  0  3  0  0  0  0  0  0
  188.5770  175.1880  147.1950 O   0  0  0  0  0  1  0  0  0  0  0  0
  185.1010  178.9500  147.0560 Cl  0  0  0  0  0  0  0  0  0  0  0  0
  186.7290  178.2320  144.9860 C   0  0  0  0  0  3  0  0  0  0  0  0
  187.9810  176.1900  146.4400 C   0  0  0  0  0  0  0  0  0  0  0  0
  188.3680  176.4340  145.1020 C   0  0  0  0  0  0  0  0  0  0  0  0
  186.9780  176.9670  147.0300 C   0  0  0  0  0  3  0  0  0  0  0  0
  1  9  1  0  0  0  0
  2 12  1  0  0  0  0
  2  8  1  0  0  0  0
  3  2  1  0  0  0  0
  4  1  2  0  0  0  0
  4 11  1  0  0  0  0
  5 23  1  1  0  0  0
  5  8  1  0  0  0  0
  6  1  1  0  0  0  0
  7  5  1  0  0  0  0
  9  3  2  0  0  0  0
 10  3  1  0  0  0  0
 10  7  1  0  0  0  0
 11 10  2  0  0  0  0
 12 17  1  0  0  0  0
 13 15  2  0  0  0  0
 14 13  1  0  0  0  0
 14 12  2  0  0  0  0
 15 16  1  0  0  0  0
 17 16  2  0  0  0  0
 17 18  1  0  0  0  0
 18 20  1  0  0  0  0
 19 20  1  0  0  0  0
 21 22  2  0  0  0  0
 22 30  1  0  0  0  0
 23 22  1  0  0  0  0
 24 31  1  0  0  0  0
 24 27  1  0  0  0  0
 25 28  1  0  0  0  0
 25 30  2  0  0  0  0
 28 24  2  0  0  0  0
 29 31  2  0  0  0  0
 29 26  1  0  0  0  0
 30 29  1  0  0  0  0
M  END
>  <MODEL>
5

>  <REMARK>
 VINA RESULT:      -6.7      2.136      4.017
  Name = 
  5 active torsions:
  status: ('A' for Active; 'I' for Inactive)
    1  A    between atoms: N_4  and  C_5
    2  A    between atoms: C_9  and  C_22
    3  A    between atoms: C_15  and  N_23
    4  A    between atoms: C_29  and  O_31
    5  A    between atoms: C_30  and  O_31
                            x       y       z     vdW  Elec       q    Type
                         _______ _______ _______ _____ _____    ______ ____

>  <TORSDO>
F 5

$$$$
=
 OpenBabel11052417493D

 31 34  0  0  1  0  0  0  0  0999 V2000
  184.6490  177.9640  141.7020 C   0  0  0  0  0  0  0  0  0  0  0  0
  187.4090  177.7400  144.2490 N   0  0  0  0  0  0  0  0  0  0  0  0
  186.7120  177.8200  142.9840 C   0  0  0  0  0  0  0  0  0  0  0  0
  185.3820  177.9800  140.5140 C   0  0  0  0  0  3  0  0  0  0  0  0
  189.5340  178.1900  143.1080 C   0  0  1  0  0  3  0  0  0  0  0  0
  182.9010  178.0430  141.6540 Cl  0  0  0  0  0  0  0  0  0  0  0  0
  188.9380  177.7080  141.7860 C   0  0  0  0  0  2  0  0  0  0  0  0
  188.8490  177.4720  144.2630 C   0  0  0  0  0  2  0  0  0  0  0  0
  185.3080  177.8810  142.9300 C   0  0  0  0  0  3  0  0  0  0  0  0
  187.4440  177.8430  141.7790 C   0  0  0  0  0  0  0  0  0  0  0  0
  186.7760  177.9140  140.5520 C   0  0  0  0  0  3  0  0  0  0  0  0
  186.7270  177.8980  145.5060 C   0  0  0  0  0  0  0  0  0  0  0  0
  185.3080  179.2090  146.9260 N   0  0  0  0  0  0  0  0  0  0  0  0
  185.9410  179.0360  145.7370 C   0  0  0  0  0  3  0  0  0  0  0  0
  185.4130  178.2950  147.9270 C   0  0  0  0  0  3  0  0  0  0  0  0
  186.1830  177.1460  147.7460 C   0  0  0  0  0  3  0  0  0  0  0  0
  186.8460  176.9370  146.5280 C   0  0  0  0  0  0  0  0  0  0  0  0
  187.6140  175.7840  146.3130 O   0  0  0  0  0  0  0  0  0  0  0  0
  189.6700  174.5420  146.5170 C   0  0  0  0  0  1  0  0  0  0  0  0
  188.5710  175.2940  147.2450 C   0  0  0  0  0  2  0  0  0  0  0  0
  190.6980  175.5950  143.2090 O   0  0  0  0  0  0  0  0  0  0  0  0
  191.4880  176.5800  143.2080 C   0  0  0  0  0  0  0  0  0  0  0  0
  190.9600  177.9100  143.1420 N   0  0  0  0  0  2  0  0  0  0  0  0
  195.7370  175.9670  143.2860 C   0  0  0  0  0  0  0  0  0  0  0  0
  193.6490  176.1190  142.0770 C   0  0  0  0  0  3  0  0  0  0  0  0
  193.0440  176.6680  145.6950 O   0  0  0  0  0  1  0  0  0  0  0  0
  197.4690  175.7140  143.2960 Cl  0  0  0  0  0  0  0  0  0  0  0  0
  195.0320  175.9180  142.0830 C   0  0  0  0  0  3  0  0  0  0  0  0
  193.6770  176.4210  144.4830 C   0  0  0  0  0  0  0  0  0  0  0  0
  192.9540  176.3730  143.2690 C   0  0  0  0  0  0  0  0  0  0  0  0
  195.0610  176.2180  144.4810 C   0  0  0  0  0  3  0  0  0  0  0  0
  1  9  1  0  0  0  0
  2  8  1  0  0  0  0
  2 12  1  0  0  0  0
  3  2  1  0  0  0  0
  4 11  1  0  0  0  0
  4  1  2  0  0  0  0
  5 23  1  6  0  0  0
  5  8  1  0  0  0  0
  6  1  1  0  0  0  0
  7  5  1  0  0  0  0
  9  3  2  0  0  0  0
 10  7  1  0  0  0  0
 10  3  1  0  0  0  0
 11 10  2  0  0  0  0
 12 14  2  0  0  0  0
 12 17  1  0  0  0  0
 13 15  2  0  0  0  0
 14 13  1  0  0  0  0
 16 15  1  0  0  0  0
 17 16  2  0  0  0  0
 18 17  1  0  0  0  0
 18 20  1  0  0  0  0
 19 20  1  0  0  0  0
 22 21  2  0  0  0  0
 22 30  1  0  0  0  0
 23 22  1  0  0  0  0
 24 27  1  0  0  0  0
 24 31  1  0  0  0  0
 25 28  1  0  0  0  0
 25 30  2  0  0  0  0
 28 24  2  0  0  0  0
 29 26  1  0  0  0  0
 30 29  1  0  0  0  0
 31 29  2  0  0  0  0
M  END
>  <MODEL>
6

>  <REMARK>
 VINA RESULT:      -6.7      3.134      8.893
  Name = 
  5 active torsions:
  status: ('A' for Active; 'I' for Inactive)
    1  A    between atoms: N_4  and  C_5
    2  A    between atoms: C_9  and  C_22
    3  A    between atoms: C_15  and  N_23
    4  A    between atoms: C_29  and  O_31
    5  A    between atoms: C_30  and  O_31
                            x       y       z     vdW  Elec       q    Type
                         _______ _______ _______ _____ _____    ______ ____

>  <TORSDO>
F 5

$$$$
=
 OpenBabel11052417493D

 31 34  0  0  1  0  0  0  0  0999 V2000
  186.3190  177.8990  145.1060 C   0  0  0  0  0  0  0  0  0  0  0  0
  188.9860  175.3220  144.4760 N   0  0  0  0  0  0  0  0  0  0  0  0
  187.8270  176.1680  144.3000 C   0  0  0  0  0  0  0  0  0  0  0  0
  185.5730  177.8040  143.9300 C   0  0  0  0  0  3  0  0  0  0  0  0
  188.8840  174.6850  142.1090 C   0  0  1  0  0  3  0  0  0  0  0  0
  185.8510  179.0370  146.3510 Cl  0  0  0  0  0  0  0  0  0  0  0  0
  187.4060  175.0710  142.0580 C   0  0  0  0  0  2  0  0  0  0  0  0
  189.2420  174.2410  143.5210 C   0  0  0  0  0  2  0  0  0  0  0  0
  187.4370  177.0840  145.2930 C   0  0  0  0  0  3  0  0  0  0  0  0
  187.0700  176.0830  143.1120 C   0  0  0  0  0  0  0  0  0  0  0  0
  185.9430  176.8940  142.9380 C   0  0  0  0  0  3  0  0  0  0  0  0
  189.8950  175.4940  145.5790 C   0  0  0  0  0  0  0  0  0  0  0  0
  190.4420  175.0870  147.8770 N   0  0  0  0  0  0  0  0  0  0  0  0
  189.6030  174.9160  146.8220 C   0  0  0  0  0  3  0  0  0  0  0  0
  191.5810  175.8200  147.7680 C   0  0  0  0  0  3  0  0  0  0  0  0
  191.9160  176.4140  146.5520 C   0  0  0  0  0  3  0  0  0  0  0  0
  191.0730  176.2530  145.4430 C   0  0  0  0  0  0  0  0  0  0  0  0
  191.3920  176.8270  144.2040 O   0  0  0  0  0  0  0  0  0  0  0  0
  190.0930  178.2610  142.7660 C   0  0  0  0  0  1  0  0  0  0  0  0
  191.1240  178.1860  143.8770 C   0  0  0  0  0  2  0  0  0  0  0  0
  191.3830  174.1640  140.8530 O   0  0  0  0  0  0  0  0  0  0  0  0
  190.4250  173.3950  140.5650 C   0  0  0  0  0  0  0  0  0  0  0  0
  189.1470  173.5980  141.1790 N   0  0  0  0  0  2  0  0  0  0  0  0
  190.9710  170.1100  137.8560 C   0  0  0  0  0  0  0  0  0  0  0  0
  190.8110  170.9870  140.1030 C   0  0  0  0  0  3  0  0  0  0  0  0
  190.3990  173.7400  137.6510 O   0  0  0  0  0  1  0  0  0  0  0  0
  191.1960  168.7560  136.7690 Cl  0  0  0  0  0  0  0  0  0  0  0  0
  190.9900  169.9060  139.2360 C   0  0  0  0  0  3  0  0  0  0  0  0
  190.5930  172.4800  138.2030 C   0  0  0  0  0  0  0  0  0  0  0  0
  190.6100  172.2840  139.6040 C   0  0  0  0  0  0  0  0  0  0  0  0
  190.7730  171.3920  137.3420 C   0  0  0  0  0  3  0  0  0  0  0  0
  1  9  1  0  0  0  0
  1  6  1  0  0  0  0
  2 12  1  0  0  0  0
  3  2  1  0  0  0  0
  3  9  2  0  0  0  0
  4  1  2  0  0  0  0
  5 23  1  6  0  0  0
  5  8  1  0  0  0  0
  7  5  1  0  0  0  0
  7 10  1  0  0  0  0
  8  2  1  0  0  0  0
 10  3  1  0  0  0  0
 11 10  2  0  0  0  0
 11  4  1  0  0  0  0
 12 14  1  0  0  0  0
 14 13  2  0  0  0  0
 15 13  1  0  0  0  0
 16 15  2  0  0  0  0
 17 12  2  0  0  0  0
 17 16  1  0  0  0  0
 18 17  1  0  0  0  0
 19 20  1  0  0  0  0
 20 18  1  0  0  0  0
 22 21  2  0  0  0  0
 22 23  1  0  0  0  0
 24 28  1  0  0  0  0
 26 29  1  0  0  0  0
 27 24  1  0  0  0  0
 28 25  2  0  0  0  0
 29 30  2  0  0  0  0
 30 25  1  0  0  0  0
 30 22  1  0  0  0  0
 31 24  2  0  0  0  0
 31 29  1  0  0  0  0
M  END
>  <MODEL>
7

>  <REMARK>
 VINA RESULT:      -6.6      3.866      8.188
  Name = 
  5 active torsions:
  status: ('A' for Active; 'I' for Inactive)
    1  A    between atoms: N_4  and  C_5
    2  A    between atoms: C_9  and  C_22
    3  A    between atoms: C_15  and  N_23
    4  A    between atoms: C_29  and  O_31
    5  A    between atoms: C_30  and  O_31
                            x       y       z     vdW  Elec       q    Type
                         _______ _______ _______ _____ _____    ______ ____

>  <TORSDO>
F 5

$$$$
=
 OpenBabel11052417493D

 31 34  0  0  1  0  0  0  0  0999 V2000
  195.8430  173.7110  145.4220 C   0  0  0  0  0  0  0  0  0  0  0  0
  192.3310  173.0880  144.2240 N   0  0  0  0  0  0  0  0  0  0  0  0
  193.4750  173.7010  144.8630 C   0  0  0  0  0  0  0  0  0  0  0  0
  195.6820  174.9150  146.1090 C   0  0  0  0  0  3  0  0  0  0  0  0
  191.0360  175.1430  144.5690 C   0  0  1  0  0  3  0  0  0  0  0  0
  197.4200  172.9560  145.3350 Cl  0  0  0  0  0  0  0  0  0  0  0  0
  191.9720  175.5560  145.7030 C   0  0  0  0  0  2  0  0  0  0  0  0
  190.9910  173.6240  144.4770 C   0  0  0  0  0  2  0  0  0  0  0  0
  194.7460  173.1050  144.8050 C   0  0  0  0  0  3  0  0  0  0  0  0
  193.3230  174.9210  145.5550 C   0  0  0  0  0  0  0  0  0  0  0  0
  194.4230  175.5160  146.1810 C   0  0  0  0  0  3  0  0  0  0  0  0
  192.4630  171.9490  143.3560 C   0  0  0  0  0  0  0  0  0  0  0  0
  192.5290  169.5680  143.0820 N   0  0  0  0  0  0  0  0  0  0  0  0
  192.3860  170.6530  143.8860 C   0  0  0  0  0  3  0  0  0  0  0  0
  192.7520  169.6970  141.7470 C   0  0  0  0  0  3  0  0  0  0  0  0
  192.8360  170.9640  141.1720 C   0  0  0  0  0  3  0  0  0  0  0  0
  192.6900  172.1040  141.9750 C   0  0  0  0  0  0  0  0  0  0  0  0
  192.7540  173.3900  141.4210 O   0  0  0  0  0  0  0  0  0  0  0  0
  193.9270  175.4760  141.7150 C   0  0  0  0  0  1  0  0  0  0  0  0
  193.9770  174.0680  141.1520 C   0  0  0  0  0  2  0  0  0  0  0  0
  190.2190  177.8500  144.2490 O   0  0  0  0  0  0  0  0  0  0  0  0
  189.3480  177.0320  144.6540 C   0  0  0  0  0  0  0  0  0  0  0  0
  189.6960  175.6520  144.8190 N   0  0  0  0  0  2  0  0  0  0  0  0
  185.3670  178.3130  145.6260 C   0  0  0  0  0  0  0  0  0  0  0  0
  187.4940  177.3610  146.2710 C   0  0  0  0  0  3  0  0  0  0  0  0
  187.5320  178.1760  142.6530 O   0  0  0  0  0  1  0  0  0  0  0  0
  183.7480  178.8280  146.0440 Cl  0  0  0  0  0  0  0  0  0  0  0  0
  186.2020  177.7740  146.6060 C   0  0  0  0  0  3  0  0  0  0  0  0
  187.1170  178.0310  143.9710 C   0  0  0  0  0  0  0  0  0  0  0  0
  187.9700  177.4830  144.9560 C   0  0  0  0  0  0  0  0  0  0  0  0
  185.8240  178.4410  144.3140 C   0  0  0  0  0  3  0  0  0  0  0  0
  1  4  1  0  0  0  0
  2  8  1  0  0  0  0
  2  3  1  0  0  0  0
  3 10  2  0  0  0  0
  4 11  2  0  0  0  0
  5 23  1  1  0  0  0
  5  7  1  0  0  0  0
  6  1  1  0  0  0  0
  8  5  1  0  0  0  0
  9  3  1  0  0  0  0
  9  1  2  0  0  0  0
 10  7  1  0  0  0  0
 10 11  1  0  0  0  0
 12 14  1  0  0  0  0
 12  2  1  0  0  0  0
 13 14  2  0  0  0  0
 15 13  1  0  0  0  0
 16 15  2  0  0  0  0
 16 17  1  0  0  0  0
 17 12  2  0  0  0  0
 18 17  1  0  0  0  0
 20 18  1  0  0  0  0
 20 19  1  0  0  0  0
 21 22  2  0  0  0  0
 22 23  1  0  0  0  0
 22 30  1  0  0  0  0
 24 27  1  0  0  0  0
 24 28  1  0  0  0  0
 25 28  2  0  0  0  0
 26 29  1  0  0  0  0
 29 31  1  0  0  0  0
 29 30  2  0  0  0  0
 30 25  1  0  0  0  0
 31 24  2  0  0  0  0
M  END
>  <MODEL>
8

>  <REMARK>
 VINA RESULT:      -6.6      2.002      3.785
  Name = 
  5 active torsions:
  status: ('A' for Active; 'I' for Inactive)
    1  A    between atoms: N_4  and  C_5
    2  A    between atoms: C_9  and  C_22
    3  A    between atoms: C_15  and  N_23
    4  A    between atoms: C_29  and  O_31
    5  A    between atoms: C_30  and  O_31
                            x       y       z     vdW  Elec       q    Type
                         _______ _______ _______ _____ _____    ______ ____

>  <TORSDO>
F 5

$$$$
=
 OpenBabel11052417493D

 31 34  0  0  1  0  0  0  0  0999 V2000
  195.5870  172.3820  144.0890 C   0  0  0  0  0  0  0  0  0  0  0  0
  192.7410  174.1100  142.3380 N   0  0  0  0  0  0  0  0  0  0  0  0
  193.5730  173.5470  143.3790 C   0  0  0  0  0  0  0  0  0  0  0  0
  195.1740  172.4680  145.4200 C   0  0  0  0  0  3  0  0  0  0  0  0
  191.3770  175.2380  144.0360 C   0  0  1  0  0  3  0  0  0  0  0  0
  197.1030  171.6020  143.6910 Cl  0  0  0  0  0  0  0  0  0  0  0  0
  191.8420  174.2360  145.0920 C   0  0  0  0  0  2  0  0  0  0  0  0
  191.3910  174.5740  142.6670 C   0  0  0  0  0  2  0  0  0  0  0  0
  194.7910  172.9150  143.0730 C   0  0  0  0  0  3  0  0  0  0  0  0
  193.1670  173.6350  144.7270 C   0  0  0  0  0  0  0  0  0  0  0  0
  193.9640  173.0870  145.7380 C   0  0  0  0  0  3  0  0  0  0  0  0
  193.1910  174.2130  140.9750 C   0  0  0  0  0  0  0  0  0  0  0  0
  193.2080  173.3380  138.7430 N   0  0  0  0  0  0  0  0  0  0  0  0
  192.7760  173.2650  140.0290 C   0  0  0  0  0  3  0  0  0  0  0  0
  194.0510  174.3200  138.3310 C   0  0  0  0  0  3  0  0  0  0  0  0
  194.4920  175.2870  139.2340 C   0  0  0  0  0  3  0  0  0  0  0  0
  194.0610  175.2410  140.5680 C   0  0  0  0  0  0  0  0  0  0  0  0
  194.4760  176.2090  141.4940 O   0  0  0  0  0  0  0  0  0  0  0  0
  196.0090  176.3410  143.3500 C   0  0  0  0  0  1  0  0  0  0  0  0
  195.8380  176.4260  141.8450 C   0  0  0  0  0  2  0  0  0  0  0  0
  190.6340  177.9270  144.6010 O   0  0  0  0  0  0  0  0  0  0  0  0
  189.7180  177.0590  144.6320 C   0  0  0  0  0  0  0  0  0  0  0  0
  190.0290  175.6920  144.3410 N   0  0  0  0  0  2  0  0  0  0  0  0
  185.7000  178.1460  145.6860 C   0  0  0  0  0  0  0  0  0  0  0  0
  187.8950  177.3350  146.2940 C   0  0  0  0  0  3  0  0  0  0  0  0
  187.7830  178.0360  142.6540 O   0  0  0  0  0  1  0  0  0  0  0  0
  184.0670  178.5830  146.1380 Cl  0  0  0  0  0  0  0  0  0  0  0  0
  186.5920  177.6850  146.6560 C   0  0  0  0  0  3  0  0  0  0  0  0
  187.4150  177.9100  143.9880 C   0  0  0  0  0  0  0  0  0  0  0  0
  188.3260  177.4420  144.9630 C   0  0  0  0  0  0  0  0  0  0  0  0
  186.1120  178.2580  144.3580 C   0  0  0  0  0  3  0  0  0  0  0  0
  1  4  1  0  0  0  0
  2  8  1  0  0  0  0
  2  3  1  0  0  0  0
  3 10  2  0  0  0  0
  4 11  2  0  0  0  0
  5 23  1  1  0  0  0
  5  7  1  0  0  0  0
  6  1  1  0  0  0  0
  8  5  1  0  0  0  0
  9  3  1  0  0  0  0
  9  1  2  0  0  0  0
 10  7  1  0  0  0  0
 10 11  1  0  0  0  0
 12  2  1  0  0  0  0
 13 14  1  0  0  0  0
 14 12  2  0  0  0  0
 15 13  2  0  0  0  0
 15 16  1  0  0  0  0
 16 17  2  0  0  0  0
 17 12  1  0  0  0  0
 17 18  1  0  0  0  0
 18 20  1  0  0  0  0
 20 19  1  0  0  0  0
 21 22  2  0  0  0  0
 22 30  1  0  0  0  0
 23 22  1  0  0  0  0
 24 27  1  0  0  0  0
 24 28  1  0  0  0  0
 25 28  2  0  0  0  0
 26 29  1  0  0  0  0
 29 31  1  0  0  0  0
 29 30  2  0  0  0  0
 30 25  1  0  0  0  0
 31 24  2  0  0  0  0
M  END
>  <MODEL>
9

>  <REMARK>
 VINA RESULT:      -6.4      1.718      2.320
  Name = 
  5 active torsions:
  status: ('A' for Active; 'I' for Inactive)
    1  A    between atoms: N_4  and  C_5
    2  A    between atoms: C_9  and  C_22
    3  A    between atoms: C_15  and  N_23
    4  A    between atoms: C_29  and  O_31
    5  A    between atoms: C_30  and  O_31
                            x       y       z     vdW  Elec       q    Type
                         _______ _______ _______ _____ _____    ______ ____

>  <TORSDO>
F 5

$$$$
