=
 OpenBabel11052417483D

 31 35  0  0  1  0  0  0  0  0999 V2000
  194.9600  174.9220  145.6190 C   0  0  0  0  0  0  0  0  0  0  0  0
  191.6460  174.2670  143.8250 C   0  0  1  0  0  3  0  0  0  0  0  0
  188.9120  177.6200  146.8770 O   0  0  0  0  0  0  0  0  0  0  0  0
  188.2090  177.3310  145.8710 C   0  0  0  0  0  0  0  0  0  0  0  0
  192.7110  174.8870  144.7020 C   0  0  0  0  0  0  0  0  0  0  0  0
  194.5880  175.9380  146.5030 C   0  0  0  0  0  3  0  0  0  0  0  0
  190.1040  176.0460  144.7360 C   0  0  0  0  0  0  0  0  0  0  0  0
  196.2920  174.4210  145.6310 N   0  0  0  0  0  1  0  0  0  0  0  0
  190.9850  176.3720  145.6380 N   0  0  0  0  0  0  0  0  0  0  0  0
  190.5070  175.2500  143.5250 C   0  0  0  0  0  2  0  0  0  0  0  0
  188.7640  176.5460  144.8050 N   0  0  0  0  0  2  0  0  0  0  0  0
  194.0220  174.3860  144.7320 C   0  0  0  0  0  3  0  0  0  0  0  0
  192.3370  175.8970  145.6070 C   0  0  0  0  0  0  0  0  0  0  0  0
  193.2760  176.4210  146.5010 C   0  0  0  0  0  3  0  0  0  0  0  0
  184.1620  178.7250  145.5200 C   0  0  0  0  0  0  0  0  0  0  0  0
  186.4300  178.6020  144.6940 C   0  0  0  0  0  3  0  0  0  0  0  0
  186.1390  176.6630  147.8430 O   0  0  0  0  0  1  0  0  0  0  0  0
  182.8890  179.1720  145.3960 F   0  0  0  0  0  0  0  0  0  0  0  0
  185.1170  179.0630  144.5640 C   0  0  0  0  0  3  0  0  0  0  0  0
  185.8280  177.4580  146.7460 C   0  0  0  0  0  0  0  0  0  0  0  0
  186.8040  177.7950  145.7800 C   0  0  0  0  0  0  0  0  0  0  0  0
  184.5170  177.9240  146.6080 C   0  0  0  0  0  3  0  0  0  0  0  0
  192.1860  173.6790  142.5480 C   0  0  0  0  0  0  0  0  0  0  0  0
  193.1730  174.0090  140.3500 C   0  0  0  0  0  3  0  0  0  0  0  0
  192.6340  174.5320  141.5260 C   0  0  0  0  0  3  0  0  0  0  0  0
  193.2800  172.6280  140.1860 C   0  0  0  0  0  3  0  0  0  0  0  0
  192.8410  171.7690  141.1950 C   0  0  0  0  0  3  0  0  0  0  0  0
  192.2730  172.2780  142.3750 C   0  0  0  0  0  0  0  0  0  0  0  0
  193.0540  170.8500  144.2710 C   0  0  0  0  0  2  0  0  0  0  0  0
  192.4530  169.9520  143.2170 C   0  0  0  0  0  2  0  0  0  0  0  0
  191.8560  171.3270  143.4660 C   0  0  0  0  0  3  0  0  0  0  0  0
  1  8  1  0  0  0  0
  1  6  1  0  0  0  0
  2 23  1  6  0  0  0
  2  5  1  0  0  0  0
  4  3  2  0  0  0  0
  5 12  1  0  0  0  0
  5 13  2  0  0  0  0
  7 11  1  0  0  0  0
  7  9  2  0  0  0  0
 10  2  1  0  0  0  0
 10  7  1  0  0  0  0
 11  4  1  0  0  0  0
 12  1  2  0  0  0  0
 13  9  1  0  0  0  0
 13 14  1  0  0  0  0
 14  6  2  0  0  0  0
 15 22  1  0  0  0  0
 16 21  2  0  0  0  0
 18 15  1  0  0  0  0
 19 16  1  0  0  0  0
 19 15  2  0  0  0  0
 20 17  1  0  0  0  0
 21  4  1  0  0  0  0
 21 20  1  0  0  0  0
 22 20  2  0  0  0  0
 24 25  1  0  0  0  0
 25 23  2  0  0  0  0
 26 24  2  0  0  0  0
 26 27  1  0  0  0  0
 27 28  2  0  0  0  0
 28 23  1  0  0  0  0
 28 31  1  0  0  0  0
 30 31  1  0  0  0  0
 30 29  1  0  0  0  0
 31 29  1  0  0  0  0
M  END
>  <MODEL>
1

>  <REMARK>
 VINA RESULT:      -7.8      0.000      0.000
  Name = 
  3 active torsions:
  status: ('A' for Active; 'I' for Inactive)
    1  A    between atoms: C_4  and  C_5
    2  A    between atoms: C_9  and  C_22
    3  A    between atoms: C_30  and  C_31
                            x       y       z     vdW  Elec       q    Type
                         _______ _______ _______ _____ _____    ______ ____

>  <TORSDO>
F 3

$$$$
=
 OpenBabel11052417483D

 31 35  0  0  1  0  0  0  0  0999 V2000
  193.3590  173.0090  140.3930 C   0  0  0  0  0  0  0  0  0  0  0  0
  193.1220  174.9850  143.6590 C   0  0  1  0  0  3  0  0  0  0  0  0
  187.9700  176.0510  143.0650 O   0  0  0  0  0  0  0  0  0  0  0  0
  188.2980  176.3140  144.2530 C   0  0  0  0  0  0  0  0  0  0  0  0
  192.7510  174.2200  142.4080 C   0  0  0  0  0  0  0  0  0  0  0  0
  192.0220  173.0000  139.9900 C   0  0  0  0  0  3  0  0  0  0  0  0
  190.6430  175.3340  143.9760 C   0  0  0  0  0  0  0  0  0  0  0  0
  194.3520  172.3960  139.5780 N   0  0  0  0  0  1  0  0  0  0  0  0
  190.4090  174.8840  142.7760 N   0  0  0  0  0  0  0  0  0  0  0  0
  191.9560  175.0590  144.6540 C   0  0  0  0  0  2  0  0  0  0  0  0
  189.6120  175.9840  144.7290 N   0  0  0  0  0  2  0  0  0  0  0  0
  193.7260  173.6300  141.5900 C   0  0  0  0  0  3  0  0  0  0  0  0
  191.4080  174.2250  141.9870 C   0  0  0  0  0  0  0  0  0  0  0  0
  191.0480  173.6130  140.7840 C   0  0  0  0  0  3  0  0  0  0  0  0
  185.5290  178.1390  146.9820 C   0  0  0  0  0  0  0  0  0  0  0  0
  187.1680  176.4410  146.4600 C   0  0  0  0  0  3  0  0  0  0  0  0
  186.6960  178.6660  143.5310 O   0  0  0  0  0  1  0  0  0  0  0  0
  184.6590  178.7030  147.8540 F   0  0  0  0  0  0  0  0  0  0  0  0
  186.2720  177.0230  147.3620 C   0  0  0  0  0  3  0  0  0  0  0  0
  186.5760  178.1000  144.7950 C   0  0  0  0  0  0  0  0  0  0  0  0
  187.3340  176.9680  145.1700 C   0  0  0  0  0  0  0  0  0  0  0  0
  185.6810  178.6760  145.7020 C   0  0  0  0  0  3  0  0  0  0  0  0
  194.3620  174.4630  144.3360 C   0  0  0  0  0  0  0  0  0  0  0  0
  195.4670  172.7060  145.6040 C   0  0  0  0  0  3  0  0  0  0  0  0
  194.3210  173.2270  145.0030 C   0  0  0  0  0  3  0  0  0  0  0  0
  196.6690  173.4110  145.5390 C   0  0  0  0  0  3  0  0  0  0  0  0
  196.7240  174.6390  144.8790 C   0  0  0  0  0  3  0  0  0  0  0  0
  195.5750  175.1880  144.2890 C   0  0  0  0  0  0  0  0  0  0  0  0
  196.2350  176.2820  142.1400 C   0  0  0  0  0  2  0  0  0  0  0  0
  197.1330  176.8050  143.2340 C   0  0  0  0  0  2  0  0  0  0  0  0
  195.6780  176.4920  143.5400 C   0  0  0  0  0  3  0  0  0  0  0  0
  1 12  1  0  0  0  0
  2 23  1  1  0  0  0
  2 10  1  0  0  0  0
  3  4  2  0  0  0  0
  4 11  1  0  0  0  0
  4 21  1  0  0  0  0
  5  2  1  0  0  0  0
  6  1  2  0  0  0  0
  6 14  1  0  0  0  0
  7 10  1  0  0  0  0
  7 11  1  0  0  0  0
  8  1  1  0  0  0  0
  9  7  2  0  0  0  0
 12  5  2  0  0  0  0
 13  5  1  0  0  0  0
 13  9  1  0  0  0  0
 14 13  2  0  0  0  0
 15 19  1  0  0  0  0
 15 18  1  0  0  0  0
 16 19  2  0  0  0  0
 17 20  1  0  0  0  0
 20 21  2  0  0  0  0
 20 22  1  0  0  0  0
 21 16  1  0  0  0  0
 22 15  2  0  0  0  0
 23 25  1  0  0  0  0
 25 24  2  0  0  0  0
 26 24  1  0  0  0  0
 27 26  2  0  0  0  0
 28 23  2  0  0  0  0
 28 27  1  0  0  0  0
 29 30  1  0  0  0  0
 29 31  1  0  0  0  0
 30 31  1  0  0  0  0
 31 28  1  0  0  0  0
M  END
>  <MODEL>
2

>  <REMARK>
 VINA RESULT:      -7.5      2.385      4.533
  Name = 
  3 active torsions:
  status: ('A' for Active; 'I' for Inactive)
    1  A    between atoms: C_4  and  C_5
    2  A    between atoms: C_9  and  C_22
    3  A    between atoms: C_30  and  C_31
                            x       y       z     vdW  Elec       q    Type
                         _______ _______ _______ _____ _____    ______ ____

>  <TORSDO>
F 3

$$$$
=
 OpenBabel11052417483D

 31 35  0  0  1  0  0  0  0  0999 V2000
  191.3360  176.6080  147.4340 C   0  0  0  0  0  0  0  0  0  0  0  0
  188.7420  176.5130  144.6260 C   0  0  1  0  0  3  0  0  0  0  0  0
  191.6870  173.4040  141.5140 O   0  0  0  0  0  0  0  0  0  0  0  0
  190.5110  173.4240  141.0600 C   0  0  0  0  0  0  0  0  0  0  0  0
  189.9420  176.1950  145.4890 C   0  0  0  0  0  0  0  0  0  0  0  0
  192.2930  175.7170  146.9420 C   0  0  0  0  0  3  0  0  0  0  0  0
  189.6080  174.7320  143.0620 C   0  0  0  0  0  0  0  0  0  0  0  0
  191.5530  177.2710  148.6740 N   0  0  0  0  0  1  0  0  0  0  0  0
  190.7330  174.6800  143.7160 N   0  0  0  0  0  0  0  0  0  0  0  0
  188.3880  175.3550  143.6840 C   0  0  0  0  0  2  0  0  0  0  0  0
  189.4670  174.0820  141.7940 N   0  0  0  0  0  2  0  0  0  0  0  0
  190.1720  176.8580  146.7040 C   0  0  0  0  0  3  0  0  0  0  0  0
  190.9190  175.3130  144.9890 C   0  0  0  0  0  0  0  0  0  0  0  0
  192.0870  175.0750  145.7170 C   0  0  0  0  0  3  0  0  0  0  0  0
  189.5790  171.6340  137.2700 C   0  0  0  0  0  0  0  0  0  0  0  0
  189.8480  173.5830  138.6730 C   0  0  0  0  0  3  0  0  0  0  0  0
  190.5650  170.5190  140.6370 O   0  0  0  0  0  1  0  0  0  0  0  0
  189.2830  171.0840  136.0680 F   0  0  0  0  0  0  0  0  0  0  0  0
  189.5430  173.0170  137.4320 C   0  0  0  0  0  3  0  0  0  0  0  0
  190.2290  171.3710  139.5910 C   0  0  0  0  0  0  0  0  0  0  0  0
  190.1950  172.7740  139.7660 C   0  0  0  0  0  0  0  0  0  0  0  0
  189.9220  170.8130  138.3470 C   0  0  0  0  0  3  0  0  0  0  0  0
  187.5320  176.9410  145.4140 C   0  0  0  0  0  0  0  0  0  0  0  0
  186.2090  176.8020  147.4500 C   0  0  0  0  0  3  0  0  0  0  0  0
  187.3030  176.3920  146.6870 C   0  0  0  0  0  3  0  0  0  0  0  0
  185.3370  177.7710  146.9540 C   0  0  0  0  0  3  0  0  0  0  0  0
  185.5540  178.3250  145.6920 C   0  0  0  0  0  3  0  0  0  0  0  0
  186.6360  177.9070  144.9010 C   0  0  0  0  0  0  0  0  0  0  0  0
  185.6270  179.2870  143.0770 C   0  0  0  0  0  2  0  0  0  0  0  0
  185.9760  177.9320  142.5100 C   0  0  0  0  0  2  0  0  0  0  0  0
  186.8720  178.5610  143.5640 C   0  0  0  0  0  3  0  0  0  0  0  0
  1  8  1  0  0  0  0
  2 23  1  1  0  0  0
  2  5  1  0  0  0  0
  4  3  2  0  0  0  0
  4 11  1  0  0  0  0
  5 12  1  0  0  0  0
  6  1  1  0  0  0  0
  7 10  1  0  0  0  0
  7  9  2  0  0  0  0
  9 13  1  0  0  0  0
 10  2  1  0  0  0  0
 11  7  1  0  0  0  0
 12  1  2  0  0  0  0
 13  5  2  0  0  0  0
 13 14  1  0  0  0  0
 14  6  2  0  0  0  0
 15 19  2  0  0  0  0
 15 22  1  0  0  0  0
 16 21  2  0  0  0  0
 18 15  1  0  0  0  0
 19 16  1  0  0  0  0
 20 21  1  0  0  0  0
 20 17  1  0  0  0  0
 21  4  1  0  0  0  0
 22 20  2  0  0  0  0
 23 25  1  0  0  0  0
 25 24  2  0  0  0  0
 26 24  1  0  0  0  0
 27 26  2  0  0  0  0
 28 23  2  0  0  0  0
 28 27  1  0  0  0  0
 29 31  1  0  0  0  0
 30 29  1  0  0  0  0
 30 31  1  0  0  0  0
 31 28  1  0  0  0  0
M  END
>  <MODEL>
3

>  <REMARK>
 VINA RESULT:      -7.4      4.060      8.126
  Name = 
  3 active torsions:
  status: ('A' for Active; 'I' for Inactive)
    1  A    between atoms: C_4  and  C_5
    2  A    between atoms: C_9  and  C_22
    3  A    between atoms: C_30  and  C_31
                            x       y       z     vdW  Elec       q    Type
                         _______ _______ _______ _____ _____    ______ ____

>  <TORSDO>
F 3

$$$$
=
 OpenBabel11052417483D

 31 35  0  0  1  0  0  0  0  0999 V2000
  194.2620  174.6700  141.2990 C   0  0  0  0  0  0  0  0  0  0  0  0
  190.5760  173.6880  141.5750 C   0  0  1  0  0  3  0  0  0  0  0  0
  189.3700  177.7030  144.8070 O   0  0  0  0  0  0  0  0  0  0  0  0
  188.2970  177.2060  144.3700 C   0  0  0  0  0  0  0  0  0  0  0  0
  191.8670  174.4700  141.6530 C   0  0  0  0  0  0  0  0  0  0  0  0
  194.2720  175.8690  142.0160 C   0  0  0  0  0  3  0  0  0  0  0  0
  189.5100  175.6570  142.7380 C   0  0  0  0  0  0  0  0  0  0  0  0
  195.4710  174.1590  140.7500 N   0  0  0  0  0  1  0  0  0  0  0  0
  190.6830  176.1640  142.9910 N   0  0  0  0  0  0  0  0  0  0  0  0
  189.3450  174.5970  141.6840 C   0  0  0  0  0  2  0  0  0  0  0  0
  188.3340  176.1870  143.3600 N   0  0  0  0  0  2  0  0  0  0  0  0
  193.0670  173.9640  141.1310 C   0  0  0  0  0  3  0  0  0  0  0  0
  191.8870  175.6690  142.3910 C   0  0  0  0  0  0  0  0  0  0  0  0
  193.0860  176.3640  142.5670 C   0  0  0  0  0  3  0  0  0  0  0  0
  184.4980  178.5950  145.8120 C   0  0  0  0  0  0  0  0  0  0  0  0
  186.2540  178.5990  144.1510 C   0  0  0  0  0  3  0  0  0  0  0  0
  187.1380  176.2730  146.9010 O   0  0  0  0  0  1  0  0  0  0  0  0
  183.2980  179.0420  146.2530 F   0  0  0  0  0  0  0  0  0  0  0  0
  185.0150  179.0610  144.6050 C   0  0  0  0  0  3  0  0  0  0  0  0
  186.4560  177.1980  146.1190 C   0  0  0  0  0  0  0  0  0  0  0  0
  186.9890  177.6650  144.8960 C   0  0  0  0  0  0  0  0  0  0  0  0
  185.2160  177.6650  146.5670 C   0  0  0  0  0  3  0  0  0  0  0  0
  190.4770  172.8120  140.3530 C   0  0  0  0  0  0  0  0  0  0  0  0
  190.3770  172.6070  137.9320 C   0  0  0  0  0  3  0  0  0  0  0  0
  190.4290  173.4010  139.0780 C   0  0  0  0  0  3  0  0  0  0  0  0
  190.3800  171.2180  138.0450 C   0  0  0  0  0  3  0  0  0  0  0  0
  190.4300  170.6190  139.3050 C   0  0  0  0  0  3  0  0  0  0  0  0
  190.4590  171.4030  140.4700 C   0  0  0  0  0  0  0  0  0  0  0  0
  191.9890  170.2830  142.0990 C   0  0  0  0  0  2  0  0  0  0  0  0
  190.9670  169.2740  141.6370 C   0  0  0  0  0  2  0  0  0  0  0  0
  190.5630  170.7280  141.8130 C   0  0  0  0  0  3  0  0  0  0  0  0
  1  6  1  0  0  0  0
  2 23  1  6  0  0  0
  2  5  1  0  0  0  0
  2 10  1  0  0  0  0
  4  3  2  0  0  0  0
  4 21  1  0  0  0  0
  5 13  2  0  0  0  0
  6 14  2  0  0  0  0
  7  9  2  0  0  0  0
  7 11  1  0  0  0  0
  8  1  1  0  0  0  0
 10  7  1  0  0  0  0
 11  4  1  0  0  0  0
 12  1  2  0  0  0  0
 12  5  1  0  0  0  0
 13 14  1  0  0  0  0
 13  9  1  0  0  0  0
 15 18  1  0  0  0  0
 15 22  1  0  0  0  0
 16 19  1  0  0  0  0
 16 21  2  0  0  0  0
 19 15  2  0  0  0  0
 20 22  2  0  0  0  0
 20 17  1  0  0  0  0
 21 20  1  0  0  0  0
 23 28  1  0  0  0  0
 24 26  2  0  0  0  0
 24 25  1  0  0  0  0
 25 23  2  0  0  0  0
 26 27  1  0  0  0  0
 27 28  2  0  0  0  0
 28 31  1  0  0  0  0
 30 31  1  0  0  0  0
 30 29  1  0  0  0  0
 31 29  1  0  0  0  0
M  END
>  <MODEL>
4

>  <REMARK>
 VINA RESULT:      -7.3      2.232      2.773
  Name = 
  3 active torsions:
  status: ('A' for Active; 'I' for Inactive)
    1  A    between atoms: C_4  and  C_5
    2  A    between atoms: C_9  and  C_22
    3  A    between atoms: C_30  and  C_31
                            x       y       z     vdW  Elec       q    Type
                         _______ _______ _______ _____ _____    ______ ____

>  <TORSDO>
F 3

$$$$
=
 OpenBabel11052417483D

 31 35  0  0  1  0  0  0  0  0999 V2000
  187.1610  177.8630  143.3350 C   0  0  0  0  0  0  0  0  0  0  0  0
  189.7390  175.0400  143.2190 C   0  0  1  0  0  3  0  0  0  0  0  0
  188.1100  173.2530  138.5090 O   0  0  0  0  0  0  0  0  0  0  0  0
  189.2280  172.7330  138.7690 C   0  0  0  0  0  0  0  0  0  0  0  0
  188.6830  176.0430  142.8130 C   0  0  0  0  0  0  0  0  0  0  0  0
  186.5740  177.7380  142.0740 C   0  0  0  0  0  3  0  0  0  0  0  0
  189.5720  174.1650  140.8580 C   0  0  0  0  0  0  0  0  0  0  0  0
  186.6920  178.8520  144.2440 N   0  0  0  0  0  1  0  0  0  0  0  0
  188.5060  174.8830  140.6490 N   0  0  0  0  0  0  0  0  0  0  0  0
  190.4910  174.4760  142.0070 C   0  0  0  0  0  2  0  0  0  0  0  0
  189.9670  173.1510  139.9270 N   0  0  0  0  0  2  0  0  0  0  0  0
  188.2010  177.0090  143.7100 C   0  0  0  0  0  3  0  0  0  0  0  0
  188.0740  175.9100  141.5510 C   0  0  0  0  0  0  0  0  0  0  0  0
  187.0250  176.7580  141.1850 C   0  0  0  0  0  3  0  0  0  0  0  0
  190.8230  169.6150  136.2830 C   0  0  0  0  0  0  0  0  0  0  0  0
  189.6910  170.3410  138.2910 C   0  0  0  0  0  3  0  0  0  0  0  0
  190.5450  173.2850  136.2040 O   0  0  0  0  0  1  0  0  0  0  0  0
  191.3200  168.6210  135.5090 F   0  0  0  0  0  0  0  0  0  0  0  0
  190.2040  169.3130  137.4940 C   0  0  0  0  0  3  0  0  0  0  0  0
  190.4180  171.9770  136.6560 C   0  0  0  0  0  0  0  0  0  0  0  0
  189.7890  171.6810  137.8870 C   0  0  0  0  0  0  0  0  0  0  0  0
  190.9290  170.9430  135.8650 C   0  0  0  0  0  3  0  0  0  0  0  0
  190.7090  175.5700  144.2430 C   0  0  0  0  0  0  0  0  0  0  0  0
  192.6980  176.8690  144.7590 C   0  0  0  0  0  3  0  0  0  0  0  0
  191.8090  176.3360  143.8250 C   0  0  0  0  0  3  0  0  0  0  0  0
  192.4940  176.6490  146.1210 C   0  0  0  0  0  3  0  0  0  0  0  0
  191.4030  175.8900  146.5500 C   0  0  0  0  0  3  0  0  0  0  0  0
  190.5120  175.3270  145.6220 C   0  0  0  0  0  0  0  0  0  0  0  0
  188.3610  175.4550  146.8880 C   0  0  0  0  0  2  0  0  0  0  0  0
  189.3000  174.5410  147.6380 C   0  0  0  0  0  2  0  0  0  0  0  0
  189.3170  174.5560  146.1180 C   0  0  0  0  0  3  0  0  0  0  0  0
  1 12  1  0  0  0  0
  1  8  1  0  0  0  0
  2 23  1  1  0  0  0
  3  4  2  0  0  0  0
  4 11  1  0  0  0  0
  5  2  1  0  0  0  0
  5 12  2  0  0  0  0
  6  1  2  0  0  0  0
  7 10  1  0  0  0  0
  9  7  2  0  0  0  0
  9 13  1  0  0  0  0
 10  2  1  0  0  0  0
 11  7  1  0  0  0  0
 13  5  1  0  0  0  0
 14 13  2  0  0  0  0
 14  6  1  0  0  0  0
 15 19  1  0  0  0  0
 17 20  1  0  0  0  0
 18 15  1  0  0  0  0
 19 16  2  0  0  0  0
 20 21  2  0  0  0  0
 21 16  1  0  0  0  0
 21  4  1  0  0  0  0
 22 15  2  0  0  0  0
 22 20  1  0  0  0  0
 23 28  1  0  0  0  0
 24 26  2  0  0  0  0
 25 23  2  0  0  0  0
 25 24  1  0  0  0  0
 26 27  1  0  0  0  0
 28 31  1  0  0  0  0
 28 27  2  0  0  0  0
 29 30  1  0  0  0  0
 31 29  1  0  0  0  0
 31 30  1  0  0  0  0
M  END
>  <MODEL>
5

>  <REMARK>
 VINA RESULT:      -7.3      5.154      8.815
  Name = 
  3 active torsions:
  status: ('A' for Active; 'I' for Inactive)
    1  A    between atoms: C_4  and  C_5
    2  A    between atoms: C_9  and  C_22
    3  A    between atoms: C_30  and  C_31
                            x       y       z     vdW  Elec       q    Type
                         _______ _______ _______ _____ _____    ______ ____

>  <TORSDO>
F 3

$$$$
=
 OpenBabel11052417483D

 31 35  0  0  1  0  0  0  0  0999 V2000
  193.9310  176.6490  145.3190 C   0  0  0  0  0  0  0  0  0  0  0  0
  190.5600  175.7100  143.7770 C   0  0  1  0  0  3  0  0  0  0  0  0
  192.6960  174.0010  139.2450 O   0  0  0  0  0  0  0  0  0  0  0  0
  191.5000  173.6050  139.2980 C   0  0  0  0  0  0  0  0  0  0  0  0
  192.0460  175.8230  144.0300 C   0  0  0  0  0  0  0  0  0  0  0  0
  194.8110  176.1870  144.3370 C   0  0  0  0  0  3  0  0  0  0  0  0
  191.1830  174.4230  141.6980 C   0  0  0  0  0  0  0  0  0  0  0  0
  194.4380  177.3030  146.4770 N   0  0  0  0  0  1  0  0  0  0  0  0
  192.4320  174.7630  141.8410 N   0  0  0  0  0  0  0  0  0  0  0  0
  190.2220  174.5360  142.8490 C   0  0  0  0  0  2  0  0  0  0  0  0
  190.7240  173.8100  140.4880 N   0  0  0  0  0  2  0  0  0  0  0  0
  192.5530  176.4820  145.1600 C   0  0  0  0  0  3  0  0  0  0  0  0
  192.9360  175.3760  143.0350 C   0  0  0  0  0  0  0  0  0  0  0  0
  194.3130  175.5570  143.1930 C   0  0  0  0  0  3  0  0  0  0  0  0
  189.6840  171.7400  135.8820 C   0  0  0  0  0  0  0  0  0  0  0  0
  190.2870  173.7170  137.1340 C   0  0  0  0  0  3  0  0  0  0  0  0
  191.4410  170.6910  138.9420 O   0  0  0  0  0  1  0  0  0  0  0  0
  189.1070  171.1660  134.7990 F   0  0  0  0  0  0  0  0  0  0  0  0
  189.6930  173.1270  136.0150 C   0  0  0  0  0  3  0  0  0  0  0  0
  190.8680  171.5230  137.9870 C   0  0  0  0  0  0  0  0  0  0  0  0
  190.8820  172.9290  138.1320 C   0  0  0  0  0  0  0  0  0  0  0  0
  190.2710  170.9400  136.8650 C   0  0  0  0  0  3  0  0  0  0  0  0
  189.7400  175.6390  145.0390 C   0  0  0  0  0  0  0  0  0  0  0  0
  189.2510  174.5410  147.1530 C   0  0  0  0  0  3  0  0  0  0  0  0
  189.9720  174.6040  145.9600 C   0  0  0  0  0  3  0  0  0  0  0  0
  188.2960  175.5150  147.4430 C   0  0  0  0  0  3  0  0  0  0  0  0
  188.0560  176.5490  146.5370 C   0  0  0  0  0  3  0  0  0  0  0  0
  188.7560  176.6150  145.3210 C   0  0  0  0  0  0  0  0  0  0  0  0
  187.0640  178.2360  144.4520 C   0  0  0  0  0  2  0  0  0  0  0  0
  187.5230  177.3690  143.3050 C   0  0  0  0  0  2  0  0  0  0  0  0
  188.5110  177.7710  144.3880 C   0  0  0  0  0  3  0  0  0  0  0  0
  1  8  1  0  0  0  0
  2  5  1  0  0  0  0
  2 23  1  1  0  0  0
  3  4  2  0  0  0  0
  4 11  1  0  0  0  0
  5 12  2  0  0  0  0
  6  1  2  0  0  0  0
  7  9  2  0  0  0  0
  7 10  1  0  0  0  0
  9 13  1  0  0  0  0
 10  2  1  0  0  0  0
 11  7  1  0  0  0  0
 12  1  1  0  0  0  0
 13 14  2  0  0  0  0
 13  5  1  0  0  0  0
 14  6  1  0  0  0  0
 15 19  2  0  0  0  0
 15 22  1  0  0  0  0
 16 21  2  0  0  0  0
 18 15  1  0  0  0  0
 19 16  1  0  0  0  0
 20 21  1  0  0  0  0
 20 17  1  0  0  0  0
 21  4  1  0  0  0  0
 22 20  2  0  0  0  0
 23 28  2  0  0  0  0
 23 25  1  0  0  0  0
 24 26  1  0  0  0  0
 25 24  2  0  0  0  0
 27 26  2  0  0  0  0
 28 27  1  0  0  0  0
 30 31  1  0  0  0  0
 30 29  1  0  0  0  0
 31 29  1  0  0  0  0
 31 28  1  0  0  0  0
M  END
>  <MODEL>
6

>  <REMARK>
 VINA RESULT:      -7.0      4.602      7.964
  Name = 
  3 active torsions:
  status: ('A' for Active; 'I' for Inactive)
    1  A    between atoms: C_4  and  C_5
    2  A    between atoms: C_9  and  C_22
    3  A    between atoms: C_30  and  C_31
                            x       y       z     vdW  Elec       q    Type
                         _______ _______ _______ _____ _____    ______ ____

>  <TORSDO>
F 3

$$$$
=
 OpenBabel11052417483D

 31 35  0  0  1  0  0  0  0  0999 V2000
  186.1400  178.6100  143.4820 C   0  0  0  0  0  0  0  0  0  0  0  0
  188.4030  175.5310  143.6450 C   0  0  1  0  0  3  0  0  0  0  0  0
  187.8070  174.3680  138.5150 O   0  0  0  0  0  0  0  0  0  0  0  0
  188.7780  173.7010  138.9660 C   0  0  0  0  0  0  0  0  0  0  0  0
  187.5720  176.6810  143.1230 C   0  0  0  0  0  0  0  0  0  0  0  0
  185.8660  178.6650  142.1130 C   0  0  0  0  0  3  0  0  0  0  0  0
  188.7350  174.8940  141.2260 C   0  0  0  0  0  0  0  0  0  0  0  0
  185.5560  179.5610  144.3640 N   0  0  0  0  0  1  0  0  0  0  0  0
  187.8190  175.7450  140.8590 N   0  0  0  0  0  0  0  0  0  0  0  0
  189.3730  174.9940  142.5840 C   0  0  0  0  0  2  0  0  0  0  0  0
  189.2500  173.9280  140.3030 N   0  0  0  0  0  2  0  0  0  0  0  0
  186.9770  177.6120  143.9880 C   0  0  0  0  0  3  0  0  0  0  0  0
  187.2770  176.7300  141.7480 C   0  0  0  0  0  0  0  0  0  0  0  0
  186.4290  177.7230  141.2480 C   0  0  0  0  0  3  0  0  0  0  0  0
  190.6540  170.6550  136.5910 C   0  0  0  0  0  0  0  0  0  0  0  0
  189.3160  171.3250  138.4880 C   0  0  0  0  0  3  0  0  0  0  0  0
  190.3410  174.3230  136.5600 O   0  0  0  0  0  1  0  0  0  0  0  0
  191.2400  169.6820  135.8510 F   0  0  0  0  0  0  0  0  0  0  0  0
  189.9190  170.3210  137.7270 C   0  0  0  0  0  3  0  0  0  0  0  0
  190.1850  173.0040  136.9700 C   0  0  0  0  0  0  0  0  0  0  0  0
  189.4380  172.6750  138.1240 C   0  0  0  0  0  0  0  0  0  0  0  0
  190.7860  171.9930  136.2140 C   0  0  0  0  0  3  0  0  0  0  0  0
  189.1410  175.8530  144.9190 C   0  0  0  0  0  0  0  0  0  0  0  0
  189.6420  175.3120  147.2360 C   0  0  0  0  0  3  0  0  0  0  0  0
  188.9410  175.0550  146.0580 C   0  0  0  0  0  3  0  0  0  0  0  0
  190.5580  176.3620  147.2880 C   0  0  0  0  0  3  0  0  0  0  0  0
  190.7680  177.1620  146.1630 C   0  0  0  0  0  3  0  0  0  0  0  0
  190.0530  176.9320  144.9760 C   0  0  0  0  0  0  0  0  0  0  0  0
  191.6830  177.4250  143.1470 C   0  0  0  0  0  2  0  0  0  0  0  0
  191.5570  178.6540  144.0140 C   0  0  0  0  0  2  0  0  0  0  0  0
  190.3390  177.7800  143.7640 C   0  0  0  0  0  3  0  0  0  0  0  0
  1 12  1  0  0  0  0
  1  8  1  0  0  0  0
  2 23  1  1  0  0  0
  3  4  2  0  0  0  0
  4 11  1  0  0  0  0
  5  2  1  0  0  0  0
  5 12  2  0  0  0  0
  6  1  2  0  0  0  0
  7 10  1  0  0  0  0
  9  7  2  0  0  0  0
  9 13  1  0  0  0  0
 10  2  1  0  0  0  0
 11  7  1  0  0  0  0
 13  5  1  0  0  0  0
 14 13  2  0  0  0  0
 14  6  1  0  0  0  0
 15 19  1  0  0  0  0
 17 20  1  0  0  0  0
 18 15  1  0  0  0  0
 19 16  2  0  0  0  0
 20 21  2  0  0  0  0
 21 16  1  0  0  0  0
 21  4  1  0  0  0  0
 22 15  2  0  0  0  0
 22 20  1  0  0  0  0
 23 28  2  0  0  0  0
 23 25  1  0  0  0  0
 24 26  1  0  0  0  0
 25 24  2  0  0  0  0
 27 26  2  0  0  0  0
 28 27  1  0  0  0  0
 29 31  1  0  0  0  0
 29 30  1  0  0  0  0
 31 30  1  0  0  0  0
 31 28  1  0  0  0  0
M  END
>  <MODEL>
7

>  <REMARK>
 VINA RESULT:      -7.0      5.298      8.935
  Name = 
  3 active torsions:
  status: ('A' for Active; 'I' for Inactive)
    1  A    between atoms: C_4  and  C_5
    2  A    between atoms: C_9  and  C_22
    3  A    between atoms: C_30  and  C_31
                            x       y       z     vdW  Elec       q    Type
                         _______ _______ _______ _____ _____    ______ ____

>  <TORSDO>
F 3

$$$$
=
 OpenBabel11052417483D

 31 35  0  0  1  0  0  0  0  0999 V2000
  190.2000  172.8560  138.0280 C   0  0  0  0  0  0  0  0  0  0  0  0
  190.9730  174.2010  141.5240 C   0  0  1  0  0  3  0  0  0  0  0  0
  186.2600  176.5530  142.0590 O   0  0  0  0  0  0  0  0  0  0  0  0
  186.8150  176.5080  143.1900 C   0  0  0  0  0  0  0  0  0  0  0  0
  190.2340  173.7880  140.2710 C   0  0  0  0  0  0  0  0  0  0  0  0
  188.8640  173.2400  137.8850 C   0  0  0  0  0  3  0  0  0  0  0  0
  188.7490  175.0650  142.3450 C   0  0  0  0  0  0  0  0  0  0  0  0
  190.8650  172.1850  136.9640 N   0  0  0  0  0  1  0  0  0  0  0  0
  188.2320  174.9120  141.1590 N   0  0  0  0  0  0  0  0  0  0  0  0
  190.0260  174.3660  142.7200 C   0  0  0  0  0  2  0  0  0  0  0  0
  188.0490  175.7940  143.3600 N   0  0  0  0  0  2  0  0  0  0  0  0
  190.8880  173.1430  139.2100 C   0  0  0  0  0  3  0  0  0  0  0  0
  188.8950  174.1890  140.1130 C   0  0  0  0  0  0  0  0  0  0  0  0
  188.2140  173.9120  138.9240 C   0  0  0  0  0  3  0  0  0  0  0  0
  185.0440  178.4040  146.6120 C   0  0  0  0  0  0  0  0  0  0  0  0
  185.9420  176.4480  145.5140 C   0  0  0  0  0  3  0  0  0  0  0  0
  186.1050  179.3570  143.2180 O   0  0  0  0  0  1  0  0  0  0  0  0
  184.4860  178.9890  147.6990 F   0  0  0  0  0  0  0  0  0  0  0  0
  185.3680  177.0490  146.6370 C   0  0  0  0  0  3  0  0  0  0  0  0
  185.8710  178.5670  144.3380 C   0  0  0  0  0  0  0  0  0  0  0  0
  186.2030  177.1930  144.3530 C   0  0  0  0  0  0  0  0  0  0  0  0
  185.2960  179.1610  145.4650 C   0  0  0  0  0  3  0  0  0  0  0  0
  192.1140  173.2830  141.8780 C   0  0  0  0  0  0  0  0  0  0  0  0
  192.8850  171.1450  142.7420 C   0  0  0  0  0  3  0  0  0  0  0  0
  191.8450  172.0250  142.4420 C   0  0  0  0  0  3  0  0  0  0  0  0
  194.2040  171.5070  142.4740 C   0  0  0  0  0  3  0  0  0  0  0  0
  194.4860  172.7540  141.9110 C   0  0  0  0  0  3  0  0  0  0  0  0
  193.4530  173.6610  141.6250 C   0  0  0  0  0  0  0  0  0  0  0  0
  194.1250  174.7940  139.5010 C   0  0  0  0  0  2  0  0  0  0  0  0
  195.2320  174.9810  140.5090 C   0  0  0  0  0  2  0  0  0  0  0  0
  193.7850  174.9780  140.9720 C   0  0  0  0  0  3  0  0  0  0  0  0
  1 12  1  0  0  0  0
  2 23  1  1  0  0  0
  2 10  1  0  0  0  0
  3  4  2  0  0  0  0
  4 11  1  0  0  0  0
  4 21  1  0  0  0  0
  5  2  1  0  0  0  0
  6  1  2  0  0  0  0
  6 14  1  0  0  0  0
  7 10  1  0  0  0  0
  7 11  1  0  0  0  0
  8  1  1  0  0  0  0
  9  7  2  0  0  0  0
 12  5  2  0  0  0  0
 13  5  1  0  0  0  0
 13  9  1  0  0  0  0
 14 13  2  0  0  0  0
 15 19  1  0  0  0  0
 15 18  1  0  0  0  0
 16 19  2  0  0  0  0
 17 20  1  0  0  0  0
 20 21  2  0  0  0  0
 20 22  1  0  0  0  0
 21 16  1  0  0  0  0
 22 15  2  0  0  0  0
 23 25  1  0  0  0  0
 25 24  2  0  0  0  0
 26 24  1  0  0  0  0
 27 26  2  0  0  0  0
 28 23  2  0  0  0  0
 28 27  1  0  0  0  0
 29 30  1  0  0  0  0
 29 31  1  0  0  0  0
 30 31  1  0  0  0  0
 31 28  1  0  0  0  0
M  END
>  <MODEL>
8

>  <REMARK>
 VINA RESULT:      -6.9      3.157      5.106
  Name = 
  3 active torsions:
  status: ('A' for Active; 'I' for Inactive)
    1  A    between atoms: C_4  and  C_5
    2  A    between atoms: C_9  and  C_22
    3  A    between atoms: C_30  and  C_31
                            x       y       z     vdW  Elec       q    Type
                         _______ _______ _______ _____ _____    ______ ____

>  <TORSDO>
F 3

$$$$
=
 OpenBabel11052417483D

 31 35  0  0  1  0  0  0  0  0999 V2000
  195.3360  174.2400  145.6880 C   0  0  0  0  0  0  0  0  0  0  0  0
  191.7960  173.1220  144.7690 C   0  0  1  0  0  3  0  0  0  0  0  0
  189.5340  177.5510  146.5850 O   0  0  0  0  0  0  0  0  0  0  0  0
  188.6910  176.9310  145.8820 C   0  0  0  0  0  0  0  0  0  0  0  0
  192.9770  173.9750  145.1740 C   0  0  0  0  0  0  0  0  0  0  0  0
  195.0960  175.5400  146.1380 C   0  0  0  0  0  3  0  0  0  0  0  0
  190.4010  175.1980  145.1010 C   0  0  0  0  0  0  0  0  0  0  0  0
  196.6570  173.7100  145.7150 N   0  0  0  0  0  1  0  0  0  0  0  0
  191.4040  175.8020  145.6710 N   0  0  0  0  0  0  0  0  0  0  0  0
  190.6220  173.9700  144.2620 C   0  0  0  0  0  2  0  0  0  0  0  0
  189.0840  175.7610  145.1490 N   0  0  0  0  0  2  0  0  0  0  0  0
  194.2790  173.4530  145.2220 C   0  0  0  0  0  3  0  0  0  0  0  0
  192.7380  175.2790  145.6470 C   0  0  0  0  0  0  0  0  0  0  0  0
  193.7970  176.0570  146.1230 C   0  0  0  0  0  3  0  0  0  0  0  0
  184.6070  178.2540  145.7600 C   0  0  0  0  0  0  0  0  0  0  0  0
  186.4450  177.1870  146.9100 C   0  0  0  0  0  3  0  0  0  0  0  0
  187.5470  178.2910  143.5450 O   0  0  0  0  0  1  0  0  0  0  0  0
  183.3170  178.6660  145.7370 F   0  0  0  0  0  0  0  0  0  0  0  0
  185.1150  177.6120  146.8880 C   0  0  0  0  0  3  0  0  0  0  0  0
  186.7620  178.0520  144.6670 C   0  0  0  0  0  0  0  0  0  0  0  0
  187.2870  177.4000  145.8070 C   0  0  0  0  0  0  0  0  0  0  0  0
  185.4290  178.4740  144.6530 C   0  0  0  0  0  3  0  0  0  0  0  0
  192.1430  172.0510  143.7690 C   0  0  0  0  0  0  0  0  0  0  0  0
  192.5390  169.7020  143.2760 C   0  0  0  0  0  3  0  0  0  0  0  0
  192.2560  170.7160  144.1920 C   0  0  0  0  0  3  0  0  0  0  0  0
  192.7040  170.0090  141.9260 C   0  0  0  0  0  3  0  0  0  0  0  0
  192.5930  171.3310  141.4910 C   0  0  0  0  0  3  0  0  0  0  0  0
  192.3320  172.3660  142.4040 C   0  0  0  0  0  0  0  0  0  0  0  0
  191.1340  173.8440  140.7820 C   0  0  0  0  0  2  0  0  0  0  0  0
  192.6050  173.8620  140.4440 C   0  0  0  0  0  2  0  0  0  0  0  0
  192.1670  173.7750  141.8970 C   0  0  0  0  0  3  0  0  0  0  0  0
  1  8  1  0  0  0  0
  1  6  1  0  0  0  0
  2 23  1  6  0  0  0
  2  5  1  0  0  0  0
  4  3  2  0  0  0  0
  5 12  1  0  0  0  0
  5 13  2  0  0  0  0
  7 11  1  0  0  0  0
  7  9  2  0  0  0  0
 10  2  1  0  0  0  0
 10  7  1  0  0  0  0
 11  4  1  0  0  0  0
 12  1  2  0  0  0  0
 13  9  1  0  0  0  0
 13 14  1  0  0  0  0
 14  6  2  0  0  0  0
 15 19  1  0  0  0  0
 17 20  1  0  0  0  0
 18 15  1  0  0  0  0
 19 16  2  0  0  0  0
 20 21  2  0  0  0  0
 21  4  1  0  0  0  0
 21 16  1  0  0  0  0
 22 20  1  0  0  0  0
 22 15  2  0  0  0  0
 23 25  1  0  0  0  0
 24 25  2  0  0  0  0
 26 24  1  0  0  0  0
 27 26  2  0  0  0  0
 27 28  1  0  0  0  0
 28 23  2  0  0  0  0
 29 31  1  0  0  0  0
 30 29  1  0  0  0  0
 30 31  1  0  0  0  0
 31 28  1  0  0  0  0
M  END
>  <MODEL>
9

>  <REMARK>
 VINA RESULT:      -6.7      1.081      2.427
  Name = 
  3 active torsions:
  status: ('A' for Active; 'I' for Inactive)
    1  A    between atoms: C_4  and  C_5
    2  A    between atoms: C_9  and  C_22
    3  A    between atoms: C_30  and  C_31
                            x       y       z     vdW  Elec       q    Type
                         _______ _______ _______ _____ _____    ______ ____

>  <TORSDO>
F 3

$$$$
