=
 OpenBabel11052419063D

 32 37  0  0  1  0  0  0  0  0999 V2000
  190.7610  175.1910  145.7490 C   0  0  1  0  0  3  0  0  0  0  0  0
  189.9140  176.9200  144.2710 C   0  0  2  0  0  3  0  0  0  0  0  0
  195.1260  175.7350  144.2190 C   0  0  1  0  0  3  0  0  0  0  0  0
  191.8580  175.1320  146.7980 C   0  0  0  0  0  2  0  0  0  0  0  0
  190.1050  176.5530  145.7440 C   0  0  1  0  0  3  0  0  0  0  0  0
  188.4700  176.7090  143.7630 C   0  0  2  0  0  3  0  0  0  0  0  0
  195.9010  176.8370  143.8560 O   0  0  0  0  0  1  0  0  0  0  0  0
  190.1220  173.1200  141.6710 N   0  0  0  0  0  0  0  0  0  0  0  0
  190.8970  176.0110  143.5190 C   0  0  1  0  0  3  0  0  0  0  0  0
  187.7500  172.8700  141.9020 C   0  0  0  0  0  1  0  0  0  0  0  0
  188.8250  175.0610  142.2800 C   0  0  1  0  0  3  0  0  0  0  0  0
  187.3770  177.3100  144.6560 C   0  0  2  0  0  3  0  0  0  0  0  0
  195.5040  175.2630  145.6360 C   0  0  1  0  0  3  0  0  0  0  0  0
  193.0760  174.6080  146.0860 C   0  0  2  0  0  3  0  0  0  0  0  0
  188.2470  175.3440  143.5350 O   0  0  0  0  0  0  0  0  0  0  0  0
  188.8210  176.5050  146.5730 C   0  0  0  0  0  2  0  0  0  0  0  0
  194.3330  175.3050  146.6250 C   0  0  0  0  0  2  0  0  0  0  0  0
  193.6350  176.0370  144.0300 C   0  0  2  0  0  3  0  0  0  0  0  0
  193.2980  177.2420  144.6560 O   0  0  0  0  0  1  0  0  0  0  0  0
  191.3400  174.9430  144.4280 N   0  0  1  0  0  0  0  0  0  0  0  0
  186.9200  178.5010  144.0950 O   0  0  0  0  0  1  0  0  0  0  0  0
  192.8040  174.8640  144.6040 C   0  0  2  0  0  3  0  0  0  0  0  0
  190.3270  175.4440  142.1970 C   0  0  2  0  0  3  0  0  0  0  0  0
  187.8360  177.5650  146.0980 C   0  0  2  0  0  3  0  0  0  0  0  0
  188.8450  173.6040  142.0360 C   0  0  0  0  0  0  0  0  0  0  0  0
  191.0850  174.2050  141.7020 C   0  0  0  0  0  2  0  0  0  0  0  0
  186.7040  177.7120  147.0180 N   0  0  0  0  0  2  0  0  0  0  0  0
  185.5630  176.9220  146.5630 C   0  0  0  0  0  2  0  0  0  0  0  0
  184.3170  177.7810  146.5790 C   0  0  0  0  0  1  0  0  0  0  0  0
  196.1080  173.8680  145.5920 C   0  0  0  0  0  2  0  0  0  0  0  0
  197.8460  173.1280  144.4520 C   0  0  0  0  0  1  0  0  0  0  0  0
  197.4990  173.9520  145.5230 O   0  0  0  0  0  0  0  0  0  0  0  0
  1  4  1  1  0  0  0
  2  5  1  0  0  0  0
  3 13  1  0  0  0  0
  5  1  1  0  0  0  0
  5 16  1  0  0  0  0
  6  2  1  0  0  0  0
  6 12  1  0  0  0  0
  7  3  1  0  0  0  0
  8 26  1  0  0  0  0
  8 25  2  0  0  0  0
  9  2  1  0  0  0  0
  9 20  1  0  0  0  0
 10 25  1  0  0  0  0
 11 15  1  0  0  0  0
 12 24  1  0  0  0  0
 13 17  1  0  0  0  0
 14 17  1  0  0  0  0
 14  4  1  0  0  0  0
 15  6  1  0  0  0  0
 18  3  1  0  0  0  0
 18 22  1  0  0  0  0
 18 19  1  0  0  0  0
 20 22  1  0  0  0  0
 20  1  1  0  0  0  0
 21 12  1  0  0  0  0
 22 14  1  0  0  0  0
 23 11  1  0  0  0  0
 23  9  1  0  0  0  0
 24 16  1  0  0  0  0
 24 27  1  0  0  0  0
 25 11  1  0  0  0  0
 26 23  1  0  0  0  0
 28 29  1  0  0  0  0
 28 27  1  0  0  0  0
 30 13  1  0  0  0  0
 31 32  1  0  0  0  0
 32 30  1  0  0  0  0
M  END
>  <MODEL>
1

>  <REMARK>
 VINA RESULT:      -7.9      0.000      0.000
  Name = 
  4 active torsions:
  status: ('A' for Active; 'I' for Inactive)
    1  A    between atoms: N_14  and  C_21
    2  A    between atoms: N_14  and  C_29
    3  A    between atoms: C_15  and  C_19
    4  A    between atoms: C_19  and  O_26
                            x       y       z     vdW  Elec       q    Type
                         _______ _______ _______ _____ _____    ______ ____

>  <TORSDO>
F 4

$$$$
=
 OpenBabel11052419063D

 32 37  0  0  1  0  0  0  0  0999 V2000
  190.8870  176.2790  143.7350 C   0  0  1  0  0  3  0  0  0  0  0  0
  192.0860  175.1530  145.5190 C   0  0  2  0  0  3  0  0  0  0  0  0
  186.9250  176.3760  146.1810 C   0  0  1  0  0  3  0  0  0  0  0  0
  190.0670  177.5540  143.6440 C   0  0  0  0  0  2  0  0  0  0  0  0
  192.0280  176.4510  144.7110 C   0  0  1  0  0  3  0  0  0  0  0  0
  193.2040  174.1900  145.0610 C   0  0  2  0  0  3  0  0  0  0  0  0
  186.6150  176.5890  147.5250 O   0  0  0  0  0  1  0  0  0  0  0  0
  189.8920  171.7950  143.2510 N   0  0  0  0  0  0  0  0  0  0  0  0
  190.7020  174.5180  145.3250 C   0  0  1  0  0  3  0  0  0  0  0  0
  191.9560  171.2090  142.1850 C   0  0  0  0  0  2  0  0  0  0  0  0
  191.9510  172.4910  144.2960 C   0  0  1  0  0  3  0  0  0  0  0  0
  194.5860  174.8350  144.9000 C   0  0  2  0  0  3  0  0  0  0  0  0
  186.6460  177.6510  145.3620 C   0  0  1  0  0  3  0  0  0  0  0  0
  188.6350  177.1340  143.8450 C   0  0  2  0  0  3  0  0  0  0  0  0
  192.8080  173.5350  143.8870 O   0  0  0  0  0  0  0  0  0  0  0  0
  193.3060  176.7990  143.9470 C   0  0  0  0  0  2  0  0  0  0  0  0
  187.8880  178.2040  144.6540 C   0  0  0  0  0  2  0  0  0  0  0  0
  188.3510  175.8300  146.0360 C   0  0  2  0  0  3  0  0  0  0  0  0
  189.2540  176.6310  146.7430 O   0  0  0  0  0  1  0  0  0  0  0  0
  190.0320  175.1850  144.1980 N   0  0  1  0  0  0  0  0  0  0  0  0
  195.3810  174.5140  145.9990 O   0  0  0  0  0  1  0  0  0  0  0  0
  188.7200  175.7730  144.5340 C   0  0  2  0  0  3  0  0  0  0  0  0
  190.7470  172.9820  145.1420 C   0  0  2  0  0  3  0  0  0  0  0  0
  194.5360  176.3590  144.7300 C   0  0  2  0  0  3  0  0  0  0  0  0
  191.2980  171.8710  143.1250 C   0  0  0  0  0  0  0  0  0  0  0  0
  189.4750  172.4200  144.4920 C   0  0  0  0  0  3  0  0  0  0  0  0
  195.7730  176.8890  144.1510 N   0  0  0  0  0  2  0  0  0  0  0  0
  196.1030  176.1930  142.9110 C   0  0  0  0  0  2  0  0  0  0  0  0
  197.6040  176.0240  142.8130 C   0  0  0  0  0  1  0  0  0  0  0  0
  185.5290  177.4090  144.3590 C   0  0  0  0  0  2  0  0  0  0  0  0
  184.1730  178.7420  145.4770 C   0  0  0  0  0  1  0  0  0  0  0  0
  184.7530  178.5590  144.2220 O   0  0  0  0  0  0  0  0  0  0  0  0
  1  4  1  1  0  0  0
  1 20  1  0  0  0  0
  1  5  1  0  0  0  0
  3  7  1  0  0  0  0
  4 14  1  0  0  0  0
  5  2  1  0  0  0  0
  6  2  1  0  0  0  0
  8 26  2  0  0  0  0
  9  2  1  0  0  0  0
 10 25  2  0  0  0  0
 11 23  1  0  0  0  0
 12  6  1  0  0  0  0
 12 21  1  0  0  0  0
 13  3  1  0  0  0  0
 14 22  1  0  0  0  0
 14 17  1  0  0  0  0
 15 11  1  0  0  0  0
 15  6  1  0  0  0  0
 16  5  1  0  0  0  0
 16 24  1  0  0  0  0
 17 13  1  0  0  0  0
 18  3  1  0  0  0  0
 18 19  1  0  0  0  0
 20 22  1  0  0  0  0
 20  9  1  0  0  0  0
 22 18  1  0  0  0  0
 23  9  1  0  0  0  0
 24 12  1  0  0  0  0
 25  8  1  0  0  0  0
 25 11  1  0  0  0  0
 26 23  1  0  0  0  0
 27 24  1  0  0  0  0
 28 27  1  0  0  0  0
 29 28  1  0  0  0  0
 30 13  1  0  0  0  0
 32 30  1  0  0  0  0
 32 31  1  0  0  0  0
M  END
>  <MODEL>
2

>  <REMARK>
 VINA RESULT:      -7.1      2.189      7.418
  Name = 
  4 active torsions:
  status: ('A' for Active; 'I' for Inactive)
    1  A    between atoms: N_14  and  C_21
    2  A    between atoms: N_14  and  C_29
    3  A    between atoms: C_15  and  C_19
    4  A    between atoms: C_19  and  O_26
                            x       y       z     vdW  Elec       q    Type
                         _______ _______ _______ _____ _____    ______ ____

>  <TORSDO>
F 4

$$$$
=
 OpenBabel11052419063D

 32 37  0  0  1  0  0  0  0  0999 V2000
  190.4020  176.5520  142.6780 C   0  0  1  0  0  3  0  0  0  0  0  0
  190.8070  175.0950  144.5760 C   0  0  2  0  0  3  0  0  0  0  0  0
  185.8510  176.8520  143.6180 C   0  0  1  0  0  3  0  0  0  0  0  0
  189.7640  177.9190  142.5040 C   0  0  0  0  0  2  0  0  0  0  0  0
  191.1340  176.4740  143.9980 C   0  0  1  0  0  3  0  0  0  0  0  0
  191.9390  174.0610  144.3880 C   0  0  2  0  0  3  0  0  0  0  0  0
  185.1030  176.9490  144.7930 O   0  0  0  0  0  1  0  0  0  0  0  0
  189.3110  172.3050  141.2270 N   0  0  0  0  0  0  0  0  0  0  0  0
  189.5370  174.6590  143.8320 C   0  0  1  0  0  3  0  0  0  0  0  0
  191.5690  171.5970  140.8510 C   0  0  0  0  0  2  0  0  0  0  0  0
  190.9150  172.6240  143.0000 C   0  0  1  0  0  3  0  0  0  0  0  0
  193.3330  174.5480  144.8030 C   0  0  2  0  0  3  0  0  0  0  0  0
  185.9740  178.2360  142.9520 C   0  0  1  0  0  3  0  0  0  0  0  0
  188.3260  177.6560  142.1420 C   0  0  2  0  0  3  0  0  0  0  0  0
  191.9360  173.5950  143.0660 O   0  0  0  0  0  0  0  0  0  0  0  0
  192.6220  176.7480  143.7740 C   0  0  0  0  0  2  0  0  0  0  0  0
  187.4240  178.7110  142.7980 C   0  0  0  0  0  2  0  0  0  0  0  0
  187.1910  176.1580  143.8870 C   0  0  2  0  0  3  0  0  0  0  0  0
  187.8440  176.7590  144.9690 O   0  0  0  0  0  1  0  0  0  0  0  0
  189.3600  175.5250  142.6560 N   0  0  1  0  0  0  0  0  0  0  0  0
  193.6630  174.0110  146.0470 O   0  0  0  0  0  1  0  0  0  0  0  0
  188.0610  176.2250  142.6090 C   0  0  2  0  0  3  0  0  0  0  0  0
  189.5300  173.1590  143.4500 C   0  0  2  0  0  3  0  0  0  0  0  0
  193.4600  176.0760  144.8540 C   0  0  2  0  0  3  0  0  0  0  0  0
  190.6720  172.2230  141.5990 C   0  0  0  0  0  0  0  0  0  0  0  0
  188.5310  172.8320  142.3310 C   0  0  0  0  0  3  0  0  0  0  0  0
  194.8570  176.5140  144.8150 N   0  0  0  0  0  2  0  0  0  0  0  0
  195.5850  175.8260  143.7530 C   0  0  0  0  0  2  0  0  0  0  0  0
  196.6350  176.7540  143.1800 C   0  0  0  0  0  1  0  0  0  0  0  0
  185.2690  178.2460  141.6050 C   0  0  0  0  0  2  0  0  0  0  0  0
  183.3610  178.2710  140.4980 C   0  0  0  0  0  1  0  0  0  0  0  0
  183.8860  178.2450  141.7900 O   0  0  0  0  0  0  0  0  0  0  0  0
  1  4  1  1  0  0  0
  1  5  1  0  0  0  0
  3 18  1  0  0  0  0
  3  7  1  0  0  0  0
  5  2  1  0  0  0  0
  6  2  1  0  0  0  0
  6 12  1  0  0  0  0
  8 25  1  0  0  0  0
  8 26  2  0  0  0  0
  9  2  1  0  0  0  0
 10 25  2  0  0  0  0
 11 15  1  0  0  0  0
 11 23  1  0  0  0  0
 12 24  1  0  0  0  0
 12 21  1  0  0  0  0
 13  3  1  0  0  0  0
 14  4  1  0  0  0  0
 14 22  1  0  0  0  0
 14 17  1  0  0  0  0
 15  6  1  0  0  0  0
 16  5  1  0  0  0  0
 16 24  1  0  0  0  0
 17 13  1  0  0  0  0
 18 19  1  0  0  0  0
 20  1  1  0  0  0  0
 20  9  1  0  0  0  0
 22 20  1  0  0  0  0
 22 18  1  0  0  0  0
 23  9  1  0  0  0  0
 25 11  1  0  0  0  0
 26 23  1  0  0  0  0
 27 24  1  0  0  0  0
 28 27  1  0  0  0  0
 29 28  1  0  0  0  0
 30 32  1  0  0  0  0
 30 13  1  0  0  0  0
 31 32  1  0  0  0  0
M  END
>  <MODEL>
3

>  <REMARK>
 VINA RESULT:      -7.1      2.440      7.545
  Name = 
  4 active torsions:
  status: ('A' for Active; 'I' for Inactive)
    1  A    between atoms: N_14  and  C_21
    2  A    between atoms: N_14  and  C_29
    3  A    between atoms: C_15  and  C_19
    4  A    between atoms: C_19  and  O_26
                            x       y       z     vdW  Elec       q    Type
                         _______ _______ _______ _____ _____    ______ ____

>  <TORSDO>
F 4

$$$$
=
 OpenBabel11052419063D

 32 37  0  0  1  0  0  0  0  0999 V2000
  192.0240  175.4560  143.6740 C   0  0  1  0  0  3  0  0  0  0  0  0
  192.7130  173.7610  145.2680 C   0  0  2  0  0  3  0  0  0  0  0  0
  187.9600  176.1360  145.8440 C   0  0  1  0  0  3  0  0  0  0  0  0
  191.5510  176.8940  143.7890 C   0  0  0  0  0  2  0  0  0  0  0  0
  193.0590  175.1520  144.7330 C   0  0  1  0  0  3  0  0  0  0  0  0
  193.6090  172.6380  144.6960 C   0  0  2  0  0  3  0  0  0  0  0  0
  187.5660  176.1800  147.1820 O   0  0  0  0  0  1  0  0  0  0  0  0
  190.0350  171.5400  142.2460 N   0  0  0  0  0  0  0  0  0  0  0  0
  191.2470  173.5490  144.8670 C   0  0  1  0  0  3  0  0  0  0  0  0
  192.0000  170.6400  141.2120 C   0  0  0  0  0  2  0  0  0  0  0  0
  192.0750  171.4840  143.5320 C   0  0  1  0  0  3  0  0  0  0  0  0
  195.1150  172.9230  144.7510 C   0  0  2  0  0  3  0  0  0  0  0  0
  188.0890  177.5640  145.2810 C   0  0  1  0  0  3  0  0  0  0  0  0
  190.0470  176.8290  143.8150 C   0  0  2  0  0  3  0  0  0  0  0  0
  193.1970  172.3270  143.3930 O   0  0  0  0  0  0  0  0  0  0  0  0
  194.4590  175.2880  144.1320 C   0  0  0  0  0  2  0  0  0  0  0  0
  189.4980  177.8950  144.7740 C   0  0  0  0  0  2  0  0  0  0  0  0
  189.2190  175.2760  145.6800 C   0  0  2  0  0  3  0  0  0  0  0  0
  190.2060  175.6780  146.5860 O   0  0  0  0  0  1  0  0  0  0  0  0
  190.8850  174.5550  143.8570 N   0  0  1  0  0  0  0  0  0  0  0  0
  195.6840  172.2180  145.8110 O   0  0  0  0  0  1  0  0  0  0  0  0
  189.7250  175.3920  144.2230 C   0  0  2  0  0  3  0  0  0  0  0  0
  190.9400  172.1110  144.3840 C   0  0  2  0  0  3  0  0  0  0  0  0
  195.4530  174.4140  144.8860 C   0  0  2  0  0  3  0  0  0  0  0  0
  191.4220  171.2710  142.2240 C   0  0  0  0  0  0  0  0  0  0  0  0
  189.6480  172.0210  143.5600 C   0  0  0  0  0  3  0  0  0  0  0  0
  196.8370  174.7010  144.5000 N   0  0  0  0  0  2  0  0  0  0  0  0
  196.8870  175.7750  143.5130 C   0  0  0  0  0  2  0  0  0  0  0  0
  197.9410  175.4570  142.4750 C   0  0  0  0  0  1  0  0  0  0  0  0
  187.0630  177.8000  144.1830 C   0  0  0  0  0  2  0  0  0  0  0  0
  186.3720  176.4100  142.6170 C   0  0  0  0  0  1  0  0  0  0  0  0
  186.2980  176.6500  143.9890 O   0  0  0  0  0  0  0  0  0  0  0  0
  1  4  1  1  0  0  0
  1 20  1  0  0  0  0
  1  5  1  0  0  0  0
  3  7  1  0  0  0  0
  4 14  1  0  0  0  0
  5  2  1  0  0  0  0
  6 12  1  0  0  0  0
  6  2  1  0  0  0  0
  8 26  2  0  0  0  0
  9  2  1  0  0  0  0
 10 25  2  0  0  0  0
 11 23  1  0  0  0  0
 12 24  1  0  0  0  0
 12 21  1  0  0  0  0
 13  3  1  0  0  0  0
 14 22  1  0  0  0  0
 14 17  1  0  0  0  0
 15 11  1  0  0  0  0
 15  6  1  0  0  0  0
 16  5  1  0  0  0  0
 16 24  1  0  0  0  0
 17 13  1  0  0  0  0
 18  3  1  0  0  0  0
 18 19  1  0  0  0  0
 20 22  1  0  0  0  0
 20  9  1  0  0  0  0
 22 18  1  0  0  0  0
 23  9  1  0  0  0  0
 25  8  1  0  0  0  0
 25 11  1  0  0  0  0
 26 23  1  0  0  0  0
 27 24  1  0  0  0  0
 28 27  1  0  0  0  0
 29 28  1  0  0  0  0
 30 13  1  0  0  0  0
 31 32  1  0  0  0  0
 32 30  1  0  0  0  0
M  END
>  <MODEL>
4

>  <REMARK>
 VINA RESULT:      -7.0      2.466      7.232
  Name = 
  4 active torsions:
  status: ('A' for Active; 'I' for Inactive)
    1  A    between atoms: N_14  and  C_21
    2  A    between atoms: N_14  and  C_29
    3  A    between atoms: C_15  and  C_19
    4  A    between atoms: C_19  and  O_26
                            x       y       z     vdW  Elec       q    Type
                         _______ _______ _______ _____ _____    ______ ____

>  <TORSDO>
F 4

$$$$
=
 OpenBabel11052419063D

 32 37  0  0  1  0  0  0  0  0999 V2000
  191.4240  176.3330  142.7820 C   0  0  1  0  0  3  0  0  0  0  0  0
  192.5310  174.1740  142.8420 C   0  0  2  0  0  3  0  0  0  0  0  0
  188.7410  175.2880  146.4420 C   0  0  1  0  0  3  0  0  0  0  0  0
  191.2010  177.4420  143.7950 C   0  0  0  0  0  2  0  0  0  0  0  0
  192.7680  175.6770  143.0020 C   0  0  1  0  0  3  0  0  0  0  0  0
  192.9780  173.6200  141.4700 C   0  0  2  0  0  3  0  0  0  0  0  0
  188.9500  174.6020  147.6390 O   0  0  0  0  0  1  0  0  0  0  0  0
  188.6110  173.4440  140.5300 N   0  0  0  0  0  0  0  0  0  0  0  0
  191.0180  174.0020  143.0350 C   0  0  1  0  0  3  0  0  0  0  0  0
  189.8550  173.4530  138.4810 C   0  0  0  0  0  2  0  0  0  0  0  0
  190.9830  173.0180  140.6350 C   0  0  1  0  0  3  0  0  0  0  0  0
  194.3900  174.0340  141.0360 C   0  0  2  0  0  3  0  0  0  0  0  0
  188.7750  176.8090  146.6890 C   0  0  1  0  0  3  0  0  0  0  0  0
  189.8480  177.1760  144.4000 C   0  0  2  0  0  3  0  0  0  0  0  0
  192.0280  173.9550  140.4960 O   0  0  0  0  0  0  0  0  0  0  0  0
  193.7940  176.2790  142.0410 C   0  0  0  0  0  2  0  0  0  0  0  0
  189.8690  177.5310  145.8940 C   0  0  0  0  0  2  0  0  0  0  0  0
  189.7150  174.8020  145.3620 C   0  0  2  0  0  3  0  0  0  0  0  0
  191.0280  174.8190  145.8460 O   0  0  0  0  0  1  0  0  0  0  0  0
  190.3770  175.3220  142.9310 N   0  0  1  0  0  0  0  0  0  0  0  0
  195.2710  172.9740  141.2450 O   0  0  0  0  0  1  0  0  0  0  0  0
  189.5740  175.7000  144.1110 C   0  0  2  0  0  3  0  0  0  0  0  0
  190.3840  172.9760  142.0650 C   0  0  2  0  0  3  0  0  0  0  0  0
  194.9120  175.2840  141.7570 C   0  0  2  0  0  3  0  0  0  0  0  0
  189.8250  173.4080  139.8050 C   0  0  0  0  0  0  0  0  0  0  0  0
  188.8640  173.1440  141.9270 C   0  0  0  0  0  3  0  0  0  0  0  0
  196.0300  175.9050  141.0420 N   0  0  0  0  0  2  0  0  0  0  0  0
  197.2740  175.7460  141.7900 C   0  0  0  0  0  2  0  0  0  0  0  0
  197.1830  176.5190  143.0880 C   0  0  0  0  0  1  0  0  0  0  0  0
  187.4160  177.4280  146.4010 C   0  0  0  0  0  2  0  0  0  0  0  0
  185.2490  177.0180  146.4730 C   0  0  0  0  0  1  0  0  0  0  0  0
  186.4740  176.4260  146.1670 O   0  0  0  0  0  0  0  0  0  0  0  0
  1 20  1  0  0  0  0
  1  5  1  0  0  0  0
  1  4  1  1  0  0  0
  2  5  1  0  0  0  0
  2  9  1  0  0  0  0
  3 13  1  0  0  0  0
  3  7  1  0  0  0  0
  4 14  1  0  0  0  0
  6  2  1  0  0  0  0
  8 26  2  0  0  0  0
 10 25  2  0  0  0  0
 11 23  1  0  0  0  0
 12 21  1  0  0  0  0
 12  6  1  0  0  0  0
 12 24  1  0  0  0  0
 14 17  1  0  0  0  0
 15 11  1  0  0  0  0
 15  6  1  0  0  0  0
 16  5  1  0  0  0  0
 17 13  1  0  0  0  0
 18 19  1  0  0  0  0
 18  3  1  0  0  0  0
 20  9  1  0  0  0  0
 20 22  1  0  0  0  0
 22 14  1  0  0  0  0
 22 18  1  0  0  0  0
 23  9  1  0  0  0  0
 24 16  1  0  0  0  0
 25  8  1  0  0  0  0
 25 11  1  0  0  0  0
 26 23  1  0  0  0  0
 27 24  1  0  0  0  0
 27 28  1  0  0  0  0
 28 29  1  0  0  0  0
 30 13  1  0  0  0  0
 32 30  1  0  0  0  0
 32 31  1  0  0  0  0
M  END
>  <MODEL>
5

>  <REMARK>
 VINA RESULT:      -6.9      2.656      7.043
  Name = 
  4 active torsions:
  status: ('A' for Active; 'I' for Inactive)
    1  A    between atoms: N_14  and  C_21
    2  A    between atoms: N_14  and  C_29
    3  A    between atoms: C_15  and  C_19
    4  A    between atoms: C_19  and  O_26
                            x       y       z     vdW  Elec       q    Type
                         _______ _______ _______ _____ _____    ______ ____

>  <TORSDO>
F 4

$$$$
=
 OpenBabel11052419063D

 32 37  0  0  1  0  0  0  0  0999 V2000
  191.2640  176.2920  143.5670 C   0  0  1  0  0  3  0  0  0  0  0  0
  189.1020  175.4040  144.2220 C   0  0  2  0  0  3  0  0  0  0  0  0
  193.4160  172.2560  144.4440 C   0  0  1  0  0  3  0  0  0  0  0  0
  192.3320  175.8650  142.5760 C   0  0  0  0  0  2  0  0  0  0  0  0
  189.8870  175.9660  143.0350 C   0  0  1  0  0  3  0  0  0  0  0  0
  188.1320  176.4240  144.8610 C   0  0  2  0  0  3  0  0  0  0  0  0
  193.0840  170.9140  144.2550 O   0  0  0  0  0  1  0  0  0  0  0  0
  191.1300  176.6450  148.1700 N   0  0  0  0  0  0  0  0  0  0  0  0
  190.1810  174.9710  145.2250 C   0  0  1  0  0  3  0  0  0  0  0  0
  189.7640  178.6140  148.2160 C   0  0  0  0  0  1  0  0  0  0  0  0
  189.0930  176.6500  146.8770 C   0  0  1  0  0  3  0  0  0  0  0  0
  187.2290  177.1650  143.8670 C   0  0  2  0  0  3  0  0  0  0  0  0
  194.3840  172.7240  143.3410 C   0  0  1  0  0  3  0  0  0  0  0  0
  193.3180  175.0450  143.3650 C   0  0  2  0  0  3  0  0  0  0  0  0
  188.8540  177.3210  145.6600 O   0  0  0  0  0  0  0  0  0  0  0  0
  189.2820  177.2110  142.3870 C   0  0  0  0  0  2  0  0  0  0  0  0
  193.8370  173.8850  142.5030 C   0  0  0  0  0  2  0  0  0  0  0  0
  192.1510  173.1120  144.5800 C   0  0  2  0  0  3  0  0  0  0  0  0
  191.2700  172.8510  143.5250 O   0  0  0  0  0  1  0  0  0  0  0  0
  191.4610  175.5780  144.8290 N   0  0  1  0  0  0  0  0  0  0  0  0
  185.9500  176.6110  143.8970 O   0  0  0  0  0  1  0  0  0  0  0  0
  192.5510  174.6060  144.6110 C   0  0  2  0  0  3  0  0  0  0  0  0
  189.8210  175.2920  146.6950 C   0  0  2  0  0  3  0  0  0  0  0  0
  187.7600  177.1520  142.4270 C   0  0  2  0  0  3  0  0  0  0  0  0
  190.0370  177.4180  147.7140 C   0  0  0  0  0  0  0  0  0  0  0  0
  191.0460  175.3050  147.6210 C   0  0  0  0  0  2  0  0  0  0  0  0
  187.1480  178.2000  141.6060 N   0  0  0  0  0  2  0  0  0  0  0  0
  186.3500  177.6150  140.5330 C   0  0  0  0  0  2  0  0  0  0  0  0
  184.9490  178.1850  140.5790 C   0  0  0  0  0  1  0  0  0  0  0  0
  195.7350  173.0910  143.9340 C   0  0  0  0  0  2  0  0  0  0  0  0
  196.2530  174.2150  145.7610 C   0  0  0  0  0  1  0  0  0  0  0  0
  195.6800  173.0200  145.3260 O   0  0  0  0  0  0  0  0  0  0  0  0
  1  4  1  6  0  0  0
  1 20  1  0  0  0  0
  2  6  1  0  0  0  0
  2  9  1  0  0  0  0
  3 18  1  0  0  0  0
  4 14  1  0  0  0  0
  5  1  1  0  0  0  0
  5  2  1  0  0  0  0
  6 15  1  0  0  0  0
  7  3  1  0  0  0  0
  9 23  1  0  0  0  0
 11 25  1  0  0  0  0
 12 21  1  0  0  0  0
 12  6  1  0  0  0  0
 13 30  1  0  0  0  0
 13  3  1  0  0  0  0
 14 22  1  0  0  0  0
 15 11  1  0  0  0  0
 16 24  1  0  0  0  0
 16  5  1  0  0  0  0
 17 13  1  0  0  0  0
 17 14  1  0  0  0  0
 18 22  1  0  0  0  0
 19 18  1  0  0  0  0
 20  9  1  0  0  0  0
 22 20  1  0  0  0  0
 23 11  1  0  0  0  0
 23 26  1  0  0  0  0
 24 12  1  0  0  0  0
 25  8  2  0  0  0  0
 25 10  1  0  0  0  0
 26  8  1  0  0  0  0
 27 24  1  0  0  0  0
 28 29  1  0  0  0  0
 28 27  1  0  0  0  0
 30 32  1  0  0  0  0
 32 31  1  0  0  0  0
M  END
>  <MODEL>
6

>  <REMARK>
 VINA RESULT:      -6.9      2.556      4.330
  Name = 
  4 active torsions:
  status: ('A' for Active; 'I' for Inactive)
    1  A    between atoms: N_14  and  C_21
    2  A    between atoms: N_14  and  C_29
    3  A    between atoms: C_15  and  C_19
    4  A    between atoms: C_19  and  O_26
                            x       y       z     vdW  Elec       q    Type
                         _______ _______ _______ _____ _____    ______ ____

>  <TORSDO>
F 4

$$$$
=
 OpenBabel11052419063D

 32 37  0  0  1  0  0  0  0  0999 V2000
  190.0640  174.9100  142.3580 C   0  0  1  0  0  3  0  0  0  0  0  0
  189.6210  174.4000  144.6890 C   0  0  2  0  0  3  0  0  0  0  0  0
  191.0890  170.4760  141.3700 C   0  0  1  0  0  3  0  0  0  0  0  0
  189.5450  174.3750  141.0350 C   0  0  0  0  0  2  0  0  0  0  0  0
  188.9680  174.9020  143.4000 C   0  0  1  0  0  3  0  0  0  0  0  0
  189.9590  175.5280  145.6900 C   0  0  2  0  0  3  0  0  0  0  0  0
  190.5680  169.2440  141.7670 O   0  0  0  0  0  1  0  0  0  0  0  0
  194.1970  174.8830  144.4190 N   0  0  0  0  0  0  0  0  0  0  0  0
  190.8950  173.6830  144.2200 C   0  0  1  0  0  3  0  0  0  0  0  0
  193.9920  177.0650  145.3870 C   0  0  0  0  0  1  0  0  0  0  0  0
  192.2000  175.3900  145.6750 C   0  0  1  0  0  3  0  0  0  0  0  0
  188.8160  176.5120  145.9640 C   0  0  2  0  0  3  0  0  0  0  0  0
  190.5720  170.8440  139.9660 C   0  0  1  0  0  3  0  0  0  0  0  0
  190.5270  173.3160  140.6100 C   0  0  2  0  0  3  0  0  0  0  0  0
  191.1170  176.1970  145.2700 O   0  0  0  0  0  0  0  0  0  0  0  0
  188.3370  176.2920  143.4890 C   0  0  0  0  0  2  0  0  0  0  0  0
  189.7800  172.1570  139.9330 C   0  0  0  0  0  2  0  0  0  0  0  0
  190.8290  171.5440  142.4390 C   0  0  2  0  0  3  0  0  0  0  0  0
  189.4780  171.5500  142.8040 O   0  0  0  0  0  1  0  0  0  0  0  0
  191.1630  174.0660  142.8250 N   0  0  1  0  0  0  0  0  0  0  0  0
  188.2280  176.2130  147.1930 O   0  0  0  0  0  1  0  0  0  0  0  0
  191.2600  172.9250  141.8920 C   0  0  2  0  0  3  0  0  0  0  0  0
  192.1190  173.9380  145.1330 C   0  0  2  0  0  3  0  0  0  0  0  0
  187.7390  176.5220  144.8710 C   0  0  2  0  0  3  0  0  0  0  0  0
  193.4630  175.8870  145.0910 C   0  0  0  0  0  0  0  0  0  0  0  0
  193.4550  173.6360  144.4400 C   0  0  0  0  0  2  0  0  0  0  0  0
  186.9180  177.7350  144.9180 N   0  0  0  0  0  2  0  0  0  0  0  0
  185.4990  177.4010  144.8610 C   0  0  0  0  0  2  0  0  0  0  0  0
  184.9560  177.2650  146.2680 C   0  0  0  0  0  1  0  0  0  0  0  0
  191.7180  170.8930  138.9690 C   0  0  0  0  0  2  0  0  0  0  0  0
  193.7160  171.8150  139.1210 C   0  0  0  0  0  1  0  0  0  0  0  0
  192.9380  170.7790  139.6360 O   0  0  0  0  0  0  0  0  0  0  0  0
  1  4  1  6  0  0  0
  1 20  1  0  0  0  0
  1  5  1  0  0  0  0
  2  6  1  0  0  0  0
  3  7  1  0  0  0  0
  3 18  1  0  0  0  0
  5 16  1  0  0  0  0
  5  2  1  0  0  0  0
  6 12  1  0  0  0  0
  8 26  1  0  0  0  0
  8 25  2  0  0  0  0
  9  2  1  0  0  0  0
  9 23  1  0  0  0  0
 12 21  1  0  0  0  0
 13  3  1  0  0  0  0
 14  4  1  0  0  0  0
 14 22  1  0  0  0  0
 15 11  1  0  0  0  0
 15  6  1  0  0  0  0
 16 24  1  0  0  0  0
 17 13  1  0  0  0  0
 17 14  1  0  0  0  0
 18 19  1  0  0  0  0
 20  9  1  0  0  0  0
 22 18  1  0  0  0  0
 22 20  1  0  0  0  0
 23 11  1  0  0  0  0
 24 27  1  0  0  0  0
 24 12  1  0  0  0  0
 25 10  1  0  0  0  0
 25 11  1  0  0  0  0
 26 23  1  0  0  0  0
 28 27  1  0  0  0  0
 28 29  1  0  0  0  0
 30 32  1  0  0  0  0
 30 13  1  0  0  0  0
 31 32  1  0  0  0  0
M  END
>  <MODEL>
7

>  <REMARK>
 VINA RESULT:      -6.7      2.899      5.395
  Name = 
  4 active torsions:
  status: ('A' for Active; 'I' for Inactive)
    1  A    between atoms: N_14  and  C_21
    2  A    between atoms: N_14  and  C_29
    3  A    between atoms: C_15  and  C_19
    4  A    between atoms: C_19  and  O_26
                            x       y       z     vdW  Elec       q    Type
                         _______ _______ _______ _____ _____    ______ ____

>  <TORSDO>
F 4

$$$$
=
 OpenBabel11052419063D

 32 37  0  0  1  0  0  0  0  0999 V2000
  188.5590  175.4190  141.4100 C   0  0  1  0  0  3  0  0  0  0  0  0
  188.2680  175.2010  143.8090 C   0  0  2  0  0  3  0  0  0  0  0  0
  190.6660  171.2790  141.0830 C   0  0  1  0  0  3  0  0  0  0  0  0
  188.1860  174.5630  140.2120 C   0  0  0  0  0  2  0  0  0  0  0  0
  187.5040  175.3080  142.4880 C   0  0  1  0  0  3  0  0  0  0  0  0
  188.3140  176.5250  144.6060 C   0  0  2  0  0  3  0  0  0  0  0  0
  190.4740  170.0380  141.6920 O   0  0  0  0  0  1  0  0  0  0  0  0
  192.5720  176.7550  143.2630 N   0  0  0  0  0  0  0  0  0  0  0  0
  189.6800  174.7570  143.4020 C   0  0  1  0  0  3  0  0  0  0  0  0
  191.8270  178.9460  143.8860 C   0  0  0  0  0  1  0  0  0  0  0  0
  190.5170  176.9470  144.5120 C   0  0  1  0  0  3  0  0  0  0  0  0
  186.9600  177.2260  144.7730 C   0  0  2  0  0  3  0  0  0  0  0  0
  190.0670  171.2730  139.6640 C   0  0  1  0  0  3  0  0  0  0  0  0
  189.4020  173.7270  139.9140 C   0  0  2  0  0  3  0  0  0  0  0  0
  189.2640  177.3840  144.0340 O   0  0  0  0  0  0  0  0  0  0  0  0
  186.5440  176.4930  142.3860 C   0  0  0  0  0  2  0  0  0  0  0  0
  188.9700  172.3250  139.4610 C   0  0  0  0  0  2  0  0  0  0  0  0
  190.1480  172.4070  141.9830 C   0  0  2  0  0  3  0  0  0  0  0  0
  188.8410  172.1370  142.4020 O   0  0  0  0  0  1  0  0  0  0  0  0
  189.8370  174.9620  141.9530 N   0  0  1  0  0  0  0  0  0  0  0  0
  186.4720  176.9940  146.0580 O   0  0  0  0  0  1  0  0  0  0  0  0
  190.2160  173.7440  141.2080 C   0  0  2  0  0  3  0  0  0  0  0  0
  190.8030  175.4530  144.2080 C   0  0  2  0  0  3  0  0  0  0  0  0
  185.9120  176.7900  143.7400 C   0  0  2  0  0  3  0  0  0  0  0  0
  191.6110  177.6410  143.8010 C   0  0  0  0  0  0  0  0  0  0  0  0
  192.1690  175.3830  143.5120 C   0  0  0  0  0  2  0  0  0  0  0  0
  184.8120  177.7520  143.6340 N   0  0  0  0  0  2  0  0  0  0  0  0
  185.2980  179.0410  143.1510 C   0  0  0  0  0  2  0  0  0  0  0  0
  185.1780  180.0700  144.2550 C   0  0  0  0  0  1  0  0  0  0  0  0
  191.1600  171.4420  138.6210 C   0  0  0  0  0  2  0  0  0  0  0  0
  192.8200  172.8930  138.5400 C   0  0  0  0  0  1  0  0  0  0  0  0
  192.3640  171.7770  139.2410 O   0  0  0  0  0  0  0  0  0  0  0  0
  1  4  1  6  0  0  0
  1 20  1  0  0  0  0
  1  5  1  0  0  0  0
  2  6  1  0  0  0  0
  3  7  1  0  0  0  0
  3 18  1  0  0  0  0
  5  2  1  0  0  0  0
  6 12  1  0  0  0  0
  8 26  1  0  0  0  0
  8 25  2  0  0  0  0
  9  2  1  0  0  0  0
  9 23  1  0  0  0  0
 12 21  1  0  0  0  0
 13  3  1  0  0  0  0
 14  4  1  0  0  0  0
 14 22  1  0  0  0  0
 15 11  1  0  0  0  0
 15  6  1  0  0  0  0
 16  5  1  0  0  0  0
 16 24  1  0  0  0  0
 17 13  1  0  0  0  0
 17 14  1  0  0  0  0
 18 19  1  0  0  0  0
 20  9  1  0  0  0  0
 22 20  1  0  0  0  0
 22 18  1  0  0  0  0
 23 11  1  0  0  0  0
 24 12  1  0  0  0  0
 25 10  1  0  0  0  0
 25 11  1  0  0  0  0
 26 23  1  0  0  0  0
 27 24  1  0  0  0  0
 28 27  1  0  0  0  0
 28 29  1  0  0  0  0
 30 32  1  0  0  0  0
 30 13  1  0  0  0  0
 31 32  1  0  0  0  0
M  END
>  <MODEL>
8

>  <REMARK>
 VINA RESULT:      -6.6      3.214      5.577
  Name = 
  4 active torsions:
  status: ('A' for Active; 'I' for Inactive)
    1  A    between atoms: N_14  and  C_21
    2  A    between atoms: N_14  and  C_29
    3  A    between atoms: C_15  and  C_19
    4  A    between atoms: C_19  and  O_26
                            x       y       z     vdW  Elec       q    Type
                         _______ _______ _______ _____ _____    ______ ____

>  <TORSDO>
F 4

$$$$
=
 OpenBabel11052419063D

 32 37  0  0  1  0  0  0  0  0999 V2000
  190.1940  174.7830  142.5460 C   0  0  1  0  0  3  0  0  0  0  0  0
  190.4190  173.7580  144.7340 C   0  0  2  0  0  3  0  0  0  0  0  0
  191.0910  170.7760  140.3490 C   0  0  1  0  0  3  0  0  0  0  0  0
  189.3580  174.4860  141.3140 C   0  0  0  0  0  2  0  0  0  0  0  0
  189.4220  174.4500  143.8030 C   0  0  1  0  0  3  0  0  0  0  0  0
  190.9700  174.6800  145.8450 C   0  0  2  0  0  3  0  0  0  0  0  0
  190.7470  169.4430  140.5760 O   0  0  0  0  0  1  0  0  0  0  0  0
  194.7280  174.7370  143.4240 N   0  0  0  0  0  0  0  0  0  0  0  0
  191.5470  173.2840  143.8060 C   0  0  1  0  0  3  0  0  0  0  0  0
  194.7050  176.6390  144.8810 C   0  0  0  0  0  1  0  0  0  0  0  0
  193.1270  174.7710  145.2280 C   0  0  1  0  0  3  0  0  0  0  0  0
  189.9050  175.4680  146.6180 C   0  0  2  0  0  3  0  0  0  0  0  0
  190.1980  171.3750  139.2450 C   0  0  1  0  0  3  0  0  0  0  0  0
  190.2300  173.6410  140.4230 C   0  0  2  0  0  3  0  0  0  0  0  0
  191.9430  175.5340  145.3070 O   0  0  0  0  0  0  0  0  0  0  0  0
  188.7840  175.7210  144.3630 C   0  0  0  0  0  2  0  0  0  0  0  0
  189.3760  172.5810  139.7140 C   0  0  0  0  0  2  0  0  0  0  0  0
  191.0870  171.5660  141.6630 C   0  0  2  0  0  3  0  0  0  0  0  0
  189.8850  171.3620  142.3520 O   0  0  0  0  0  1  0  0  0  0  0  0
  191.4120  173.9730  142.5130 N   0  0  1  0  0  0  0  0  0  0  0  0
  189.6840  174.8630  147.8540 O   0  0  0  0  0  1  0  0  0  0  0  0
  191.2980  173.0670  141.3530 C   0  0  2  0  0  3  0  0  0  0  0  0
  192.9600  173.4640  144.4100 C   0  0  2  0  0  3  0  0  0  0  0  0
  188.5730  175.5980  145.8660 C   0  0  2  0  0  3  0  0  0  0  0  0
  194.1630  175.5020  144.4700 C   0  0  0  0  0  0  0  0  0  0  0  0
  194.0700  173.4460  143.3490 C   0  0  0  0  0  2  0  0  0  0  0  0
  187.7480  176.6870  146.3950 N   0  0  0  0  0  2  0  0  0  0  0  0
  186.5440  176.8630  145.5870 C   0  0  0  0  0  2  0  0  0  0  0  0
  185.3530  177.0710  146.4970 C   0  0  0  0  0  1  0  0  0  0  0  0
  191.0290  171.7430  138.0270 C   0  0  0  0  0  2  0  0  0  0  0  0
  189.9800  170.2310  136.8100 C   0  0  0  0  0  1  0  0  0  0  0  0
  191.2510  170.6130  137.2400 O   0  0  0  0  0  0  0  0  0  0  0  0
  1  4  1  6  0  0  0
  1  5  1  0  0  0  0
  2  6  1  0  0  0  0
  3  7  1  0  0  0  0
  3 18  1  0  0  0  0
  5 16  1  0  0  0  0
  5  2  1  0  0  0  0
  6 12  1  0  0  0  0
  8 25  2  0  0  0  0
  9 23  1  0  0  0  0
  9  2  1  0  0  0  0
 11 15  1  0  0  0  0
 12 21  1  0  0  0  0
 13 17  1  0  0  0  0
 13  3  1  0  0  0  0
 14  4  1  0  0  0  0
 14 22  1  0  0  0  0
 15  6  1  0  0  0  0
 16 24  1  0  0  0  0
 17 14  1  0  0  0  0
 18 19  1  0  0  0  0
 20  1  1  0  0  0  0
 20  9  1  0  0  0  0
 22 18  1  0  0  0  0
 22 20  1  0  0  0  0
 23 11  1  0  0  0  0
 24 27  1  0  0  0  0
 24 12  1  0  0  0  0
 25 10  1  0  0  0  0
 25 11  1  0  0  0  0
 26  8  1  0  0  0  0
 26 23  1  0  0  0  0
 28 27  1  0  0  0  0
 28 29  1  0  0  0  0
 30 13  1  0  0  0  0
 31 32  1  0  0  0  0
 32 30  1  0  0  0  0
M  END
>  <MODEL>
9

>  <REMARK>
 VINA RESULT:      -6.4      3.153      6.006
  Name = 
  4 active torsions:
  status: ('A' for Active; 'I' for Inactive)
    1  A    between atoms: N_14  and  C_21
    2  A    between atoms: N_14  and  C_29
    3  A    between atoms: C_15  and  C_19
    4  A    between atoms: C_19  and  O_26
                            x       y       z     vdW  Elec       q    Type
                         _______ _______ _______ _____ _____    ______ ____

>  <TORSDO>
F 4

$$$$
