=
 OpenBabel11052419183D

 32 36  0  0  1  0  0  0  0  0999 V2000
  189.2470  175.2800  145.1850 C   0  0  0  0  0  3  0  0  0  0  0  0
  188.6260  176.3780  145.7950 C   0  0  0  0  0  0  0  0  0  0  0  0
  190.5570  174.9310  145.5220 C   0  0  0  0  0  0  0  0  0  0  0  0
  191.2610  175.6920  146.4730 C   0  0  0  0  0  0  0  0  0  0  0  0
  190.6380  176.7870  147.0820 C   0  0  0  0  0  3  0  0  0  0  0  0
  189.3260  177.1300  146.7430 C   0  0  0  0  0  3  0  0  0  0  0  0
  191.1600  173.8010  144.8940 N   0  0  0  0  0  0  0  0  0  0  0  0
  192.3330  173.0510  144.3540 C   0  0  1  0  0  3  0  0  0  0  0  0
  189.5250  172.3260  140.6460 C   0  0  0  0  0  2  0  0  0  0  0  0
  191.0760  172.4900  144.1810 C   0  0  2  0  0  3  0  0  0  0  0  0
  191.6650  173.6900  140.8430 C   0  0  0  0  0  2  0  0  0  0  0  0
  191.9540  172.9020  142.0310 N   0  0  1  0  0  0  0  0  0  0  0  0
  192.7500  173.6240  142.9990 C   0  0  0  0  0  2  0  0  0  0  0  0
  190.7090  172.7610  142.7430 C   0  0  1  0  0  3  0  0  0  0  0  0
  190.7860  172.8350  139.9140 C   0  0  0  0  0  2  0  0  0  0  0  0
  189.8470  171.7390  142.0290 C   0  0  0  0  0  2  0  0  0  0  0  0
  187.2080  176.7460  145.4780 C   0  0  1  0  0  3  0  0  0  0  0  0
  186.5030  177.2800  146.7120 C   0  0  0  0  0  1  0  0  0  0  0  0
  187.1190  177.7660  144.3490 C   0  0  0  0  0  2  0  0  0  0  0  0
  187.7100  177.1180  141.8810 C   0  0  2  0  0  0  0  0  0  0  0  0
  184.8610  178.4600  140.3780 O   0  0  0  0  0  0  0  0  0  0  0  0
  188.8820  178.0610  142.1170 C   0  0  0  0  0  1  0  0  0  0  0  0
  185.4750  177.7500  142.5310 N   0  0  0  0  0  2  0  0  0  0  0  0
  186.9750  177.5820  140.7570 O   0  0  0  0  0  0  0  0  0  0  0  0
  186.6710  177.1010  143.0480 C   0  0  2  0  0  3  0  0  0  0  0  0
  185.7150  177.9640  141.1570 C   0  0  0  0  0  0  0  0  0  0  0  0
  188.2500  175.7180  141.6160 C   0  0  0  0  0  2  0  0  0  0  0  0
  187.4480  174.7510  142.2240 O   0  0  0  0  0  1  0  0  0  0  0  0
  192.6510  175.3350  146.8800 C   0  0  0  0  0  2  0  0  0  0  0  0
  193.7560  176.7520  146.6220 S   0  0  0  0  0  0  0  0  0  0  0  0
  194.6140  175.9140  145.2620 C   0  0  0  0  0  2  0  0  0  0  0  0
  195.4350  174.7700  145.8140 C   0  0  0  0  0  1  0  0  0  0  0  0
  1  3  2  0  0  0  0
  1  2  1  0  0  0  0
  2  6  2  0  0  0  0
  3  4  1  0  0  0  0
  4 29  1  0  0  0  0
  4  5  2  0  0  0  0
  6  5  1  0  0  0  0
  7  3  1  0  0  0  0
  8 13  1  6  0  0  0
  8  7  1  0  0  0  0
  9 16  1  0  0  0  0
 10  8  1  0  0  0  0
 10  7  1  1  0  0  0
 12 11  1  6  0  0  0
 12 14  1  0  0  0  0
 12 13  1  0  0  0  0
 14 16  1  6  0  0  0
 14 10  1  0  0  0  0
 15  9  1  0  0  0  0
 15 11  1  0  0  0  0
 17  2  1  0  0  0  0
 17 18  1  1  0  0  0
 19 17  1  0  0  0  0
 20 22  1  1  0  0  0
 20 25  1  0  0  0  0
 21 26  2  0  0  0  0
 23 25  1  0  0  0  0
 24 26  1  0  0  0  0
 24 20  1  0  0  0  0
 25 19  1  1  0  0  0
 26 23  1  0  0  0  0
 27 20  1  0  0  0  0
 27 28  1  0  0  0  0
 30 29  1  0  0  0  0
 31 32  1  0  0  0  0
 31 30  1  0  0  0  0
M  END
>  <MODEL>
1

>  <REMARK>
 VINA RESULT:      -6.9      0.000      0.000
  Name = 
  8 active torsions:
  status: ('A' for Active; 'I' for Inactive)
    1  A    between atoms: N_2  and  C_5
    2  A    between atoms: C_3  and  C_22
    3  A    between atoms: C_4  and  C_24
    4  A    between atoms: C_13  and  S_29
    5  A    between atoms: C_14  and  C_18
    6  A    between atoms: C_16  and  C_20
    7  A    between atoms: C_16  and  C_24
    8  A    between atoms: C_18  and  S_29
                            x       y       z     vdW  Elec       q    Type
                         _______ _______ _______ _____ _____    ______ ____

>  <TORSDO>
F 8

$$$$
=
 OpenBabel11052419183D

 32 36  0  0  1  0  0  0  0  0999 V2000
  189.3050  175.0350  145.7970 C   0  0  0  0  0  3  0  0  0  0  0  0
  188.8370  176.1380  146.5240 C   0  0  0  0  0  0  0  0  0  0  0  0
  190.6610  174.7000  145.8130 C   0  0  0  0  0  0  0  0  0  0  0  0
  191.5650  175.4800  146.5580 C   0  0  0  0  0  0  0  0  0  0  0  0
  191.0960  176.5800  147.2840 C   0  0  0  0  0  3  0  0  0  0  0  0
  189.7380  176.9090  147.2660 C   0  0  0  0  0  3  0  0  0  0  0  0
  191.1060  173.5650  145.0740 N   0  0  0  0  0  0  0  0  0  0  0  0
  192.1660  172.7330  144.4280 C   0  0  1  0  0  3  0  0  0  0  0  0
  189.1770  172.6460  140.7920 C   0  0  0  0  0  2  0  0  0  0  0  0
  190.8460  172.3360  144.2630 C   0  0  2  0  0  3  0  0  0  0  0  0
  191.4670  173.7350  141.0090 C   0  0  0  0  0  2  0  0  0  0  0  0
  191.6990  172.8230  142.1190 N   0  0  1  0  0  0  0  0  0  0  0  0
  192.6040  173.3650  143.1070 C   0  0  0  0  0  2  0  0  0  0  0  0
  190.4690  172.7660  142.8680 C   0  0  1  0  0  3  0  0  0  0  0  0
  190.4650  173.0670  140.0520 C   0  0  0  0  0  2  0  0  0  0  0  0
  189.4710  171.9130  142.1110 C   0  0  0  0  0  2  0  0  0  0  0  0
  187.3810  176.4920  146.5520 C   0  0  1  0  0  3  0  0  0  0  0  0
  187.1630  177.8100  147.2710 C   0  0  0  0  0  1  0  0  0  0  0  0
  186.7810  176.5610  145.1530 C   0  0  0  0  0  2  0  0  0  0  0  0
  186.0400  178.5150  143.5730 C   0  0  2  0  0  0  0  0  0  0  0  0
  188.7740  178.3940  141.4080 O   0  0  0  0  0  0  0  0  0  0  0  0
  184.8760  177.5780  143.2780 C   0  0  0  0  0  1  0  0  0  0  0  0
  188.3060  177.6890  143.5990 N   0  0  0  0  0  2  0  0  0  0  0  0
  186.6970  178.8190  142.3500 O   0  0  0  0  0  0  0  0  0  0  0  0
  187.1520  177.8750  144.4660 C   0  0  2  0  0  3  0  0  0  0  0  0
  187.9760  178.3130  142.3780 C   0  0  0  0  0  0  0  0  0  0  0  0
  185.4980  179.7880  144.2110 C   0  0  0  0  0  2  0  0  0  0  0  0
  184.5310  179.4910  145.1730 O   0  0  0  0  0  1  0  0  0  0  0  0
  193.0150  175.1370  146.6230 C   0  0  0  0  0  2  0  0  0  0  0  0
  194.0160  176.6390  146.4230 S   0  0  0  0  0  0  0  0  0  0  0  0
  195.1710  175.7960  145.3090 C   0  0  0  0  0  2  0  0  0  0  0  0
  195.2300  174.3260  145.6640 C   0  0  0  0  0  1  0  0  0  0  0  0
  1  3  2  0  0  0  0
  1  2  1  0  0  0  0
  2 17  1  0  0  0  0
  2  6  2  0  0  0  0
  3  4  1  0  0  0  0
  4 29  1  0  0  0  0
  4  5  2  0  0  0  0
  6  5  1  0  0  0  0
  7  3  1  0  0  0  0
  8 13  1  6  0  0  0
  8  7  1  0  0  0  0
  9 16  1  0  0  0  0
 10  8  1  0  0  0  0
 10  7  1  1  0  0  0
 12 11  1  6  0  0  0
 12 14  1  0  0  0  0
 12 13  1  0  0  0  0
 14 16  1  6  0  0  0
 14 10  1  0  0  0  0
 15  9  1  0  0  0  0
 15 11  1  0  0  0  0
 17 18  1  6  0  0  0
 19 17  1  0  0  0  0
 20 22  1  6  0  0  0
 20 27  1  0  0  0  0
 20 25  1  0  0  0  0
 21 26  2  0  0  0  0
 23 25  1  0  0  0  0
 24 26  1  0  0  0  0
 24 20  1  0  0  0  0
 25 19  1  6  0  0  0
 26 23  1  0  0  0  0
 27 28  1  0  0  0  0
 30 29  1  0  0  0  0
 31 32  1  0  0  0  0
 31 30  1  0  0  0  0
M  END
>  <MODEL>
2

>  <REMARK>
 VINA RESULT:      -6.7      1.395      2.120
  Name = 
  8 active torsions:
  status: ('A' for Active; 'I' for Inactive)
    1  A    between atoms: N_2  and  C_5
    2  A    between atoms: C_3  and  C_22
    3  A    between atoms: C_4  and  C_24
    4  A    between atoms: C_13  and  S_29
    5  A    between atoms: C_14  and  C_18
    6  A    between atoms: C_16  and  C_20
    7  A    between atoms: C_16  and  C_24
    8  A    between atoms: C_18  and  S_29
                            x       y       z     vdW  Elec       q    Type
                         _______ _______ _______ _____ _____    ______ ____

>  <TORSDO>
F 8

$$$$
=
 OpenBabel11052419183D

 32 36  0  0  1  0  0  0  0  0999 V2000
  189.5510  174.3890  143.9930 C   0  0  0  0  0  3  0  0  0  0  0  0
  189.6690  173.2960  143.1230 C   0  0  0  0  0  0  0  0  0  0  0  0
  188.6310  175.4070  143.7300 C   0  0  0  0  0  0  0  0  0  0  0  0
  187.8220  175.3380  142.5800 C   0  0  0  0  0  0  0  0  0  0  0  0
  187.9400  174.2460  141.7140 C   0  0  0  0  0  3  0  0  0  0  0  0
  188.8610  173.2290  141.9830 C   0  0  0  0  0  3  0  0  0  0  0  0
  188.5240  176.5000  144.6380 N   0  0  0  0  0  0  0  0  0  0  0  0
  188.6110  177.1090  146.0000 C   0  0  1  0  0  3  0  0  0  0  0  0
  184.4150  178.9390  144.9030 C   0  0  0  0  0  2  0  0  0  0  0  0
  188.1380  177.9070  144.9670 C   0  0  2  0  0  3  0  0  0  0  0  0
  185.0410  177.2020  146.6540 C   0  0  0  0  0  2  0  0  0  0  0  0
  186.3990  177.7130  146.5490 N   0  0  1  0  0  0  0  0  0  0  0  0
  187.3980  176.7090  146.8390 C   0  0  0  0  0  2  0  0  0  0  0  0
  186.6410  177.9520  145.1490 C   0  0  1  0  0  3  0  0  0  0  0  0
  184.0780  178.3450  146.2870 C   0  0  0  0  0  2  0  0  0  0  0  0
  185.9170  179.2170  144.7330 C   0  0  0  0  0  2  0  0  0  0  0  0
  190.6220  172.1740  143.4070 C   0  0  1  0  0  3  0  0  0  0  0  0
  190.3930  171.0210  142.4480 C   0  0  0  0  0  1  0  0  0  0  0  0
  192.0760  172.6260  143.3350 C   0  0  0  0  0  2  0  0  0  0  0  0
  193.2750  174.0970  145.1410 C   0  0  2  0  0  0  0  0  0  0  0  0
  195.9450  171.9390  145.7650 O   0  0  0  0  0  0  0  0  0  0  0  0
  193.4220  175.0660  143.9760 C   0  0  0  0  0  1  0  0  0  0  0  0
  193.7850  171.7560  144.8620 N   0  0  0  0  0  2  0  0  0  0  0  0
  194.5690  173.8030  145.6500 O   0  0  0  0  0  0  0  0  0  0  0  0
  192.6900  172.7060  144.7320 C   0  0  2  0  0  3  0  0  0  0  0  0
  194.8480  172.4700  145.4540 C   0  0  0  0  0  0  0  0  0  0  0  0
  192.4190  174.7490  146.2200 C   0  0  0  0  0  2  0  0  0  0  0  0
  192.1300  176.0750  145.8920 O   0  0  0  0  0  1  0  0  0  0  0  0
  186.8080  176.3900  142.2800 C   0  0  0  0  0  2  0  0  0  0  0  0
  187.5180  177.6360  141.1680 S   0  0  0  0  0  0  0  0  0  0  0  0
  185.9320  177.8800  140.3260 C   0  0  0  0  0  2  0  0  0  0  0  0
  184.8310  178.0150  141.3560 C   0  0  0  0  0  1  0  0  0  0  0  0
  2 17  1  0  0  0  0
  2  1  2  0  0  0  0
  3  1  1  0  0  0  0
  3  7  1  0  0  0  0
  4  3  2  0  0  0  0
  5  6  2  0  0  0  0
  5  4  1  0  0  0  0
  6  2  1  0  0  0  0
  7  8  1  0  0  0  0
  8 13  1  1  0  0  0
  9 15  1  0  0  0  0
 10  7  1  6  0  0  0
 10 14  1  0  0  0  0
 10  8  1  0  0  0  0
 12 11  1  6  0  0  0
 12 13  1  0  0  0  0
 14 16  1  1  0  0  0
 14 12  1  0  0  0  0
 15 11  1  0  0  0  0
 16  9  1  0  0  0  0
 17 18  1  6  0  0  0
 19 17  1  0  0  0  0
 20 22  1  6  0  0  0
 20 24  1  0  0  0  0
 20 27  1  0  0  0  0
 23 26  1  0  0  0  0
 25 19  1  6  0  0  0
 25 23  1  0  0  0  0
 25 20  1  0  0  0  0
 26 24  1  0  0  0  0
 26 21  2  0  0  0  0
 28 27  1  0  0  0  0
 29  4  1  0  0  0  0
 30 29  1  0  0  0  0
 31 30  1  0  0  0  0
 31 32  1  0  0  0  0
M  END
>  <MODEL>
3

>  <REMARK>
 VINA RESULT:      -6.7      3.367      8.014
  Name = 
  8 active torsions:
  status: ('A' for Active; 'I' for Inactive)
    1  A    between atoms: N_2  and  C_5
    2  A    between atoms: C_3  and  C_22
    3  A    between atoms: C_4  and  C_24
    4  A    between atoms: C_13  and  S_29
    5  A    between atoms: C_14  and  C_18
    6  A    between atoms: C_16  and  C_20
    7  A    between atoms: C_16  and  C_24
    8  A    between atoms: C_18  and  S_29
                            x       y       z     vdW  Elec       q    Type
                         _______ _______ _______ _____ _____    ______ ____

>  <TORSDO>
F 8

$$$$
=
 OpenBabel11052419183D

 32 36  0  0  1  0  0  0  0  0999 V2000
  191.3790  175.7730  146.1950 C   0  0  0  0  0  3  0  0  0  0  0  0
  190.0400  175.3590  146.2100 C   0  0  0  0  0  0  0  0  0  0  0  0
  192.3600  174.9760  145.6010 C   0  0  0  0  0  0  0  0  0  0  0  0
  192.0020  173.7450  145.0190 C   0  0  0  0  0  0  0  0  0  0  0  0
  190.6650  173.3340  145.0340 C   0  0  0  0  0  3  0  0  0  0  0  0
  189.6880  174.1370  145.6280 C   0  0  0  0  0  3  0  0  0  0  0  0
  193.7120  175.4280  145.5890 N   0  0  0  0  0  0  0  0  0  0  0  0
  194.8370  176.2370  145.0310 C   0  0  1  0  0  3  0  0  0  0  0  0
  197.2590  172.2200  145.4270 C   0  0  0  0  0  2  0  0  0  0  0  0
  195.1240  175.3740  146.0800 C   0  0  2  0  0  3  0  0  0  0  0  0
  196.5350  173.5030  143.3510 C   0  0  0  0  0  2  0  0  0  0  0  0
  196.3910  174.6590  144.2230 N   0  0  1  0  0  0  0  0  0  0  0  0
  195.3800  175.5840  143.7610 C   0  0  0  0  0  2  0  0  0  0  0  0
  195.7940  174.1810  145.4440 C   0  0  1  0  0  3  0  0  0  0  0  0
  197.6020  172.5810  143.9650 C   0  0  0  0  0  2  0  0  0  0  0  0
  196.8470  173.4490  146.2520 C   0  0  0  0  0  2  0  0  0  0  0  0
  188.9660  176.2170  146.8090 C   0  0  1  0  0  3  0  0  0  0  0  0
  189.4720  177.6300  147.0330 C   0  0  0  0  0  1  0  0  0  0  0  0
  187.7110  176.2480  145.9450 C   0  0  0  0  0  2  0  0  0  0  0  0
  185.8680  178.1100  145.9640 C   0  0  2  0  0  0  0  0  0  0  0  0
  186.0790  178.9750  142.5900 O   0  0  0  0  0  0  0  0  0  0  0  0
  184.9630  176.9410  146.3280 C   0  0  0  0  0  1  0  0  0  0  0  0
  187.4630  177.9160  144.1650 N   0  0  0  0  0  2  0  0  0  0  0  0
  185.3660  178.7210  144.7830 O   0  0  0  0  0  0  0  0  0  0  0  0
  187.3270  177.6860  145.5960 C   0  0  2  0  0  3  0  0  0  0  0  0
  186.2790  178.5710  143.7650 C   0  0  0  0  0  0  0  0  0  0  0  0
  185.8690  179.1100  147.1150 C   0  0  0  0  0  2  0  0  0  0  0  0
  186.3220  178.5130  148.2920 O   0  0  0  0  0  1  0  0  0  0  0  0
  193.0160  172.8800  144.3490 C   0  0  0  0  0  2  0  0  0  0  0  0
  192.2150  171.8550  143.0820 S   0  0  0  0  0  0  0  0  0  0  0  0
  192.9400  170.3390  143.7610 C   0  0  0  0  0  2  0  0  0  0  0  0
  193.9240  170.6970  144.8540 C   0  0  0  0  0  1  0  0  0  0  0  0
  1  2  1  0  0  0  0
  2 17  1  0  0  0  0
  3  1  2  0  0  0  0
  4  5  2  0  0  0  0
  4  3  1  0  0  0  0
  5  6  1  0  0  0  0
  6  2  2  0  0  0  0
  7  3  1  0  0  0  0
  8 13  1  6  0  0  0
  8  7  1  0  0  0  0
  8 10  1  0  0  0  0
  9 16  1  0  0  0  0
 10  7  1  6  0  0  0
 11 15  1  0  0  0  0
 12 11  1  6  0  0  0
 12 14  1  0  0  0  0
 13 12  1  0  0  0  0
 14 10  1  0  0  0  0
 14 16  1  1  0  0  0
 15  9  1  0  0  0  0
 17 18  1  6  0  0  0
 19 17  1  0  0  0  0
 20 22  1  1  0  0  0
 20 27  1  0  0  0  0
 21 26  2  0  0  0  0
 23 25  1  0  0  0  0
 24 20  1  0  0  0  0
 25 19  1  6  0  0  0
 25 20  1  0  0  0  0
 26 23  1  0  0  0  0
 26 24  1  0  0  0  0
 27 28  1  0  0  0  0
 29  4  1  0  0  0  0
 30 31  1  0  0  0  0
 30 29  1  0  0  0  0
 31 32  1  0  0  0  0
M  END
>  <MODEL>
4

>  <REMARK>
 VINA RESULT:      -6.6      2.797      4.840
  Name = 
  8 active torsions:
  status: ('A' for Active; 'I' for Inactive)
    1  A    between atoms: N_2  and  C_5
    2  A    between atoms: C_3  and  C_22
    3  A    between atoms: C_4  and  C_24
    4  A    between atoms: C_13  and  S_29
    5  A    between atoms: C_14  and  C_18
    6  A    between atoms: C_16  and  C_20
    7  A    between atoms: C_16  and  C_24
    8  A    between atoms: C_18  and  S_29
                            x       y       z     vdW  Elec       q    Type
                         _______ _______ _______ _____ _____    ______ ____

>  <TORSDO>
F 8

$$$$
=
 OpenBabel11052419183D

 32 36  0  0  1  0  0  0  0  0999 V2000
  184.8800  177.9880  141.6650 C   0  0  0  0  0  3  0  0  0  0  0  0
  183.5730  178.3800  141.9870 C   0  0  0  0  0  0  0  0  0  0  0  0
  185.8660  177.9320  142.6540 C   0  0  0  0  0  0  0  0  0  0  0  0
  185.5460  178.2770  143.9800 C   0  0  0  0  0  0  0  0  0  0  0  0
  184.2410  178.6660  144.2990 C   0  0  0  0  0  3  0  0  0  0  0  0
  183.2580  178.7190  143.3070 C   0  0  0  0  0  3  0  0  0  0  0  0
  187.1840  177.5180  142.2990 N   0  0  0  0  0  0  0  0  0  0  0  0
  188.1560  176.5670  141.6820 C   0  0  1  0  0  3  0  0  0  0  0  0
  190.5280  177.1650  145.7040 C   0  0  0  0  0  2  0  0  0  0  0  0
  188.6700  177.6680  142.3530 C   0  0  2  0  0  3  0  0  0  0  0  0
  189.3490  175.1060  144.7840 C   0  0  0  0  0  2  0  0  0  0  0  0
  189.4410  175.7430  143.4800 N   0  0  1  0  0  0  0  0  0  0  0  0
  188.3660  175.3570  142.5930 C   0  0  0  0  0  2  0  0  0  0  0  0
  189.1460  177.1400  143.6840 C   0  0  1  0  0  3  0  0  0  0  0  0
  190.5160  175.6230  145.6440 C   0  0  0  0  0  2  0  0  0  0  0  0
  190.3490  177.8080  144.3190 C   0  0  0  0  0  2  0  0  0  0  0  0
  182.4910  178.4100  140.9500 C   0  0  1  0  0  3  0  0  0  0  0  0
  182.8640  177.5410  139.7630 C   0  0  0  0  0  1  0  0  0  0  0  0
  181.1460  177.9680  141.5130 C   0  0  0  0  0  2  0  0  0  0  0  0
  178.6680  178.8080  141.6410 C   0  0  2  0  0  0  0  0  0  0  0  0
  178.8870  181.2180  139.1280 O   0  0  0  0  0  0  0  0  0  0  0  0
  178.3640  177.3790  141.2110 C   0  0  0  0  0  1  0  0  0  0  0  0
  180.3880  180.0850  140.5340 N   0  0  0  0  0  2  0  0  0  0  0  0
  178.0970  179.6970  140.6910 O   0  0  0  0  0  0  0  0  0  0  0  0
  180.1920  179.1560  141.6370 C   0  0  2  0  0  3  0  0  0  0  0  0
  179.0980  180.3920  140.0530 C   0  0  0  0  0  0  0  0  0  0  0  0
  178.0610  179.0470  143.0190 C   0  0  0  0  0  2  0  0  0  0  0  0
  178.0670  177.8750  143.7760 O   0  0  0  0  0  1  0  0  0  0  0  0
  186.5640  178.2010  145.0680 C   0  0  0  0  0  2  0  0  0  0  0  0
  186.2010  176.7960  146.1580 S   0  0  0  0  0  0  0  0  0  0  0  0
  186.6230  177.7550  147.6380 C   0  0  0  0  0  2  0  0  0  0  0  0
  185.9410  179.1050  147.5750 C   0  0  0  0  0  1  0  0  0  0  0  0
  1  2  2  0  0  0  0
  1  3  1  0  0  0  0
  2  6  1  0  0  0  0
  3  4  2  0  0  0  0
  4  5  1  0  0  0  0
  4 29  1  0  0  0  0
  6  5  2  0  0  0  0
  7  3  1  0  0  0  0
  8  7  1  0  0  0  0
  8 10  1  0  0  0  0
  8 13  1  1  0  0  0
 10  7  1  1  0  0  0
 10 14  1  0  0  0  0
 11 15  1  0  0  0  0
 12 13  1  6  0  0  0
 12 14  1  0  0  0  0
 12 11  1  0  0  0  0
 14 16  1  6  0  0  0
 15  9  1  0  0  0  0
 16  9  1  0  0  0  0
 17 18  1  6  0  0  0
 17 19  1  0  0  0  0
 17  2  1  0  0  0  0
 20 22  1  6  0  0  0
 20 27  1  0  0  0  0
 21 26  2  0  0  0  0
 23 25  1  0  0  0  0
 24 20  1  0  0  0  0
 25 19  1  6  0  0  0
 25 20  1  0  0  0  0
 26 23  1  0  0  0  0
 26 24  1  0  0  0  0
 27 28  1  0  0  0  0
 29 30  1  0  0  0  0
 30 31  1  0  0  0  0
 32 31  1  0  0  0  0
M  END
>  <MODEL>
5

>  <REMARK>
 VINA RESULT:      -6.5      4.332      7.322
  Name = 
  8 active torsions:
  status: ('A' for Active; 'I' for Inactive)
    1  A    between atoms: N_2  and  C_5
    2  A    between atoms: C_3  and  C_22
    3  A    between atoms: C_4  and  C_24
    4  A    between atoms: C_13  and  S_29
    5  A    between atoms: C_14  and  C_18
    6  A    between atoms: C_16  and  C_20
    7  A    between atoms: C_16  and  C_24
    8  A    between atoms: C_18  and  S_29
                            x       y       z     vdW  Elec       q    Type
                         _______ _______ _______ _____ _____    ______ ____

>  <TORSDO>
F 8

$$$$
=
 OpenBabel11052419183D

 32 36  0  0  1  0  0  0  0  0999 V2000
  190.2200  175.4070  144.4270 C   0  0  0  0  0  3  0  0  0  0  0  0
  190.6300  176.2910  145.4350 C   0  0  0  0  0  0  0  0  0  0  0  0
  189.2050  175.7680  143.5390 C   0  0  0  0  0  0  0  0  0  0  0  0
  188.5840  177.0250  143.6610 C   0  0  0  0  0  0  0  0  0  0  0  0
  188.9950  177.9060  144.6660 C   0  0  0  0  0  3  0  0  0  0  0  0
  190.0140  177.5410  145.5510 C   0  0  0  0  0  3  0  0  0  0  0  0
  188.8170  174.8530  142.5160 N   0  0  0  0  0  0  0  0  0  0  0  0
  188.0650  173.6650  142.0130 C   0  0  1  0  0  3  0  0  0  0  0  0
  192.1890  172.5100  140.0610 C   0  0  0  0  0  2  0  0  0  0  0  0
  188.9350  174.2950  141.1340 C   0  0  2  0  0  3  0  0  0  0  0  0
  190.8850  171.3800  141.9310 C   0  0  0  0  0  2  0  0  0  0  0  0
  189.7190  172.0900  141.4280 N   0  0  1  0  0  0  0  0  0  0  0  0
  188.7500  172.3750  142.4630 C   0  0  0  0  0  2  0  0  0  0  0  0
  190.1620  173.4180  141.0870 C   0  0  1  0  0  3  0  0  0  0  0  0
  191.8530  171.1720  140.7540 C   0  0  0  0  0  2  0  0  0  0  0  0
  190.9380  173.3590  139.7870 C   0  0  0  0  0  2  0  0  0  0  0  0
  191.7440  175.9390  146.3740 C   0  0  1  0  0  3  0  0  0  0  0  0
  191.1960  175.5480  147.7340 C   0  0  0  0  0  1  0  0  0  0  0  0
  192.6210  174.8180  145.8280 C   0  0  0  0  0  2  0  0  0  0  0  0
  194.3230  174.8970  143.8390 C   0  0  2  0  0  0  0  0  0  0  0  0
  197.1930  174.1650  145.6840 O   0  0  0  0  0  0  0  0  0  0  0  0
  193.4990  173.7190  143.3380 C   0  0  0  0  0  1  0  0  0  0  0  0
  195.0460  175.0020  146.1380 N   0  0  0  0  0  2  0  0  0  0  0  0
  195.6780  174.4830  143.9570 O   0  0  0  0  0  0  0  0  0  0  0  0
  193.9330  175.3730  145.2760 C   0  0  2  0  0  3  0  0  0  0  0  0
  196.0570  174.5240  145.2780 C   0  0  0  0  0  0  0  0  0  0  0  0
  194.2070  176.0410  142.8380 C   0  0  0  0  0  2  0  0  0  0  0  0
  192.8700  176.3810  142.6250 O   0  0  0  0  0  1  0  0  0  0  0  0
  187.5160  177.4580  142.7140 C   0  0  0  0  0  2  0  0  0  0  0  0
  185.8990  176.8680  143.2910 S   0  0  0  0  0  0  0  0  0  0  0  0
  185.1110  178.4520  142.8990 C   0  0  0  0  0  2  0  0  0  0  0  0
  185.5660  179.5000  143.8910 C   0  0  0  0  0  1  0  0  0  0  0  0
  1  2  1  0  0  0  0
  2  6  2  0  0  0  0
  2 17  1  0  0  0  0
  3  4  1  0  0  0  0
  3  1  2  0  0  0  0
  4  5  2  0  0  0  0
  5  6  1  0  0  0  0
  7  3  1  0  0  0  0
  8 13  1  1  0  0  0
  8  7  1  0  0  0  0
  9 15  1  0  0  0  0
 10  8  1  0  0  0  0
 10  7  1  1  0  0  0
 12 11  1  1  0  0  0
 12 13  1  0  0  0  0
 14 16  1  6  0  0  0
 14 10  1  0  0  0  0
 14 12  1  0  0  0  0
 15 11  1  0  0  0  0
 16  9  1  0  0  0  0
 17 18  1  1  0  0  0
 19 17  1  0  0  0  0
 20 22  1  6  0  0  0
 20 24  1  0  0  0  0
 20 25  1  0  0  0  0
 24 26  1  0  0  0  0
 25 19  1  1  0  0  0
 25 23  1  0  0  0  0
 26 21  2  0  0  0  0
 26 23  1  0  0  0  0
 27 20  1  0  0  0  0
 28 27  1  0  0  0  0
 29 30  1  0  0  0  0
 29  4  1  0  0  0  0
 31 30  1  0  0  0  0
 31 32  1  0  0  0  0
M  END
>  <MODEL>
6

>  <REMARK>
 VINA RESULT:      -6.4      3.439      6.500
  Name = 
  8 active torsions:
  status: ('A' for Active; 'I' for Inactive)
    1  A    between atoms: N_2  and  C_5
    2  A    between atoms: C_3  and  C_22
    3  A    between atoms: C_4  and  C_24
    4  A    between atoms: C_13  and  S_29
    5  A    between atoms: C_14  and  C_18
    6  A    between atoms: C_16  and  C_20
    7  A    between atoms: C_16  and  C_24
    8  A    between atoms: C_18  and  S_29
                            x       y       z     vdW  Elec       q    Type
                         _______ _______ _______ _____ _____    ______ ____

>  <TORSDO>
F 8

$$$$
=
 OpenBabel11052419183D

 32 36  0  0  1  0  0  0  0  0999 V2000
  191.6510  174.7120  146.1540 C   0  0  0  0  0  3  0  0  0  0  0  0
  191.9480  175.8940  146.8460 C   0  0  0  0  0  0  0  0  0  0  0  0
  192.6250  174.0840  145.3750 C   0  0  0  0  0  0  0  0  0  0  0  0
  193.9120  174.6450  145.2780 C   0  0  0  0  0  0  0  0  0  0  0  0
  194.2060  175.8250  145.9700 C   0  0  0  0  0  3  0  0  0  0  0  0
  193.2280  176.4480  146.7500 C   0  0  0  0  0  3  0  0  0  0  0  0
  192.2980  172.8750  144.6920 N   0  0  0  0  0  0  0  0  0  0  0  0
  192.6170  171.7420  143.7720 C   0  0  1  0  0  3  0  0  0  0  0  0
  188.4070  172.7290  141.9120 C   0  0  0  0  0  2  0  0  0  0  0  0
  191.3250  171.8190  144.2750 C   0  0  2  0  0  3  0  0  0  0  0  0
  190.7370  172.9700  140.9190 C   0  0  0  0  0  2  0  0  0  0  0  0
  191.1710  172.0180  141.9290 N   0  0  1  0  0  0  0  0  0  0  0  0
  192.5520  172.2060  142.3170 C   0  0  0  0  0  2  0  0  0  0  0  0
  190.4890  172.3720  143.1480 C   0  0  1  0  0  3  0  0  0  0  0  0
  189.2530  172.6960  140.6210 C   0  0  0  0  0  2  0  0  0  0  0  0
  189.0450  171.9200  143.0520 C   0  0  0  0  0  2  0  0  0  0  0  0
  190.9290  176.5630  147.7180 C   0  0  1  0  0  3  0  0  0  0  0  0
  191.5960  177.2280  148.9080 C   0  0  0  0  0  1  0  0  0  0  0  0
  190.1000  177.5860  146.9500 C   0  0  0  0  0  2  0  0  0  0  0  0
  188.7040  177.0120  144.8090 C   0  0  2  0  0  0  0  0  0  0  0  0
  185.6580  178.3110  145.9070 O   0  0  0  0  0  0  0  0  0  0  0  0
  189.6760  177.9820  144.1500 C   0  0  0  0  0  1  0  0  0  0  0  0
  187.6490  177.5680  146.9060 N   0  0  0  0  0  2  0  0  0  0  0  0
  187.3810  177.4840  144.5930 O   0  0  0  0  0  0  0  0  0  0  0  0
  188.8450  176.9400  146.3640 C   0  0  2  0  0  3  0  0  0  0  0  0
  186.8110  177.8210  145.7990 C   0  0  0  0  0  0  0  0  0  0  0  0
  188.8810  175.6340  144.1830 C   0  0  0  0  0  2  0  0  0  0  0  0
  189.8710  175.6580  143.1990 O   0  0  0  0  0  1  0  0  0  0  0  0
  194.9870  173.9890  144.4790 C   0  0  0  0  0  2  0  0  0  0  0  0
  196.3950  175.1200  144.2890 S   0  0  0  0  0  0  0  0  0  0  0  0
  197.5550  173.8830  144.9310 C   0  0  0  0  0  2  0  0  0  0  0  0
  197.1080  173.4400  146.3080 C   0  0  0  0  0  1  0  0  0  0  0  0
  1  2  1  0  0  0  0
  2 17  1  0  0  0  0
  3  1  2  0  0  0  0
  4  3  1  0  0  0  0
  4  5  2  0  0  0  0
  5  6  1  0  0  0  0
  6  2  2  0  0  0  0
  7  3  1  0  0  0  0
  8 13  1  6  0  0  0
  8 10  1  0  0  0  0
  8  7  1  0  0  0  0
  9 16  1  0  0  0  0
 10  7  1  1  0  0  0
 12 11  1  6  0  0  0
 12 13  1  0  0  0  0
 12 14  1  0  0  0  0
 14 16  1  6  0  0  0
 14 10  1  0  0  0  0
 15 11  1  0  0  0  0
 15  9  1  0  0  0  0
 17 18  1  1  0  0  0
 19 17  1  0  0  0  0
 20 22  1  6  0  0  0
 20 25  1  0  0  0  0
 24 20  1  0  0  0  0
 24 26  1  0  0  0  0
 25 23  1  0  0  0  0
 25 19  1  6  0  0  0
 26 21  2  0  0  0  0
 26 23  1  0  0  0  0
 27 20  1  0  0  0  0
 28 27  1  0  0  0  0
 29  4  1  0  0  0  0
 30 29  1  0  0  0  0
 30 31  1  0  0  0  0
 31 32  1  0  0  0  0
M  END
>  <MODEL>
7

>  <REMARK>
 VINA RESULT:      -6.3      2.269      3.218
  Name = 
  8 active torsions:
  status: ('A' for Active; 'I' for Inactive)
    1  A    between atoms: N_2  and  C_5
    2  A    between atoms: C_3  and  C_22
    3  A    between atoms: C_4  and  C_24
    4  A    between atoms: C_13  and  S_29
    5  A    between atoms: C_14  and  C_18
    6  A    between atoms: C_16  and  C_20
    7  A    between atoms: C_16  and  C_24
    8  A    between atoms: C_18  and  S_29
                            x       y       z     vdW  Elec       q    Type
                         _______ _______ _______ _____ _____    ______ ____

>  <TORSDO>
F 8

$$$$
=
 OpenBabel11052419183D

 32 36  0  0  1  0  0  0  0  0999 V2000
  188.8740  175.6030  142.9770 C   0  0  0  0  0  3  0  0  0  0  0  0
  188.3180  176.1130  141.7950 C   0  0  0  0  0  0  0  0  0  0  0  0
  189.3030  174.2760  143.0420 C   0  0  0  0  0  0  0  0  0  0  0  0
  189.1720  173.4420  141.9160 C   0  0  0  0  0  0  0  0  0  0  0  0
  188.6180  173.9530  140.7370 C   0  0  0  0  0  3  0  0  0  0  0  0
  188.1920  175.2830  140.6770 C   0  0  0  0  0  3  0  0  0  0  0  0
  189.8760  173.7880  144.2540 N   0  0  0  0  0  0  0  0  0  0  0  0
  189.7840  173.2700  145.6520 C   0  0  1  0  0  3  0  0  0  0  0  0
  193.1910  176.4050  146.5030 C   0  0  0  0  0  2  0  0  0  0  0  0
  191.0510  173.4950  145.1310 C   0  0  2  0  0  3  0  0  0  0  0  0
  190.7780  176.3440  147.3090 C   0  0  0  0  0  2  0  0  0  0  0  0
  190.7990  174.9250  146.9910 N   0  0  1  0  0  0  0  0  0  0  0  0
  189.4970  174.4150  146.6230 C   0  0  0  0  0  2  0  0  0  0  0  0
  191.5120  174.7940  145.7450 C   0  0  1  0  0  3  0  0  0  0  0  0
  192.2170  176.7730  147.6430 C   0  0  0  0  0  2  0  0  0  0  0  0
  192.9950  174.9640  146.0070 C   0  0  0  0  0  2  0  0  0  0  0  0
  187.8860  177.5450  141.6920 C   0  0  1  0  0  3  0  0  0  0  0  0
  186.7180  177.6840  140.7330 C   0  0  0  0  0  1  0  0  0  0  0  0
  187.5150  178.1300  143.0490 C   0  0  0  0  0  2  0  0  0  0  0  0
  185.0550  178.4900  143.8750 C   0  0  2  0  0  0  0  0  0  0  0  0
  185.3350  176.7330  146.8760 O   0  0  0  0  0  0  0  0  0  0  0  0
  185.4760  179.9530  143.8830 C   0  0  0  0  0  1  0  0  0  0  0  0
  186.4830  176.7960  144.8280 N   0  0  0  0  0  2  0  0  0  0  0  0
  184.6120  178.1390  145.1790 O   0  0  0  0  0  0  0  0  0  0  0  0
  186.2280  177.4990  143.5800 C   0  0  2  0  0  3  0  0  0  0  0  0
  185.4580  177.1950  145.7120 C   0  0  0  0  0  0  0  0  0  0  0  0
  183.9250  178.3080  142.8680 C   0  0  0  0  0  2  0  0  0  0  0  0
  182.8000  179.0430  143.2440 O   0  0  0  0  0  1  0  0  0  0  0  0
  189.6450  172.0280  141.9370 C   0  0  0  0  0  2  0  0  0  0  0  0
  190.9460  171.7920  140.6930 S   0  0  0  0  0  0  0  0  0  0  0  0
  192.2500  172.1630  141.8950 C   0  0  0  0  0  2  0  0  0  0  0  0
  192.7720  173.5640  141.6560 C   0  0  0  0  0  1  0  0  0  0  0  0
  1  3  1  0  0  0  0
  2  1  2  0  0  0  0
  3  7  1  0  0  0  0
  4 29  1  0  0  0  0
  4  3  2  0  0  0  0
  5  4  1  0  0  0  0
  6  5  2  0  0  0  0
  6  2  1  0  0  0  0
  7  8  1  0  0  0  0
  8 13  1  1  0  0  0
  9 15  1  0  0  0  0
 10  7  1  6  0  0  0
 10  8  1  0  0  0  0
 10 14  1  0  0  0  0
 11 15  1  0  0  0  0
 12 13  1  6  0  0  0
 12 11  1  0  0  0  0
 14 16  1  1  0  0  0
 14 12  1  0  0  0  0
 16  9  1  0  0  0  0
 17 18  1  6  0  0  0
 17  2  1  0  0  0  0
 17 19  1  0  0  0  0
 20 22  1  6  0  0  0
 20 24  1  0  0  0  0
 23 26  1  0  0  0  0
 24 26  1  0  0  0  0
 25 19  1  1  0  0  0
 25 20  1  0  0  0  0
 25 23  1  0  0  0  0
 26 21  2  0  0  0  0
 27 28  1  0  0  0  0
 27 20  1  0  0  0  0
 30 31  1  0  0  0  0
 30 29  1  0  0  0  0
 32 31  1  0  0  0  0
M  END
>  <MODEL>
8

>  <REMARK>
 VINA RESULT:      -6.3      2.550      5.253
  Name = 
  8 active torsions:
  status: ('A' for Active; 'I' for Inactive)
    1  A    between atoms: N_2  and  C_5
    2  A    between atoms: C_3  and  C_22
    3  A    between atoms: C_4  and  C_24
    4  A    between atoms: C_13  and  S_29
    5  A    between atoms: C_14  and  C_18
    6  A    between atoms: C_16  and  C_20
    7  A    between atoms: C_16  and  C_24
    8  A    between atoms: C_18  and  S_29
                            x       y       z     vdW  Elec       q    Type
                         _______ _______ _______ _____ _____    ______ ____

>  <TORSDO>
F 8

$$$$
=
 OpenBabel11052419183D

 32 36  0  0  1  0  0  0  0  0999 V2000
  191.2020  176.2090  145.7100 C   0  0  0  0  0  3  0  0  0  0  0  0
  189.8750  175.8030  145.5100 C   0  0  0  0  0  0  0  0  0  0  0  0
  192.2600  175.4050  145.2800 C   0  0  0  0  0  0  0  0  0  0  0  0
  191.9930  174.1770  144.6490 C   0  0  0  0  0  0  0  0  0  0  0  0
  190.6680  173.7740  144.4490 C   0  0  0  0  0  3  0  0  0  0  0  0
  189.6130  174.5830  144.8790 C   0  0  0  0  0  3  0  0  0  0  0  0
  193.6000  175.8490  145.4860 N   0  0  0  0  0  0  0  0  0  0  0  0
  194.7760  176.7120  145.1670 C   0  0  1  0  0  3  0  0  0  0  0  0
  197.1700  172.6640  145.3840 C   0  0  0  0  0  2  0  0  0  0  0  0
  194.9420  175.7310  146.1350 C   0  0  2  0  0  3  0  0  0  0  0  0
  196.6910  174.1840  143.4000 C   0  0  0  0  0  2  0  0  0  0  0  0
  196.4320  175.2310  144.3750 N   0  0  1  0  0  0  0  0  0  0  0  0
  195.4760  176.2090  143.9050 C   0  0  0  0  0  2  0  0  0  0  0  0
  195.6950  174.6170  145.4520 C   0  0  1  0  0  3  0  0  0  0  0  0
  197.6840  173.1910  144.0270 C   0  0  0  0  0  2  0  0  0  0  0  0
  196.6490  173.7910  146.2910 C   0  0  0  0  0  2  0  0  0  0  0  0
  188.7250  176.6680  145.9290 C   0  0  1  0  0  3  0  0  0  0  0  0
  189.1120  177.5400  147.1090 C   0  0  0  0  0  1  0  0  0  0  0  0
  188.2180  177.5400  144.7860 C   0  0  0  0  0  2  0  0  0  0  0  0
  187.2040  176.7700  142.4960 C   0  0  2  0  0  0  0  0  0  0  0  0
  184.0580  178.2250  142.8950 O   0  0  0  0  0  0  0  0  0  0  0  0
  188.3100  177.6490  141.9300 C   0  0  0  0  0  1  0  0  0  0  0  0
  185.8140  177.5570  144.3040 N   0  0  0  0  0  2  0  0  0  0  0  0
  185.9570  177.2370  142.0010 O   0  0  0  0  0  0  0  0  0  0  0  0
  187.0650  176.8570  144.0510 C   0  0  2  0  0  3  0  0  0  0  0  0
  185.1940  177.7070  143.0450 C   0  0  0  0  0  0  0  0  0  0  0  0
  187.4420  175.3310  142.0520 C   0  0  0  0  0  2  0  0  0  0  0  0
  188.1910  175.2910  140.8760 O   0  0  0  0  0  1  0  0  0  0  0  0
  193.0950  173.3040  144.1500 C   0  0  0  0  0  2  0  0  0  0  0  0
  192.4320  172.0620  143.0040 S   0  0  0  0  0  0  0  0  0  0  0  0
  192.7330  170.7210  144.1860 C   0  0  0  0  0  2  0  0  0  0  0  0
  193.9580  171.0440  145.0140 C   0  0  0  0  0  1  0  0  0  0  0  0
  2  1  1  0  0  0  0
  2 17  1  0  0  0  0
  3  7  1  0  0  0  0
  3  1  2  0  0  0  0
  4  3  1  0  0  0  0
  5  4  2  0  0  0  0
  5  6  1  0  0  0  0
  6  2  2  0  0  0  0
  8 13  1  6  0  0  0
  8  7  1  0  0  0  0
  8 10  1  0  0  0  0
  9 16  1  0  0  0  0
 10  7  1  6  0  0  0
 11 15  1  0  0  0  0
 12 11  1  6  0  0  0
 12 14  1  0  0  0  0
 13 12  1  0  0  0  0
 14 10  1  0  0  0  0
 14 16  1  1  0  0  0
 15  9  1  0  0  0  0
 17 18  1  1  0  0  0
 19 17  1  0  0  0  0
 20 22  1  6  0  0  0
 20 25  1  0  0  0  0
 21 26  2  0  0  0  0
 24 20  1  0  0  0  0
 24 26  1  0  0  0  0
 25 23  1  0  0  0  0
 25 19  1  6  0  0  0
 26 23  1  0  0  0  0
 27 20  1  0  0  0  0
 28 27  1  0  0  0  0
 29  4  1  0  0  0  0
 30 29  1  0  0  0  0
 30 31  1  0  0  0  0
 31 32  1  0  0  0  0
M  END
>  <MODEL>
9

>  <REMARK>
 VINA RESULT:      -6.2      2.361      4.187
  Name = 
  8 active torsions:
  status: ('A' for Active; 'I' for Inactive)
    1  A    between atoms: N_2  and  C_5
    2  A    between atoms: C_3  and  C_22
    3  A    between atoms: C_4  and  C_24
    4  A    between atoms: C_13  and  S_29
    5  A    between atoms: C_14  and  C_18
    6  A    between atoms: C_16  and  C_20
    7  A    between atoms: C_16  and  C_24
    8  A    between atoms: C_18  and  S_29
                            x       y       z     vdW  Elec       q    Type
                         _______ _______ _______ _____ _____    ______ ____

>  <TORSDO>
F 8

$$$$
