=
 OpenBabel11052418243D

 27 31  0  0  1  0  0  0  0  0999 V2000
  188.1030  176.0680  143.1920 C   0  0  0  0  0  3  0  0  0  0  0  0
  189.3820  175.8850  145.2730 C   0  0  0  0  0  0  0  0  0  0  0  0
  189.6390  173.6790  144.2230 N   0  0  0  0  0  0  0  0  0  0  0  0
  193.8890  175.8660  145.7930 S   0  0  0  0  0  0  0  0  0  0  0  0
  193.7910  174.7830  143.2790 C   0  0  0  0  0  1  0  0  0  0  0  0
  189.9360  176.9690  146.1770 C   0  0  0  0  0  2  0  0  0  0  0  0
  192.4150  173.7480  145.0470 C   0  0  0  0  0  0  0  0  0  0  0  0
  189.2320  172.7320  140.8970 C   0  0  0  0  0  2  0  0  0  0  0  0
  192.1940  172.5840  144.7450 O   0  0  0  0  0  0  0  0  0  0  0  0
  188.4150  173.8510  140.2520 C   0  0  2  0  0  3  0  0  0  0  0  0
  191.4190  174.5640  145.8120 C   0  0  1  0  0  3  0  0  0  0  0  0
  188.0010  176.0260  144.6830 C   0  0  1  0  0  3  0  0  0  0  0  0
  193.7330  174.3850  144.7420 C   0  0  2  0  0  3  0  0  0  0  0  0
  192.1180  175.8740  146.0150 C   0  0  0  0  0  0  0  0  0  0  0  0
  188.5080  175.0130  142.4910 C   0  0  0  0  0  0  0  0  0  0  0  0
  190.1070  174.7570  145.0620 C   0  0  0  0  0  0  0  0  0  0  0  0
  188.7540  172.4940  142.3280 C   0  0  0  0  0  2  0  0  0  0  0  0
  191.4340  177.0160  146.1220 C   0  0  0  0  0  3  0  0  0  0  0  0
  188.9290  174.1360  138.9260 N   0  0  0  0  0  1  0  0  0  0  0  0
  188.4470  175.0680  141.0630 N   0  0  0  0  0  2  0  0  0  0  0  0
  188.9360  173.7430  143.1260 C   0  0  0  0  0  0  0  0  0  0  0  0
  185.2250  179.0560  146.0130 C   0  0  0  0  0  2  0  0  0  0  0  0
  187.1830  177.2070  145.2380 C   0  0  2  0  0  3  0  0  0  0  0  0
  185.9300  176.7130  145.9150 C   0  0  0  0  0  3  0  0  0  0  0  0
  184.9960  177.5970  146.2810 C   0  0  0  0  0  3  0  0  0  0  0  0
  185.7690  179.2740  144.5930 C   0  0  0  0  0  2  0  0  0  0  0  0
  186.7870  178.2080  144.1340 C   0  0  0  0  0  2  0  0  0  0  0  0
  2  6  1  0  0  0  0
  3 16  1  0  0  0  0
  4 14  1  0  0  0  0
  8 17  1  0  0  0  0
  9  7  2  0  0  0  0
 10 19  1  6  0  0  0
 10  8  1  0  0  0  0
 10 20  1  0  0  0  0
 11  7  1  6  0  0  0
 11 14  1  0  0  0  0
 12  1  1  6  0  0  0
 12 23  1  0  0  0  0
 12  2  1  0  0  0  0
 13  5  1  6  0  0  0
 13  7  1  0  0  0  0
 13  4  1  0  0  0  0
 14 18  2  0  0  0  0
 15 21  1  0  0  0  0
 15  1  2  0  0  0  0
 16  2  2  0  0  0  0
 16 11  1  0  0  0  0
 17 21  1  0  0  0  0
 18  6  1  0  0  0  0
 20 15  1  0  0  0  0
 21  3  2  0  0  0  0
 22 25  1  0  0  0  0
 23 27  1  6  0  0  0
 23 24  1  0  0  0  0
 24 25  2  0  0  0  0
 26 22  1  0  0  0  0
 27 26  1  0  0  0  0
M  END
>  <MODEL>
1

>  <REMARK>
 VINA RESULT:      -8.2      0.000      0.000
  Name = 
  1 active torsions:
  status: ('A' for Active; 'I' for Inactive)
    1  A    between atoms: C_9  and  C_15
                            x       y       z     vdW  Elec       q    Type
                         _______ _______ _______ _____ _____    ______ ____

>  <TORSDO>
F 1

$$$$
=
 OpenBabel11052418243D

 27 31  0  0  1  0  0  0  0  0999 V2000
  188.2960  176.5660  145.6950 C   0  0  0  0  0  3  0  0  0  0  0  0
  188.1490  176.1970  143.2790 C   0  0  0  0  0  0  0  0  0  0  0  0
  190.5590  176.4210  143.6980 N   0  0  0  0  0  0  0  0  0  0  0  0
  189.1730  172.4380  140.9540 S   0  0  0  0  0  0  0  0  0  0  0  0
  190.9190  172.0870  143.0350 C   0  0  0  0  0  1  0  0  0  0  0  0
  187.0200  175.6210  142.4460 C   0  0  0  0  0  2  0  0  0  0  0  0
  190.9590  174.2420  141.8320 C   0  0  0  0  0  0  0  0  0  0  0  0
  192.3530  176.0240  146.6560 C   0  0  0  0  0  2  0  0  0  0  0  0
  192.0600  174.7530  141.9750 O   0  0  0  0  0  0  0  0  0  0  0  0
  191.3180  176.1240  147.7760 C   0  0  2  0  0  3  0  0  0  0  0  0
  189.7170  175.0690  141.7120 C   0  0  1  0  0  3  0  0  0  0  0  0
  187.8450  177.1600  144.4000 C   0  0  1  0  0  3  0  0  0  0  0  0
  190.8130  172.7610  141.6800 C   0  0  2  0  0  3  0  0  0  0  0  0
  188.6370  174.0550  141.4870 C   0  0  0  0  0  0  0  0  0  0  0  0
  189.5840  176.3600  145.9570 C   0  0  0  0  0  0  0  0  0  0  0  0
  189.4340  175.9000  142.9580 C   0  0  0  0  0  0  0  0  0  0  0  0
  192.0030  176.9970  145.5320 C   0  0  0  0  0  2  0  0  0  0  0  0
  187.3820  174.2770  141.8860 C   0  0  0  0  0  3  0  0  0  0  0  0
  191.6040  175.1370  148.8010 N   0  0  0  0  0  1  0  0  0  0  0  0
  189.9620  175.9250  147.2660 N   0  0  0  0  0  2  0  0  0  0  0  0
  190.6590  176.6520  144.9780 C   0  0  0  0  0  0  0  0  0  0  0  0
  183.9530  178.9800  144.8420 C   0  0  0  0  0  2  0  0  0  0  0  0
  186.3800  177.6320  144.4620 C   0  0  2  0  0  3  0  0  0  0  0  0
  186.2740  179.0830  144.0670 C   0  0  0  0  0  3  0  0  0  0  0  0
  185.1160  179.7250  144.2520 C   0  0  0  0  0  3  0  0  0  0  0  0
  184.3970  178.1330  146.0440 C   0  0  0  0  0  2  0  0  0  0  0  0
  185.7740  177.4560  145.8680 C   0  0  0  0  0  2  0  0  0  0  0  0
  1 15  2  0  0  0  0
  2 12  1  0  0  0  0
  3 21  2  0  0  0  0
  4 14  1  0  0  0  0
  4 13  1  0  0  0  0
  6  2  1  0  0  0  0
  7  9  2  0  0  0  0
  8 10  1  0  0  0  0
 10 19  1  1  0  0  0
 11 14  1  1  0  0  0
 11  7  1  0  0  0  0
 11 16  1  0  0  0  0
 12 23  1  0  0  0  0
 12  1  1  1  0  0  0
 13  7  1  0  0  0  0
 13  5  1  1  0  0  0
 14 18  2  0  0  0  0
 15 20  1  0  0  0  0
 16  2  2  0  0  0  0
 16  3  1  0  0  0  0
 17  8  1  0  0  0  0
 18  6  1  0  0  0  0
 20 10  1  0  0  0  0
 21 17  1  0  0  0  0
 21 15  1  0  0  0  0
 22 26  1  0  0  0  0
 23 24  1  1  0  0  0
 23 27  1  0  0  0  0
 24 25  2  0  0  0  0
 25 22  1  0  0  0  0
 27 26  1  0  0  0  0
M  END
>  <MODEL>
2

>  <REMARK>
 VINA RESULT:      -7.6      2.561      4.881
  Name = 
  1 active torsions:
  status: ('A' for Active; 'I' for Inactive)
    1  A    between atoms: C_9  and  C_15
                            x       y       z     vdW  Elec       q    Type
                         _______ _______ _______ _____ _____    ______ ____

>  <TORSDO>
F 1

$$$$
=
 OpenBabel11052418243D

 27 31  0  0  1  0  0  0  0  0999 V2000
  187.3200  176.0100  142.0020 C   0  0  0  0  0  3  0  0  0  0  0  0
  188.4010  176.1180  144.1970 C   0  0  0  0  0  0  0  0  0  0  0  0
  189.1680  173.9790  143.2640 N   0  0  0  0  0  0  0  0  0  0  0  0
  192.7590  176.9670  145.1320 S   0  0  0  0  0  0  0  0  0  0  0  0
  193.1130  175.8320  142.6650 C   0  0  0  0  0  1  0  0  0  0  0  0
  188.6510  177.3070  145.1050 C   0  0  0  0  0  2  0  0  0  0  0  0
  191.7880  174.5920  144.3380 C   0  0  0  0  0  0  0  0  0  0  0  0
  189.2740  172.9010  139.9550 C   0  0  0  0  0  2  0  0  0  0  0  0
  191.8200  173.4020  144.0630 O   0  0  0  0  0  0  0  0  0  0  0  0
  188.3290  173.8310  139.1930 C   0  0  2  0  0  3  0  0  0  0  0  0
  190.5870  175.2210  144.9740 C   0  0  1  0  0  3  0  0  0  0  0  0
  187.0820  175.9810  143.4780 C   0  0  1  0  0  3  0  0  0  0  0  0
  192.9870  175.4620  144.1310 C   0  0  2  0  0  3  0  0  0  0  0  0
  191.0050  176.6440  145.1890 C   0  0  0  0  0  0  0  0  0  0  0  0
  187.9830  175.0370  141.3840 C   0  0  0  0  0  0  0  0  0  0  0  0
  189.3410  175.1440  144.0990 C   0  0  0  0  0  0  0  0  0  0  0  0
  188.7110  172.6070  141.3440 C   0  0  0  0  0  2  0  0  0  0  0  0
  190.1120  177.6370  145.1870 C   0  0  0  0  0  3  0  0  0  0  0  0
  188.9090  174.1790  137.9100 N   0  0  0  0  0  1  0  0  0  0  0  0
  188.0530  175.0490  139.9550 N   0  0  0  0  0  2  0  0  0  0  0  0
  188.5760  173.8850  142.1050 C   0  0  0  0  0  0  0  0  0  0  0  0
  184.5260  179.1650  144.8860 C   0  0  0  0  0  2  0  0  0  0  0  0
  186.0070  176.9970  143.9080 C   0  0  2  0  0  3  0  0  0  0  0  0
  186.4270  178.3990  143.5460 C   0  0  0  0  0  3  0  0  0  0  0  0
  185.7210  179.4320  144.0160 C   0  0  0  0  0  3  0  0  0  0  0  0
  184.8430  178.0930  145.9400 C   0  0  0  0  0  2  0  0  0  0  0  0
  185.7290  176.9390  145.4230 C   0  0  0  0  0  2  0  0  0  0  0  0
  2  6  1  0  0  0  0
  3 16  1  0  0  0  0
  4 14  1  0  0  0  0
  6 18  1  0  0  0  0
  7 11  1  0  0  0  0
  8 17  1  0  0  0  0
  9  7  2  0  0  0  0
 10 19  1  6  0  0  0
 10  8  1  0  0  0  0
 10 20  1  0  0  0  0
 11 16  1  6  0  0  0
 11 14  1  0  0  0  0
 12  1  1  6  0  0  0
 12 23  1  0  0  0  0
 12  2  1  0  0  0  0
 13  5  1  6  0  0  0
 13  7  1  0  0  0  0
 13  4  1  0  0  0  0
 15  1  2  0  0  0  0
 15 21  1  0  0  0  0
 16  2  2  0  0  0  0
 17 21  1  0  0  0  0
 18 14  2  0  0  0  0
 20 15  1  0  0  0  0
 21  3  2  0  0  0  0
 22 26  1  0  0  0  0
 23 24  1  1  0  0  0
 23 27  1  0  0  0  0
 24 25  2  0  0  0  0
 25 22  1  0  0  0  0
 27 26  1  0  0  0  0
M  END
>  <MODEL>
3

>  <REMARK>
 VINA RESULT:      -7.5      1.128      1.596
  Name = 
  1 active torsions:
  status: ('A' for Active; 'I' for Inactive)
    1  A    between atoms: C_9  and  C_15
                            x       y       z     vdW  Elec       q    Type
                         _______ _______ _______ _____ _____    ______ ____

>  <TORSDO>
F 1

$$$$
=
 OpenBabel11052418243D

 27 31  0  0  1  0  0  0  0  0999 V2000
  188.6560  176.1570  145.1020 C   0  0  0  0  0  3  0  0  0  0  0  0
  188.8220  175.4480  142.7640 C   0  0  0  0  0  0  0  0  0  0  0  0
  191.1550  175.8110  143.4400 N   0  0  0  0  0  0  0  0  0  0  0  0
  190.1930  171.4370  141.1460 S   0  0  0  0  0  0  0  0  0  0  0  0
  191.6670  171.4410  143.4550 C   0  0  0  0  0  1  0  0  0  0  0  0
  187.8170  174.7230  141.8900 C   0  0  0  0  0  2  0  0  0  0  0  0
  191.8240  173.4060  141.9700 C   0  0  0  0  0  0  0  0  0  0  0  0
  192.5670  175.8940  146.6220 C   0  0  0  0  0  2  0  0  0  0  0  0
  192.8890  173.9690  142.1720 O   0  0  0  0  0  0  0  0  0  0  0  0
  191.3970  176.1150  147.5810 C   0  0  2  0  0  3  0  0  0  0  0  0
  190.5930  174.1660  141.5800 C   0  0  1  0  0  3  0  0  0  0  0  0
  188.3630  176.5480  143.6890 C   0  0  1  0  0  3  0  0  0  0  0  0
  191.7220  171.9140  142.0140 C   0  0  2  0  0  3  0  0  0  0  0  0
  189.5680  173.0940  141.3720 C   0  0  0  0  0  0  0  0  0  0  0  0
  189.9030  176.0340  145.5470 C   0  0  0  0  0  0  0  0  0  0  0  0
  190.1420  175.1530  142.6500 C   0  0  0  0  0  0  0  0  0  0  0  0
  192.3460  176.6870  145.3360 C   0  0  0  0  0  2  0  0  0  0  0  0
  188.2690  173.3270  141.5780 C   0  0  0  0  0  3  0  0  0  0  0  0
  191.5660  175.2910  148.7630 N   0  0  0  0  0  1  0  0  0  0  0  0
  190.1190  175.8000  146.9420 N   0  0  0  0  0  2  0  0  0  0  0  0
  191.0890  176.2220  144.6760 C   0  0  0  0  0  0  0  0  0  0  0  0
  184.4410  178.3050  143.2620 C   0  0  0  0  0  2  0  0  0  0  0  0
  186.8950  176.9740  143.5020 C   0  0  2  0  0  3  0  0  0  0  0  0
  186.8050  178.2040  142.6350 C   0  0  0  0  0  3  0  0  0  0  0  0
  185.6350  178.8390  142.5250 C   0  0  0  0  0  3  0  0  0  0  0  0
  184.8120  177.9250  144.7030 C   0  0  0  0  0  2  0  0  0  0  0  0
  186.2000  177.2650  144.8480 C   0  0  0  0  0  2  0  0  0  0  0  0
  1 15  2  0  0  0  0
  2 12  1  0  0  0  0
  3 21  2  0  0  0  0
  4 14  1  0  0  0  0
  4 13  1  0  0  0  0
  6  2  1  0  0  0  0
  7 13  1  0  0  0  0
  7  9  2  0  0  0  0
  8 10  1  0  0  0  0
 10 19  1  1  0  0  0
 11 14  1  1  0  0  0
 11  7  1  0  0  0  0
 11 16  1  0  0  0  0
 12  1  1  1  0  0  0
 13  5  1  1  0  0  0
 14 18  2  0  0  0  0
 15 20  1  0  0  0  0
 16  2  2  0  0  0  0
 16  3  1  0  0  0  0
 17  8  1  0  0  0  0
 18  6  1  0  0  0  0
 20 10  1  0  0  0  0
 21 17  1  0  0  0  0
 21 15  1  0  0  0  0
 22 26  1  0  0  0  0
 23 24  1  6  0  0  0
 23 12  1  0  0  0  0
 23 27  1  0  0  0  0
 25 24  2  0  0  0  0
 25 22  1  0  0  0  0
 26 27  1  0  0  0  0
M  END
>  <MODEL>
4

>  <REMARK>
 VINA RESULT:      -7.0      2.513      4.851
  Name = 
  1 active torsions:
  status: ('A' for Active; 'I' for Inactive)
    1  A    between atoms: C_9  and  C_15
                            x       y       z     vdW  Elec       q    Type
                         _______ _______ _______ _____ _____    ______ ____

>  <TORSDO>
F 1

$$$$
=
 OpenBabel11052418243D

 27 31  0  0  1  0  0  0  0  0999 V2000
  192.2840  173.0530  144.7800 C   0  0  0  0  0  3  0  0  0  0  0  0
  194.0370  174.7130  145.1890 C   0  0  0  0  0  0  0  0  0  0  0  0
  195.1630  172.5600  145.5520 N   0  0  0  0  0  0  0  0  0  0  0  0
  197.5440  175.7950  142.5220 S   0  0  0  0  0  0  0  0  0  0  0  0
  197.2560  173.1880  141.7340 C   0  0  0  0  0  1  0  0  0  0  0  0
  194.1160  176.1710  144.7800 C   0  0  0  0  0  2  0  0  0  0  0  0
  197.4470  173.6600  144.1490 C   0  0  0  0  0  0  0  0  0  0  0  0
  194.2940  169.3750  144.4460 C   0  0  0  0  0  2  0  0  0  0  0  0
  197.8640  172.6600  144.7140 O   0  0  0  0  0  0  0  0  0  0  0  0
  192.8180  169.4680  144.0580 C   0  0  2  0  0  3  0  0  0  0  0  0
  196.4940  174.6030  144.8170 C   0  0  1  0  0  3  0  0  0  0  0  0
  192.7380  174.1410  145.6990 C   0  0  1  0  0  3  0  0  0  0  0  0
  197.9410  174.0370  142.7880 C   0  0  2  0  0  3  0  0  0  0  0  0
  196.3100  175.6940  143.8070 C   0  0  0  0  0  0  0  0  0  0  0  0
  192.9630  171.9160  144.6560 C   0  0  0  0  0  0  0  0  0  0  0  0
  195.1610  173.9510  145.1660 C   0  0  0  0  0  0  0  0  0  0  0  0
  194.5650  170.2350  145.6780 C   0  0  0  0  0  2  0  0  0  0  0  0
  195.1740  176.3920  143.7390 C   0  0  0  0  0  3  0  0  0  0  0  0
  192.5810  168.7220  142.8360 N   0  0  0  0  0  1  0  0  0  0  0  0
  192.4030  170.8590  143.8730 N   0  0  0  0  0  2  0  0  0  0  0  0
  194.2370  171.6600  145.3710 C   0  0  0  0  0  0  0  0  0  0  0  0
  189.5970  176.8270  146.9540 C   0  0  0  0  0  2  0  0  0  0  0  0
  191.6310  175.1830  145.9490 C   0  0  2  0  0  3  0  0  0  0  0  0
  191.8050  175.8280  147.3010 C   0  0  0  0  0  3  0  0  0  0  0  0
  190.8320  176.6090  147.7790 C   0  0  0  0  0  3  0  0  0  0  0  0
  189.0980  175.5040  146.3540 C   0  0  0  0  0  2  0  0  0  0  0  0
  190.2220  174.5610  145.8750 C   0  0  0  0  0  2  0  0  0  0  0  0
  2 12  1  0  0  0  0
  4 13  1  0  0  0  0
  4 14  1  0  0  0  0
  6  2  1  0  0  0  0
  7  9  2  0  0  0  0
  7 11  1  0  0  0  0
  8 17  1  0  0  0  0
 10 19  1  6  0  0  0
 10  8  1  0  0  0  0
 11 14  1  6  0  0  0
 11 16  1  0  0  0  0
 12  1  1  6  0  0  0
 12 23  1  0  0  0  0
 13  5  1  6  0  0  0
 13  7  1  0  0  0  0
 15  1  2  0  0  0  0
 15 21  1  0  0  0  0
 16  2  2  0  0  0  0
 16  3  1  0  0  0  0
 18 14  2  0  0  0  0
 18  6  1  0  0  0  0
 20 10  1  0  0  0  0
 20 15  1  0  0  0  0
 21  3  2  0  0  0  0
 21 17  1  0  0  0  0
 22 25  1  0  0  0  0
 23 27  1  1  0  0  0
 23 24  1  0  0  0  0
 24 25  2  0  0  0  0
 26 22  1  0  0  0  0
 27 26  1  0  0  0  0
M  END
>  <MODEL>
5

>  <REMARK>
 VINA RESULT:      -6.7      3.851      5.621
  Name = 
  1 active torsions:
  status: ('A' for Active; 'I' for Inactive)
    1  A    between atoms: C_9  and  C_15
                            x       y       z     vdW  Elec       q    Type
                         _______ _______ _______ _____ _____    ______ ____

>  <TORSDO>
F 1

$$$$
=
 OpenBabel11052418243D

 27 31  0  0  1  0  0  0  0  0999 V2000
  190.4550  176.4580  144.2890 C   0  0  0  0  0  3  0  0  0  0  0  0
  189.7220  175.0000  142.4630 C   0  0  0  0  0  0  0  0  0  0  0  0
  192.1280  175.2870  142.0620 N   0  0  0  0  0  0  0  0  0  0  0  0
  190.4420  170.5470  141.9750 S   0  0  0  0  0  0  0  0  0  0  0  0
  192.6910  171.1410  143.4210 C   0  0  0  0  0  1  0  0  0  0  0  0
  188.4720  174.1510  142.3330 C   0  0  0  0  0  2  0  0  0  0  0  0
  192.2260  172.4690  141.3940 C   0  0  0  0  0  0  0  0  0  0  0  0
  194.6540  176.2510  144.2550 C   0  0  0  0  0  2  0  0  0  0  0  0
  193.2760  172.9380  140.9800 O   0  0  0  0  0  0  0  0  0  0  0  0
  193.9390  176.9140  145.4330 C   0  0  2  0  0  3  0  0  0  0  0  0
  190.9250  173.1970  141.2440 C   0  0  1  0  0  3  0  0  0  0  0  0
  189.6330  176.3900  143.0420 C   0  0  1  0  0  3  0  0  0  0  0  0
  192.1780  171.1000  141.9940 C   0  0  2  0  0  3  0  0  0  0  0  0
  189.9190  172.2460  141.8170 C   0  0  0  0  0  0  0  0  0  0  0  0
  191.7800  176.3420  144.2580 C   0  0  0  0  0  0  0  0  0  0  0  0
  190.9010  174.5290  141.9840 C   0  0  0  0  0  0  0  0  0  0  0  0
  193.9390  176.5940  142.9500 C   0  0  0  0  0  2  0  0  0  0  0  0
  188.7960  172.6870  142.3890 C   0  0  0  0  0  3  0  0  0  0  0  0
  194.5670  176.5150  146.6790 N   0  0  0  0  0  1  0  0  0  0  0  0
  192.5210  176.5590  145.4620 N   0  0  0  0  0  2  0  0  0  0  0  0
  192.5340  176.0890  143.0060 C   0  0  0  0  0  0  0  0  0  0  0  0
  185.8330  178.3720  143.5730 C   0  0  0  0  0  2  0  0  0  0  0  0
  188.1980  176.9010  143.2700 C   0  0  2  0  0  3  0  0  0  0  0  0
  187.8250  177.9200  142.2230 C   0  0  0  0  0  3  0  0  0  0  0  0
  186.6980  178.6230  142.3710 C   0  0  0  0  0  3  0  0  0  0  0  0
  186.6820  178.2760  144.8490 C   0  0  0  0  0  2  0  0  0  0  0  0
  188.0240  177.5370  144.6640 C   0  0  0  0  0  2  0  0  0  0  0  0
  2 12  1  0  0  0  0
  3 21  2  0  0  0  0
  4 13  1  0  0  0  0
  6 18  1  0  0  0  0
  6  2  1  0  0  0  0
  7 13  1  0  0  0  0
  8 10  1  0  0  0  0
  9  7  2  0  0  0  0
 10 20  1  0  0  0  0
 10 19  1  1  0  0  0
 11  7  1  1  0  0  0
 11 14  1  0  0  0  0
 11 16  1  0  0  0  0
 12 23  1  0  0  0  0
 12  1  1  1  0  0  0
 13  5  1  1  0  0  0
 14  4  1  0  0  0  0
 14 18  2  0  0  0  0
 15  1  2  0  0  0  0
 15 20  1  0  0  0  0
 16  3  1  0  0  0  0
 16  2  2  0  0  0  0
 17 21  1  0  0  0  0
 17  8  1  0  0  0  0
 21 15  1  0  0  0  0
 22 26  1  0  0  0  0
 23 24  1  6  0  0  0
 23 27  1  0  0  0  0
 24 25  2  0  0  0  0
 25 22  1  0  0  0  0
 27 26  1  0  0  0  0
M  END
>  <MODEL>
6

>  <REMARK>
 VINA RESULT:      -6.7      2.851      5.003
  Name = 
  1 active torsions:
  status: ('A' for Active; 'I' for Inactive)
    1  A    between atoms: C_9  and  C_15
                            x       y       z     vdW  Elec       q    Type
                         _______ _______ _______ _____ _____    ______ ____

>  <TORSDO>
F 1

$$$$
=
 OpenBabel11052418243D

 27 31  0  0  1  0  0  0  0  0999 V2000
  190.7010  173.6420  144.0830 C   0  0  0  0  0  3  0  0  0  0  0  0
  192.5020  174.8260  145.2460 C   0  0  0  0  0  0  0  0  0  0  0  0
  193.4190  172.5790  144.8650 N   0  0  0  0  0  0  0  0  0  0  0  0
  196.3820  176.4140  143.5130 S   0  0  0  0  0  0  0  0  0  0  0  0
  196.0120  174.3320  141.7730 C   0  0  0  0  0  1  0  0  0  0  0  0
  192.7330  176.3130  145.4290 C   0  0  0  0  0  2  0  0  0  0  0  0
  195.9320  173.8550  144.1930 C   0  0  0  0  0  0  0  0  0  0  0  0
  192.4720  170.1460  142.5610 C   0  0  0  0  0  2  0  0  0  0  0  0
  196.2030  172.6770  144.3720 O   0  0  0  0  0  0  0  0  0  0  0  0
  191.0670  170.5400  142.1070 C   0  0  2  0  0  3  0  0  0  0  0  0
  194.9710  174.5850  145.0810 C   0  0  1  0  0  3  0  0  0  0  0  0
  191.1120  174.2560  145.3820 C   0  0  1  0  0  3  0  0  0  0  0  0
  196.6180  174.6490  143.1270 C   0  0  2  0  0  3  0  0  0  0  0  0
  194.9930  175.9860  144.5480 C   0  0  0  0  0  0  0  0  0  0  0  0
  191.3080  172.5620  143.5980 C   0  0  0  0  0  0  0  0  0  0  0  0
  193.5630  174.0050  145.0360 C   0  0  0  0  0  0  0  0  0  0  0  0
  192.6470  170.4550  144.0460 C   0  0  0  0  0  2  0  0  0  0  0  0
  193.9260  176.7820  144.6480 C   0  0  0  0  0  3  0  0  0  0  0  0
  190.9330  170.3290  140.6770 N   0  0  0  0  0  1  0  0  0  0  0  0
  190.7780  171.9380  142.4260 N   0  0  0  0  0  2  0  0  0  0  0  0
  192.4620  171.9190  144.2740 C   0  0  0  0  0  0  0  0  0  0  0  0
  187.7880  176.5670  146.8880 C   0  0  0  0  0  2  0  0  0  0  0  0
  190.0580  175.2490  145.9080 C   0  0  2  0  0  3  0  0  0  0  0  0
  189.3140  174.6620  147.0800 C   0  0  0  0  0  3  0  0  0  0  0  0
  188.2290  175.2910  147.5440 C   0  0  0  0  0  3  0  0  0  0  0  0
  187.8300  176.4400  145.3570 C   0  0  0  0  0  2  0  0  0  0  0  0
  189.0390  175.6420  144.8210 C   0  0  0  0  0  2  0  0  0  0  0  0
  2 12  1  0  0  0  0
  2  6  1  0  0  0  0
  3 16  1  0  0  0  0
  4 14  1  0  0  0  0
  7  9  2  0  0  0  0
  8 17  1  0  0  0  0
 10 19  1  6  0  0  0
 10 20  1  0  0  0  0
 10  8  1  0  0  0  0
 11  7  1  6  0  0  0
 12  1  1  6  0  0  0
 12 23  1  0  0  0  0
 13  5  1  6  0  0  0
 13  4  1  0  0  0  0
 13  7  1  0  0  0  0
 14 18  2  0  0  0  0
 14 11  1  0  0  0  0
 15  1  2  0  0  0  0
 15 21  1  0  0  0  0
 16 11  1  0  0  0  0
 16  2  2  0  0  0  0
 17 21  1  0  0  0  0
 18  6  1  0  0  0  0
 20 15  1  0  0  0  0
 21  3  2  0  0  0  0
 22 25  1  0  0  0  0
 23 27  1  6  0  0  0
 23 24  1  0  0  0  0
 24 25  2  0  0  0  0
 26 22  1  0  0  0  0
 27 26  1  0  0  0  0
M  END
>  <MODEL>
7

>  <REMARK>
 VINA RESULT:      -6.6      2.619      3.782
  Name = 
  1 active torsions:
  status: ('A' for Active; 'I' for Inactive)
    1  A    between atoms: C_9  and  C_15
                            x       y       z     vdW  Elec       q    Type
                         _______ _______ _______ _____ _____    ______ ____

>  <TORSDO>
F 1

$$$$
=
 OpenBabel11052418243D

 27 31  0  0  1  0  0  0  0  0999 V2000
  188.2890  174.7750  141.1730 C   0  0  0  0  0  3  0  0  0  0  0  0
  189.9140  174.3500  142.9550 C   0  0  0  0  0  0  0  0  0  0  0  0
  189.6500  176.7920  142.9650 N   0  0  0  0  0  0  0  0  0  0  0  0
  189.2600  174.5270  147.4410 S   0  0  0  0  0  0  0  0  0  0  0  0
  187.3760  176.3740  146.7070 C   0  0  0  0  0  1  0  0  0  0  0  0
  190.2260  173.0700  143.7070 C   0  0  0  0  0  2  0  0  0  0  0  0
  189.6760  176.6580  145.8580 C   0  0  0  0  0  0  0  0  0  0  0  0
  187.0610  178.7590  141.7190 C   0  0  0  0  0  2  0  0  0  0  0  0
  189.8530  177.8360  145.5870 O   0  0  0  0  0  0  0  0  0  0  0  0
  186.3010  177.8610  140.7430 C   0  0  2  0  0  3  0  0  0  0  0  0
  190.3410  175.5620  145.0840 C   0  0  1  0  0  3  0  0  0  0  0  0
  189.6800  174.3120  141.4650 C   0  0  1  0  0  3  0  0  0  0  0  0
  188.8510  176.2570  147.0410 C   0  0  2  0  0  3  0  0  0  0  0  0
  189.9030  174.3140  145.7890 C   0  0  0  0  0  0  0  0  0  0  0  0
  187.9110  176.0300  141.3990 C   0  0  0  0  0  0  0  0  0  0  0  0
  189.9250  175.5340  143.6180 C   0  0  0  0  0  0  0  0  0  0  0  0
  188.5590  178.4720  141.6360 C   0  0  0  0  0  2  0  0  0  0  0  0
  189.7830  173.1550  145.1380 C   0  0  0  0  0  3  0  0  0  0  0  0
  184.8730  178.0730  140.8880 N   0  0  0  0  0  1  0  0  0  0  0  0
  186.6140  176.4490  140.9650 N   0  0  0  0  0  2  0  0  0  0  0  0
  188.8110  177.0450  141.9990 C   0  0  0  0  0  0  0  0  0  0  0  0
  190.8220  170.8310  139.1780 C   0  0  0  0  0  2  0  0  0  0  0  0
  189.9860  172.9560  140.8010 C   0  0  2  0  0  3  0  0  0  0  0  0
  191.4170  172.9070  140.3310 C   0  0  0  0  0  3  0  0  0  0  0  0
  191.8130  171.8940  139.5540 C   0  0  0  0  0  3  0  0  0  0  0  0
  189.4820  171.4540  138.7570 C   0  0  0  0  0  2  0  0  0  0  0  0
  189.0610  172.6770  139.5990 C   0  0  0  0  0  2  0  0  0  0  0  0
  1 15  2  0  0  0  0
  2 16  2  0  0  0  0
  2  6  1  0  0  0  0
  3 16  1  0  0  0  0
  6 18  1  0  0  0  0
  7 13  1  0  0  0  0
  9  7  2  0  0  0  0
 10 19  1  1  0  0  0
 10 20  1  0  0  0  0
 10  8  1  0  0  0  0
 11 16  1  6  0  0  0
 11 14  1  0  0  0  0
 11  7  1  0  0  0  0
 12  1  1  1  0  0  0
 12  2  1  0  0  0  0
 13  5  1  6  0  0  0
 13  4  1  0  0  0  0
 14  4  1  0  0  0  0
 15 21  1  0  0  0  0
 17  8  1  0  0  0  0
 17 21  1  0  0  0  0
 18 14  2  0  0  0  0
 20 15  1  0  0  0  0
 21  3  2  0  0  0  0
 22 25  1  0  0  0  0
 23 27  1  6  0  0  0
 23 12  1  0  0  0  0
 24 23  1  0  0  0  0
 25 24  2  0  0  0  0
 26 22  1  0  0  0  0
 26 27  1  0  0  0  0
M  END
>  <MODEL>
8

>  <REMARK>
 VINA RESULT:      -6.5      2.702      5.993
  Name = 
  1 active torsions:
  status: ('A' for Active; 'I' for Inactive)
    1  A    between atoms: C_9  and  C_15
                            x       y       z     vdW  Elec       q    Type
                         _______ _______ _______ _____ _____    ______ ____

>  <TORSDO>
F 1

$$$$
=
 OpenBabel11052418243D

 27 31  0  0  1  0  0  0  0  0999 V2000
  193.3550  173.2170  143.6330 C   0  0  0  0  0  3  0  0  0  0  0  0
  190.9560  173.2530  144.1240 C   0  0  0  0  0  0  0  0  0  0  0  0
  191.8840  175.0020  145.5780 N   0  0  0  0  0  0  0  0  0  0  0  0
  187.8810  176.3300  142.8330 S   0  0  0  0  0  0  0  0  0  0  0  0
  190.0680  177.9790  142.8960 C   0  0  0  0  0  1  0  0  0  0  0  0
  189.7880  172.7080  143.3240 C   0  0  0  0  0  2  0  0  0  0  0  0
  189.5780  176.6180  144.8960 C   0  0  0  0  0  0  0  0  0  0  0  0
  194.8870  176.7460  145.3300 C   0  0  0  0  0  2  0  0  0  0  0  0
  190.0760  177.1580  145.8720 O   0  0  0  0  0  0  0  0  0  0  0  0
  195.7640  175.9150  144.3920 C   0  0  2  0  0  3  0  0  0  0  0  0
  189.4650  175.1280  144.7930 C   0  0  1  0  0  3  0  0  0  0  0  0
  192.2270  172.4500  144.2450 C   0  0  1  0  0  3  0  0  0  0  0  0
  188.9750  177.4280  143.7930 C   0  0  2  0  0  3  0  0  0  0  0  0
  188.7480  174.9170  143.4940 C   0  0  0  0  0  0  0  0  0  0  0  0
  193.7910  174.3570  144.1620 C   0  0  0  0  0  0  0  0  0  0  0  0
  190.8190  174.4280  144.7890 C   0  0  0  0  0  0  0  0  0  0  0  0
  194.0500  175.8250  146.2150 C   0  0  0  0  0  2  0  0  0  0  0  0
  188.9420  173.8140  142.7660 C   0  0  0  0  0  3  0  0  0  0  0  0
  196.4900  176.7910  143.4920 N   0  0  0  0  0  1  0  0  0  0  0  0
  194.9640  174.9680  143.6160 N   0  0  0  0  0  2  0  0  0  0  0  0
  193.1690  174.9780  145.3570 C   0  0  0  0  0  0  0  0  0  0  0  0
  192.5720  168.4040  142.7750 C   0  0  0  0  0  2  0  0  0  0  0  0
  192.1380  171.0160  143.6900 C   0  0  2  0  0  3  0  0  0  0  0  0
  192.9630  170.0710  144.5250 C   0  0  0  0  0  3  0  0  0  0  0  0
  193.1720  168.8270  144.0850 C   0  0  0  0  0  3  0  0  0  0  0  0
  192.7740  169.4870  141.7050 C   0  0  0  0  0  2  0  0  0  0  0  0
  192.6160  170.9310  142.2260 C   0  0  0  0  0  2  0  0  0  0  0  0
  1 15  2  0  0  0  0
  2 12  1  0  0  0  0
  2 16  2  0  0  0  0
  4 14  1  0  0  0  0
  4 13  1  0  0  0  0
  6  2  1  0  0  0  0
  7  9  2  0  0  0  0
  8 17  1  0  0  0  0
 10 19  1  6  0  0  0
 10  8  1  0  0  0  0
 11 14  1  6  0  0  0
 11  7  1  0  0  0  0
 12  1  1  6  0  0  0
 13  5  1  6  0  0  0
 13  7  1  0  0  0  0
 15 21  1  0  0  0  0
 16 11  1  0  0  0  0
 16  3  1  0  0  0  0
 18  6  1  0  0  0  0
 18 14  2  0  0  0  0
 20 15  1  0  0  0  0
 20 10  1  0  0  0  0
 21  3  2  0  0  0  0
 21 17  1  0  0  0  0
 22 25  1  0  0  0  0
 23 27  1  6  0  0  0
 23 12  1  0  0  0  0
 23 24  1  0  0  0  0
 25 24  2  0  0  0  0
 26 27  1  0  0  0  0
 26 22  1  0  0  0  0
M  END
>  <MODEL>
9

>  <REMARK>
 VINA RESULT:      -6.2      3.502      7.272
  Name = 
  1 active torsions:
  status: ('A' for Active; 'I' for Inactive)
    1  A    between atoms: C_9  and  C_15
                            x       y       z     vdW  Elec       q    Type
                         _______ _______ _______ _____ _____    ______ ____

>  <TORSDO>
F 1

$$$$
