=
 OpenBabel11052417523D

 31 35  0  0  1  0  0  0  0  0999 V2000
  187.6370  177.2290  144.2260 C   0  0  0  0  0  0  0  0  0  0  0  0
  186.7960  177.6430  145.2870 C   0  0  2  0  0  3  0  0  0  0  0  0
  184.6920  178.5140  146.0880 C   0  0  0  0  0  0  0  0  0  0  0  0
  187.2720  177.2520  142.9270 C   0  0  0  0  0  0  0  0  0  0  0  0
  186.1310  177.5200  141.1040 C   0  0  0  0  0  0  0  0  0  0  0  0
  185.5880  178.0810  145.0550 N   0  0  0  0  0  0  0  0  0  0  0  0
  189.8790  176.3100  143.4580 C   0  0  0  0  0  0  0  0  0  0  0  0
  188.5660  177.1140  146.8560 C   0  0  0  0  0  3  0  0  0  0  0  0
  183.3330  178.9970  145.7280 C   0  0  0  0  0  1  0  0  0  0  0  0
  189.4700  176.3510  142.1820 C   0  0  0  0  0  3  0  0  0  0  0  0
  188.9460  176.7610  144.5350 C   0  0  0  0  0  0  0  0  0  0  0  0
  186.0290  177.6740  142.3900 N   0  0  0  0  0  0  0  0  0  0  0  0
  185.0650  178.4880  147.3670 C   0  0  0  0  0  3  0  0  0  0  0  0
  188.1540  176.8260  141.9130 N   0  0  0  0  0  0  0  0  0  0  0  0
  187.4660  176.9720  140.6480 C   0  0  0  0  0  2  0  0  0  0  0  0
  189.3600  176.7190  145.8300 N   0  0  0  0  0  0  0  0  0  0  0  0
  187.2770  177.5810  146.6110 C   0  0  0  0  0  0  0  0  0  0  0  0
  186.4270  178.0080  147.7780 C   0  0  0  0  0  3  0  0  0  0  0  0
  192.2800  177.8990  144.0500 O   0  0  0  0  0  0  0  0  0  0  0  0
  192.3510  176.6420  144.1010 C   0  0  0  0  0  0  0  0  0  0  0  0
  191.1910  175.8450  143.8150 N   0  0  0  0  0  2  0  0  0  0  0  0
  196.1060  174.7360  144.9770 C   0  0  0  0  0  0  0  0  0  0  0  0
  194.6830  176.0420  143.5290 C   0  0  0  0  0  3  0  0  0  0  0  0
  192.6090  175.0710  146.9110 Cl  0  0  0  0  0  0  0  0  0  0  0  0
  197.6460  173.9710  145.3030 Cl  0  0  0  0  0  0  0  0  0  0  0  0
  195.9120  175.4340  143.7860 C   0  0  0  0  0  3  0  0  0  0  0  0
  193.8340  175.2520  145.6620 C   0  0  0  0  0  0  0  0  0  0  0  0
  193.6260  175.9660  144.4530 C   0  0  0  0  0  0  0  0  0  0  0  0
  195.0710  174.6470  145.9080 C   0  0  0  0  0  3  0  0  0  0  0  0
  185.0530  177.8510  140.2270 N   0  0  0  0  0  0  0  0  0  0  0  0
  183.9250  178.3050  140.6670 C   0  0  0  0  0  2  0  0  0  0  0  0
  1 11  1  0  0  0  0
  2  1  1  6  0  0  0
  2 17  1  0  0  0  0
  3 13  1  0  0  0  0
  4  1  2  0  0  0  0
  5 12  2  0  0  0  0
  6  2  1  0  0  0  0
  6  3  2  0  0  0  0
  7 21  1  0  0  0  0
  7 11  1  0  0  0  0
  9  3  1  0  0  0  0
 10  7  2  0  0  0  0
 11 16  2  0  0  0  0
 12  4  1  0  0  0  0
 13 18  2  0  0  0  0
 14 10  1  0  0  0  0
 14  4  1  0  0  0  0
 15  5  1  0  0  0  0
 15 14  1  0  0  0  0
 16  8  1  0  0  0  0
 17  8  2  0  0  0  0
 17 18  1  0  0  0  0
 19 20  2  0  0  0  0
 20 28  1  0  0  0  0
 21 20  1  0  0  0  0
 22 25  1  0  0  0  0
 22 29  1  0  0  0  0
 23 26  1  0  0  0  0
 23 28  2  0  0  0  0
 26 22  2  0  0  0  0
 27 29  2  0  0  0  0
 27 24  1  0  0  0  0
 28 27  1  0  0  0  0
 30 31  2  0  0  0  0
 30  5  1  0  0  0  0
M  END
>  <MODEL>
1

>  <REMARK>
 VINA RESULT:      -8.4      0.000      0.000
  Name = 
  3 active torsions:
  status: ('A' for Active; 'I' for Inactive)
    1  A    between atoms: N_2  and  C_13
    2  A    between atoms: C_9  and  C_22
    3  A    between atoms: C_15  and  N_23
                            x       y       z     vdW  Elec       q    Type
                         _______ _______ _______ _____ _____    ______ ____

>  <TORSDO>
F 3

$$$$
=
 OpenBabel11052417523D

 31 35  0  0  1  0  0  0  0  0999 V2000
  187.5440  176.4950  144.1620 C   0  0  0  0  0  0  0  0  0  0  0  0
  186.7550  177.0090  145.2200 C   0  0  2  0  0  3  0  0  0  0  0  0
  184.8430  178.2520  146.0080 C   0  0  0  0  0  0  0  0  0  0  0  0
  187.2590  176.6800  142.8570 C   0  0  0  0  0  0  0  0  0  0  0  0
  186.2940  177.3030  141.0190 C   0  0  0  0  0  0  0  0  0  0  0  0
  185.6800  177.7070  144.9790 N   0  0  0  0  0  0  0  0  0  0  0  0
  189.5800  175.1730  143.4100 C   0  0  0  0  0  0  0  0  0  0  0  0
  188.2930  176.0130  146.8080 C   0  0  0  0  0  3  0  0  0  0  0  0
  183.6360  179.0350  145.6370 C   0  0  0  0  0  1  0  0  0  0  0  0
  189.2540  175.3830  142.1260 C   0  0  0  0  0  3  0  0  0  0  0  0
  188.7080  175.7400  144.4830 C   0  0  0  0  0  0  0  0  0  0  0  0
  186.1610  177.3910  142.3080 N   0  0  0  0  0  0  0  0  0  0  0  0
  185.1360  178.0640  147.2940 C   0  0  0  0  0  3  0  0  0  0  0  0
  188.0820  176.1430  141.8460 N   0  0  0  0  0  0  0  0  0  0  0  0
  187.5050  176.5150  140.5720 C   0  0  0  0  0  2  0  0  0  0  0  0
  189.0380  175.5270  145.7850 N   0  0  0  0  0  0  0  0  0  0  0  0
  187.1450  176.7580  146.5530 C   0  0  0  0  0  0  0  0  0  0  0  0
  186.3450  177.2790  147.7170 C   0  0  0  0  0  3  0  0  0  0  0  0
  189.7300  172.3830  144.3230 O   0  0  0  0  0  0  0  0  0  0  0  0
  190.7940  173.0510  144.2210 C   0  0  0  0  0  0  0  0  0  0  0  0
  190.7450  174.4160  143.7770 N   0  0  0  0  0  2  0  0  0  0  0  0
  194.5570  171.1640  145.1020 C   0  0  0  0  0  0  0  0  0  0  0  0
  192.3980  171.1770  144.0230 C   0  0  0  0  0  3  0  0  0  0  0  0
  192.8590  174.6510  146.1200 Cl  0  0  0  0  0  0  0  0  0  0  0  0
  196.0790  170.3680  145.4410 Cl  0  0  0  0  0  0  0  0  0  0  0  0
  193.6100  170.5410  144.2910 C   0  0  0  0  0  3  0  0  0  0  0  0
  193.0790  173.0700  145.3820 C   0  0  0  0  0  0  0  0  0  0  0  0
  192.1080  172.4440  144.5570 C   0  0  0  0  0  0  0  0  0  0  0  0
  194.2900  172.4210  145.6430 C   0  0  0  0  0  3  0  0  0  0  0  0
  185.3550  177.9120  140.1310 N   0  0  0  0  0  0  0  0  0  0  0  0
  184.1820  178.2890  140.5250 C   0  0  0  0  0  2  0  0  0  0  0  0
  1 11  1  0  0  0  0
  2  1  1  6  0  0  0
  2 17  1  0  0  0  0
  3 13  1  0  0  0  0
  4  1  2  0  0  0  0
  5 12  2  0  0  0  0
  6  2  1  0  0  0  0
  6  3  2  0  0  0  0
  7 21  1  0  0  0  0
  7 11  1  0  0  0  0
  9  3  1  0  0  0  0
 10  7  2  0  0  0  0
 11 16  2  0  0  0  0
 12  4  1  0  0  0  0
 13 18  2  0  0  0  0
 14 10  1  0  0  0  0
 14  4  1  0  0  0  0
 15  5  1  0  0  0  0
 15 14  1  0  0  0  0
 16  8  1  0  0  0  0
 17  8  2  0  0  0  0
 17 18  1  0  0  0  0
 20 19  2  0  0  0  0
 20 28  1  0  0  0  0
 21 20  1  0  0  0  0
 22 25  1  0  0  0  0
 22 29  1  0  0  0  0
 23 26  1  0  0  0  0
 23 28  2  0  0  0  0
 26 22  2  0  0  0  0
 27 29  2  0  0  0  0
 27 24  1  0  0  0  0
 28 27  1  0  0  0  0
 30 31  2  0  0  0  0
 30  5  1  0  0  0  0
M  END
>  <MODEL>
2

>  <REMARK>
 VINA RESULT:      -8.1      2.252      2.416
  Name = 
  3 active torsions:
  status: ('A' for Active; 'I' for Inactive)
    1  A    between atoms: N_2  and  C_13
    2  A    between atoms: C_9  and  C_22
    3  A    between atoms: C_15  and  N_23
                            x       y       z     vdW  Elec       q    Type
                         _______ _______ _______ _____ _____    ______ ____

>  <TORSDO>
F 3

$$$$
=
 OpenBabel11052417523D

 31 35  0  0  1  0  0  0  0  0999 V2000
  187.7230  177.2550  144.3040 C   0  0  0  0  0  0  0  0  0  0  0  0
  186.8650  177.6770  145.3480 C   0  0  2  0  0  3  0  0  0  0  0  0
  184.7460  178.5450  146.1100 C   0  0  0  0  0  0  0  0  0  0  0  0
  187.3750  177.2590  143.0000 C   0  0  0  0  0  0  0  0  0  0  0  0
  186.2580  177.4970  141.1590 C   0  0  0  0  0  0  0  0  0  0  0  0
  185.6590  178.1050  145.0940 N   0  0  0  0  0  0  0  0  0  0  0  0
  189.9810  176.3400  143.5780 C   0  0  0  0  0  0  0  0  0  0  0  0
  188.6170  177.1780  146.9470 C   0  0  0  0  0  3  0  0  0  0  0  0
  183.3900  179.0150  145.7260 C   0  0  0  0  0  1  0  0  0  0  0  0
  189.5890  176.3620  142.2950 C   0  0  0  0  0  3  0  0  0  0  0  0
  189.0300  176.7980  144.6360 C   0  0  0  0  0  0  0  0  0  0  0  0
  186.1380  177.6670  142.4410 N   0  0  0  0  0  0  0  0  0  0  0  0
  185.1020  178.5380  147.3940 C   0  0  0  0  0  3  0  0  0  0  0  0
  188.2730  176.8250  142.0030 N   0  0  0  0  0  0  0  0  0  0  0  0
  187.6010  176.9510  140.7270 C   0  0  0  0  0  2  0  0  0  0  0  0
  189.4280  176.7760  145.9360 N   0  0  0  0  0  0  0  0  0  0  0  0
  187.3290  177.6340  146.6790 C   0  0  0  0  0  0  0  0  0  0  0  0
  186.4620  178.0710  147.8290 C   0  0  0  0  0  3  0  0  0  0  0  0
  190.7560  173.7330  144.6930 O   0  0  0  0  0  0  0  0  0  0  0  0
  191.6450  174.6050  144.5010 C   0  0  0  0  0  0  0  0  0  0  0  0
  191.2900  175.8860  143.9570 N   0  0  0  0  0  2  0  0  0  0  0  0
  195.7600  173.9300  145.5570 C   0  0  0  0  0  0  0  0  0  0  0  0
  193.7130  175.1980  145.7250 C   0  0  0  0  0  3  0  0  0  0  0  0
  193.1310  172.0630  143.1730 Cl  0  0  0  0  0  0  0  0  0  0  0  0
  197.4330  173.6850  146.0070 Cl  0  0  0  0  0  0  0  0  0  0  0  0
  195.0460  175.0050  146.0860 C   0  0  0  0  0  3  0  0  0  0  0  0
  193.8030  173.2360  144.2990 C   0  0  0  0  0  0  0  0  0  0  0  0
  193.0670  174.3270  144.8320 C   0  0  0  0  0  0  0  0  0  0  0  0
  195.1390  173.0530  144.6690 C   0  0  0  0  0  3  0  0  0  0  0  0
  185.1890  177.8100  140.2630 N   0  0  0  0  0  0  0  0  0  0  0  0
  184.0600  178.2810  140.6800 C   0  0  0  0  0  2  0  0  0  0  0  0
  1 11  1  0  0  0  0
  2  1  1  6  0  0  0
  2 17  1  0  0  0  0
  3 13  1  0  0  0  0
  4  1  2  0  0  0  0
  5 12  2  0  0  0  0
  6  2  1  0  0  0  0
  6  3  2  0  0  0  0
  7 21  1  0  0  0  0
  7 11  1  0  0  0  0
  9  3  1  0  0  0  0
 10  7  2  0  0  0  0
 11 16  2  0  0  0  0
 12  4  1  0  0  0  0
 13 18  2  0  0  0  0
 14 10  1  0  0  0  0
 14  4  1  0  0  0  0
 15  5  1  0  0  0  0
 15 14  1  0  0  0  0
 16  8  1  0  0  0  0
 17  8  2  0  0  0  0
 17 18  1  0  0  0  0
 20 19  2  0  0  0  0
 20 28  1  0  0  0  0
 21 20  1  0  0  0  0
 22 25  1  0  0  0  0
 22 26  1  0  0  0  0
 23 26  2  0  0  0  0
 24 27  1  0  0  0  0
 27 29  1  0  0  0  0
 27 28  2  0  0  0  0
 28 23  1  0  0  0  0
 29 22  2  0  0  0  0
 30 31  2  0  0  0  0
 30  5  1  0  0  0  0
M  END
>  <MODEL>
3

>  <REMARK>
 VINA RESULT:      -8.0      1.443      1.567
  Name = 
  3 active torsions:
  status: ('A' for Active; 'I' for Inactive)
    1  A    between atoms: N_2  and  C_13
    2  A    between atoms: C_9  and  C_22
    3  A    between atoms: C_15  and  N_23
                            x       y       z     vdW  Elec       q    Type
                         _______ _______ _______ _____ _____    ______ ____

>  <TORSDO>
F 3

$$$$
=
 OpenBabel11052417523D

 31 35  0  0  0  0  0  0  0  0999 V2000
  188.3910  176.6300  144.7960 C   0  0  0  0  0  0  0  0  0  0  0  0
  187.2110  177.3200  145.1640 C   0  0  0  0  0  0  0  0  0  0  0  0
  185.9500  178.6420  146.7410 C   0  0  0  0  0  0  0  0  0  0  0  0
  189.4850  176.5450  145.5810 C   0  0  0  0  0  0  0  0  0  0  0  0
  190.8640  176.7700  147.2380 C   0  0  0  0  0  0  0  0  0  0  0  0
  187.1180  177.9280  146.3150 N   0  0  0  0  0  0  0  0  0  0  0  0
  189.6560  175.2400  143.0850 C   0  0  0  0  0  0  0  0  0  0  0  0
  186.2220  176.6970  143.0400 C   0  0  0  0  0  3  0  0  0  0  0  0
  185.9370  179.3040  148.0710 C   0  0  0  0  0  1  0  0  0  0  0  0
  190.7190  175.1840  143.9000 C   0  0  0  0  0  3  0  0  0  0  0  0
  188.4370  175.9840  143.5280 C   0  0  0  0  0  0  0  0  0  0  0  0
  189.6640  177.1060  146.8710 N   0  0  0  0  0  0  0  0  0  0  0  0
  184.8750  178.7170  145.9570 C   0  0  0  0  0  3  0  0  0  0  0  0
  190.6330  175.8440  145.1610 N   0  0  0  0  0  0  0  0  0  0  0  0
  191.6160  175.9430  146.2190 C   0  0  0  0  0  2  0  0  0  0  0  0
  187.3600  176.0400  142.7010 N   0  0  0  0  0  0  0  0  0  0  0  0
  186.1210  177.3470  144.2680 C   0  0  0  0  0  0  0  0  0  0  0  0
  184.8420  178.0640  144.6050 C   0  0  0  0  0  2  0  0  0  0  0  0
  188.5150  172.6370  142.3340 O   0  0  0  0  0  0  0  0  0  0  0  0
  189.0940  173.3270  141.4530 C   0  0  0  0  0  0  0  0  0  0  0  0
  189.6600  174.6030  141.7970 N   0  0  0  0  0  2  0  0  0  0  0  0
  189.3160  172.0380  137.3560 C   0  0  0  0  0  0  0  0  0  0  0  0
  188.5330  173.5640  139.0550 C   0  0  0  0  0  3  0  0  0  0  0  0
  190.8320  170.6810  140.8120 Cl  0  0  0  0  0  0  0  0  0  0  0  0
  189.3850  171.5410  135.6790 Cl  0  0  0  0  0  0  0  0  0  0  0  0
  188.5870  173.1700  137.7180 C   0  0  0  0  0  3  0  0  0  0  0  0
  189.9430  171.6870  139.6750 C   0  0  0  0  0  0  0  0  0  0  0  0
  189.2030  172.8390  140.0550 C   0  0  0  0  0  0  0  0  0  0  0  0
  189.9880  171.3030  138.3310 C   0  0  0  0  0  3  0  0  0  0  0  0
  191.3940  177.1670  148.5040 N   0  0  0  0  0  0  0  0  0  0  0  0
  190.9800  178.2250  149.1200 C   0  0  0  0  0  2  0  0  0  0  0  0
  1  2  1  0  0  0  0
  1  4  2  0  0  0  0
  2  6  2  0  0  0  0
  3  9  1  0  0  0  0
  4 12  1  0  0  0  0
  5 30  1  0  0  0  0
  6  3  1  0  0  0  0
  7 11  1  0  0  0  0
  7 10  2  0  0  0  0
  8 17  2  0  0  0  0
 10 14  1  0  0  0  0
 11  1  1  0  0  0  0
 12  5  2  0  0  0  0
 13  3  2  0  0  0  0
 14  4  1  0  0  0  0
 14 15  1  0  0  0  0
 15  5  1  0  0  0  0
 16  8  1  0  0  0  0
 16 11  2  0  0  0  0
 17 18  1  0  0  0  0
 17  2  1  0  0  0  0
 18 13  1  0  0  0  0
 20 21  1  0  0  0  0
 20 19  2  0  0  0  0
 21  7  1  0  0  0  0
 22 26  2  0  0  0  0
 22 29  1  0  0  0  0
 23 28  2  0  0  0  0
 25 22  1  0  0  0  0
 26 23  1  0  0  0  0
 27 28  1  0  0  0  0
 27 24  1  0  0  0  0
 28 20  1  0  0  0  0
 29 27  2  0  0  0  0
 30 31  2  0  0  0  0
M  END
>  <MODEL>
4

>  <REMARK>
 VINA RESULT:      -7.6      3.994      6.412
  Name = 
  3 active torsions:
  status: ('A' for Active; 'I' for Inactive)
    1  A    between atoms: N_2  and  C_13
    2  A    between atoms: C_9  and  C_22
    3  A    between atoms: C_15  and  N_23
                            x       y       z     vdW  Elec       q    Type
                         _______ _______ _______ _____ _____    ______ ____

>  <TORSDO>
F 3

$$$$
=
 OpenBabel11052417523D

 31 35  0  0  0  0  0  0  0  0999 V2000
  187.7320  176.2980  143.8820 C   0  0  0  0  0  0  0  0  0  0  0  0
  187.2210  176.5780  142.5910 C   0  0  0  0  0  0  0  0  0  0  0  0
  185.5400  177.5470  141.1570 C   0  0  0  0  0  0  0  0  0  0  0  0
  187.1250  176.6780  145.0260 C   0  0  0  0  0  0  0  0  0  0  0  0
  185.7200  177.5360  146.4350 C   0  0  0  0  0  0  0  0  0  0  0  0
  186.1050  177.2350  142.4380 N   0  0  0  0  0  0  0  0  0  0  0  0
  189.5420  175.2520  145.3270 C   0  0  0  0  0  0  0  0  0  0  0  0
  189.1260  175.4320  141.6240 C   0  0  0  0  0  3  0  0  0  0  0  0
  184.2630  178.3020  141.0800 C   0  0  0  0  0  1  0  0  0  0  0  0
  188.9020  175.6510  146.4360 C   0  0  0  0  0  3  0  0  0  0  0  0
  188.9540  175.5770  143.9920 C   0  0  0  0  0  0  0  0  0  0  0  0
  185.9120  177.3990  145.1580 N   0  0  0  0  0  0  0  0  0  0  0  0
  186.1480  177.1660  140.0340 C   0  0  0  0  0  3  0  0  0  0  0  0
  187.6810  176.3710  146.2850 N   0  0  0  0  0  0  0  0  0  0  0  0
  186.7980  176.9130  147.2950 C   0  0  0  0  0  2  0  0  0  0  0  0
  189.6040  175.1720  142.8680 N   0  0  0  0  0  0  0  0  0  0  0  0
  187.9350  176.1340  141.4580 C   0  0  0  0  0  0  0  0  0  0  0  0
  187.4410  176.4010  140.0620 C   0  0  0  0  0  2  0  0  0  0  0  0
  192.2620  176.2140  144.7630 O   0  0  0  0  0  0  0  0  0  0  0  0
  192.0980  175.0150  145.1120 C   0  0  0  0  0  0  0  0  0  0  0  0
  190.7780  174.5220  145.3920 N   0  0  0  0  0  2  0  0  0  0  0  0
  195.3600  172.2280  145.4230 C   0  0  0  0  0  0  0  0  0  0  0  0
  193.0610  172.7450  144.8980 C   0  0  0  0  0  3  0  0  0  0  0  0
  194.9410  176.1520  146.1380 Cl  0  0  0  0  0  0  0  0  0  0  0  0
  196.6650  171.0680  145.5390 Cl  0  0  0  0  0  0  0  0  0  0  0  0
  194.1000  171.8190  144.9890 C   0  0  0  0  0  3  0  0  0  0  0  0
  194.5440  174.5010  145.6790 C   0  0  0  0  0  0  0  0  0  0  0  0
  193.2570  174.0950  145.2370 C   0  0  0  0  0  0  0  0  0  0  0  0
  195.5770  173.5620  145.7660 C   0  0  0  0  0  3  0  0  0  0  0  0
  184.5760  178.2220  146.9480 N   0  0  0  0  0  0  0  0  0  0  0  0
  183.6870  178.7490  146.1710 C   0  0  0  0  0  2  0  0  0  0  0  0
  1 11  1  0  0  0  0
  1  4  2  0  0  0  0
  2  1  1  0  0  0  0
  3  6  1  0  0  0  0
  4 12  1  0  0  0  0
  4 14  1  0  0  0  0
  5 30  1  0  0  0  0
  5 15  1  0  0  0  0
  6  2  2  0  0  0  0
  7 21  1  0  0  0  0
  7 10  2  0  0  0  0
  8 16  1  0  0  0  0
  9  3  1  0  0  0  0
 11  7  1  0  0  0  0
 12  5  2  0  0  0  0
 13 18  1  0  0  0  0
 13  3  2  0  0  0  0
 14 10  1  0  0  0  0
 14 15  1  0  0  0  0
 16 11  2  0  0  0  0
 17  8  2  0  0  0  0
 17  2  1  0  0  0  0
 18 17  1  0  0  0  0
 19 20  2  0  0  0  0
 20 28  1  0  0  0  0
 20 21  1  0  0  0  0
 22 25  1  0  0  0  0
 22 29  1  0  0  0  0
 23 26  1  0  0  0  0
 23 28  2  0  0  0  0
 26 22  2  0  0  0  0
 27 29  2  0  0  0  0
 27 24  1  0  0  0  0
 28 27  1  0  0  0  0
 31 30  2  0  0  0  0
M  END
>  <MODEL>
5

>  <REMARK>
 VINA RESULT:      -7.3      1.670      4.169
  Name = 
  3 active torsions:
  status: ('A' for Active; 'I' for Inactive)
    1  A    between atoms: N_2  and  C_13
    2  A    between atoms: C_9  and  C_22
    3  A    between atoms: C_15  and  N_23
                            x       y       z     vdW  Elec       q    Type
                         _______ _______ _______ _____ _____    ______ ____

>  <TORSDO>
F 3

$$$$
=
 OpenBabel11052417523D

 31 35  0  0  1  0  0  0  0  0999 V2000
  189.9900  175.3720  143.6090 C   0  0  0  0  0  0  0  0  0  0  0  0
  190.7530  175.6310  144.7730 C   0  0  2  0  0  3  0  0  0  0  0  0
  192.7810  175.3870  146.0590 C   0  0  0  0  0  0  0  0  0  0  0  0
  190.4360  174.6360  142.5690 C   0  0  0  0  0  0  0  0  0  0  0  0
  191.6830  173.4170  141.2830 C   0  0  0  0  0  0  0  0  0  0  0  0
  191.9620  175.1580  144.9040 N   0  0  0  0  0  0  0  0  0  0  0  0
  187.8230  175.6730  142.3150 C   0  0  0  0  0  0  0  0  0  0  0  0
  188.9010  176.9170  145.6630 C   0  0  0  0  0  3  0  0  0  0  0  0
  194.1480  174.8070  146.1180 C   0  0  0  0  0  1  0  0  0  0  0  0
  188.3110  174.9360  141.3070 C   0  0  0  0  0  3  0  0  0  0  0  0
  188.6760  175.9130  143.5190 C   0  0  0  0  0  0  0  0  0  0  0  0
  191.7000  174.0060  142.4400 N   0  0  0  0  0  0  0  0  0  0  0  0
  192.3290  176.1140  147.0800 C   0  0  0  0  0  3  0  0  0  0  0  0
  189.6300  174.4120  141.4350 N   0  0  0  0  0  0  0  0  0  0  0  0
  190.3930  173.5970  140.5130 C   0  0  0  0  0  2  0  0  0  0  0  0
  188.1820  176.6610  144.5420 N   0  0  0  0  0  0  0  0  0  0  0  0
  190.1910  176.4130  145.8040 C   0  0  0  0  0  0  0  0  0  0  0  0
  190.9550  176.7200  147.0640 C   0  0  0  0  0  3  0  0  0  0  0  0
  186.9880  178.2650  141.2070 O   0  0  0  0  0  0  0  0  0  0  0  0
  186.1190  177.5090  141.7180 C   0  0  0  0  0  0  0  0  0  0  0  0
  186.5030  176.2380  142.2660 N   0  0  0  0  0  2  0  0  0  0  0  0
  181.9750  178.6630  141.6860 C   0  0  0  0  0  0  0  0  0  0  0  0
  183.9740  177.9220  140.5540 C   0  0  0  0  0  3  0  0  0  0  0  0
  184.7780  178.3390  144.5360 Cl  0  0  0  0  0  0  0  0  0  0  0  0
  180.2880  179.1280  141.6380 Cl  0  0  0  0  0  0  0  0  0  0  0  0
  182.6300  178.2910  140.5130 C   0  0  0  0  0  3  0  0  0  0  0  0
  184.0150  178.2970  142.9520 C   0  0  0  0  0  0  0  0  0  0  0  0
  184.6910  177.9160  141.7620 C   0  0  0  0  0  0  0  0  0  0  0  0
  182.6670  178.6660  142.8970 C   0  0  0  0  0  3  0  0  0  0  0  0
  192.8060  172.6710  140.8100 N   0  0  0  0  0  0  0  0  0  0  0  0
  193.2510  171.6310  141.4360 C   0  0  0  0  0  2  0  0  0  0  0  0
  2  1  1  1  0  0  0
  2  6  1  0  0  0  0
  2 17  1  0  0  0  0
  3  9  1  0  0  0  0
  3 13  1  0  0  0  0
  4  1  2  0  0  0  0
  5 12  2  0  0  0  0
  6  3  2  0  0  0  0
  7 11  1  0  0  0  0
  8 17  2  0  0  0  0
 10 14  1  0  0  0  0
 10  7  2  0  0  0  0
 11  1  1  0  0  0  0
 11 16  2  0  0  0  0
 12  4  1  0  0  0  0
 14  4  1  0  0  0  0
 15  5  1  0  0  0  0
 15 14  1  0  0  0  0
 16  8  1  0  0  0  0
 17 18  1  0  0  0  0
 18 13  2  0  0  0  0
 19 20  2  0  0  0  0
 20 28  1  0  0  0  0
 20 21  1  0  0  0  0
 21  7  1  0  0  0  0
 22 29  1  0  0  0  0
 23 28  2  0  0  0  0
 25 22  1  0  0  0  0
 26 23  1  0  0  0  0
 26 22  2  0  0  0  0
 27 24  1  0  0  0  0
 28 27  1  0  0  0  0
 29 27  2  0  0  0  0
 30  5  1  0  0  0  0
 30 31  2  0  0  0  0
M  END
>  <MODEL>
6

>  <REMARK>
 VINA RESULT:      -7.2      3.850      8.445
  Name = 
  3 active torsions:
  status: ('A' for Active; 'I' for Inactive)
    1  A    between atoms: N_2  and  C_13
    2  A    between atoms: C_9  and  C_22
    3  A    between atoms: C_15  and  N_23
                            x       y       z     vdW  Elec       q    Type
                         _______ _______ _______ _____ _____    ______ ____

>  <TORSDO>
F 3

$$$$
=
 OpenBabel11052417523D

 31 35  0  0  0  0  0  0  0  0999 V2000
  187.6030  177.7520  143.7350 C   0  0  0  0  0  0  0  0  0  0  0  0
  186.7020  177.8310  142.6450 C   0  0  0  0  0  0  0  0  0  0  0  0
  184.4660  178.0980  141.7770 C   0  0  0  0  0  0  0  0  0  0  0  0
  187.2260  177.8530  145.0270 C   0  0  0  0  0  0  0  0  0  0  0  0
  186.0330  178.0860  146.8210 C   0  0  0  0  0  0  0  0  0  0  0  0
  185.4250  178.0110  142.8410 N   0  0  0  0  0  0  0  0  0  0  0  0
  189.9850  177.4630  144.5740 C   0  0  0  0  0  0  0  0  0  0  0  0
  188.5640  177.5190  141.1250 C   0  0  0  0  0  3  0  0  0  0  0  0
  183.0300  178.3040  142.0960 C   0  0  0  0  0  1  0  0  0  0  0  0
  189.5620  177.5700  145.8420 C   0  0  0  0  0  3  0  0  0  0  0  0
  188.9870  177.5550  143.4650 C   0  0  0  0  0  0  0  0  0  0  0  0
  185.9140  178.0510  145.5280 N   0  0  0  0  0  0  0  0  0  0  0  0
  184.8500  177.9950  140.5050 C   0  0  0  0  0  3  0  0  0  0  0  0
  188.1690  177.7680  146.0720 N   0  0  0  0  0  0  0  0  0  0  0  0
  187.4510  177.9150  147.3200 C   0  0  0  0  0  2  0  0  0  0  0  0
  189.4150  177.4460  142.1790 N   0  0  0  0  0  0  0  0  0  0  0  0
  187.2010  177.7110  141.3310 C   0  0  0  0  0  0  0  0  0  0  0  0
  186.2910  177.7870  140.1350 C   0  0  0  0  0  2  0  0  0  0  0  0
  191.4590  174.9300  144.3510 O   0  0  0  0  0  0  0  0  0  0  0  0
  192.0710  176.0130  144.1530 C   0  0  0  0  0  0  0  0  0  0  0  0
  191.3720  177.2640  144.2560 N   0  0  0  0  0  2  0  0  0  0  0  0
  196.2170  176.0200  143.0060 C   0  0  0  0  0  0  0  0  0  0  0  0
  193.8670  175.9750  142.4510 C   0  0  0  0  0  3  0  0  0  0  0  0
  194.2740  176.1180  146.5120 Cl  0  0  0  0  0  0  0  0  0  0  0  0
  197.8940  176.0210  142.5050 Cl  0  0  0  0  0  0  0  0  0  0  0  0
  195.2030  175.9760  142.0490 C   0  0  0  0  0  3  0  0  0  0  0  0
  194.5570  176.0610  144.7770 C   0  0  0  0  0  0  0  0  0  0  0  0
  193.5170  176.0180  143.8110 C   0  0  0  0  0  0  0  0  0  0  0  0
  195.8920  176.0620  144.3610 C   0  0  0  0  0  3  0  0  0  0  0  0
  184.8980  178.2720  147.6680 N   0  0  0  0  0  0  0  0  0  0  0  0
  183.6910  178.2910  147.2040 C   0  0  0  0  0  2  0  0  0  0  0  0
  1  4  2  0  0  0  0
  2  6  2  0  0  0  0
  2  1  1  0  0  0  0
  3  9  1  0  0  0  0
  3  6  1  0  0  0  0
  4 12  1  0  0  0  0
  4 14  1  0  0  0  0
  5 15  1  0  0  0  0
  5 30  1  0  0  0  0
  7 10  2  0  0  0  0
  8 17  2  0  0  0  0
  8 16  1  0  0  0  0
 10 14  1  0  0  0  0
 11  1  1  0  0  0  0
 11  7  1  0  0  0  0
 12  5  2  0  0  0  0
 13  3  2  0  0  0  0
 14 15  1  0  0  0  0
 16 11  2  0  0  0  0
 17  2  1  0  0  0  0
 18 13  1  0  0  0  0
 18 17  1  0  0  0  0
 20 21  1  0  0  0  0
 20 19  2  0  0  0  0
 21  7  1  0  0  0  0
 22 29  1  0  0  0  0
 23 28  2  0  0  0  0
 25 22  1  0  0  0  0
 26 23  1  0  0  0  0
 26 22  2  0  0  0  0
 27 24  1  0  0  0  0
 28 20  1  0  0  0  0
 28 27  1  0  0  0  0
 29 27  2  0  0  0  0
 31 30  2  0  0  0  0
M  END
>  <MODEL>
7

>  <REMARK>
 VINA RESULT:      -7.2      1.540      4.023
  Name = 
  3 active torsions:
  status: ('A' for Active; 'I' for Inactive)
    1  A    between atoms: N_2  and  C_13
    2  A    between atoms: C_9  and  C_22
    3  A    between atoms: C_15  and  N_23
                            x       y       z     vdW  Elec       q    Type
                         _______ _______ _______ _____ _____    ______ ____

>  <TORSDO>
F 3

$$$$
=
 OpenBabel11052417523D

 31 35  0  0  0  0  0  0  0  0999 V2000
  189.7260  175.6350  144.9280 C   0  0  0  0  0  0  0  0  0  0  0  0
  190.6410  174.6720  144.4370 C   0  0  0  0  0  0  0  0  0  0  0  0
  192.7090  173.4430  144.6300 C   0  0  0  0  0  0  0  0  0  0  0  0
  189.9150  176.3370  146.0650 C   0  0  0  0  0  0  0  0  0  0  0  0
  190.7670  177.1060  147.9030 C   0  0  0  0  0  0  0  0  0  0  0  0
  191.7460  174.4070  145.0790 N   0  0  0  0  0  0  0  0  0  0  0  0
  187.5340  176.8920  144.6550 C   0  0  0  0  0  0  0  0  0  0  0  0
  189.1690  174.2800  142.5520 C   0  0  0  0  0  3  0  0  0  0  0  0
  193.9400  173.2060  145.4290 C   0  0  0  0  0  1  0  0  0  0  0  0
  187.7660  177.5640  145.7920 C   0  0  0  0  0  3  0  0  0  0  0  0
  188.5370  175.8870  144.1870 C   0  0  0  0  0  0  0  0  0  0  0  0
  191.0160  176.2530  146.9550 N   0  0  0  0  0  0  0  0  0  0  0  0
  192.5120  172.7570  143.5050 C   0  0  0  0  0  3  0  0  0  0  0  0
  188.9680  177.2840  146.5050 N   0  0  0  0  0  0  0  0  0  0  0  0
  189.4620  177.8520  147.7410 C   0  0  0  0  0  2  0  0  0  0  0  0
  188.3010  175.2050  143.0340 N   0  0  0  0  0  0  0  0  0  0  0  0
  190.3480  173.9950  143.2350 C   0  0  0  0  0  0  0  0  0  0  0  0
  191.2830  172.9620  142.6660 C   0  0  0  0  0  2  0  0  0  0  0  0
  187.1640  178.6980  142.3660 O   0  0  0  0  0  0  0  0  0  0  0  0
  186.1900  178.0040  142.7600 C   0  0  0  0  0  0  0  0  0  0  0  0
  186.3460  177.1140  143.8770 N   0  0  0  0  0  2  0  0  0  0  0  0
  182.3010  178.2910  140.9450 C   0  0  0  0  0  0  0  0  0  0  0  0
  183.7460  178.3780  142.8770 C   0  0  0  0  0  3  0  0  0  0  0  0
  185.9930  177.5410  139.5700 Cl  0  0  0  0  0  0  0  0  0  0  0  0
  180.7050  178.4150  140.2380 Cl  0  0  0  0  0  0  0  0  0  0  0  0
  182.4730  178.4770  142.3160 C   0  0  0  0  0  3  0  0  0  0  0  0
  184.6840  177.9040  140.6880 C   0  0  0  0  0  0  0  0  0  0  0  0
  184.8700  178.0920  142.0830 C   0  0  0  0  0  0  0  0  0  0  0  0
  183.4020  178.0060  140.1380 C   0  0  0  0  0  3  0  0  0  0  0  0
  191.6740  177.2950  148.9910 N   0  0  0  0  0  0  0  0  0  0  0  0
  191.5660  178.2900  149.8090 C   0  0  0  0  0  2  0  0  0  0  0  0
  1  4  2  0  0  0  0
  2  1  1  0  0  0  0
  2  6  2  0  0  0  0
  3  6  1  0  0  0  0
  3  9  1  0  0  0  0
  4 14  1  0  0  0  0
  4 12  1  0  0  0  0
  5 30  1  0  0  0  0
  7 10  2  0  0  0  0
  8 16  1  0  0  0  0
  8 17  2  0  0  0  0
 10 14  1  0  0  0  0
 11  7  1  0  0  0  0
 11  1  1  0  0  0  0
 12  5  2  0  0  0  0
 13  3  2  0  0  0  0
 14 15  1  0  0  0  0
 15  5  1  0  0  0  0
 16 11  2  0  0  0  0
 17  2  1  0  0  0  0
 18 17  1  0  0  0  0
 18 13  1  0  0  0  0
 19 20  2  0  0  0  0
 20 21  1  0  0  0  0
 21  7  1  0  0  0  0
 22 26  1  0  0  0  0
 24 27  1  0  0  0  0
 25 22  1  0  0  0  0
 26 23  2  0  0  0  0
 27 28  2  0  0  0  0
 28 20  1  0  0  0  0
 28 23  1  0  0  0  0
 29 27  1  0  0  0  0
 29 22  2  0  0  0  0
 30 31  2  0  0  0  0
M  END
>  <MODEL>
8

>  <REMARK>
 VINA RESULT:      -7.1      3.873      9.022
  Name = 
  3 active torsions:
  status: ('A' for Active; 'I' for Inactive)
    1  A    between atoms: N_2  and  C_13
    2  A    between atoms: C_9  and  C_22
    3  A    between atoms: C_15  and  N_23
                            x       y       z     vdW  Elec       q    Type
                         _______ _______ _______ _____ _____    ______ ____

>  <TORSDO>
F 3

$$$$
=
 OpenBabel11052417523D

 31 35  0  0  1  0  0  0  0  0999 V2000
  193.1410  174.3770  143.2740 C   0  0  0  0  0  0  0  0  0  0  0  0
  194.3550  174.2850  143.9970 C   0  0  2  0  0  3  0  0  0  0  0  0
  196.6760  173.6390  144.1420 C   0  0  0  0  0  0  0  0  0  0  0  0
  192.9900  173.9420  142.0050 C   0  0  0  0  0  0  0  0  0  0  0  0
  193.3790  173.0860  140.0530 C   0  0  0  0  0  0  0  0  0  0  0  0
  195.4200  173.7590  143.4580 N   0  0  0  0  0  0  0  0  0  0  0  0
  190.7010  175.0830  143.1980 C   0  0  0  0  0  0  0  0  0  0  0  0
  193.2660  175.3300  145.8950 C   0  0  0  0  0  3  0  0  0  0  0  0
  197.8370  173.0260  143.4460 C   0  0  0  0  0  1  0  0  0  0  0  0
  190.6000  174.6370  141.9370 C   0  0  0  0  0  3  0  0  0  0  0  0
  192.0090  174.9590  143.9110 C   0  0  0  0  0  0  0  0  0  0  0  0
  193.9720  173.3350  141.1810 N   0  0  0  0  0  0  0  0  0  0  0  0
  196.8120  174.0710  145.3950 C   0  0  0  0  0  3  0  0  0  0  0  0
  191.7560  174.0600  141.3340 N   0  0  0  0  0  0  0  0  0  0  0  0
  191.9270  173.5080  140.0080 C   0  0  0  0  0  2  0  0  0  0  0  0
  192.1110  175.4120  145.1890 N   0  0  0  0  0  0  0  0  0  0  0  0
  194.4050  174.7700  145.3210 C   0  0  0  0  0  0  0  0  0  0  0  0
  195.6670  174.6980  146.1380 C   0  0  0  0  0  3  0  0  0  0  0  0
  189.9980  177.9300  143.4090 O   0  0  0  0  0  0  0  0  0  0  0  0
  189.2600  177.0750  143.9670 C   0  0  0  0  0  0  0  0  0  0  0  0
  189.5840  175.6780  143.8780 N   0  0  0  0  0  2  0  0  0  0  0  0
  185.8240  178.2160  146.2890 C   0  0  0  0  0  0  0  0  0  0  0  0
  187.9920  177.1740  146.0900 C   0  0  0  0  0  3  0  0  0  0  0  0
  186.8890  178.6570  142.4480 Cl  0  0  0  0  0  0  0  0  0  0  0  0
  184.4410  178.6660  147.2630 Cl  0  0  0  0  0  0  0  0  0  0  0  0
  186.8910  177.5310  146.8680 C   0  0  0  0  0  3  0  0  0  0  0  0
  186.9590  178.1900  144.1420 C   0  0  0  0  0  0  0  0  0  0  0  0
  188.0510  177.4920  144.7220 C   0  0  0  0  0  0  0  0  0  0  0  0
  185.8600  178.5420  144.9340 C   0  0  0  0  0  3  0  0  0  0  0  0
  194.0730  172.4670  138.9680 N   0  0  0  0  0  0  0  0  0  0  0  0
  195.3410  172.6330  138.7800 C   0  0  0  0  0  2  0  0  0  0  0  0
  1 11  1  0  0  0  0
  2  1  1  1  0  0  0
  2 17  1  0  0  0  0
  3 13  1  0  0  0  0
  4  1  2  0  0  0  0
  5 12  2  0  0  0  0
  6  2  1  0  0  0  0
  6  3  2  0  0  0  0
  7 21  1  0  0  0  0
  7 11  1  0  0  0  0
  9  3  1  0  0  0  0
 10  7  2  0  0  0  0
 11 16  2  0  0  0  0
 12  4  1  0  0  0  0
 13 18  2  0  0  0  0
 14 10  1  0  0  0  0
 14  4  1  0  0  0  0
 15  5  1  0  0  0  0
 15 14  1  0  0  0  0
 16  8  1  0  0  0  0
 17  8  2  0  0  0  0
 17 18  1  0  0  0  0
 19 20  2  0  0  0  0
 20 28  1  0  0  0  0
 21 20  1  0  0  0  0
 22 26  1  0  0  0  0
 22 25  1  0  0  0  0
 23 26  2  0  0  0  0
 24 27  1  0  0  0  0
 27 28  2  0  0  0  0
 27 29  1  0  0  0  0
 28 23  1  0  0  0  0
 29 22  2  0  0  0  0
 30  5  1  0  0  0  0
 31 30  2  0  0  0  0
M  END
>  <MODEL>
9

>  <REMARK>
 VINA RESULT:      -7.0      3.571      8.618
  Name = 
  3 active torsions:
  status: ('A' for Active; 'I' for Inactive)
    1  A    between atoms: N_2  and  C_13
    2  A    between atoms: C_9  and  C_22
    3  A    between atoms: C_15  and  N_23
                            x       y       z     vdW  Elec       q    Type
                         _______ _______ _______ _____ _____    ______ ____

>  <TORSDO>
F 3

$$$$
