=
 OpenBabel11052418433D

 34 40  0  0  1  0  0  0  0  0999 V2000
  191.1900  176.4300  145.6470 C   0  0  0  0  0  0  0  0  0  0  0  0
  191.3780  174.0800  144.9900 C   0  0  0  0  0  0  0  0  0  0  0  0
  189.5770  175.4930  144.0930 C   0  0  0  0  0  0  0  0  0  0  0  0
  188.2300  174.7220  142.0470 C   0  0  1  0  0  3  0  0  0  0  0  0
  193.0850  175.1140  146.3740 C   0  0  0  0  0  3  0  0  0  0  0  0
  192.5760  173.9960  145.7050 C   0  0  0  0  0  3  0  0  0  0  0  0
  189.6300  173.2450  143.1000 C   0  0  0  0  0  0  0  0  0  0  0  0
  190.7010  175.3200  144.9190 C   0  0  0  0  0  0  0  0  0  0  0  0
  187.8110  173.3890  141.6010 N   0  0  0  0  0  2  0  0  0  0  0  0
  192.3860  176.3230  146.3600 C   0  0  0  0  0  3  0  0  0  0  0  0
  188.8400  176.6940  144.1130 C   0  0  0  0  0  0  0  0  0  0  0  0
  190.4930  177.6420  145.6320 C   0  0  0  0  0  3  0  0  0  0  0  0
  190.6260  172.5350  144.4170 S   0  0  0  0  0  0  0  0  0  0  0  0
  187.0790  175.5310  142.6360 C   0  0  0  0  0  2  0  0  0  0  0  0
  187.6090  176.8620  143.2190 C   0  0  1  0  0  3  0  0  0  0  0  0
  188.8490  172.4690  142.0980 C   0  0  1  0  0  3  0  0  0  0  0  0
  189.2130  174.4790  143.1110 C   0  0  0  0  0  0  0  0  0  0  0  0
  189.3220  177.7690  144.8790 C   0  0  0  0  0  3  0  0  0  0  0  0
  184.8030  177.7550  145.6400 C   0  0  0  0  0  0  0  0  0  0  0  0
  184.4290  179.0150  145.1600 C   0  0  0  0  0  3  0  0  0  0  0  0
  186.4960  177.5990  143.9000 C   0  0  0  0  0  0  0  0  0  0  0  0
  185.0810  179.5640  144.0470 C   0  0  0  0  0  3  0  0  0  0  0  0
  185.8330  177.0460  145.0120 C   0  0  0  0  0  3  0  0  0  0  0  0
  186.1120  178.8580  143.4170 C   0  0  0  0  0  3  0  0  0  0  0  0
  184.1720  177.2220  146.7210 F   0  0  0  0  0  0  0  0  0  0  0  0
  189.7500  172.0470  140.9460 C   0  0  0  0  0  2  0  0  0  0  0  0
  189.1260  172.3910  139.6770 N   0  0  0  0  0  2  0  0  0  0  0  0
  188.2350  174.3790  137.6490 C   0  0  0  0  0  1  0  0  0  0  0  0
  190.0740  173.2190  138.9430 C   0  0  2  0  0  3  0  0  0  0  0  0
  189.5200  173.5790  137.5570 C   0  0  1  0  0  3  0  0  0  0  0  0
  190.5070  171.3430  136.7830 C   0  0  0  0  0  2  0  0  0  0  0  0
  191.7450  171.9820  137.4210 C   0  0  0  0  0  2  0  0  0  0  0  0
  191.4240  172.4830  138.8410 C   0  0  0  0  0  2  0  0  0  0  0  0
  189.3280  172.3360  136.6810 C   0  0  0  0  0  2  0  0  0  0  0  0
  1 10  2  0  0  0  0
  2  6  1  0  0  0  0
  3 11  2  0  0  0  0
  3  8  1  0  0  0  0
  4 14  1  1  0  0  0
  4 17  1  0  0  0  0
  6  5  2  0  0  0  0
  7 17  2  0  0  0  0
  7 13  1  0  0  0  0
  8  2  2  0  0  0  0
  8  1  1  0  0  0  0
  9  4  1  0  0  0  0
  9 16  1  0  0  0  0
 10  5  1  0  0  0  0
 11 18  1  0  0  0  0
 12  1  1  0  0  0  0
 13  2  1  0  0  0  0
 14 15  1  0  0  0  0
 15 21  1  1  0  0  0
 15 11  1  0  0  0  0
 16 26  1  6  0  0  0
 16  7  1  0  0  0  0
 17  3  1  0  0  0  0
 18 12  2  0  0  0  0
 19 25  1  0  0  0  0
 20 19  1  0  0  0  0
 21 23  1  0  0  0  0
 22 20  2  0  0  0  0
 23 19  2  0  0  0  0
 24 21  2  0  0  0  0
 24 22  1  0  0  0  0
 27 26  1  0  0  0  0
 29 27  1  6  0  0  0
 30 28  1  1  0  0  0
 30 29  1  0  0  0  0
 31 32  1  0  0  0  0
 32 33  1  0  0  0  0
 33 29  1  0  0  0  0
 34 31  1  0  0  0  0
 34 30  1  0  0  0  0
M  END
>  <MODEL>
1

>  <REMARK>
 VINA RESULT:      -8.9      0.000      0.000
  Name = 
  4 active torsions:
  status: ('A' for Active; 'I' for Inactive)
    1  A    between atoms: N_3  and  C_13
    2  A    between atoms: N_3  and  C_17
    3  A    between atoms: C_12  and  C_28
    4  A    between atoms: C_17  and  C_29
                            x       y       z     vdW  Elec       q    Type
                         _______ _______ _______ _____ _____    ______ ____

>  <TORSDO>
F 4

$$$$
=
 OpenBabel11052418433D

 34 40  0  0  1  0  0  0  0  0999 V2000
  191.1980  176.3900  145.6440 C   0  0  0  0  0  0  0  0  0  0  0  0
  191.3640  174.0440  144.9680 C   0  0  0  0  0  0  0  0  0  0  0  0
  189.5800  175.4820  144.0780 C   0  0  0  0  0  0  0  0  0  0  0  0
  188.2310  174.7430  142.0210 C   0  0  1  0  0  3  0  0  0  0  0  0
  193.0770  175.0480  146.3650 C   0  0  0  0  0  3  0  0  0  0  0  0
  192.5580  173.9410  145.6850 C   0  0  0  0  0  3  0  0  0  0  0  0
  189.6120  173.2430  143.0660 C   0  0  0  0  0  0  0  0  0  0  0  0
  190.7000  175.2910  144.9050 C   0  0  0  0  0  0  0  0  0  0  0  0
  187.8000  173.4180  141.5630 N   0  0  0  0  0  2  0  0  0  0  0  0
  192.3900  176.2650  146.3600 C   0  0  0  0  0  3  0  0  0  0  0  0
  188.8560  176.6910  144.1060 C   0  0  0  0  0  0  0  0  0  0  0  0
  190.5130  177.6090  145.6370 C   0  0  0  0  0  3  0  0  0  0  0  0
  190.5970  172.5120  144.3800 S   0  0  0  0  0  0  0  0  0  0  0  0
  187.0870  175.5590  142.6140 C   0  0  0  0  0  2  0  0  0  0  0  0
  187.6290  176.8790  143.2100 C   0  0  1  0  0  3  0  0  0  0  0  0
  188.8270  172.4840  142.0550 C   0  0  1  0  0  3  0  0  0  0  0  0
  189.2080  174.4810  143.0860 C   0  0  0  0  0  0  0  0  0  0  0  0
  189.3460  177.7550  144.8820 C   0  0  0  0  0  3  0  0  0  0  0  0
  184.8080  177.7700  145.6130 C   0  0  0  0  0  0  0  0  0  0  0  0
  184.4670  179.0490  145.1600 C   0  0  0  0  0  3  0  0  0  0  0  0
  186.5210  177.6220  143.8940 C   0  0  0  0  0  0  0  0  0  0  0  0
  185.1450  179.6120  144.0700 C   0  0  0  0  0  3  0  0  0  0  0  0
  185.8320  177.0560  144.9820 C   0  0  0  0  0  3  0  0  0  0  0  0
  186.1700  178.9010  143.4370 C   0  0  0  0  0  3  0  0  0  0  0  0
  184.1500  177.2230  146.6710 F   0  0  0  0  0  0  0  0  0  0  0  0
  189.7270  172.0610  140.9030 C   0  0  0  0  0  2  0  0  0  0  0  0
  190.9380  171.4420  141.4210 N   0  0  0  0  0  2  0  0  0  0  0  0
  193.7010  170.4060  141.8090 C   0  0  0  0  0  1  0  0  0  0  0  0
  191.9930  171.6780  140.4440 C   0  0  2  0  0  3  0  0  0  0  0  0
  193.3670  171.7190  141.1280 C   0  0  1  0  0  3  0  0  0  0  0  0
  192.8780  174.1990  141.5540 C   0  0  0  0  0  2  0  0  0  0  0  0
  192.6590  174.1330  140.0380 C   0  0  0  0  0  2  0  0  0  0  0  0
  191.7000  172.9840  139.6800 C   0  0  0  0  0  2  0  0  0  0  0  0
  193.4780  172.8890  142.1110 C   0  0  0  0  0  2  0  0  0  0  0  0
  1 10  2  0  0  0  0
  2  6  1  0  0  0  0
  3 11  2  0  0  0  0
  3  8  1  0  0  0  0
  4 14  1  1  0  0  0
  4 17  1  0  0  0  0
  6  5  2  0  0  0  0
  7 17  2  0  0  0  0
  7 13  1  0  0  0  0
  8  2  2  0  0  0  0
  8  1  1  0  0  0  0
  9  4  1  0  0  0  0
  9 16  1  0  0  0  0
 10  5  1  0  0  0  0
 11 18  1  0  0  0  0
 12  1  1  0  0  0  0
 13  2  1  0  0  0  0
 14 15  1  0  0  0  0
 15 21  1  1  0  0  0
 15 11  1  0  0  0  0
 16 26  1  6  0  0  0
 16  7  1  0  0  0  0
 17  3  1  0  0  0  0
 18 12  2  0  0  0  0
 19 25  1  0  0  0  0
 20 19  1  0  0  0  0
 21 23  1  0  0  0  0
 22 20  2  0  0  0  0
 23 19  2  0  0  0  0
 24 21  2  0  0  0  0
 24 22  1  0  0  0  0
 26 27  1  0  0  0  0
 29 30  1  0  0  0  0
 29 27  1  1  0  0  0
 30 28  1  1  0  0  0
 30 34  1  0  0  0  0
 31 34  1  0  0  0  0
 32 31  1  0  0  0  0
 33 32  1  0  0  0  0
 33 29  1  0  0  0  0
M  END
>  <MODEL>
2

>  <REMARK>
 VINA RESULT:      -8.7      1.456      2.464
  Name = 
  4 active torsions:
  status: ('A' for Active; 'I' for Inactive)
    1  A    between atoms: N_3  and  C_13
    2  A    between atoms: N_3  and  C_17
    3  A    between atoms: C_12  and  C_28
    4  A    between atoms: C_17  and  C_29
                            x       y       z     vdW  Elec       q    Type
                         _______ _______ _______ _____ _____    ______ ____

>  <TORSDO>
F 4

$$$$
=
 OpenBabel11052418433D

 34 40  0  0  1  0  0  0  0  0999 V2000
  188.8080  174.6030  141.7730 C   0  0  0  0  0  0  0  0  0  0  0  0
  191.1820  174.9910  142.2270 C   0  0  0  0  0  0  0  0  0  0  0  0
  189.4710  175.6190  143.8770 C   0  0  0  0  0  0  0  0  0  0  0  0
  190.1450  176.1460  146.2990 C   0  0  1  0  0  3  0  0  0  0  0  0
  190.4880  173.7910  140.2330 C   0  0  0  0  0  3  0  0  0  0  0  0
  191.4980  174.3240  141.0400 C   0  0  0  0  0  3  0  0  0  0  0  0
  191.7660  175.9420  144.6920 C   0  0  0  0  0  0  0  0  0  0  0  0
  189.8280  175.0920  142.6240 C   0  0  0  0  0  0  0  0  0  0  0  0
  191.3440  176.7740  146.8620 N   0  0  0  0  0  2  0  0  0  0  0  0
  189.1460  173.9450  140.5890 C   0  0  0  0  0  3  0  0  0  0  0  0
  188.1190  175.8210  144.2190 C   0  0  0  0  0  0  0  0  0  0  0  0
  187.4650  174.7540  142.1300 C   0  0  0  0  0  3  0  0  0  0  0  0
  192.5010  175.9180  143.0520 S   0  0  0  0  0  0  0  0  0  0  0  0
  188.9330  177.0730  146.3190 C   0  0  0  0  0  2  0  0  0  0  0  0
  187.7460  176.4100  145.5820 C   0  0  1  0  0  3  0  0  0  0  0  0
  192.4330  176.4400  145.9260 C   0  0  1  0  0  3  0  0  0  0  0  0
  190.4830  175.8620  144.8980 C   0  0  0  0  0  0  0  0  0  0  0  0
  187.1230  175.3670  143.3380 C   0  0  0  0  0  3  0  0  0  0  0  0
  185.5930  179.4150  144.6510 C   0  0  0  0  0  0  0  0  0  0  0  0
  184.4220  179.1340  145.3630 C   0  0  0  0  0  3  0  0  0  0  0  0
  186.5970  177.3710  145.5020 C   0  0  0  0  0  0  0  0  0  0  0  0
  184.3400  177.9760  146.1500 C   0  0  0  0  0  3  0  0  0  0  0  0
  186.6800  178.5380  144.7200 C   0  0  0  0  0  3  0  0  0  0  0  0
  185.4250  177.0960  146.2210 C   0  0  0  0  0  3  0  0  0  0  0  0
  185.6730  180.5370  143.8860 F   0  0  0  0  0  0  0  0  0  0  0  0
  193.3060  175.3480  146.5280 C   0  0  0  0  0  2  0  0  0  0  0  0
  194.2340  174.8470  145.5250 N   0  0  0  0  0  2  0  0  0  0  0  0
  196.8150  173.4960  146.1370 C   0  0  0  0  0  1  0  0  0  0  0  0
  194.3230  173.4040  145.7050 C   0  0  2  0  0  3  0  0  0  0  0  0
  195.7100  172.8910  145.2920 C   0  0  1  0  0  3  0  0  0  0  0  0
  194.7590  172.7760  142.9140 C   0  0  0  0  0  2  0  0  0  0  0  0
  193.7110  171.9500  143.6680 C   0  0  0  0  0  2  0  0  0  0  0  0
  193.2020  172.7170  144.9010 C   0  0  0  0  0  2  0  0  0  0  0  0
  195.9780  173.1140  143.7990 C   0  0  0  0  0  2  0  0  0  0  0  0
  1 12  2  0  0  0  0
  1  8  1  0  0  0  0
  2  8  1  0  0  0  0
  2 13  1  0  0  0  0
  3 11  1  0  0  0  0
  3 17  1  0  0  0  0
  4 14  1  6  0  0  0
  4  9  1  0  0  0  0
  5 10  2  0  0  0  0
  5  6  1  0  0  0  0
  6  2  2  0  0  0  0
  7 17  2  0  0  0  0
  7 16  1  0  0  0  0
  8  3  2  0  0  0  0
 10  1  1  0  0  0  0
 11 15  1  0  0  0  0
 12 18  1  0  0  0  0
 13  7  1  0  0  0  0
 15 21  1  6  0  0  0
 15 14  1  0  0  0  0
 16 26  1  1  0  0  0
 16  9  1  0  0  0  0
 17  4  1  0  0  0  0
 18 11  2  0  0  0  0
 19 23  2  0  0  0  0
 19 20  1  0  0  0  0
 20 22  2  0  0  0  0
 21 24  2  0  0  0  0
 22 24  1  0  0  0  0
 23 21  1  0  0  0  0
 25 19  1  0  0  0  0
 27 26  1  0  0  0  0
 29 27  1  6  0  0  0
 30 29  1  0  0  0  0
 30 28  1  1  0  0  0
 31 32  1  0  0  0  0
 31 34  1  0  0  0  0
 32 33  1  0  0  0  0
 33 29  1  0  0  0  0
 34 30  1  0  0  0  0
M  END
>  <MODEL>
3

>  <REMARK>
 VINA RESULT:      -8.7      2.792      5.686
  Name = 
  4 active torsions:
  status: ('A' for Active; 'I' for Inactive)
    1  A    between atoms: N_3  and  C_13
    2  A    between atoms: N_3  and  C_17
    3  A    between atoms: C_12  and  C_28
    4  A    between atoms: C_17  and  C_29
                            x       y       z     vdW  Elec       q    Type
                         _______ _______ _______ _____ _____    ______ ____

>  <TORSDO>
F 4

$$$$
=
 OpenBabel11052418433D

 34 40  0  0  1  0  0  0  0  0999 V2000
  189.2520  174.3460  141.6220 C   0  0  0  0  0  0  0  0  0  0  0  0
  191.6220  174.8530  141.9610 C   0  0  0  0  0  0  0  0  0  0  0  0
  189.9550  175.4550  143.6640 C   0  0  0  0  0  0  0  0  0  0  0  0
  190.7050  176.0850  146.0390 C   0  0  1  0  0  3  0  0  0  0  0  0
  190.9000  173.5630  140.0340 C   0  0  0  0  0  3  0  0  0  0  0  0
  191.9180  174.1650  140.7810 C   0  0  0  0  0  3  0  0  0  0  0  0
  192.2660  175.9040  144.3700 C   0  0  0  0  0  0  0  0  0  0  0  0
  190.2830  174.9060  142.4130 C   0  0  0  0  0  0  0  0  0  0  0  0
  191.8980  176.7830  146.5300 N   0  0  0  0  0  2  0  0  0  0  0  0
  189.5680  173.6680  140.4430 C   0  0  0  0  0  3  0  0  0  0  0  0
  188.6110  175.6070  144.0590 C   0  0  0  0  0  0  0  0  0  0  0  0
  187.9190  174.4480  142.0320 C   0  0  0  0  0  3  0  0  0  0  0  0
  192.9300  175.8630  142.7010 S   0  0  0  0  0  0  0  0  0  0  0  0
  189.4550  176.9580  146.0850 C   0  0  0  0  0  2  0  0  0  0  0  0
  188.2690  176.2210  145.4190 C   0  0  1  0  0  3  0  0  0  0  0  0
  192.9600  176.4690  145.5590 C   0  0  1  0  0  3  0  0  0  0  0  0
  190.9970  175.7740  144.6330 C   0  0  0  0  0  0  0  0  0  0  0  0
  187.6000  175.0820  143.2360 C   0  0  0  0  0  3  0  0  0  0  0  0
  185.9410  179.0940  144.4920 C   0  0  0  0  0  0  0  0  0  0  0  0
  184.8180  178.7860  145.2670 C   0  0  0  0  0  3  0  0  0  0  0  0
  187.0750  177.1260  145.3620 C   0  0  0  0  0  0  0  0  0  0  0  0
  184.8240  177.6550  146.0950 C   0  0  0  0  0  3  0  0  0  0  0  0
  187.0690  178.2680  144.5390 C   0  0  0  0  0  3  0  0  0  0  0  0
  185.9500  176.8260  146.1440 C   0  0  0  0  0  3  0  0  0  0  0  0
  185.9350  180.1910  143.6870 F   0  0  0  0  0  0  0  0  0  0  0  0
  193.9060  175.4360  146.1530 C   0  0  0  0  0  2  0  0  0  0  0  0
  194.5830  174.7130  145.0860 N   0  0  0  0  0  2  0  0  0  0  0  0
  196.4340  176.4330  143.5110 C   0  0  0  0  0  1  0  0  0  0  0  0
  196.0120  174.7690  145.3690 C   0  0  2  0  0  3  0  0  0  0  0  0
  196.8060  175.0830  144.0940 C   0  0  1  0  0  3  0  0  0  0  0  0
  196.7480  172.5590  143.6540 C   0  0  0  0  0  2  0  0  0  0  0  0
  197.3300  172.5750  145.0710 C   0  0  0  0  0  2  0  0  0  0  0  0
  196.4600  173.4370  146.0030 C   0  0  0  0  0  2  0  0  0  0  0  0
  196.6600  173.9750  143.0450 C   0  0  0  0  0  2  0  0  0  0  0  0
  1 12  2  0  0  0  0
  1  8  1  0  0  0  0
  2  8  1  0  0  0  0
  2 13  1  0  0  0  0
  3 11  1  0  0  0  0
  3 17  1  0  0  0  0
  4 14  1  6  0  0  0
  4  9  1  0  0  0  0
  5 10  2  0  0  0  0
  5  6  1  0  0  0  0
  6  2  2  0  0  0  0
  7 17  2  0  0  0  0
  7 16  1  0  0  0  0
  8  3  2  0  0  0  0
 10  1  1  0  0  0  0
 11 15  1  0  0  0  0
 12 18  1  0  0  0  0
 13  7  1  0  0  0  0
 15 21  1  6  0  0  0
 15 14  1  0  0  0  0
 16 26  1  1  0  0  0
 16  9  1  0  0  0  0
 17  4  1  0  0  0  0
 18 11  2  0  0  0  0
 19 23  2  0  0  0  0
 19 20  1  0  0  0  0
 20 22  2  0  0  0  0
 21 24  2  0  0  0  0
 22 24  1  0  0  0  0
 23 21  1  0  0  0  0
 25 19  1  0  0  0  0
 27 26  1  0  0  0  0
 29 27  1  6  0  0  0
 29 33  1  0  0  0  0
 30 28  1  6  0  0  0
 30 29  1  0  0  0  0
 31 32  1  0  0  0  0
 32 33  1  0  0  0  0
 34 31  1  0  0  0  0
 34 30  1  0  0  0  0
M  END
>  <MODEL>
4

>  <REMARK>
 VINA RESULT:      -8.3      3.112      5.947
  Name = 
  4 active torsions:
  status: ('A' for Active; 'I' for Inactive)
    1  A    between atoms: N_3  and  C_13
    2  A    between atoms: N_3  and  C_17
    3  A    between atoms: C_12  and  C_28
    4  A    between atoms: C_17  and  C_29
                            x       y       z     vdW  Elec       q    Type
                         _______ _______ _______ _____ _____    ______ ____

>  <TORSDO>
F 4

$$$$
=
 OpenBabel11052418433D

 34 40  0  0  1  0  0  0  0  0999 V2000
  191.7480  173.9470  144.1370 C   0  0  0  0  0  0  0  0  0  0  0  0
  191.0480  176.2870  144.2850 C   0  0  0  0  0  0  0  0  0  0  0  0
  190.1040  174.8030  142.5680 C   0  0  0  0  0  0  0  0  0  0  0  0
  187.9840  175.4910  141.2910 C   0  0  1  0  0  3  0  0  0  0  0  0
  192.5280  175.3350  145.9580 C   0  0  0  0  0  3  0  0  0  0  0  0
  191.8130  176.4230  145.4470 C   0  0  0  0  0  3  0  0  0  0  0  0
  189.0660  177.0300  142.5990 C   0  0  0  0  0  0  0  0  0  0  0  0
  190.9750  175.0270  143.6480 C   0  0  0  0  0  0  0  0  0  0  0  0
  187.4920  176.8010  140.8540 N   0  0  0  0  0  2  0  0  0  0  0  0
  192.5100  174.1050  145.2960 C   0  0  0  0  0  3  0  0  0  0  0  0
  190.1190  173.5820  141.8660 C   0  0  0  0  0  0  0  0  0  0  0  0
  191.7290  172.7150  143.4760 C   0  0  0  0  0  3  0  0  0  0  0  0
  190.4090  177.7970  143.5140 S   0  0  0  0  0  0  0  0  0  0  0  0
  188.5400  174.6590  140.1390 C   0  0  0  0  0  2  0  0  0  0  0  0
  189.1750  173.3580  140.6820 C   0  0  1  0  0  3  0  0  0  0  0  0
  188.0130  177.7610  141.8420 C   0  0  1  0  0  3  0  0  0  0  0  0
  189.0850  175.7850  142.2180 C   0  0  0  0  0  0  0  0  0  0  0  0
  190.9280  172.5370  142.3440 C   0  0  0  0  0  3  0  0  0  0  0  0
  189.8910  170.7090  138.0350 C   0  0  0  0  0  0  0  0  0  0  0  0
  191.0510  171.2260  137.4490 C   0  0  0  0  0  3  0  0  0  0  0  0
  189.8230  172.6020  139.5610 C   0  0  0  0  0  0  0  0  0  0  0  0
  191.6030  172.4250  137.9220 C   0  0  0  0  0  3  0  0  0  0  0  0
  189.2770  171.3930  139.0900 C   0  0  0  0  0  3  0  0  0  0  0  0
  190.9910  173.1130  138.9760 C   0  0  0  0  0  3  0  0  0  0  0  0
  189.3540  169.5460  137.5770 F   0  0  0  0  0  0  0  0  0  0  0  0
  186.8930  178.1870  142.7800 C   0  0  0  0  0  2  0  0  0  0  0  0
  186.8930  177.3430  143.9660 N   0  0  0  0  0  2  0  0  0  0  0  0
  188.1100  176.4400  146.5280 C   0  0  0  0  0  1  0  0  0  0  0  0
  186.9980  178.2240  145.1210 C   0  0  2  0  0  3  0  0  0  0  0  0
  186.9550  177.4160  146.4260 C   0  0  1  0  0  3  0  0  0  0  0  0
  184.4040  177.5820  146.2310 C   0  0  0  0  0  2  0  0  0  0  0  0
  184.7830  179.0640  146.1340 C   0  0  0  0  0  2  0  0  0  0  0  0
  185.8720  179.2760  145.0670 C   0  0  0  0  0  2  0  0  0  0  0  0
  185.6130  176.6970  146.6060 C   0  0  0  0  0  2  0  0  0  0  0  0
  1 10  2  0  0  0  0
  2  6  1  0  0  0  0
  3  8  1  0  0  0  0
  4 14  1  6  0  0  0
  4 17  1  0  0  0  0
  6  5  2  0  0  0  0
  7 13  1  0  0  0  0
  8  1  1  0  0  0  0
  8  2  2  0  0  0  0
  9  4  1  0  0  0  0
  9 16  1  0  0  0  0
 10  5  1  0  0  0  0
 11 18  1  0  0  0  0
 11  3  2  0  0  0  0
 12  1  1  0  0  0  0
 13  2  1  0  0  0  0
 14 15  1  0  0  0  0
 15 21  1  6  0  0  0
 15 11  1  0  0  0  0
 16  7  1  0  0  0  0
 16 26  1  1  0  0  0
 17  3  1  0  0  0  0
 17  7  2  0  0  0  0
 18 12  2  0  0  0  0
 19 23  1  0  0  0  0
 20 22  1  0  0  0  0
 20 19  2  0  0  0  0
 22 24  2  0  0  0  0
 23 21  2  0  0  0  0
 24 21  1  0  0  0  0
 25 19  1  0  0  0  0
 26 27  1  0  0  0  0
 29 27  1  6  0  0  0
 29 30  1  0  0  0  0
 30 28  1  6  0  0  0
 30 34  1  0  0  0  0
 31 34  1  0  0  0  0
 32 31  1  0  0  0  0
 33 29  1  0  0  0  0
 33 32  1  0  0  0  0
M  END
>  <MODEL>
5

>  <REMARK>
 VINA RESULT:      -8.3      2.940      7.635
  Name = 
  4 active torsions:
  status: ('A' for Active; 'I' for Inactive)
    1  A    between atoms: N_3  and  C_13
    2  A    between atoms: N_3  and  C_17
    3  A    between atoms: C_12  and  C_28
    4  A    between atoms: C_17  and  C_29
                            x       y       z     vdW  Elec       q    Type
                         _______ _______ _______ _____ _____    ______ ____

>  <TORSDO>
F 4

$$$$
=
 OpenBabel11052418433D

 34 40  0  0  1  0  0  0  0  0999 V2000
  191.3750  176.1210  145.8300 C   0  0  0  0  0  0  0  0  0  0  0  0
  191.6520  173.9370  144.7620 C   0  0  0  0  0  0  0  0  0  0  0  0
  189.8090  175.4270  144.1090 C   0  0  0  0  0  0  0  0  0  0  0  0
  188.5070  174.9950  141.9380 C   0  0  1  0  0  3  0  0  0  0  0  0
  193.3090  174.7590  146.3340 C   0  0  0  0  0  3  0  0  0  0  0  0
  192.8460  173.7640  145.4670 C   0  0  0  0  0  3  0  0  0  0  0  0
  189.9490  173.4000  142.7280 C   0  0  0  0  0  0  0  0  0  0  0  0
  190.9320  175.1450  144.9060 C   0  0  0  0  0  0  0  0  0  0  0  0
  188.1390  173.7510  141.2530 N   0  0  0  0  0  2  0  0  0  0  0  0
  192.5680  175.9270  146.5300 C   0  0  0  0  0  3  0  0  0  0  0  0
  189.0300  176.5790  144.3350 C   0  0  0  0  0  0  0  0  0  0  0  0
  190.6350  177.2910  146.0240 C   0  0  0  0  0  3  0  0  0  0  0  0
  190.9590  172.4970  143.9090 S   0  0  0  0  0  0  0  0  0  0  0  0
  187.3230  175.6460  142.6470 C   0  0  0  0  0  2  0  0  0  0  0  0
  187.8010  176.8660  143.4690 C   0  0  1  0  0  3  0  0  0  0  0  0
  189.2050  172.7920  141.5910 C   0  0  1  0  0  3  0  0  0  0  0  0
  189.4890  174.5970  142.9550 C   0  0  0  0  0  0  0  0  0  0  0  0
  189.4670  177.5140  145.2900 C   0  0  0  0  0  3  0  0  0  0  0  0
  185.0410  179.1950  144.6870 C   0  0  0  0  0  0  0  0  0  0  0  0
  184.5030  178.4430  145.7370 C   0  0  0  0  0  3  0  0  0  0  0  0
  186.6570  177.4290  144.2550 C   0  0  0  0  0  0  0  0  0  0  0  0
  185.0450  177.1890  146.0520 C   0  0  0  0  0  3  0  0  0  0  0  0
  186.1170  178.6920  143.9480 C   0  0  0  0  0  3  0  0  0  0  0  0
  186.1200  176.6820  145.3140 C   0  0  0  0  0  3  0  0  0  0  0  0
  184.5160  180.4120  144.3800 F   0  0  0  0  0  0  0  0  0  0  0  0
  190.1300  172.6150  140.3950 C   0  0  0  0  0  2  0  0  0  0  0  0
  190.2050  171.2080  140.0310 N   0  0  0  0  0  2  0  0  0  0  0  0
  189.8790  169.4700  137.6360 C   0  0  0  0  0  1  0  0  0  0  0  0
  191.2510  171.0800  139.0240 C   0  0  2  0  0  3  0  0  0  0  0  0
  191.1940  169.6990  138.3550 C   0  0  1  0  0  3  0  0  0  0  0  0
  192.6450  168.8950  140.3100 C   0  0  0  0  0  2  0  0  0  0  0  0
  193.4880  170.0730  139.8110 C   0  0  0  0  0  2  0  0  0  0  0  0
  192.6230  171.3390  139.6760 C   0  0  0  0  0  2  0  0  0  0  0  0
  191.4750  168.5710  139.3550 C   0  0  0  0  0  2  0  0  0  0  0  0
  1 12  1  0  0  0  0
  1 10  2  0  0  0  0
  2  8  2  0  0  0  0
  2  6  1  0  0  0  0
  3 11  2  0  0  0  0
  3  8  1  0  0  0  0
  4 14  1  1  0  0  0
  4 17  1  0  0  0  0
  5 10  1  0  0  0  0
  6  5  2  0  0  0  0
  7 17  2  0  0  0  0
  7 13  1  0  0  0  0
  8  1  1  0  0  0  0
  9 16  1  0  0  0  0
  9  4  1  0  0  0  0
 11 18  1  0  0  0  0
 13  2  1  0  0  0  0
 14 15  1  0  0  0  0
 15 21  1  1  0  0  0
 15 11  1  0  0  0  0
 16 26  1  6  0  0  0
 16  7  1  0  0  0  0
 17  3  1  0  0  0  0
 18 12  2  0  0  0  0
 19 20  1  0  0  0  0
 20 22  2  0  0  0  0
 21 24  2  0  0  0  0
 23 21  1  0  0  0  0
 23 19  2  0  0  0  0
 24 22  1  0  0  0  0
 25 19  1  0  0  0  0
 27 26  1  0  0  0  0
 29 33  1  0  0  0  0
 29 27  1  1  0  0  0
 30 28  1  1  0  0  0
 30 29  1  0  0  0  0
 30 34  1  0  0  0  0
 32 31  1  0  0  0  0
 33 32  1  0  0  0  0
 34 31  1  0  0  0  0
M  END
>  <MODEL>
6

>  <REMARK>
 VINA RESULT:      -8.1      1.570      2.201
  Name = 
  4 active torsions:
  status: ('A' for Active; 'I' for Inactive)
    1  A    between atoms: N_3  and  C_13
    2  A    between atoms: N_3  and  C_17
    3  A    between atoms: C_12  and  C_28
    4  A    between atoms: C_17  and  C_29
                            x       y       z     vdW  Elec       q    Type
                         _______ _______ _______ _____ _____    ______ ____

>  <TORSDO>
F 4

$$$$
=
 OpenBabel11052418433D

 34 40  0  0  1  0  0  0  0  0999 V2000
  185.4310  177.7050  144.5100 C   0  0  0  0  0  0  0  0  0  0  0  0
  185.8820  177.4030  142.1240 C   0  0  0  0  0  0  0  0  0  0  0  0
  187.3350  176.3680  143.8150 C   0  0  0  0  0  0  0  0  0  0  0  0
  188.9760  174.5100  143.1440 C   0  0  1  0  0  3  0  0  0  0  0  0
  183.8760  178.5550  142.8630 C   0  0  0  0  0  3  0  0  0  0  0  0
  184.6950  178.0800  141.8330 C   0  0  0  0  0  3  0  0  0  0  0  0
  187.9160  175.7250  141.5150 C   0  0  0  0  0  0  0  0  0  0  0  0
  186.2330  177.1710  143.4740 C   0  0  0  0  0  0  0  0  0  0  0  0
  189.7450  174.2860  141.9150 N   0  0  0  0  0  2  0  0  0  0  0  0
  184.2510  178.3840  144.1980 C   0  0  0  0  0  3  0  0  0  0  0  0
  187.7460  176.2330  145.1560 C   0  0  0  0  0  0  0  0  0  0  0  0
  185.8040  177.5320  145.8460 C   0  0  0  0  0  3  0  0  0  0  0  0
  187.0350  177.0970  140.7610 S   0  0  0  0  0  0  0  0  0  0  0  0
  189.8440  175.0110  144.2940 C   0  0  0  0  0  2  0  0  0  0  0  0
  188.9580  175.3680  145.5110 C   0  0  1  0  0  3  0  0  0  0  0  0
  188.9350  174.8790  140.8370 C   0  0  1  0  0  3  0  0  0  0  0  0
  188.0100  175.5630  142.8040 C   0  0  0  0  0  0  0  0  0  0  0  0
  186.9580  176.8110  146.1660 C   0  0  0  0  0  3  0  0  0  0  0  0
  190.3580  177.8160  148.0750 C   0  0  0  0  0  0  0  0  0  0  0  0
  191.3850  177.0520  148.6380 C   0  0  0  0  0  3  0  0  0  0  0  0
  189.8000  175.9690  146.5950 C   0  0  0  0  0  0  0  0  0  0  0  0
  191.6270  175.7510  148.1760 C   0  0  0  0  0  3  0  0  0  0  0  0
  189.5660  177.2790  147.0550 C   0  0  0  0  0  3  0  0  0  0  0  0
  190.8370  175.2090  147.1560 C   0  0  0  0  0  3  0  0  0  0  0  0
  190.1220  179.0790  148.5240 F   0  0  0  0  0  0  0  0  0  0  0  0
  188.2540  173.7730  140.0430 C   0  0  0  0  0  2  0  0  0  0  0  0
  189.2560  172.9090  139.4370 N   0  0  0  0  0  2  0  0  0  0  0  0
  189.7440  170.3190  138.0530 C   0  0  0  0  0  1  0  0  0  0  0  0
  188.8520  172.6860  138.0550 C   0  0  2  0  0  3  0  0  0  0  0  0
  189.7840  171.6740  137.3740 C   0  0  1  0  0  3  0  0  0  0  0  0
  191.2920  173.6810  136.8600 C   0  0  0  0  0  2  0  0  0  0  0  0
  189.9660  174.1800  136.2750 C   0  0  0  0  0  2  0  0  0  0  0  0
  188.8320  174.0330  137.3040 C   0  0  0  0  0  2  0  0  0  0  0  0
  191.2210  172.1970  137.2800 C   0  0  0  0  0  2  0  0  0  0  0  0
  1 12  1  0  0  0  0
  2  8  1  0  0  0  0
  3 11  2  0  0  0  0
  4 14  1  1  0  0  0
  5 10  2  0  0  0  0
  6  2  2  0  0  0  0
  6  5  1  0  0  0  0
  7 17  2  0  0  0  0
  8  3  1  0  0  0  0
  8  1  2  0  0  0  0
  9  4  1  0  0  0  0
 10  1  1  0  0  0  0
 11 15  1  0  0  0  0
 11 18  1  0  0  0  0
 12 18  2  0  0  0  0
 13  7  1  0  0  0  0
 13  2  1  0  0  0  0
 14 15  1  0  0  0  0
 15 21  1  1  0  0  0
 16 26  1  1  0  0  0
 16  7  1  0  0  0  0
 16  9  1  0  0  0  0
 17  4  1  0  0  0  0
 17  3  1  0  0  0  0
 19 25  1  0  0  0  0
 19 20  1  0  0  0  0
 21 23  1  0  0  0  0
 21 24  2  0  0  0  0
 22 20  2  0  0  0  0
 23 19  2  0  0  0  0
 24 22  1  0  0  0  0
 27 26  1  0  0  0  0
 29 27  1  1  0  0  0
 30 28  1  1  0  0  0
 30 29  1  0  0  0  0
 31 34  1  0  0  0  0
 32 31  1  0  0  0  0
 32 33  1  0  0  0  0
 33 29  1  0  0  0  0
 34 30  1  0  0  0  0
M  END
>  <MODEL>
7

>  <REMARK>
 VINA RESULT:      -7.9      2.217      5.120
  Name = 
  4 active torsions:
  status: ('A' for Active; 'I' for Inactive)
    1  A    between atoms: N_3  and  C_13
    2  A    between atoms: N_3  and  C_17
    3  A    between atoms: C_12  and  C_28
    4  A    between atoms: C_17  and  C_29
                            x       y       z     vdW  Elec       q    Type
                         _______ _______ _______ _____ _____    ______ ____

>  <TORSDO>
F 4

$$$$
=
 OpenBabel11052418433D

 34 40  0  0  1  0  0  0  0  0999 V2000
  191.2890  174.2860  145.2050 C   0  0  0  0  0  0  0  0  0  0  0  0
  190.3920  176.5600  145.1020 C   0  0  0  0  0  0  0  0  0  0  0  0
  189.8740  174.9270  143.3390 C   0  0  0  0  0  0  0  0  0  0  0  0
  187.9550  175.3710  141.6910 C   0  0  1  0  0  3  0  0  0  0  0  0
  191.6360  175.8130  147.0490 C   0  0  0  0  0  3  0  0  0  0  0  0
  190.9350  176.8110  146.3640 C   0  0  0  0  0  3  0  0  0  0  0  0
  188.6730  177.0540  143.0700 C   0  0  0  0  0  0  0  0  0  0  0  0
  190.5270  175.2720  144.5340 C   0  0  0  0  0  0  0  0  0  0  0  0
  187.4420  176.6130  141.1040 N   0  0  0  0  0  2  0  0  0  0  0  0
  191.8280  174.5590  146.4640 C   0  0  0  0  0  3  0  0  0  0  0  0
  190.1040  173.6820  142.7210 C   0  0  0  0  0  0  0  0  0  0  0  0
  191.4800  173.0290  144.6220 C   0  0  0  0  0  3  0  0  0  0  0  0
  189.7770  177.9730  144.1500 S   0  0  0  0  0  0  0  0  0  0  0  0
  188.7620  174.5420  140.6970 C   0  0  0  0  0  2  0  0  0  0  0  0
  189.3960  173.3260  141.4110 C   0  0  1  0  0  3  0  0  0  0  0  0
  187.7110  177.6570  142.1080 C   0  0  1  0  0  3  0  0  0  0  0  0
  188.8550  175.8000  142.7690 C   0  0  0  0  0  0  0  0  0  0  0  0
  190.9000  172.7330  143.3850 C   0  0  0  0  0  3  0  0  0  0  0  0
  192.1140  172.5310  138.8580 C   0  0  0  0  0  0  0  0  0  0  0  0
  191.9330  171.1530  138.6980 C   0  0  0  0  0  3  0  0  0  0  0  0
  190.2820  172.5820  140.4580 C   0  0  0  0  0  0  0  0  0  0  0  0
  190.9240  170.4900  139.4110 C   0  0  0  0  0  3  0  0  0  0  0  0
  191.2900  173.2470  139.7340 C   0  0  0  0  0  3  0  0  0  0  0  0
  190.0990  171.2020  140.2880 C   0  0  0  0  0  3  0  0  0  0  0  0
  193.0930  173.1760  138.1680 F   0  0  0  0  0  0  0  0  0  0  0  0
  186.4170  178.0240  142.8220 C   0  0  0  0  0  2  0  0  0  0  0  0
  186.6850  178.2830  144.2290 N   0  0  0  0  0  2  0  0  0  0  0  0
  183.9160  179.0410  145.0170 C   0  0  0  0  0  1  0  0  0  0  0  0
  185.8310  177.3890  145.0000 C   0  0  2  0  0  3  0  0  0  0  0  0
  184.8430  178.1890  145.8610 C   0  0  1  0  0  3  0  0  0  0  0  0
  186.7210  178.2870  147.6030 C   0  0  0  0  0  2  0  0  0  0  0  0
  186.6470  176.7750  147.3660 C   0  0  0  0  0  2  0  0  0  0  0  0
  186.7090  176.4590  145.8610 C   0  0  0  0  0  2  0  0  0  0  0  0
  185.5650  179.0410  146.9110 C   0  0  0  0  0  2  0  0  0  0  0  0
  1 10  2  0  0  0  0
  2  6  1  0  0  0  0
  3  8  1  0  0  0  0
  4 14  1  6  0  0  0
  4 17  1  0  0  0  0
  6  5  2  0  0  0  0
  7 13  1  0  0  0  0
  8  2  2  0  0  0  0
  8  1  1  0  0  0  0
  9  4  1  0  0  0  0
  9 16  1  0  0  0  0
 10  5  1  0  0  0  0
 11  3  2  0  0  0  0
 11 18  1  0  0  0  0
 12  1  1  0  0  0  0
 13  2  1  0  0  0  0
 14 15  1  0  0  0  0
 15 21  1  6  0  0  0
 15 11  1  0  0  0  0
 16 26  1  1  0  0  0
 16  7  1  0  0  0  0
 17  7  2  0  0  0  0
 17  3  1  0  0  0  0
 18 12  2  0  0  0  0
 19 23  1  0  0  0  0
 20 19  2  0  0  0  0
 20 22  1  0  0  0  0
 22 24  2  0  0  0  0
 23 21  2  0  0  0  0
 24 21  1  0  0  0  0
 25 19  1  0  0  0  0
 26 27  1  0  0  0  0
 29 27  1  1  0  0  0
 29 30  1  0  0  0  0
 29 33  1  0  0  0  0
 30 28  1  6  0  0  0
 30 34  1  0  0  0  0
 32 31  1  0  0  0  0
 33 32  1  0  0  0  0
 34 31  1  0  0  0  0
M  END
>  <MODEL>
8

>  <REMARK>
 VINA RESULT:      -7.9      2.961      7.633
  Name = 
  4 active torsions:
  status: ('A' for Active; 'I' for Inactive)
    1  A    between atoms: N_3  and  C_13
    2  A    between atoms: N_3  and  C_17
    3  A    between atoms: C_12  and  C_28
    4  A    between atoms: C_17  and  C_29
                            x       y       z     vdW  Elec       q    Type
                         _______ _______ _______ _____ _____    ______ ____

>  <TORSDO>
F 4

$$$$
=
 OpenBabel11052418433D

 34 40  0  0  1  0  0  0  0  0999 V2000
  190.3250  173.8650  141.2880 C   0  0  0  0  0  0  0  0  0  0  0  0
  192.6530  174.5990  141.1140 C   0  0  0  0  0  0  0  0  0  0  0  0
  191.3590  175.0100  143.1630 C   0  0  0  0  0  0  0  0  0  0  0  0
  192.5570  175.6780  145.3350 C   0  0  1  0  0  3  0  0  0  0  0  0
  191.6440  173.2700  139.3500 C   0  0  0  0  0  3  0  0  0  0  0  0
  192.7420  173.9600  139.8750 C   0  0  0  0  0  3  0  0  0  0  0  0
  193.7160  175.6760  143.3580 C   0  0  0  0  0  0  0  0  0  0  0  0
  191.4490  174.5130  141.8520 C   0  0  0  0  0  0  0  0  0  0  0  0
  193.7580  176.4840  145.5760 N   0  0  0  0  0  2  0  0  0  0  0  0
  190.4330  173.2370  140.0460 C   0  0  0  0  0  3  0  0  0  0  0  0
  190.1280  175.0230  143.8500 C   0  0  0  0  0  0  0  0  0  0  0  0
  189.1130  173.8290  141.9850 C   0  0  0  0  0  3  0  0  0  0  0  0
  193.9930  175.7230  141.5830 S   0  0  0  0  0  0  0  0  0  0  0  0
  191.2720  176.4220  145.6860 C   0  0  0  0  0  2  0  0  0  0  0  0
  190.0420  175.5810  145.2730 C   0  0  1  0  0  3  0  0  0  0  0  0
  194.6020  176.2900  144.3840 C   0  0  1  0  0  3  0  0  0  0  0  0
  192.5550  175.4160  143.8890 C   0  0  0  0  0  0  0  0  0  0  0  0
  189.0130  174.4120  143.2520 C   0  0  0  0  0  3  0  0  0  0  0  0
  186.7930  176.8360  146.8230 C   0  0  0  0  0  0  0  0  0  0  0  0
  186.4560  177.8650  145.9380 C   0  0  0  0  0  3  0  0  0  0  0  0
  188.7870  176.3650  145.5120 C   0  0  0  0  0  0  0  0  0  0  0  0
  187.2780  178.1400  144.8360 C   0  0  0  0  0  3  0  0  0  0  0  0
  187.9550  176.0850  146.6120 C   0  0  0  0  0  3  0  0  0  0  0  0
  188.4410  177.3920  144.6220 C   0  0  0  0  0  3  0  0  0  0  0  0
  185.9970  176.5680  147.8940 F   0  0  0  0  0  0  0  0  0  0  0  0
  195.7490  175.3470  144.7180 C   0  0  0  0  0  2  0  0  0  0  0  0
  195.9560  174.4110  143.6220 N   0  0  0  0  0  2  0  0  0  0  0  0
  196.7670  172.0720  141.9690 C   0  0  0  0  0  1  0  0  0  0  0  0
  196.2470  173.1130  144.2160 C   0  0  2  0  0  3  0  0  0  0  0  0
  195.9280  171.9810  143.2290 C   0  0  1  0  0  3  0  0  0  0  0  0
  193.5310  172.1210  144.1260 C   0  0  0  0  0  2  0  0  0  0  0  0
  194.3030  171.9430  145.4370 C   0  0  0  0  0  2  0  0  0  0  0  0
  195.4540  172.9610  145.5290 C   0  0  0  0  0  2  0  0  0  0  0  0
  194.4340  171.9270  142.8880 C   0  0  0  0  0  2  0  0  0  0  0  0
  1  8  2  0  0  0  0
  1 12  1  0  0  0  0
  2 13  1  0  0  0  0
  2  8  1  0  0  0  0
  3 11  2  0  0  0  0
  3 17  1  0  0  0  0
  4  9  1  0  0  0  0
  4 14  1  6  0  0  0
  5  6  1  0  0  0  0
  5 10  2  0  0  0  0
  6  2  2  0  0  0  0
  7 17  2  0  0  0  0
  7 16  1  0  0  0  0
  8  3  1  0  0  0  0
 10  1  1  0  0  0  0
 11 15  1  0  0  0  0
 12 18  2  0  0  0  0
 13  7  1  0  0  0  0
 15 21  1  6  0  0  0
 15 14  1  0  0  0  0
 16 26  1  1  0  0  0
 16  9  1  0  0  0  0
 17  4  1  0  0  0  0
 18 11  1  0  0  0  0
 19 25  1  0  0  0  0
 20 19  2  0  0  0  0
 21 23  2  0  0  0  0
 22 20  1  0  0  0  0
 23 19  1  0  0  0  0
 24 22  2  0  0  0  0
 24 21  1  0  0  0  0
 27 26  1  0  0  0  0
 29 27  1  6  0  0  0
 29 33  1  0  0  0  0
 30 28  1  6  0  0  0
 30 29  1  0  0  0  0
 31 32  1  0  0  0  0
 32 33  1  0  0  0  0
 34 30  1  0  0  0  0
 34 31  1  0  0  0  0
M  END
>  <MODEL>
9

>  <REMARK>
 VINA RESULT:      -7.9      3.256      5.877
  Name = 
  4 active torsions:
  status: ('A' for Active; 'I' for Inactive)
    1  A    between atoms: N_3  and  C_13
    2  A    between atoms: N_3  and  C_17
    3  A    between atoms: C_12  and  C_28
    4  A    between atoms: C_17  and  C_29
                            x       y       z     vdW  Elec       q    Type
                         _______ _______ _______ _____ _____    ______ ____

>  <TORSDO>
F 4

$$$$
