=
 OpenBabel11052417483D

 31 36  0  0  1  0  0  0  0  0999 V2000
  184.4520  178.5480  146.0540 C   0  0  0  0  0  0  0  0  0  0  0  0
  187.0810  176.9690  143.7580 C   0  0  0  0  0  0  0  0  0  0  0  0
  186.6380  177.1710  142.4200 C   0  0  0  0  0  0  0  0  0  0  0  0
  185.0170  177.9890  140.7890 C   0  0  0  0  0  0  0  0  0  0  0  0
  186.3040  177.3860  144.9720 C   0  0  0  0  0  0  0  0  0  0  0  0
  184.8300  178.0220  147.2890 C   0  0  0  0  0  3  0  0  0  0  0  0
  185.4250  177.8110  142.1130 C   0  0  0  0  0  3  0  0  0  0  0  0
  188.8900  176.0810  145.3210 C   0  0  1  0  0  3  0  0  0  0  0  0
  183.3710  179.3580  145.9640 F   0  0  0  0  0  0  0  0  0  0  0  0
  188.6280  176.0440  141.6050 C   0  0  0  0  0  3  0  0  0  0  0  0
  183.8160  178.6290  140.5140 O   0  0  0  0  0  1  0  0  0  0  0  0
  187.8520  176.0680  146.3460 N   0  0  0  0  0  2  0  0  0  0  0  0
  188.3090  176.2830  143.9500 C   0  0  0  0  0  0  0  0  0  0  0  0
  185.1810  178.2280  144.9050 C   0  0  0  0  0  3  0  0  0  0  0  0
  185.8140  177.5250  139.7430 C   0  0  0  0  0  3  0  0  0  0  0  0
  186.6900  176.8880  146.2330 C   0  0  0  0  0  0  0  0  0  0  0  0
  185.9490  177.1920  147.3780 C   0  0  0  0  0  3  0  0  0  0  0  0
  189.0360  175.8560  142.8830 N   0  0  0  0  0  0  0  0  0  0  0  0
  187.4310  176.7000  141.3450 C   0  0  0  0  0  0  0  0  0  0  0  0
  187.0200  176.8790  140.0210 C   0  0  0  0  0  3  0  0  0  0  0  0
  189.8950  177.1890  145.6140 C   0  0  0  0  0  2  0  0  0  0  0  0
  194.2400  175.5610  143.1520 C   0  0  2  0  0  3  0  0  0  0  0  0
  192.1250  176.8570  143.4590 C   0  0  0  0  0  3  0  0  0  0  0  0
  193.0300  175.7000  146.7730 C   0  0  0  0  0  3  0  0  0  0  0  0
  191.7290  176.1660  146.9680 C   0  0  0  0  0  3  0  0  0  0  0  0
  195.4460  175.7820  142.3770 N   0  0  0  0  0  1  0  0  0  0  0  0
  191.2270  176.6310  145.8050 N   0  0  0  0  0  0  0  0  0  0  0  0
  193.1300  176.4750  142.6600 C   0  0  0  0  0  3  0  0  0  0  0  0
  193.2760  175.8850  145.4250 C   0  0  0  0  0  0  0  0  0  0  0  0
  192.1710  176.4580  144.8710 C   0  0  0  0  0  0  0  0  0  0  0  0
  194.5480  175.6980  144.6590 C   0  0  0  0  0  2  0  0  0  0  0  0
  1  6  1  0  0  0  0
  2 13  1  0  0  0  0
  2  5  1  0  0  0  0
  3  2  2  0  0  0  0
  4  7  2  0  0  0  0
  5 16  2  0  0  0  0
  6 17  2  0  0  0  0
  7  3  1  0  0  0  0
  8 21  1  1  0  0  0
  8 12  1  0  0  0  0
  9  1  1  0  0  0  0
 10 18  1  0  0  0  0
 11  4  1  0  0  0  0
 13  8  1  0  0  0  0
 14  5  1  0  0  0  0
 14  1  2  0  0  0  0
 15 20  2  0  0  0  0
 15  4  1  0  0  0  0
 16 12  1  0  0  0  0
 16 17  1  0  0  0  0
 18 13  2  0  0  0  0
 19 10  2  0  0  0  0
 19  3  1  0  0  0  0
 20 19  1  0  0  0  0
 21 27  1  0  0  0  0
 22 26  1  6  0  0  0
 22 31  1  0  0  0  0
 23 30  1  0  0  0  0
 24 25  2  0  0  0  0
 27 25  1  0  0  0  0
 28 22  1  0  0  0  0
 28 23  2  0  0  0  0
 29 24  1  0  0  0  0
 30 29  2  0  0  0  0
 30 27  1  0  0  0  0
 31 29  1  0  0  0  0
M  END
>  <MODEL>
1

>  <REMARK>
 VINA RESULT:      -9.5      0.000      0.000
  Name = 
  2 active torsions:
  status: ('A' for Active; 'I' for Inactive)
    1  A    between atoms: N_9  and  C_23
    2  A    between atoms: C_15  and  C_23
                            x       y       z     vdW  Elec       q    Type
                         _______ _______ _______ _____ _____    ______ ____

>  <TORSDO>
F 2

$$$$
=
 OpenBabel11052417483D

 31 36  0  0  1  0  0  0  0  0999 V2000
  185.1380  177.8740  146.9740 C   0  0  0  0  0  0  0  0  0  0  0  0
  186.8300  177.0670  143.6340 C   0  0  0  0  0  0  0  0  0  0  0  0
  185.9200  177.4440  142.6060 C   0  0  0  0  0  0  0  0  0  0  0  0
  183.7750  178.3270  141.8470 C   0  0  0  0  0  0  0  0  0  0  0  0
  186.5280  177.1630  145.1010 C   0  0  0  0  0  0  0  0  0  0  0  0
  185.9670  177.1900  147.8630 C   0  0  0  0  0  3  0  0  0  0  0  0
  184.6470  177.9710  142.8790 C   0  0  0  0  0  3  0  0  0  0  0  0
  189.1300  176.1520  144.2510 C   0  0  1  0  0  3  0  0  0  0  0  0
  184.0560  178.5450  147.4360 F   0  0  0  0  0  0  0  0  0  0  0  0
  187.5340  176.7370  140.9360 C   0  0  0  0  0  3  0  0  0  0  0  0
  182.5240  178.8490  142.1460 O   0  0  0  0  0  1  0  0  0  0  0  0
  188.5380  175.8280  145.5450 N   0  0  0  0  0  2  0  0  0  0  0  0
  188.0790  176.5170  143.2400 C   0  0  0  0  0  0  0  0  0  0  0  0
  185.4140  177.8560  145.6040 C   0  0  0  0  0  3  0  0  0  0  0  0
  184.1610  178.1580  140.5180 C   0  0  0  0  0  3  0  0  0  0  0  0
  187.3730  176.5030  146.0150 C   0  0  0  0  0  0  0  0  0  0  0  0
  187.0840  176.5050  147.3830 C   0  0  0  0  0  3  0  0  0  0  0  0
  188.3890  176.3800  141.9240 N   0  0  0  0  0  0  0  0  0  0  0  0
  186.2920  177.2730  141.2500 C   0  0  0  0  0  0  0  0  0  0  0  0
  185.4170  177.6300  140.2190 C   0  0  0  0  0  3  0  0  0  0  0  0
  190.1110  177.3080  144.4030 C   0  0  0  0  0  2  0  0  0  0  0  0
  194.8940  175.6070  145.7520 C   0  0  2  0  0  3  0  0  0  0  0  0
  192.4290  175.9490  145.9860 C   0  0  0  0  0  3  0  0  0  0  0  0
  193.1660  176.6370  142.5040 C   0  0  0  0  0  3  0  0  0  0  0  0
  191.8580  177.1060  142.6270 C   0  0  0  0  0  3  0  0  0  0  0  0
  195.8170  174.6030  146.2470 N   0  0  0  0  0  1  0  0  0  0  0  0
  191.4230  176.9330  143.8930 N   0  0  0  0  0  0  0  0  0  0  0  0
  193.5850  175.5350  146.5210 C   0  0  0  0  0  3  0  0  0  0  0  0
  193.5070  176.1980  143.7700 C   0  0  0  0  0  0  0  0  0  0  0  0
  192.4290  176.3810  144.5830 C   0  0  0  0  0  0  0  0  0  0  0  0
  194.7340  175.4700  144.2220 C   0  0  0  0  0  2  0  0  0  0  0  0
  1  9  1  0  0  0  0
  1  6  1  0  0  0  0
  2  5  1  0  0  0  0
  3  7  1  0  0  0  0
  3  2  2  0  0  0  0
  4 11  1  0  0  0  0
  4  7  2  0  0  0  0
  5 14  1  0  0  0  0
  5 16  2  0  0  0  0
  8 21  1  1  0  0  0
  8 12  1  0  0  0  0
 10 19  2  0  0  0  0
 10 18  1  0  0  0  0
 12 16  1  0  0  0  0
 13  2  1  0  0  0  0
 13  8  1  0  0  0  0
 14  1  2  0  0  0  0
 15  4  1  0  0  0  0
 16 17  1  0  0  0  0
 17  6  2  0  0  0  0
 18 13  2  0  0  0  0
 19  3  1  0  0  0  0
 20 15  2  0  0  0  0
 20 19  1  0  0  0  0
 22 26  1  1  0  0  0
 22 28  1  0  0  0  0
 23 28  2  0  0  0  0
 24 25  2  0  0  0  0
 24 29  1  0  0  0  0
 25 27  1  0  0  0  0
 27 21  1  0  0  0  0
 27 30  1  0  0  0  0
 29 31  1  0  0  0  0
 29 30  2  0  0  0  0
 30 23  1  0  0  0  0
 31 22  1  0  0  0  0
M  END
>  <MODEL>
2

>  <REMARK>
 VINA RESULT:      -9.1      1.273      2.044
  Name = 
  2 active torsions:
  status: ('A' for Active; 'I' for Inactive)
    1  A    between atoms: N_9  and  C_23
    2  A    between atoms: C_15  and  C_23
                            x       y       z     vdW  Elec       q    Type
                         _______ _______ _______ _____ _____    ______ ____

>  <TORSDO>
F 2

$$$$
=
 OpenBabel11052417483D

 31 36  0  0  1  0  0  0  0  0999 V2000
  183.6560  178.2010  141.7790 C   0  0  0  0  0  0  0  0  0  0  0  0
  186.8070  176.9170  143.5390 C   0  0  0  0  0  0  0  0  0  0  0  0
  186.5930  177.0710  144.9380 C   0  0  0  0  0  0  0  0  0  0  0  0
  185.2420  177.7790  146.8440 C   0  0  0  0  0  0  0  0  0  0  0  0
  185.8320  177.3570  142.4860 C   0  0  0  0  0  0  0  0  0  0  0  0
  184.1060  178.2870  140.4610 C   0  0  0  0  0  3  0  0  0  0  0  0
  185.4190  177.6360  145.4650 C   0  0  0  0  0  3  0  0  0  0  0  0
  188.3330  176.0960  141.6680 C   0  0  1  0  0  3  0  0  0  0  0  0
  182.3910  178.5720  142.0890 F   0  0  0  0  0  0  0  0  0  0  0  0
  188.7810  176.1120  145.3660 C   0  0  0  0  0  3  0  0  0  0  0  0
  184.0710  178.3370  147.3380 O   0  0  0  0  0  1  0  0  0  0  0  0
  187.5770  176.9930  140.8000 N   0  0  0  0  0  2  0  0  0  0  0  0
  188.0430  176.3600  143.1190 C   0  0  0  0  0  0  0  0  0  0  0  0
  184.5150  177.7440  142.7820 C   0  0  0  0  0  3  0  0  0  0  0  0
  186.2400  177.3600  147.7240 C   0  0  0  0  0  3  0  0  0  0  0  0
  186.2610  177.4210  141.1450 C   0  0  0  0  0  0  0  0  0  0  0  0
  185.4080  177.8970  140.1450 C   0  0  0  0  0  3  0  0  0  0  0  0
  188.9730  175.9730  144.0320 N   0  0  0  0  0  0  0  0  0  0  0  0
  187.5980  176.6580  145.8470 C   0  0  0  0  0  0  0  0  0  0  0  0
  187.4180  176.8010  147.2250 C   0  0  0  0  0  3  0  0  0  0  0  0
  187.9970  174.6470  141.3380 C   0  0  0  0  0  2  0  0  0  0  0  0
  190.1000  172.4780  137.0420 C   0  0  2  0  0  3  0  0  0  0  0  0
  188.6110  174.0000  138.3500 C   0  0  0  0  0  3  0  0  0  0  0  0
  191.1380  172.8820  140.6960 C   0  0  0  0  0  3  0  0  0  0  0  0
  190.2030  173.4890  141.5360 C   0  0  0  0  0  3  0  0  0  0  0  0
  190.6770  172.5410  135.7120 N   0  0  0  0  0  1  0  0  0  0  0  0
  189.1670  173.9600  140.8090 N   0  0  0  0  0  0  0  0  0  0  0  0
  188.9690  173.4850  137.1670 C   0  0  0  0  0  3  0  0  0  0  0  0
  190.5980  172.9880  139.4280 C   0  0  0  0  0  0  0  0  0  0  0  0
  189.4130  173.6530  139.5290 C   0  0  0  0  0  0  0  0  0  0  0  0
  191.2070  172.6400  138.1060 C   0  0  0  0  0  2  0  0  0  0  0  0
  1  9  1  0  0  0  0
  1 14  1  0  0  0  0
  2  3  1  0  0  0  0
  3  7  2  0  0  0  0
  3 19  1  0  0  0  0
  4 11  1  0  0  0  0
  4 15  2  0  0  0  0
  5 14  2  0  0  0  0
  5  2  1  0  0  0  0
  6  1  2  0  0  0  0
  7  4  1  0  0  0  0
  8 21  1  6  0  0  0
  8 13  1  0  0  0  0
 10 19  1  0  0  0  0
 12 16  1  0  0  0  0
 12  8  1  0  0  0  0
 13  2  2  0  0  0  0
 13 18  1  0  0  0  0
 16  5  1  0  0  0  0
 17  6  1  0  0  0  0
 17 16  2  0  0  0  0
 18 10  2  0  0  0  0
 19 20  2  0  0  0  0
 20 15  1  0  0  0  0
 22 26  1  6  0  0  0
 22 28  1  0  0  0  0
 22 31  1  0  0  0  0
 23 30  1  0  0  0  0
 24 25  2  0  0  0  0
 27 21  1  0  0  0  0
 27 25  1  0  0  0  0
 28 23  2  0  0  0  0
 29 30  2  0  0  0  0
 29 24  1  0  0  0  0
 30 27  1  0  0  0  0
 31 29  1  0  0  0  0
M  END
>  <MODEL>
3

>  <REMARK>
 VINA RESULT:      -8.8      3.208      5.761
  Name = 
  2 active torsions:
  status: ('A' for Active; 'I' for Inactive)
    1  A    between atoms: N_9  and  C_23
    2  A    between atoms: C_15  and  C_23
                            x       y       z     vdW  Elec       q    Type
                         _______ _______ _______ _____ _____    ______ ____

>  <TORSDO>
F 2

$$$$
=
 OpenBabel11052417483D

 31 36  0  0  1  0  0  0  0  0999 V2000
  186.4440  178.1630  147.0620 C   0  0  0  0  0  0  0  0  0  0  0  0
  189.2110  176.8840  144.7430 C   0  0  0  0  0  0  0  0  0  0  0  0
  190.3710  176.6910  145.5470 C   0  0  0  0  0  0  0  0  0  0  0  0
  191.5500  176.7870  147.6810 C   0  0  0  0  0  0  0  0  0  0  0  0
  187.9150  177.4380  145.2570 C   0  0  0  0  0  0  0  0  0  0  0  0
  185.5000  178.5980  146.1320 C   0  0  0  0  0  3  0  0  0  0  0  0
  190.3940  176.9830  146.9210 C   0  0  0  0  0  3  0  0  0  0  0  0
  188.1240  176.6920  142.4440 C   0  0  1  0  0  3  0  0  0  0  0  0
  186.2060  178.3070  148.3880 F   0  0  0  0  0  0  0  0  0  0  0  0
  191.5830  175.9180  143.5910 C   0  0  0  0  0  3  0  0  0  0  0  0
  191.5450  177.0800  149.0380 O   0  0  0  0  0  1  0  0  0  0  0  0
  187.1580  177.6690  142.9340 N   0  0  0  0  0  2  0  0  0  0  0  0
  189.3120  176.5830  143.3590 C   0  0  0  0  0  0  0  0  0  0  0  0
  187.6430  177.5930  146.6270 C   0  0  0  0  0  3  0  0  0  0  0  0
  192.7080  176.2970  147.0790 C   0  0  0  0  0  3  0  0  0  0  0  0
  186.9360  177.8530  144.3310 C   0  0  0  0  0  0  0  0  0  0  0  0
  185.7460  178.4430  144.7670 C   0  0  0  0  0  3  0  0  0  0  0  0
  190.4740  176.1090  142.8370 N   0  0  0  0  0  0  0  0  0  0  0  0
  191.5580  176.2010  144.9510 C   0  0  0  0  0  0  0  0  0  0  0  0
  192.7130  176.0060  145.7140 C   0  0  0  0  0  3  0  0  0  0  0  0
  187.4610  175.3260  142.3100 C   0  0  0  0  0  2  0  0  0  0  0  0
  190.6300  171.2070  141.5560 C   0  0  2  0  0  3  0  0  0  0  0  0
  188.9500  172.6220  142.7480 C   0  0  0  0  0  3  0  0  0  0  0  0
  188.9700  173.8310  139.3300 C   0  0  0  0  0  3  0  0  0  0  0  0
  188.2380  174.8200  139.9890 C   0  0  0  0  0  3  0  0  0  0  0  0
  190.9280  169.7870  141.5620 N   0  0  0  0  0  1  0  0  0  0  0  0
  188.1430  174.5250  141.3040 N   0  0  0  0  0  0  0  0  0  0  0  0
  189.7710  171.5640  142.7570 C   0  0  0  0  0  3  0  0  0  0  0  0
  189.3350  172.9390  140.3220 C   0  0  0  0  0  0  0  0  0  0  0  0
  188.8110  173.3810  141.4990 C   0  0  0  0  0  0  0  0  0  0  0  0
  190.0140  171.6110  140.1990 C   0  0  0  0  0  2  0  0  0  0  0  0
  1  9  1  0  0  0  0
  2  5  1  0  0  0  0
  2  3  1  0  0  0  0
  3  7  1  0  0  0  0
  4 11  1  0  0  0  0
  5 14  2  0  0  0  0
  6  1  2  0  0  0  0
  7  4  2  0  0  0  0
  8 21  1  1  0  0  0
  8 12  1  0  0  0  0
  8 13  1  0  0  0  0
 10 19  1  0  0  0  0
 12 16  1  0  0  0  0
 13  2  2  0  0  0  0
 14  1  1  0  0  0  0
 15  4  1  0  0  0  0
 16 17  2  0  0  0  0
 16  5  1  0  0  0  0
 17  6  1  0  0  0  0
 18 13  1  0  0  0  0
 18 10  2  0  0  0  0
 19  3  2  0  0  0  0
 19 20  1  0  0  0  0
 20 15  2  0  0  0  0
 22 26  1  6  0  0  0
 22 28  1  0  0  0  0
 23 28  2  0  0  0  0
 24 25  2  0  0  0  0
 24 29  1  0  0  0  0
 25 27  1  0  0  0  0
 27 30  1  0  0  0  0
 27 21  1  0  0  0  0
 29 30  2  0  0  0  0
 30 23  1  0  0  0  0
 31 29  1  0  0  0  0
 31 22  1  0  0  0  0
M  END
>  <MODEL>
4

>  <REMARK>
 VINA RESULT:      -8.8      3.343      5.898
  Name = 
  2 active torsions:
  status: ('A' for Active; 'I' for Inactive)
    1  A    between atoms: N_9  and  C_23
    2  A    between atoms: C_15  and  C_23
                            x       y       z     vdW  Elec       q    Type
                         _______ _______ _______ _____ _____    ______ ____

>  <TORSDO>
F 2

$$$$
=
 OpenBabel11052417483D

 31 36  0  0  1  0  0  0  0  0999 V2000
  183.7300  178.2770  141.7790 C   0  0  0  0  0  0  0  0  0  0  0  0
  186.8270  177.0130  143.6450 C   0  0  0  0  0  0  0  0  0  0  0  0
  186.5960  177.2370  145.0320 C   0  0  0  0  0  0  0  0  0  0  0  0
  185.2340  178.0610  146.8810 C   0  0  0  0  0  0  0  0  0  0  0  0
  185.8770  177.4230  142.5580 C   0  0  0  0  0  0  0  0  0  0  0  0
  184.2000  178.2920  140.4660 C   0  0  0  0  0  3  0  0  0  0  0  0
  185.4270  177.8510  145.5140 C   0  0  0  0  0  3  0  0  0  0  0  0
  188.3620  176.0740  141.8370 C   0  0  1  0  0  3  0  0  0  0  0  0
  182.4690  178.6890  142.0520 F   0  0  0  0  0  0  0  0  0  0  0  0
  188.7570  176.2540  145.5370 C   0  0  0  0  0  3  0  0  0  0  0  0
  184.0680  178.6660  147.3310 O   0  0  0  0  0  1  0  0  0  0  0  0
  187.6380  176.9440  140.9170 N   0  0  0  0  0  2  0  0  0  0  0  0
  188.0570  176.4110  143.2700 C   0  0  0  0  0  0  0  0  0  0  0  0
  184.5640  177.8500  142.8150 C   0  0  0  0  0  3  0  0  0  0  0  0
  186.2100  177.6640  147.7950 C   0  0  0  0  0  3  0  0  0  0  0  0
  186.3260  177.4140  141.2220 C   0  0  0  0  0  0  0  0  0  0  0  0
  185.4980  177.8610  140.1880 C   0  0  0  0  0  3  0  0  0  0  0  0
  188.9650  176.0490  144.2140 N   0  0  0  0  0  0  0  0  0  0  0  0
  187.5790  176.8470  145.9740 C   0  0  0  0  0  0  0  0  0  0  0  0
  187.3820  177.0580  147.3420 C   0  0  0  0  0  3  0  0  0  0  0  0
  188.0000  174.6180  141.5710 C   0  0  0  0  0  2  0  0  0  0  0  0
  191.9210  171.7510  143.5670 C   0  0  2  0  0  3  0  0  0  0  0  0
  189.6510  172.7920  143.4850 C   0  0  0  0  0  3  0  0  0  0  0  0
  190.9070  172.9620  140.0890 C   0  0  0  0  0  3  0  0  0  0  0  0
  189.7850  173.7890  140.0300 C   0  0  0  0  0  3  0  0  0  0  0  0
  192.4590  170.5700  144.2170 N   0  0  0  0  0  1  0  0  0  0  0  0
  189.1920  173.8480  141.2420 N   0  0  0  0  0  0  0  0  0  0  0  0
  190.5770  172.1130  144.1750 C   0  0  0  0  0  3  0  0  0  0  0  0
  190.9750  172.5470  141.4060 C   0  0  0  0  0  0  0  0  0  0  0  0
  189.9190  173.0920  142.0740 C   0  0  0  0  0  0  0  0  0  0  0  0
  191.8860  171.5420  142.0380 C   0  0  0  0  0  2  0  0  0  0  0  0
  1  9  1  0  0  0  0
  1 14  1  0  0  0  0
  2  3  1  0  0  0  0
  3  7  2  0  0  0  0
  3 19  1  0  0  0  0
  4 11  1  0  0  0  0
  4 15  2  0  0  0  0
  5 14  2  0  0  0  0
  5  2  1  0  0  0  0
  6  1  2  0  0  0  0
  7  4  1  0  0  0  0
  8 21  1  6  0  0  0
  8 13  1  0  0  0  0
 10 19  1  0  0  0  0
 12 16  1  0  0  0  0
 12  8  1  0  0  0  0
 13  2  2  0  0  0  0
 13 18  1  0  0  0  0
 16  5  1  0  0  0  0
 17  6  1  0  0  0  0
 17 16  2  0  0  0  0
 18 10  2  0  0  0  0
 19 20  2  0  0  0  0
 20 15  1  0  0  0  0
 22 28  1  0  0  0  0
 22 26  1  1  0  0  0
 23 28  2  0  0  0  0
 24 29  1  0  0  0  0
 25 24  2  0  0  0  0
 25 27  1  0  0  0  0
 27 21  1  0  0  0  0
 27 30  1  0  0  0  0
 29 31  1  0  0  0  0
 29 30  2  0  0  0  0
 30 23  1  0  0  0  0
 31 22  1  0  0  0  0
M  END
>  <MODEL>
5

>  <REMARK>
 VINA RESULT:      -8.8      2.984      5.223
  Name = 
  2 active torsions:
  status: ('A' for Active; 'I' for Inactive)
    1  A    between atoms: N_9  and  C_23
    2  A    between atoms: C_15  and  C_23
                            x       y       z     vdW  Elec       q    Type
                         _______ _______ _______ _____ _____    ______ ____

>  <TORSDO>
F 2

$$$$
=
 OpenBabel11052417483D

 31 36  0  0  1  0  0  0  0  0999 V2000
  185.7190  178.1410  141.3450 C   0  0  0  0  0  0  0  0  0  0  0  0
  188.2230  175.6250  142.7850 C   0  0  0  0  0  0  0  0  0  0  0  0
  188.6420  174.7940  141.7080 C   0  0  0  0  0  0  0  0  0  0  0  0
  188.5660  174.0990  139.3690 C   0  0  0  0  0  0  0  0  0  0  0  0
  187.1930  176.7100  142.6580 C   0  0  0  0  0  0  0  0  0  0  0  0
  185.1690  178.6650  142.5140 C   0  0  0  0  0  3  0  0  0  0  0  0
  188.1380  174.9350  140.4040 C   0  0  0  0  0  3  0  0  0  0  0  0
  188.4480  176.2390  145.2500 C   0  0  1  0  0  3  0  0  0  0  0  0
  185.2750  178.5650  140.1380 F   0  0  0  0  0  0  0  0  0  0  0  0
  190.1010  173.5860  143.2250 C   0  0  0  0  0  3  0  0  0  0  0  0
  188.0550  174.2630  138.0890 O   0  0  0  0  0  1  0  0  0  0  0  0
  187.1370  176.8640  145.1070 N   0  0  0  0  0  2  0  0  0  0  0  0
  188.7780  175.3730  144.0670 C   0  0  0  0  0  0  0  0  0  0  0  0
  186.7190  177.1680  141.4180 C   0  0  0  0  0  3  0  0  0  0  0  0
  189.5080  173.1020  139.6210 C   0  0  0  0  0  3  0  0  0  0  0  0
  186.6480  177.2720  143.8300 C   0  0  0  0  0  0  0  0  0  0  0  0
  185.6330  178.2300  143.7570 C   0  0  0  0  0  3  0  0  0  0  0  0
  189.6910  174.3820  144.2420 N   0  0  0  0  0  0  0  0  0  0  0  0
  189.5920  173.7710  141.9460 C   0  0  0  0  0  0  0  0  0  0  0  0
  190.0190  172.9370  140.9090 C   0  0  0  0  0  3  0  0  0  0  0  0
  189.5200  177.3100  145.4100 C   0  0  0  0  0  2  0  0  0  0  0  0
  194.4270  175.5040  144.9150 C   0  0  2  0  0  3  0  0  0  0  0  0
  192.3880  176.8090  144.2930 C   0  0  0  0  0  3  0  0  0  0  0  0
  191.9460  175.9460  147.7860 C   0  0  0  0  0  3  0  0  0  0  0  0
  190.6800  176.4180  147.4360 C   0  0  0  0  0  3  0  0  0  0  0  0
  195.8420  175.6660  144.6380 N   0  0  0  0  0  1  0  0  0  0  0  0
  190.6660  176.7790  146.1350 N   0  0  0  0  0  0  0  0  0  0  0  0
  193.6090  176.3660  143.9670 C   0  0  0  0  0  3  0  0  0  0  0  0
  192.6860  176.0160  146.6210 C   0  0  0  0  0  0  0  0  0  0  0  0
  191.8880  176.5320  145.6450 C   0  0  0  0  0  0  0  0  0  0  0  0
  194.1480  175.7720  146.4100 C   0  0  0  0  0  2  0  0  0  0  0  0
  1 14  2  0  0  0  0
  1  6  1  0  0  0  0
  2 13  1  0  0  0  0
  3 19  1  0  0  0  0
  3  2  2  0  0  0  0
  4 15  1  0  0  0  0
  4  7  2  0  0  0  0
  5  2  1  0  0  0  0
  5 16  2  0  0  0  0
  6 17  2  0  0  0  0
  7  3  1  0  0  0  0
  8 21  1  6  0  0  0
  9  1  1  0  0  0  0
 10 18  1  0  0  0  0
 11  4  1  0  0  0  0
 12  8  1  0  0  0  0
 13 18  2  0  0  0  0
 13  8  1  0  0  0  0
 14  5  1  0  0  0  0
 15 20  2  0  0  0  0
 16 12  1  0  0  0  0
 17 16  1  0  0  0  0
 19 10  2  0  0  0  0
 20 19  1  0  0  0  0
 21 27  1  0  0  0  0
 22 26  1  1  0  0  0
 22 31  1  0  0  0  0
 23 30  1  0  0  0  0
 25 24  2  0  0  0  0
 27 25  1  0  0  0  0
 28 23  2  0  0  0  0
 28 22  1  0  0  0  0
 29 24  1  0  0  0  0
 30 27  1  0  0  0  0
 30 29  2  0  0  0  0
 31 29  1  0  0  0  0
M  END
>  <MODEL>
6

>  <REMARK>
 VINA RESULT:      -8.7      2.304      3.341
  Name = 
  2 active torsions:
  status: ('A' for Active; 'I' for Inactive)
    1  A    between atoms: N_9  and  C_23
    2  A    between atoms: C_15  and  C_23
                            x       y       z     vdW  Elec       q    Type
                         _______ _______ _______ _____ _____    ______ ____

>  <TORSDO>
F 2

$$$$
=
 OpenBabel11052417483D

 31 36  0  0  1  0  0  0  0  0999 V2000
  190.7870  176.8020  147.7220 C   0  0  0  0  0  0  0  0  0  0  0  0
  188.2880  176.3330  144.8570 C   0  0  0  0  0  0  0  0  0  0  0  0
  187.1660  177.1610  145.1460 C   0  0  0  0  0  0  0  0  0  0  0  0
  185.9630  178.7370  146.5690 C   0  0  0  0  0  0  0  0  0  0  0  0
  189.4730  176.1770  145.7650 C   0  0  0  0  0  0  0  0  0  0  0  0
  191.6600  175.7390  147.4880 C   0  0  0  0  0  3  0  0  0  0  0  0
  187.0810  177.9380  146.3130 C   0  0  0  0  0  3  0  0  0  0  0  0
  189.4170  174.7170  143.2390 C   0  0  1  0  0  3  0  0  0  0  0  0
  190.9850  177.6190  148.7830 F   0  0  0  0  0  0  0  0  0  0  0  0
  186.1160  176.4350  143.0810 C   0  0  0  0  0  3  0  0  0  0  0  0
  185.9060  179.4970  147.7290 O   0  0  0  0  0  1  0  0  0  0  0  0
  190.2080  174.2850  144.3870 N   0  0  0  0  0  2  0  0  0  0  0  0
  188.2530  175.5680  143.6620 C   0  0  0  0  0  0  0  0  0  0  0  0
  189.7010  177.0150  146.8690 C   0  0  0  0  0  3  0  0  0  0  0  0
  184.9060  178.7710  145.6610 C   0  0  0  0  0  3  0  0  0  0  0  0
  190.3820  175.1270  145.5240 C   0  0  0  0  0  0  0  0  0  0  0  0
  191.4570  174.9010  146.3890 C   0  0  0  0  0  3  0  0  0  0  0  0
  187.1880  175.6490  142.8210 N   0  0  0  0  0  0  0  0  0  0  0  0
  186.0790  177.2030  144.2390 C   0  0  0  0  0  0  0  0  0  0  0  0
  184.9630  178.0030  144.4970 C   0  0  0  0  0  3  0  0  0  0  0  0
  190.2930  175.5000  142.2690 C   0  0  0  0  0  2  0  0  0  0  0  0
  195.5120  175.5500  142.8560 C   0  0  2  0  0  3  0  0  0  0  0  0
  193.1370  176.1100  143.3940 C   0  0  0  0  0  3  0  0  0  0  0  0
  192.9660  173.2630  141.1560 C   0  0  0  0  0  3  0  0  0  0  0  0
  191.6380  173.6890  141.1940 C   0  0  0  0  0  3  0  0  0  0  0  0
  196.7250  175.4630  143.6470 N   0  0  0  0  0  1  0  0  0  0  0  0
  191.5230  174.7730  141.9910 N   0  0  0  0  0  0  0  0  0  0  0  0
  194.4420  176.3070  143.6240 C   0  0  0  0  0  3  0  0  0  0  0  0
  193.6510  174.1640  141.9510 C   0  0  0  0  0  0  0  0  0  0  0  0
  192.7500  175.0570  142.4480 C   0  0  0  0  0  0  0  0  0  0  0  0
  195.0800  174.1400  142.3960 C   0  0  0  0  0  2  0  0  0  0  0  0
  1  9  1  0  0  0  0
  2  3  1  0  0  0  0
  2  5  1  0  0  0  0
  3  7  1  0  0  0  0
  4 11  1  0  0  0  0
  5 14  1  0  0  0  0
  6  1  1  0  0  0  0
  7  4  2  0  0  0  0
  8 21  1  6  0  0  0
  8 13  1  0  0  0  0
  8 12  1  0  0  0  0
 10 19  1  0  0  0  0
 12 16  1  0  0  0  0
 13  2  2  0  0  0  0
 14  1  2  0  0  0  0
 15  4  1  0  0  0  0
 16  5  2  0  0  0  0
 16 17  1  0  0  0  0
 17  6  2  0  0  0  0
 18 10  2  0  0  0  0
 18 13  1  0  0  0  0
 19 20  1  0  0  0  0
 19  3  2  0  0  0  0
 20 15  2  0  0  0  0
 22 28  1  0  0  0  0
 22 26  1  1  0  0  0
 23 28  2  0  0  0  0
 24 25  2  0  0  0  0
 24 29  1  0  0  0  0
 25 27  1  0  0  0  0
 27 21  1  0  0  0  0
 27 30  1  0  0  0  0
 29 31  1  0  0  0  0
 29 30  2  0  0  0  0
 30 23  1  0  0  0  0
 31 22  1  0  0  0  0
M  END
>  <MODEL>
7

>  <REMARK>
 VINA RESULT:      -8.6      2.694      4.532
  Name = 
  2 active torsions:
  status: ('A' for Active; 'I' for Inactive)
    1  A    between atoms: N_9  and  C_23
    2  A    between atoms: C_15  and  C_23
                            x       y       z     vdW  Elec       q    Type
                         _______ _______ _______ _____ _____    ______ ____

>  <TORSDO>
F 2

$$$$
=
 OpenBabel11052417483D

 31 36  0  0  1  0  0  0  0  0999 V2000
  190.8340  175.3870  146.6040 C   0  0  0  0  0  0  0  0  0  0  0  0
  190.0830  174.1960  143.0420 C   0  0  0  0  0  0  0  0  0  0  0  0
  190.7860  172.9720  142.8560 C   0  0  0  0  0  0  0  0  0  0  0  0
  192.2870  171.2130  143.6360 C   0  0  0  0  0  0  0  0  0  0  0  0
  190.1570  175.0280  144.2890 C   0  0  0  0  0  0  0  0  0  0  0  0
  190.3630  176.6990  146.5490 C   0  0  0  0  0  3  0  0  0  0  0  0
  191.6060  172.4130  143.8520 C   0  0  0  0  0  3  0  0  0  0  0  0
  188.4770  175.9290  142.0800 C   0  0  1  0  0  3  0  0  0  0  0  0
  191.3990  174.9170  147.7420 F   0  0  0  0  0  0  0  0  0  0  0  0
  189.8940  172.8150  140.6050 C   0  0  0  0  0  3  0  0  0  0  0  0
  193.0880  170.6810  144.6380 O   0  0  0  0  0  1  0  0  0  0  0  0
  189.0240  176.8380  143.0810 N   0  0  0  0  0  2  0  0  0  0  0  0
  189.3070  174.6820  141.9560 C   0  0  0  0  0  0  0  0  0  0  0  0
  190.7350  174.5610  145.4810 C   0  0  0  0  0  3  0  0  0  0  0  0
  192.1640  170.5480  142.4170 C   0  0  0  0  0  3  0  0  0  0  0  0
  189.6580  176.3460  144.2600 C   0  0  0  0  0  0  0  0  0  0  0  0
  189.7760  177.1780  145.3770 C   0  0  0  0  0  3  0  0  0  0  0  0
  189.2320  173.9820  140.7930 N   0  0  0  0  0  0  0  0  0  0  0  0
  190.6790  172.2870  141.6220 C   0  0  0  0  0  0  0  0  0  0  0  0
  191.3610  171.0850  141.4090 C   0  0  0  0  0  3  0  0  0  0  0  0
  187.0470  175.5520  142.4450 C   0  0  0  0  0  2  0  0  0  0  0  0
  184.4960  177.9630  146.3520 C   0  0  2  0  0  3  0  0  0  0  0  0
  186.1600  176.4190  145.3060 C   0  0  0  0  0  3  0  0  0  0  0  0
  185.1360  178.6660  142.6520 C   0  0  0  0  0  3  0  0  0  0  0  0
  185.8340  177.6810  141.9520 C   0  0  0  0  0  3  0  0  0  0  0  0
  184.4420  178.6660  147.6210 N   0  0  0  0  0  1  0  0  0  0  0  0
  186.2840  176.7380  142.8070 N   0  0  0  0  0  0  0  0  0  0  0  0
  185.5460  176.8670  146.4100 C   0  0  0  0  0  3  0  0  0  0  0  0
  185.1650  178.2530  143.9710 C   0  0  0  0  0  0  0  0  0  0  0  0
  185.8740  177.0910  144.0330 C   0  0  0  0  0  0  0  0  0  0  0  0
  184.7000  178.9700  145.1990 C   0  0  0  0  0  2  0  0  0  0  0  0
  1  9  1  0  0  0  0
  2  5  1  0  0  0  0
  3  2  1  0  0  0  0
  3  7  1  0  0  0  0
  4  7  2  0  0  0  0
  4 11  1  0  0  0  0
  5 14  1  0  0  0  0
  6  1  1  0  0  0  0
  8 21  1  1  0  0  0
  8 12  1  0  0  0  0
 10 18  2  0  0  0  0
 10 19  1  0  0  0  0
 12 16  1  0  0  0  0
 13  8  1  0  0  0  0
 13  2  2  0  0  0  0
 14  1  2  0  0  0  0
 15  4  1  0  0  0  0
 16  5  2  0  0  0  0
 16 17  1  0  0  0  0
 17  6  2  0  0  0  0
 18 13  1  0  0  0  0
 19  3  2  0  0  0  0
 20 19  1  0  0  0  0
 20 15  2  0  0  0  0
 21 27  1  0  0  0  0
 22 28  1  0  0  0  0
 22 26  1  1  0  0  0
 23 28  2  0  0  0  0
 24 29  1  0  0  0  0
 25 24  2  0  0  0  0
 25 27  1  0  0  0  0
 27 30  1  0  0  0  0
 29 30  2  0  0  0  0
 29 31  1  0  0  0  0
 30 23  1  0  0  0  0
 31 22  1  0  0  0  0
M  END
>  <MODEL>
8

>  <REMARK>
 VINA RESULT:      -8.6      3.908      7.410
  Name = 
  2 active torsions:
  status: ('A' for Active; 'I' for Inactive)
    1  A    between atoms: N_9  and  C_23
    2  A    between atoms: C_15  and  C_23
                            x       y       z     vdW  Elec       q    Type
                         _______ _______ _______ _____ _____    ______ ____

>  <TORSDO>
F 2

$$$$
=
 OpenBabel11052417483D

 31 36  0  0  1  0  0  0  0  0999 V2000
  184.9230  177.9220  140.9840 C   0  0  0  0  0  0  0  0  0  0  0  0
  187.0810  176.7420  143.9200 C   0  0  0  0  0  0  0  0  0  0  0  0
  186.4280  177.1650  145.1120 C   0  0  0  0  0  0  0  0  0  0  0  0
  184.6210  178.3120  146.2850 C   0  0  0  0  0  0  0  0  0  0  0  0
  186.5920  177.0560  142.5360 C   0  0  0  0  0  0  0  0  0  0  0  0
  185.8010  177.7310  139.9170 C   0  0  0  0  0  3  0  0  0  0  0  0
  185.2350  177.9070  145.0970 C   0  0  0  0  0  3  0  0  0  0  0  0
  189.0250  175.4770  142.8570 C   0  0  1  0  0  3  0  0  0  0  0  0
  183.6910  178.4410  140.7640 F   0  0  0  0  0  0  0  0  0  0  0  0
  188.1880  176.1340  146.4270 C   0  0  0  0  0  3  0  0  0  0  0  0
  183.4400  179.0410  146.2420 O   0  0  0  0  0  1  0  0  0  0  0  0
  188.7390  176.2560  141.6570 N   0  0  0  0  0  2  0  0  0  0  0  0
  188.2980  176.0230  144.0550 C   0  0  0  0  0  0  0  0  0  0  0  0
  185.3180  177.5920  142.2830 C   0  0  0  0  0  3  0  0  0  0  0  0
  185.1930  177.9850  147.5140 C   0  0  0  0  0  3  0  0  0  0  0  0
  187.4550  176.8400  141.4430 C   0  0  0  0  0  0  0  0  0  0  0  0
  187.0670  177.1900  140.1470 C   0  0  0  0  0  3  0  0  0  0  0  0
  188.8010  175.7400  145.2850 N   0  0  0  0  0  0  0  0  0  0  0  0
  186.9980  176.8490  146.3690 C   0  0  0  0  0  0  0  0  0  0  0  0
  186.3820  177.2560  147.5560 C   0  0  0  0  0  3  0  0  0  0  0  0
  188.6260  174.0220  142.6420 C   0  0  0  0  0  2  0  0  0  0  0  0
  189.6470  171.8240  137.9830 C   0  0  2  0  0  3  0  0  0  0  0  0
  188.5130  173.3580  139.5970 C   0  0  0  0  0  3  0  0  0  0  0  0
  191.5200  172.2410  141.2860 C   0  0  0  0  0  3  0  0  0  0  0  0
  190.8120  172.8560  142.3190 C   0  0  0  0  0  3  0  0  0  0  0  0
  189.8930  171.8780  136.5540 N   0  0  0  0  0  1  0  0  0  0  0  0
  189.6350  173.3280  141.8550 N   0  0  0  0  0  0  0  0  0  0  0  0
  188.5800  172.8350  138.3650 C   0  0  0  0  0  3  0  0  0  0  0  0
  190.6960  172.3430  140.1800 C   0  0  0  0  0  0  0  0  0  0  0  0
  189.5700  173.0130  140.5550 C   0  0  0  0  0  0  0  0  0  0  0  0
  190.9740  171.9860  138.7540 C   0  0  0  0  0  2  0  0  0  0  0  0
  1 14  1  0  0  0  0
  2 13  2  0  0  0  0
  2  3  1  0  0  0  0
  3 19  1  0  0  0  0
  4 15  2  0  0  0  0
  5  2  1  0  0  0  0
  6 17  1  0  0  0  0
  6  1  2  0  0  0  0
  7  3  2  0  0  0  0
  7  4  1  0  0  0  0
  8 21  1  6  0  0  0
  8 13  1  0  0  0  0
  9  1  1  0  0  0  0
 11  4  1  0  0  0  0
 12  8  1  0  0  0  0
 13 18  1  0  0  0  0
 14  5  2  0  0  0  0
 15 20  1  0  0  0  0
 16 12  1  0  0  0  0
 16  5  1  0  0  0  0
 17 16  2  0  0  0  0
 18 10  2  0  0  0  0
 19 10  1  0  0  0  0
 19 20  2  0  0  0  0
 22 26  1  6  0  0  0
 22 28  1  0  0  0  0
 22 31  1  0  0  0  0
 23 30  1  0  0  0  0
 24 25  2  0  0  0  0
 27 25  1  0  0  0  0
 27 21  1  0  0  0  0
 28 23  2  0  0  0  0
 29 30  2  0  0  0  0
 29 24  1  0  0  0  0
 30 27  1  0  0  0  0
 31 29  1  0  0  0  0
M  END
>  <MODEL>
9

>  <REMARK>
 VINA RESULT:      -8.5      3.124      5.650
  Name = 
  2 active torsions:
  status: ('A' for Active; 'I' for Inactive)
    1  A    between atoms: N_9  and  C_23
    2  A    between atoms: C_15  and  C_23
                            x       y       z     vdW  Elec       q    Type
                         _______ _______ _______ _____ _____    ______ ____

>  <TORSDO>
F 2

$$$$
