=
 OpenBabel11052419003D

 34 38  0  0  1  0  0  0  0  0999 V2000
  186.5800  178.3020  143.0570 C   0  0  0  0  0  0  0  0  0  0  0  0
  186.0940  177.7340  145.3700 C   0  0  0  0  0  0  0  0  0  0  0  0
  187.9180  176.4660  144.0670 C   0  0  0  0  0  0  0  0  0  0  0  0
  189.7710  175.0580  144.7850 C   0  0  0  0  0  0  0  0  0  0  0  0
  185.6520  179.3440  143.1180 C   0  0  0  0  0  3  0  0  0  0  0  0
  185.1620  178.7770  145.4120 C   0  0  0  0  0  3  0  0  0  0  0  0
  189.0050  177.0290  146.2620 C   0  0  0  0  0  2  0  0  0  0  0  0
  186.8820  177.5390  144.2070 C   0  0  0  0  0  0  0  0  0  0  0  0
  190.4080  176.8950  146.8540 C   0  0  0  0  0  2  0  0  0  0  0  0
  190.6760  174.7130  145.7030 C   0  0  0  0  0  3  0  0  0  0  0  0
  184.9610  179.5950  144.3020 C   0  0  0  0  0  3  0  0  0  0  0  0
  188.0330  175.8190  142.7200 C   0  0  0  0  0  0  0  0  0  0  0  0
  187.2160  177.9630  141.7440 C   0  0  0  0  0  2  0  0  0  0  0  0
  186.1040  176.7830  146.5200 C   0  0  0  0  0  1  0  0  0  0  0  0
  189.7160  174.3680  143.5760 O   0  0  0  0  0  0  0  0  0  0  0  0
  188.8740  174.7710  142.5290 C   0  0  0  0  0  0  0  0  0  0  0  0
  190.7570  175.4170  147.0260 C   0  0  1  0  0  3  0  0  0  0  0  0
  188.8440  176.1910  145.0130 C   0  0  0  0  0  0  0  0  0  0  0  0
  187.2640  176.4420  141.5820 C   0  0  0  0  0  2  0  0  0  0  0  0
  190.3520  173.3680  139.3460 C   0  0  0  0  0  0  0  0  0  0  0  0
  189.3110  172.5680  138.8680 C   0  0  0  0  0  3  0  0  0  0  0  0
  188.9880  174.0270  141.2500 C   0  0  0  0  0  0  0  0  0  0  0  0
  188.1120  172.4860  139.5810 C   0  0  0  0  0  3  0  0  0  0  0  0
  190.1930  174.0880  140.5330 C   0  0  0  0  0  3  0  0  0  0  0  0
  187.9540  173.2060  140.7670 C   0  0  0  0  0  3  0  0  0  0  0  0
  191.5760  173.4460  138.6250 N   0  0  0  0  0  1  0  0  0  0  0  0
  192.1520  175.2580  147.6010 C   0  0  0  0  0  2  0  0  0  0  0  0
  193.1320  174.8700  146.5080 C   0  0  0  0  0  2  0  0  0  0  0  0
  193.9070  177.0600  147.1080 O   0  0  0  0  0  1  0  0  0  0  0  0
  194.2520  175.8950  146.4170 C   0  0  2  0  0  3  0  0  0  0  0  0
  194.5970  176.2150  144.9630 C   0  0  0  0  0  2  0  0  0  0  0  0
  193.1210  175.2960  143.1700 O   0  0  0  0  0  0  0  0  0  0  0  0
  193.3870  176.3020  144.0890 C   0  0  0  0  0  0  0  0  0  0  0  0
  192.5960  177.2740  144.2030 O   0  0  0  0  0  1  0  0  0  0  0  0
  1  5  2  0  0  0  0
  1  8  1  0  0  0  0
  2  6  1  0  0  0  0
  2 14  1  0  0  0  0
  3  8  1  0  0  0  0
  3 18  2  0  0  0  0
  4 18  1  0  0  0  0
  4 10  2  0  0  0  0
  5 11  1  0  0  0  0
  7  9  1  0  0  0  0
  8  2  2  0  0  0  0
  9 17  1  0  0  0  0
 10 17  1  0  0  0  0
 11  6  2  0  0  0  0
 12  3  1  0  0  0  0
 13  1  1  0  0  0  0
 15  4  1  0  0  0  0
 16 12  2  0  0  0  0
 16 15  1  0  0  0  0
 17 27  1  6  0  0  0
 18  7  1  0  0  0  0
 19 13  1  0  0  0  0
 19 12  1  0  0  0  0
 20 24  1  0  0  0  0
 21 20  2  0  0  0  0
 21 23  1  0  0  0  0
 22 16  1  0  0  0  0
 23 25  2  0  0  0  0
 24 22  2  0  0  0  0
 25 22  1  0  0  0  0
 26 20  1  0  0  0  0
 28 27  1  0  0  0  0
 30 28  1  0  0  0  0
 30 29  1  1  0  0  0
 31 30  1  0  0  0  0
 32 33  2  0  0  0  0
 33 34  1  0  0  0  0
 33 31  1  0  0  0  0
M  END
>  <MODEL>
1

>  <REMARK>
 VINA RESULT:      -8.3      0.000      0.000
  Name = 
  6 active torsions:
  status: ('A' for Active; 'I' for Inactive)
    1  A    between atoms: C_3  and  C_13
    2  A    between atoms: C_3  and  C_29
    3  A    between atoms: C_12  and  C_28
    4  A    between atoms: C_13  and  C_33
    5  A    between atoms: C_20  and  C_22
    6  A    between atoms: C_22  and  C_33
                            x       y       z     vdW  Elec       q    Type
                         _______ _______ _______ _____ _____    ______ ____

>  <TORSDO>
F 6

$$$$
=
 OpenBabel11052419003D

 34 38  0  0  1  0  0  0  0  0999 V2000
  187.4830  177.3040  144.1110 C   0  0  0  0  0  0  0  0  0  0  0  0
  187.9690  176.4310  146.3270 C   0  0  0  0  0  0  0  0  0  0  0  0
  189.3410  175.6620  144.2880 C   0  0  0  0  0  0  0  0  0  0  0  0
  191.5050  174.5630  144.0830 C   0  0  0  0  0  0  0  0  0  0  0  0
  186.5080  178.1430  144.6550 C   0  0  0  0  0  3  0  0  0  0  0  0
  186.9840  177.2720  146.8550 C   0  0  0  0  0  3  0  0  0  0  0  0
  191.0720  176.2010  146.0280 C   0  0  0  0  0  2  0  0  0  0  0  0
  188.2910  176.5020  144.9480 C   0  0  0  0  0  0  0  0  0  0  0  0
  192.5980  176.2750  146.0670 C   0  0  0  0  0  2  0  0  0  0  0  0
  192.7240  174.3050  144.5630 C   0  0  0  0  0  3  0  0  0  0  0  0
  186.2740  178.1420  146.0290 C   0  0  0  0  0  3  0  0  0  0  0  0
  189.0400  175.1830  142.9000 C   0  0  0  0  0  0  0  0  0  0  0  0
  187.6300  177.2200  142.6220 C   0  0  0  0  0  2  0  0  0  0  0  0
  188.5360  175.3910  147.2340 C   0  0  0  0  0  1  0  0  0  0  0  0
  191.1040  173.9960  142.8750 O   0  0  0  0  0  0  0  0  0  0  0  0
  189.8880  174.3350  142.2640 C   0  0  0  0  0  0  0  0  0  0  0  0
  193.1880  174.8790  145.8690 C   0  0  1  0  0  3  0  0  0  0  0  0
  190.5790  175.4740  144.7970 C   0  0  0  0  0  0  0  0  0  0  0  0
  187.8260  175.7590  142.2140 C   0  0  0  0  0  2  0  0  0  0  0  0
  190.4450  173.2070  138.7000 C   0  0  0  0  0  0  0  0  0  0  0  0
  189.2300  172.5870  138.3960 C   0  0  0  0  0  3  0  0  0  0  0  0
  189.6240  173.7540  140.9240 C   0  0  0  0  0  0  0  0  0  0  0  0
  188.2140  172.5400  139.3540 C   0  0  0  0  0  3  0  0  0  0  0  0
  190.6420  173.7800  139.9590 C   0  0  0  0  0  3  0  0  0  0  0  0
  188.4120  173.1140  140.6120 C   0  0  0  0  0  3  0  0  0  0  0  0
  191.4840  173.2490  137.7290 N   0  0  0  0  0  1  0  0  0  0  0  0
  194.7040  174.9280  145.8910 C   0  0  0  0  0  2  0  0  0  0  0  0
  195.2080  176.0650  145.0190 C   0  0  0  0  0  2  0  0  0  0  0  0
  197.1970  174.8410  144.4670 O   0  0  0  0  0  1  0  0  0  0  0  0
  196.1090  175.5260  143.9190 C   0  0  2  0  0  3  0  0  0  0  0  0
  196.5890  176.6430  142.9940 C   0  0  0  0  0  2  0  0  0  0  0  0
  196.9290  176.2460  140.5520 O   0  0  0  0  0  0  0  0  0  0  0  0
  196.0610  176.5080  141.6020 C   0  0  0  0  0  0  0  0  0  0  0  0
  194.8250  176.6060  141.3860 O   0  0  0  0  0  1  0  0  0  0  0  0
  1  5  2  0  0  0  0
  1  8  1  0  0  0  0
  2  6  1  0  0  0  0
  2 14  1  0  0  0  0
  3 18  2  0  0  0  0
  3  8  1  0  0  0  0
  4 10  2  0  0  0  0
  4 18  1  0  0  0  0
  5 11  1  0  0  0  0
  7  9  1  0  0  0  0
  8  2  2  0  0  0  0
 10 17  1  0  0  0  0
 11  6  2  0  0  0  0
 12  3  1  0  0  0  0
 13  1  1  0  0  0  0
 15  4  1  0  0  0  0
 16 15  1  0  0  0  0
 16 12  2  0  0  0  0
 17 27  1  6  0  0  0
 17  9  1  0  0  0  0
 18  7  1  0  0  0  0
 19 13  1  0  0  0  0
 19 12  1  0  0  0  0
 20 24  1  0  0  0  0
 21 20  2  0  0  0  0
 21 23  1  0  0  0  0
 22 16  1  0  0  0  0
 23 25  2  0  0  0  0
 24 22  2  0  0  0  0
 25 22  1  0  0  0  0
 26 20  1  0  0  0  0
 28 27  1  0  0  0  0
 30 29  1  1  0  0  0
 30 28  1  0  0  0  0
 31 30  1  0  0  0  0
 32 33  2  0  0  0  0
 33 31  1  0  0  0  0
 34 33  1  0  0  0  0
M  END
>  <MODEL>
2

>  <REMARK>
 VINA RESULT:      -7.4      1.773      2.377
  Name = 
  6 active torsions:
  status: ('A' for Active; 'I' for Inactive)
    1  A    between atoms: C_3  and  C_13
    2  A    between atoms: C_3  and  C_29
    3  A    between atoms: C_12  and  C_28
    4  A    between atoms: C_13  and  C_33
    5  A    between atoms: C_20  and  C_22
    6  A    between atoms: C_22  and  C_33
                            x       y       z     vdW  Elec       q    Type
                         _______ _______ _______ _____ _____    ______ ____

>  <TORSDO>
F 6

$$$$
=
 OpenBabel11052419003D

 34 38  0  0  1  0  0  0  0  0999 V2000
  191.3500  173.7640  140.6430 C   0  0  0  0  0  0  0  0  0  0  0  0
  189.0920  173.1190  141.2700 C   0  0  0  0  0  0  0  0  0  0  0  0
  190.7420  173.9950  143.0430 C   0  0  0  0  0  0  0  0  0  0  0  0
  190.4230  174.8800  145.2890 C   0  0  0  0  0  0  0  0  0  0  0  0
  191.0520  173.5070  139.3030 C   0  0  0  0  0  3  0  0  0  0  0  0
  188.8110  172.8580  139.9250 C   0  0  0  0  0  3  0  0  0  0  0  0
  188.6250  175.2770  143.4830 C   0  0  0  0  0  2  0  0  0  0  0  0
  190.3500  173.6630  141.6360 C   0  0  0  0  0  0  0  0  0  0  0  0
  188.2140  176.4270  144.4020 C   0  0  0  0  0  2  0  0  0  0  0  0
  189.6630  175.5030  146.1930 C   0  0  0  0  0  3  0  0  0  0  0  0
  189.7770  173.0750  138.9430 C   0  0  0  0  0  3  0  0  0  0  0  0
  192.1670  173.7250  143.4220 C   0  0  0  0  0  0  0  0  0  0  0  0
  192.7580  174.1000  141.0290 C   0  0  0  0  0  2  0  0  0  0  0  0
  188.0850  172.6710  142.2760 C   0  0  0  0  0  1  0  0  0  0  0  0
  191.6990  174.4450  145.6430 O   0  0  0  0  0  0  0  0  0  0  0  0
  192.5850  173.9020  144.7010 C   0  0  0  0  0  0  0  0  0  0  0  0
  188.2770  175.9710  145.8590 C   0  0  1  0  0  3  0  0  0  0  0  0
  189.9480  174.6740  143.9010 C   0  0  0  0  0  0  0  0  0  0  0  0
  193.1220  173.3550  142.3150 C   0  0  0  0  0  2  0  0  0  0  0  0
  195.6060  171.8920  145.7590 C   0  0  0  0  0  0  0  0  0  0  0  0
  196.5610  172.8900  145.9730 C   0  0  0  0  0  3  0  0  0  0  0  0
  193.9550  173.5810  145.1730 C   0  0  0  0  0  0  0  0  0  0  0  0
  196.2210  174.2310  145.7790 C   0  0  0  0  0  3  0  0  0  0  0  0
  194.3130  172.2370  145.3550 C   0  0  0  0  0  3  0  0  0  0  0  0
  194.9290  174.5740  145.3760 C   0  0  0  0  0  3  0  0  0  0  0  0
  195.9520  170.5260  145.9480 N   0  0  0  0  0  1  0  0  0  0  0  0
  187.8840  177.1000  146.7930 C   0  0  0  0  0  2  0  0  0  0  0  0
  186.3720  177.1860  146.9100 C   0  0  0  0  0  2  0  0  0  0  0  0
  185.8430  179.4200  147.6090 O   0  0  0  0  0  1  0  0  0  0  0  0
  185.8900  178.5690  146.5010 C   0  0  2  0  0  3  0  0  0  0  0  0
  184.5250  178.5030  145.8170 C   0  0  0  0  0  2  0  0  0  0  0  0
  185.4780  180.1300  144.1780 O   0  0  0  0  0  1  0  0  0  0  0  0
  184.5160  179.1760  144.4820 C   0  0  0  0  0  0  0  0  0  0  0  0
  183.6510  178.8610  143.6240 O   0  0  0  0  0  0  0  0  0  0  0  0
  1 13  1  0  0  0  0
  1  8  1  0  0  0  0
  2  8  2  0  0  0  0
  2 14  1  0  0  0  0
  3 12  1  0  0  0  0
  3 18  2  0  0  0  0
  4 15  1  0  0  0  0
  4 10  2  0  0  0  0
  5  1  2  0  0  0  0
  6  2  1  0  0  0  0
  7 18  1  0  0  0  0
  7  9  1  0  0  0  0
  8  3  1  0  0  0  0
  9 17  1  0  0  0  0
 11  5  1  0  0  0  0
 11  6  2  0  0  0  0
 12 16  2  0  0  0  0
 13 19  1  0  0  0  0
 16 22  1  0  0  0  0
 16 15  1  0  0  0  0
 17 10  1  0  0  0  0
 17 27  1  1  0  0  0
 18  4  1  0  0  0  0
 19 12  1  0  0  0  0
 20 26  1  0  0  0  0
 20 21  1  0  0  0  0
 22 24  1  0  0  0  0
 22 25  2  0  0  0  0
 23 21  2  0  0  0  0
 24 20  2  0  0  0  0
 25 23  1  0  0  0  0
 27 28  1  0  0  0  0
 30 28  1  0  0  0  0
 30 29  1  1  0  0  0
 31 30  1  0  0  0  0
 32 33  1  0  0  0  0
 33 31  1  0  0  0  0
 34 33  2  0  0  0  0
M  END
>  <MODEL>
3

>  <REMARK>
 VINA RESULT:      -7.4      3.268      7.095
  Name = 
  6 active torsions:
  status: ('A' for Active; 'I' for Inactive)
    1  A    between atoms: C_3  and  C_13
    2  A    between atoms: C_3  and  C_29
    3  A    between atoms: C_12  and  C_28
    4  A    between atoms: C_13  and  C_33
    5  A    between atoms: C_20  and  C_22
    6  A    between atoms: C_22  and  C_33
                            x       y       z     vdW  Elec       q    Type
                         _______ _______ _______ _____ _____    ______ ____

>  <TORSDO>
F 6

$$$$
=
 OpenBabel11052419003D

 34 38  0  0  1  0  0  0  0  0999 V2000
  191.6870  176.3840  144.9650 C   0  0  0  0  0  0  0  0  0  0  0  0
  191.7980  173.9580  144.8600 C   0  0  0  0  0  0  0  0  0  0  0  0
  189.8620  175.2300  143.7330 C   0  0  0  0  0  0  0  0  0  0  0  0
  188.2490  174.5870  142.0250 C   0  0  0  0  0  0  0  0  0  0  0  0
  192.9080  176.4120  145.6410 C   0  0  0  0  0  3  0  0  0  0  0  0
  193.0170  174.0020  145.5450 C   0  0  0  0  0  3  0  0  0  0  0  0
  190.6300  173.5970  141.9830 C   0  0  0  0  0  2  0  0  0  0  0  0
  191.1570  175.1660  144.4830 C   0  0  0  0  0  0  0  0  0  0  0  0
  190.2990  173.3310  140.5150 C   0  0  0  0  0  2  0  0  0  0  0  0
  187.9140  173.8420  140.9690 C   0  0  0  0  0  3  0  0  0  0  0  0
  193.5830  175.2220  145.9110 C   0  0  0  0  0  3  0  0  0  0  0  0
  188.9160  176.3260  144.1210 C   0  0  0  0  0  0  0  0  0  0  0  0
  190.9130  177.6560  144.7990 C   0  0  0  0  0  2  0  0  0  0  0  0
  191.1610  172.6200  144.6860 C   0  0  0  0  0  1  0  0  0  0  0  0
  187.3360  175.5030  142.5420 O   0  0  0  0  0  0  0  0  0  0  0  0
  187.6810  176.3990  143.5650 C   0  0  0  0  0  0  0  0  0  0  0  0
  188.8610  172.8310  140.3930 C   0  0  1  0  0  3  0  0  0  0  0  0
  189.5940  174.4840  142.6370 C   0  0  0  0  0  0  0  0  0  0  0  0
  189.4300  177.3850  145.0640 C   0  0  0  0  0  2  0  0  0  0  0  0
  184.9400  178.1160  145.5210 C   0  0  0  0  0  0  0  0  0  0  0  0
  184.7710  179.3040  144.8050 C   0  0  0  0  0  3  0  0  0  0  0  0
  186.6590  177.4030  143.9530 C   0  0  0  0  0  0  0  0  0  0  0  0
  185.5480  179.5510  143.6710 C   0  0  0  0  0  3  0  0  0  0  0  0
  185.8830  177.1750  145.1000 C   0  0  0  0  0  3  0  0  0  0  0  0
  186.4910  178.6090  143.2510 C   0  0  0  0  0  3  0  0  0  0  0  0
  184.1550  177.8670  146.6800 N   0  0  0  0  0  1  0  0  0  0  0  0
  188.5030  172.5710  138.9410 C   0  0  0  0  0  2  0  0  0  0  0  0
  188.2950  173.8830  138.2060 C   0  0  0  0  0  2  0  0  0  0  0  0
  188.7100  174.7770  136.0180 O   0  0  0  0  0  1  0  0  0  0  0  0
  189.2580  173.9890  137.0340 C   0  0  2  0  0  3  0  0  0  0  0  0
  189.6350  172.6090  136.4970 C   0  0  0  0  0  2  0  0  0  0  0  0
  191.8930  172.1130  137.4460 O   0  0  0  0  0  1  0  0  0  0  0  0
  191.1120  172.4340  136.3430 C   0  0  0  0  0  0  0  0  0  0  0  0
  191.6450  172.5530  135.2100 O   0  0  0  0  0  0  0  0  0  0  0  0
  1  5  1  0  0  0  0
  2  6  2  0  0  0  0
  3 12  1  0  0  0  0
  3  8  1  0  0  0  0
  4 15  1  0  0  0  0
  4 18  1  0  0  0  0
  5 11  2  0  0  0  0
  6 11  1  0  0  0  0
  7 18  1  0  0  0  0
  8  2  1  0  0  0  0
  8  1  2  0  0  0  0
  9  7  1  0  0  0  0
 10  4  2  0  0  0  0
 12 19  1  0  0  0  0
 13  1  1  0  0  0  0
 13 19  1  0  0  0  0
 14  2  1  0  0  0  0
 15 16  1  0  0  0  0
 16 22  1  0  0  0  0
 16 12  2  0  0  0  0
 17 27  1  6  0  0  0
 17  9  1  0  0  0  0
 17 10  1  0  0  0  0
 18  3  2  0  0  0  0
 20 26  1  0  0  0  0
 21 20  2  0  0  0  0
 22 24  2  0  0  0  0
 23 21  1  0  0  0  0
 24 20  1  0  0  0  0
 25 23  2  0  0  0  0
 25 22  1  0  0  0  0
 28 27  1  0  0  0  0
 30 29  1  6  0  0  0
 30 28  1  0  0  0  0
 31 30  1  0  0  0  0
 33 31  1  0  0  0  0
 33 32  1  0  0  0  0
 34 33  2  0  0  0  0
M  END
>  <MODEL>
4

>  <REMARK>
 VINA RESULT:      -7.4      3.359      7.601
  Name = 
  6 active torsions:
  status: ('A' for Active; 'I' for Inactive)
    1  A    between atoms: C_3  and  C_13
    2  A    between atoms: C_3  and  C_29
    3  A    between atoms: C_12  and  C_28
    4  A    between atoms: C_13  and  C_33
    5  A    between atoms: C_20  and  C_22
    6  A    between atoms: C_22  and  C_33
                            x       y       z     vdW  Elec       q    Type
                         _______ _______ _______ _____ _____    ______ ____

>  <TORSDO>
F 6

$$$$
=
 OpenBabel11052419003D

 34 38  0  0  1  0  0  0  0  0999 V2000
  191.0500  173.5650  140.3130 C   0  0  0  0  0  0  0  0  0  0  0  0
  188.7060  173.0190  140.6570 C   0  0  0  0  0  0  0  0  0  0  0  0
  189.8250  174.8980  142.0180 C   0  0  0  0  0  0  0  0  0  0  0  0
  188.9190  176.7470  143.3170 C   0  0  0  0  0  0  0  0  0  0  0  0
  191.1190  172.6230  139.2850 C   0  0  0  0  0  3  0  0  0  0  0  0
  188.7940  172.0730  139.6300 C   0  0  0  0  0  3  0  0  0  0  0  0
  187.6670  175.9120  141.2230 C   0  0  0  0  0  2  0  0  0  0  0  0
  189.8210  173.8440  140.9530 C   0  0  0  0  0  0  0  0  0  0  0  0
  187.0260  177.2980  141.2750 C   0  0  0  0  0  2  0  0  0  0  0  0
  187.9460  177.6300  143.5560 C   0  0  0  0  0  3  0  0  0  0  0  0
  189.9860  171.8930  138.9290 C   0  0  0  0  0  3  0  0  0  0  0  0
  191.0970  175.0620  142.7930 C   0  0  0  0  0  0  0  0  0  0  0  0
  192.3040  174.2450  140.7700 C   0  0  0  0  0  2  0  0  0  0  0  0
  187.4680  173.0090  141.4890 C   0  0  0  0  0  1  0  0  0  0  0  0
  190.0550  176.7380  144.1240 O   0  0  0  0  0  0  0  0  0  0  0  0
  191.1600  175.9220  143.8400 C   0  0  0  0  0  0  0  0  0  0  0  0
  186.6990  177.6620  142.7220 C   0  0  1  0  0  3  0  0  0  0  0  0
  188.8310  175.7990  142.1830 C   0  0  0  0  0  0  0  0  0  0  0  0
  192.3130  174.3180  142.2980 C   0  0  0  0  0  2  0  0  0  0  0  0
  194.7290  176.5820  144.8940 C   0  0  0  0  0  0  0  0  0  0  0  0
  194.6430  176.4970  146.2860 C   0  0  0  0  0  3  0  0  0  0  0  0
  192.3550  176.0830  144.7060 C   0  0  0  0  0  0  0  0  0  0  0  0
  193.4170  176.2150  146.8920 C   0  0  0  0  0  3  0  0  0  0  0  0
  193.5900  176.3830  144.1100 C   0  0  0  0  0  3  0  0  0  0  0  0
  192.2790  176.0160  146.1070 C   0  0  0  0  0  3  0  0  0  0  0  0
  195.9760  176.8760  144.2750 N   0  0  0  0  0  1  0  0  0  0  0  0
  186.0710  179.0410  142.8010 C   0  0  0  0  0  2  0  0  0  0  0  0
  185.6730  179.3590  144.2330 C   0  0  0  0  0  2  0  0  0  0  0  0
  183.3180  179.0410  143.9040 O   0  0  0  0  0  1  0  0  0  0  0  0
  184.4270  178.5780  144.6180 C   0  0  2  0  0  3  0  0  0  0  0  0
  184.1660  178.6530  146.1220 C   0  0  0  0  0  2  0  0  0  0  0  0
  185.8980  177.0290  146.8980 O   0  0  0  0  0  0  0  0  0  0  0  0
  185.3750  178.3130  146.9350 C   0  0  0  0  0  0  0  0  0  0  0  0
  185.9320  179.1990  147.6330 O   0  0  0  0  0  1  0  0  0  0  0  0
  1 13  1  0  0  0  0
  1  8  1  0  0  0  0
  2  8  2  0  0  0  0
  2 14  1  0  0  0  0
  3 18  2  0  0  0  0
  3 12  1  0  0  0  0
  4 10  2  0  0  0  0
  4 15  1  0  0  0  0
  5  1  2  0  0  0  0
  6  2  1  0  0  0  0
  7  9  1  0  0  0  0
  7 18  1  0  0  0  0
  8  3  1  0  0  0  0
  9 17  1  0  0  0  0
 11  5  1  0  0  0  0
 11  6  2  0  0  0  0
 12 16  2  0  0  0  0
 13 19  1  0  0  0  0
 16 15  1  0  0  0  0
 16 22  1  0  0  0  0
 17 27  1  6  0  0  0
 17 10  1  0  0  0  0
 18  4  1  0  0  0  0
 19 12  1  0  0  0  0
 20 21  1  0  0  0  0
 21 23  2  0  0  0  0
 22 25  2  0  0  0  0
 24 22  1  0  0  0  0
 24 20  2  0  0  0  0
 25 23  1  0  0  0  0
 26 20  1  0  0  0  0
 27 28  1  0  0  0  0
 28 30  1  0  0  0  0
 30 29  1  6  0  0  0
 30 31  1  0  0  0  0
 31 33  1  0  0  0  0
 32 33  2  0  0  0  0
 33 34  1  0  0  0  0
M  END
>  <MODEL>
5

>  <REMARK>
 VINA RESULT:      -7.2      2.787      7.399
  Name = 
  6 active torsions:
  status: ('A' for Active; 'I' for Inactive)
    1  A    between atoms: C_3  and  C_13
    2  A    between atoms: C_3  and  C_29
    3  A    between atoms: C_12  and  C_28
    4  A    between atoms: C_13  and  C_33
    5  A    between atoms: C_20  and  C_22
    6  A    between atoms: C_22  and  C_33
                            x       y       z     vdW  Elec       q    Type
                         _______ _______ _______ _____ _____    ______ ____

>  <TORSDO>
F 6

$$$$
=
 OpenBabel11052419003D

 34 38  0  0  1  0  0  0  0  0999 V2000
  187.7210  176.3250  146.5420 C   0  0  0  0  0  0  0  0  0  0  0  0
  186.7470  177.4060  144.5960 C   0  0  0  0  0  0  0  0  0  0  0  0
  188.8790  175.9800  144.3700 C   0  0  0  0  0  0  0  0  0  0  0  0
  189.9730  174.9530  142.4520 C   0  0  0  0  0  0  0  0  0  0  0  0
  186.6660  176.7910  147.3300 C   0  0  0  0  0  3  0  0  0  0  0  0
  185.7000  177.8720  145.3990 C   0  0  0  0  0  3  0  0  0  0  0  0
  187.4040  175.1870  142.4950 C   0  0  0  0  0  2  0  0  0  0  0  0
  187.7310  176.5470  145.1470 C   0  0  0  0  0  0  0  0  0  0  0  0
  187.4660  174.0710  141.4530 C   0  0  0  0  0  2  0  0  0  0  0  0
  189.9110  174.4280  141.2250 C   0  0  0  0  0  3  0  0  0  0  0  0
  185.6450  177.5450  146.7530 C   0  0  0  0  0  3  0  0  0  0  0  0
  190.1870  175.8670  145.0930 C   0  0  0  0  0  0  0  0  0  0  0  0
  188.8740  175.6300  147.2000 C   0  0  0  0  0  2  0  0  0  0  0  0
  186.8460  177.9640  143.2150 C   0  0  0  0  0  1  0  0  0  0  0  0
  191.2000  175.0360  143.1050 O   0  0  0  0  0  0  0  0  0  0  0  0
  191.3030  175.4580  144.4390 C   0  0  0  0  0  0  0  0  0  0  0  0
  188.6120  174.3370  140.4790 C   0  0  1  0  0  3  0  0  0  0  0  0
  188.7500  175.4150  143.1480 C   0  0  0  0  0  0  0  0  0  0  0  0
  190.1830  176.1240  146.5800 C   0  0  0  0  0  2  0  0  0  0  0  0
  194.6300  174.0890  145.5980 C   0  0  0  0  0  0  0  0  0  0  0  0
  195.2410  175.2240  146.1380 C   0  0  0  0  0  3  0  0  0  0  0  0
  192.6490  175.3960  145.0620 C   0  0  0  0  0  0  0  0  0  0  0  0
  194.5660  176.4470  146.1330 C   0  0  0  0  0  3  0  0  0  0  0  0
  193.3440  174.1770  145.0580 C   0  0  0  0  0  3  0  0  0  0  0  0
  193.2810  176.5340  145.5930 C   0  0  0  0  0  3  0  0  0  0  0  0
  195.3190  172.8440  145.5950 N   0  0  0  0  0  1  0  0  0  0  0  0
  188.7020  173.2340  139.4400 C   0  0  0  0  0  2  0  0  0  0  0  0
  190.1070  173.1600  138.8680 C   0  0  0  0  0  2  0  0  0  0  0  0
  189.4030  170.8780  138.6380 O   0  0  0  0  0  1  0  0  0  0  0  0
  190.5250  171.7100  138.6840 C   0  0  2  0  0  3  0  0  0  0  0  0
  191.4810  171.2620  139.7880 C   0  0  0  0  0  2  0  0  0  0  0  0
  190.8390  169.0820  140.8260 O   0  0  0  0  0  0  0  0  0  0  0  0
  190.7980  170.4690  140.8560 C   0  0  0  0  0  0  0  0  0  0  0  0
  190.2050  171.0590  141.7960 O   0  0  0  0  0  1  0  0  0  0  0  0
  1 13  1  0  0  0  0
  1  5  1  0  0  0  0
  2  8  1  0  0  0  0
  2  6  2  0  0  0  0
  3 12  1  0  0  0  0
  3  8  1  0  0  0  0
  4 15  1  0  0  0  0
  4 18  1  0  0  0  0
  6 11  1  0  0  0  0
  7 18  1  0  0  0  0
  8  1  2  0  0  0  0
  9  7  1  0  0  0  0
 10  4  2  0  0  0  0
 11  5  2  0  0  0  0
 12 19  1  0  0  0  0
 14  2  1  0  0  0  0
 15 16  1  0  0  0  0
 16 22  1  0  0  0  0
 16 12  2  0  0  0  0
 17 27  1  6  0  0  0
 17 10  1  0  0  0  0
 17  9  1  0  0  0  0
 18  3  2  0  0  0  0
 19 13  1  0  0  0  0
 20 21  1  0  0  0  0
 22 25  2  0  0  0  0
 23 21  2  0  0  0  0
 24 22  1  0  0  0  0
 24 20  2  0  0  0  0
 25 23  1  0  0  0  0
 26 20  1  0  0  0  0
 28 27  1  0  0  0  0
 30 29  1  1  0  0  0
 30 28  1  0  0  0  0
 30 31  1  0  0  0  0
 31 33  1  0  0  0  0
 32 33  2  0  0  0  0
 33 34  1  0  0  0  0
M  END
>  <MODEL>
6

>  <REMARK>
 VINA RESULT:      -7.2      2.458      6.271
  Name = 
  6 active torsions:
  status: ('A' for Active; 'I' for Inactive)
    1  A    between atoms: C_3  and  C_13
    2  A    between atoms: C_3  and  C_29
    3  A    between atoms: C_12  and  C_28
    4  A    between atoms: C_13  and  C_33
    5  A    between atoms: C_20  and  C_22
    6  A    between atoms: C_22  and  C_33
                            x       y       z     vdW  Elec       q    Type
                         _______ _______ _______ _____ _____    ______ ____

>  <TORSDO>
F 6

$$$$
=
 OpenBabel11052419003D

 34 38  0  0  1  0  0  0  0  0999 V2000
  187.8070  177.2120  146.0620 C   0  0  0  0  0  0  0  0  0  0  0  0
  186.9690  177.9430  143.9000 C   0  0  0  0  0  0  0  0  0  0  0  0
  188.9750  176.3340  144.0510 C   0  0  0  0  0  0  0  0  0  0  0  0
  190.0150  174.8490  142.4250 C   0  0  0  0  0  0  0  0  0  0  0  0
  186.7800  177.9130  146.6980 C   0  0  0  0  0  3  0  0  0  0  0  0
  185.9510  178.6460  144.5520 C   0  0  0  0  0  3  0  0  0  0  0  0
  187.4770  175.2920  142.3230 C   0  0  0  0  0  2  0  0  0  0  0  0
  187.8650  177.1400  144.6520 C   0  0  0  0  0  0  0  0  0  0  0  0
  187.4620  173.9830  141.5340 C   0  0  0  0  0  2  0  0  0  0  0  0
  189.9340  174.0890  141.3300 C   0  0  0  0  0  3  0  0  0  0  0  0
  185.8400  178.6110  145.9410 C   0  0  0  0  0  3  0  0  0  0  0  0
  190.2540  176.2690  144.8310 C   0  0  0  0  0  0  0  0  0  0  0  0
  188.8830  176.5780  146.8900 C   0  0  0  0  0  2  0  0  0  0  0  0
  187.1440  178.1930  142.4400 C   0  0  0  0  0  1  0  0  0  0  0  0
  191.2320  174.9670  143.0930 O   0  0  0  0  0  0  0  0  0  0  0  0
  191.3440  175.6450  144.3160 C   0  0  0  0  0  0  0  0  0  0  0  0
  188.6480  173.9500  140.5700 C   0  0  1  0  0  3  0  0  0  0  0  0
  188.8230  175.5420  142.9660 C   0  0  0  0  0  0  0  0  0  0  0  0
  190.2410  176.8260  146.2320 C   0  0  0  0  0  2  0  0  0  0  0  0
  194.6140  174.3130  145.6640 C   0  0  0  0  0  0  0  0  0  0  0  0
  195.2180  175.4710  146.1630 C   0  0  0  0  0  3  0  0  0  0  0  0
  192.6660  175.6060  144.9890 C   0  0  0  0  0  0  0  0  0  0  0  0
  194.5560  176.6970  146.0680 C   0  0  0  0  0  3  0  0  0  0  0  0
  193.3480  174.3830  145.0750 C   0  0  0  0  0  3  0  0  0  0  0  0
  193.2910  176.7660  145.4790 C   0  0  0  0  0  3  0  0  0  0  0  0
  195.2890  173.0650  145.7530 N   0  0  0  0  0  1  0  0  0  0  0  0
  188.6630  172.6530  139.7820 C   0  0  0  0  0  2  0  0  0  0  0  0
  188.1700  172.8910  138.3650 C   0  0  0  0  0  2  0  0  0  0  0  0
  187.8150  175.0000  137.2780 O   0  0  0  0  0  1  0  0  0  0  0  0
  188.7990  174.1510  137.7930 C   0  0  2  0  0  3  0  0  0  0  0  0
  189.8360  173.8200  136.7210 C   0  0  0  0  0  2  0  0  0  0  0  0
  191.9740  175.0770  136.4190 O   0  0  0  0  0  0  0  0  0  0  0  0
  191.2310  174.1560  137.1440 C   0  0  0  0  0  0  0  0  0  0  0  0
  191.7220  173.6230  138.1730 O   0  0  0  0  0  1  0  0  0  0  0  0
  1  5  1  0  0  0  0
  1 13  1  0  0  0  0
  2  6  2  0  0  0  0
  2  8  1  0  0  0  0
  3  8  1  0  0  0  0
  3 12  1  0  0  0  0
  4 18  1  0  0  0  0
  4 15  1  0  0  0  0
  6 11  1  0  0  0  0
  7 18  1  0  0  0  0
  8  1  2  0  0  0  0
  9  7  1  0  0  0  0
 10  4  2  0  0  0  0
 11  5  2  0  0  0  0
 12 19  1  0  0  0  0
 14  2  1  0  0  0  0
 15 16  1  0  0  0  0
 16 12  2  0  0  0  0
 16 22  1  0  0  0  0
 17 27  1  1  0  0  0
 17 10  1  0  0  0  0
 17  9  1  0  0  0  0
 18  3  2  0  0  0  0
 19 13  1  0  0  0  0
 20 26  1  0  0  0  0
 20 21  1  0  0  0  0
 22 24  1  0  0  0  0
 22 25  2  0  0  0  0
 23 21  2  0  0  0  0
 24 20  2  0  0  0  0
 25 23  1  0  0  0  0
 28 27  1  0  0  0  0
 30 29  1  6  0  0  0
 30 28  1  0  0  0  0
 31 33  1  0  0  0  0
 31 30  1  0  0  0  0
 32 33  2  0  0  0  0
 33 34  1  0  0  0  0
M  END
>  <MODEL>
7

>  <REMARK>
 VINA RESULT:      -7.1      2.643      6.428
  Name = 
  6 active torsions:
  status: ('A' for Active; 'I' for Inactive)
    1  A    between atoms: C_3  and  C_13
    2  A    between atoms: C_3  and  C_29
    3  A    between atoms: C_12  and  C_28
    4  A    between atoms: C_13  and  C_33
    5  A    between atoms: C_20  and  C_22
    6  A    between atoms: C_22  and  C_33
                            x       y       z     vdW  Elec       q    Type
                         _______ _______ _______ _____ _____    ______ ____

>  <TORSDO>
F 6

$$$$
=
 OpenBabel11052419003D

 34 38  0  0  1  0  0  0  0  0999 V2000
  193.5080  173.3980  144.5980 C   0  0  0  0  0  0  0  0  0  0  0  0
  193.6860  175.6880  145.3910 C   0  0  0  0  0  0  0  0  0  0  0  0
  191.5290  174.8630  144.2510 C   0  0  0  0  0  0  0  0  0  0  0  0
  189.2560  175.7340  144.2100 C   0  0  0  0  0  0  0  0  0  0  0  0
  194.7730  173.1190  145.1170 C   0  0  0  0  0  3  0  0  0  0  0  0
  194.9560  175.3960  145.8980 C   0  0  0  0  0  3  0  0  0  0  0  0
  190.7210  176.0600  146.3070 C   0  0  0  0  0  2  0  0  0  0  0  0
  192.9060  174.6590  144.8060 C   0  0  0  0  0  0  0  0  0  0  0  0
  189.3720  176.2590  146.9980 C   0  0  0  0  0  2  0  0  0  0  0  0
  188.2720  176.4340  144.7800 C   0  0  0  0  0  3  0  0  0  0  0  0
  195.4870  174.1110  145.7860 C   0  0  0  0  0  3  0  0  0  0  0  0
  191.1870  174.0940  143.0100 C   0  0  0  0  0  0  0  0  0  0  0  0
  192.8110  172.3610  143.7700 C   0  0  0  0  0  2  0  0  0  0  0  0
  193.2750  177.1230  145.3670 C   0  0  0  0  0  1  0  0  0  0  0  0
  189.0500  175.1430  142.9650 O   0  0  0  0  0  0  0  0  0  0  0  0
  190.0010  174.2920  142.3820 C   0  0  0  0  0  0  0  0  0  0  0  0
  188.4580  177.1030  146.1100 C   0  0  1  0  0  3  0  0  0  0  0  0
  190.5550  175.5420  144.8960 C   0  0  0  0  0  0  0  0  0  0  0  0
  192.1610  173.0340  142.5590 C   0  0  0  0  0  2  0  0  0  0  0  0
  188.5550  173.7880  138.9260 C   0  0  0  0  0  0  0  0  0  0  0  0
  188.9480  172.4800  138.6330 C   0  0  0  0  0  3  0  0  0  0  0  0
  189.6210  173.6320  141.1080 C   0  0  0  0  0  0  0  0  0  0  0  0
  189.6840  171.7480  139.5670 C   0  0  0  0  0  3  0  0  0  0  0  0
  188.8960  174.3620  140.1540 C   0  0  0  0  0  3  0  0  0  0  0  0
  190.0240  172.3220  140.7950 C   0  0  0  0  0  3  0  0  0  0  0  0
  187.8120  174.5380  137.9730 N   0  0  0  0  0  1  0  0  0  0  0  0
  187.1060  177.3050  146.7700 C   0  0  0  0  0  2  0  0  0  0  0  0
  186.0220  177.4560  145.7160 C   0  0  0  0  0  2  0  0  0  0  0  0
  184.0390  178.7380  146.1390 O   0  0  0  0  0  1  0  0  0  0  0  0
  185.3920  178.8370  145.8030 C   0  0  2  0  0  3  0  0  0  0  0  0
  185.5660  179.6120  144.4980 C   0  0  0  0  0  2  0  0  0  0  0  0
  184.1700  178.2190  142.9640 O   0  0  0  0  0  1  0  0  0  0  0  0
  185.4130  178.7460  143.2880 C   0  0  0  0  0  0  0  0  0  0  0  0
  186.4050  178.5160  142.5500 O   0  0  0  0  0  0  0  0  0  0  0  0
  1  8  2  0  0  0  0
  1  5  1  0  0  0  0
  2  6  2  0  0  0  0
  3  8  1  0  0  0  0
  3 18  2  0  0  0  0
  4 10  2  0  0  0  0
  4 18  1  0  0  0  0
  5 11  2  0  0  0  0
  7  9  1  0  0  0  0
  8  2  1  0  0  0  0
 10 17  1  0  0  0  0
 11  6  1  0  0  0  0
 12  3  1  0  0  0  0
 13  1  1  0  0  0  0
 14  2  1  0  0  0  0
 15  4  1  0  0  0  0
 16 15  1  0  0  0  0
 16 12  2  0  0  0  0
 17 27  1  1  0  0  0
 17  9  1  0  0  0  0
 18  7  1  0  0  0  0
 19 12  1  0  0  0  0
 19 13  1  0  0  0  0
 20 24  1  0  0  0  0
 21 20  2  0  0  0  0
 21 23  1  0  0  0  0
 22 16  1  0  0  0  0
 23 25  2  0  0  0  0
 24 22  2  0  0  0  0
 25 22  1  0  0  0  0
 26 20  1  0  0  0  0
 28 30  1  0  0  0  0
 28 27  1  0  0  0  0
 30 29  1  6  0  0  0
 31 30  1  0  0  0  0
 32 33  1  0  0  0  0
 33 31  1  0  0  0  0
 34 33  2  0  0  0  0
M  END
>  <MODEL>
8

>  <REMARK>
 VINA RESULT:      -7.1      2.579      6.361
  Name = 
  6 active torsions:
  status: ('A' for Active; 'I' for Inactive)
    1  A    between atoms: C_3  and  C_13
    2  A    between atoms: C_3  and  C_29
    3  A    between atoms: C_12  and  C_28
    4  A    between atoms: C_13  and  C_33
    5  A    between atoms: C_20  and  C_22
    6  A    between atoms: C_22  and  C_33
                            x       y       z     vdW  Elec       q    Type
                         _______ _______ _______ _____ _____    ______ ____

>  <TORSDO>
F 6

$$$$
=
 OpenBabel11052419003D

 34 38  0  0  1  0  0  0  0  0999 V2000
  194.6240  172.4260  144.8640 C   0  0  0  0  0  0  0  0  0  0  0  0
  195.1370  174.6550  145.6860 C   0  0  0  0  0  0  0  0  0  0  0  0
  192.9140  174.1870  144.4720 C   0  0  0  0  0  0  0  0  0  0  0  0
  190.8090  175.4070  144.3720 C   0  0  0  0  0  0  0  0  0  0  0  0
  195.8130  171.9470  145.4180 C   0  0  0  0  0  3  0  0  0  0  0  0
  196.3280  174.1620  146.2290 C   0  0  0  0  0  3  0  0  0  0  0  0
  192.2400  175.4850  146.5160 C   0  0  0  0  0  2  0  0  0  0  0  0
  194.2230  173.7650  145.0670 C   0  0  0  0  0  0  0  0  0  0  0  0
  190.9180  175.8910  147.1670 C   0  0  0  0  0  2  0  0  0  0  0  0
  189.9300  176.2510  144.9190 C   0  0  0  0  0  3  0  0  0  0  0  0
  196.6530  172.8110  146.1190 C   0  0  0  0  0  3  0  0  0  0  0  0
  192.4950  173.4900  143.2130 C   0  0  0  0  0  0  0  0  0  0  0  0
  193.8000  171.5170  144.0040 C   0  0  0  0  0  2  0  0  0  0  0  0
  194.9590  176.1360  145.6650 C   0  0  0  0  0  1  0  0  0  0  0  0
  190.5520  174.8630  143.1150 O   0  0  0  0  0  0  0  0  0  0  0  0
  191.3740  173.8760  142.5520 C   0  0  0  0  0  0  0  0  0  0  0  0
  190.1770  176.8740  146.2620 C   0  0  1  0  0  3  0  0  0  0  0  0
  192.0390  175.0080  145.0950 C   0  0  0  0  0  0  0  0  0  0  0  0
  193.3030  172.2910  142.7810 C   0  0  0  0  0  2  0  0  0  0  0  0
  191.1220  173.2410  138.8340 C   0  0  0  0  0  0  0  0  0  0  0  0
  190.2260  172.1700  138.7810 C   0  0  0  0  0  3  0  0  0  0  0  0
  190.9360  173.2910  141.2600 C   0  0  0  0  0  0  0  0  0  0  0  0
  189.6910  171.6510  139.9620 C   0  0  0  0  0  3  0  0  0  0  0  0
  191.4790  173.7930  140.0680 C   0  0  0  0  0  3  0  0  0  0  0  0
  190.0480  172.2030  141.1940 C   0  0  0  0  0  3  0  0  0  0  0  0
  191.6740  173.7670  137.6340 N   0  0  0  0  0  1  0  0  0  0  0  0
  188.8540  177.2830  146.8810 C   0  0  0  0  0  2  0  0  0  0  0  0
  187.8190  176.1880  146.6880 C   0  0  0  0  0  2  0  0  0  0  0  0
  186.3700  176.6080  144.8220 O   0  0  0  0  0  1  0  0  0  0  0  0
  186.5070  176.7820  146.2030 C   0  0  2  0  0  3  0  0  0  0  0  0
  186.3960  178.2620  146.5700 C   0  0  0  0  0  2  0  0  0  0  0  0
  185.5790  179.8480  144.8220 O   0  0  0  0  0  0  0  0  0  0  0  0
  185.2880  178.9550  145.8440 C   0  0  0  0  0  0  0  0  0  0  0  0
  184.0900  178.7110  146.1430 O   0  0  0  0  0  1  0  0  0  0  0  0
  1  8  2  0  0  0  0
  1  5  1  0  0  0  0
  2  6  2  0  0  0  0
  3  8  1  0  0  0  0
  3 18  2  0  0  0  0
  4 10  2  0  0  0  0
  4 18  1  0  0  0  0
  5 11  2  0  0  0  0
  7  9  1  0  0  0  0
  8  2  1  0  0  0  0
 10 17  1  0  0  0  0
 11  6  1  0  0  0  0
 12  3  1  0  0  0  0
 13  1  1  0  0  0  0
 14  2  1  0  0  0  0
 15  4  1  0  0  0  0
 16 15  1  0  0  0  0
 16 12  2  0  0  0  0
 17 27  1  1  0  0  0
 17  9  1  0  0  0  0
 18  7  1  0  0  0  0
 19 12  1  0  0  0  0
 19 13  1  0  0  0  0
 20 24  1  0  0  0  0
 21 20  2  0  0  0  0
 21 23  1  0  0  0  0
 22 16  1  0  0  0  0
 23 25  2  0  0  0  0
 24 22  2  0  0  0  0
 25 22  1  0  0  0  0
 26 20  1  0  0  0  0
 28 27  1  0  0  0  0
 30 29  1  6  0  0  0
 30 31  1  0  0  0  0
 30 28  1  0  0  0  0
 32 33  2  0  0  0  0
 33 34  1  0  0  0  0
 33 31  1  0  0  0  0
M  END
>  <MODEL>
9

>  <REMARK>
 VINA RESULT:      -7.0      2.783      6.809
  Name = 
  6 active torsions:
  status: ('A' for Active; 'I' for Inactive)
    1  A    between atoms: C_3  and  C_13
    2  A    between atoms: C_3  and  C_29
    3  A    between atoms: C_12  and  C_28
    4  A    between atoms: C_13  and  C_33
    5  A    between atoms: C_20  and  C_22
    6  A    between atoms: C_22  and  C_33
                            x       y       z     vdW  Elec       q    Type
                         _______ _______ _______ _____ _____    ______ ____

>  <TORSDO>
F 6

$$$$
