=
 OpenBabel11052419033D

 34 38  0  0  1  0  0  0  0  0999 V2000
  185.2680  177.8130  144.0370 C   0  0  0  0  0  0  0  0  0  0  0  0
  185.9590  177.3220  146.3220 C   0  0  0  0  0  0  0  0  0  0  0  0
  187.3690  176.6190  144.3460 C   0  0  0  0  0  0  0  0  0  0  0  0
  189.8190  176.0070  144.1830 C   0  0  1  0  0  3  0  0  0  0  0  0
  184.2080  178.5770  144.5260 C   0  0  0  0  0  3  0  0  0  0  0  0
  184.8820  178.0850  146.7860 C   0  0  0  0  0  3  0  0  0  0  0  0
  189.1050  177.4190  146.0290 C   0  0  0  0  0  2  0  0  0  0  0  0
  186.2270  177.2500  144.9250 C   0  0  0  0  0  0  0  0  0  0  0  0
  190.2880  176.9410  146.8740 C   0  0  0  0  0  2  0  0  0  0  0  0
  190.9940  175.4440  144.9660 C   0  0  0  0  0  2  0  0  0  0  0  0
  184.0300  178.7350  145.8970 C   0  0  0  0  0  3  0  0  0  0  0  0
  187.3280  176.2800  142.9730 C   0  0  0  0  0  0  0  0  0  0  0  0
  185.3420  177.5770  142.7030 N   0  0  0  0  0  0  0  0  0  0  0  0
  186.7270  176.2960  147.5300 Cl  0  0  0  0  0  0  0  0  0  0  0  0
  189.4580  175.1620  143.0540 N   0  0  0  0  0  0  0  0  0  0  0  0
  188.3430  175.3440  142.4160 C   0  0  0  0  0  0  0  0  0  0  0  0
  191.4520  176.4940  145.9830 C   0  0  2  0  0  3  0  0  0  0  0  0
  188.6350  176.2740  145.1250 C   0  0  1  0  0  3  0  0  0  0  0  0
  186.3100  176.7960  142.1690 C   0  0  0  0  0  3  0  0  0  0  0  0
  188.7160  172.4580  139.9060 C   0  0  2  0  0  3  0  0  0  0  0  0
  188.8510  173.3010  138.6410 C   0  0  0  0  0  2  0  0  0  0  0  0
  188.0850  174.5140  141.1940 C   0  0  2  0  0  3  0  0  0  0  0  0
  187.8910  174.4860  138.6950 C   0  0  0  0  0  2  0  0  0  0  0  0
  189.0180  173.3030  141.1400 C   0  0  0  0  0  2  0  0  0  0  0  0
  188.1870  175.3500  139.9180 C   0  0  0  0  0  2  0  0  0  0  0  0
  189.5970  171.3960  139.8480 F   0  0  0  0  0  0  0  0  0  0  0  0
  192.5690  175.9390  146.8500 C   0  0  0  0  0  2  0  0  0  0  0  0
  194.1390  176.7920  146.5000 S   0  0  0  0  0  0  0  0  0  0  0  0
  194.0820  174.2090  145.9860 O   0  0  0  0  0  1  0  0  0  0  0  0
  194.8860  175.3220  145.7370 C   0  0  1  0  0  3  0  0  0  0  0  0
  195.0110  175.5450  144.2400 C   0  0  0  0  0  2  0  0  0  0  0  0
  196.7640  177.0790  143.3520 O   0  0  0  0  0  0  0  0  0  0  0  0
  196.4250  175.8390  143.8730 C   0  0  0  0  0  0  0  0  0  0  0  0
  197.3180  174.9720  144.0620 O   0  0  0  0  0  1  0  0  0  0  0  0
  1  5  2  0  0  0  0
  1  8  1  0  0  0  0
  2  6  1  0  0  0  0
  2 14  1  0  0  0  0
  3  8  1  0  0  0  0
  3 18  1  0  0  0  0
  4 10  1  1  0  0  0
  4 18  1  0  0  0  0
  5 11  1  0  0  0  0
  7  9  1  0  0  0  0
  8  2  2  0  0  0  0
 10 17  1  0  0  0  0
 11  6  2  0  0  0  0
 12  3  2  0  0  0  0
 13  1  1  0  0  0  0
 15  4  1  0  0  0  0
 16 12  1  0  0  0  0
 16 15  2  0  0  0  0
 17 27  1  1  0  0  0
 17  9  1  0  0  0  0
 18  7  1  1  0  0  0
 19 13  2  0  0  0  0
 19 12  1  0  0  0  0
 20 26  1  6  0  0  0
 20 24  1  0  0  0  0
 21 23  1  0  0  0  0
 21 20  1  0  0  0  0
 22 16  1  1  0  0  0
 23 25  1  0  0  0  0
 24 22  1  0  0  0  0
 25 22  1  0  0  0  0
 28 27  1  0  0  0  0
 30 29  1  6  0  0  0
 30 28  1  0  0  0  0
 31 30  1  0  0  0  0
 32 33  2  0  0  0  0
 33 34  1  0  0  0  0
 33 31  1  0  0  0  0
M  END
>  <MODEL>
1

>  <REMARK>
 VINA RESULT:      -8.1      0.000      0.000
  Name = 
  6 active torsions:
  status: ('A' for Active; 'I' for Inactive)
    1  A    between atoms: C_3  and  S_13
    2  A    between atoms: C_3  and  C_29
    3  A    between atoms: C_12  and  C_28
    4  A    between atoms: S_13  and  C_33
    5  A    between atoms: C_20  and  C_22
    6  A    between atoms: C_22  and  C_33
                            x       y       z     vdW  Elec       q    Type
                         _______ _______ _______ _____ _____    ______ ____

>  <TORSDO>
F 6

$$$$
=
 OpenBabel11052419033D

 34 38  0  0  1  0  0  0  0  0999 V2000
  187.3680  177.5000  146.3690 C   0  0  0  0  0  0  0  0  0  0  0  0
  186.7920  178.2770  144.1310 C   0  0  0  0  0  0  0  0  0  0  0  0
  188.5880  176.5360  144.4940 C   0  0  0  0  0  0  0  0  0  0  0  0
  189.5970  174.8320  142.9190 C   0  0  1  0  0  3  0  0  0  0  0  0
  186.2990  178.2290  146.8920 C   0  0  0  0  0  3  0  0  0  0  0  0
  185.7350  179.0070  144.6830 C   0  0  0  0  0  3  0  0  0  0  0  0
  187.3710  175.6770  142.4290 C   0  0  0  0  0  2  0  0  0  0  0  0
  187.5780  177.4280  144.9640 C   0  0  0  0  0  0  0  0  0  0  0  0
  187.5650  175.3750  140.9410 C   0  0  0  0  0  2  0  0  0  0  0  0
  189.8940  174.5420  141.4560 C   0  0  0  0  0  2  0  0  0  0  0  0
  185.4690  178.9600  146.0490 C   0  0  0  0  0  3  0  0  0  0  0  0
  189.5390  176.0480  145.4210 C   0  0  0  0  0  0  0  0  0  0  0  0
  188.2300  176.9000  147.2260 N   0  0  0  0  0  0  0  0  0  0  0  0
  187.2130  178.7000  142.4740 Cl  0  0  0  0  0  0  0  0  0  0  0  0
  190.8110  174.9200  143.7170 N   0  0  0  0  0  0  0  0  0  0  0  0
  190.7810  175.3930  144.9250 C   0  0  0  0  0  0  0  0  0  0  0  0
  188.5740  174.2390  140.7410 C   0  0  2  0  0  3  0  0  0  0  0  0
  188.7150  176.0830  143.0430 C   0  0  1  0  0  3  0  0  0  0  0  0
  189.3200  176.2260  146.7880 C   0  0  0  0  0  3  0  0  0  0  0  0
  194.0670  176.6210  146.4940 C   0  0  2  0  0  3  0  0  0  0  0  0
  194.9540  175.4610  146.0500 C   0  0  0  0  0  2  0  0  0  0  0  0
  192.0450  175.3520  145.7310 C   0  0  2  0  0  3  0  0  0  0  0  0
  194.1960  174.1430  146.1750 C   0  0  0  0  0  2  0  0  0  0  0  0
  192.8030  176.6770  145.6420 C   0  0  0  0  0  2  0  0  0  0  0  0
  192.9330  174.1760  145.3190 C   0  0  0  0  0  2  0  0  0  0  0  0
  194.7620  177.8080  146.3660 F   0  0  0  0  0  0  0  0  0  0  0  0
  188.8140  174.0320  139.2550 C   0  0  0  0  0  2  0  0  0  0  0  0
  190.4360  173.2580  138.9670 S   0  0  0  0  0  0  0  0  0  0  0  0
  189.4830  170.9540  138.1150 O   0  0  0  0  0  1  0  0  0  0  0  0
  189.8160  171.5860  139.3150 C   0  0  1  0  0  3  0  0  0  0  0  0
  190.8920  170.7940  140.0360 C   0  0  0  0  0  2  0  0  0  0  0  0
  192.0960  171.8010  141.9720 O   0  0  0  0  0  0  0  0  0  0  0  0
  190.9570  171.1880  141.4710 C   0  0  0  0  0  0  0  0  0  0  0  0
  189.9680  170.9900  142.2240 O   0  0  0  0  0  1  0  0  0  0  0  0
  1  5  1  0  0  0  0
  1 13  1  0  0  0  0
  2  6  2  0  0  0  0
  2  8  1  0  0  0  0
  3  8  1  0  0  0  0
  3 12  2  0  0  0  0
  4 10  1  6  0  0  0
  4 18  1  0  0  0  0
  4 15  1  0  0  0  0
  6 11  1  0  0  0  0
  8  1  2  0  0  0  0
  9  7  1  0  0  0  0
 11  5  2  0  0  0  0
 12 19  1  0  0  0  0
 14  2  1  0  0  0  0
 15 16  2  0  0  0  0
 16 12  1  0  0  0  0
 17 27  1  6  0  0  0
 17  9  1  0  0  0  0
 17 10  1  0  0  0  0
 18  7  1  1  0  0  0
 18  3  1  0  0  0  0
 19 13  2  0  0  0  0
 20 26  1  6  0  0  0
 21 23  1  0  0  0  0
 21 20  1  0  0  0  0
 22 16  1  6  0  0  0
 24 22  1  0  0  0  0
 24 20  1  0  0  0  0
 25 22  1  0  0  0  0
 25 23  1  0  0  0  0
 28 27  1  0  0  0  0
 28 30  1  0  0  0  0
 30 29  1  6  0  0  0
 30 31  1  0  0  0  0
 31 33  1  0  0  0  0
 33 32  2  0  0  0  0
 33 34  1  0  0  0  0
M  END
>  <MODEL>
2

>  <REMARK>
 VINA RESULT:      -8.0      3.694      6.376
  Name = 
  6 active torsions:
  status: ('A' for Active; 'I' for Inactive)
    1  A    between atoms: C_3  and  S_13
    2  A    between atoms: C_3  and  C_29
    3  A    between atoms: C_12  and  C_28
    4  A    between atoms: S_13  and  C_33
    5  A    between atoms: C_20  and  C_22
    6  A    between atoms: C_22  and  C_33
                            x       y       z     vdW  Elec       q    Type
                         _______ _______ _______ _____ _____    ______ ____

>  <TORSDO>
F 6

$$$$
=
 OpenBabel11052419033D

 34 38  0  0  1  0  0  0  0  0999 V2000
  191.9790  176.0010  145.4290 C   0  0  0  0  0  0  0  0  0  0  0  0
  191.9490  173.6660  144.7310 C   0  0  0  0  0  0  0  0  0  0  0  0
  190.2320  175.3120  143.8770 C   0  0  0  0  0  0  0  0  0  0  0  0
  188.7310  175.2470  141.8410 C   0  0  1  0  0  3  0  0  0  0  0  0
  193.1900  175.7830  146.0880 C   0  0  0  0  0  3  0  0  0  0  0  0
  193.1570  173.4720  145.4080 C   0  0  0  0  0  3  0  0  0  0  0  0
  190.7750  173.9320  141.8080 C   0  0  0  0  0  2  0  0  0  0  0  0
  191.3810  174.9700  144.6520 C   0  0  0  0  0  0  0  0  0  0  0  0
  190.1570  172.9650  140.7950 C   0  0  0  0  0  2  0  0  0  0  0  0
  188.0220  174.3140  140.8730 C   0  0  0  0  0  2  0  0  0  0  0  0
  193.7910  174.5290  146.0560 C   0  0  0  0  0  3  0  0  0  0  0  0
  189.5520  176.5160  144.1780 C   0  0  0  0  0  0  0  0  0  0  0  0
  191.3580  177.1970  145.5820 N   0  0  0  0  0  0  0  0  0  0  0  0
  191.1070  172.1910  144.2630 Cl  0  0  0  0  0  0  0  0  0  0  0  0
  187.7950  176.0680  142.5950 N   0  0  0  0  0  0  0  0  0  0  0  0
  188.1870  176.7460  143.6290 C   0  0  0  0  0  0  0  0  0  0  0  0
  189.0710  173.6610  139.9670 C   0  0  2  0  0  3  0  0  0  0  0  0
  189.6800  174.4490  142.7470 C   0  0  1  0  0  3  0  0  0  0  0  0
  190.1540  177.4530  145.0190 C   0  0  0  0  0  3  0  0  0  0  0  0
  185.2290  177.8220  145.8340 C   0  0  2  0  0  3  0  0  0  0  0  0
  184.4970  178.6700  144.7980 C   0  0  0  0  0  2  0  0  0  0  0  0
  187.1980  177.6590  144.2920 C   0  0  2  0  0  3  0  0  0  0  0  0
  185.4990  179.4750  143.9750 C   0  0  0  0  0  2  0  0  0  0  0  0
  186.2040  176.8710  145.1460 C   0  0  0  0  0  2  0  0  0  0  0  0
  186.4760  178.5380  143.2700 C   0  0  0  0  0  2  0  0  0  0  0  0
  184.3110  177.0920  146.5640 F   0  0  0  0  0  0  0  0  0  0  0  0
  188.4150  172.6510  139.0410 C   0  0  0  0  0  2  0  0  0  0  0  0
  189.5060  172.2620  137.6370 S   0  0  0  0  0  0  0  0  0  0  0  0
  191.2120  174.2340  137.2560 O   0  0  0  0  0  1  0  0  0  0  0  0
  189.8340  174.0120  137.2740 C   0  0  1  0  0  3  0  0  0  0  0  0
  189.2360  174.3630  135.9230 C   0  0  0  0  0  2  0  0  0  0  0  0
  187.3310  175.3740  137.1730 O   0  0  0  0  0  1  0  0  0  0  0  0
  188.1780  175.4010  136.0740 C   0  0  0  0  0  0  0  0  0  0  0  0
  188.0700  176.3190  135.2200 O   0  0  0  0  0  0  0  0  0  0  0  0
  1 13  1  0  0  0  0
  1  5  2  0  0  0  0
  2  6  1  0  0  0  0
  3 12  2  0  0  0  0
  3  8  1  0  0  0  0
  4 10  1  1  0  0  0
  4 15  1  0  0  0  0
  4 18  1  0  0  0  0
  6 11  2  0  0  0  0
  8  2  2  0  0  0  0
  8  1  1  0  0  0  0
  9  7  1  0  0  0  0
 11  5  1  0  0  0  0
 12 19  1  0  0  0  0
 14  2  1  0  0  0  0
 15 16  2  0  0  0  0
 16 12  1  0  0  0  0
 17 27  1  6  0  0  0
 17  9  1  0  0  0  0
 17 10  1  0  0  0  0
 18  7  1  6  0  0  0
 18  3  1  0  0  0  0
 19 13  2  0  0  0  0
 20 26  1  6  0  0  0
 21 20  1  0  0  0  0
 22 16  1  6  0  0  0
 22 24  1  0  0  0  0
 23 21  1  0  0  0  0
 24 20  1  0  0  0  0
 25 23  1  0  0  0  0
 25 22  1  0  0  0  0
 28 27  1  0  0  0  0
 30 29  1  6  0  0  0
 30 28  1  0  0  0  0
 31 33  1  0  0  0  0
 31 30  1  0  0  0  0
 33 32  1  0  0  0  0
 34 33  2  0  0  0  0
M  END
>  <MODEL>
3

>  <REMARK>
 VINA RESULT:      -7.8      4.510      7.814
  Name = 
  6 active torsions:
  status: ('A' for Active; 'I' for Inactive)
    1  A    between atoms: C_3  and  S_13
    2  A    between atoms: C_3  and  C_29
    3  A    between atoms: C_12  and  C_28
    4  A    between atoms: S_13  and  C_33
    5  A    between atoms: C_20  and  C_22
    6  A    between atoms: C_22  and  C_33
                            x       y       z     vdW  Elec       q    Type
                         _______ _______ _______ _____ _____    ______ ____

>  <TORSDO>
F 6

$$$$
=
 OpenBabel11052419033D

 34 38  0  0  1  0  0  0  0  0999 V2000
  190.8370  173.5560  139.7010 C   0  0  0  0  0  0  0  0  0  0  0  0
  188.6340  173.2650  140.7030 C   0  0  0  0  0  0  0  0  0  0  0  0
  190.5000  174.4270  141.9510 C   0  0  0  0  0  0  0  0  0  0  0  0
  190.4490  176.0190  143.9170 C   0  0  1  0  0  3  0  0  0  0  0  0
  190.3480  173.0560  138.4930 C   0  0  0  0  0  3  0  0  0  0  0  0
  188.1730  172.7590  139.4840 C   0  0  0  0  0  3  0  0  0  0  0  0
  188.4640  175.8420  142.5260 C   0  0  0  0  0  2  0  0  0  0  0  0
  189.9650  173.7650  140.8050 C   0  0  0  0  0  0  0  0  0  0  0  0
  187.5830  176.2870  143.6970 C   0  0  0  0  0  2  0  0  0  0  0  0
  189.6490  176.4220  145.1450 C   0  0  0  0  0  2  0  0  0  0  0  0
  189.0140  172.6830  138.3760 C   0  0  0  0  0  3  0  0  0  0  0  0
  191.9060  174.5250  142.0750 C   0  0  0  0  0  0  0  0  0  0  0  0
  192.1670  173.7940  139.8180 N   0  0  0  0  0  0  0  0  0  0  0  0
  187.5770  172.9810  142.0820 Cl  0  0  0  0  0  0  0  0  0  0  0  0
  191.7700  175.5170  144.2650 N   0  0  0  0  0  0  0  0  0  0  0  0
  192.5030  174.9060  143.3860 C   0  0  0  0  0  0  0  0  0  0  0  0
  188.3800  177.1460  144.6840 C   0  0  2  0  0  3  0  0  0  0  0  0
  189.6450  175.0280  143.0620 C   0  0  1  0  0  3  0  0  0  0  0  0
  192.7160  174.2230  140.9790 C   0  0  0  0  0  3  0  0  0  0  0  0
  195.3150  172.9470  145.1260 C   0  0  2  0  0  3  0  0  0  0  0  0
  196.0690  174.1400  145.7060 C   0  0  0  0  0  2  0  0  0  0  0  0
  193.8970  174.5140  143.7780 C   0  0  2  0  0  3  0  0  0  0  0  0
  196.0990  175.2840  144.6960 C   0  0  0  0  0  2  0  0  0  0  0  0
  193.8870  173.3480  144.7670 C   0  0  0  0  0  2  0  0  0  0  0  0
  194.6780  175.7060  144.3330 C   0  0  0  0  0  2  0  0  0  0  0  0
  195.2870  171.9240  146.0540 F   0  0  0  0  0  0  0  0  0  0  0  0
  187.5040  177.4880  145.8780 C   0  0  0  0  0  2  0  0  0  0  0  0
  185.7990  176.9070  145.6120 S   0  0  0  0  0  0  0  0  0  0  0  0
  185.4590  179.1520  146.9490 O   0  0  0  0  0  1  0  0  0  0  0  0
  185.1010  178.5800  145.7260 C   0  0  1  0  0  3  0  0  0  0  0  0
  185.6380  179.4250  144.5850 C   0  0  0  0  0  2  0  0  0  0  0  0
  183.7700  178.5600  143.1780 O   0  0  0  0  0  1  0  0  0  0  0  0
  185.1000  178.9440  143.2820 C   0  0  0  0  0  0  0  0  0  0  0  0
  185.8430  178.9120  142.2660 O   0  0  0  0  0  0  0  0  0  0  0  0
  1 13  2  0  0  0  0
  1  8  1  0  0  0  0
  2  8  1  0  0  0  0
  2 14  1  0  0  0  0
  3 12  1  0  0  0  0
  3 18  1  0  0  0  0
  4 15  1  0  0  0  0
  4 10  1  1  0  0  0
  5  1  1  0  0  0  0
  6  2  2  0  0  0  0
  7  9  1  0  0  0  0
  8  3  2  0  0  0  0
  9 17  1  0  0  0  0
 11  5  2  0  0  0  0
 11  6  1  0  0  0  0
 12 16  1  0  0  0  0
 13 19  1  0  0  0  0
 16 15  2  0  0  0  0
 17 10  1  0  0  0  0
 17 27  1  1  0  0  0
 18  7  1  6  0  0  0
 18  4  1  0  0  0  0
 19 12  2  0  0  0  0
 20 21  1  0  0  0  0
 20 26  1  1  0  0  0
 22 16  1  1  0  0  0
 22 25  1  0  0  0  0
 22 24  1  0  0  0  0
 23 21  1  0  0  0  0
 24 20  1  0  0  0  0
 25 23  1  0  0  0  0
 28 30  1  0  0  0  0
 28 27  1  0  0  0  0
 30 29  1  1  0  0  0
 31 30  1  0  0  0  0
 32 33  1  0  0  0  0
 33 31  1  0  0  0  0
 34 33  2  0  0  0  0
M  END
>  <MODEL>
4

>  <REMARK>
 VINA RESULT:      -7.7      4.435      7.901
  Name = 
  6 active torsions:
  status: ('A' for Active; 'I' for Inactive)
    1  A    between atoms: C_3  and  S_13
    2  A    between atoms: C_3  and  C_29
    3  A    between atoms: C_12  and  C_28
    4  A    between atoms: S_13  and  C_33
    5  A    between atoms: C_20  and  C_22
    6  A    between atoms: C_22  and  C_33
                            x       y       z     vdW  Elec       q    Type
                         _______ _______ _______ _____ _____    ______ ____

>  <TORSDO>
F 6

$$$$
=
 OpenBabel11052419033D

 34 38  0  0  1  0  0  0  0  0999 V2000
  192.2190  173.9720  144.5850 C   0  0  0  0  0  0  0  0  0  0  0  0
  191.7990  176.3690  144.7290 C   0  0  0  0  0  0  0  0  0  0  0  0
  190.5830  174.9220  143.0500 C   0  0  0  0  0  0  0  0  0  0  0  0
  188.4230  175.2940  141.7860 C   0  0  1  0  0  3  0  0  0  0  0  0
  193.0230  174.0500  145.7230 C   0  0  0  0  0  3  0  0  0  0  0  0
  192.6170  176.4200  145.8610 C   0  0  0  0  0  3  0  0  0  0  0  0
  188.7580  176.4930  143.8740 C   0  0  0  0  0  2  0  0  0  0  0  0
  191.5090  175.1140  144.1200 C   0  0  0  0  0  0  0  0  0  0  0  0
  187.8050  177.5990  143.4120 C   0  0  0  0  0  2  0  0  0  0  0  0
  187.5010  176.3670  141.2280 C   0  0  0  0  0  2  0  0  0  0  0  0
  193.2010  175.2650  146.3750 C   0  0  0  0  0  3  0  0  0  0  0  0
  190.6690  173.7300  142.2920 C   0  0  0  0  0  0  0  0  0  0  0  0
  192.1660  172.8010  143.9020 N   0  0  0  0  0  0  0  0  0  0  0  0
  191.4210  177.9290  144.0040 Cl  0  0  0  0  0  0  0  0  0  0  0  0
  188.9730  174.4460  140.7400 N   0  0  0  0  0  0  0  0  0  0  0  0
  189.9570  173.6370  140.9870 C   0  0  0  0  0  0  0  0  0  0  0  0
  186.7930  177.0590  142.3970 C   0  0  2  0  0  3  0  0  0  0  0  0
  189.5100  175.9350  142.6620 C   0  0  1  0  0  3  0  0  0  0  0  0
  191.4530  172.6740  142.7580 C   0  0  0  0  0  3  0  0  0  0  0  0
  191.7800  172.4560  137.8170 C   0  0  2  0  0  3  0  0  0  0  0  0
  190.5770  171.8480  137.1010 C   0  0  0  0  0  2  0  0  0  0  0  0
  190.4010  172.7100  139.8940 C   0  0  2  0  0  3  0  0  0  0  0  0
  189.6900  171.1110  138.1000 C   0  0  0  0  0  2  0  0  0  0  0  0
  191.3170  173.4250  138.9010 C   0  0  0  0  0  2  0  0  0  0  0  0
  189.2070  172.0680  139.1850 C   0  0  0  0  0  2  0  0  0  0  0  0
  192.5690  173.1280  136.9040 F   0  0  0  0  0  0  0  0  0  0  0  0
  185.9280  178.2000  141.8890 C   0  0  0  0  0  2  0  0  0  0  0  0
  184.3290  178.2320  142.7600 S   0  0  0  0  0  0  0  0  0  0  0  0
  185.3790  180.2490  144.0920 O   0  0  0  0  0  1  0  0  0  0  0  0
  185.0560  178.9040  144.2840 C   0  0  1  0  0  3  0  0  0  0  0  0
  184.0560  178.7690  145.4180 C   0  0  0  0  0  2  0  0  0  0  0  0
  184.8840  178.5730  147.7610 O   0  0  0  0  0  1  0  0  0  0  0  0
  184.6370  177.9730  146.5340 C   0  0  0  0  0  0  0  0  0  0  0  0
  184.8770  176.7470  146.3750 O   0  0  0  0  0  0  0  0  0  0  0  0
  1  5  2  0  0  0  0
  2  6  1  0  0  0  0
  3  8  1  0  0  0  0
  4 10  1  6  0  0  0
  4 18  1  0  0  0  0
  5 11  1  0  0  0  0
  6 11  2  0  0  0  0
  8  1  1  0  0  0  0
  8  2  2  0  0  0  0
  9  7  1  0  0  0  0
 10 17  1  0  0  0  0
 12 19  1  0  0  0  0
 12  3  2  0  0  0  0
 13  1  1  0  0  0  0
 14  2  1  0  0  0  0
 15 16  2  0  0  0  0
 15  4  1  0  0  0  0
 16 12  1  0  0  0  0
 17 27  1  6  0  0  0
 17  9  1  0  0  0  0
 18  3  1  0  0  0  0
 18  7  1  1  0  0  0
 19 13  2  0  0  0  0
 20 26  1  6  0  0  0
 20 24  1  0  0  0  0
 21 20  1  0  0  0  0
 21 23  1  0  0  0  0
 22 16  1  1  0  0  0
 23 25  1  0  0  0  0
 24 22  1  0  0  0  0
 25 22  1  0  0  0  0
 27 28  1  0  0  0  0
 28 30  1  0  0  0  0
 30 29  1  6  0  0  0
 30 31  1  0  0  0  0
 31 33  1  0  0  0  0
 33 32  1  0  0  0  0
 34 33  2  0  0  0  0
M  END
>  <MODEL>
5

>  <REMARK>
 VINA RESULT:      -7.7      4.453      7.286
  Name = 
  6 active torsions:
  status: ('A' for Active; 'I' for Inactive)
    1  A    between atoms: C_3  and  S_13
    2  A    between atoms: C_3  and  C_29
    3  A    between atoms: C_12  and  C_28
    4  A    between atoms: S_13  and  C_33
    5  A    between atoms: C_20  and  C_22
    6  A    between atoms: C_22  and  C_33
                            x       y       z     vdW  Elec       q    Type
                         _______ _______ _______ _____ _____    ______ ____

>  <TORSDO>
F 6

$$$$
=
 OpenBabel11052419033D

 34 38  0  0  1  0  0  0  0  0999 V2000
  191.9910  175.9790  145.4610 C   0  0  0  0  0  0  0  0  0  0  0  0
  191.9930  173.6650  144.6950 C   0  0  0  0  0  0  0  0  0  0  0  0
  190.2980  175.3310  143.8330 C   0  0  0  0  0  0  0  0  0  0  0  0
  188.8650  175.3210  141.7480 C   0  0  1  0  0  3  0  0  0  0  0  0
  193.1800  175.7460  146.1530 C   0  0  0  0  0  3  0  0  0  0  0  0
  193.1790  173.4570  145.4050 C   0  0  0  0  0  3  0  0  0  0  0  0
  190.9140  174.0140  141.7440 C   0  0  0  0  0  2  0  0  0  0  0  0
  191.4230  174.9700  144.6350 C   0  0  0  0  0  0  0  0  0  0  0  0
  190.3340  173.0750  140.6830 C   0  0  0  0  0  2  0  0  0  0  0  0
  188.1920  174.4140  140.7300 C   0  0  0  0  0  2  0  0  0  0  0  0
  193.7870  174.4960  146.1040 C   0  0  0  0  0  3  0  0  0  0  0  0
  189.6040  176.5230  144.1470 C   0  0  0  0  0  0  0  0  0  0  0  0
  191.3600  177.1680  145.6290 N   0  0  0  0  0  0  0  0  0  0  0  0
  191.1720  172.2030  144.1560 Cl  0  0  0  0  0  0  0  0  0  0  0  0
  187.9010  176.1160  142.4940 N   0  0  0  0  0  0  0  0  0  0  0  0
  188.2570  176.7650  143.5600 C   0  0  0  0  0  0  0  0  0  0  0  0
  189.2730  173.7920  139.8410 C   0  0  2  0  0  3  0  0  0  0  0  0
  189.7870  174.4990  142.6610 C   0  0  1  0  0  3  0  0  0  0  0  0
  190.1740  177.4370  145.0340 C   0  0  0  0  0  3  0  0  0  0  0  0
  185.2760  177.7760  145.7660 C   0  0  2  0  0  3  0  0  0  0  0  0
  184.5140  178.5880  144.7230 C   0  0  0  0  0  2  0  0  0  0  0  0
  187.2430  177.6550  144.2170 C   0  0  2  0  0  3  0  0  0  0  0  0
  185.4860  179.4130  143.8850 C   0  0  0  0  0  2  0  0  0  0  0  0
  186.2770  176.8480  145.0860 C   0  0  0  0  0  2  0  0  0  0  0  0
  186.4890  178.4980  143.1870 C   0  0  0  0  0  2  0  0  0  0  0  0
  184.3850  177.0280  146.5100 F   0  0  0  0  0  0  0  0  0  0  0  0
  188.6520  172.8070  138.8650 C   0  0  0  0  0  2  0  0  0  0  0  0
  189.3150  173.0580  137.1880 S   0  0  0  0  0  0  0  0  0  0  0  0
  191.5040  171.6720  137.6650 O   0  0  0  0  0  1  0  0  0  0  0  0
  190.2050  171.4740  137.1920 C   0  0  1  0  0  3  0  0  0  0  0  0
  189.4730  170.4900  138.0870 C   0  0  0  0  0  2  0  0  0  0  0  0
  190.8510  169.2530  139.7560 O   0  0  0  0  0  1  0  0  0  0  0  0
  190.3680  169.3590  138.4600 C   0  0  0  0  0  0  0  0  0  0  0  0
  190.6640  168.4820  137.6060 O   0  0  0  0  0  0  0  0  0  0  0  0
  1 13  1  0  0  0  0
  1  5  2  0  0  0  0
  2  6  1  0  0  0  0
  3 12  2  0  0  0  0
  3  8  1  0  0  0  0
  4 10  1  6  0  0  0
  4 15  1  0  0  0  0
  4 18  1  0  0  0  0
  6 11  2  0  0  0  0
  8  2  2  0  0  0  0
  8  1  1  0  0  0  0
  9  7  1  0  0  0  0
 11  5  1  0  0  0  0
 12 19  1  0  0  0  0
 14  2  1  0  0  0  0
 15 16  2  0  0  0  0
 16 12  1  0  0  0  0
 17 27  1  6  0  0  0
 17  9  1  0  0  0  0
 17 10  1  0  0  0  0
 18  7  1  6  0  0  0
 18  3  1  0  0  0  0
 19 13  2  0  0  0  0
 20 26  1  6  0  0  0
 21 20  1  0  0  0  0
 22 16  1  6  0  0  0
 22 24  1  0  0  0  0
 23 21  1  0  0  0  0
 24 20  1  0  0  0  0
 25 23  1  0  0  0  0
 25 22  1  0  0  0  0
 28 30  1  0  0  0  0
 28 27  1  0  0  0  0
 30 29  1  1  0  0  0
 30 31  1  0  0  0  0
 31 33  1  0  0  0  0
 33 32  1  0  0  0  0
 34 33  2  0  0  0  0
M  END
>  <MODEL>
6

>  <REMARK>
 VINA RESULT:      -7.6      4.315      7.660
  Name = 
  6 active torsions:
  status: ('A' for Active; 'I' for Inactive)
    1  A    between atoms: C_3  and  S_13
    2  A    between atoms: C_3  and  C_29
    3  A    between atoms: C_12  and  C_28
    4  A    between atoms: S_13  and  C_33
    5  A    between atoms: C_20  and  C_22
    6  A    between atoms: C_22  and  C_33
                            x       y       z     vdW  Elec       q    Type
                         _______ _______ _______ _____ _____    ______ ____

>  <TORSDO>
F 6

$$$$
=
 OpenBabel11052419033D

 34 38  0  0  1  0  0  0  0  0999 V2000
  187.4590  177.1970  145.8190 C   0  0  0  0  0  0  0  0  0  0  0  0
  187.0580  177.9360  143.5310 C   0  0  0  0  0  0  0  0  0  0  0  0
  188.8000  176.1820  144.0570 C   0  0  0  0  0  0  0  0  0  0  0  0
  189.8990  174.4350  142.5920 C   0  0  1  0  0  3  0  0  0  0  0  0
  186.3650  177.9490  146.2480 C   0  0  0  0  0  3  0  0  0  0  0  0
  185.9730  178.6890  143.9900 C   0  0  0  0  0  3  0  0  0  0  0  0
  187.7250  175.2950  141.9260 C   0  0  0  0  0  2  0  0  0  0  0  0
  187.7700  177.0940  144.4340 C   0  0  0  0  0  0  0  0  0  0  0  0
  188.0230  174.9620  140.4620 C   0  0  0  0  0  2  0  0  0  0  0  0
  190.2980  174.1130  141.1610 C   0  0  0  0  0  2  0  0  0  0  0  0
  185.6080  178.6720  145.3330 C   0  0  0  0  0  3  0  0  0  0  0  0
  189.6750  175.7020  145.0600 C   0  0  0  0  0  0  0  0  0  0  0  0
  188.2490  176.6040  146.7480 N   0  0  0  0  0  0  0  0  0  0  0  0
  187.6040  178.3210  141.9010 Cl  0  0  0  0  0  0  0  0  0  0  0  0
  191.0530  174.5250  143.4750 N   0  0  0  0  0  0  0  0  0  0  0  0
  190.9410  175.0220  144.6680 C   0  0  0  0  0  0  0  0  0  0  0  0
  189.0290  173.8110  140.3570 C   0  0  2  0  0  3  0  0  0  0  0  0
  189.0260  175.6980  142.6270 C   0  0  1  0  0  3  0  0  0  0  0  0
  189.3590  175.9090  146.4030 C   0  0  0  0  0  3  0  0  0  0  0  0
  193.9810  176.3060  146.6380 C   0  0  2  0  0  3  0  0  0  0  0  0
  194.9990  175.2870  146.1330 C   0  0  0  0  0  2  0  0  0  0  0  0
  192.1420  174.9820  145.5650 C   0  0  2  0  0  3  0  0  0  0  0  0
  194.3570  173.9060  146.0370 C   0  0  0  0  0  2  0  0  0  0  0  0
  192.7810  176.3650  145.6970 C   0  0  0  0  0  2  0  0  0  0  0  0
  193.1600  173.9440  145.0900 C   0  0  0  0  0  2  0  0  0  0  0  0
  194.5730  177.5520  146.7100 F   0  0  0  0  0  0  0  0  0  0  0  0
  189.3730  173.5710  138.8970 C   0  0  0  0  0  2  0  0  0  0  0  0
  191.1670  173.3430  138.6880 S   0  0  0  0  0  0  0  0  0  0  0  0
  190.9860  170.8450  139.5080 O   0  0  0  0  0  1  0  0  0  0  0  0
  191.0030  171.5720  138.3160 C   0  0  1  0  0  3  0  0  0  0  0  0
  189.7120  171.3390  137.5510 C   0  0  0  0  0  2  0  0  0  0  0  0
  191.0490  170.1820  135.7930 O   0  0  0  0  0  1  0  0  0  0  0  0
  190.0010  171.0300  136.1220 C   0  0  0  0  0  0  0  0  0  0  0  0
  189.2770  171.5160  135.2140 O   0  0  0  0  0  0  0  0  0  0  0  0
  1  5  1  0  0  0  0
  1 13  1  0  0  0  0
  2  6  2  0  0  0  0
  2  8  1  0  0  0  0
  3  8  1  0  0  0  0
  3 12  2  0  0  0  0
  4 10  1  6  0  0  0
  4 18  1  0  0  0  0
  4 15  1  0  0  0  0
  6 11  1  0  0  0  0
  8  1  2  0  0  0  0
  9  7  1  0  0  0  0
 11  5  2  0  0  0  0
 12 19  1  0  0  0  0
 14  2  1  0  0  0  0
 15 16  2  0  0  0  0
 16 12  1  0  0  0  0
 17 27  1  6  0  0  0
 17  9  1  0  0  0  0
 17 10  1  0  0  0  0
 18  7  1  1  0  0  0
 18  3  1  0  0  0  0
 19 13  2  0  0  0  0
 20 26  1  6  0  0  0
 21 20  1  0  0  0  0
 22 16  1  6  0  0  0
 22 24  1  0  0  0  0
 23 21  1  0  0  0  0
 24 20  1  0  0  0  0
 25 22  1  0  0  0  0
 25 23  1  0  0  0  0
 28 27  1  0  0  0  0
 30 28  1  0  0  0  0
 30 29  1  1  0  0  0
 31 30  1  0  0  0  0
 32 33  1  0  0  0  0
 33 31  1  0  0  0  0
 34 33  2  0  0  0  0
M  END
>  <MODEL>
7

>  <REMARK>
 VINA RESULT:      -7.6      4.370      6.956
  Name = 
  6 active torsions:
  status: ('A' for Active; 'I' for Inactive)
    1  A    between atoms: C_3  and  S_13
    2  A    between atoms: C_3  and  C_29
    3  A    between atoms: C_12  and  C_28
    4  A    between atoms: S_13  and  C_33
    5  A    between atoms: C_20  and  C_22
    6  A    between atoms: C_22  and  C_33
                            x       y       z     vdW  Elec       q    Type
                         _______ _______ _______ _____ _____    ______ ____

>  <TORSDO>
F 6

$$$$
=
 OpenBabel11052419033D

 34 38  0  0  1  0  0  0  0  0999 V2000
  186.3710  176.6620  144.2190 C   0  0  0  0  0  0  0  0  0  0  0  0
  187.6210  176.3380  146.2860 C   0  0  0  0  0  0  0  0  0  0  0  0
  188.6250  175.7560  144.0410 C   0  0  0  0  0  0  0  0  0  0  0  0
  191.0320  175.4560  143.3200 C   0  0  1  0  0  3  0  0  0  0  0  0
  185.3590  177.3000  144.9370 C   0  0  0  0  0  3  0  0  0  0  0  0
  186.5880  176.9720  146.9820 C   0  0  0  0  0  3  0  0  0  0  0  0
  190.5780  176.8240  145.2770 C   0  0  0  0  0  2  0  0  0  0  0  0
  187.5720  176.2540  144.8650 C   0  0  0  0  0  0  0  0  0  0  0  0
  191.9750  176.5300  145.8290 C   0  0  0  0  0  2  0  0  0  0  0  0
  192.4180  175.0720  143.8140 C   0  0  0  0  0  2  0  0  0  0  0  0
  185.4780  177.4780  146.3120 C   0  0  0  0  0  3  0  0  0  0  0  0
  188.3170  175.3700  142.7150 C   0  0  0  0  0  0  0  0  0  0  0  0
  186.1690  176.3930  142.9050 N   0  0  0  0  0  0  0  0  0  0  0  0
  188.7720  175.4580  147.2880 Cl  0  0  0  0  0  0  0  0  0  0  0  0
  190.5380  174.5350  142.3070 N   0  0  0  0  0  0  0  0  0  0  0  0
  189.2930  174.5530  141.9420 C   0  0  0  0  0  0  0  0  0  0  0  0
  192.9530  176.2050  144.6960 C   0  0  2  0  0  3  0  0  0  0  0  0
  190.0690  175.6010  144.5080 C   0  0  1  0  0  3  0  0  0  0  0  0
  187.0850  175.7250  142.1650 C   0  0  0  0  0  3  0  0  0  0  0  0
  189.4510  171.6450  139.4340 C   0  0  2  0  0  3  0  0  0  0  0  0
  189.2040  172.4540  138.1640 C   0  0  0  0  0  2  0  0  0  0  0  0
  188.8750  173.6570  140.8140 C   0  0  2  0  0  3  0  0  0  0  0  0
  188.1440  173.5220  138.4200 C   0  0  0  0  0  2  0  0  0  0  0  0
  189.9120  172.5610  140.5640 C   0  0  0  0  0  2  0  0  0  0  0  0
  188.5940  174.4550  139.5400 C   0  0  0  0  0  2  0  0  0  0  0  0
  190.4180  170.6900  139.1910 F   0  0  0  0  0  0  0  0  0  0  0  0
  194.3010  175.8260  145.2840 C   0  0  0  0  0  2  0  0  0  0  0  0
  195.6520  176.3100  144.1640 S   0  0  0  0  0  0  0  0  0  0  0  0
  197.8570  174.8710  144.0650 O   0  0  0  0  0  1  0  0  0  0  0  0
  196.4930  174.7070  144.3170 C   0  0  1  0  0  3  0  0  0  0  0  0
  196.2880  174.1670  145.7210 C   0  0  0  0  0  2  0  0  0  0  0  0
  194.9470  172.0670  145.8080 O   0  0  0  0  0  1  0  0  0  0  0  0
  196.1870  172.6810  145.6980 C   0  0  0  0  0  0  0  0  0  0  0  0
  197.2220  171.9810  145.5510 O   0  0  0  0  0  0  0  0  0  0  0  0
  1  8  1  0  0  0  0
  1  5  2  0  0  0  0
  2  6  1  0  0  0  0
  2 14  1  0  0  0  0
  3 18  1  0  0  0  0
  3  8  1  0  0  0  0
  4 10  1  1  0  0  0
  4 18  1  0  0  0  0
  5 11  1  0  0  0  0
  7  9  1  0  0  0  0
  8  2  2  0  0  0  0
 10 17  1  0  0  0  0
 11  6  2  0  0  0  0
 12  3  2  0  0  0  0
 13  1  1  0  0  0  0
 15  4  1  0  0  0  0
 16 15  2  0  0  0  0
 16 12  1  0  0  0  0
 17 27  1  1  0  0  0
 17  9  1  0  0  0  0
 18  7  1  6  0  0  0
 19 12  1  0  0  0  0
 19 13  2  0  0  0  0
 20 26  1  6  0  0  0
 20 24  1  0  0  0  0
 21 23  1  0  0  0  0
 21 20  1  0  0  0  0
 22 16  1  1  0  0  0
 23 25  1  0  0  0  0
 24 22  1  0  0  0  0
 25 22  1  0  0  0  0
 28 30  1  0  0  0  0
 28 27  1  0  0  0  0
 30 29  1  1  0  0  0
 30 31  1  0  0  0  0
 33 31  1  0  0  0  0
 33 32  1  0  0  0  0
 34 33  2  0  0  0  0
M  END
>  <MODEL>
8

>  <REMARK>
 VINA RESULT:      -7.5      1.514      2.225
  Name = 
  6 active torsions:
  status: ('A' for Active; 'I' for Inactive)
    1  A    between atoms: C_3  and  S_13
    2  A    between atoms: C_3  and  C_29
    3  A    between atoms: C_12  and  C_28
    4  A    between atoms: S_13  and  C_33
    5  A    between atoms: C_20  and  C_22
    6  A    between atoms: C_22  and  C_33
                            x       y       z     vdW  Elec       q    Type
                         _______ _______ _______ _____ _____    ______ ____

>  <TORSDO>
F 6

$$$$
=
 OpenBabel11052419033D

 34 38  0  0  1  0  0  0  0  0999 V2000
  194.0610  172.9730  144.5170 C   0  0  0  0  0  0  0  0  0  0  0  0
  194.0720  175.1900  145.5320 C   0  0  0  0  0  0  0  0  0  0  0  0
  191.9980  174.2650  144.4210 C   0  0  0  0  0  0  0  0  0  0  0  0
  189.5600  174.9000  144.6560 C   0  0  1  0  0  3  0  0  0  0  0  0
  195.3390  172.7400  145.0260 C   0  0  0  0  0  3  0  0  0  0  0  0
  195.3560  174.9330  146.0200 C   0  0  0  0  0  3  0  0  0  0  0  0
  191.0680  175.4210  146.4900 C   0  0  0  0  0  2  0  0  0  0  0  0
  193.3580  174.1670  144.8420 C   0  0  0  0  0  0  0  0  0  0  0  0
  190.1570  176.5680  146.9360 C   0  0  0  0  0  2  0  0  0  0  0  0
  188.6210  176.0450  144.9990 C   0  0  0  0  0  2  0  0  0  0  0  0
  195.9750  173.7060  145.7970 C   0  0  0  0  0  3  0  0  0  0  0  0
  191.5330  173.3660  143.4320 C   0  0  0  0  0  0  0  0  0  0  0  0
  193.5200  172.0650  143.6670 N   0  0  0  0  0  0  0  0  0  0  0  0
  193.5680  176.8760  145.5930 Cl  0  0  0  0  0  0  0  0  0  0  0  0
  189.3820  174.4380  143.2880 N   0  0  0  0  0  0  0  0  0  0  0  0
  190.2450  173.6400  142.7370 C   0  0  0  0  0  0  0  0  0  0  0  0
  188.7090  176.3140  146.5050 C   0  0  2  0  0  3  0  0  0  0  0  0
  191.0120  175.2950  144.9640 C   0  0  1  0  0  3  0  0  0  0  0  0
  192.3100  172.2580  143.0920 C   0  0  0  0  0  3  0  0  0  0  0  0
  190.5150  173.2150  138.9270 C   0  0  2  0  0  3  0  0  0  0  0  0
  189.0360  173.3850  138.5950 C   0  0  0  0  0  2  0  0  0  0  0  0
  189.9440  173.1130  141.3660 C   0  0  2  0  0  3  0  0  0  0  0  0
  188.1780  172.6780  139.6400 C   0  0  0  0  0  2  0  0  0  0  0  0
  190.8170  173.7890  140.3080 C   0  0  0  0  0  2  0  0  0  0  0  0
  188.4580  173.2480  141.0280 C   0  0  0  0  0  2  0  0  0  0  0  0
  191.2790  173.8690  137.9790 F   0  0  0  0  0  0  0  0  0  0  0  0
  187.8530  177.5130  146.8780 C   0  0  0  0  0  2  0  0  0  0  0  0
  186.1180  177.0150  147.1170 S   0  0  0  0  0  0  0  0  0  0  0  0
  185.9620  179.6030  147.5870 O   0  0  0  0  0  1  0  0  0  0  0  0
  185.4780  178.6580  146.6800 C   0  0  1  0  0  3  0  0  0  0  0  0
  185.9290  179.0130  145.2740 C   0  0  0  0  0  2  0  0  0  0  0  0
  185.3000  177.3380  143.5380 O   0  0  0  0  0  0  0  0  0  0  0  0
  184.9730  178.4720  144.2680 C   0  0  0  0  0  0  0  0  0  0  0  0
  183.8560  179.0270  144.0980 O   0  0  0  0  0  1  0  0  0  0  0  0
  1  8  1  0  0  0  0
  1  5  2  0  0  0  0
  2 14  1  0  0  0  0
  2  6  1  0  0  0  0
  3  8  1  0  0  0  0
  3 18  1  0  0  0  0
  4 18  1  0  0  0  0
  4 10  1  6  0  0  0
  5 11  1  0  0  0  0
  7  9  1  0  0  0  0
  8  2  2  0  0  0  0
 10 17  1  0  0  0  0
 11  6  2  0  0  0  0
 12  3  2  0  0  0  0
 13  1  1  0  0  0  0
 15  4  1  0  0  0  0
 16 15  2  0  0  0  0
 16 12  1  0  0  0  0
 17 27  1  6  0  0  0
 17  9  1  0  0  0  0
 18  7  1  1  0  0  0
 19 12  1  0  0  0  0
 19 13  2  0  0  0  0
 20 26  1  6  0  0  0
 20 24  1  0  0  0  0
 21 20  1  0  0  0  0
 21 23  1  0  0  0  0
 22 16  1  1  0  0  0
 23 25  1  0  0  0  0
 24 22  1  0  0  0  0
 25 22  1  0  0  0  0
 27 28  1  0  0  0  0
 30 28  1  0  0  0  0
 30 29  1  1  0  0  0
 31 30  1  0  0  0  0
 32 33  2  0  0  0  0
 33 31  1  0  0  0  0
 34 33  1  0  0  0  0
M  END
>  <MODEL>
9

>  <REMARK>
 VINA RESULT:      -7.5      4.171      7.403
  Name = 
  6 active torsions:
  status: ('A' for Active; 'I' for Inactive)
    1  A    between atoms: C_3  and  S_13
    2  A    between atoms: C_3  and  C_29
    3  A    between atoms: C_12  and  C_28
    4  A    between atoms: S_13  and  C_33
    5  A    between atoms: C_20  and  C_22
    6  A    between atoms: C_22  and  C_33
                            x       y       z     vdW  Elec       q    Type
                         _______ _______ _______ _____ _____    ______ ____

>  <TORSDO>
F 6

$$$$
