=
 OpenBabel11052417473D

 31 34  0  0  1  0  0  0  0  0999 V2000
  188.5080  174.8790  141.0250 C   0  0  0  0  0  0  0  0  0  0  0  0
  188.0590  176.7210  144.3740 C   0  0  2  0  0  3  0  0  0  0  0  0
  186.7320  177.4410  144.1480 C   0  0  0  0  0  0  0  0  0  0  0  0
  185.2940  178.7720  142.6990 C   0  0  0  0  0  3  0  0  0  0  0  0
  188.5140  175.7330  143.3070 C   0  0  0  0  0  0  0  0  0  0  0  0
  189.5170  173.9720  141.3530 C   0  0  0  0  0  3  0  0  0  0  0  0
  186.4540  178.0240  142.9020 C   0  0  0  0  0  3  0  0  0  0  0  0
  189.6020  175.6310  146.0220 C   0  0  1  0  0  3  0  0  0  0  0  0
  187.9950  174.9120  139.7370 O   0  0  0  0  0  1  0  0  0  0  0  0
  186.1430  177.1910  146.6140 C   0  0  0  0  0  2  0  0  0  0  0  0
  184.4030  178.9770  143.7520 C   0  0  0  0  0  3  0  0  0  0  0  0
  190.0670  174.7480  144.9530 N   0  0  0  0  0  2  0  0  0  0  0  0
  188.1540  176.0610  145.7630 C   0  0  1  0  0  3  0  0  0  0  0  0
  188.0160  175.7570  141.9940 C   0  0  0  0  0  3  0  0  0  0  0  0
  183.7850  178.6820  146.0550 O   0  0  0  0  0  1  0  0  0  0  0  0
  189.5470  174.8220  143.6210 C   0  0  0  0  0  0  0  0  0  0  0  0
  190.0340  173.9440  142.6500 C   0  0  0  0  0  3  0  0  0  0  0  0
  187.6360  177.0050  146.8340 C   0  0  0  0  0  2  0  0  0  0  0  0
  185.8540  177.7100  145.2320 C   0  0  0  0  0  0  0  0  0  0  0  0
  184.6800  178.4510  145.0150 C   0  0  0  0  0  0  0  0  0  0  0  0
  189.7880  174.9430  147.3740 C   0  0  0  0  0  2  0  0  0  0  0  0
  191.1210  175.3050  148.0180 C   0  0  0  0  0  2  0  0  0  0  0  0
  191.7040  176.5490  147.3680 C   0  0  0  0  0  2  0  0  0  0  0  0
  193.0690  176.2460  146.7710 C   0  0  0  0  0  2  0  0  0  0  0  0
  193.1600  176.7720  145.3480 C   0  0  0  0  0  2  0  0  0  0  0  0
  193.3270  175.7750  142.8530 S   0  0  0  0  0  0  0  0  0  0  0  0
  193.7020  175.7170  144.4490 C   0  0  0  0  0  0  0  0  0  0  0  0
  196.0900  174.8290  144.8110 C   0  0  0  0  0  0  0  0  0  0  0  0
  196.6420  175.6650  144.0490 O   0  0  0  0  0  0  0  0  0  0  0  0
  197.0970  173.6370  145.6780 S   0  0  0  0  0  1  0  0  0  0  0  0
  194.6670  174.7960  144.9790 N   0  0  0  0  0  2  0  0  0  0  0  0
  1  6  2  0  0  0  0
  1 14  1  0  0  0  0
  2  5  1  6  0  0  0
  2 13  1  0  0  0  0
  3  2  1  0  0  0  0
  3 19  1  0  0  0  0
  4  7  1  0  0  0  0
  4 11  2  0  0  0  0
  5 16  1  0  0  0  0
  6 17  1  0  0  0  0
  7  3  2  0  0  0  0
  8 21  1  1  0  0  0
  9  1  1  0  0  0  0
 10 18  1  0  0  0  0
 11 20  1  0  0  0  0
 12  8  1  0  0  0  0
 13  8  1  0  0  0  0
 13 18  1  1  0  0  0
 14  5  2  0  0  0  0
 16 12  1  0  0  0  0
 17 16  2  0  0  0  0
 19 10  1  0  0  0  0
 20 19  2  0  0  0  0
 20 15  1  0  0  0  0
 21 22  1  0  0  0  0
 23 22  1  0  0  0  0
 24 23  1  0  0  0  0
 25 24  1  0  0  0  0
 26 27  2  0  0  0  0
 27 31  1  0  0  0  0
 27 25  1  0  0  0  0
 28 31  1  0  0  0  0
 28 30  1  0  0  0  0
 29 28  2  0  0  0  0
M  END
>  <MODEL>
1

>  <REMARK>
 VINA RESULT:      -8.0      0.000      0.000
  Name = 
  7 active torsions:
  status: ('A' for Active; 'I' for Inactive)
    1  A    between atoms: C_3  and  C_19
    2  A    between atoms: C_3  and  C_22
    3  A    between atoms: C_7  and  C_9
    4  A    between atoms: C_7  and  C_22
    5  A    between atoms: C_9  and  C_23
    6  A    between atoms: C_15  and  C_23
    7  A    between atoms: C_19  and  N_24
                            x       y       z     vdW  Elec       q    Type
                         _______ _______ _______ _____ _____    ______ ____

>  <TORSDO>
F 7

$$$$
=
 OpenBabel11052417473D

 31 34  0  0  1  0  0  0  0  0999 V2000
  184.8500  177.9850  140.7500 C   0  0  0  0  0  0  0  0  0  0  0  0
  187.1730  178.2770  143.8030 C   0  0  2  0  0  3  0  0  0  0  0  0
  186.1720  178.2010  144.9540 C   0  0  0  0  0  0  0  0  0  0  0  0
  184.0480  178.8950  145.9280 C   0  0  0  0  0  3  0  0  0  0  0  0
  186.6460  178.0320  142.3950 C   0  0  0  0  0  0  0  0  0  0  0  0
  185.7720  177.7120  139.7380 C   0  0  0  0  0  3  0  0  0  0  0  0
  184.9390  178.8640  144.8550 C   0  0  0  0  0  3  0  0  0  0  0  0
  189.4970  177.7760  143.0060 C   0  0  1  0  0  3  0  0  0  0  0  0
  183.5000  178.0950  140.4470 O   0  0  0  0  0  1  0  0  0  0  0  0
  187.8860  176.9980  146.4040 C   0  0  0  0  0  2  0  0  0  0  0  0
  184.3900  178.2860  147.1350 C   0  0  0  0  0  3  0  0  0  0  0  0
  188.9640  177.6210  141.6540 N   0  0  0  0  0  2  0  0  0  0  0  0
  188.4270  177.4140  144.0430 C   0  0  1  0  0  3  0  0  0  0  0  0
  185.2860  178.1500  142.0670 C   0  0  0  0  0  3  0  0  0  0  0  0
  185.9590  177.0780  148.4960 O   0  0  0  0  0  1  0  0  0  0  0  0
  187.5710  177.7730  141.3590 C   0  0  0  0  0  0  0  0  0  0  0  0
  187.1300  177.6050  140.0430 C   0  0  0  0  0  3  0  0  0  0  0  0
  188.9260  177.5900  145.4670 C   0  0  0  0  0  2  0  0  0  0  0  0
  186.5410  177.6430  146.2060 C   0  0  0  0  0  0  0  0  0  0  0  0
  185.6320  177.6640  147.2780 C   0  0  0  0  0  0  0  0  0  0  0  0
  190.7750  176.9520  143.1530 C   0  0  0  0  0  2  0  0  0  0  0  0
  190.6680  175.6060  142.4470 C   0  0  0  0  0  2  0  0  0  0  0  0
  190.5820  174.4790  143.4630 C   0  0  0  0  0  2  0  0  0  0  0  0
  189.2050  173.8360  143.4290 C   0  0  0  0  0  2  0  0  0  0  0  0
  189.3210  172.3250  143.3100 C   0  0  0  0  0  2  0  0  0  0  0  0
  190.7150  170.7060  141.6740 S   0  0  0  0  0  0  0  0  0  0  0  0
  189.6730  171.9490  141.9140 C   0  0  0  0  0  0  0  0  0  0  0  0
  189.5050  173.2880  139.7230 C   0  0  0  0  0  0  0  0  0  0  0  0
  190.7370  173.5360  139.6440 O   0  0  0  0  0  0  0  0  0  0  0  0
  188.4120  173.8670  138.4360 S   0  0  0  0  0  1  0  0  0  0  0  0
  188.9570  172.5720  140.8370 N   0  0  0  0  0  2  0  0  0  0  0  0
  1 14  1  0  0  0  0
  2  5  1  6  0  0  0
  2 13  1  0  0  0  0
  2  3  1  0  0  0  0
  3 19  1  0  0  0  0
  4 11  2  0  0  0  0
  6 17  1  0  0  0  0
  6  1  2  0  0  0  0
  7  3  2  0  0  0  0
  7  4  1  0  0  0  0
  8 21  1  6  0  0  0
  8 13  1  0  0  0  0
  9  1  1  0  0  0  0
 11 20  1  0  0  0  0
 12  8  1  0  0  0  0
 13 18  1  1  0  0  0
 14  5  2  0  0  0  0
 16 12  1  0  0  0  0
 16  5  1  0  0  0  0
 17 16  2  0  0  0  0
 18 10  1  0  0  0  0
 19 10  1  0  0  0  0
 19 20  2  0  0  0  0
 20 15  1  0  0  0  0
 22 21  1  0  0  0  0
 22 23  1  0  0  0  0
 24 23  1  0  0  0  0
 25 24  1  0  0  0  0
 26 27  2  0  0  0  0
 27 25  1  0  0  0  0
 28 31  1  0  0  0  0
 29 28  2  0  0  0  0
 30 28  1  0  0  0  0
 31 27  1  0  0  0  0
M  END
>  <MODEL>
2

>  <REMARK>
 VINA RESULT:      -7.8      3.564      5.036
  Name = 
  7 active torsions:
  status: ('A' for Active; 'I' for Inactive)
    1  A    between atoms: C_3  and  C_19
    2  A    between atoms: C_3  and  C_22
    3  A    between atoms: C_7  and  C_9
    4  A    between atoms: C_7  and  C_22
    5  A    between atoms: C_9  and  C_23
    6  A    between atoms: C_15  and  C_23
    7  A    between atoms: C_19  and  N_24
                            x       y       z     vdW  Elec       q    Type
                         _______ _______ _______ _____ _____    ______ ____

>  <TORSDO>
F 7

$$$$
=
 OpenBabel11052417473D

 31 34  0  0  1  0  0  0  0  0999 V2000
  184.4530  178.1190  140.8320 C   0  0  0  0  0  0  0  0  0  0  0  0
  186.9970  178.0750  143.7190 C   0  0  2  0  0  3  0  0  0  0  0  0
  186.0740  178.0780  144.9360 C   0  0  0  0  0  0  0  0  0  0  0  0
  184.1110  178.9710  146.0710 C   0  0  0  0  0  3  0  0  0  0  0  0
  186.3510  177.9270  142.3470 C   0  0  0  0  0  0  0  0  0  0  0  0
  185.2690  177.7760  139.7530 C   0  0  0  0  0  3  0  0  0  0  0  0
  184.9170  178.8730  144.9370 C   0  0  0  0  0  3  0  0  0  0  0  0
  189.1920  177.3480  142.7510 C   0  0  1  0  0  3  0  0  0  0  0  0
  183.1070  178.3830  140.6280 O   0  0  0  0  0  1  0  0  0  0  0  0
  187.7410  176.6580  146.2380 C   0  0  0  0  0  2  0  0  0  0  0  0
  184.4650  178.2960  147.2380 C   0  0  0  0  0  3  0  0  0  0  0  0
  188.5540  177.2880  141.4360 N   0  0  0  0  0  2  0  0  0  0  0  0
  188.1620  177.0760  143.8530 C   0  0  1  0  0  3  0  0  0  0  0  0
  184.9930  178.2010  142.1180 C   0  0  0  0  0  3  0  0  0  0  0  0
  185.9800  176.8890  148.4620 O   0  0  0  0  0  1  0  0  0  0  0  0
  187.1700  177.5980  141.2440 C   0  0  0  0  0  0  0  0  0  0  0  0
  186.6250  177.5150  139.9600 C   0  0  0  0  0  3  0  0  0  0  0  0
  188.7730  177.1590  145.2410 C   0  0  0  0  0  2  0  0  0  0  0  0
  186.4640  177.4500  146.1480 C   0  0  0  0  0  0  0  0  0  0  0  0
  185.6370  177.5390  147.2820 C   0  0  0  0  0  0  0  0  0  0  0  0
  190.3780  176.3870  142.7910 C   0  0  0  0  0  2  0  0  0  0  0  0
  189.9710  174.9640  142.4280 C   0  0  0  0  0  2  0  0  0  0  0  0
  190.8490  173.9590  143.1550 C   0  0  0  0  0  2  0  0  0  0  0  0
  190.8160  174.2100  144.6540 C   0  0  0  0  0  2  0  0  0  0  0  0
  192.2160  174.1420  145.2410 C   0  0  0  0  0  2  0  0  0  0  0  0
  192.2000  176.2920  146.8610 S   0  0  0  0  0  0  0  0  0  0  0  0
  192.7220  175.5140  145.5140 C   0  0  0  0  0  0  0  0  0  0  0  0
  195.1780  175.7690  144.7900 C   0  0  0  0  0  0  0  0  0  0  0  0
  195.6510  175.0970  145.7430 O   0  0  0  0  0  0  0  0  0  0  0  0
  196.2840  176.4350  143.5560 S   0  0  0  0  0  1  0  0  0  0  0  0
  193.7730  176.0330  144.6860 N   0  0  0  0  0  2  0  0  0  0  0  0
  1 14  1  0  0  0  0
  2  5  1  6  0  0  0
  2 13  1  0  0  0  0
  2  3  1  0  0  0  0
  3  7  2  0  0  0  0
  3 19  1  0  0  0  0
  4 11  2  0  0  0  0
  6 17  1  0  0  0  0
  6  1  2  0  0  0  0
  7  4  1  0  0  0  0
  8 21  1  6  0  0  0
  8 13  1  0  0  0  0
  9  1  1  0  0  0  0
 11 20  1  0  0  0  0
 12  8  1  0  0  0  0
 13 18  1  1  0  0  0
 14  5  2  0  0  0  0
 16 12  1  0  0  0  0
 16  5  1  0  0  0  0
 17 16  2  0  0  0  0
 18 10  1  0  0  0  0
 19 10  1  0  0  0  0
 19 20  2  0  0  0  0
 20 15  1  0  0  0  0
 22 21  1  0  0  0  0
 22 23  1  0  0  0  0
 23 24  1  0  0  0  0
 24 25  1  0  0  0  0
 25 27  1  0  0  0  0
 27 26  2  0  0  0  0
 28 29  2  0  0  0  0
 30 28  1  0  0  0  0
 31 28  1  0  0  0  0
 31 27  1  0  0  0  0
M  END
>  <MODEL>
3

>  <REMARK>
 VINA RESULT:      -7.8      2.261      3.702
  Name = 
  7 active torsions:
  status: ('A' for Active; 'I' for Inactive)
    1  A    between atoms: C_3  and  C_19
    2  A    between atoms: C_3  and  C_22
    3  A    between atoms: C_7  and  C_9
    4  A    between atoms: C_7  and  C_22
    5  A    between atoms: C_9  and  C_23
    6  A    between atoms: C_15  and  C_23
    7  A    between atoms: C_19  and  N_24
                            x       y       z     vdW  Elec       q    Type
                         _______ _______ _______ _____ _____    ______ ____

>  <TORSDO>
F 7

$$$$
=
 OpenBabel11052417473D

 31 34  0  0  1  0  0  0  0  0999 V2000
  188.6620  174.9020  140.9650 C   0  0  0  0  0  0  0  0  0  0  0  0
  188.3210  176.8340  144.2750 C   0  0  2  0  0  3  0  0  0  0  0  0
  186.8830  177.3410  144.1820 C   0  0  0  0  0  0  0  0  0  0  0  0
  185.1080  178.3700  142.8670 C   0  0  0  0  0  3  0  0  0  0  0  0
  188.7960  175.8680  143.1970 C   0  0  0  0  0  0  0  0  0  0  0  0
  189.8270  174.1690  141.2020 C   0  0  0  0  0  3  0  0  0  0  0  0
  186.3820  177.8100  142.9580 C   0  0  0  0  0  3  0  0  0  0  0  0
  190.1860  176.0690  145.7650 C   0  0  1  0  0  3  0  0  0  0  0  0
  188.0090  174.7900  139.7460 O   0  0  0  0  0  1  0  0  0  0  0  0
  186.6200  177.1400  146.7080 C   0  0  0  0  0  2  0  0  0  0  0  0
  184.3210  178.4990  144.0110 C   0  0  0  0  0  3  0  0  0  0  0  0
  190.6550  175.2080  144.6810 N   0  0  0  0  0  2  0  0  0  0  0  0
  188.6690  176.2700  145.6650 C   0  0  1  0  0  3  0  0  0  0  0  0
  188.1560  175.7500  141.9530 C   0  0  0  0  0  3  0  0  0  0  0  0
  184.0170  178.2410  146.3800 O   0  0  0  0  0  1  0  0  0  0  0  0
  189.9840  175.1350  143.4180 C   0  0  0  0  0  0  0  0  0  0  0  0
  190.4850  174.2860  142.4280 C   0  0  0  0  0  3  0  0  0  0  0  0
  188.1390  177.1850  146.7560 C   0  0  0  0  0  2  0  0  0  0  0  0
  186.1030  177.5380  145.3520 C   0  0  0  0  0  0  0  0  0  0  0  0
  184.8130  178.0880  145.2500 C   0  0  0  0  0  0  0  0  0  0  0  0
  190.6240  175.4890  147.1090 C   0  0  0  0  0  2  0  0  0  0  0  0
  192.1160  175.1810  147.1370 C   0  0  0  0  0  2  0  0  0  0  0  0
  192.9240  176.4670  147.0820 C   0  0  0  0  0  2  0  0  0  0  0  0
  194.2560  176.2280  146.3880 C   0  0  0  0  0  2  0  0  0  0  0  0
  194.3010  174.8390  145.7750 C   0  0  0  0  0  2  0  0  0  0  0  0
  196.8200  173.8910  145.7180 S   0  0  0  0  0  0  0  0  0  0  0  0
  195.5610  174.6630  145.0030 C   0  0  0  0  0  0  0  0  0  0  0  0
  196.1280  176.1950  143.0150 C   0  0  0  0  0  0  0  0  0  0  0  0
  196.6050  177.1250  143.7170 O   0  0  0  0  0  0  0  0  0  0  0  0
  196.1220  176.3570  141.2370 S   0  0  0  0  0  1  0  0  0  0  0  0
  195.5670  175.0200  143.6130 N   0  0  0  0  0  2  0  0  0  0  0  0
  1  6  2  0  0  0  0
  1 14  1  0  0  0  0
  2  5  1  6  0  0  0
  2 13  1  0  0  0  0
  3  2  1  0  0  0  0
  3 19  1  0  0  0  0
  4  7  1  0  0  0  0
  4 11  2  0  0  0  0
  5 16  1  0  0  0  0
  6 17  1  0  0  0  0
  7  3  2  0  0  0  0
  8 21  1  1  0  0  0
  9  1  1  0  0  0  0
 10 18  1  0  0  0  0
 11 20  1  0  0  0  0
 12  8  1  0  0  0  0
 13  8  1  0  0  0  0
 13 18  1  1  0  0  0
 14  5  2  0  0  0  0
 16 12  1  0  0  0  0
 17 16  2  0  0  0  0
 19 10  1  0  0  0  0
 20 19  2  0  0  0  0
 20 15  1  0  0  0  0
 21 22  1  0  0  0  0
 23 22  1  0  0  0  0
 24 23  1  0  0  0  0
 25 24  1  0  0  0  0
 27 26  2  0  0  0  0
 27 25  1  0  0  0  0
 28 31  1  0  0  0  0
 28 29  2  0  0  0  0
 30 28  1  0  0  0  0
 31 27  1  0  0  0  0
M  END
>  <MODEL>
4

>  <REMARK>
 VINA RESULT:      -7.8      1.036      1.633
  Name = 
  7 active torsions:
  status: ('A' for Active; 'I' for Inactive)
    1  A    between atoms: C_3  and  C_19
    2  A    between atoms: C_3  and  C_22
    3  A    between atoms: C_7  and  C_9
    4  A    between atoms: C_7  and  C_22
    5  A    between atoms: C_9  and  C_23
    6  A    between atoms: C_15  and  C_23
    7  A    between atoms: C_19  and  N_24
                            x       y       z     vdW  Elec       q    Type
                         _______ _______ _______ _____ _____    ______ ____

>  <TORSDO>
F 7

$$$$
=
 OpenBabel11052417473D

 31 34  0  0  1  0  0  0  0  0999 V2000
  185.7900  178.0320  147.1310 C   0  0  0  0  0  0  0  0  0  0  0  0
  186.9780  177.9080  143.4730 C   0  0  2  0  0  3  0  0  0  0  0  0
  188.2700  177.1040  143.6010 C   0  0  0  0  0  0  0  0  0  0  0  0
  190.3630  176.6810  144.7760 C   0  0  0  0  0  3  0  0  0  0  0  0
  186.1060  178.0410  144.7160 C   0  0  0  0  0  0  0  0  0  0  0  0
  184.4700  178.4560  146.9690 C   0  0  0  0  0  3  0  0  0  0  0  0
  189.1310  177.3290  144.6860 C   0  0  0  0  0  3  0  0  0  0  0  0
  185.0060  178.4990  142.0420 C   0  0  1  0  0  3  0  0  0  0  0  0
  186.2960  177.8110  148.4030 O   0  0  0  0  0  1  0  0  0  0  0  0
  187.8840  176.0650  141.3070 C   0  0  0  0  0  2  0  0  0  0  0  0
  190.7700  175.8160  143.7610 C   0  0  0  0  0  3  0  0  0  0  0  0
  184.2200  178.6880  143.2610 N   0  0  0  0  0  2  0  0  0  0  0  0
  186.1110  177.4640  142.2790 C   0  0  1  0  0  3  0  0  0  0  0  0
  186.6030  177.8330  146.0120 C   0  0  0  0  0  3  0  0  0  0  0  0
  190.3900  174.7580  141.6370 O   0  0  0  0  0  1  0  0  0  0  0  0
  184.7740  178.4870  144.5660 C   0  0  0  0  0  0  0  0  0  0  0  0
  183.9630  178.6820  145.6880 C   0  0  0  0  0  3  0  0  0  0  0  0
  186.9750  177.2560  141.0470 C   0  0  0  0  0  2  0  0  0  0  0  0
  188.7210  176.2750  142.5400 C   0  0  0  0  0  0  0  0  0  0  0  0
  189.9560  175.6130  142.6450 C   0  0  0  0  0  0  0  0  0  0  0  0
  184.0790  178.1290  140.8850 C   0  0  0  0  0  2  0  0  0  0  0  0
  182.6500  178.6000  141.1270 C   0  0  0  0  0  2  0  0  0  0  0  0
  181.6890  177.8780  140.1970 C   0  0  0  0  0  2  0  0  0  0  0  0
  180.2560  178.3000  140.4820 C   0  0  0  0  0  2  0  0  0  0  0  0
  180.1830  179.7880  140.7770 C   0  0  0  0  0  2  0  0  0  0  0  0
  178.0620  179.5440  139.1380 S   0  0  0  0  0  0  0  0  0  0  0  0
  179.2390  180.4490  139.8350 C   0  0  0  0  0  0  0  0  0  0  0  0
  179.3070  182.6460  138.4980 C   0  0  0  0  0  0  0  0  0  0  0  0
  179.3910  182.0940  137.3700 O   0  0  0  0  0  0  0  0  0  0  0  0
  179.2410  184.4280  138.5960 S   0  0  0  0  0  1  0  0  0  0  0  0
  179.2880  181.8780  139.7070 N   0  0  0  0  0  2  0  0  0  0  0  0
  1  9  1  0  0  0  0
  2  3  1  1  0  0  0
  2  5  1  0  0  0  0
  3  7  1  0  0  0  0
  5 14  1  0  0  0  0
  6  1  1  0  0  0  0
  7  4  2  0  0  0  0
  8 21  1  6  0  0  0
  8 13  1  0  0  0  0
  8 12  1  0  0  0  0
 10 19  1  0  0  0  0
 11  4  1  0  0  0  0
 12 16  1  0  0  0  0
 13 18  1  6  0  0  0
 13  2  1  0  0  0  0
 14  1  2  0  0  0  0
 15 20  1  0  0  0  0
 16  5  2  0  0  0  0
 16 17  1  0  0  0  0
 17  6  2  0  0  0  0
 18 10  1  0  0  0  0
 19 20  1  0  0  0  0
 19  3  2  0  0  0  0
 20 11  2  0  0  0  0
 21 22  1  0  0  0  0
 23 24  1  0  0  0  0
 23 22  1  0  0  0  0
 24 25  1  0  0  0  0
 26 27  2  0  0  0  0
 27 25  1  0  0  0  0
 28 30  1  0  0  0  0
 28 31  1  0  0  0  0
 29 28  2  0  0  0  0
 31 27  1  0  0  0  0
M  END
>  <MODEL>
5

>  <REMARK>
 VINA RESULT:      -7.7      6.103     10.830
  Name = 
  7 active torsions:
  status: ('A' for Active; 'I' for Inactive)
    1  A    between atoms: C_3  and  C_19
    2  A    between atoms: C_3  and  C_22
    3  A    between atoms: C_7  and  C_9
    4  A    between atoms: C_7  and  C_22
    5  A    between atoms: C_9  and  C_23
    6  A    between atoms: C_15  and  C_23
    7  A    between atoms: C_19  and  N_24
                            x       y       z     vdW  Elec       q    Type
                         _______ _______ _______ _____ _____    ______ ____

>  <TORSDO>
F 7

$$$$
=
 OpenBabel11052417473D

 31 34  0  0  1  0  0  0  0  0999 V2000
  190.1600  177.5600  147.6850 C   0  0  0  0  0  0  0  0  0  0  0  0
  188.3900  175.9410  144.6760 C   0  0  2  0  0  3  0  0  0  0  0  0
  187.5070  177.0880  144.1910 C   0  0  0  0  0  0  0  0  0  0  0  0
  185.9630  178.9020  144.7060 C   0  0  0  0  0  3  0  0  0  0  0  0
  189.3890  176.2430  145.7850 C   0  0  0  0  0  0  0  0  0  0  0  0
  191.1930  176.6480  147.9090 C   0  0  0  0  0  3  0  0  0  0  0  0
  186.8530  177.9110  145.1200 C   0  0  0  0  0  3  0  0  0  0  0  0
  189.7140  173.9040  144.0560 C   0  0  1  0  0  3  0  0  0  0  0  0
  190.0220  178.6680  148.5070 O   0  0  0  0  0  1  0  0  0  0  0  0
  187.7660  176.3060  141.7800 C   0  0  0  0  0  2  0  0  0  0  0  0
  185.6880  179.0680  143.3500 C   0  0  0  0  0  3  0  0  0  0  0  0
  190.6100  174.1860  145.1770 N   0  0  0  0  0  2  0  0  0  0  0  0
  189.1030  175.2050  143.5250 C   0  0  1  0  0  3  0  0  0  0  0  0
  189.2610  177.3530  146.6350 C   0  0  0  0  0  3  0  0  0  0  0  0
  185.9820  178.4020  141.0600 O   0  0  0  0  0  1  0  0  0  0  0  0
  190.4290  175.3190  146.0330 C   0  0  0  0  0  0  0  0  0  0  0  0
  191.3270  175.5310  147.0830 C   0  0  0  0  0  3  0  0  0  0  0  0
  188.1390  174.9590  142.3770 C   0  0  0  0  0  2  0  0  0  0  0  0
  187.1690  177.2180  142.8180 C   0  0  0  0  0  0  0  0  0  0  0  0
  186.2850  178.2300  142.4060 C   0  0  0  0  0  0  0  0  0  0  0  0
  190.4640  173.1140  142.9840 C   0  0  0  0  0  2  0  0  0  0  0  0
  191.9260  173.5330  142.8860 C   0  0  0  0  0  2  0  0  0  0  0  0
  192.0730  174.7360  141.9700 C   0  0  0  0  0  2  0  0  0  0  0  0
  193.3240  175.5240  142.3230 C   0  0  0  0  0  2  0  0  0  0  0  0
  193.1220  176.3030  143.6120 C   0  0  0  0  0  2  0  0  0  0  0  0
  194.4310  177.1810  145.7940 S   0  0  0  0  0  0  0  0  0  0  0  0
  194.3810  176.3080  144.4060 C   0  0  0  0  0  0  0  0  0  0  0  0
  196.7240  175.7640  143.4930 C   0  0  0  0  0  0  0  0  0  0  0  0
  197.0180  176.9550  143.2100 O   0  0  0  0  0  0  0  0  0  0  0  0
  197.9250  174.4750  143.2030 S   0  0  0  0  0  1  0  0  0  0  0  0
  195.4380  175.4170  144.0190 N   0  0  0  0  0  2  0  0  0  0  0  0
  1  6  1  0  0  0  0
  1  9  1  0  0  0  0
  2  3  1  6  0  0  0
  2  5  1  0  0  0  0
  3  7  1  0  0  0  0
  4  7  2  0  0  0  0
  5 16  2  0  0  0  0
  5 14  1  0  0  0  0
  8 21  1  6  0  0  0
  8 12  1  0  0  0  0
 10 18  1  0  0  0  0
 10 19  1  0  0  0  0
 11  4  1  0  0  0  0
 12 16  1  0  0  0  0
 13 18  1  6  0  0  0
 13  8  1  0  0  0  0
 13  2  1  0  0  0  0
 14  1  2  0  0  0  0
 15 20  1  0  0  0  0
 16 17  1  0  0  0  0
 17  6  2  0  0  0  0
 19  3  2  0  0  0  0
 20 19  1  0  0  0  0
 20 11  2  0  0  0  0
 22 21  1  0  0  0  0
 23 24  1  0  0  0  0
 23 22  1  0  0  0  0
 24 25  1  0  0  0  0
 25 27  1  0  0  0  0
 27 26  2  0  0  0  0
 28 31  1  0  0  0  0
 29 28  2  0  0  0  0
 30 28  1  0  0  0  0
 31 27  1  0  0  0  0
M  END
>  <MODEL>
6

>  <REMARK>
 VINA RESULT:      -7.3      2.009      4.127
  Name = 
  7 active torsions:
  status: ('A' for Active; 'I' for Inactive)
    1  A    between atoms: C_3  and  C_19
    2  A    between atoms: C_3  and  C_22
    3  A    between atoms: C_7  and  C_9
    4  A    between atoms: C_7  and  C_22
    5  A    between atoms: C_9  and  C_23
    6  A    between atoms: C_15  and  C_23
    7  A    between atoms: C_19  and  N_24
                            x       y       z     vdW  Elec       q    Type
                         _______ _______ _______ _____ _____    ______ ____

>  <TORSDO>
F 7

$$$$
=
 OpenBabel11052417473D

 31 34  0  0  1  0  0  0  0  0999 V2000
  185.5460  177.7070  147.0650 C   0  0  0  0  0  0  0  0  0  0  0  0
  187.5210  177.0800  143.8230 C   0  0  2  0  0  3  0  0  0  0  0  0
  188.3550  175.8590  144.2080 C   0  0  0  0  0  0  0  0  0  0  0  0
  189.7690  174.7190  145.8320 C   0  0  0  0  0  3  0  0  0  0  0  0
  186.4640  177.5500  144.8140 C   0  0  0  0  0  0  0  0  0  0  0  0
  184.5590  178.5840  146.6110 C   0  0  0  0  0  3  0  0  0  0  0  0
  188.9230  175.7730  145.4880 C   0  0  0  0  0  3  0  0  0  0  0  0
  186.3430  178.3260  141.9940 C   0  0  1  0  0  3  0  0  0  0  0  0
  185.5870  177.3410  148.4020 O   0  0  0  0  0  1  0  0  0  0  0  0
  188.2350  174.9880  141.8160 C   0  0  0  0  0  2  0  0  0  0  0  0
  190.0870  173.7440  144.8880 C   0  0  0  0  0  3  0  0  0  0  0  0
  185.3900  178.8160  142.9880 N   0  0  0  0  0  2  0  0  0  0  0  0
  186.8980  176.9610  142.4190 C   0  0  1  0  0  3  0  0  0  0  0  0
  186.4950  177.2000  146.1730 C   0  0  0  0  0  3  0  0  0  0  0  0
  189.9210  172.8570  142.6610 O   0  0  0  0  0  1  0  0  0  0  0  0
  185.4710  178.4520  144.3700 C   0  0  0  0  0  0  0  0  0  0  0  0
  184.5220  178.9540  145.2650 C   0  0  0  0  0  3  0  0  0  0  0  0
  187.9180  176.4240  141.4300 C   0  0  0  0  0  2  0  0  0  0  0  0
  188.7370  174.9000  143.2320 C   0  0  0  0  0  0  0  0  0  0  0  0
  189.5770  173.8320  143.5910 C   0  0  0  0  0  0  0  0  0  0  0  0
  185.6830  178.2990  140.6170 C   0  0  0  0  0  2  0  0  0  0  0  0
  184.3560  177.5490  140.6350 C   0  0  0  0  0  2  0  0  0  0  0  0
  183.1940  178.5250  140.5690 C   0  0  0  0  0  2  0  0  0  0  0  0
  181.9700  177.9420  141.2580 C   0  0  0  0  0  2  0  0  0  0  0  0
  180.7050  178.2920  140.4930 C   0  0  0  0  0  2  0  0  0  0  0  0
  179.5920  180.7170  140.1360 S   0  0  0  0  0  0  0  0  0  0  0  0
  180.0490  179.4780  141.1080 C   0  0  0  0  0  0  0  0  0  0  0  0
  178.6180  178.6670  143.0870 C   0  0  0  0  0  0  0  0  0  0  0  0
  177.7870  178.0390  142.3800 O   0  0  0  0  0  0  0  0  0  0  0  0
  178.4440  178.6500  144.8640 S   0  0  0  0  0  1  0  0  0  0  0  0
  179.6870  179.4160  142.4960 N   0  0  0  0  0  2  0  0  0  0  0  0
  1  9  1  0  0  0  0
  2  3  1  1  0  0  0
  2  5  1  0  0  0  0
  3  7  1  0  0  0  0
  5 14  1  0  0  0  0
  6  1  1  0  0  0  0
  7  4  2  0  0  0  0
  8 21  1  6  0  0  0
  8 13  1  0  0  0  0
  8 12  1  0  0  0  0
 10 19  1  0  0  0  0
 11  4  1  0  0  0  0
 12 16  1  0  0  0  0
 13 18  1  6  0  0  0
 13  2  1  0  0  0  0
 14  1  2  0  0  0  0
 15 20  1  0  0  0  0
 16  5  2  0  0  0  0
 16 17  1  0  0  0  0
 17  6  2  0  0  0  0
 18 10  1  0  0  0  0
 19 20  1  0  0  0  0
 19  3  2  0  0  0  0
 20 11  2  0  0  0  0
 21 22  1  0  0  0  0
 23 22  1  0  0  0  0
 23 24  1  0  0  0  0
 25 27  1  0  0  0  0
 25 24  1  0  0  0  0
 26 27  2  0  0  0  0
 27 31  1  0  0  0  0
 28 30  1  0  0  0  0
 29 28  2  0  0  0  0
 31 28  1  0  0  0  0
M  END
>  <MODEL>
7

>  <REMARK>
 VINA RESULT:      -7.3      5.522     10.089
  Name = 
  7 active torsions:
  status: ('A' for Active; 'I' for Inactive)
    1  A    between atoms: C_3  and  C_19
    2  A    between atoms: C_3  and  C_22
    3  A    between atoms: C_7  and  C_9
    4  A    between atoms: C_7  and  C_22
    5  A    between atoms: C_9  and  C_23
    6  A    between atoms: C_15  and  C_23
    7  A    between atoms: C_19  and  N_24
                            x       y       z     vdW  Elec       q    Type
                         _______ _______ _______ _____ _____    ______ ____

>  <TORSDO>
F 7

$$$$
=
 OpenBabel11052417473D

 31 34  0  0  1  0  0  0  0  0999 V2000
  190.9700  176.7990  147.2920 C   0  0  0  0  0  0  0  0  0  0  0  0
  187.8360  176.2560  145.1270 C   0  0  2  0  0  3  0  0  0  0  0  0
  186.7970  177.0800  145.8850 C   0  0  0  0  0  0  0  0  0  0  0  0
  185.7820  177.7280  148.0040 C   0  0  0  0  0  3  0  0  0  0  0  0
  189.2830  176.3480  145.5940 C   0  0  0  0  0  0  0  0  0  0  0  0
  191.9710  176.3430  146.4320 C   0  0  0  0  0  3  0  0  0  0  0  0
  186.7790  177.0650  147.2880 C   0  0  0  0  0  3  0  0  0  0  0  0
  188.6190  175.3970  142.9060 C   0  0  1  0  0  3  0  0  0  0  0  0
  191.2990  177.2540  148.5600 O   0  0  0  0  0  1  0  0  0  0  0  0
  185.6320  177.6760  143.6990 C   0  0  0  0  0  2  0  0  0  0  0  0
  184.7630  178.3950  147.3240 C   0  0  0  0  0  3  0  0  0  0  0  0
  189.9900  175.4290  143.4140 N   0  0  0  0  0  2  0  0  0  0  0  0
  187.7700  176.4670  143.6020 C   0  0  1  0  0  3  0  0  0  0  0  0
  189.6360  176.7940  146.8770 C   0  0  0  0  0  3  0  0  0  0  0  0
  183.6930  179.0410  145.2730 O   0  0  0  0  0  1  0  0  0  0  0  0
  190.3030  175.8720  144.7390 C   0  0  0  0  0  0  0  0  0  0  0  0
  191.6360  175.8810  145.1580 C   0  0  0  0  0  3  0  0  0  0  0  0
  186.3270  176.4510  143.1270 C   0  0  0  0  0  2  0  0  0  0  0  0
  185.7200  177.7030  145.2010 C   0  0  0  0  0  0  0  0  0  0  0  0
  184.7280  178.3830  145.9290 C   0  0  0  0  0  0  0  0  0  0  0  0
  188.6320  175.5410  141.3850 C   0  0  0  0  0  2  0  0  0  0  0  0
  188.5120  174.1930  140.6840 C   0  0  0  0  0  2  0  0  0  0  0  0
  188.1350  173.1090  141.6800 C   0  0  0  0  0  2  0  0  0  0  0  0
  189.2060  172.0320  141.7240 C   0  0  0  0  0  2  0  0  0  0  0  0
  189.7180  171.8410  143.1420 C   0  0  0  0  0  2  0  0  0  0  0  0
  191.2740  170.0320  141.8960 S   0  0  0  0  0  0  0  0  0  0  0  0
  191.0000  171.0850  143.1230 C   0  0  0  0  0  0  0  0  0  0  0  0
  192.9030  172.5560  144.0390 C   0  0  0  0  0  0  0  0  0  0  0  0
  192.9420  173.3270  143.0440 O   0  0  0  0  0  0  0  0  0  0  0  0
  193.9990  172.8490  145.4170 S   0  0  0  0  0  1  0  0  0  0  0  0
  192.0130  171.4330  144.0790 N   0  0  0  0  0  2  0  0  0  0  0  0
  1  9  1  0  0  0  0
  2  5  1  1  0  0  0
  2  3  1  0  0  0  0
  3  7  1  0  0  0  0
  5 14  2  0  0  0  0
  6  1  2  0  0  0  0
  7  4  2  0  0  0  0
  8 21  1  6  0  0  0
  8 12  1  0  0  0  0
  8 13  1  0  0  0  0
 10 19  1  0  0  0  0
 11  4  1  0  0  0  0
 12 16  1  0  0  0  0
 13 18  1  6  0  0  0
 13  2  1  0  0  0  0
 14  1  1  0  0  0  0
 15 20  1  0  0  0  0
 16 17  2  0  0  0  0
 16  5  1  0  0  0  0
 17  6  1  0  0  0  0
 18 10  1  0  0  0  0
 19  3  2  0  0  0  0
 19 20  1  0  0  0  0
 20 11  2  0  0  0  0
 22 21  1  0  0  0  0
 22 23  1  0  0  0  0
 23 24  1  0  0  0  0
 24 25  1  0  0  0  0
 26 27  2  0  0  0  0
 27 25  1  0  0  0  0
 27 31  1  0  0  0  0
 28 31  1  0  0  0  0
 28 30  1  0  0  0  0
 29 28  2  0  0  0  0
M  END
>  <MODEL>
8

>  <REMARK>
 VINA RESULT:      -7.3      2.514      4.858
  Name = 
  7 active torsions:
  status: ('A' for Active; 'I' for Inactive)
    1  A    between atoms: C_3  and  C_19
    2  A    between atoms: C_3  and  C_22
    3  A    between atoms: C_7  and  C_9
    4  A    between atoms: C_7  and  C_22
    5  A    between atoms: C_9  and  C_23
    6  A    between atoms: C_15  and  C_23
    7  A    between atoms: C_19  and  N_24
                            x       y       z     vdW  Elec       q    Type
                         _______ _______ _______ _____ _____    ______ ____

>  <TORSDO>
F 7

$$$$
=
 OpenBabel11052417473D

 31 34  0  0  1  0  0  0  0  0999 V2000
  188.7740  173.8890  139.8970 C   0  0  0  0  0  0  0  0  0  0  0  0
  188.1140  176.5320  142.6150 C   0  0  2  0  0  3  0  0  0  0  0  0
  186.7720  177.1040  142.1610 C   0  0  0  0  0  0  0  0  0  0  0  0
  185.3520  177.9330  140.3630 C   0  0  0  0  0  3  0  0  0  0  0  0
  188.6500  175.3180  141.8650 C   0  0  0  0  0  0  0  0  0  0  0  0
  189.8000  173.1490  140.4870 C   0  0  0  0  0  3  0  0  0  0  0  0
  186.5280  177.3210  140.7970 C   0  0  0  0  0  3  0  0  0  0  0  0
  189.6220  175.9920  144.5430 C   0  0  1  0  0  3  0  0  0  0  0  0
  188.3170  173.5540  138.6310 O   0  0  0  0  0  1  0  0  0  0  0  0
  186.0860  177.4910  144.5840 C   0  0  0  0  0  2  0  0  0  0  0  0
  184.4090  178.3690  141.2930 C   0  0  0  0  0  3  0  0  0  0  0  0
  190.1640  174.8800  143.7640 N   0  0  0  0  0  2  0  0  0  0  0  0
  188.1710  176.2700  144.1310 C   0  0  1  0  0  3  0  0  0  0  0  0
  188.2090  174.9700  140.5790 C   0  0  0  0  0  3  0  0  0  0  0  0
  183.7030  178.6690  143.5700 O   0  0  0  0  0  1  0  0  0  0  0  0
  189.7010  174.5730  142.4450 C   0  0  0  0  0  0  0  0  0  0  0  0
  190.2610  173.4910  141.7600 C   0  0  0  0  0  3  0  0  0  0  0  0
  187.5740  177.4410  144.8940 C   0  0  0  0  0  2  0  0  0  0  0  0
  185.8400  177.6110  143.1040 C   0  0  0  0  0  0  0  0  0  0  0  0
  184.6490  178.2120  142.6590 C   0  0  0  0  0  0  0  0  0  0  0  0
  189.7740  175.6980  146.0350 C   0  0  0  0  0  2  0  0  0  0  0  0
  190.9940  176.3900  146.6300 C   0  0  0  0  0  2  0  0  0  0  0  0
  191.9140  175.3730  147.2840 C   0  0  0  0  0  2  0  0  0  0  0  0
  192.9270  174.8480  146.2780 C   0  0  0  0  0  2  0  0  0  0  0  0
  194.1770  175.7110  146.2750 C   0  0  0  0  0  2  0  0  0  0  0  0
  196.3050  174.1410  145.7720 S   0  0  0  0  0  0  0  0  0  0  0  0
  195.1500  175.1940  145.2740 C   0  0  0  0  0  0  0  0  0  0  0  0
  195.7630  176.2930  143.0300 C   0  0  0  0  0  0  0  0  0  0  0  0
  196.7640  176.9140  143.4740 O   0  0  0  0  0  0  0  0  0  0  0  0
  195.3480  176.4270  141.2980 S   0  0  0  0  0  1  0  0  0  0  0  0
  194.9340  175.5000  143.8880 N   0  0  0  0  0  2  0  0  0  0  0  0
  1  6  2  0  0  0  0
  1 14  1  0  0  0  0
  2  5  1  6  0  0  0
  2 13  1  0  0  0  0
  3  2  1  0  0  0  0
  3 19  1  0  0  0  0
  4  7  1  0  0  0  0
  4 11  2  0  0  0  0
  5 16  1  0  0  0  0
  6 17  1  0  0  0  0
  7  3  2  0  0  0  0
  8 21  1  1  0  0  0
  9  1  1  0  0  0  0
 10 18  1  0  0  0  0
 11 20  1  0  0  0  0
 12  8  1  0  0  0  0
 13  8  1  0  0  0  0
 13 18  1  1  0  0  0
 14  5  2  0  0  0  0
 16 12  1  0  0  0  0
 17 16  2  0  0  0  0
 19 10  1  0  0  0  0
 20 19  2  0  0  0  0
 20 15  1  0  0  0  0
 21 22  1  0  0  0  0
 22 23  1  0  0  0  0
 24 23  1  0  0  0  0
 25 24  1  0  0  0  0
 27 26  2  0  0  0  0
 27 25  1  0  0  0  0
 28 29  2  0  0  0  0
 28 31  1  0  0  0  0
 30 28  1  0  0  0  0
 31 27  1  0  0  0  0
M  END
>  <MODEL>
9

>  <REMARK>
 VINA RESULT:      -7.2      1.429      2.159
  Name = 
  7 active torsions:
  status: ('A' for Active; 'I' for Inactive)
    1  A    between atoms: C_3  and  C_19
    2  A    between atoms: C_3  and  C_22
    3  A    between atoms: C_7  and  C_9
    4  A    between atoms: C_7  and  C_22
    5  A    between atoms: C_9  and  C_23
    6  A    between atoms: C_15  and  C_23
    7  A    between atoms: C_19  and  N_24
                            x       y       z     vdW  Elec       q    Type
                         _______ _______ _______ _____ _____    ______ ____

>  <TORSDO>
F 7

$$$$
