=
 OpenBabel11052419223D

 32 33  0  0  1  0  0  0  0  0999 V2000
  188.3760  177.4020  142.3340 C   0  0  0  0  0  0  0  0  0  0  0  0
  189.0950  178.2260  141.7860 O   0  0  0  0  0  0  0  0  0  0  0  0
  184.6900  178.0160  141.5520 C   0  0  0  0  0  0  0  0  0  0  0  0
  183.8760  177.9460  140.6450 O   0  0  0  0  0  0  0  0  0  0  0  0
  186.7800  179.1020  143.1930 C   0  0  0  0  0  2  0  0  0  0  0  0
  184.2600  178.5210  142.8990 C   0  0  0  0  0  2  0  0  0  0  0  0
  186.9350  177.7030  142.5960 C   0  0  1  0  0  3  0  0  0  0  0  0
  186.1030  177.5640  141.3220 C   0  0  0  0  0  2  0  0  0  0  0  0
  185.3170  179.4480  143.5220 C   0  0  1  0  0  3  0  0  0  0  0  0
  185.0960  179.6230  145.0240 C   0  0  0  0  0  2  0  0  0  0  0  0
  183.9310  178.7920  145.5590 C   0  0  0  0  0  2  0  0  0  0  0  0
  184.2840  178.1110  146.8710 C   0  0  0  0  0  2  0  0  0  0  0  0
  185.6110  178.5160  147.3000 N   0  0  0  0  0  2  0  0  0  0  0  0
  187.7530  177.4620  146.9250 C   0  0  0  0  0  2  0  0  0  0  0  0
  186.7010  176.6660  146.1870 C   0  0  0  0  0  2  0  0  0  0  0  0
  186.3690  177.2990  147.5220 C   0  0  0  0  0  3  0  0  0  0  0  0
  189.1220  175.2580  141.6640 O   0  0  0  0  0  1  0  0  0  0  0  0
  188.9320  176.0830  142.7750 C   0  0  1  0  0  3  0  0  0  0  0  0
  190.2490  176.2550  143.5390 C   0  0  2  0  0  3  0  0  0  0  0  0
  191.3370  175.3360  142.9860 C   0  0  0  0  0  2  0  0  0  0  0  0
  192.8770  176.2490  142.6400 S   0  0  0  0  0  0  0  0  0  0  0  0
  193.8830  175.0370  143.5450 C   0  0  2  0  0  3  0  0  0  0  0  0
  193.0110  173.8900  144.0380 C   0  0  0  0  0  1  0  0  0  0  0  0
  194.6670  175.7170  144.6690 C   0  0  1  0  0  3  0  0  0  0  0  0
  194.1800  176.8820  146.7090 O   0  0  0  0  0  1  0  0  0  0  0  0
  193.8590  176.8190  145.3530 C   0  0  0  0  0  2  0  0  0  0  0  0
  195.1530  174.6820  145.6750 C   0  0  0  0  0  2  0  0  0  0  0  0
  196.9570  173.0760  146.2060 C   0  0  0  0  0  1  0  0  0  0  0  0
  196.5920  174.2990  145.3920 C   0  0  0  0  0  2  0  0  0  0  0  0
  190.0670  176.0070  144.9050 O   0  0  0  0  0  0  0  0  0  0  0  0
  189.5720  174.7030  144.9720 C   0  0  0  0  0  2  0  0  0  0  0  0
  189.5510  174.2460  146.4160 C   0  0  0  0  0  1  0  0  0  0  0  0
  1 18  1  0  0  0  0
  2  1  2  0  0  0  0
  3  6  1  0  0  0  0
  4  3  2  0  0  0  0
  5  9  1  0  0  0  0
  6  9  1  0  0  0  0
  7  1  1  6  0  0  0
  7  5  1  0  0  0  0
  8  3  1  0  0  0  0
  8  7  1  0  0  0  0
  9 10  1  1  0  0  0
 10 11  1  0  0  0  0
 11 12  1  0  0  0  0
 12 13  1  0  0  0  0
 13 16  1  0  0  0  0
 14 16  1  0  0  0  0
 15 14  1  0  0  0  0
 15 16  1  0  0  0  0
 18 17  1  6  0  0  0
 18 19  1  0  0  0  0
 19 20  1  6  0  0  0
 19 30  1  0  0  0  0
 21 20  1  0  0  0  0
 21 22  1  0  0  0  0
 22 23  1  1  0  0  0
 22 24  1  0  0  0  0
 24 26  1  1  0  0  0
 24 27  1  0  0  0  0
 26 25  1  0  0  0  0
 29 27  1  0  0  0  0
 29 28  1  0  0  0  0
 30 31  1  0  0  0  0
 31 32  1  0  0  0  0
M  END
>  <MODEL>
1

>  <REMARK>
 VINA RESULT:      -5.8      0.000      0.000
  Name = 
  17 active torsions:
  status: ('A' for Active; 'I' for Inactive)
    1  A    between atoms: C_1  and  C_2
    2  A    between atoms: C_1  and  S_30
    3  A    between atoms: C_2  and  O_5
    4  A    between atoms: C_2  and  C_27
    5  A    between atoms: C_4  and  C_29
    6  A    between atoms: C_4  and  S_30
    7  A    between atoms: O_5  and  C_14
    8  A    between atoms: C_7  and  C_26
    9  A    between atoms: C_7  and  C_31
   10  A    between atoms: C_9  and  C_31
   11  A    between atoms: C_9  and  N_32
   12  A    between atoms: C_16  and  C_20
   13  A    between atoms: C_16  and  C_27
   14  A    between atoms: C_17  and  C_29
   15  A    between atoms: C_18  and  C_25
   16  A    between atoms: C_18  and  C_29
   17  A    between atoms: C_28  and  N_32
                            x       y       z     vdW  Elec       q    Type
                         _______ _______ _______ _____ _____    ______ ____

>  <TORSDO>
F 17

$$$$
=
 OpenBabel11052419223D

 32 33  0  0  1  0  0  0  0  0999 V2000
  188.9300  177.2760  143.4770 C   0  0  0  0  0  0  0  0  0  0  0  0
  189.0640  177.8860  144.5290 O   0  0  0  0  0  0  0  0  0  0  0  0
  186.5800  177.3990  140.4700 C   0  0  0  0  0  0  0  0  0  0  0  0
  186.5730  177.3050  139.2530 O   0  0  0  0  0  0  0  0  0  0  0  0
  186.8710  178.6030  143.0600 C   0  0  0  0  0  2  0  0  0  0  0  0
  185.3000  177.6770  141.2020 C   0  0  0  0  0  2  0  0  0  0  0  0
  187.6350  177.3210  142.7310 C   0  0  1  0  0  3  0  0  0  0  0  0
  187.8630  177.1990  141.2250 C   0  0  0  0  0  2  0  0  0  0  0  0
  185.5080  178.6800  142.3490 C   0  0  1  0  0  3  0  0  0  0  0  0
  184.3450  178.6500  143.3400 C   0  0  0  0  0  2  0  0  0  0  0  0
  184.6530  179.3790  144.6470 C   0  0  0  0  0  2  0  0  0  0  0  0
  183.9070  178.7660  145.8210 C   0  0  0  0  0  2  0  0  0  0  0  0
  184.6130  177.5890  146.2980 N   0  0  0  0  0  2  0  0  0  0  0  0
  186.7820  176.7910  147.0070 C   0  0  0  0  0  2  0  0  0  0  0  0
  186.3430  177.8750  147.9650 C   0  0  0  0  0  2  0  0  0  0  0  0
  185.9960  177.9820  146.4950 C   0  0  0  0  0  3  0  0  0  0  0  0
  191.2280  177.2090  142.9160 O   0  0  0  0  0  1  0  0  0  0  0  0
  190.0540  176.4530  142.9280 C   0  0  1  0  0  3  0  0  0  0  0  0
  190.2600  175.1690  143.7390 C   0  0  2  0  0  3  0  0  0  0  0  0
  191.6050  174.5190  143.4210 C   0  0  0  0  0  2  0  0  0  0  0  0
  192.1260  173.3710  144.7380 S   0  0  0  0  0  0  0  0  0  0  0  0
  193.7620  174.1490  144.8670 C   0  0  2  0  0  3  0  0  0  0  0  0
  194.8500  173.0850  144.9200 C   0  0  0  0  0  1  0  0  0  0  0  0
  193.8100  175.1120  146.0560 C   0  0  1  0  0  3  0  0  0  0  0  0
  194.4000  176.5870  144.2580 O   0  0  0  0  0  1  0  0  0  0  0  0
  194.1510  176.5390  145.6300 C   0  0  0  0  0  2  0  0  0  0  0  0
  192.4980  175.0630  146.8270 C   0  0  0  0  0  2  0  0  0  0  0  0
  190.4520  176.3420  147.3720 C   0  0  0  0  0  1  0  0  0  0  0  0
  191.9020  176.4520  146.9520 C   0  0  0  0  0  2  0  0  0  0  0  0
  189.2240  174.2580  143.4990 O   0  0  0  0  0  0  0  0  0  0  0  0
  189.3890  173.8650  142.1690 C   0  0  0  0  0  2  0  0  0  0  0  0
  188.0600  173.3980  141.6130 C   0  0  0  0  0  1  0  0  0  0  0  0
  1  2  2  0  0  0  0
  3  6  1  0  0  0  0
  3  8  1  0  0  0  0
  4  3  2  0  0  0  0
  6  9  1  0  0  0  0
  7  5  1  0  0  0  0
  7  1  1  1  0  0  0
  8  7  1  0  0  0  0
  9  5  1  0  0  0  0
  9 10  1  1  0  0  0
 10 11  1  0  0  0  0
 11 12  1  0  0  0  0
 12 13  1  0  0  0  0
 13 16  1  0  0  0  0
 14 15  1  0  0  0  0
 16 14  1  0  0  0  0
 16 15  1  0  0  0  0
 18 17  1  1  0  0  0
 18  1  1  0  0  0  0
 18 19  1  0  0  0  0
 19 20  1  6  0  0  0
 20 21  1  0  0  0  0
 21 22  1  0  0  0  0
 22 23  1  1  0  0  0
 22 24  1  0  0  0  0
 24 26  1  6  0  0  0
 24 27  1  0  0  0  0
 25 26  1  0  0  0  0
 27 29  1  0  0  0  0
 29 28  1  0  0  0  0
 30 19  1  0  0  0  0
 31 30  1  0  0  0  0
 32 31  1  0  0  0  0
M  END
>  <MODEL>
2

>  <REMARK>
 VINA RESULT:      -5.8      1.792      2.675
  Name = 
  17 active torsions:
  status: ('A' for Active; 'I' for Inactive)
    1  A    between atoms: C_1  and  C_2
    2  A    between atoms: C_1  and  S_30
    3  A    between atoms: C_2  and  O_5
    4  A    between atoms: C_2  and  C_27
    5  A    between atoms: C_4  and  C_29
    6  A    between atoms: C_4  and  S_30
    7  A    between atoms: O_5  and  C_14
    8  A    between atoms: C_7  and  C_26
    9  A    between atoms: C_7  and  C_31
   10  A    between atoms: C_9  and  C_31
   11  A    between atoms: C_9  and  N_32
   12  A    between atoms: C_16  and  C_20
   13  A    between atoms: C_16  and  C_27
   14  A    between atoms: C_17  and  C_29
   15  A    between atoms: C_18  and  C_25
   16  A    between atoms: C_18  and  C_29
   17  A    between atoms: C_28  and  N_32
                            x       y       z     vdW  Elec       q    Type
                         _______ _______ _______ _____ _____    ______ ____

>  <TORSDO>
F 17

$$$$
=
 OpenBabel11052419223D

 32 33  0  0  1  0  0  0  0  0999 V2000
  187.9070  177.0320  142.1900 C   0  0  0  0  0  0  0  0  0  0  0  0
  188.8110  177.8500  142.0810 O   0  0  0  0  0  0  0  0  0  0  0  0
  184.3120  178.1650  141.5790 C   0  0  0  0  0  0  0  0  0  0  0  0
  183.4830  178.2900  140.6930 O   0  0  0  0  0  0  0  0  0  0  0  0
  186.5440  178.8090  143.2660 C   0  0  0  0  0  2  0  0  0  0  0  0
  183.9680  178.5690  142.9830 C   0  0  0  0  0  2  0  0  0  0  0  0
  186.5180  177.4750  142.5220 C   0  0  1  0  0  3  0  0  0  0  0  0
  185.6570  177.5740  141.2640 C   0  0  0  0  0  2  0  0  0  0  0  0
  185.1390  179.2910  143.6700 C   0  0  1  0  0  3  0  0  0  0  0  0
  184.9630  179.3290  145.1870 C   0  0  0  0  0  2  0  0  0  0  0  0
  184.4400  178.0140  145.7630 C   0  0  0  0  0  2  0  0  0  0  0  0
  185.2720  177.5490  146.9470 C   0  0  0  0  0  2  0  0  0  0  0  0
  186.5470  178.2450  146.9620 N   0  0  0  0  0  2  0  0  0  0  0  0
  188.6300  177.4640  146.0190 C   0  0  0  0  0  2  0  0  0  0  0  0
  187.5930  176.3800  145.8310 C   0  0  0  0  0  2  0  0  0  0  0  0
  187.5770  177.2310  147.0840 C   0  0  0  0  0  3  0  0  0  0  0  0
  188.3510  175.2820  140.6600 O   0  0  0  0  0  1  0  0  0  0  0  0
  188.1800  175.5700  142.0160 C   0  0  1  0  0  3  0  0  0  0  0  0
  189.4130  175.1290  142.8110 C   0  0  2  0  0  3  0  0  0  0  0  0
  190.5610  174.7350  141.8840 C   0  0  0  0  0  2  0  0  0  0  0  0
  192.1800  175.1980  142.5840 S   0  0  0  0  0  0  0  0  0  0  0  0
  191.4100  176.0040  144.0180 C   0  0  2  0  0  3  0  0  0  0  0  0
  191.7850  177.4790  144.0590 C   0  0  0  0  0  1  0  0  0  0  0  0
  191.7630  175.2610  145.3090 C   0  0  1  0  0  3  0  0  0  0  0  0
  194.0230  174.5930  145.7580 O   0  0  0  0  0  1  0  0  0  0  0  0
  192.8560  174.2150  145.0940 C   0  0  0  0  0  2  0  0  0  0  0  0
  192.1530  176.2520  146.3980 C   0  0  0  0  0  2  0  0  0  0  0  0
  191.4860  177.1850  148.5900 C   0  0  0  0  0  1  0  0  0  0  0  0
  191.3550  175.9960  147.6610 C   0  0  0  0  0  2  0  0  0  0  0  0
  189.1010  174.0610  143.6610 O   0  0  0  0  0  0  0  0  0  0  0  0
  189.4430  172.9150  142.9400 C   0  0  0  0  0  2  0  0  0  0  0  0
  189.7610  171.7900  143.9040 C   0  0  0  0  0  1  0  0  0  0  0  0
  2  1  2  0  0  0  0
  3  6  1  0  0  0  0
  4  3  2  0  0  0  0
  5  9  1  0  0  0  0
  6  9  1  0  0  0  0
  7  1  1  6  0  0  0
  7  5  1  0  0  0  0
  8  3  1  0  0  0  0
  8  7  1  0  0  0  0
  9 10  1  1  0  0  0
 10 11  1  0  0  0  0
 11 12  1  0  0  0  0
 12 13  1  0  0  0  0
 13 16  1  0  0  0  0
 14 16  1  0  0  0  0
 15 14  1  0  0  0  0
 15 16  1  0  0  0  0
 18 17  1  6  0  0  0
 18  1  1  0  0  0  0
 18 19  1  0  0  0  0
 19 20  1  6  0  0  0
 19 30  1  0  0  0  0
 20 21  1  0  0  0  0
 21 22  1  0  0  0  0
 22 23  1  1  0  0  0
 22 24  1  0  0  0  0
 24 26  1  6  0  0  0
 24 27  1  0  0  0  0
 26 25  1  0  0  0  0
 27 29  1  0  0  0  0
 29 28  1  0  0  0  0
 31 30  1  0  0  0  0
 31 32  1  0  0  0  0
M  END
>  <MODEL>
3

>  <REMARK>
 VINA RESULT:      -5.7      1.719      2.433
  Name = 
  17 active torsions:
  status: ('A' for Active; 'I' for Inactive)
    1  A    between atoms: C_1  and  C_2
    2  A    between atoms: C_1  and  S_30
    3  A    between atoms: C_2  and  O_5
    4  A    between atoms: C_2  and  C_27
    5  A    between atoms: C_4  and  C_29
    6  A    between atoms: C_4  and  S_30
    7  A    between atoms: O_5  and  C_14
    8  A    between atoms: C_7  and  C_26
    9  A    between atoms: C_7  and  C_31
   10  A    between atoms: C_9  and  C_31
   11  A    between atoms: C_9  and  N_32
   12  A    between atoms: C_16  and  C_20
   13  A    between atoms: C_16  and  C_27
   14  A    between atoms: C_17  and  C_29
   15  A    between atoms: C_18  and  C_25
   16  A    between atoms: C_18  and  C_29
   17  A    between atoms: C_28  and  N_32
                            x       y       z     vdW  Elec       q    Type
                         _______ _______ _______ _____ _____    ______ ____

>  <TORSDO>
F 17

$$$$
=
 OpenBabel11052419223D

 32 33  0  0  1  0  0  0  0  0999 V2000
  190.5990  173.6330  144.5000 C   0  0  0  0  0  0  0  0  0  0  0  0
  190.2080  172.5600  144.9380 O   0  0  0  0  0  0  0  0  0  0  0  0
  191.2280  176.4120  147.0420 C   0  0  0  0  0  0  0  0  0  0  0  0
  192.0750  176.8340  147.8120 O   0  0  0  0  0  0  0  0  0  0  0  0
  189.0630  174.7990  146.0670 C   0  0  0  0  0  2  0  0  0  0  0  0
  189.8980  177.1010  146.9480 C   0  0  0  0  0  2  0  0  0  0  0  0
  190.3560  174.8990  145.2590 C   0  0  1  0  0  3  0  0  0  0  0  0
  191.5380  175.2300  146.1690 C   0  0  0  0  0  2  0  0  0  0  0  0
  188.7420  176.0930  146.8360 C   0  0  1  0  0  3  0  0  0  0  0  0
  187.4640  176.7580  146.3270 C   0  0  0  0  0  2  0  0  0  0  0  0
  186.3680  176.8400  147.3880 C   0  0  0  0  0  2  0  0  0  0  0  0
  185.3600  177.9320  147.0710 C   0  0  0  0  0  2  0  0  0  0  0  0
  184.7440  177.6800  145.7800 N   0  0  0  0  0  2  0  0  0  0  0  0
  184.2500  178.8420  143.7190 C   0  0  0  0  0  2  0  0  0  0  0  0
  185.5060  179.4430  144.3080 C   0  0  0  0  0  2  0  0  0  0  0  0
  184.3930  178.9730  145.2230 C   0  0  0  0  0  3  0  0  0  0  0  0
  192.5330  173.0360  143.2730 O   0  0  0  0  0  1  0  0  0  0  0  0
  191.3090  173.7030  143.1830 C   0  0  1  0  0  3  0  0  0  0  0  0
  190.4620  173.1060  142.0550 C   0  0  2  0  0  3  0  0  0  0  0  0
  188.9860  173.4650  142.2160 C   0  0  0  0  0  2  0  0  0  0  0  0
  188.4340  174.6380  140.9340 S   0  0  0  0  0  0  0  0  0  0  0  0
  188.0870  175.9300  142.1630 C   0  0  2  0  0  3  0  0  0  0  0  0
  186.7400  175.6780  142.8270 C   0  0  0  0  0  1  0  0  0  0  0  0
  188.1910  177.3190  141.5310 C   0  0  1  0  0  3  0  0  0  0  0  0
  186.4760  177.6010  139.8770 O   0  0  0  0  0  1  0  0  0  0  0  0
  186.8210  177.9050  141.1940 C   0  0  0  0  0  2  0  0  0  0  0  0
  188.9850  178.2520  142.4350 C   0  0  0  0  0  2  0  0  0  0  0  0
  191.1230  178.4440  143.6640 C   0  0  0  0  0  1  0  0  0  0  0  0
  190.0550  177.4840  143.1850 C   0  0  0  0  0  2  0  0  0  0  0  0
  190.6090  171.7140  142.0060 O   0  0  0  0  0  0  0  0  0  0  0  0
  190.3010  171.3650  140.6900 C   0  0  0  0  0  2  0  0  0  0  0  0
  191.5720  170.9910  139.9570 C   0  0  0  0  0  1  0  0  0  0  0  0
  1  2  2  0  0  0  0
  3  4  2  0  0  0  0
  5  9  1  0  0  0  0
  6  3  1  0  0  0  0
  7  1  1  1  0  0  0
  7  5  1  0  0  0  0
  7  8  1  0  0  0  0
  8  3  1  0  0  0  0
  9 10  1  6  0  0  0
  9  6  1  0  0  0  0
 10 11  1  0  0  0  0
 12 11  1  0  0  0  0
 13 12  1  0  0  0  0
 14 15  1  0  0  0  0
 14 16  1  0  0  0  0
 15 16  1  0  0  0  0
 16 13  1  0  0  0  0
 18 17  1  1  0  0  0
 18  1  1  0  0  0  0
 19 20  1  1  0  0  0
 19 18  1  0  0  0  0
 21 22  1  0  0  0  0
 21 20  1  0  0  0  0
 22 23  1  6  0  0  0
 24 26  1  1  0  0  0
 24 22  1  0  0  0  0
 24 27  1  0  0  0  0
 25 26  1  0  0  0  0
 27 29  1  0  0  0  0
 29 28  1  0  0  0  0
 30 19  1  0  0  0  0
 31 30  1  0  0  0  0
 32 31  1  0  0  0  0
M  END
>  <MODEL>
4

>  <REMARK>
 VINA RESULT:      -5.7      2.567      6.213
  Name = 
  17 active torsions:
  status: ('A' for Active; 'I' for Inactive)
    1  A    between atoms: C_1  and  C_2
    2  A    between atoms: C_1  and  S_30
    3  A    between atoms: C_2  and  O_5
    4  A    between atoms: C_2  and  C_27
    5  A    between atoms: C_4  and  C_29
    6  A    between atoms: C_4  and  S_30
    7  A    between atoms: O_5  and  C_14
    8  A    between atoms: C_7  and  C_26
    9  A    between atoms: C_7  and  C_31
   10  A    between atoms: C_9  and  C_31
   11  A    between atoms: C_9  and  N_32
   12  A    between atoms: C_16  and  C_20
   13  A    between atoms: C_16  and  C_27
   14  A    between atoms: C_17  and  C_29
   15  A    between atoms: C_18  and  C_25
   16  A    between atoms: C_18  and  C_29
   17  A    between atoms: C_28  and  N_32
                            x       y       z     vdW  Elec       q    Type
                         _______ _______ _______ _____ _____    ______ ____

>  <TORSDO>
F 17

$$$$
=
 OpenBabel11052419223D

 32 33  0  0  1  0  0  0  0  0999 V2000
  188.6700  176.8440  143.0340 C   0  0  0  0  0  0  0  0  0  0  0  0
  189.1820  177.6450  142.2640 O   0  0  0  0  0  0  0  0  0  0  0  0
  189.1130  177.5370  146.7630 C   0  0  0  0  0  0  0  0  0  0  0  0
  189.9680  177.6160  147.6290 O   0  0  0  0  0  0  0  0  0  0  0  0
  187.2120  176.3310  144.9800 C   0  0  0  0  0  2  0  0  0  0  0  0
  187.6690  177.7380  147.1220 C   0  0  0  0  0  2  0  0  0  0  0  0
  188.2940  177.2550  144.4210 C   0  0  1  0  0  3  0  0  0  0  0  0
  189.5150  177.2750  145.3400 C   0  0  0  0  0  2  0  0  0  0  0  0
  186.7570  176.7360  146.3940 C   0  0  1  0  0  3  0  0  0  0  0  0
  185.2970  177.1860  146.4160 C   0  0  0  0  0  2  0  0  0  0  0  0
  185.1190  178.6610  146.0580 C   0  0  0  0  0  2  0  0  0  0  0  0
  184.2500  178.8390  144.8250 C   0  0  0  0  0  2  0  0  0  0  0  0
  185.0850  178.9840  143.6450 N   0  0  0  0  0  2  0  0  0  0  0  0
  185.4890  178.0330  141.4600 C   0  0  0  0  0  2  0  0  0  0  0  0
  183.9980  178.2210  141.6230 C   0  0  0  0  0  2  0  0  0  0  0  0
  184.8430  177.8190  142.8150 C   0  0  0  0  0  3  0  0  0  0  0  0
  188.1720  175.3850  141.2380 O   0  0  0  0  0  1  0  0  0  0  0  0
  188.4340  175.4270  142.6090 C   0  0  1  0  0  3  0  0  0  0  0  0
  189.6310  174.5310  142.9480 C   0  0  2  0  0  3  0  0  0  0  0  0
  190.6870  174.5730  141.8450 C   0  0  0  0  0  2  0  0  0  0  0  0
  192.3140  174.0150  142.4500 S   0  0  0  0  0  0  0  0  0  0  0  0
  192.4320  175.3980  143.6220 C   0  0  2  0  0  3  0  0  0  0  0  0
  192.4380  176.7240  142.8750 C   0  0  0  0  0  1  0  0  0  0  0  0
  193.6420  175.2240  144.5430 C   0  0  1  0  0  3  0  0  0  0  0  0
  194.0080  176.5590  146.5020 O   0  0  0  0  0  1  0  0  0  0  0  0
  194.1310  176.5550  145.1130 C   0  0  0  0  0  2  0  0  0  0  0  0
  193.3230  174.2310  145.6520 C   0  0  0  0  0  2  0  0  0  0  0  0
  195.5810  173.2210  145.6870 C   0  0  0  0  0  1  0  0  0  0  0  0
  194.1090  172.9480  145.4610 C   0  0  0  0  0  2  0  0  0  0  0  0
  189.2180  173.2100  143.1600 O   0  0  0  0  0  0  0  0  0  0  0  0
  189.9560  172.7740  144.2620 C   0  0  0  0  0  2  0  0  0  0  0  0
  189.7060  173.6990  145.4350 C   0  0  0  0  0  1  0  0  0  0  0  0
  2  1  2  0  0  0  0
  3  6  1  0  0  0  0
  3  4  2  0  0  0  0
  5  9  1  0  0  0  0
  7  1  1  6  0  0  0
  7  5  1  0  0  0  0
  7  8  1  0  0  0  0
  8  3  1  0  0  0  0
  9 10  1  6  0  0  0
  9  6  1  0  0  0  0
 11 10  1  0  0  0  0
 12 11  1  0  0  0  0
 13 12  1  0  0  0  0
 14 15  1  0  0  0  0
 14 16  1  0  0  0  0
 15 16  1  0  0  0  0
 16 13  1  0  0  0  0
 18 17  1  6  0  0  0
 18 19  1  0  0  0  0
 18  1  1  0  0  0  0
 19 20  1  6  0  0  0
 19 30  1  0  0  0  0
 20 21  1  0  0  0  0
 21 22  1  0  0  0  0
 22 23  1  6  0  0  0
 22 24  1  0  0  0  0
 24 26  1  1  0  0  0
 24 27  1  0  0  0  0
 26 25  1  0  0  0  0
 29 27  1  0  0  0  0
 29 28  1  0  0  0  0
 30 31  1  0  0  0  0
 31 32  1  0  0  0  0
M  END
>  <MODEL>
5

>  <REMARK>
 VINA RESULT:      -5.5      1.739      3.549
  Name = 
  17 active torsions:
  status: ('A' for Active; 'I' for Inactive)
    1  A    between atoms: C_1  and  C_2
    2  A    between atoms: C_1  and  S_30
    3  A    between atoms: C_2  and  O_5
    4  A    between atoms: C_2  and  C_27
    5  A    between atoms: C_4  and  C_29
    6  A    between atoms: C_4  and  S_30
    7  A    between atoms: O_5  and  C_14
    8  A    between atoms: C_7  and  C_26
    9  A    between atoms: C_7  and  C_31
   10  A    between atoms: C_9  and  C_31
   11  A    between atoms: C_9  and  N_32
   12  A    between atoms: C_16  and  C_20
   13  A    between atoms: C_16  and  C_27
   14  A    between atoms: C_17  and  C_29
   15  A    between atoms: C_18  and  C_25
   16  A    between atoms: C_18  and  C_29
   17  A    between atoms: C_28  and  N_32
                            x       y       z     vdW  Elec       q    Type
                         _______ _______ _______ _____ _____    ______ ____

>  <TORSDO>
F 17

$$$$
=
 OpenBabel11052419223D

 32 33  0  0  1  0  0  0  0  0999 V2000
  188.3940  175.2040  141.9270 C   0  0  0  0  0  0  0  0  0  0  0  0
  187.8950  175.6270  140.8920 O   0  0  0  0  0  0  0  0  0  0  0  0
  190.1150  177.9120  143.9970 C   0  0  0  0  0  0  0  0  0  0  0  0
  190.9810  178.7680  143.9270 O   0  0  0  0  0  0  0  0  0  0  0  0
  188.9390  175.3160  144.3480 C   0  0  0  0  0  2  0  0  0  0  0  0
  189.3770  177.7040  145.2880 C   0  0  0  0  0  2  0  0  0  0  0  0
  188.6370  176.1200  143.0840 C   0  0  1  0  0  3  0  0  0  0  0  0
  189.7700  177.0990  142.7820 C   0  0  0  0  0  2  0  0  0  0  0  0
  189.1560  176.2110  145.5820 C   0  0  1  0  0  3  0  0  0  0  0  0
  188.0710  176.0000  146.6370 C   0  0  0  0  0  2  0  0  0  0  0  0
  187.2140  177.2430  146.8710 C   0  0  0  0  0  2  0  0  0  0  0  0
  185.7500  176.9830  146.5540 C   0  0  0  0  0  2  0  0  0  0  0  0
  185.5870  176.7380  145.1320 N   0  0  0  0  0  2  0  0  0  0  0  0
  185.0420  177.8330  143.0480 C   0  0  0  0  0  2  0  0  0  0  0  0
  186.1000  178.6550  143.7480 C   0  0  0  0  0  2  0  0  0  0  0  0
  185.0320  177.9500  144.5590 C   0  0  0  0  0  3  0  0  0  0  0  0
  187.7420  172.9500  141.6230 O   0  0  0  0  0  1  0  0  0  0  0  0
  188.7940  173.7660  142.0440 C   0  0  1  0  0  3  0  0  0  0  0  0
  190.0570  173.4650  141.2290 C   0  0  2  0  0  3  0  0  0  0  0  0
  191.2730  174.1930  141.7970 C   0  0  0  0  0  2  0  0  0  0  0  0
  191.9760  173.3130  143.2310 S   0  0  0  0  0  0  0  0  0  0  0  0
  192.5120  174.8630  144.0110 C   0  0  2  0  0  3  0  0  0  0  0  0
  193.1740  175.7700  142.9820 C   0  0  0  0  0  1  0  0  0  0  0  0
  193.4050  174.5790  145.2200 C   0  0  1  0  0  3  0  0  0  0  0  0
  195.6370  174.8240  146.0670 O   0  0  0  0  0  1  0  0  0  0  0  0
  194.7160  175.3620  145.1670 C   0  0  0  0  0  2  0  0  0  0  0  0
  192.6480  174.8550  146.5120 C   0  0  0  0  0  2  0  0  0  0  0  0
  191.7050  176.5970  147.9940 C   0  0  0  0  0  1  0  0  0  0  0  0
  192.5560  176.3460  146.7670 C   0  0  0  0  0  2  0  0  0  0  0  0
  189.8770  173.8160  139.8860 O   0  0  0  0  0  0  0  0  0  0  0  0
  190.3450  172.7190  139.1600 C   0  0  0  0  0  2  0  0  0  0  0  0
  190.4200  173.0830  137.6910 C   0  0  0  0  0  1  0  0  0  0  0  0
  1 18  1  0  0  0  0
  2  1  2  0  0  0  0
  3  6  1  0  0  0  0
  4  3  2  0  0  0  0
  5  9  1  0  0  0  0
  6  9  1  0  0  0  0
  7  1  1  6  0  0  0
  7  5  1  0  0  0  0
  8  7  1  0  0  0  0
  8  3  1  0  0  0  0
  9 10  1  1  0  0  0
 10 11  1  0  0  0  0
 12 11  1  0  0  0  0
 13 12  1  0  0  0  0
 14 15  1  0  0  0  0
 14 16  1  0  0  0  0
 15 16  1  0  0  0  0
 16 13  1  0  0  0  0
 18 17  1  6  0  0  0
 19 20  1  1  0  0  0
 19 18  1  0  0  0  0
 20 21  1  0  0  0  0
 21 22  1  0  0  0  0
 22 23  1  6  0  0  0
 22 24  1  0  0  0  0
 24 26  1  6  0  0  0
 24 27  1  0  0  0  0
 26 25  1  0  0  0  0
 27 29  1  0  0  0  0
 29 28  1  0  0  0  0
 30 19  1  0  0  0  0
 31 30  1  0  0  0  0
 32 31  1  0  0  0  0
M  END
>  <MODEL>
6

>  <REMARK>
 VINA RESULT:      -5.5      2.327      4.284
  Name = 
  17 active torsions:
  status: ('A' for Active; 'I' for Inactive)
    1  A    between atoms: C_1  and  C_2
    2  A    between atoms: C_1  and  S_30
    3  A    between atoms: C_2  and  O_5
    4  A    between atoms: C_2  and  C_27
    5  A    between atoms: C_4  and  C_29
    6  A    between atoms: C_4  and  S_30
    7  A    between atoms: O_5  and  C_14
    8  A    between atoms: C_7  and  C_26
    9  A    between atoms: C_7  and  C_31
   10  A    between atoms: C_9  and  C_31
   11  A    between atoms: C_9  and  N_32
   12  A    between atoms: C_16  and  C_20
   13  A    between atoms: C_16  and  C_27
   14  A    between atoms: C_17  and  C_29
   15  A    between atoms: C_18  and  C_25
   16  A    between atoms: C_18  and  C_29
   17  A    between atoms: C_28  and  N_32
                            x       y       z     vdW  Elec       q    Type
                         _______ _______ _______ _____ _____    ______ ____

>  <TORSDO>
F 17

$$$$
=
 OpenBabel11052419223D

 32 33  0  0  1  0  0  0  0  0999 V2000
  188.8770  176.0280  143.0870 C   0  0  0  0  0  0  0  0  0  0  0  0
  189.6390  175.6560  142.2040 O   0  0  0  0  0  0  0  0  0  0  0  0
  186.1360  177.5180  140.8870 C   0  0  0  0  0  0  0  0  0  0  0  0
  185.7440  177.5510  139.7320 O   0  0  0  0  0  0  0  0  0  0  0  0
  187.6780  178.2000  143.2110 C   0  0  0  0  0  2  0  0  0  0  0  0
  185.4070  178.2980  141.9420 C   0  0  0  0  0  2  0  0  0  0  0  0
  187.6110  176.7450  142.7470 C   0  0  1  0  0  3  0  0  0  0  0  0
  187.3210  176.6690  141.2490 C   0  0  0  0  0  2  0  0  0  0  0  0
  186.3790  178.9750  142.9220 C   0  0  1  0  0  3  0  0  0  0  0  0
  185.6740  179.4060  144.2070 C   0  0  0  0  0  2  0  0  0  0  0  0
  184.3770  178.6400  144.4640 C   0  0  0  0  0  2  0  0  0  0  0  0
  184.0870  178.5080  145.9500 C   0  0  0  0  0  2  0  0  0  0  0  0
  185.1910  179.0530  146.7210 N   0  0  0  0  0  2  0  0  0  0  0  0
  187.1150  178.1910  147.9020 C   0  0  0  0  0  2  0  0  0  0  0  0
  186.6700  177.1480  146.9020 C   0  0  0  0  0  2  0  0  0  0  0  0
  185.6400  178.0000  147.6130 C   0  0  0  0  0  3  0  0  0  0  0  0
  189.4410  174.4310  144.7410 O   0  0  0  0  0  1  0  0  0  0  0  0
  189.2130  175.7930  144.5280 C   0  0  1  0  0  3  0  0  0  0  0  0
  190.4350  176.6090  144.9620 C   0  0  2  0  0  3  0  0  0  0  0  0
  191.6720  175.7260  145.1060 C   0  0  0  0  0  2  0  0  0  0  0  0
  193.0450  176.3150  144.0610 S   0  0  0  0  0  0  0  0  0  0  0  0
  194.2850  175.8520  145.3050 C   0  0  2  0  0  3  0  0  0  0  0  0
  194.1940  176.7790  146.5100 C   0  0  0  0  0  1  0  0  0  0  0  0
  195.6840  175.8130  144.6850 C   0  0  1  0  0  3  0  0  0  0  0  0
  195.3380  173.4870  144.2120 O   0  0  0  0  0  1  0  0  0  0  0  0
  196.2760  174.4050  144.6840 C   0  0  0  0  0  2  0  0  0  0  0  0
  195.6550  176.4030  143.2820 C   0  0  0  0  0  2  0  0  0  0  0  0
  196.7770  176.0270  141.1100 C   0  0  0  0  0  1  0  0  0  0  0  0
  196.9940  176.2120  142.5960 C   0  0  0  0  0  2  0  0  0  0  0  0
  190.1840  177.2760  146.1670 O   0  0  0  0  0  0  0  0  0  0  0  0
  190.6180  176.3980  147.1620 C   0  0  0  0  0  2  0  0  0  0  0  0
  191.0380  177.1890  148.3840 C   0  0  0  0  0  1  0  0  0  0  0  0
  1 18  1  0  0  0  0
  2  1  2  0  0  0  0
  3  8  1  0  0  0  0
  3  6  1  0  0  0  0
  4  3  2  0  0  0  0
  6  9  1  0  0  0  0
  7  1  1  6  0  0  0
  7  5  1  0  0  0  0
  8  7  1  0  0  0  0
  9  5  1  0  0  0  0
  9 10  1  1  0  0  0
 10 11  1  0  0  0  0
 11 12  1  0  0  0  0
 12 13  1  0  0  0  0
 13 16  1  0  0  0  0
 15 16  1  0  0  0  0
 15 14  1  0  0  0  0
 16 14  1  0  0  0  0
 18 17  1  6  0  0  0
 18 19  1  0  0  0  0
 19 20  1  1  0  0  0
 19 30  1  0  0  0  0
 21 20  1  0  0  0  0
 21 22  1  0  0  0  0
 22 23  1  1  0  0  0
 24 27  1  6  0  0  0
 24 22  1  0  0  0  0
 25 26  1  0  0  0  0
 26 24  1  0  0  0  0
 28 29  1  0  0  0  0
 29 27  1  0  0  0  0
 30 31  1  0  0  0  0
 31 32  1  0  0  0  0
M  END
>  <MODEL>
7

>  <REMARK>
 VINA RESULT:      -5.4      1.808      2.442
  Name = 
  17 active torsions:
  status: ('A' for Active; 'I' for Inactive)
    1  A    between atoms: C_1  and  C_2
    2  A    between atoms: C_1  and  S_30
    3  A    between atoms: C_2  and  O_5
    4  A    between atoms: C_2  and  C_27
    5  A    between atoms: C_4  and  C_29
    6  A    between atoms: C_4  and  S_30
    7  A    between atoms: O_5  and  C_14
    8  A    between atoms: C_7  and  C_26
    9  A    between atoms: C_7  and  C_31
   10  A    between atoms: C_9  and  C_31
   11  A    between atoms: C_9  and  N_32
   12  A    between atoms: C_16  and  C_20
   13  A    between atoms: C_16  and  C_27
   14  A    between atoms: C_17  and  C_29
   15  A    between atoms: C_18  and  C_25
   16  A    between atoms: C_18  and  C_29
   17  A    between atoms: C_28  and  N_32
                            x       y       z     vdW  Elec       q    Type
                         _______ _______ _______ _____ _____    ______ ____

>  <TORSDO>
F 17

$$$$
=
 OpenBabel11052419223D

 32 33  0  0  1  0  0  0  0  0999 V2000
  192.2340  176.4220  145.9690 C   0  0  0  0  0  0  0  0  0  0  0  0
  192.4060  176.3470  147.1780 O   0  0  0  0  0  0  0  0  0  0  0  0
  189.4360  177.2730  143.5130 C   0  0  0  0  0  0  0  0  0  0  0  0
  189.2420  177.7540  142.4100 O   0  0  0  0  0  0  0  0  0  0  0  0
  189.8950  177.1690  146.3460 C   0  0  0  0  0  2  0  0  0  0  0  0
  188.2710  176.8170  144.3420 C   0  0  0  0  0  2  0  0  0  0  0  0
  190.8530  176.4500  145.3970 C   0  0  1  0  0  3  0  0  0  0  0  0
  190.8420  177.1060  144.0170 C   0  0  0  0  0  2  0  0  0  0  0  0
  188.4470  177.1900  145.8240 C   0  0  1  0  0  3  0  0  0  0  0  0
  187.5060  176.3870  146.7210 C   0  0  0  0  0  2  0  0  0  0  0  0
  186.3580  177.2230  147.2870 C   0  0  0  0  0  2  0  0  0  0  0  0
  185.0650  176.9900  146.5240 C   0  0  0  0  0  2  0  0  0  0  0  0
  184.4790  178.2620  146.1390 N   0  0  0  0  0  2  0  0  0  0  0  0
  184.6070  179.7940  144.2740 C   0  0  0  0  0  2  0  0  0  0  0  0
  185.0240  178.4240  143.7880 C   0  0  0  0  0  2  0  0  0  0  0  0
  185.3900  178.8720  145.1880 C   0  0  0  0  0  3  0  0  0  0  0  0
  194.3070  177.4440  145.4580 O   0  0  0  0  0  1  0  0  0  0  0  0
  193.4050  176.4640  145.0360 C   0  0  1  0  0  3  0  0  0  0  0  0
  194.1040  175.1030  144.9480 C   0  0  2  0  0  3  0  0  0  0  0  0
  193.1080  173.9550  145.0980 C   0  0  0  0  0  2  0  0  0  0  0  0
  192.8690  173.0620  143.5270 S   0  0  0  0  0  0  0  0  0  0  0  0
  191.0830  173.3970  143.5260 C   0  0  2  0  0  3  0  0  0  0  0  0
  190.3990  172.6100  144.6360 C   0  0  0  0  0  1  0  0  0  0  0  0
  190.4830  173.1260  142.1450 C   0  0  1  0  0  3  0  0  0  0  0  0
  190.4150  170.8940  141.2690 O   0  0  0  0  0  1  0  0  0  0  0  0
  191.2270  172.0210  141.3970 C   0  0  0  0  0  2  0  0  0  0  0  0
  188.9990  172.8100  142.2670 C   0  0  0  0  0  2  0  0  0  0  0  0
  188.5500  174.5900  140.6090 C   0  0  0  0  0  1  0  0  0  0  0  0
  188.1650  174.0390  141.9650 C   0  0  0  0  0  2  0  0  0  0  0  0
  195.1040  174.9950  145.9220 O   0  0  0  0  0  0  0  0  0  0  0  0
  196.2050  174.4570  145.2520 C   0  0  0  0  0  2  0  0  0  0  0  0
  196.8800  173.4300  146.1360 C   0  0  0  0  0  1  0  0  0  0  0  0
  1  2  2  0  0  0  0
  3  8  1  0  0  0  0
  3  6  1  0  0  0  0
  4  3  2  0  0  0  0
  6  9  1  0  0  0  0
  7  1  1  1  0  0  0
  7  5  1  0  0  0  0
  8  7  1  0  0  0  0
  9  5  1  0  0  0  0
  9 10  1  1  0  0  0
 10 11  1  0  0  0  0
 12 11  1  0  0  0  0
 13 12  1  0  0  0  0
 14 16  1  0  0  0  0
 15 14  1  0  0  0  0
 15 16  1  0  0  0  0
 16 13  1  0  0  0  0
 18 17  1  1  0  0  0
 18  1  1  0  0  0  0
 19 18  1  0  0  0  0
 19 20  1  1  0  0  0
 19 30  1  0  0  0  0
 21 20  1  0  0  0  0
 22 21  1  0  0  0  0
 22 23  1  1  0  0  0
 24 26  1  1  0  0  0
 24 27  1  0  0  0  0
 24 22  1  0  0  0  0
 25 26  1  0  0  0  0
 28 29  1  0  0  0  0
 29 27  1  0  0  0  0
 31 30  1  0  0  0  0
 31 32  1  0  0  0  0
M  END
>  <MODEL>
8

>  <REMARK>
 VINA RESULT:      -5.4      1.992      5.534
  Name = 
  17 active torsions:
  status: ('A' for Active; 'I' for Inactive)
    1  A    between atoms: C_1  and  C_2
    2  A    between atoms: C_1  and  S_30
    3  A    between atoms: C_2  and  O_5
    4  A    between atoms: C_2  and  C_27
    5  A    between atoms: C_4  and  C_29
    6  A    between atoms: C_4  and  S_30
    7  A    between atoms: O_5  and  C_14
    8  A    between atoms: C_7  and  C_26
    9  A    between atoms: C_7  and  C_31
   10  A    between atoms: C_9  and  C_31
   11  A    between atoms: C_9  and  N_32
   12  A    between atoms: C_16  and  C_20
   13  A    between atoms: C_16  and  C_27
   14  A    between atoms: C_17  and  C_29
   15  A    between atoms: C_18  and  C_25
   16  A    between atoms: C_18  and  C_29
   17  A    between atoms: C_28  and  N_32
                            x       y       z     vdW  Elec       q    Type
                         _______ _______ _______ _____ _____    ______ ____

>  <TORSDO>
F 17

$$$$
=
 OpenBabel11052419223D

 32 33  0  0  1  0  0  0  0  0999 V2000
  191.1380  176.8240  143.3320 C   0  0  0  0  0  0  0  0  0  0  0  0
  191.6720  177.7910  143.8590 O   0  0  0  0  0  0  0  0  0  0  0  0
  187.4000  176.6770  142.5670 C   0  0  0  0  0  0  0  0  0  0  0  0
  186.6000  176.8320  141.6600 O   0  0  0  0  0  0  0  0  0  0  0  0
  189.1570  177.3600  144.7330 C   0  0  0  0  0  2  0  0  0  0  0  0
  186.9090  176.3140  143.9380 C   0  0  0  0  0  2  0  0  0  0  0  0
  189.6880  176.5400  143.5570 C   0  0  1  0  0  3  0  0  0  0  0  0
  188.8710  176.8130  142.2950 C   0  0  0  0  0  2  0  0  0  0  0  0
  187.6750  177.0740  145.0350 C   0  0  1  0  0  3  0  0  0  0  0  0
  187.4880  176.4230  146.4050 C   0  0  0  0  0  2  0  0  0  0  0  0
  186.5720  177.2240  147.3290 C   0  0  0  0  0  2  0  0  0  0  0  0
  185.8880  178.3640  146.5920 C   0  0  0  0  0  2  0  0  0  0  0  0
  184.6450  177.8990  146.0030 N   0  0  0  0  0  2  0  0  0  0  0  0
  184.0480  178.6670  143.7900 C   0  0  0  0  0  2  0  0  0  0  0  0
  185.1380  179.5690  144.3240 C   0  0  0  0  0  2  0  0  0  0  0  0
  184.0870  179.0170  145.2650 C   0  0  0  0  0  3  0  0  0  0  0  0
  193.2530  176.3440  142.3850 O   0  0  0  0  0  1  0  0  0  0  0  0
  191.9340  175.8930  142.4700 C   0  0  1  0  0  3  0  0  0  0  0  0
  191.8980  174.4590  143.0090 C   0  0  2  0  0  3  0  0  0  0  0  0
  193.3070  173.9180  143.2460 C   0  0  0  0  0  2  0  0  0  0  0  0
  193.5150  173.3090  144.9510 S   0  0  0  0  0  0  0  0  0  0  0  0
  194.6030  174.6960  145.3900 C   0  0  2  0  0  3  0  0  0  0  0  0
  195.9910  174.1840  145.7510 C   0  0  0  0  0  1  0  0  0  0  0  0
  193.9740  175.5480  146.4950 C   0  0  1  0  0  3  0  0  0  0  0  0
  194.6100  177.4630  145.1980 O   0  0  0  0  0  1  0  0  0  0  0  0
  194.5140  176.9770  146.5020 C   0  0  0  0  0  2  0  0  0  0  0  0
  192.4560  175.5300  146.3740 C   0  0  0  0  0  2  0  0  0  0  0  0
  190.9320  176.8290  147.8260 C   0  0  0  0  0  1  0  0  0  0  0  0
  191.8120  175.6010  147.7450 C   0  0  0  0  0  2  0  0  0  0  0  0
  191.2080  173.6150  142.1300 O   0  0  0  0  0  0  0  0  0  0  0  0
  192.1230  173.3220  141.1170 C   0  0  0  0  0  2  0  0  0  0  0  0
  191.7170  172.0350  140.4290 C   0  0  0  0  0  1  0  0  0  0  0  0
  1  2  2  0  0  0  0
  3  6  1  0  0  0  0
  4  3  2  0  0  0  0
  5  9  1  0  0  0  0
  6  9  1  0  0  0  0
  7  1  1  6  0  0  0
  7  5  1  0  0  0  0
  8  3  1  0  0  0  0
  8  7  1  0  0  0  0
  9 10  1  1  0  0  0
 10 11  1  0  0  0  0
 12 11  1  0  0  0  0
 13 12  1  0  0  0  0
 14 15  1  0  0  0  0
 14 16  1  0  0  0  0
 15 16  1  0  0  0  0
 16 13  1  0  0  0  0
 18 17  1  1  0  0  0
 18 19  1  0  0  0  0
 18  1  1  0  0  0  0
 19 20  1  6  0  0  0
 20 21  1  0  0  0  0
 21 22  1  0  0  0  0
 22 23  1  1  0  0  0
 22 24  1  0  0  0  0
 24 27  1  6  0  0  0
 24 26  1  0  0  0  0
 25 26  1  0  0  0  0
 27 29  1  0  0  0  0
 29 28  1  0  0  0  0
 30 19  1  0  0  0  0
 31 30  1  0  0  0  0
 32 31  1  0  0  0  0
M  END
>  <MODEL>
9

>  <REMARK>
 VINA RESULT:      -5.4      2.054      3.704
  Name = 
  17 active torsions:
  status: ('A' for Active; 'I' for Inactive)
    1  A    between atoms: C_1  and  C_2
    2  A    between atoms: C_1  and  S_30
    3  A    between atoms: C_2  and  O_5
    4  A    between atoms: C_2  and  C_27
    5  A    between atoms: C_4  and  C_29
    6  A    between atoms: C_4  and  S_30
    7  A    between atoms: O_5  and  C_14
    8  A    between atoms: C_7  and  C_26
    9  A    between atoms: C_7  and  C_31
   10  A    between atoms: C_9  and  C_31
   11  A    between atoms: C_9  and  N_32
   12  A    between atoms: C_16  and  C_20
   13  A    between atoms: C_16  and  C_27
   14  A    between atoms: C_17  and  C_29
   15  A    between atoms: C_18  and  C_25
   16  A    between atoms: C_18  and  C_29
   17  A    between atoms: C_28  and  N_32
                            x       y       z     vdW  Elec       q    Type
                         _______ _______ _______ _____ _____    ______ ____

>  <TORSDO>
F 17

$$$$
