=
 OpenBabel11052421273D

 32 35  0  0  1  0  0  0  0  0999 V2000
  188.0100  176.2870  143.7500 C   0  0  0  0  0  0  0  0  0  0  0  0
  185.4240  179.3560  146.5900 C   0  0  0  0  0  3  0  0  0  0  0  0
  186.0790  178.8670  147.7220 C   0  0  0  0  0  3  0  0  0  0  0  0
  187.6150  176.1650  141.3430 C   0  0  0  0  0  0  0  0  0  0  0  0
  186.2080  177.5610  142.7370 C   0  0  0  0  0  3  0  0  0  0  0  0
  185.7970  177.4300  140.3710 O   0  0  0  0  0  1  0  0  0  0  0  0
  185.6930  178.8040  145.3350 C   0  0  0  0  0  3  0  0  0  0  0  0
  186.9360  177.1870  143.8750 C   0  0  0  0  0  0  0  0  0  0  0  0
  186.6190  177.7580  145.2010 C   0  0  0  0  0  0  0  0  0  0  0  0
  188.2160  176.1020  146.2660 C   0  0  0  0  0  2  0  0  0  0  0  0
  186.5380  177.0490  141.4820 C   0  0  0  0  0  0  0  0  0  0  0  0
  187.0010  177.8230  147.6000 C   0  0  0  0  0  3  0  0  0  0  0  0
  187.2830  177.2740  146.3450 C   0  0  0  0  0  0  0  0  0  0  0  0
  188.3460  175.7880  142.4810 C   0  0  0  0  0  3  0  0  0  0  0  0
  188.7660  175.9070  144.9180 N   0  0  0  0  0  0  0  0  0  0  0  0
  190.0280  175.1820  144.7760 C   0  0  2  0  0  3  0  0  0  0  0  0
  189.8900  173.7540  145.3060 C   0  0  0  0  0  2  0  0  0  0  0  0
  192.2910  175.1990  146.0850 C   0  0  0  0  0  3  0  0  0  0  0  0
  192.7940  174.0420  145.6310 C   0  0  0  0  0  3  0  0  0  0  0  0
  192.2670  173.3610  144.4050 C   0  0  0  0  0  2  0  0  0  0  0  0
  190.8630  172.7880  144.6210 C   0  0  0  0  0  2  0  0  0  0  0  0
  191.1770  175.9860  145.4240 C   0  0  1  0  0  3  0  0  0  0  0  0
  191.7250  177.0350  144.4650 C   0  0  0  0  0  2  0  0  0  0  0  0
  191.6980  176.5670  143.1490 O   0  0  0  0  0  1  0  0  0  0  0  0
  187.9350  175.6760  140.0710 O   0  0  0  0  0  0  0  0  0  0  0  0
  188.4710  174.3760  139.8420 C   0  0  0  0  0  2  0  0  0  0  0  0
  189.3950  171.6690  138.6630 C   0  0  0  0  0  0  0  0  0  0  0  0
  187.7240  174.7660  137.6160 O   0  0  0  0  0  0  0  0  0  0  0  0
  188.7300  172.6980  137.9210 N   0  0  0  0  0  2  0  0  0  0  0  0
  189.7820  171.8610  140.0200 N   0  0  0  0  0  1  0  0  0  0  0  0
  189.6470  170.5720  138.1010 O   0  0  0  0  0  0  0  0  0  0  0  0
  188.3050  173.9770  138.4080 C   0  0  0  0  0  0  0  0  0  0  0  0
  1  8  1  0  0  0  0
  1 15  1  0  0  0  0
  2  3  1  0  0  0  0
  4 11  2  0  0  0  0
  4 14  1  0  0  0  0
  5  8  2  0  0  0  0
  6 11  1  0  0  0  0
  7  2  2  0  0  0  0
  8  9  1  0  0  0  0
  9  7  1  0  0  0  0
  9 13  2  0  0  0  0
 10 13  1  0  0  0  0
 11  5  1  0  0  0  0
 12  3  2  0  0  0  0
 13 12  1  0  0  0  0
 14  1  2  0  0  0  0
 15 10  1  0  0  0  0
 16 15  1  1  0  0  0
 16 17  1  0  0  0  0
 16 22  1  0  0  0  0
 19 18  2  0  0  0  0
 20 21  1  0  0  0  0
 20 19  1  0  0  0  0
 21 17  1  0  0  0  0
 22 23  1  6  0  0  0
 22 18  1  0  0  0  0
 24 23  1  0  0  0  0
 25  4  1  0  0  0  0
 26 25  1  0  0  0  0
 27 30  1  0  0  0  0
 28 32  2  0  0  0  0
 29 32  1  0  0  0  0
 29 27  1  0  0  0  0
 31 27  2  0  0  0  0
 32 26  1  0  0  0  0
M  END
>  <MODEL>
1

>  <REMARK>
 VINA RESULT:      -8.0      0.000      0.000
  Name = 
  5 active torsions:
  status: ('A' for Active; 'I' for Inactive)
    1  A    between atoms: C_6  and  N_31
    2  A    between atoms: C_8  and  O_23
    3  A    between atoms: C_19  and  O_23
    4  A    between atoms: C_19  and  C_24
    5  A    between atoms: C_27  and  C_32
                            x       y       z     vdW  Elec       q    Type
                         _______ _______ _______ _____ _____    ______ ____

>  <TORSDO>
F 5

$$$$
=
 OpenBabel11052421273D

 32 35  0  0  1  0  0  0  0  0999 V2000
  188.7410  175.7300  143.6340 C   0  0  0  0  0  0  0  0  0  0  0  0
  191.9480  175.3190  147.3370 C   0  0  0  0  0  3  0  0  0  0  0  0
  191.4060  176.4570  147.9380 C   0  0  0  0  0  3  0  0  0  0  0  0
  188.8020  174.1900  141.7400 C   0  0  0  0  0  0  0  0  0  0  0  0
  190.5020  174.0680  143.4620 C   0  0  0  0  0  3  0  0  0  0  0  0
  190.5830  172.5620  141.5880 O   0  0  0  0  0  1  0  0  0  0  0  0
  191.4670  174.8870  146.0990 C   0  0  0  0  0  3  0  0  0  0  0  0
  189.8990  175.1260  144.1560 C   0  0  0  0  0  0  0  0  0  0  0  0
  190.4390  175.5910  145.4510 C   0  0  0  0  0  0  0  0  0  0  0  0
  188.8520  177.5650  145.3730 C   0  0  0  0  0  2  0  0  0  0  0  0
  189.9640  173.6070  142.2600 C   0  0  0  0  0  0  0  0  0  0  0  0
  190.3850  177.1660  147.3000 C   0  0  0  0  0  3  0  0  0  0  0  0
  189.8910  176.7330  146.0650 C   0  0  0  0  0  0  0  0  0  0  0  0
  188.1960  175.2510  142.4310 C   0  0  0  0  0  3  0  0  0  0  0  0
  188.1140  176.8140  144.3500 N   0  0  0  0  0  0  0  0  0  0  0  0
  186.7830  177.2820  143.9640 C   0  0  2  0  0  3  0  0  0  0  0  0
  186.8750  178.2430  142.7770 C   0  0  0  0  0  2  0  0  0  0  0  0
  185.1130  179.0330  144.9530 C   0  0  0  0  0  3  0  0  0  0  0  0
  184.3220  179.1830  143.8810 C   0  0  0  0  0  3  0  0  0  0  0  0
  184.3030  178.2000  142.7510 C   0  0  0  0  0  2  0  0  0  0  0  0
  185.5970  178.2380  141.9310 C   0  0  0  0  0  2  0  0  0  0  0  0
  186.0490  177.8640  145.1910 C   0  0  1  0  0  3  0  0  0  0  0  0
  185.3770  176.7650  146.0040 C   0  0  0  0  0  2  0  0  0  0  0  0
  185.8910  176.7210  147.3020 O   0  0  0  0  0  1  0  0  0  0  0  0
  188.2740  173.7020  140.5390 O   0  0  0  0  0  0  0  0  0  0  0  0
  188.0680  174.5120  139.3850 C   0  0  0  0  0  2  0  0  0  0  0  0
  187.7030  175.4700  136.4660 C   0  0  0  0  0  0  0  0  0  0  0  0
  189.7270  173.1080  138.4150 O   0  0  0  0  0  0  0  0  0  0  0  0
  188.6480  174.4790  136.8870 N   0  0  0  0  0  2  0  0  0  0  0  0
  186.7610  176.0350  137.3720 N   0  0  0  0  0  1  0  0  0  0  0  0
  187.7010  175.8450  135.2650 O   0  0  0  0  0  0  0  0  0  0  0  0
  188.8400  173.9800  138.2170 C   0  0  0  0  0  0  0  0  0  0  0  0
  1  8  1  0  0  0  0
  1 15  1  0  0  0  0
  2  3  1  0  0  0  0
  4 11  2  0  0  0  0
  4 14  1  0  0  0  0
  5  8  2  0  0  0  0
  6 11  1  0  0  0  0
  7  2  2  0  0  0  0
  8  9  1  0  0  0  0
  9 13  2  0  0  0  0
  9  7  1  0  0  0  0
 10 13  1  0  0  0  0
 11  5  1  0  0  0  0
 12  3  2  0  0  0  0
 13 12  1  0  0  0  0
 14  1  2  0  0  0  0
 15 10  1  0  0  0  0
 16 17  1  6  0  0  0
 16 15  1  0  0  0  0
 16 22  1  0  0  0  0
 18 22  1  0  0  0  0
 19 18  2  0  0  0  0
 20 19  1  0  0  0  0
 21 20  1  0  0  0  0
 21 17  1  0  0  0  0
 22 23  1  6  0  0  0
 23 24  1  0  0  0  0
 25  4  1  0  0  0  0
 26 25  1  0  0  0  0
 27 29  1  0  0  0  0
 27 30  1  0  0  0  0
 29 32  1  0  0  0  0
 31 27  2  0  0  0  0
 32 28  2  0  0  0  0
 32 26  1  0  0  0  0
M  END
>  <MODEL>
2

>  <REMARK>
 VINA RESULT:      -7.7      2.246      5.360
  Name = 
  5 active torsions:
  status: ('A' for Active; 'I' for Inactive)
    1  A    between atoms: C_6  and  N_31
    2  A    between atoms: C_8  and  O_23
    3  A    between atoms: C_19  and  O_23
    4  A    between atoms: C_19  and  C_24
    5  A    between atoms: C_27  and  C_32
                            x       y       z     vdW  Elec       q    Type
                         _______ _______ _______ _____ _____    ______ ____

>  <TORSDO>
F 5

$$$$
=
 OpenBabel11052421273D

 32 35  0  0  1  0  0  0  0  0999 V2000
  188.0060  176.1660  143.8170 C   0  0  0  0  0  0  0  0  0  0  0  0
  184.0270  178.2910  141.8610 C   0  0  0  0  0  3  0  0  0  0  0  0
  184.5680  178.1360  140.5820 C   0  0  0  0  0  3  0  0  0  0  0  0
  188.2550  175.9490  146.2360 C   0  0  0  0  0  0  0  0  0  0  0  0
  186.3670  177.1530  145.3120 C   0  0  0  0  0  3  0  0  0  0  0  0
  186.6160  176.9640  147.6960 O   0  0  0  0  0  1  0  0  0  0  0  0
  184.7620  177.8980  142.9820 C   0  0  0  0  0  3  0  0  0  0  0  0
  186.8190  176.8960  144.0100 C   0  0  0  0  0  0  0  0  0  0  0  0
  186.0440  177.3460  142.8340 C   0  0  0  0  0  0  0  0  0  0  0  0
  187.9790  176.6800  141.3380 C   0  0  0  0  0  2  0  0  0  0  0  0
  187.0820  176.6910  146.4170 C   0  0  0  0  0  0  0  0  0  0  0  0
  185.8440  177.5910  140.4250 C   0  0  0  0  0  3  0  0  0  0  0  0
  186.5810  177.1840  141.5420 C   0  0  0  0  0  0  0  0  0  0  0  0
  188.7110  175.6910  144.9340 C   0  0  0  0  0  3  0  0  0  0  0  0
  188.4690  175.8940  142.4780 N   0  0  0  0  0  0  0  0  0  0  0  0
  189.5470  174.9310  142.2520 C   0  0  2  0  0  3  0  0  0  0  0  0
  190.9010  175.6420  142.2080 C   0  0  0  0  0  2  0  0  0  0  0  0
  190.4200  173.6390  140.1540 C   0  0  0  0  0  3  0  0  0  0  0  0
  191.6190  173.2740  140.6280 C   0  0  0  0  0  3  0  0  0  0  0  0
  191.9470  173.2950  142.0890 C   0  0  0  0  0  2  0  0  0  0  0  0
  192.0490  174.7220  142.6370 C   0  0  0  0  0  2  0  0  0  0  0  0
  189.2410  174.0780  141.0010 C   0  0  1  0  0  3  0  0  0  0  0  0
  188.3300  172.9060  141.3420 C   0  0  0  0  0  2  0  0  0  0  0  0
  188.5840  172.4390  142.6340 O   0  0  0  0  0  1  0  0  0  0  0  0
  188.9480  175.4850  147.3600 O   0  0  0  0  0  0  0  0  0  0  0  0
  190.3380  175.1730  147.3530 C   0  0  0  0  0  2  0  0  0  0  0  0
  193.2640  175.5400  146.4160 C   0  0  0  0  0  0  0  0  0  0  0  0
  190.6380  177.3730  148.2110 O   0  0  0  0  0  0  0  0  0  0  0  0
  192.5040  176.5250  147.1270 N   0  0  0  0  0  2  0  0  0  0  0  0
  192.7450  174.2380  146.1660 N   0  0  0  0  0  1  0  0  0  0  0  0
  194.4180  175.8310  146.0080 O   0  0  0  0  0  0  0  0  0  0  0  0
  191.1600  176.3990  147.6070 C   0  0  0  0  0  0  0  0  0  0  0  0
  1  8  2  0  0  0  0
  1 14  1  0  0  0  0
  2  7  1  0  0  0  0
  3  2  2  0  0  0  0
  4 11  1  0  0  0  0
  4 25  1  0  0  0  0
  5 11  2  0  0  0  0
  8  5  1  0  0  0  0
  9  7  2  0  0  0  0
  9  8  1  0  0  0  0
 10 13  1  0  0  0  0
 10 15  1  0  0  0  0
 11  6  1  0  0  0  0
 12  3  1  0  0  0  0
 12 13  2  0  0  0  0
 13  9  1  0  0  0  0
 14  4  2  0  0  0  0
 15  1  1  0  0  0  0
 16 17  1  6  0  0  0
 16 15  1  0  0  0  0
 17 21  1  0  0  0  0
 18 19  2  0  0  0  0
 18 22  1  0  0  0  0
 19 20  1  0  0  0  0
 20 21  1  0  0  0  0
 22 23  1  1  0  0  0
 22 16  1  0  0  0  0
 23 24  1  0  0  0  0
 26 25  1  0  0  0  0
 26 32  1  0  0  0  0
 27 29  1  0  0  0  0
 29 32  1  0  0  0  0
 30 27  1  0  0  0  0
 31 27  2  0  0  0  0
 32 28  2  0  0  0  0
M  END
>  <MODEL>
3

>  <REMARK>
 VINA RESULT:      -7.7      2.889      6.180
  Name = 
  5 active torsions:
  status: ('A' for Active; 'I' for Inactive)
    1  A    between atoms: C_6  and  N_31
    2  A    between atoms: C_8  and  O_23
    3  A    between atoms: C_19  and  O_23
    4  A    between atoms: C_19  and  C_24
    5  A    between atoms: C_27  and  C_32
                            x       y       z     vdW  Elec       q    Type
                         _______ _______ _______ _____ _____    ______ ____

>  <TORSDO>
F 5

$$$$
=
 OpenBabel11052421273D

 32 35  0  0  1  0  0  0  0  0999 V2000
  189.9650  175.6170  144.6120 C   0  0  0  0  0  0  0  0  0  0  0  0
  185.5490  177.7430  144.9900 C   0  0  0  0  0  3  0  0  0  0  0  0
  185.2340  177.3290  143.6940 C   0  0  0  0  0  3  0  0  0  0  0  0
  191.6000  175.7830  146.4190 C   0  0  0  0  0  0  0  0  0  0  0  0
  189.5010  176.9850  146.5640 C   0  0  0  0  0  3  0  0  0  0  0  0
  191.1150  177.1720  148.3370 O   0  0  0  0  0  1  0  0  0  0  0  0
  186.8120  177.4760  145.5200 C   0  0  0  0  0  3  0  0  0  0  0  0
  189.1030  176.4740  145.3210 C   0  0  0  0  0  0  0  0  0  0  0  0
  187.7730  176.7920  144.7590 C   0  0  0  0  0  0  0  0  0  0  0  0
  188.4670  175.7110  142.5740 C   0  0  0  0  0  2  0  0  0  0  0  0
  190.7420  176.6490  147.1070 C   0  0  0  0  0  0  0  0  0  0  0  0
  186.1840  176.6500  142.9270 C   0  0  0  0  0  3  0  0  0  0  0  0
  187.4480  176.3690  143.4560 C   0  0  0  0  0  0  0  0  0  0  0  0
  191.2050  175.2710  145.1730 C   0  0  0  0  0  3  0  0  0  0  0  0
  189.5550  175.0840  143.3370 N   0  0  0  0  0  0  0  0  0  0  0  0
  190.3140  174.0020  142.7100 C   0  0  2  0  0  3  0  0  0  0  0  0
  191.1350  174.5340  141.5330 C   0  0  0  0  0  2  0  0  0  0  0  0
  189.6940  172.0470  141.0900 C   0  0  0  0  0  3  0  0  0  0  0  0
  190.9280  171.7360  140.6690 C   0  0  0  0  0  3  0  0  0  0  0  0
  192.1610  172.1800  141.3940 C   0  0  0  0  0  2  0  0  0  0  0  0
  192.3880  173.6900  141.2760 C   0  0  0  0  0  2  0  0  0  0  0  0
  189.3710  172.8350  142.3440 C   0  0  1  0  0  3  0  0  0  0  0  0
  189.1400  171.9180  143.5380 C   0  0  0  0  0  2  0  0  0  0  0  0
  190.2290  171.9590  144.4130 O   0  0  0  0  0  1  0  0  0  0  0  0
  192.8340  175.4500  146.9900 O   0  0  0  0  0  0  0  0  0  0  0  0
  194.0320  175.2920  146.2350 C   0  0  0  0  0  2  0  0  0  0  0  0
  195.3980  175.9990  143.5510 C   0  0  0  0  0  0  0  0  0  0  0  0
  194.5830  177.5420  146.7810 O   0  0  0  0  0  0  0  0  0  0  0  0
  195.2420  176.9030  144.6510 N   0  0  0  0  0  2  0  0  0  0  0  0
  195.0110  174.6320  143.6500 N   0  0  0  0  0  1  0  0  0  0  0  0
  195.8930  176.4210  142.4740 O   0  0  0  0  0  0  0  0  0  0  0  0
  194.6440  176.6220  145.9220 C   0  0  0  0  0  0  0  0  0  0  0  0
  1 14  2  0  0  0  0
  1  8  1  0  0  0  0
  2  7  1  0  0  0  0
  3  2  2  0  0  0  0
  4 25  1  0  0  0  0
  4 11  2  0  0  0  0
  5 11  1  0  0  0  0
  8  5  2  0  0  0  0
  9  8  1  0  0  0  0
  9  7  2  0  0  0  0
 10 15  1  0  0  0  0
 10 13  1  0  0  0  0
 11  6  1  0  0  0  0
 12 13  2  0  0  0  0
 12  3  1  0  0  0  0
 13  9  1  0  0  0  0
 14  4  1  0  0  0  0
 15  1  1  0  0  0  0
 16 17  1  6  0  0  0
 16 15  1  0  0  0  0
 18 22  1  0  0  0  0
 19 18  2  0  0  0  0
 19 20  1  0  0  0  0
 21 20  1  0  0  0  0
 21 17  1  0  0  0  0
 22 16  1  0  0  0  0
 22 23  1  1  0  0  0
 23 24  1  0  0  0  0
 26 25  1  0  0  0  0
 27 30  1  0  0  0  0
 27 29  1  0  0  0  0
 29 32  1  0  0  0  0
 31 27  2  0  0  0  0
 32 26  1  0  0  0  0
 32 28  2  0  0  0  0
M  END
>  <MODEL>
4

>  <REMARK>
 VINA RESULT:      -7.5      3.371      6.206
  Name = 
  5 active torsions:
  status: ('A' for Active; 'I' for Inactive)
    1  A    between atoms: C_6  and  N_31
    2  A    between atoms: C_8  and  O_23
    3  A    between atoms: C_19  and  O_23
    4  A    between atoms: C_19  and  C_24
    5  A    between atoms: C_27  and  C_32
                            x       y       z     vdW  Elec       q    Type
                         _______ _______ _______ _____ _____    ______ ____

>  <TORSDO>
F 5

$$$$
=
 OpenBabel11052421273D

 32 35  0  0  1  0  0  0  0  0999 V2000
  188.0080  175.9710  143.4000 C   0  0  0  0  0  0  0  0  0  0  0  0
  183.9710  178.6650  142.6160 C   0  0  0  0  0  3  0  0  0  0  0  0
  183.8530  178.8960  143.9880 C   0  0  0  0  0  3  0  0  0  0  0  0
  189.1540  174.8560  141.5550 C   0  0  0  0  0  0  0  0  0  0  0  0
  187.0730  176.0320  141.1600 C   0  0  0  0  0  3  0  0  0  0  0  0
  188.1840  174.9170  139.3410 O   0  0  0  0  0  1  0  0  0  0  0  0
  184.9890  177.8410  142.1310 C   0  0  0  0  0  3  0  0  0  0  0  0
  187.0000  176.3910  142.5130 C   0  0  0  0  0  0  0  0  0  0  0  0
  185.8980  177.2390  143.0150 C   0  0  0  0  0  0  0  0  0  0  0  0
  186.6740  176.7950  145.3870 C   0  0  0  0  0  2  0  0  0  0  0  0
  188.1370  175.2650  140.6850 C   0  0  0  0  0  0  0  0  0  0  0  0
  184.7510  178.2990  144.8760 C   0  0  0  0  0  3  0  0  0  0  0  0
  185.7800  177.4820  144.3970 C   0  0  0  0  0  0  0  0  0  0  0  0
  189.0840  175.2130  142.9110 C   0  0  0  0  0  3  0  0  0  0  0  0
  187.9390  176.3460  144.7910 N   0  0  0  0  0  0  0  0  0  0  0  0
  189.0910  176.1410  145.6690 C   0  0  2  0  0  3  0  0  0  0  0  0
  188.6880  175.3360  146.9050 C   0  0  0  0  0  2  0  0  0  0  0  0
  190.3770  177.6590  147.3650 C   0  0  0  0  0  3  0  0  0  0  0  0
  191.0280  176.7000  148.0380 C   0  0  0  0  0  3  0  0  0  0  0  0
  191.1890  175.3100  147.5050 C   0  0  0  0  0  2  0  0  0  0  0  0
  189.8630  174.5420  147.4850 C   0  0  0  0  0  2  0  0  0  0  0  0
  189.7600  177.4960  145.9890 C   0  0  1  0  0  3  0  0  0  0  0  0
  190.7300  177.9060  144.8880 C   0  0  0  0  0  2  0  0  0  0  0  0
  191.5600  176.8390  144.5360 O   0  0  0  0  0  1  0  0  0  0  0  0
  190.2180  174.0980  141.0520 O   0  0  0  0  0  0  0  0  0  0  0  0
  191.0780  173.3110  141.8700 C   0  0  0  0  0  2  0  0  0  0  0  0
  192.7010  173.4440  144.5010 C   0  0  0  0  0  0  0  0  0  0  0  0
  192.9670  174.4530  140.9810 O   0  0  0  0  0  0  0  0  0  0  0  0
  193.1430  173.9650  143.2410 N   0  0  0  0  0  2  0  0  0  0  0  0
  191.3970  172.8960  144.6640 N   0  0  0  0  0  1  0  0  0  0  0  0
  193.4820  173.4760  145.4870 O   0  0  0  0  0  0  0  0  0  0  0  0
  192.4240  173.9540  142.0020 C   0  0  0  0  0  0  0  0  0  0  0  0
  1 15  1  0  0  0  0
  2  3  1  0  0  0  0
  3 12  2  0  0  0  0
  4 14  2  0  0  0  0
  5  8  1  0  0  0  0
  6 11  1  0  0  0  0
  7  2  2  0  0  0  0
  7  9  1  0  0  0  0
  8  9  1  0  0  0  0
  8  1  2  0  0  0  0
  9 13  2  0  0  0  0
 11  5  2  0  0  0  0
 11  4  1  0  0  0  0
 13 12  1  0  0  0  0
 13 10  1  0  0  0  0
 14  1  1  0  0  0  0
 15 10  1  0  0  0  0
 16 15  1  6  0  0  0
 16 22  1  0  0  0  0
 16 17  1  0  0  0  0
 17 21  1  0  0  0  0
 18 19  2  0  0  0  0
 20 19  1  0  0  0  0
 21 20  1  0  0  0  0
 22 23  1  6  0  0  0
 22 18  1  0  0  0  0
 24 23  1  0  0  0  0
 25  4  1  0  0  0  0
 25 26  1  0  0  0  0
 26 32  1  0  0  0  0
 27 30  1  0  0  0  0
 27 31  2  0  0  0  0
 28 32  2  0  0  0  0
 29 27  1  0  0  0  0
 32 29  1  0  0  0  0
M  END
>  <MODEL>
5

>  <REMARK>
 VINA RESULT:      -7.4      2.464      3.843
  Name = 
  5 active torsions:
  status: ('A' for Active; 'I' for Inactive)
    1  A    between atoms: C_6  and  N_31
    2  A    between atoms: C_8  and  O_23
    3  A    between atoms: C_19  and  O_23
    4  A    between atoms: C_19  and  C_24
    5  A    between atoms: C_27  and  C_32
                            x       y       z     vdW  Elec       q    Type
                         _______ _______ _______ _____ _____    ______ ____

>  <TORSDO>
F 5

$$$$
=
 OpenBabel11052421273D

 32 35  0  0  1  0  0  0  0  0999 V2000
  188.7010  175.4850  143.7170 C   0  0  0  0  0  0  0  0  0  0  0  0
  191.8910  175.2200  147.4480 C   0  0  0  0  0  3  0  0  0  0  0  0
  191.4710  176.4710  147.9030 C   0  0  0  0  0  3  0  0  0  0  0  0
  188.5900  173.7250  142.0290 C   0  0  0  0  0  0  0  0  0  0  0  0
  190.2880  173.6480  143.7560 C   0  0  0  0  0  3  0  0  0  0  0  0
  190.2010  171.9220  142.0840 O   0  0  0  0  0  1  0  0  0  0  0  0
  191.3570  174.6880  146.2730 C   0  0  0  0  0  3  0  0  0  0  0  0
  189.7990  174.8380  144.3120 C   0  0  0  0  0  0  0  0  0  0  0  0
  190.3970  175.4040  145.5410 C   0  0  0  0  0  0  0  0  0  0  0  0
  189.0110  177.5010  145.2160 C   0  0  0  0  0  2  0  0  0  0  0  0
  189.6940  173.0980  142.6190 C   0  0  0  0  0  0  0  0  0  0  0  0
  190.5180  177.1930  147.1800 C   0  0  0  0  0  3  0  0  0  0  0  0
  189.9700  176.6620  146.0080 C   0  0  0  0  0  0  0  0  0  0  0  0
  188.0990  174.9170  142.5830 C   0  0  0  0  0  3  0  0  0  0  0  0
  188.1910  176.7050  144.2930 N   0  0  0  0  0  0  0  0  0  0  0  0
  186.9090  177.2510  143.8500 C   0  0  2  0  0  3  0  0  0  0  0  0
  187.1070  178.1880  142.6570 C   0  0  0  0  0  2  0  0  0  0  0  0
  185.3170  179.1170  144.7530 C   0  0  0  0  0  3  0  0  0  0  0  0
  184.5780  179.3030  143.6500 C   0  0  0  0  0  3  0  0  0  0  0  0
  184.5410  178.3080  142.5310 C   0  0  0  0  0  2  0  0  0  0  0  0
  185.8650  178.2530  141.7620 C   0  0  0  0  0  2  0  0  0  0  0  0
  186.1660  177.8950  145.0410 C   0  0  1  0  0  3  0  0  0  0  0  0
  185.3950  176.8510  145.8390 C   0  0  0  0  0  2  0  0  0  0  0  0
  184.3840  177.4510  146.5940 O   0  0  0  0  0  1  0  0  0  0  0  0
  188.0030  173.1460  140.8970 O   0  0  0  0  0  0  0  0  0  0  0  0
  188.6980  172.9410  139.6700 C   0  0  0  0  0  2  0  0  0  0  0  0
  189.3930  172.8380  136.6570 C   0  0  0  0  0  0  0  0  0  0  0  0
  187.7650  175.0530  139.0910 O   0  0  0  0  0  0  0  0  0  0  0  0
  188.7060  173.9190  137.3000 N   0  0  0  0  0  2  0  0  0  0  0  0
  189.9120  171.7390  137.3990 N   0  0  0  0  0  1  0  0  0  0  0  0
  189.5450  172.8640  135.4090 O   0  0  0  0  0  0  0  0  0  0  0  0
  188.3830  174.0300  138.6920 C   0  0  0  0  0  0  0  0  0  0  0  0
  1 15  1  0  0  0  0
  1  8  1  0  0  0  0
  2  3  1  0  0  0  0
  4 14  1  0  0  0  0
  4 11  2  0  0  0  0
  5  8  2  0  0  0  0
  6 11  1  0  0  0  0
  7  2  2  0  0  0  0
  8  9  1  0  0  0  0
  9 13  2  0  0  0  0
  9  7  1  0  0  0  0
 10 13  1  0  0  0  0
 11  5  1  0  0  0  0
 12  3  2  0  0  0  0
 13 12  1  0  0  0  0
 14  1  2  0  0  0  0
 15 10  1  0  0  0  0
 16 17  1  6  0  0  0
 16 15  1  0  0  0  0
 16 22  1  0  0  0  0
 18 22  1  0  0  0  0
 19 18  2  0  0  0  0
 20 19  1  0  0  0  0
 21 20  1  0  0  0  0
 21 17  1  0  0  0  0
 22 23  1  6  0  0  0
 23 24  1  0  0  0  0
 25  4  1  0  0  0  0
 26 25  1  0  0  0  0
 27 29  1  0  0  0  0
 27 30  1  0  0  0  0
 29 32  1  0  0  0  0
 31 27  2  0  0  0  0
 32 28  2  0  0  0  0
 32 26  1  0  0  0  0
M  END
>  <MODEL>
6

>  <REMARK>
 VINA RESULT:      -7.3      2.100      5.202
  Name = 
  5 active torsions:
  status: ('A' for Active; 'I' for Inactive)
    1  A    between atoms: C_6  and  N_31
    2  A    between atoms: C_8  and  O_23
    3  A    between atoms: C_19  and  O_23
    4  A    between atoms: C_19  and  C_24
    5  A    between atoms: C_27  and  C_32
                            x       y       z     vdW  Elec       q    Type
                         _______ _______ _______ _____ _____    ______ ____

>  <TORSDO>
F 5

$$$$
=
 OpenBabel11052421273D

 32 35  0  0  1  0  0  0  0  0999 V2000
  189.0180  175.6130  142.4050 C   0  0  0  0  0  0  0  0  0  0  0  0
  189.4510  172.0240  139.0740 C   0  0  0  0  0  3  0  0  0  0  0  0
  190.5360  171.4960  139.7780 C   0  0  0  0  0  3  0  0  0  0  0  0
  187.3490  177.3760  142.1450 C   0  0  0  0  0  0  0  0  0  0  0  0
  187.6510  175.7210  140.4010 C   0  0  0  0  0  3  0  0  0  0  0  0
  186.0200  177.4670  140.1270 O   0  0  0  0  0  1  0  0  0  0  0  0
  188.8420  173.2010  139.5120 C   0  0  0  0  0  3  0  0  0  0  0  0
  188.6550  175.0920  141.1500 C   0  0  0  0  0  0  0  0  0  0  0  0
  189.3120  173.8620  140.6580 C   0  0  0  0  0  0  0  0  0  0  0  0
  190.9920  174.0360  142.5470 C   0  0  0  0  0  2  0  0  0  0  0  0
  187.0070  176.8590  140.8900 C   0  0  0  0  0  0  0  0  0  0  0  0
  191.0140  172.1480  140.9180 C   0  0  0  0  0  3  0  0  0  0  0  0
  190.4000  173.3210  141.3680 C   0  0  0  0  0  0  0  0  0  0  0  0
  188.3540  176.7490  142.8970 C   0  0  0  0  0  3  0  0  0  0  0  0
  190.0450  174.9630  143.1810 N   0  0  0  0  0  0  0  0  0  0  0  0
  190.2580  175.3310  144.5800 C   0  0  2  0  0  3  0  0  0  0  0  0
  189.0790  174.8730  145.4410 C   0  0  0  0  0  2  0  0  0  0  0  0
  190.0680  177.5660  145.9220 C   0  0  0  0  0  3  0  0  0  0  0  0
  190.0310  177.0540  147.1600 C   0  0  0  0  0  3  0  0  0  0  0  0
  190.4620  175.6530  147.4650 C   0  0  0  0  0  2  0  0  0  0  0  0
  189.4920  174.6130  146.8930 C   0  0  0  0  0  2  0  0  0  0  0  0
  190.5710  176.8390  144.6900 C   0  0  1  0  0  3  0  0  0  0  0  0
  192.0480  177.1150  144.4420 C   0  0  0  0  0  2  0  0  0  0  0  0
  192.8360  176.0610  144.9100 O   0  0  0  0  0  1  0  0  0  0  0  0
  186.6790  178.5100  142.6190 O   0  0  0  0  0  0  0  0  0  0  0  0
  185.5110  178.4510  143.4320 C   0  0  0  0  0  2  0  0  0  0  0  0
  186.0540  177.8260  146.4130 C   0  0  0  0  0  0  0  0  0  0  0  0
  185.4110  180.6960  144.2150 O   0  0  0  0  0  0  0  0  0  0  0  0
  185.8430  179.1390  145.8790 N   0  0  0  0  0  2  0  0  0  0  0  0
  185.9260  176.6630  145.6020 N   0  0  0  0  0  1  0  0  0  0  0  0
  186.3530  177.6980  147.6280 O   0  0  0  0  0  0  0  0  0  0  0  0
  185.5620  179.4820  144.5160 C   0  0  0  0  0  0  0  0  0  0  0  0
  1 14  1  0  0  0  0
  1 15  1  0  0  0  0
  2  7  2  0  0  0  0
  2  3  1  0  0  0  0
  3 12  2  0  0  0  0
  4 25  1  0  0  0  0
  4 14  2  0  0  0  0
  5 11  2  0  0  0  0
  5  8  1  0  0  0  0
  6 11  1  0  0  0  0
  7  9  1  0  0  0  0
  8  1  2  0  0  0  0
  9  8  1  0  0  0  0
  9 13  2  0  0  0  0
 10 15  1  0  0  0  0
 11  4  1  0  0  0  0
 12 13  1  0  0  0  0
 13 10  1  0  0  0  0
 16 15  1  6  0  0  0
 16 22  1  0  0  0  0
 16 17  1  0  0  0  0
 17 21  1  0  0  0  0
 18 19  2  0  0  0  0
 19 20  1  0  0  0  0
 21 20  1  0  0  0  0
 22 23  1  1  0  0  0
 22 18  1  0  0  0  0
 23 24  1  0  0  0  0
 25 26  1  0  0  0  0
 26 32  1  0  0  0  0
 27 31  2  0  0  0  0
 28 32  2  0  0  0  0
 29 27  1  0  0  0  0
 30 27  1  0  0  0  0
 32 29  1  0  0  0  0
M  END
>  <MODEL>
7

>  <REMARK>
 VINA RESULT:      -7.0      2.563      6.406
  Name = 
  5 active torsions:
  status: ('A' for Active; 'I' for Inactive)
    1  A    between atoms: C_6  and  N_31
    2  A    between atoms: C_8  and  O_23
    3  A    between atoms: C_19  and  O_23
    4  A    between atoms: C_19  and  C_24
    5  A    between atoms: C_27  and  C_32
                            x       y       z     vdW  Elec       q    Type
                         _______ _______ _______ _____ _____    ______ ____

>  <TORSDO>
F 5

$$$$
=
 OpenBabel11052421273D

 32 35  0  0  1  0  0  0  0  0999 V2000
  187.6550  176.3550  143.7700 C   0  0  0  0  0  0  0  0  0  0  0  0
  183.5360  179.0380  143.7600 C   0  0  0  0  0  3  0  0  0  0  0  0
  183.5510  179.0750  145.1560 C   0  0  0  0  0  3  0  0  0  0  0  0
  188.6250  175.5310  141.6860 C   0  0  0  0  0  0  0  0  0  0  0  0
  186.5040  176.7030  141.6600 C   0  0  0  0  0  3  0  0  0  0  0  0
  187.4410  175.8750  139.6060 O   0  0  0  0  0  1  0  0  0  0  0  0
  184.5090  178.3120  143.0700 C   0  0  0  0  0  3  0  0  0  0  0  0
  186.5610  176.8700  143.0510 C   0  0  0  0  0  0  0  0  0  0  0  0
  185.5060  177.6150  143.7700 C   0  0  0  0  0  0  0  0  0  0  0  0
  186.5150  176.8660  145.9710 C   0  0  0  0  0  2  0  0  0  0  0  0
  187.5230  176.0320  140.9830 C   0  0  0  0  0  0  0  0  0  0  0  0
  184.5370  178.3820  145.8620 C   0  0  0  0  0  3  0  0  0  0  0  0
  185.5220  177.6620  145.1770 C   0  0  0  0  0  0  0  0  0  0  0  0
  188.6840  175.6960  143.0790 C   0  0  0  0  0  3  0  0  0  0  0  0
  187.7190  176.5330  145.2000 N   0  0  0  0  0  0  0  0  0  0  0  0
  188.9540  176.2360  145.9260 C   0  0  2  0  0  3  0  0  0  0  0  0
  188.6560  175.4040  147.1750 C   0  0  0  0  0  2  0  0  0  0  0  0
  190.5130  177.6180  147.5040 C   0  0  0  0  0  3  0  0  0  0  0  0
  191.1850  176.6020  148.0630 C   0  0  0  0  0  3  0  0  0  0  0  0
  191.2050  175.2270  147.4690 C   0  0  0  0  0  2  0  0  0  0  0  0
  189.8460  174.5290  147.5830 C   0  0  0  0  0  2  0  0  0  0  0  0
  189.7310  177.5410  146.2080 C   0  0  1  0  0  3  0  0  0  0  0  0
  190.5850  177.9430  145.0120 C   0  0  0  0  0  2  0  0  0  0  0  0
  191.3470  176.8630  144.5610 O   0  0  0  0  0  1  0  0  0  0  0  0
  189.6410  174.8740  140.9820 O   0  0  0  0  0  0  0  0  0  0  0  0
  190.5380  173.9440  141.5820 C   0  0  0  0  0  2  0  0  0  0  0  0
  190.4940  170.8740  141.9660 C   0  0  0  0  0  0  0  0  0  0  0  0
  191.4790  173.3800  139.4700 O   0  0  0  0  0  0  0  0  0  0  0  0
  190.9690  171.5430  140.7920 N   0  0  0  0  0  2  0  0  0  0  0  0
  190.0850  171.5980  143.1220 N   0  0  0  0  0  1  0  0  0  0  0  0
  190.4420  169.6170  141.9780 O   0  0  0  0  0  0  0  0  0  0  0  0
  191.0370  172.9580  140.5720 C   0  0  0  0  0  0  0  0  0  0  0  0
  1 15  1  0  0  0  0
  2  3  1  0  0  0  0
  3 12  2  0  0  0  0
  4 14  2  0  0  0  0
  5  8  1  0  0  0  0
  6 11  1  0  0  0  0
  7  2  2  0  0  0  0
  7  9  1  0  0  0  0
  8  9  1  0  0  0  0
  8  1  2  0  0  0  0
  9 13  2  0  0  0  0
 11  5  2  0  0  0  0
 11  4  1  0  0  0  0
 13 12  1  0  0  0  0
 13 10  1  0  0  0  0
 14  1  1  0  0  0  0
 15 10  1  0  0  0  0
 16 15  1  1  0  0  0
 16 22  1  0  0  0  0
 16 17  1  0  0  0  0
 17 21  1  0  0  0  0
 18 19  2  0  0  0  0
 20 21  1  0  0  0  0
 20 19  1  0  0  0  0
 22 23  1  6  0  0  0
 22 18  1  0  0  0  0
 24 23  1  0  0  0  0
 25 26  1  0  0  0  0
 25  4  1  0  0  0  0
 27 31  2  0  0  0  0
 27 30  1  0  0  0  0
 28 32  2  0  0  0  0
 29 27  1  0  0  0  0
 32 29  1  0  0  0  0
 32 26  1  0  0  0  0
M  END
>  <MODEL>
8

>  <REMARK>
 VINA RESULT:      -7.0      2.066      2.734
  Name = 
  5 active torsions:
  status: ('A' for Active; 'I' for Inactive)
    1  A    between atoms: C_6  and  N_31
    2  A    between atoms: C_8  and  O_23
    3  A    between atoms: C_19  and  O_23
    4  A    between atoms: C_19  and  C_24
    5  A    between atoms: C_27  and  C_32
                            x       y       z     vdW  Elec       q    Type
                         _______ _______ _______ _____ _____    ______ ____

>  <TORSDO>
F 5

$$$$
=
 OpenBabel11052421273D

 32 35  0  0  1  0  0  0  0  0999 V2000
  189.7990  175.1030  143.5220 C   0  0  0  0  0  0  0  0  0  0  0  0
  185.6320  177.1860  145.0920 C   0  0  0  0  0  3  0  0  0  0  0  0
  186.1680  177.3000  146.3770 C   0  0  0  0  0  3  0  0  0  0  0  0
  190.0210  174.3090  141.2240 C   0  0  0  0  0  0  0  0  0  0  0  0
  187.8990  175.1730  142.0130 C   0  0  0  0  0  3  0  0  0  0  0  0
  188.1020  174.3710  139.7540 O   0  0  0  0  0  1  0  0  0  0  0  0
  186.3690  176.5650  144.0810 C   0  0  0  0  0  3  0  0  0  0  0  0
  188.4510  175.4220  143.2770 C   0  0  0  0  0  0  0  0  0  0  0  0
  187.6480  176.0520  144.3460 C   0  0  0  0  0  0  0  0  0  0  0  0
  189.5130  175.5710  145.9930 C   0  0  0  0  0  2  0  0  0  0  0  0
  188.6740  174.6140  140.9960 C   0  0  0  0  0  0  0  0  0  0  0  0
  187.4400  176.7900  146.6510 C   0  0  0  0  0  3  0  0  0  0  0  0
  188.1870  176.1780  145.6400 C   0  0  0  0  0  0  0  0  0  0  0  0
  190.5770  174.5560  142.4890 C   0  0  0  0  0  3  0  0  0  0  0  0
  190.3720  175.3660  144.8200 N   0  0  0  0  0  0  0  0  0  0  0  0
  191.8190  175.2830  145.0190 C   0  0  2  0  0  3  0  0  0  0  0  0
  192.1620  174.1650  146.0050 C   0  0  0  0  0  2  0  0  0  0  0  0
  193.5520  176.6930  146.3750 C   0  0  0  0  0  3  0  0  0  0  0  0
  194.5620  175.8120  146.3870 C   0  0  0  0  0  3  0  0  0  0  0  0
  194.6260  174.6480  145.4470 C   0  0  0  0  0  2  0  0  0  0  0  0
  193.5620  173.5910  145.7630 C   0  0  0  0  0  2  0  0  0  0  0  0
  192.3800  176.6660  145.4130 C   0  0  1  0  0  3  0  0  0  0  0  0
  192.6450  177.5240  144.1830 C   0  0  0  0  0  2  0  0  0  0  0  0
  191.5390  178.3240  143.8880 O   0  0  0  0  0  1  0  0  0  0  0  0
  190.7810  173.7610  140.1840 O   0  0  0  0  0  0  0  0  0  0  0  0
  191.4380  172.5000  140.2710 C   0  0  0  0  0  2  0  0  0  0  0  0
  191.0970  169.6960  141.5330 C   0  0  0  0  0  0  0  0  0  0  0  0
  189.9210  171.6420  138.6500 O   0  0  0  0  0  0  0  0  0  0  0  0
  190.4410  170.1400  140.3390 N   0  0  0  0  0  2  0  0  0  0  0  0
  192.0640  170.5050  142.1950 N   0  0  0  0  0  1  0  0  0  0  0  0
  190.8160  168.5640  142.0030 O   0  0  0  0  0  0  0  0  0  0  0  0
  190.5820  171.4130  139.6980 C   0  0  0  0  0  0  0  0  0  0  0  0
  1 15  1  0  0  0  0
  2  3  1  0  0  0  0
  3 12  2  0  0  0  0
  4 14  1  0  0  0  0
  5  8  2  0  0  0  0
  6 11  1  0  0  0  0
  7  9  1  0  0  0  0
  7  2  2  0  0  0  0
  8  1  1  0  0  0  0
  8  9  1  0  0  0  0
  9 13  2  0  0  0  0
 11  4  2  0  0  0  0
 11  5  1  0  0  0  0
 13 10  1  0  0  0  0
 13 12  1  0  0  0  0
 14  1  2  0  0  0  0
 15 10  1  0  0  0  0
 16 15  1  1  0  0  0
 16 22  1  0  0  0  0
 16 17  1  0  0  0  0
 18 19  2  0  0  0  0
 20 21  1  0  0  0  0
 20 19  1  0  0  0  0
 21 17  1  0  0  0  0
 22 23  1  6  0  0  0
 22 18  1  0  0  0  0
 24 23  1  0  0  0  0
 25 26  1  0  0  0  0
 25  4  1  0  0  0  0
 27 31  2  0  0  0  0
 27 30  1  0  0  0  0
 28 32  2  0  0  0  0
 29 27  1  0  0  0  0
 32 26  1  0  0  0  0
 32 29  1  0  0  0  0
M  END
>  <MODEL>
9

>  <REMARK>
 VINA RESULT:      -7.0      1.955      2.817
  Name = 
  5 active torsions:
  status: ('A' for Active; 'I' for Inactive)
    1  A    between atoms: C_6  and  N_31
    2  A    between atoms: C_8  and  O_23
    3  A    between atoms: C_19  and  O_23
    4  A    between atoms: C_19  and  C_24
    5  A    between atoms: C_27  and  C_32
                            x       y       z     vdW  Elec       q    Type
                         _______ _______ _______ _____ _____    ______ ____

>  <TORSDO>
F 5

$$$$
