=
 OpenBabel11052419033D

 34 39  0  0  1  0  0  0  0  0999 V2000
  191.1770  176.4530  145.5610 C   0  0  0  0  0  0  0  0  0  0  0  0
  191.9950  174.3420  144.7320 C   0  0  0  0  0  0  0  0  0  0  0  0
  190.5640  175.9150  143.1970 C   0  0  2  0  0  3  0  0  0  0  0  0
  189.2820  174.6380  141.4350 C   0  0  0  0  0  0  0  0  0  0  0  0
  191.8890  176.2540  146.6990 N   0  0  0  0  0  0  0  0  0  0  0  0
  192.7010  174.2040  145.8860 N   0  0  0  0  0  2  0  0  0  0  0  0
  191.7610  174.6220  141.4200 C   0  0  0  0  0  2  0  0  0  0  0  0
  191.2340  175.5110  144.5100 C   0  0  0  0  0  0  0  0  0  0  0  0
  191.6140  173.3590  140.5770 C   0  0  0  0  0  2  0  0  0  0  0  0
  189.2470  173.5670  140.3840 C   0  0  0  0  0  2  0  0  0  0  0  0
  192.6580  175.1480  146.8600 C   0  0  0  0  0  3  0  0  0  0  0  0
  189.2600  176.6370  143.4640 C   0  0  0  0  0  0  0  0  0  0  0  0
  190.2320  177.5900  145.4920 C   0  0  0  0  0  3  0  0  0  0  0  0
  192.0190  173.4030  143.8950 O   0  0  0  0  0  0  0  0  0  0  0  0
  188.1680  175.3040  141.7300 C   0  0  0  0  0  3  0  0  0  0  0  0
  188.1340  176.3560  142.7650 C   0  0  0  0  0  0  0  0  0  0  0  0
  190.5100  173.5490  139.6350 N   0  0  2  0  0  0  0  0  0  0  0  0
  190.5130  174.9060  142.1310 N   0  0  0  0  0  0  0  0  0  0  0  0
  189.3130  177.6680  144.5220 C   0  0  0  0  0  3  0  0  0  0  0  0
  185.0320  177.5580  144.5810 C   0  0  0  0  0  0  0  0  0  0  0  0
  184.4070  178.3310  143.5980 C   0  0  0  0  0  3  0  0  0  0  0  0
  186.8220  177.0050  143.0270 C   0  0  0  0  0  0  0  0  0  0  0  0
  184.9870  178.4520  142.3350 C   0  0  0  0  0  3  0  0  0  0  0  0
  186.2340  176.9030  144.2990 C   0  0  0  0  0  3  0  0  0  0  0  0
  186.1920  177.8000  142.0560 C   0  0  0  0  0  3  0  0  0  0  0  0
  184.4760  177.4590  145.8150 F   0  0  0  0  0  0  0  0  0  0  0  0
  190.4890  172.4250  138.6930 C   0  0  1  0  0  0  0  0  0  0  0  0
  189.4790  171.6270  136.5790 O   0  0  0  0  0  1  0  0  0  0  0  0
  191.4910  172.5960  137.5560 C   0  0  0  0  0  2  0  0  0  0  0  0
  190.3680  170.7140  139.3360 S   0  0  0  0  0  1  0  0  0  0  0  0
  189.9990  172.7170  137.2830 C   0  0  2  0  0  0  0  0  0  0  0  0
  189.6580  174.4260  135.4890 C   0  0  0  0  0  1  0  0  0  0  0  0
  189.4720  174.1110  136.9610 C   0  0  1  0  0  3  0  0  0  0  0  0
  188.1130  174.1790  137.2770 O   0  0  0  0  0  1  0  0  0  0  0  0
  1  5  1  0  0  0  0
  2  6  1  0  0  0  0
  3 12  1  1  0  0  0
  3  8  1  0  0  0  0
  4 15  2  0  0  0  0
  4 18  1  0  0  0  0
  5 11  2  0  0  0  0
  6 11  1  0  0  0  0
  7 18  1  0  0  0  0
  8  2  1  0  0  0  0
  8  1  2  0  0  0  0
  9  7  1  0  0  0  0
 10  4  1  0  0  0  0
 12 19  1  0  0  0  0
 13  1  1  0  0  0  0
 14  2  2  0  0  0  0
 15 16  1  0  0  0  0
 16 22  1  0  0  0  0
 16 12  2  0  0  0  0
 17 10  1  1  0  0  0
 17  9  1  0  0  0  0
 18  3  1  0  0  0  0
 19 13  2  0  0  0  0
 20 26  1  0  0  0  0
 21 20  2  0  0  0  0
 22 24  2  0  0  0  0
 23 21  1  0  0  0  0
 24 20  1  0  0  0  0
 25 23  2  0  0  0  0
 25 22  1  0  0  0  0
 27 30  1  1  0  0  0
 27 17  1  0  0  0  0
 29 27  1  0  0  0  0
 31 28  1  6  0  0  0
 31 29  1  0  0  0  0
 31 27  1  0  0  0  0
 33 32  1  6  0  0  0
 33 34  1  0  0  0  0
 33 31  1  0  0  0  0
M  END
>  <MODEL>
1

>  <REMARK>
 VINA RESULT:      -7.8      0.000      0.000
  Name = 
  3 active torsions:
  status: ('A' for Active; 'I' for Inactive)
    1  A    between atoms: C_3  and  N_29
    2  A    between atoms: C_12  and  C_28
    3  A    between atoms: C_20  and  C_33
                            x       y       z     vdW  Elec       q    Type
                         _______ _______ _______ _____ _____    ______ ____

>  <TORSDO>
F 3

$$$$
=
 OpenBabel11052419033D

 34 39  0  0  1  0  0  0  0  0999 V2000
  187.3610  177.6750  144.0660 C   0  0  0  0  0  0  0  0  0  0  0  0
  187.1140  177.2260  141.7100 C   0  0  0  0  0  0  0  0  0  0  0  0
  188.5970  175.6750  143.2160 C   0  0  2  0  0  3  0  0  0  0  0  0
  190.4490  174.5530  141.9160 C   0  0  0  0  0  0  0  0  0  0  0  0
  186.4410  178.6650  143.9490 N   0  0  0  0  0  0  0  0  0  0  0  0
  186.1860  178.2180  141.6560 N   0  0  0  0  0  2  0  0  0  0  0  0
  188.0820  174.0550  141.3790 C   0  0  0  0  0  2  0  0  0  0  0  0
  187.7080  176.8880  142.9450 C   0  0  0  0  0  0  0  0  0  0  0  0
  188.6260  173.5820  140.0350 C   0  0  0  0  0  2  0  0  0  0  0  0
  190.9050  173.8140  140.6920 C   0  0  0  0  0  2  0  0  0  0  0  0
  185.8430  178.9300  142.7600 C   0  0  0  0  0  3  0  0  0  0  0  0
  189.6670  176.0130  144.2330 C   0  0  0  0  0  0  0  0  0  0  0  0
  188.0990  177.5250  145.3390 C   0  0  0  0  0  3  0  0  0  0  0  0
  187.4420  176.6490  140.6410 O   0  0  0  0  0  0  0  0  0  0  0  0
  191.3390  174.8950  142.8460 C   0  0  0  0  0  3  0  0  0  0  0  0
  190.9570  175.6370  144.0630 C   0  0  0  0  0  0  0  0  0  0  0  0
  189.8770  172.8580  140.2630 N   0  0  2  0  0  0  0  0  0  0  0  0
  189.0620  174.9090  142.0510 N   0  0  0  0  0  0  0  0  0  0  0  0
  189.1970  176.7650  145.4170 C   0  0  0  0  0  3  0  0  0  0  0  0
  194.1390  177.1510  145.4590 C   0  0  0  0  0  0  0  0  0  0  0  0
  194.0590  176.7880  146.8070 C   0  0  0  0  0  3  0  0  0  0  0  0
  192.0460  175.9890  145.0110 C   0  0  0  0  0  0  0  0  0  0  0  0
  192.9760  176.0370  147.2630 C   0  0  0  0  0  3  0  0  0  0  0  0
  193.1360  176.7580  144.5670 C   0  0  0  0  0  3  0  0  0  0  0  0
  191.9720  175.6480  146.3720 C   0  0  0  0  0  3  0  0  0  0  0  0
  195.1820  177.8990  145.0220 F   0  0  0  0  0  0  0  0  0  0  0  0
  190.3020  172.2330  139.0070 C   0  0  1  0  0  0  0  0  0  0  0  0
  191.7550  170.4650  138.0620 O   0  0  0  0  0  1  0  0  0  0  0  0
  189.4530  171.0200  138.6390 C   0  0  0  0  0  2  0  0  0  0  0  0
  190.7530  173.2930  137.5820 S   0  0  0  0  0  1  0  0  0  0  0  0
  190.8920  170.8340  139.0980 C   0  0  2  0  0  0  0  0  0  0  0  0
  190.8170  168.7200  140.4330 C   0  0  0  0  0  1  0  0  0  0  0  0
  191.0970  170.2110  140.4740 C   0  0  1  0  0  3  0  0  0  0  0  0
  192.4150  170.4180  140.8870 O   0  0  0  0  0  1  0  0  0  0  0  0
  1 13  1  0  0  0  0
  2  8  1  0  0  0  0
  3  8  1  6  0  0  0
  3 12  1  0  0  0  0
  4 18  1  0  0  0  0
  4 15  2  0  0  0  0
  5  1  1  0  0  0  0
  6  2  1  0  0  0  0
  6 11  1  0  0  0  0
  7 18  1  0  0  0  0
  8  1  2  0  0  0  0
  9  7  1  0  0  0  0
 10  4  1  0  0  0  0
 11  5  2  0  0  0  0
 12 19  1  0  0  0  0
 13 19  2  0  0  0  0
 14  2  2  0  0  0  0
 15 16  1  0  0  0  0
 16 12  2  0  0  0  0
 16 22  1  0  0  0  0
 17  9  1  6  0  0  0
 17 10  1  0  0  0  0
 18  3  1  0  0  0  0
 20 21  1  0  0  0  0
 21 23  2  0  0  0  0
 22 25  2  0  0  0  0
 24 22  1  0  0  0  0
 24 20  2  0  0  0  0
 25 23  1  0  0  0  0
 26 20  1  0  0  0  0
 27 30  1  6  0  0  0
 27 31  1  0  0  0  0
 27 17  1  0  0  0  0
 29 27  1  0  0  0  0
 29 31  1  0  0  0  0
 31 28  1  6  0  0  0
 31 33  1  0  0  0  0
 33 32  1  6  0  0  0
 33 34  1  0  0  0  0
M  END
>  <MODEL>
2

>  <REMARK>
 VINA RESULT:      -7.8      3.004      5.645
  Name = 
  3 active torsions:
  status: ('A' for Active; 'I' for Inactive)
    1  A    between atoms: C_3  and  N_29
    2  A    between atoms: C_12  and  C_28
    3  A    between atoms: C_20  and  C_33
                            x       y       z     vdW  Elec       q    Type
                         _______ _______ _______ _____ _____    ______ ____

>  <TORSDO>
F 3

$$$$
=
 OpenBabel11052419033D

 34 39  0  0  1  0  0  0  0  0999 V2000
  188.5830  173.0040  140.0920 C   0  0  0  0  0  0  0  0  0  0  0  0
  190.7750  173.3310  139.1410 C   0  0  0  0  0  0  0  0  0  0  0  0
  190.3210  173.8710  141.6670 C   0  0  2  0  0  3  0  0  0  0  0  0
  191.8610  175.6610  142.5620 C   0  0  0  0  0  0  0  0  0  0  0  0
  188.1870  172.4430  138.9220 N   0  0  0  0  0  0  0  0  0  0  0  0
  190.3270  172.7450  137.9990 N   0  0  0  0  0  2  0  0  0  0  0  0
  192.7930  173.5000  141.7870 C   0  0  0  0  0  2  0  0  0  0  0  0
  189.9170  173.4400  140.2570 C   0  0  0  0  0  0  0  0  0  0  0  0
  194.1090  174.2630  141.6690 C   0  0  0  0  0  2  0  0  0  0  0  0
  193.2410  176.2400  142.6780 C   0  0  0  0  0  2  0  0  0  0  0  0
  189.0500  172.2980  137.8860 C   0  0  0  0  0  3  0  0  0  0  0  0
  189.2070  174.6560  142.3250 C   0  0  0  0  0  0  0  0  0  0  0  0
  187.5730  173.2840  141.1350 C   0  0  0  0  0  3  0  0  0  0  0  0
  191.9470  173.7880  139.1640 O   0  0  0  0  0  0  0  0  0  0  0  0
  190.8310  176.3070  143.1060 C   0  0  0  0  0  3  0  0  0  0  0  0
  189.4490  175.7980  143.0120 C   0  0  0  0  0  0  0  0  0  0  0  0
  194.2330  175.1660  142.8140 N   0  0  2  0  0  0  0  0  0  0  0  0
  191.6680  174.4340  141.8370 N   0  0  0  0  0  0  0  0  0  0  0  0
  187.8530  174.0800  142.1740 C   0  0  0  0  0  3  0  0  0  0  0  0
  186.6490  178.3230  143.4060 C   0  0  0  0  0  0  0  0  0  0  0  0
  186.2630  178.1150  144.7340 C   0  0  0  0  0  3  0  0  0  0  0  0
  188.3800  176.6260  143.6320 C   0  0  0  0  0  0  0  0  0  0  0  0
  186.9220  177.1610  145.5100 C   0  0  0  0  0  3  0  0  0  0  0  0
  187.6980  177.5790  142.8570 C   0  0  0  0  0  3  0  0  0  0  0  0
  187.9680  176.4160  144.9580 C   0  0  0  0  0  3  0  0  0  0  0  0
  185.9920  179.2360  142.6480 F   0  0  0  0  0  0  0  0  0  0  0  0
  195.5750  175.7550  142.8140 C   0  0  1  0  0  0  0  0  0  0  0  0
  196.9590  177.5410  143.8250 O   0  0  0  0  0  1  0  0  0  0  0  0
  196.4790  175.1530  143.8850 C   0  0  0  0  0  2  0  0  0  0  0  0
  196.4160  176.0780  141.2180 S   0  0  0  0  0  1  0  0  0  0  0  0
  195.9670  176.5780  144.0310 C   0  0  2  0  0  0  0  0  0  0  0  0
  194.9410  175.7020  146.1370 C   0  0  0  0  0  1  0  0  0  0  0  0
  194.9270  176.8250  145.1180 C   0  0  1  0  0  3  0  0  0  0  0  0
  195.2040  178.0330  145.7620 O   0  0  0  0  0  1  0  0  0  0  0  0
  1  8  2  0  0  0  0
  1 13  1  0  0  0  0
  2 14  2  0  0  0  0
  2  8  1  0  0  0  0
  3  8  1  6  0  0  0
  3 18  1  0  0  0  0
  3 12  1  0  0  0  0
  4 10  1  0  0  0  0
  4 15  2  0  0  0  0
  5  1  1  0  0  0  0
  6  2  1  0  0  0  0
  7 18  1  0  0  0  0
  9  7  1  0  0  0  0
 10 17  1  0  0  0  0
 11  6  1  0  0  0  0
 11  5  2  0  0  0  0
 12 16  2  0  0  0  0
 13 19  2  0  0  0  0
 16 15  1  0  0  0  0
 16 22  1  0  0  0  0
 17  9  1  6  0  0  0
 17 27  1  0  0  0  0
 18  4  1  0  0  0  0
 19 12  1  0  0  0  0
 20 21  1  0  0  0  0
 21 23  2  0  0  0  0
 22 25  2  0  0  0  0
 24 20  2  0  0  0  0
 24 22  1  0  0  0  0
 25 23  1  0  0  0  0
 26 20  1  0  0  0  0
 27 30  1  6  0  0  0
 27 29  1  0  0  0  0
 27 31  1  0  0  0  0
 29 31  1  0  0  0  0
 31 28  1  6  0  0  0
 31 33  1  0  0  0  0
 33 34  1  0  0  0  0
 33 32  1  1  0  0  0
M  END
>  <MODEL>
3

>  <REMARK>
 VINA RESULT:      -7.7      3.073      6.493
  Name = 
  3 active torsions:
  status: ('A' for Active; 'I' for Inactive)
    1  A    between atoms: C_3  and  N_29
    2  A    between atoms: C_12  and  C_28
    3  A    between atoms: C_20  and  C_33
                            x       y       z     vdW  Elec       q    Type
                         _______ _______ _______ _____ _____    ______ ____

>  <TORSDO>
F 3

$$$$
=
 OpenBabel11052419033D

 34 39  0  0  1  0  0  0  0  0999 V2000
  186.0290  177.5180  143.2450 C   0  0  0  0  0  0  0  0  0  0  0  0
  186.6930  177.0020  140.9850 C   0  0  0  0  0  0  0  0  0  0  0  0
  187.5680  175.5630  142.9950 C   0  0  2  0  0  3  0  0  0  0  0  0
  189.8130  174.5070  142.5200 C   0  0  0  0  0  0  0  0  0  0  0  0
  185.1800  178.4560  142.7550 N   0  0  0  0  0  0  0  0  0  0  0  0
  185.8140  177.9440  140.5510 N   0  0  0  0  0  2  0  0  0  0  0  0
  187.8350  173.8770  141.1650 C   0  0  0  0  0  2  0  0  0  0  0  0
  186.7970  176.7230  142.3650 C   0  0  0  0  0  0  0  0  0  0  0  0
  188.8580  173.4000  140.1380 C   0  0  0  0  0  2  0  0  0  0  0  0
  190.7190  173.7630  141.5830 C   0  0  0  0  0  2  0  0  0  0  0  0
  185.0580  178.6620  141.4200 C   0  0  0  0  0  3  0  0  0  0  0  0
  188.1700  175.9790  144.3210 C   0  0  0  0  0  0  0  0  0  0  0  0
  186.2460  177.4360  144.7060 C   0  0  0  0  0  3  0  0  0  0  0  0
  187.4160  176.4170  140.1380 O   0  0  0  0  0  0  0  0  0  0  0  0
  190.2800  174.9150  143.6980 C   0  0  0  0  0  3  0  0  0  0  0  0
  189.4440  175.6650  144.6560 C   0  0  0  0  0  0  0  0  0  0  0  0
  189.9620  172.7460  140.8430 N   0  0  2  0  0  0  0  0  0  0  0  0
  188.4620  174.7950  142.1170 N   0  0  0  0  0  0  0  0  0  0  0  0
  187.2650  176.7340  145.2160 C   0  0  0  0  0  3  0  0  0  0  0  0
  190.2430  177.6840  147.7630 C   0  0  0  0  0  0  0  0  0  0  0  0
  191.1910  176.8730  148.3930 C   0  0  0  0  0  3  0  0  0  0  0  0
  190.0890  176.0950  145.9250 C   0  0  0  0  0  0  0  0  0  0  0  0
  191.5840  175.6720  147.8020 C   0  0  0  0  0  3  0  0  0  0  0  0
  189.6910  177.2950  146.5380 C   0  0  0  0  0  3  0  0  0  0  0  0
  191.0290  175.2820  146.5800 C   0  0  0  0  0  3  0  0  0  0  0  0
  189.8470  178.8410  148.3500 F   0  0  0  0  0  0  0  0  0  0  0  0
  190.8470  172.1150  139.8600 C   0  0  1  0  0  0  0  0  0  0  0  0
  192.5740  170.3630  139.5810 O   0  0  0  0  0  1  0  0  0  0  0  0
  190.2210  170.8820  139.2150 C   0  0  0  0  0  2  0  0  0  0  0  0
  191.8000  173.1650  138.7000 S   0  0  0  0  0  1  0  0  0  0  0  0
  191.3730  170.7280  140.1970 C   0  0  2  0  0  0  0  0  0  0  0  0
  190.8170  168.6290  141.4380 C   0  0  0  0  0  1  0  0  0  0  0  0
  191.0390  170.1250  141.5570 C   0  0  1  0  0  3  0  0  0  0  0  0
  192.0900  170.3640  142.4440 O   0  0  0  0  0  1  0  0  0  0  0  0
  1 13  1  0  0  0  0
  2  8  1  0  0  0  0
  3  8  1  6  0  0  0
  3 12  1  0  0  0  0
  4 15  2  0  0  0  0
  5  1  1  0  0  0  0
  6  2  1  0  0  0  0
  6 11  1  0  0  0  0
  7 18  1  0  0  0  0
  8  1  2  0  0  0  0
  9  7  1  0  0  0  0
 10  4  1  0  0  0  0
 11  5  2  0  0  0  0
 12 16  2  0  0  0  0
 12 19  1  0  0  0  0
 13 19  2  0  0  0  0
 14  2  2  0  0  0  0
 15 16  1  0  0  0  0
 16 22  1  0  0  0  0
 17  9  1  6  0  0  0
 17 10  1  0  0  0  0
 18  4  1  0  0  0  0
 18  3  1  0  0  0  0
 20 26  1  0  0  0  0
 20 21  1  0  0  0  0
 22 24  1  0  0  0  0
 22 25  2  0  0  0  0
 23 21  2  0  0  0  0
 24 20  2  0  0  0  0
 25 23  1  0  0  0  0
 27 30  1  6  0  0  0
 27 31  1  0  0  0  0
 27 17  1  0  0  0  0
 29 27  1  0  0  0  0
 29 31  1  0  0  0  0
 31 28  1  6  0  0  0
 31 33  1  0  0  0  0
 33 32  1  6  0  0  0
 33 34  1  0  0  0  0
M  END
>  <MODEL>
4

>  <REMARK>
 VINA RESULT:      -7.5      2.749      5.486
  Name = 
  3 active torsions:
  status: ('A' for Active; 'I' for Inactive)
    1  A    between atoms: C_3  and  N_29
    2  A    between atoms: C_12  and  C_28
    3  A    between atoms: C_20  and  C_33
                            x       y       z     vdW  Elec       q    Type
                         _______ _______ _______ _____ _____    ______ ____

>  <TORSDO>
F 3

$$$$
=
 OpenBabel11052419033D

 34 39  0  0  1  0  0  0  0  0999 V2000
  193.9360  175.8320  145.1530 C   0  0  0  0  0  0  0  0  0  0  0  0
  194.4140  173.8000  143.9450 C   0  0  0  0  0  0  0  0  0  0  0  0
  192.5320  175.4300  143.1230 C   0  0  2  0  0  3  0  0  0  0  0  0
  190.7150  174.2360  141.8380 C   0  0  0  0  0  0  0  0  0  0  0  0
  195.0030  175.5790  145.9520 N   0  0  0  0  0  0  0  0  0  0  0  0
  195.4810  173.6070  144.7660 N   0  0  0  0  0  2  0  0  0  0  0  0
  193.0300  174.2860  140.9530 C   0  0  0  0  0  2  0  0  0  0  0  0
  193.6220  174.9600  144.0860 C   0  0  0  0  0  0  0  0  0  0  0  0
  192.5990  173.0760  140.1300 C   0  0  0  0  0  2  0  0  0  0  0  0
  190.3150  173.2340  140.7940 C   0  0  0  0  0  2  0  0  0  0  0  0
  195.7810  174.4850  145.7560 C   0  0  0  0  0  3  0  0  0  0  0  0
  191.4030  176.0990  143.8790 C   0  0  0  0  0  0  0  0  0  0  0  0
  193.0250  176.9450  145.4980 C   0  0  0  0  0  3  0  0  0  0  0  0
  194.1440  172.9170  143.0910 O   0  0  0  0  0  0  0  0  0  0  0  0
  189.7750  174.8530  142.5500 C   0  0  0  0  0  3  0  0  0  0  0  0
  190.1050  175.8340  143.6020 C   0  0  0  0  0  0  0  0  0  0  0  0
  191.2330  173.2970  139.6500 N   0  0  2  0  0  0  0  0  0  0  0  0
  192.1110  174.4910  142.0740 N   0  0  0  0  0  0  0  0  0  0  0  0
  191.8240  177.0620  144.9200 C   0  0  0  0  0  3  0  0  0  0  0  0
  187.1360  178.0320  144.4530 C   0  0  0  0  0  0  0  0  0  0  0  0
  186.7280  177.4970  145.6780 C   0  0  0  0  0  3  0  0  0  0  0  0
  188.9670  176.4310  144.3510 C   0  0  0  0  0  0  0  0  0  0  0  0
  187.4250  176.4270  146.2380 C   0  0  0  0  0  3  0  0  0  0  0  0
  188.2460  177.4990  143.7910 C   0  0  0  0  0  3  0  0  0  0  0  0
  188.5330  175.8920  145.5730 C   0  0  0  0  0  3  0  0  0  0  0  0
  186.4430  179.0590  143.9010 F   0  0  0  0  0  0  0  0  0  0  0  0
  190.8850  172.2360  138.7010 C   0  0  1  0  0  0  0  0  0  0  0  0
  189.2480  171.5910  136.9590 O   0  0  0  0  0  1  0  0  0  0  0  0
  191.4950  172.4610  137.3210 C   0  0  0  0  0  2  0  0  0  0  0  0
  190.9050  170.4890  139.2540 S   0  0  0  0  0  1  0  0  0  0  0  0
  189.9970  172.6250  137.5290 C   0  0  2  0  0  0  0  0  0  0  0  0
  189.3200  174.5020  136.0210 C   0  0  0  0  0  1  0  0  0  0  0  0
  189.4470  174.0450  137.4620 C   0  0  1  0  0  3  0  0  0  0  0  0
  188.1900  174.0870  138.0690 O   0  0  0  0  0  1  0  0  0  0  0  0
  1 13  1  0  0  0  0
  1  5  1  0  0  0  0
  2  8  1  0  0  0  0
  2  6  1  0  0  0  0
  3 12  1  1  0  0  0
  3  8  1  0  0  0  0
  4 18  1  0  0  0  0
  4 15  2  0  0  0  0
  6 11  1  0  0  0  0
  7 18  1  0  0  0  0
  8  1  2  0  0  0  0
  9  7  1  0  0  0  0
 10  4  1  0  0  0  0
 11  5  2  0  0  0  0
 12 19  1  0  0  0  0
 14  2  2  0  0  0  0
 15 16  1  0  0  0  0
 16 12  2  0  0  0  0
 16 22  1  0  0  0  0
 17  9  1  1  0  0  0
 17 10  1  0  0  0  0
 18  3  1  0  0  0  0
 19 13  2  0  0  0  0
 20 21  1  0  0  0  0
 21 23  2  0  0  0  0
 22 25  2  0  0  0  0
 24 22  1  0  0  0  0
 24 20  2  0  0  0  0
 25 23  1  0  0  0  0
 26 20  1  0  0  0  0
 27 30  1  1  0  0  0
 27 17  1  0  0  0  0
 29 31  1  0  0  0  0
 29 27  1  0  0  0  0
 31 28  1  6  0  0  0
 31 27  1  0  0  0  0
 33 32  1  6  0  0  0
 33 31  1  0  0  0  0
 33 34  1  0  0  0  0
M  END
>  <MODEL>
5

>  <REMARK>
 VINA RESULT:      -7.4      1.717      2.341
  Name = 
  3 active torsions:
  status: ('A' for Active; 'I' for Inactive)
    1  A    between atoms: C_3  and  N_29
    2  A    between atoms: C_12  and  C_28
    3  A    between atoms: C_20  and  C_33
                            x       y       z     vdW  Elec       q    Type
                         _______ _______ _______ _____ _____    ______ ____

>  <TORSDO>
F 3

$$$$
=
 OpenBabel11052419033D

 34 39  0  0  1  0  0  0  0  0999 V2000
  188.4880  173.0840  140.3580 C   0  0  0  0  0  0  0  0  0  0  0  0
  190.5710  173.4170  139.1900 C   0  0  0  0  0  0  0  0  0  0  0  0
  190.4710  173.5570  141.8060 C   0  0  2  0  0  3  0  0  0  0  0  0
  192.2580  175.0670  142.7600 C   0  0  0  0  0  0  0  0  0  0  0  0
  187.9070  172.7530  139.1780 N   0  0  0  0  0  0  0  0  0  0  0  0
  189.9400  173.0620  138.0390 N   0  0  0  0  0  2  0  0  0  0  0  0
  192.8980  173.0070  141.5390 C   0  0  0  0  0  2  0  0  0  0  0  0
  189.8660  173.3960  140.4120 C   0  0  0  0  0  0  0  0  0  0  0  0
  194.2520  173.6900  141.3700 C   0  0  0  0  0  2  0  0  0  0  0  0
  193.6870  175.5240  142.7830 C   0  0  0  0  0  2  0  0  0  0  0  0
  188.6250  172.7270  138.0260 C   0  0  0  0  0  3  0  0  0  0  0  0
  189.5170  174.2950  142.7210 C   0  0  0  0  0  0  0  0  0  0  0  0
  187.6380  173.2530  141.5570 C   0  0  0  0  0  3  0  0  0  0  0  0
  191.7720  173.7860  139.1290 O   0  0  0  0  0  0  0  0  0  0  0  0
  191.3600  175.6790  143.5300 C   0  0  0  0  0  3  0  0  0  0  0  0
  189.9370  175.2870  143.5410 C   0  0  0  0  0  0  0  0  0  0  0  0
  194.5900  174.3790  142.6160 N   0  0  2  0  0  0  0  0  0  0  0  0
  191.8720  173.9940  141.8830 N   0  0  0  0  0  0  0  0  0  0  0  0
  188.1090  173.8430  142.6620 C   0  0  0  0  0  3  0  0  0  0  0  0
  187.3980  177.8590  144.6830 C   0  0  0  0  0  0  0  0  0  0  0  0
  187.1950  177.4870  146.0140 C   0  0  0  0  0  3  0  0  0  0  0  0
  189.0270  176.0690  144.4180 C   0  0  0  0  0  0  0  0  0  0  0  0
  187.8940  176.4050  146.5500 C   0  0  0  0  0  3  0  0  0  0  0  0
  188.3050  177.1520  143.8880 C   0  0  0  0  0  3  0  0  0  0  0  0
  188.7970  175.6960  145.7530 C   0  0  0  0  0  3  0  0  0  0  0  0
  186.7010  178.8990  144.1590 F   0  0  0  0  0  0  0  0  0  0  0  0
  195.9690  174.8690  142.5310 C   0  0  1  0  0  0  0  0  0  0  0  0
  197.8800  175.6630  143.8890 O   0  0  0  0  0  1  0  0  0  0  0  0
  196.9970  173.7500  142.6640 C   0  0  0  0  0  2  0  0  0  0  0  0
  196.3990  176.1370  141.2800 S   0  0  0  0  0  1  0  0  0  0  0  0
  196.8180  174.7600  143.7880 C   0  0  2  0  0  0  0  0  0  0  0  0
  197.1930  173.5460  145.9420 C   0  0  0  0  0  1  0  0  0  0  0  0
  196.1700  174.2510  145.0710 C   0  0  1  0  0  3  0  0  0  0  0  0
  195.6280  175.3260  145.7770 O   0  0  0  0  0  1  0  0  0  0  0  0
  1  8  2  0  0  0  0
  1 13  1  0  0  0  0
  2  8  1  0  0  0  0
  3  8  1  6  0  0  0
  3 18  1  0  0  0  0
  3 12  1  0  0  0  0
  4 10  1  0  0  0  0
  4 15  2  0  0  0  0
  5  1  1  0  0  0  0
  6  2  1  0  0  0  0
  7 18  1  0  0  0  0
  9  7  1  0  0  0  0
 11  6  1  0  0  0  0
 11  5  2  0  0  0  0
 12 16  2  0  0  0  0
 13 19  2  0  0  0  0
 14  2  2  0  0  0  0
 15 16  1  0  0  0  0
 16 22  1  0  0  0  0
 17  9  1  6  0  0  0
 17 10  1  0  0  0  0
 18  4  1  0  0  0  0
 19 12  1  0  0  0  0
 20 21  1  0  0  0  0
 21 23  2  0  0  0  0
 22 25  2  0  0  0  0
 24 22  1  0  0  0  0
 24 20  2  0  0  0  0
 25 23  1  0  0  0  0
 26 20  1  0  0  0  0
 27 30  1  6  0  0  0
 27 17  1  0  0  0  0
 27 29  1  0  0  0  0
 27 31  1  0  0  0  0
 29 31  1  0  0  0  0
 31 28  1  1  0  0  0
 31 33  1  0  0  0  0
 33 34  1  0  0  0  0
 33 32  1  1  0  0  0
M  END
>  <MODEL>
6

>  <REMARK>
 VINA RESULT:      -7.4      3.235      6.576
  Name = 
  3 active torsions:
  status: ('A' for Active; 'I' for Inactive)
    1  A    between atoms: C_3  and  N_29
    2  A    between atoms: C_12  and  C_28
    3  A    between atoms: C_20  and  C_33
                            x       y       z     vdW  Elec       q    Type
                         _______ _______ _______ _____ _____    ______ ____

>  <TORSDO>
F 3

$$$$
=
 OpenBabel11052419033D

 34 39  0  0  1  0  0  0  0  0999 V2000
  189.6660  172.9470  138.8740 C   0  0  0  0  0  0  0  0  0  0  0  0
  192.0130  173.3640  139.2400 C   0  0  0  0  0  0  0  0  0  0  0  0
  190.2650  173.8050  141.1450 C   0  0  0  0  0  0  0  0  0  0  0  0
  191.0200  175.6040  142.7490 C   0  0  0  0  0  0  0  0  0  0  0  0
  189.9750  172.4170  137.6640 N   0  0  0  0  0  2  0  0  0  0  0  0
  192.2640  172.8070  138.0260 N   0  0  0  0  0  0  0  0  0  0  0  0
  192.3080  173.4950  142.5570 C   0  0  0  0  0  2  0  0  0  0  0  0
  190.6900  173.4120  139.7300 C   0  0  0  0  0  0  0  0  0  0  0  0
  193.4530  174.2970  143.1680 C   0  0  0  0  0  2  0  0  0  0  0  0
  192.1020  176.2140  143.5910 C   0  0  0  0  0  2  0  0  0  0  0  0
  191.2620  172.3310  137.2440 C   0  0  0  0  0  3  0  0  0  0  0  0
  188.9400  174.5380  141.1210 C   0  0  0  0  0  0  0  0  0  0  0  0
  188.2450  173.1650  139.2230 C   0  0  0  0  0  3  0  0  0  0  0  0
  192.9740  173.8520  139.8890 O   0  0  0  0  0  0  0  0  0  0  0  0
  189.8320  176.2020  142.6720 C   0  0  0  0  0  3  0  0  0  0  0  0
  188.7330  175.6610  141.8480 C   0  0  0  0  0  0  0  0  0  0  0  0
  192.9130  175.1630  144.2170 N   0  0  2  0  0  0  0  0  0  0  0  0
  191.2910  174.3980  142.0140 N   0  0  0  0  0  0  0  0  0  0  0  0
  187.8980  173.9310  140.2640 C   0  0  0  0  0  2  0  0  0  0  0  0
  185.5230  177.3250  142.9860 C   0  0  0  0  0  0  0  0  0  0  0  0
  185.1330  178.0090  141.8310 C   0  0  0  0  0  3  0  0  0  0  0  0
  187.4660  176.4380  141.8170 C   0  0  0  0  0  0  0  0  0  0  0  0
  185.9060  177.9210  140.6740 C   0  0  0  0  0  3  0  0  0  0  0  0
  186.6860  176.5480  142.9800 C   0  0  0  0  0  3  0  0  0  0  0  0
  187.0710  177.1470  140.6710 C   0  0  0  0  0  3  0  0  0  0  0  0
  184.7800  177.4300  144.1160 F   0  0  0  0  0  0  0  0  0  0  0  0
  194.0250  175.7860  144.9400 C   0  0  1  0  0  0  0  0  0  0  0  0
  194.5670  177.3630  146.7700 O   0  0  0  0  0  1  0  0  0  0  0  0
  194.4280  175.0020  146.1850 C   0  0  0  0  0  2  0  0  0  0  0  0
  195.4380  176.4760  143.9980 S   0  0  0  0  0  1  0  0  0  0  0  0
  193.7230  176.3430  146.3230 C   0  0  2  0  0  0  0  0  0  0  0  0
  191.8910  174.9050  147.2370 C   0  0  0  0  0  1  0  0  0  0  0  0
  192.2850  176.3130  146.8290 C   0  0  1  0  0  3  0  0  0  0  0  0
  192.1620  177.1610  147.9320 O   0  0  0  0  0  1  0  0  0  0  0  0
  1 13  2  0  0  0  0
  1  8  1  0  0  0  0
  2  8  1  0  0  0  0
  2 14  2  0  0  0  0
  3 18  1  0  0  0  0
  4 10  1  0  0  0  0
  5  1  1  0  0  0  0
  6  2  1  0  0  0  0
  7  9  1  0  0  0  0
  8  3  2  0  0  0  0
 10 17  1  0  0  0  0
 11  5  1  0  0  0  0
 11  6  2  0  0  0  0
 12  3  1  0  0  0  0
 12 16  2  0  0  0  0
 13 19  1  0  0  0  0
 15  4  2  0  0  0  0
 16 15  1  0  0  0  0
 17  9  1  6  0  0  0
 17 27  1  0  0  0  0
 18  7  1  0  0  0  0
 18  4  1  0  0  0  0
 19 12  1  0  0  0  0
 20 26  1  0  0  0  0
 21 20  2  0  0  0  0
 22 16  1  0  0  0  0
 22 24  2  0  0  0  0
 23 21  1  0  0  0  0
 24 20  1  0  0  0  0
 25 23  2  0  0  0  0
 25 22  1  0  0  0  0
 27 30  1  6  0  0  0
 27 29  1  0  0  0  0
 27 31  1  0  0  0  0
 29 31  1  0  0  0  0
 31 28  1  1  0  0  0
 31 33  1  0  0  0  0
 33 32  1  1  0  0  0
 33 34  1  0  0  0  0
M  END
>  <MODEL>
7

>  <REMARK>
 VINA RESULT:      -7.3      2.651      6.676
  Name = 
  3 active torsions:
  status: ('A' for Active; 'I' for Inactive)
    1  A    between atoms: C_3  and  N_29
    2  A    between atoms: C_12  and  C_28
    3  A    between atoms: C_20  and  C_33
                            x       y       z     vdW  Elec       q    Type
                         _______ _______ _______ _____ _____    ______ ____

>  <TORSDO>
F 3

$$$$
=
 OpenBabel11052419033D

 34 39  0  0  1  0  0  0  0  0999 V2000
  185.1910  177.8620  140.6420 C   0  0  0  0  0  0  0  0  0  0  0  0
  184.9630  177.7570  143.0400 C   0  0  0  0  0  0  0  0  0  0  0  0
  187.2480  177.1800  141.8900 C   0  0  0  0  0  0  0  0  0  0  0  0
  188.6270  175.5570  143.2470 C   0  0  0  0  0  0  0  0  0  0  0  0
  183.9380  178.3770  140.5700 N   0  0  0  0  0  2  0  0  0  0  0  0
  183.7190  178.2910  142.9080 N   0  0  0  0  0  0  0  0  0  0  0  0
  188.1000  177.8000  144.1600 C   0  0  0  0  0  2  0  0  0  0  0  0
  185.7680  177.5640  141.8970 C   0  0  0  0  0  0  0  0  0  0  0  0
  188.4130  177.1740  145.5160 C   0  0  0  0  0  2  0  0  0  0  0  0
  189.1770  175.1220  144.5740 C   0  0  0  0  0  2  0  0  0  0  0  0
  183.2080  178.6060  141.6910 C   0  0  0  0  0  3  0  0  0  0  0  0
  187.5620  176.2870  140.7090 C   0  0  0  0  0  0  0  0  0  0  0  0
  185.8870  177.4830  139.3930 C   0  0  0  0  0  3  0  0  0  0  0  0
  185.3550  177.4200  144.1870 O   0  0  0  0  0  0  0  0  0  0  0  0
  188.8540  174.8120  142.1660 C   0  0  0  0  0  3  0  0  0  0  0  0
  188.3280  175.1770  140.8370 C   0  0  0  0  0  0  0  0  0  0  0  0
  189.5710  176.2910  145.3690 N   0  0  2  0  0  0  0  0  0  0  0  0
  187.8370  176.7560  143.1680 N   0  0  0  0  0  0  0  0  0  0  0  0
  186.9880  176.7230  139.4170 C   0  0  0  0  0  2  0  0  0  0  0  0
  189.4510  172.0940  138.9410 C   0  0  0  0  0  0  0  0  0  0  0  0
  189.0690  172.4080  137.6340 C   0  0  0  0  0  3  0  0  0  0  0  0
  188.6210  174.2480  139.7150 C   0  0  0  0  0  0  0  0  0  0  0  0
  188.4550  173.6310  137.3630 C   0  0  0  0  0  3  0  0  0  0  0  0
  189.2240  173.0060  139.9760 C   0  0  0  0  0  3  0  0  0  0  0  0
  188.2250  174.5410  138.3990 C   0  0  0  0  0  3  0  0  0  0  0  0
  190.0280  170.8950  139.2060 F   0  0  0  0  0  0  0  0  0  0  0  0
  189.9980  175.8410  146.6980 C   0  0  1  0  0  0  0  0  0  0  0  0
  191.9420  174.9950  147.9760 O   0  0  0  0  0  1  0  0  0  0  0  0
  190.5850  176.9710  147.5380 C   0  0  0  0  0  2  0  0  0  0  0  0
  188.9400  174.6790  147.6380 S   0  0  0  0  0  1  0  0  0  0  0  0
  191.4900  175.8780  146.9910 C   0  0  2  0  0  0  0  0  0  0  0  0
  193.7560  176.7890  146.4510 C   0  0  0  0  0  1  0  0  0  0  0  0
  192.4500  176.2770  145.8750 C   0  0  1  0  0  3  0  0  0  0  0  0
  192.7080  175.1690  145.0650 O   0  0  0  0  0  1  0  0  0  0  0  0
  1  8  1  0  0  0  0
  2 14  2  0  0  0  0
  3  8  2  0  0  0  0
  3 18  1  0  0  0  0
  4 10  1  0  0  0  0
  5  1  1  0  0  0  0
  5 11  1  0  0  0  0
  6  2  1  0  0  0  0
  7  9  1  0  0  0  0
  8  2  1  0  0  0  0
 11  6  2  0  0  0  0
 12 16  2  0  0  0  0
 12  3  1  0  0  0  0
 13 19  1  0  0  0  0
 13  1  2  0  0  0  0
 15  4  2  0  0  0  0
 16 15  1  0  0  0  0
 17 10  1  6  0  0  0
 17  9  1  0  0  0  0
 17 27  1  0  0  0  0
 18  4  1  0  0  0  0
 18  7  1  0  0  0  0
 19 12  1  0  0  0  0
 20 26  1  0  0  0  0
 20 24  1  0  0  0  0
 21 20  2  0  0  0  0
 22 24  2  0  0  0  0
 22 16  1  0  0  0  0
 23 21  1  0  0  0  0
 23 25  2  0  0  0  0
 25 22  1  0  0  0  0
 27 31  1  0  0  0  0
 27 29  1  0  0  0  0
 27 30  1  1  0  0  0
 31 29  1  0  0  0  0
 31 28  1  1  0  0  0
 33 32  1  1  0  0  0
 33 31  1  0  0  0  0
 34 33  1  0  0  0  0
M  END
>  <MODEL>
8

>  <REMARK>
 VINA RESULT:      -7.3      3.836      7.938
  Name = 
  3 active torsions:
  status: ('A' for Active; 'I' for Inactive)
    1  A    between atoms: C_3  and  N_29
    2  A    between atoms: C_12  and  C_28
    3  A    between atoms: C_20  and  C_33
                            x       y       z     vdW  Elec       q    Type
                         _______ _______ _______ _____ _____    ______ ____

>  <TORSDO>
F 3

$$$$
=
 OpenBabel11052419033D

 34 39  0  0  1  0  0  0  0  0999 V2000
  185.8670  178.5930  145.0570 C   0  0  0  0  0  0  0  0  0  0  0  0
  187.0320  177.2300  146.6700 C   0  0  0  0  0  0  0  0  0  0  0  0
  188.1160  177.7640  144.3430 C   0  0  0  0  0  0  0  0  0  0  0  0
  189.7220  175.9650  143.5920 C   0  0  0  0  0  0  0  0  0  0  0  0
  184.9070  178.8280  145.9850 N   0  0  0  0  0  2  0  0  0  0  0  0
  186.0480  177.5140  147.5640 N   0  0  0  0  0  0  0  0  0  0  0  0
  190.2000  177.2760  145.6400 C   0  0  0  0  0  2  0  0  0  0  0  0
  186.9950  177.8060  145.3820 C   0  0  0  0  0  0  0  0  0  0  0  0
  191.1170  176.1140  146.0080 C   0  0  0  0  0  2  0  0  0  0  0  0
  190.8450  175.0210  143.9070 C   0  0  0  0  0  2  0  0  0  0  0  0
  184.9970  178.3070  147.2350 C   0  0  0  0  0  3  0  0  0  0  0  0
  187.5440  177.6820  142.9430 C   0  0  0  0  0  0  0  0  0  0  0  0
  185.6510  179.0470  143.6650 C   0  0  0  0  0  3  0  0  0  0  0  0
  187.9430  176.4330  147.0100 O   0  0  0  0  0  0  0  0  0  0  0  0
  189.1620  175.9380  142.3830 C   0  0  0  0  0  3  0  0  0  0  0  0
  188.0440  176.8290  142.0170 C   0  0  0  0  0  0  0  0  0  0  0  0
  191.8140  175.6650  144.8020 N   0  0  2  0  0  0  0  0  0  0  0  0
  189.2450  176.8630  144.6100 N   0  0  0  0  0  0  0  0  0  0  0  0
  186.4210  178.6030  142.6650 C   0  0  0  0  0  2  0  0  0  0  0  0
  187.3150  175.4110  138.5790 C   0  0  0  0  0  0  0  0  0  0  0  0
  186.3410  176.2950  138.1070 C   0  0  0  0  0  3  0  0  0  0  0  0
  187.4820  176.6810  140.6490 C   0  0  0  0  0  0  0  0  0  0  0  0
  185.9260  177.3640  138.9010 C   0  0  0  0  0  3  0  0  0  0  0  0
  187.8790  175.6000  139.8440 C   0  0  0  0  0  3  0  0  0  0  0  0
  186.4880  177.5500  140.1680 C   0  0  0  0  0  3  0  0  0  0  0  0
  187.7000  174.3600  137.8120 F   0  0  0  0  0  0  0  0  0  0  0  0
  192.8380  174.6860  145.1800 C   0  0  1  0  0  0  0  0  0  0  0  0
  195.2580  174.1890  145.0340 O   0  0  0  0  0  1  0  0  0  0  0  0
  193.5070  175.0210  146.5090 C   0  0  0  0  0  2  0  0  0  0  0  0
  192.5090  172.9000  144.9350 S   0  0  0  0  0  1  0  0  0  0  0  0
  194.2790  175.1710  145.2070 C   0  0  2  0  0  0  0  0  0  0  0  0
  194.7350  177.5170  145.9450 C   0  0  0  0  0  1  0  0  0  0  0  0
  194.5850  176.5930  144.7510 C   0  0  1  0  0  3  0  0  0  0  0  0
  195.7710  176.6010  144.0140 O   0  0  0  0  0  1  0  0  0  0  0  0
  1  8  1  0  0  0  0
  1  5  1  0  0  0  0
  2 14  2  0  0  0  0
  2  6  1  0  0  0  0
  3 18  1  0  0  0  0
  3  8  2  0  0  0  0
  4 10  1  0  0  0  0
  4 18  1  0  0  0  0
  5 11  1  0  0  0  0
  7  9  1  0  0  0  0
  8  2  1  0  0  0  0
 11  6  2  0  0  0  0
 12  3  1  0  0  0  0
 13  1  2  0  0  0  0
 15  4  2  0  0  0  0
 16 15  1  0  0  0  0
 16 12  2  0  0  0  0
 17 10  1  6  0  0  0
 17 27  1  0  0  0  0
 17  9  1  0  0  0  0
 18  7  1  0  0  0  0
 19 12  1  0  0  0  0
 19 13  1  0  0  0  0
 20 24  1  0  0  0  0
 21 20  2  0  0  0  0
 21 23  1  0  0  0  0
 22 16  1  0  0  0  0
 23 25  2  0  0  0  0
 24 22  2  0  0  0  0
 25 22  1  0  0  0  0
 26 20  1  0  0  0  0
 27 30  1  6  0  0  0
 27 31  1  0  0  0  0
 27 29  1  0  0  0  0
 31 28  1  6  0  0  0
 31 29  1  0  0  0  0
 33 31  1  0  0  0  0
 33 32  1  1  0  0  0
 34 33  1  0  0  0  0
M  END
>  <MODEL>
9

>  <REMARK>
 VINA RESULT:      -7.3      3.965      6.524
  Name = 
  3 active torsions:
  status: ('A' for Active; 'I' for Inactive)
    1  A    between atoms: C_3  and  N_29
    2  A    between atoms: C_12  and  C_28
    3  A    between atoms: C_20  and  C_33
                            x       y       z     vdW  Elec       q    Type
                         _______ _______ _______ _____ _____    ______ ____

>  <TORSDO>
F 3

$$$$
