=
 OpenBabel11052421263D

 32 37  0  0  1  0  0  0  0  0999 V2000
  186.7970  177.7370  147.2660 C   0  0  0  0  0  3  0  0  0  0  0  0
  190.2480  176.2150  143.7870 C   0  0  2  0  0  3  0  0  0  0  0  0
  194.5450  175.9970  146.4210 C   0  0  0  0  0  2  0  0  0  0  0  0
  195.0490  174.8560  145.5490 C   0  0  0  0  0  2  0  0  0  0  0  0
  190.2800  174.3860  141.8950 C   0  0  0  0  0  0  0  0  0  0  0  0
  189.0300  174.3110  141.2640 C   0  0  0  0  0  0  0  0  0  0  0  0
  188.0900  176.6280  145.0420 C   0  0  0  0  0  0  0  0  0  0  0  0
  190.3390  177.0330  146.1340 C   0  0  0  0  0  2  0  0  0  0  0  0
  190.8640  172.2270  141.0080 C   0  0  0  0  0  0  0  0  0  0  0  0
  188.1890  177.6300  147.2510 C   0  0  0  0  0  3  0  0  0  0  0  0
  193.0230  175.9550  146.4840 C   0  0  0  0  0  2  0  0  0  0  0  0
  190.8950  175.9880  145.1580 C   0  0  2  0  0  3  0  0  0  0  0  0
  192.4140  176.1000  145.0820 C   0  0  2  0  0  3  0  0  0  0  0  0
  192.4220  175.0730  142.7510 C   0  0  1  0  0  3  0  0  0  0  0  0
  189.6150  172.1210  140.4730 N   0  0  0  0  0  0  0  0  0  0  0  0
  188.8410  177.0630  146.1520 C   0  0  0  0  0  0  0  0  0  0  0  0
  188.7050  173.1350  140.5720 C   0  0  0  0  0  3  0  0  0  0  0  0
  186.6960  176.7280  145.0680 C   0  0  0  0  0  3  0  0  0  0  0  0
  186.0470  177.2880  146.1740 C   0  0  0  0  0  0  0  0  0  0  0  0
  194.4700  174.9890  144.1450 C   0  0  0  0  0  2  0  0  0  0  0  0
  192.9400  174.9800  144.1840 C   0  0  1  0  0  3  0  0  0  0  0  0
  192.4890  173.7380  142.1610 N   0  0  0  0  0  2  0  0  0  0  0  0
  188.7410  175.9540  143.8710 C   0  0  0  0  0  2  0  0  0  0  0  0
  188.1720  175.3600  141.2460 F   0  0  0  0  0  0  0  0  0  0  0  0
  191.8530  171.1310  140.8140 C   0  0  0  0  0  1  0  0  0  0  0  0
  190.9470  175.5550  142.5610 C   0  0  2  0  0  3  0  0  0  0  0  0
  191.1980  173.3880  141.7080 C   0  0  0  0  0  0  0  0  0  0  0  0
  184.5590  177.3770  146.1990 C   0  0  0  0  0  2  0  0  0  0  0  0
  184.0850  178.7860  145.8630 C   0  0  0  0  0  2  0  0  0  0  0  0
  184.3790  179.1340  144.4380 C   0  0  0  0  0  0  0  0  0  0  0  0
  183.7460  178.6130  143.5350 O   0  0  0  0  0  0  0  0  0  0  0  0
  185.4620  180.1060  144.1200 C   0  0  0  0  0  1  0  0  0  0  0  0
  2 23  1  1  0  0  0
  2 12  1  0  0  0  0
  3 11  1  0  0  0  0
  4  3  1  0  0  0  0
  6  5  2  0  0  0  0
  7 18  2  0  0  0  0
  7 16  1  0  0  0  0
  8 16  1  0  0  0  0
  9 27  2  0  0  0  0
 10  1  1  0  0  0  0
 12  8  1  1  0  0  0
 13 12  1  0  0  0  0
 13 11  1  1  0  0  0
 14 22  1  1  0  0  0
 14 21  1  0  0  0  0
 15 17  2  0  0  0  0
 15  9  1  0  0  0  0
 16 10  2  0  0  0  0
 17  6  1  0  0  0  0
 18 19  1  0  0  0  0
 19 28  1  0  0  0  0
 19  1  2  0  0  0  0
 20  4  1  0  0  0  0
 21 20  1  6  0  0  0
 21 13  1  0  0  0  0
 23  7  1  0  0  0  0
 24  6  1  0  0  0  0
 25  9  1  0  0  0  0
 26  5  1  1  0  0  0
 26 14  1  0  0  0  0
 26  2  1  0  0  0  0
 27  5  1  0  0  0  0
 27 22  1  0  0  0  0
 29 28  1  0  0  0  0
 30 29  1  0  0  0  0
 31 30  2  0  0  0  0
 32 30  1  0  0  0  0
M  END
>  <MODEL>
1

>  <REMARK>
 VINA RESULT:      -9.2      0.000      0.000
  Name = 
  3 active torsions:
  status: ('A' for Active; 'I' for Inactive)
    1  A    between atoms: C_1  and  C_10
    2  A    between atoms: C_10  and  C_19
    3  A    between atoms: C_19  and  C_24
                            x       y       z     vdW  Elec       q    Type
                         _______ _______ _______ _____ _____    ______ ____

>  <TORSDO>
F 3

$$$$
=
 OpenBabel11052421263D

 32 37  0  0  1  0  0  0  0  0999 V2000
  193.3150  176.4830  145.4000 C   0  0  0  0  0  3  0  0  0  0  0  0
  188.3470  176.0790  144.1840 C   0  0  2  0  0  3  0  0  0  0  0  0
  186.0030  178.1460  148.1440 C   0  0  0  0  0  2  0  0  0  0  0  0
  184.8720  178.6320  147.2500 C   0  0  0  0  0  2  0  0  0  0  0  0
  186.9380  176.5090  142.0030 C   0  0  0  0  0  0  0  0  0  0  0  0
  187.6520  176.0970  140.8700 C   0  0  0  0  0  0  0  0  0  0  0  0
  190.8680  176.2510  144.0560 C   0  0  0  0  0  0  0  0  0  0  0  0
  189.6270  176.7460  146.2100 C   0  0  0  0  0  2  0  0  0  0  0  0
  185.4820  177.8290  140.6160 C   0  0  0  0  0  0  0  0  0  0  0  0
  192.1190  176.6910  146.0900 C   0  0  0  0  0  3  0  0  0  0  0  0
  187.2930  178.0750  147.3390 C   0  0  0  0  0  2  0  0  0  0  0  0
  188.4250  177.1010  145.3250 C   0  0  2  0  0  3  0  0  0  0  0  0
  187.1470  177.1060  146.1560 C   0  0  2  0  0  3  0  0  0  0  0  0
  185.7400  176.6280  144.0880 C   0  0  1  0  0  3  0  0  0  0  0  0
  186.2350  177.4980  139.5290 N   0  0  0  0  0  0  0  0  0  0  0  0
  190.8940  176.5930  145.4230 C   0  0  0  0  0  0  0  0  0  0  0  0
  187.2930  176.6390  139.6260 C   0  0  0  0  0  3  0  0  0  0  0  0
  192.0690  176.0550  143.3690 C   0  0  0  0  0  3  0  0  0  0  0  0
  193.2930  176.1630  144.0380 C   0  0  0  0  0  0  0  0  0  0  0  0
  184.6960  177.6750  146.0770 C   0  0  0  0  0  2  0  0  0  0  0  0
  185.9910  177.5640  145.2680 C   0  0  1  0  0  3  0  0  0  0  0  0
  185.0660  177.3940  143.0420 N   0  0  0  0  0  2  0  0  0  0  0  0
  189.5820  176.2010  143.2870 C   0  0  0  0  0  2  0  0  0  0  0  0
  188.6180  175.1480  140.9350 F   0  0  0  0  0  0  0  0  0  0  0  0
  184.2910  178.7080  140.4560 C   0  0  0  0  0  1  0  0  0  0  0  0
  186.9970  175.9890  143.4110 C   0  0  2  0  0  3  0  0  0  0  0  0
  185.8340  177.3050  141.8600 C   0  0  0  0  0  0  0  0  0  0  0  0
  194.5700  175.9670  143.2940 C   0  0  0  0  0  2  0  0  0  0  0  0
  195.7760  176.1800  144.2020 C   0  0  0  0  0  2  0  0  0  0  0  0
  196.4860  174.8930  144.4760 C   0  0  0  0  0  0  0  0  0  0  0  0
  197.2670  174.4350  143.6590 O   0  0  0  0  0  0  0  0  0  0  0  0
  196.2250  174.1580  145.7450 C   0  0  0  0  0  1  0  0  0  0  0  0
  1 10  1  0  0  0  0
  2 23  1  6  0  0  0
  2 12  1  0  0  0  0
  4  3  1  0  0  0  0
  6 24  1  0  0  0  0
  6  5  2  0  0  0  0
  7 16  1  0  0  0  0
  9 27  2  0  0  0  0
 11  3  1  0  0  0  0
 12 13  1  0  0  0  0
 12  8  1  1  0  0  0
 13 11  1  1  0  0  0
 14 22  1  6  0  0  0
 14 21  1  0  0  0  0
 15 17  2  0  0  0  0
 15  9  1  0  0  0  0
 16 10  2  0  0  0  0
 16  8  1  0  0  0  0
 17  6  1  0  0  0  0
 18 19  1  0  0  0  0
 18  7  2  0  0  0  0
 19  1  2  0  0  0  0
 20  4  1  0  0  0  0
 21 20  1  1  0  0  0
 21 13  1  0  0  0  0
 23  7  1  0  0  0  0
 25  9  1  0  0  0  0
 26  5  1  6  0  0  0
 26 14  1  0  0  0  0
 26  2  1  0  0  0  0
 27  5  1  0  0  0  0
 27 22  1  0  0  0  0
 28 19  1  0  0  0  0
 28 29  1  0  0  0  0
 29 30  1  0  0  0  0
 30 32  1  0  0  0  0
 31 30  2  0  0  0  0
M  END
>  <MODEL>
2

>  <REMARK>
 VINA RESULT:      -9.1      3.629      7.545
  Name = 
  3 active torsions:
  status: ('A' for Active; 'I' for Inactive)
    1  A    between atoms: C_1  and  C_10
    2  A    between atoms: C_10  and  C_19
    3  A    between atoms: C_19  and  C_24
                            x       y       z     vdW  Elec       q    Type
                         _______ _______ _______ _____ _____    ______ ____

>  <TORSDO>
F 3

$$$$
=
 OpenBabel11052421263D

 32 37  0  0  1  0  0  0  0  0999 V2000
  185.9610  177.5400  142.7540 C   0  0  0  0  0  3  0  0  0  0  0  0
  189.7290  174.5050  144.4640 C   0  0  2  0  0  3  0  0  0  0  0  0
  190.4680  171.2950  140.6430 C   0  0  0  0  0  2  0  0  0  0  0  0
  191.9440  171.1810  140.9950 C   0  0  0  0  0  2  0  0  0  0  0  0
  192.0030  174.9150  145.7240 C   0  0  0  0  0  0  0  0  0  0  0  0
  191.8580  175.9330  146.6760 C   0  0  0  0  0  0  0  0  0  0  0  0
  188.1690  176.4650  144.1020 C   0  0  0  0  0  0  0  0  0  0  0  0
  188.2100  174.5070  142.4940 C   0  0  0  0  0  2  0  0  0  0  0  0
  194.3940  175.1670  145.8060 C   0  0  0  0  0  0  0  0  0  0  0  0
  186.5440  176.3540  142.3020 C   0  0  0  0  0  3  0  0  0  0  0  0
  189.9520  172.6680  141.0560 C   0  0  0  0  0  2  0  0  0  0  0  0
  189.6590  174.2860  142.9480 C   0  0  2  0  0  3  0  0  0  0  0  0
  190.1180  172.8820  142.5670 C   0  0  2  0  0  3  0  0  0  0  0  0
  191.8460  172.8860  144.4380 C   0  0  1  0  0  3  0  0  0  0  0  0
  194.2430  176.2160  146.6630 N   0  0  0  0  0  0  0  0  0  0  0  0
  187.6560  175.8200  142.9590 C   0  0  0  0  0  0  0  0  0  0  0  0
  193.0120  176.6000  147.1150 C   0  0  0  0  0  3  0  0  0  0  0  0
  187.5880  177.6570  144.5430 C   0  0  0  0  0  3  0  0  0  0  0  0
  186.4810  178.1920  143.8770 C   0  0  0  0  0  0  0  0  0  0  0  0
  192.1320  171.3730  142.4950 C   0  0  0  0  0  2  0  0  0  0  0  0
  191.5930  172.7350  142.9400 C   0  0  1  0  0  3  0  0  0  0  0  0
  193.2370  173.2950  144.6200 N   0  0  0  0  0  2  0  0  0  0  0  0
  189.4000  175.9630  144.7970 C   0  0  0  0  0  2  0  0  0  0  0  0
  190.6580  176.2340  147.2280 F   0  0  0  0  0  0  0  0  0  0  0  0
  195.7570  174.7310  145.3960 C   0  0  0  0  0  1  0  0  0  0  0  0
  190.9830  173.9450  145.1990 C   0  0  2  0  0  3  0  0  0  0  0  0
  193.2540  174.5020  145.3540 C   0  0  0  0  0  0  0  0  0  0  0  0
  185.8760  179.4730  144.3460 C   0  0  0  0  0  2  0  0  0  0  0  0
  184.5460  179.2290  145.0490 C   0  0  0  0  0  2  0  0  0  0  0  0
  184.7450  178.5760  146.3800 C   0  0  0  0  0  0  0  0  0  0  0  0
  184.1340  177.5580  146.6630 O   0  0  0  0  0  0  0  0  0  0  0  0
  185.6780  179.1800  147.3700 C   0  0  0  0  0  1  0  0  0  0  0  0
  1 19  1  0  0  0  0
  2 23  1  6  0  0  0
  2 26  1  0  0  0  0
  3  4  1  0  0  0  0
  3 11  1  0  0  0  0
  4 20  1  0  0  0  0
  5  6  1  0  0  0  0
  6 17  2  0  0  0  0
  6 24  1  0  0  0  0
  7 18  1  0  0  0  0
  7 23  1  0  0  0  0
  8 16  1  0  0  0  0
  9 15  2  0  0  0  0
 10  1  2  0  0  0  0
 10 16  1  0  0  0  0
 12  8  1  1  0  0  0
 12  2  1  0  0  0  0
 13 11  1  6  0  0  0
 13 21  1  0  0  0  0
 13 12  1  0  0  0  0
 14 22  1  6  0  0  0
 14 26  1  0  0  0  0
 15 17  1  0  0  0  0
 16  7  2  0  0  0  0
 19 28  1  0  0  0  0
 19 18  2  0  0  0  0
 21 20  1  1  0  0  0
 21 14  1  0  0  0  0
 22 27  1  0  0  0  0
 25  9  1  0  0  0  0
 26  5  1  6  0  0  0
 27  5  2  0  0  0  0
 27  9  1  0  0  0  0
 28 29  1  0  0  0  0
 29 30  1  0  0  0  0
 30 31  2  0  0  0  0
 30 32  1  0  0  0  0
M  END
>  <MODEL>
3

>  <REMARK>
 VINA RESULT:      -8.7      2.181      4.848
  Name = 
  3 active torsions:
  status: ('A' for Active; 'I' for Inactive)
    1  A    between atoms: C_1  and  C_10
    2  A    between atoms: C_10  and  C_19
    3  A    between atoms: C_19  and  C_24
                            x       y       z     vdW  Elec       q    Type
                         _______ _______ _______ _____ _____    ______ ____

>  <TORSDO>
F 3

$$$$
=
 OpenBabel11052421263D

 32 37  0  0  1  0  0  0  0  0999 V2000
  184.3610  179.0070  144.7080 C   0  0  0  0  0  3  0  0  0  0  0  0
  188.7640  176.7240  143.3920 C   0  0  2  0  0  3  0  0  0  0  0  0
  191.3270  176.5380  147.7330 C   0  0  0  0  0  2  0  0  0  0  0  0
  192.0080  175.2470  147.3020 C   0  0  0  0  0  2  0  0  0  0  0  0
  189.3950  174.6460  141.9060 C   0  0  0  0  0  0  0  0  0  0  0  0
  188.5690  174.5830  140.7750 C   0  0  0  0  0  0  0  0  0  0  0  0
  186.3530  177.4880  143.4530 C   0  0  0  0  0  0  0  0  0  0  0  0
  187.8960  177.8610  145.4270 C   0  0  0  0  0  2  0  0  0  0  0  0
  190.0110  172.3410  141.5920 C   0  0  0  0  0  0  0  0  0  0  0  0
  185.5800  178.7860  145.3540 C   0  0  0  0  0  3  0  0  0  0  0  0
  189.9530  176.6300  147.0830 C   0  0  0  0  0  2  0  0  0  0  0  0
  188.6830  176.6450  144.9210 C   0  0  2  0  0  3  0  0  0  0  0  0
  190.0710  176.6210  145.5520 C   0  0  2  0  0  3  0  0  0  0  0  0
  190.9900  175.2730  143.5960 C   0  0  1  0  0  3  0  0  0  0  0  0
  189.1390  172.2610  140.5480 N   0  0  0  0  0  0  0  0  0  0  0  0
  186.5720  178.0150  144.7410 C   0  0  0  0  0  0  0  0  0  0  0  0
  188.4330  173.3500  140.1200 C   0  0  0  0  0  3  0  0  0  0  0  0
  185.1270  177.7040  142.8170 C   0  0  0  0  0  3  0  0  0  0  0  0
  184.1330  178.4680  143.4370 C   0  0  0  0  0  0  0  0  0  0  0  0
  192.1520  175.2230  145.7850 C   0  0  0  0  0  2  0  0  0  0  0  0
  190.7850  175.3440  145.1080 C   0  0  1  0  0  3  0  0  0  0  0  0
  191.1300  173.8660  143.2280 N   0  0  0  0  0  2  0  0  0  0  0  0
  187.3630  176.6020  142.7860 C   0  0  0  0  0  2  0  0  0  0  0  0
  187.9680  175.6850  140.2640 F   0  0  0  0  0  0  0  0  0  0  0  0
  190.8180  171.1530  141.9800 C   0  0  0  0  0  1  0  0  0  0  0  0
  189.8440  175.8410  142.6980 C   0  0  2  0  0  3  0  0  0  0  0  0
  190.1490  173.5600  142.2590 C   0  0  0  0  0  0  0  0  0  0  0  0
  182.8220  178.6810  142.7580 C   0  0  0  0  0  2  0  0  0  0  0  0
  182.8810  178.2450  141.2980 C   0  0  0  0  0  2  0  0  0  0  0  0
  181.5410  178.3570  140.6430 C   0  0  0  0  0  0  0  0  0  0  0  0
  181.2090  177.5570  139.7830 O   0  0  0  0  0  0  0  0  0  0  0  0
  180.6170  179.4600  141.0260 C   0  0  0  0  0  1  0  0  0  0  0  0
  1 10  1  0  0  0  0
  2 23  1  6  0  0  0
  2 12  1  0  0  0  0
  4  3  1  0  0  0  0
  5 27  1  0  0  0  0
  6  5  2  0  0  0  0
  7 16  1  0  0  0  0
  9 25  1  0  0  0  0
  9 27  2  0  0  0  0
 11  3  1  0  0  0  0
 12  8  1  1  0  0  0
 12 13  1  0  0  0  0
 13 11  1  1  0  0  0
 14 22  1  6  0  0  0
 14 21  1  0  0  0  0
 15  9  1  0  0  0  0
 16 10  2  0  0  0  0
 16  8  1  0  0  0  0
 17 15  2  0  0  0  0
 17  6  1  0  0  0  0
 18 19  1  0  0  0  0
 18  7  2  0  0  0  0
 19  1  2  0  0  0  0
 20  4  1  0  0  0  0
 21 13  1  0  0  0  0
 21 20  1  1  0  0  0
 23  7  1  0  0  0  0
 24  6  1  0  0  0  0
 26  5  1  1  0  0  0
 26  2  1  0  0  0  0
 26 14  1  0  0  0  0
 27 22  1  0  0  0  0
 28 19  1  0  0  0  0
 29 28  1  0  0  0  0
 30 32  1  0  0  0  0
 30 29  1  0  0  0  0
 31 30  2  0  0  0  0
M  END
>  <MODEL>
4

>  <REMARK>
 VINA RESULT:      -8.5      2.027      2.889
  Name = 
  3 active torsions:
  status: ('A' for Active; 'I' for Inactive)
    1  A    between atoms: C_1  and  C_10
    2  A    between atoms: C_10  and  C_19
    3  A    between atoms: C_19  and  C_24
                            x       y       z     vdW  Elec       q    Type
                         _______ _______ _______ _____ _____    ______ ____

>  <TORSDO>
F 3

$$$$
=
 OpenBabel11052421263D

 32 37  0  0  1  0  0  0  0  0999 V2000
  183.5000  178.9980  143.4880 C   0  0  0  0  0  3  0  0  0  0  0  0
  188.2120  177.0040  143.0910 C   0  0  2  0  0  3  0  0  0  0  0  0
  190.1220  177.5890  147.7240 C   0  0  0  0  0  2  0  0  0  0  0  0
  190.9560  176.3260  147.5640 C   0  0  0  0  0  2  0  0  0  0  0  0
  189.2110  174.8310  141.9930 C   0  0  0  0  0  0  0  0  0  0  0  0
  188.5660  174.5550  140.7800 C   0  0  0  0  0  0  0  0  0  0  0  0
  185.7650  177.5360  142.7250 C   0  0  0  0  0  0  0  0  0  0  0  0
  186.9710  178.2910  144.8210 C   0  0  0  0  0  2  0  0  0  0  0  0
  190.0430  172.5750  142.0740 C   0  0  0  0  0  0  0  0  0  0  0  0
  184.6250  178.9740  144.3150 C   0  0  0  0  0  3  0  0  0  0  0  0
  188.8540  177.4700  146.8880 C   0  0  0  0  0  2  0  0  0  0  0  0
  187.9150  177.1030  144.5920 C   0  0  2  0  0  3  0  0  0  0  0  0
  189.1940  177.2870  145.4010 C   0  0  2  0  0  3  0  0  0  0  0  0
  190.4900  175.8070  143.7840 C   0  0  1  0  0  3  0  0  0  0  0  0
  189.3410  172.2870  140.9420 N   0  0  0  0  0  0  0  0  0  0  0  0
  185.7530  178.2330  143.9490 C   0  0  0  0  0  0  0  0  0  0  0  0
  188.6230  173.2440  140.2830 C   0  0  0  0  0  3  0  0  0  0  0  0
  184.6320  177.5560  141.9070 C   0  0  0  0  0  3  0  0  0  0  0  0
  183.5020  178.2910  142.2810 C   0  0  0  0  0  0  0  0  0  0  0  0
  191.3210  176.1330  146.0970 C   0  0  0  0  0  2  0  0  0  0  0  0
  190.0620  176.0410  145.2310 C   0  0  1  0  0  3  0  0  0  0  0  0
  190.7910  174.3860  143.6290 N   0  0  0  0  0  2  0  0  0  0  0  0
  186.9270  176.6760  142.3240 C   0  0  0  0  0  2  0  0  0  0  0  0
  187.9620  175.5240  140.0510 F   0  0  0  0  0  0  0  0  0  0  0  0
  190.8750  171.5250  142.7220 C   0  0  0  0  0  1  0  0  0  0  0  0
  189.4460  176.1510  142.6720 C   0  0  2  0  0  3  0  0  0  0  0  0
  189.9880  173.8730  142.5860 C   0  0  0  0  0  0  0  0  0  0  0  0
  182.2920  178.2940  141.4090 C   0  0  0  0  0  2  0  0  0  0  0  0
  181.1390  179.0410  142.0700 C   0  0  0  0  0  2  0  0  0  0  0  0
  180.1120  179.4560  141.0660 C   0  0  0  0  0  0  0  0  0  0  0  0
  180.1950  180.5410  140.5130 O   0  0  0  0  0  0  0  0  0  0  0  0
  178.9720  178.5500  140.7530 C   0  0  0  0  0  1  0  0  0  0  0  0
  1 10  1  0  0  0  0
  2 23  1  6  0  0  0
  2 12  1  0  0  0  0
  4  3  1  0  0  0  0
  5 27  1  0  0  0  0
  6  5  2  0  0  0  0
  7 16  1  0  0  0  0
  9 27  2  0  0  0  0
  9 25  1  0  0  0  0
 11  3  1  0  0  0  0
 12  8  1  6  0  0  0
 12 13  1  0  0  0  0
 13 11  1  1  0  0  0
 14 22  1  1  0  0  0
 14 21  1  0  0  0  0
 15  9  1  0  0  0  0
 16 10  2  0  0  0  0
 16  8  1  0  0  0  0
 17  6  1  0  0  0  0
 17 15  2  0  0  0  0
 18 19  1  0  0  0  0
 18  7  2  0  0  0  0
 19  1  2  0  0  0  0
 20  4  1  0  0  0  0
 21 13  1  0  0  0  0
 21 20  1  1  0  0  0
 23  7  1  0  0  0  0
 24  6  1  0  0  0  0
 26  5  1  1  0  0  0
 26  2  1  0  0  0  0
 26 14  1  0  0  0  0
 27 22  1  0  0  0  0
 28 29  1  0  0  0  0
 28 19  1  0  0  0  0
 30 29  1  0  0  0  0
 31 30  2  0  0  0  0
 32 30  1  0  0  0  0
M  END
>  <MODEL>
5

>  <REMARK>
 VINA RESULT:      -8.5      2.454      3.728
  Name = 
  3 active torsions:
  status: ('A' for Active; 'I' for Inactive)
    1  A    between atoms: C_1  and  C_10
    2  A    between atoms: C_10  and  C_19
    3  A    between atoms: C_19  and  C_24
                            x       y       z     vdW  Elec       q    Type
                         _______ _______ _______ _____ _____    ______ ____

>  <TORSDO>
F 3

$$$$
=
 OpenBabel11052421263D

 32 37  0  0  1  0  0  0  0  0999 V2000
  186.0040  177.1320  143.1960 C   0  0  0  0  0  3  0  0  0  0  0  0
  190.3890  174.5830  143.9740 C   0  0  2  0  0  3  0  0  0  0  0  0
  190.5020  171.2670  140.1730 C   0  0  0  0  0  2  0  0  0  0  0  0
  192.0230  171.3200  140.1430 C   0  0  0  0  0  2  0  0  0  0  0  0
  192.8460  175.2830  144.6060 C   0  0  0  0  0  0  0  0  0  0  0  0
  192.8320  176.3310  145.5370 C   0  0  0  0  0  0  0  0  0  0  0  0
  188.5830  176.3550  143.9680 C   0  0  0  0  0  0  0  0  0  0  0  0
  188.4370  174.3290  142.4530 C   0  0  0  0  0  2  0  0  0  0  0  0
  195.1390  175.7770  144.0730 C   0  0  0  0  0  0  0  0  0  0  0  0
  186.5820  175.9880  142.6420 C   0  0  0  0  0  3  0  0  0  0  0  0
  189.9570  172.6010  140.6680 C   0  0  0  0  0  2  0  0  0  0  0  0
  189.9680  174.2780  142.5310 C   0  0  2  0  0  3  0  0  0  0  0  0
  190.4690  172.9100  142.0820 C   0  0  2  0  0  3  0  0  0  0  0  0
  192.5980  173.1840  143.4540 C   0  0  1  0  0  3  0  0  0  0  0  0
  195.0920  176.8490  144.9140 N   0  0  0  0  0  0  0  0  0  0  0  0
  187.8750  175.6030  143.0090 C   0  0  0  0  0  0  0  0  0  0  0  0
  193.9780  177.1310  145.6530 C   0  0  0  0  0  3  0  0  0  0  0  0
  188.0020  177.5040  144.5120 C   0  0  0  0  0  3  0  0  0  0  0  0
  186.7120  177.8910  144.1340 C   0  0  0  0  0  0  0  0  0  0  0  0
  192.5550  171.6080  141.5410 C   0  0  0  0  0  2  0  0  0  0  0  0
  191.9980  172.9310  142.0730 C   0  0  1  0  0  3  0  0  0  0  0  0
  193.9360  173.7390  143.2670 N   0  0  0  0  0  2  0  0  0  0  0  0
  189.9950  176.0160  144.3420 C   0  0  0  0  0  2  0  0  0  0  0  0
  191.7810  176.5390  146.3680 F   0  0  0  0  0  0  0  0  0  0  0  0
  196.3960  175.4590  143.3430 C   0  0  0  0  0  1  0  0  0  0  0  0
  191.8400  174.1900  144.3810 C   0  0  2  0  0  3  0  0  0  0  0  0
  194.0030  174.9780  143.9420 C   0  0  0  0  0  0  0  0  0  0  0  0
  186.1060  179.1270  144.7080 C   0  0  0  0  0  2  0  0  0  0  0  0
  185.0690  178.7900  145.7730 C   0  0  0  0  0  2  0  0  0  0  0  0
  185.6990  178.6470  147.1210 C   0  0  0  0  0  0  0  0  0  0  0  0
  185.9780  179.6360  147.7780 O   0  0  0  0  0  0  0  0  0  0  0  0
  186.0060  177.2910  147.6570 C   0  0  0  0  0  1  0  0  0  0  0  0
  1 19  1  0  0  0  0
  2 23  1  6  0  0  0
  2 26  1  0  0  0  0
  3 11  1  0  0  0  0
  4  3  1  0  0  0  0
  4 20  1  0  0  0  0
  5  6  1  0  0  0  0
  6 17  2  0  0  0  0
  6 24  1  0  0  0  0
  7 23  1  0  0  0  0
  7 18  1  0  0  0  0
  8 16  1  0  0  0  0
  9 15  2  0  0  0  0
 10 16  1  0  0  0  0
 10  1  2  0  0  0  0
 12  8  1  1  0  0  0
 12  2  1  0  0  0  0
 13 11  1  6  0  0  0
 13 12  1  0  0  0  0
 14 22  1  6  0  0  0
 14 26  1  0  0  0  0
 15 17  1  0  0  0  0
 16  7  2  0  0  0  0
 19 18  2  0  0  0  0
 19 28  1  0  0  0  0
 21 20  1  1  0  0  0
 21 13  1  0  0  0  0
 21 14  1  0  0  0  0
 22 27  1  0  0  0  0
 25  9  1  0  0  0  0
 26  5  1  6  0  0  0
 27  9  1  0  0  0  0
 27  5  2  0  0  0  0
 28 29  1  0  0  0  0
 29 30  1  0  0  0  0
 30 32  1  0  0  0  0
 30 31  2  0  0  0  0
M  END
>  <MODEL>
6

>  <REMARK>
 VINA RESULT:      -8.3      2.138      4.856
  Name = 
  3 active torsions:
  status: ('A' for Active; 'I' for Inactive)
    1  A    between atoms: C_1  and  C_10
    2  A    between atoms: C_10  and  C_19
    3  A    between atoms: C_19  and  C_24
                            x       y       z     vdW  Elec       q    Type
                         _______ _______ _______ _____ _____    ______ ____

>  <TORSDO>
F 3

$$$$
=
 OpenBabel11052421263D

 32 37  0  0  1  0  0  0  0  0999 V2000
  186.1100  177.9870  141.5020 C   0  0  0  0  0  3  0  0  0  0  0  0
  189.2590  174.2510  143.0710 C   0  0  2  0  0  3  0  0  0  0  0  0
  190.9450  172.2550  138.7550 C   0  0  0  0  0  2  0  0  0  0  0  0
  192.2740  171.9070  139.4090 C   0  0  0  0  0  2  0  0  0  0  0  0
  191.1240  174.0610  144.9180 C   0  0  0  0  0  0  0  0  0  0  0  0
  190.7440  174.7620  146.0710 C   0  0  0  0  0  0  0  0  0  0  0  0
  187.8720  176.3640  142.9560 C   0  0  0  0  0  0  0  0  0  0  0  0
  188.3140  174.9720  140.8860 C   0  0  0  0  0  2  0  0  0  0  0  0
  193.4110  174.0570  145.6640 C   0  0  0  0  0  0  0  0  0  0  0  0
  186.7780  176.9380  140.8650 C   0  0  0  0  0  3  0  0  0  0  0  0
  190.3540  173.4870  139.4290 C   0  0  0  0  0  2  0  0  0  0  0  0
  189.5890  174.4950  141.5940 C   0  0  2  0  0  3  0  0  0  0  0  0
  190.1170  173.2300  140.9250 C   0  0  2  0  0  3  0  0  0  0  0  0
  191.2890  172.5240  143.0720 C   0  0  1  0  0  3  0  0  0  0  0  0
  193.0510  174.8160  146.7370 N   0  0  0  0  0  0  0  0  0  0  0  0
  187.6720  176.1350  141.5800 C   0  0  0  0  0  0  0  0  0  0  0  0
  191.7490  175.1610  146.9650 C   0  0  0  0  0  3  0  0  0  0  0  0
  187.2080  177.4210  143.5850 C   0  0  0  0  0  3  0  0  0  0  0  0
  186.3220  178.2290  142.8640 C   0  0  0  0  0  0  0  0  0  0  0  0
  192.0610  171.6310  140.8930 C   0  0  0  0  0  2  0  0  0  0  0  0
  191.4390  172.8460  141.5870 C   0  0  1  0  0  3  0  0  0  0  0  0
  192.5870  172.7320  143.7100 N   0  0  0  0  0  2  0  0  0  0  0  0
  188.8700  175.5700  143.7450 C   0  0  0  0  0  2  0  0  0  0  0  0
  189.4440  174.9960  146.3730 F   0  0  0  0  0  0  0  0  0  0  0  0
  194.8290  173.6390  145.4900 C   0  0  0  0  0  1  0  0  0  0  0  0
  190.2680  173.3860  143.8840 C   0  0  2  0  0  3  0  0  0  0  0  0
  192.4230  173.6620  144.7600 C   0  0  0  0  0  0  0  0  0  0  0  0
  185.6290  179.3640  143.5390 C   0  0  0  0  0  2  0  0  0  0  0  0
  185.7970  179.2910  145.0520 C   0  0  0  0  0  2  0  0  0  0  0  0
  184.6390  178.5980  145.6960 C   0  0  0  0  0  0  0  0  0  0  0  0
  183.5110  179.0480  145.5790 O   0  0  0  0  0  0  0  0  0  0  0  0
  184.8650  177.3640  146.4990 C   0  0  0  0  0  1  0  0  0  0  0  0
  1 19  1  0  0  0  0
  2 23  1  1  0  0  0
  2 26  1  0  0  0  0
  3  4  1  0  0  0  0
  3 11  1  0  0  0  0
  4 20  1  0  0  0  0
  5  6  1  0  0  0  0
  6 24  1  0  0  0  0
  6 17  2  0  0  0  0
  7 18  1  0  0  0  0
  7 23  1  0  0  0  0
  8 16  1  0  0  0  0
  9 15  2  0  0  0  0
 10  1  2  0  0  0  0
 10 16  1  0  0  0  0
 12  8  1  6  0  0  0
 12  2  1  0  0  0  0
 13 11  1  6  0  0  0
 13 21  1  0  0  0  0
 13 12  1  0  0  0  0
 14 22  1  1  0  0  0
 14 26  1  0  0  0  0
 15 17  1  0  0  0  0
 16  7  2  0  0  0  0
 19 28  1  0  0  0  0
 19 18  2  0  0  0  0
 21 20  1  6  0  0  0
 21 14  1  0  0  0  0
 22 27  1  0  0  0  0
 25  9  1  0  0  0  0
 26  5  1  1  0  0  0
 27  5  2  0  0  0  0
 27  9  1  0  0  0  0
 28 29  1  0  0  0  0
 29 30  1  0  0  0  0
 30 32  1  0  0  0  0
 31 30  2  0  0  0  0
M  END
>  <MODEL>
7

>  <REMARK>
 VINA RESULT:      -8.2      2.113      4.882
  Name = 
  3 active torsions:
  status: ('A' for Active; 'I' for Inactive)
    1  A    between atoms: C_1  and  C_10
    2  A    between atoms: C_10  and  C_19
    3  A    between atoms: C_19  and  C_24
                            x       y       z     vdW  Elec       q    Type
                         _______ _______ _______ _____ _____    ______ ____

>  <TORSDO>
F 3

$$$$
=
 OpenBabel11052421263D

 32 37  0  0  1  0  0  0  0  0999 V2000
  189.1690  172.3070  139.0400 C   0  0  0  0  0  3  0  0  0  0  0  0
  189.8780  176.0490  142.4790 C   0  0  2  0  0  3  0  0  0  0  0  0
  185.1840  177.5530  143.5530 C   0  0  0  0  0  2  0  0  0  0  0  0
  185.5990  177.9090  144.9730 C   0  0  0  0  0  2  0  0  0  0  0  0
  191.4050  176.3400  144.6020 C   0  0  0  0  0  0  0  0  0  0  0  0
  192.6650  175.7680  144.3810 C   0  0  0  0  0  0  0  0  0  0  0  0
  190.1790  173.9900  141.0390 C   0  0  0  0  0  0  0  0  0  0  0  0
  187.9380  175.1590  141.2010 C   0  0  0  0  0  2  0  0  0  0  0  0
  191.8050  176.3250  146.9750 C   0  0  0  0  0  0  0  0  0  0  0  0
  188.3390  173.2620  139.6320 C   0  0  0  0  0  3  0  0  0  0  0  0
  186.0580  176.4160  143.0380 C   0  0  0  0  0  2  0  0  0  0  0  0
  188.4010  175.6510  142.5790 C   0  0  2  0  0  3  0  0  0  0  0  0
  187.5380  176.8240  143.0330 C   0  0  2  0  0  3  0  0  0  0  0  0
  189.4100  177.6860  144.5290 C   0  0  1  0  0  3  0  0  0  0  0  0
  192.9910  175.6880  146.7590 N   0  0  0  0  0  0  0  0  0  0  0  0
  188.8320  174.0940  140.6410 C   0  0  0  0  0  0  0  0  0  0  0  0
  193.4400  175.4180  145.4980 C   0  0  0  0  0  3  0  0  0  0  0  0
  191.0010  173.0250  140.4490 C   0  0  0  0  0  3  0  0  0  0  0  0
  190.5020  172.1880  139.4460 C   0  0  0  0  0  0  0  0  0  0  0  0
  187.0630  178.3340  144.9900 C   0  0  0  0  0  2  0  0  0  0  0  0
  187.9590  177.2180  144.4480 C   0  0  1  0  0  3  0  0  0  0  0  0
  189.8690  177.4890  145.9020 N   0  0  0  0  0  2  0  0  0  0  0  0
  190.7310  174.8160  142.1620 C   0  0  0  0  0  2  0  0  0  0  0  0
  193.1760  175.6160  143.1350 F   0  0  0  0  0  0  0  0  0  0  0  0
  191.3860  176.6690  148.3610 C   0  0  0  0  0  1  0  0  0  0  0  0
  190.4440  176.9460  143.6190 C   0  0  2  0  0  3  0  0  0  0  0  0
  191.0210  176.6710  145.8730 C   0  0  0  0  0  0  0  0  0  0  0  0
  191.3820  171.1510  138.8330 C   0  0  0  0  0  2  0  0  0  0  0  0
  192.0050  170.2570  139.8990 C   0  0  0  0  0  2  0  0  0  0  0  0
  191.0250  169.2450  140.4010 C   0  0  0  0  0  0  0  0  0  0  0  0
  190.6450  169.2790  141.5600 O   0  0  0  0  0  0  0  0  0  0  0  0
  190.5260  168.1790  139.4880 C   0  0  0  0  0  1  0  0  0  0  0  0
  1 19  2  0  0  0  0
  1 10  1  0  0  0  0
  2 23  1  1  0  0  0
  2 12  1  0  0  0  0
  2 26  1  0  0  0  0
  3  4  1  0  0  0  0
  4 20  1  0  0  0  0
  5 27  1  0  0  0  0
  6  5  2  0  0  0  0
  6 17  1  0  0  0  0
  7 23  1  0  0  0  0
  9 25  1  0  0  0  0
 10 16  2  0  0  0  0
 11  3  1  0  0  0  0
 12  8  1  6  0  0  0
 12 13  1  0  0  0  0
 13 11  1  1  0  0  0
 13 21  1  0  0  0  0
 14 22  1  1  0  0  0
 15  9  1  0  0  0  0
 16  7  1  0  0  0  0
 16  8  1  0  0  0  0
 17 15  2  0  0  0  0
 18  7  2  0  0  0  0
 19 18  1  0  0  0  0
 21 14  1  0  0  0  0
 21 20  1  6  0  0  0
 24  6  1  0  0  0  0
 26 14  1  0  0  0  0
 26  5  1  1  0  0  0
 27 22  1  0  0  0  0
 27  9  2  0  0  0  0
 28 19  1  0  0  0  0
 28 29  1  0  0  0  0
 29 30  1  0  0  0  0
 30 31  2  0  0  0  0
 32 30  1  0  0  0  0
M  END
>  <MODEL>
8

>  <REMARK>
 VINA RESULT:      -7.7      3.125      7.976
  Name = 
  3 active torsions:
  status: ('A' for Active; 'I' for Inactive)
    1  A    between atoms: C_1  and  C_10
    2  A    between atoms: C_10  and  C_19
    3  A    between atoms: C_19  and  C_24
                            x       y       z     vdW  Elec       q    Type
                         _______ _______ _______ _____ _____    ______ ____

>  <TORSDO>
F 3

$$$$
=
 OpenBabel11052421263D

 32 37  0  0  1  0  0  0  0  0999 V2000
  180.2760  178.9190  141.9370 C   0  0  0  0  0  3  0  0  0  0  0  0
  185.3680  178.4160  142.3210 C   0  0  2  0  0  3  0  0  0  0  0  0
  186.1880  178.5880  147.2960 C   0  0  0  0  0  2  0  0  0  0  0  0
  187.3850  177.6600  147.1540 C   0  0  0  0  0  2  0  0  0  0  0  0
  187.1610  176.8600  141.1860 C   0  0  0  0  0  0  0  0  0  0  0  0
  186.8500  176.6590  139.8340 C   0  0  0  0  0  0  0  0  0  0  0  0
  182.9770  178.3150  141.5000 C   0  0  0  0  0  0  0  0  0  0  0  0
  183.5160  178.9480  143.8940 C   0  0  0  0  0  2  0  0  0  0  0  0
  188.6230  174.9490  141.1410 C   0  0  0  0  0  0  0  0  0  0  0  0
  181.1960  179.0450  142.9810 C   0  0  0  0  0  3  0  0  0  0  0  0
  185.1800  178.2900  146.1930 C   0  0  0  0  0  2  0  0  0  0  0  0
  184.8050  178.1340  143.7190 C   0  0  2  0  0  3  0  0  0  0  0  0
  185.8080  178.5020  144.8070 C   0  0  2  0  0  3  0  0  0  0  0  0
  187.7520  177.7810  143.3300 C   0  0  1  0  0  3  0  0  0  0  0  0
  188.2470  174.7060  139.8530 N   0  0  0  0  0  0  0  0  0  0  0  0
  182.5420  178.7290  142.7750 C   0  0  0  0  0  0  0  0  0  0  0  0
  187.3920  175.5380  139.1880 C   0  0  0  0  0  3  0  0  0  0  0  0
  182.0490  178.1810  140.4630 C   0  0  0  0  0  3  0  0  0  0  0  0
  180.7020  178.4890  140.6760 C   0  0  0  0  0  0  0  0  0  0  0  0
  188.0360  177.8650  145.7910 C   0  0  0  0  0  2  0  0  0  0  0  0
  187.0330  177.6010  144.6650 C   0  0  1  0  0  3  0  0  0  0  0  0
  188.4990  176.5560  143.0530 N   0  0  0  0  0  2  0  0  0  0  0  0
  184.3980  177.9040  141.2530 C   0  0  0  0  0  2  0  0  0  0  0  0
  186.1080  177.5470  139.1280 F   0  0  0  0  0  0  0  0  0  0  0  0
  189.6150  174.0630  141.8070 C   0  0  0  0  0  1  0  0  0  0  0  0
  186.8580  178.0340  142.0720 C   0  0  2  0  0  3  0  0  0  0  0  0
  188.0840  176.0560  141.7980 C   0  0  0  0  0  0  0  0  0  0  0  0
  179.7160  178.3300  139.5670 C   0  0  0  0  0  2  0  0  0  0  0  0
  178.5280  177.4810  140.0040 C   0  0  0  0  0  2  0  0  0  0  0  0
  178.0320  176.6210  138.8860 C   0  0  0  0  0  0  0  0  0  0  0  0
  177.6960  175.4680  139.0980 O   0  0  0  0  0  0  0  0  0  0  0  0
  177.9650  177.1700  137.5030 C   0  0  0  0  0  1  0  0  0  0  0  0
  1 10  1  0  0  0  0
  2 23  1  6  0  0  0
  2 12  1  0  0  0  0
  4  3  1  0  0  0  0
  5 27  1  0  0  0  0
  6  5  2  0  0  0  0
  7 16  1  0  0  0  0
  9 27  2  0  0  0  0
  9 25  1  0  0  0  0
 11  3  1  0  0  0  0
 12  8  1  1  0  0  0
 12 13  1  0  0  0  0
 13 11  1  1  0  0  0
 14 22  1  6  0  0  0
 14 21  1  0  0  0  0
 15  9  1  0  0  0  0
 16 10  2  0  0  0  0
 16  8  1  0  0  0  0
 17  6  1  0  0  0  0
 17 15  2  0  0  0  0
 18 19  1  0  0  0  0
 18  7  2  0  0  0  0
 19  1  2  0  0  0  0
 20  4  1  0  0  0  0
 21 13  1  0  0  0  0
 21 20  1  1  0  0  0
 23  7  1  0  0  0  0
 24  6  1  0  0  0  0
 26  5  1  6  0  0  0
 26  2  1  0  0  0  0
 26 14  1  0  0  0  0
 27 22  1  0  0  0  0
 28 29  1  0  0  0  0
 28 19  1  0  0  0  0
 30 31  2  0  0  0  0
 30 29  1  0  0  0  0
 32 30  1  0  0  0  0
M  END
>  <MODEL>
9

>  <REMARK>
 VINA RESULT:      -7.6      4.216      6.680
  Name = 
  3 active torsions:
  status: ('A' for Active; 'I' for Inactive)
    1  A    between atoms: C_1  and  C_10
    2  A    between atoms: C_10  and  C_19
    3  A    between atoms: C_19  and  C_24
                            x       y       z     vdW  Elec       q    Type
                         _______ _______ _______ _____ _____    ______ ____

>  <TORSDO>
F 3

$$$$
