=
 OpenBabel11052417293D

 25 29  0  0  1  0  0  0  0  0999 V2000
  188.6070  176.5230  145.5840 C   0  0  1  0  0  3  0  0  0  0  0  0
  190.9780  176.5980  145.2780 C   0  0  1  0  0  0  0  0  0  0  0  0
  189.9610  174.4070  146.0420 C   0  0  2  0  0  3  0  0  0  0  0  0
  190.5530  177.5780  144.2690 C   0  0  0  0  0  2  0  0  0  0  0  0
  191.0770  176.1680  147.5880 C   0  0  0  0  0  0  0  0  0  0  0  0
  191.4830  176.4520  148.7440 O   0  0  0  0  0  0  0  0  0  0  0  0
  190.8260  175.0750  144.9560 C   0  0  1  0  0  0  0  0  0  0  0  0
  188.7680  175.2570  146.4660 C   0  0  1  0  0  3  0  0  0  0  0  0
  191.6590  176.8080  146.4830 O   0  0  0  0  0  0  0  0  0  0  0  0
  189.9880  175.0890  147.4270 C   0  0  1  0  0  3  0  0  0  0  0  0
  189.7480  177.4230  145.4870 N   0  0  1  0  0  0  0  0  0  0  0  0
  190.2130  174.7780  143.5870 C   0  0  0  0  0  1  0  0  0  0  0  0
  193.2270  174.7320  144.1110 C   0  0  0  0  0  0  0  0  0  0  0  0
  193.0950  175.5780  143.1870 O   0  0  0  0  0  0  0  0  0  0  0  0
  194.5230  174.0250  144.2790 C   0  0  0  0  0  1  0  0  0  0  0  0
  192.1450  174.4430  145.0040 N   0  0  0  0  0  2  0  0  0  0  0  0
  187.5560  176.5790  144.5080 C   0  0  0  0  0  0  0  0  0  0  0  0
  187.6190  175.7750  143.5410 O   0  0  0  0  0  0  0  0  0  0  0  0
  186.4570  177.5720  144.5840 C   0  0  0  0  0  0  0  0  0  0  0  0
  184.3970  179.4870  144.6800 C   0  0  0  0  0  3  0  0  0  0  0  0
  185.3940  177.4370  145.5050 C   0  0  0  0  0  0  0  0  0  0  0  0
  184.3740  178.3930  145.5470 C   0  0  0  0  0  3  0  0  0  0  0  0
  185.4420  179.6300  143.7660 C   0  0  0  0  0  3  0  0  0  0  0  0
  185.3350  176.3900  146.3660 F   0  0  0  0  0  0  0  0  0  0  0  0
  186.4630  178.6780  143.7200 C   0  0  0  0  0  3  0  0  0  0  0  0
  1 17  1  6  0  0  0
  1  8  1  0  0  0  0
  2  4  1  6  0  0  0
  2 11  1  0  0  0  0
  2  9  1  0  0  0  0
  3  8  1  0  0  0  0
  3 10  1  0  0  0  0
  4 11  1  0  0  0  0
  5  6  2  0  0  0  0
  7 16  1  0  0  0  0
  7  2  1  0  0  0  0
  7  3  1  0  0  0  0
  8 10  1  0  0  0  0
  9  5  1  0  0  0  0
 10  5  1  0  0  0  0
 11  1  1  0  0  0  0
 12  7  1  0  0  0  0
 13 15  1  0  0  0  0
 13 16  1  0  0  0  0
 14 13  2  0  0  0  0
 17 19  1  0  0  0  0
 18 17  2  0  0  0  0
 19 21  1  0  0  0  0
 20 22  1  0  0  0  0
 21 22  2  0  0  0  0
 21 24  1  0  0  0  0
 23 20  2  0  0  0  0
 25 23  1  0  0  0  0
 25 19  2  0  0  0  0
M  END
>  <MODEL>
1

>  <REMARK>
 VINA RESULT:      -7.6      0.000      0.000
  Name = 
  3 active torsions:
  status: ('A' for Active; 'I' for Inactive)
    1  A    between atoms: C_1  and  C_3
    2  A    between atoms: C_1  and  C_5
    3  A    between atoms: C_15  and  N_21
                            x       y       z     vdW  Elec       q    Type
                         _______ _______ _______ _____ _____    ______ ____

>  <TORSDO>
F 3

$$$$
=
 OpenBabel11052417293D

 25 29  0  0  1  0  0  0  0  0999 V2000
  188.5160  176.5380  145.7310 C   0  0  1  0  0  3  0  0  0  0  0  0
  190.8610  176.7150  145.2930 C   0  0  1  0  0  0  0  0  0  0  0  0
  189.9600  174.4430  145.9600 C   0  0  2  0  0  3  0  0  0  0  0  0
  190.3460  177.7460  144.3820 C   0  0  0  0  0  2  0  0  0  0  0  0
  191.1130  176.1330  147.5580 C   0  0  0  0  0  0  0  0  0  0  0  0
  191.5800  176.3520  148.7050 O   0  0  0  0  0  0  0  0  0  0  0  0
  190.7360  175.2130  144.8750 C   0  0  1  0  0  0  0  0  0  0  0  0
  188.7700  175.2210  146.5110 C   0  0  1  0  0  3  0  0  0  0  0  0
  191.6080  176.8660  146.4680 O   0  0  0  0  0  0  0  0  0  0  0  0
  190.0500  175.0310  147.3850 C   0  0  1  0  0  3  0  0  0  0  0  0
  189.6220  177.4810  145.6310 N   0  0  1  0  0  0  0  0  0  0  0  0
  190.0510  174.9890  143.5270 C   0  0  0  0  0  1  0  0  0  0  0  0
  193.0890  175.0070  143.8640 C   0  0  0  0  0  0  0  0  0  0  0  0
  192.8720  175.9030  143.0050 O   0  0  0  0  0  0  0  0  0  0  0  0
  194.4130  174.3360  143.9060 C   0  0  0  0  0  1  0  0  0  0  0  0
  192.0750  174.6250  144.8010 N   0  0  0  0  0  2  0  0  0  0  0  0
  187.4010  176.6300  144.7250 C   0  0  0  0  0  0  0  0  0  0  0  0
  187.4960  176.0020  143.6380 O   0  0  0  0  0  0  0  0  0  0  0  0
  186.2010  177.4540  145.0100 C   0  0  0  0  0  0  0  0  0  0  0  0
  183.9130  178.9820  145.6030 C   0  0  0  0  0  3  0  0  0  0  0  0
  185.8520  178.5640  144.2090 C   0  0  0  0  0  0  0  0  0  0  0  0
  184.7130  179.3180  144.5090 C   0  0  0  0  0  3  0  0  0  0  0  0
  184.2490  177.8880  146.4010 C   0  0  0  0  0  3  0  0  0  0  0  0
  186.6010  178.9230  143.1350 F   0  0  0  0  0  0  0  0  0  0  0  0
  185.3850  177.1310  146.1060 C   0  0  0  0  0  3  0  0  0  0  0  0
  1 17  1  6  0  0  0
  1  8  1  0  0  0  0
  2  4  1  6  0  0  0
  2 11  1  0  0  0  0
  2  9  1  0  0  0  0
  3  8  1  0  0  0  0
  3 10  1  0  0  0  0
  4 11  1  0  0  0  0
  5  6  2  0  0  0  0
  7  2  1  0  0  0  0
  7  3  1  0  0  0  0
  8 10  1  0  0  0  0
  9  5  1  0  0  0  0
 10  5  1  0  0  0  0
 11  1  1  0  0  0  0
 12  7  1  0  0  0  0
 13 15  1  0  0  0  0
 13 16  1  0  0  0  0
 14 13  2  0  0  0  0
 16  7  1  0  0  0  0
 17 19  1  0  0  0  0
 18 17  2  0  0  0  0
 19 25  1  0  0  0  0
 20 23  1  0  0  0  0
 21 22  1  0  0  0  0
 21 19  2  0  0  0  0
 22 20  2  0  0  0  0
 24 21  1  0  0  0  0
 25 23  2  0  0  0  0
M  END
>  <MODEL>
2

>  <REMARK>
 VINA RESULT:      -7.6      0.956      1.372
  Name = 
  3 active torsions:
  status: ('A' for Active; 'I' for Inactive)
    1  A    between atoms: C_1  and  C_3
    2  A    between atoms: C_1  and  C_5
    3  A    between atoms: C_15  and  N_21
                            x       y       z     vdW  Elec       q    Type
                         _______ _______ _______ _____ _____    ______ ____

>  <TORSDO>
F 3

$$$$
=
 OpenBabel11052417293D

 25 29  0  0  1  0  0  0  0  0999 V2000
  189.1740  176.6840  145.0300 C   0  0  1  0  0  3  0  0  0  0  0  0
  190.5530  174.7420  145.2470 C   0  0  1  0  0  0  0  0  0  0  0  0
  191.7010  176.9500  144.7720 C   0  0  2  0  0  3  0  0  0  0  0  0
  189.4520  174.3830  146.1500 C   0  0  0  0  0  2  0  0  0  0  0  0
  191.1120  175.1480  142.9980 C   0  0  0  0  0  0  0  0  0  0  0  0
  191.2200  174.7670  141.8050 O   0  0  0  0  0  0  0  0  0  0  0  0
  191.6330  175.7590  145.7460 C   0  0  1  0  0  0  0  0  0  0  0  0
  190.3280  177.4130  144.2930 C   0  0  1  0  0  3  0  0  0  0  0  0
  190.8920  174.1940  144.0040 O   0  0  0  0  0  0  0  0  0  0  0  0
  191.2780  176.6470  143.3180 C   0  0  1  0  0  3  0  0  0  0  0  0
  189.1630  175.2290  144.9860 N   0  0  1  0  0  0  0  0  0  0  0  0
  191.3930  176.2900  147.1580 C   0  0  0  0  0  1  0  0  0  0  0  0
  194.1770  175.7360  146.0980 C   0  0  0  0  0  0  0  0  0  0  0  0
  194.2040  176.9400  146.4700 O   0  0  0  0  0  0  0  0  0  0  0  0
  195.4400  174.9560  146.0440 C   0  0  0  0  0  1  0  0  0  0  0  0
  192.9440  175.1090  145.7260 N   0  0  0  0  0  2  0  0  0  0  0  0
  188.4080  177.3740  146.1270 C   0  0  0  0  0  0  0  0  0  0  0  0
  188.9880  177.6390  147.2130 O   0  0  0  0  0  0  0  0  0  0  0  0
  186.9830  177.7380  145.9320 C   0  0  0  0  0  0  0  0  0  0  0  0
  184.2960  178.4600  145.5080 C   0  0  0  0  0  3  0  0  0  0  0  0
  185.9720  177.2870  146.8090 C   0  0  0  0  0  0  0  0  0  0  0  0
  184.6400  177.6500  146.5920 C   0  0  0  0  0  3  0  0  0  0  0  0
  185.2870  178.9110  144.6350 C   0  0  0  0  0  3  0  0  0  0  0  0
  186.2630  176.5000  147.8760 F   0  0  0  0  0  0  0  0  0  0  0  0
  186.6200  178.5520  144.8460 C   0  0  0  0  0  3  0  0  0  0  0  0
  1 17  1  1  0  0  0
  2  7  1  0  0  0  0
  2  4  1  1  0  0  0
  3  7  1  0  0  0  0
  5 10  1  0  0  0  0
  5  9  1  0  0  0  0
  6  5  2  0  0  0  0
  7 12  1  0  0  0  0
  8  3  1  0  0  0  0
  8  1  1  0  0  0  0
  9  2  1  0  0  0  0
 10  8  1  0  0  0  0
 10  3  1  0  0  0  0
 11  1  1  0  0  0  0
 11  2  1  0  0  0  0
 11  4  1  0  0  0  0
 13 14  2  0  0  0  0
 15 13  1  0  0  0  0
 16  7  1  0  0  0  0
 16 13  1  0  0  0  0
 17 18  2  0  0  0  0
 19 17  1  0  0  0  0
 19 21  1  0  0  0  0
 20 22  1  0  0  0  0
 21 24  1  0  0  0  0
 22 21  2  0  0  0  0
 23 25  1  0  0  0  0
 23 20  2  0  0  0  0
 25 19  2  0  0  0  0
M  END
>  <MODEL>
3

>  <REMARK>
 VINA RESULT:      -7.5      1.719      3.071
  Name = 
  3 active torsions:
  status: ('A' for Active; 'I' for Inactive)
    1  A    between atoms: C_1  and  C_3
    2  A    between atoms: C_1  and  C_5
    3  A    between atoms: C_15  and  N_21
                            x       y       z     vdW  Elec       q    Type
                         _______ _______ _______ _____ _____    ______ ____

>  <TORSDO>
F 3

$$$$
=
 OpenBabel11052417293D

 25 29  0  0  1  0  0  0  0  0999 V2000
  189.0870  177.4590  144.9500 C   0  0  1  0  0  3  0  0  0  0  0  0
  191.0050  176.4160  143.9720 C   0  0  1  0  0  0  0  0  0  0  0  0
  189.6430  175.0580  145.6210 C   0  0  2  0  0  3  0  0  0  0  0  0
  190.6100  177.3140  142.8790 C   0  0  0  0  0  2  0  0  0  0  0  0
  191.8270  176.3480  146.1750 C   0  0  0  0  0  0  0  0  0  0  0  0
  192.7220  176.5930  147.0240 O   0  0  0  0  0  0  0  0  0  0  0  0
  190.1970  175.0930  144.1850 C   0  0  1  0  0  0  0  0  0  0  0  0
  189.1050  176.4070  146.0890 C   0  0  1  0  0  3  0  0  0  0  0  0
  192.1250  176.4800  144.8100 O   0  0  0  0  0  0  0  0  0  0  0  0
  190.4500  175.8600  146.6660 C   0  0  1  0  0  3  0  0  0  0  0  0
  190.3430  177.7250  144.2630 N   0  0  1  0  0  0  0  0  0  0  0  0
  189.0400  174.8960  143.2060 C   0  0  0  0  0  1  0  0  0  0  0  0
  190.7910  172.6040  144.4090 C   0  0  0  0  0  0  0  0  0  0  0  0
  189.6690  172.3110  144.9030 O   0  0  0  0  0  0  0  0  0  0  0  0
  191.8020  171.5360  144.2010 C   0  0  0  0  0  1  0  0  0  0  0  0
  191.1040  173.9530  144.0440 N   0  0  0  0  0  2  0  0  0  0  0  0
  187.8000  177.8140  144.2540 C   0  0  0  0  0  0  0  0  0  0  0  0
  187.8080  178.0310  143.0140 O   0  0  0  0  0  0  0  0  0  0  0  0
  186.5340  177.9070  145.0210 C   0  0  0  0  0  0  0  0  0  0  0  0
  184.1440  178.0270  146.5020 C   0  0  0  0  0  3  0  0  0  0  0  0
  185.7140  179.0560  144.9670 C   0  0  0  0  0  0  0  0  0  0  0  0
  184.5270  179.1080  145.7060 C   0  0  0  0  0  3  0  0  0  0  0  0
  184.9480  176.8880  146.5630 C   0  0  0  0  0  3  0  0  0  0  0  0
  186.0470  180.1260  144.2040 F   0  0  0  0  0  0  0  0  0  0  0  0
  186.1340  176.8300  145.8280 C   0  0  0  0  0  3  0  0  0  0  0  0
  1 17  1  6  0  0  0
  1  8  1  0  0  0  0
  2  4  1  6  0  0  0
  2  7  1  0  0  0  0
  2 11  1  0  0  0  0
  2  9  1  0  0  0  0
  3  8  1  0  0  0  0
  3 10  1  0  0  0  0
  4 11  1  0  0  0  0
  5 10  1  0  0  0  0
  5  6  2  0  0  0  0
  7  3  1  0  0  0  0
  8 10  1  0  0  0  0
  9  5  1  0  0  0  0
 11  1  1  0  0  0  0
 12  7  1  0  0  0  0
 13 14  2  0  0  0  0
 15 13  1  0  0  0  0
 16  7  1  0  0  0  0
 16 13  1  0  0  0  0
 17 19  1  0  0  0  0
 18 17  2  0  0  0  0
 19 25  1  0  0  0  0
 20 23  1  0  0  0  0
 21 19  2  0  0  0  0
 21 22  1  0  0  0  0
 22 20  2  0  0  0  0
 24 21  1  0  0  0  0
 25 23  2  0  0  0  0
M  END
>  <MODEL>
4

>  <REMARK>
 VINA RESULT:      -7.4      1.884      2.320
  Name = 
  3 active torsions:
  status: ('A' for Active; 'I' for Inactive)
    1  A    between atoms: C_1  and  C_3
    2  A    between atoms: C_1  and  C_5
    3  A    between atoms: C_15  and  N_21
                            x       y       z     vdW  Elec       q    Type
                         _______ _______ _______ _____ _____    ______ ____

>  <TORSDO>
F 3

$$$$
=
 OpenBabel11052417293D

 25 29  0  0  1  0  0  0  0  0999 V2000
  189.1760  175.7850  145.9750 C   0  0  1  0  0  3  0  0  0  0  0  0
  191.4820  175.2670  145.6060 C   0  0  1  0  0  0  0  0  0  0  0  0
  189.9990  175.5400  143.5700 C   0  0  2  0  0  3  0  0  0  0  0  0
  191.5830  176.0330  146.8550 C   0  0  0  0  0  2  0  0  0  0  0  0
  190.6630  173.2770  144.6550 C   0  0  0  0  0  0  0  0  0  0  0  0
  190.6430  172.0220  144.5770 O   0  0  0  0  0  0  0  0  0  0  0  0
  191.2780  176.0450  144.2640 C   0  0  1  0  0  0  0  0  0  0  0  0
  188.8450  175.3020  144.5390 C   0  0  1  0  0  3  0  0  0  0  0  0
  191.6870  173.9000  145.3870 O   0  0  0  0  0  0  0  0  0  0  0  0
  189.5920  174.0880  143.9010 C   0  0  1  0  0  3  0  0  0  0  0  0
  190.3710  175.2430  146.6070 N   0  0  1  0  0  0  0  0  0  0  0  0
  191.1860  177.5620  144.4210 C   0  0  0  0  0  1  0  0  0  0  0  0
  193.7660  176.0930  143.6270 C   0  0  0  0  0  0  0  0  0  0  0  0
  194.0940  176.6970  144.6830 O   0  0  0  0  0  0  0  0  0  0  0  0
  194.8110  175.7270  142.6370 C   0  0  0  0  0  1  0  0  0  0  0  0
  192.3990  175.7540  143.3680 N   0  0  0  0  0  2  0  0  0  0  0  0
  188.6150  177.0800  146.4970 C   0  0  0  0  0  0  0  0  0  0  0  0
  189.3170  177.7950  147.2610 O   0  0  0  0  0  0  0  0  0  0  0  0
  187.2480  177.5130  146.1170 C   0  0  0  0  0  0  0  0  0  0  0  0
  184.6780  178.3600  145.3420 C   0  0  0  0  0  3  0  0  0  0  0  0
  186.1150  177.1620  146.8850 C   0  0  0  0  0  0  0  0  0  0  0  0
  184.8420  177.5880  146.4940 C   0  0  0  0  0  3  0  0  0  0  0  0
  185.7910  178.7110  144.5760 C   0  0  0  0  0  3  0  0  0  0  0  0
  186.2300  176.4160  148.0120 F   0  0  0  0  0  0  0  0  0  0  0  0
  187.0650  178.2890  144.9620 C   0  0  0  0  0  3  0  0  0  0  0  0
  1 17  1  6  0  0  0
  1 11  1  0  0  0  0
  2 11  1  0  0  0  0
  2  4  1  1  0  0  0
  3 10  1  0  0  0  0
  3  7  1  0  0  0  0
  3  8  1  0  0  0  0
  5  9  1  0  0  0  0
  6  5  2  0  0  0  0
  7 12  1  0  0  0  0
  7  2  1  0  0  0  0
  8  1  1  0  0  0  0
  9  2  1  0  0  0  0
 10  8  1  0  0  0  0
 10  5  1  0  0  0  0
 11  4  1  0  0  0  0
 13 14  2  0  0  0  0
 15 13  1  0  0  0  0
 16 13  1  0  0  0  0
 16  7  1  0  0  0  0
 17 18  2  0  0  0  0
 19 17  1  0  0  0  0
 19 21  1  0  0  0  0
 20 22  1  0  0  0  0
 21 24  1  0  0  0  0
 22 21  2  0  0  0  0
 23 25  1  0  0  0  0
 23 20  2  0  0  0  0
 25 19  2  0  0  0  0
M  END
>  <MODEL>
5

>  <REMARK>
 VINA RESULT:      -7.3      1.857      2.678
  Name = 
  3 active torsions:
  status: ('A' for Active; 'I' for Inactive)
    1  A    between atoms: C_1  and  C_3
    2  A    between atoms: C_1  and  C_5
    3  A    between atoms: C_15  and  N_21
                            x       y       z     vdW  Elec       q    Type
                         _______ _______ _______ _____ _____    ______ ____

>  <TORSDO>
F 3

$$$$
=
 OpenBabel11052417293D

 25 29  0  0  1  0  0  0  0  0999 V2000
  189.1180  175.7690  142.4930 C   0  0  1  0  0  3  0  0  0  0  0  0
  190.4900  175.2890  144.3920 C   0  0  1  0  0  0  0  0  0  0  0  0
  189.8440  177.7050  143.9920 C   0  0  2  0  0  3  0  0  0  0  0  0
  189.7220  174.0400  144.3020 C   0  0  0  0  0  2  0  0  0  0  0  0
  192.0970  176.6160  143.3020 C   0  0  0  0  0  0  0  0  0  0  0  0
  193.2550  176.7860  142.8410 O   0  0  0  0  0  0  0  0  0  0  0  0
  189.8020  176.5500  145.0100 C   0  0  1  0  0  0  0  0  0  0  0  0
  189.5540  177.2560  142.5640 C   0  0  1  0  0  3  0  0  0  0  0  0
  191.8470  175.5130  144.1330 O   0  0  0  0  0  0  0  0  0  0  0  0
  191.0060  177.6560  142.9770 C   0  0  1  0  0  3  0  0  0  0  0  0
  190.0170  174.7780  143.0690 N   0  0  1  0  0  0  0  0  0  0  0  0
  188.3530  176.3300  145.4450 C   0  0  0  0  0  1  0  0  0  0  0  0
  190.6990  176.2290  147.3960 C   0  0  0  0  0  0  0  0  0  0  0  0
  190.1400  175.1080  147.5270 O   0  0  0  0  0  0  0  0  0  0  0  0
  191.5130  176.7790  148.5100 C   0  0  0  0  0  1  0  0  0  0  0  0
  190.5620  176.9810  146.1850 N   0  0  0  0  0  2  0  0  0  0  0  0
  187.6700  175.4020  142.3100 C   0  0  0  0  0  0  0  0  0  0  0  0
  187.3410  174.1880  142.2670 O   0  0  0  0  0  0  0  0  0  0  0  0
  186.6390  176.4610  142.1820 C   0  0  0  0  0  0  0  0  0  0  0  0
  184.6670  178.4620  142.0020 C   0  0  0  0  0  3  0  0  0  0  0  0
  186.4510  177.1770  140.9790 C   0  0  0  0  0  0  0  0  0  0  0  0
  185.4690  178.1690  140.8960 C   0  0  0  0  0  3  0  0  0  0  0  0
  184.8450  177.7620  143.1960 C   0  0  0  0  0  3  0  0  0  0  0  0
  187.2060  176.9210  139.8810 F   0  0  0  0  0  0  0  0  0  0  0  0
  185.8240  176.7690  143.2840 C   0  0  0  0  0  3  0  0  0  0  0  0
  1 17  1  1  0  0  0
  1  8  1  0  0  0  0
  1 11  1  0  0  0  0
  2  4  1  1  0  0  0
  2  7  1  0  0  0  0
  3  7  1  0  0  0  0
  5  9  1  0  0  0  0
  6  5  2  0  0  0  0
  7 12  1  0  0  0  0
  7 16  1  0  0  0  0
  8 10  1  0  0  0  0
  8  3  1  0  0  0  0
  9  2  1  0  0  0  0
 10  5  1  0  0  0  0
 10  3  1  0  0  0  0
 11  4  1  0  0  0  0
 11  2  1  0  0  0  0
 13 14  2  0  0  0  0
 13 15  1  0  0  0  0
 16 13  1  0  0  0  0
 18 17  2  0  0  0  0
 19 17  1  0  0  0  0
 19 25  1  0  0  0  0
 20 23  1  0  0  0  0
 21 19  2  0  0  0  0
 22 21  1  0  0  0  0
 22 20  2  0  0  0  0
 23 25  2  0  0  0  0
 24 21  1  0  0  0  0
M  END
>  <MODEL>
6

>  <REMARK>
 VINA RESULT:      -7.3      2.301      3.979
  Name = 
  3 active torsions:
  status: ('A' for Active; 'I' for Inactive)
    1  A    between atoms: C_1  and  C_3
    2  A    between atoms: C_1  and  C_5
    3  A    between atoms: C_15  and  N_21
                            x       y       z     vdW  Elec       q    Type
                         _______ _______ _______ _____ _____    ______ ____

>  <TORSDO>
F 3

$$$$
=
 OpenBabel11052417293D

 25 29  0  0  1  0  0  0  0  0999 V2000
  188.5410  176.9650  143.5920 C   0  0  1  0  0  3  0  0  0  0  0  0
  190.2370  175.3200  143.2190 C   0  0  1  0  0  0  0  0  0  0  0  0
  190.4780  176.8140  145.2510 C   0  0  2  0  0  3  0  0  0  0  0  0
  189.0750  174.6350  142.6380 C   0  0  0  0  0  2  0  0  0  0  0  0
  191.6760  177.1650  142.9740 C   0  0  0  0  0  0  0  0  0  0  0  0
  192.5330  177.8130  142.3210 O   0  0  0  0  0  0  0  0  0  0  0  0
  190.3880  175.3520  144.7760 C   0  0  1  0  0  0  0  0  0  0  0  0
  189.5100  177.7410  144.5220 C   0  0  1  0  0  3  0  0  0  0  0  0
  191.3600  175.8560  142.5780 O   0  0  0  0  0  0  0  0  0  0  0  0
  191.0400  177.8160  144.2180 C   0  0  1  0  0  3  0  0  0  0  0  0
  189.1330  176.1000  142.5800 N   0  0  1  0  0  0  0  0  0  0  0  0
  189.2580  174.6570  145.5330 C   0  0  0  0  0  1  0  0  0  0  0  0
  191.9720  173.3310  144.8730 C   0  0  0  0  0  0  0  0  0  0  0  0
  191.1550  172.5770  144.2800 O   0  0  0  0  0  0  0  0  0  0  0  0
  193.2920  172.7970  145.2940 C   0  0  0  0  0  1  0  0  0  0  0  0
  191.6450  174.6990  145.1460 N   0  0  0  0  0  2  0  0  0  0  0  0
  187.1170  176.7140  144.0060 C   0  0  0  0  0  0  0  0  0  0  0  0
  186.3960  175.9530  143.3090 O   0  0  0  0  0  0  0  0  0  0  0  0
  186.5650  177.3580  145.2240 C   0  0  0  0  0  0  0  0  0  0  0  0
  185.5350  178.5260  147.5680 C   0  0  0  0  0  3  0  0  0  0  0  0
  186.0500  178.6730  145.2030 C   0  0  0  0  0  0  0  0  0  0  0  0
  185.5390  179.2460  146.3710 C   0  0  0  0  0  3  0  0  0  0  0  0
  186.0430  177.2270  147.6000 C   0  0  0  0  0  3  0  0  0  0  0  0
  186.0320  179.4060  144.0610 F   0  0  0  0  0  0  0  0  0  0  0  0
  186.5540  176.6480  146.4360 C   0  0  0  0  0  3  0  0  0  0  0  0
  1 17  1  1  0  0  0
  1  8  1  0  0  0  0
  2  4  1  6  0  0  0
  2  7  1  0  0  0  0
  5 10  1  0  0  0  0
  6  5  2  0  0  0  0
  7 16  1  0  0  0  0
  7  3  1  0  0  0  0
  7 12  1  0  0  0  0
  8  3  1  0  0  0  0
  9  5  1  0  0  0  0
  9  2  1  0  0  0  0
 10  8  1  0  0  0  0
 10  3  1  0  0  0  0
 11  4  1  0  0  0  0
 11  2  1  0  0  0  0
 11  1  1  0  0  0  0
 13 16  1  0  0  0  0
 13 15  1  0  0  0  0
 14 13  2  0  0  0  0
 17 19  1  0  0  0  0
 18 17  2  0  0  0  0
 19 25  1  0  0  0  0
 20 23  1  0  0  0  0
 21 19  2  0  0  0  0
 21 22  1  0  0  0  0
 22 20  2  0  0  0  0
 24 21  1  0  0  0  0
 25 23  2  0  0  0  0
M  END
>  <MODEL>
7

>  <REMARK>
 VINA RESULT:      -7.2      2.213      3.139
  Name = 
  3 active torsions:
  status: ('A' for Active; 'I' for Inactive)
    1  A    between atoms: C_1  and  C_3
    2  A    between atoms: C_1  and  C_5
    3  A    between atoms: C_15  and  N_21
                            x       y       z     vdW  Elec       q    Type
                         _______ _______ _______ _____ _____    ______ ____

>  <TORSDO>
F 3

$$$$
=
 OpenBabel11052417293D

 25 29  0  0  1  0  0  0  0  0999 V2000
  189.0260  176.6040  145.3900 C   0  0  1  0  0  3  0  0  0  0  0  0
  190.3950  174.6910  145.8270 C   0  0  1  0  0  0  0  0  0  0  0  0
  191.5330  176.7690  144.9310 C   0  0  2  0  0  3  0  0  0  0  0  0
  189.3530  174.5050  146.8460 C   0  0  0  0  0  2  0  0  0  0  0  0
  190.8070  174.7210  143.5120 C   0  0  0  0  0  0  0  0  0  0  0  0
  190.8300  174.1510  142.3900 O   0  0  0  0  0  0  0  0  0  0  0  0
  191.5170  175.7500  146.0860 C   0  0  1  0  0  0  0  0  0  0  0  0
  190.1370  177.1790  144.4740 C   0  0  1  0  0  3  0  0  0  0  0  0
  190.6430  173.9440  144.6690 O   0  0  0  0  0  0  0  0  0  0  0  0
  191.0110  176.2470  143.5750 C   0  0  1  0  0  3  0  0  0  0  0  0
  188.9960  175.1600  145.5820 N   0  0  1  0  0  0  0  0  0  0  0  0
  191.3790  176.5050  147.4080 C   0  0  0  0  0  1  0  0  0  0  0  0
  194.0850  175.7410  146.1240 C   0  0  0  0  0  0  0  0  0  0  0  0
  194.1570  176.9980  146.1490 O   0  0  0  0  0  0  0  0  0  0  0  0
  195.3330  174.9340  146.1330 C   0  0  0  0  0  1  0  0  0  0  0  0
  192.8170  175.0770  146.0870 N   0  0  0  0  0  2  0  0  0  0  0  0
  188.3440  177.4760  146.4090 C   0  0  0  0  0  0  0  0  0  0  0  0
  188.9890  177.8730  147.4150 O   0  0  0  0  0  0  0  0  0  0  0  0
  186.9230  177.8640  146.2320 C   0  0  0  0  0  0  0  0  0  0  0  0
  184.2170  178.5880  145.9590 C   0  0  0  0  0  3  0  0  0  0  0  0
  186.4370  178.3720  145.0070 C   0  0  0  0  0  0  0  0  0  0  0  0
  185.0910  178.7290  144.8790 C   0  0  0  0  0  3  0  0  0  0  0  0
  184.6870  178.0870  147.1740 C   0  0  0  0  0  3  0  0  0  0  0  0
  187.2510  178.5230  143.9330 F   0  0  0  0  0  0  0  0  0  0  0  0
  186.0310  177.7290  147.3080 C   0  0  0  0  0  3  0  0  0  0  0  0
  1 11  1  0  0  0  0
  1 17  1  1  0  0  0
  2  7  1  0  0  0  0
  2  4  1  1  0  0  0
  3  7  1  0  0  0  0
  5 10  1  0  0  0  0
  5  9  1  0  0  0  0
  6  5  2  0  0  0  0
  7 16  1  0  0  0  0
  7 12  1  0  0  0  0
  8  3  1  0  0  0  0
  8  1  1  0  0  0  0
  9  2  1  0  0  0  0
 10  8  1  0  0  0  0
 10  3  1  0  0  0  0
 11  2  1  0  0  0  0
 11  4  1  0  0  0  0
 13 15  1  0  0  0  0
 13 14  2  0  0  0  0
 16 13  1  0  0  0  0
 17 18  2  0  0  0  0
 19 17  1  0  0  0  0
 19 25  1  0  0  0  0
 20 23  1  0  0  0  0
 21 19  2  0  0  0  0
 22 21  1  0  0  0  0
 22 20  2  0  0  0  0
 23 25  2  0  0  0  0
 24 21  1  0  0  0  0
M  END
>  <MODEL>
8

>  <REMARK>
 VINA RESULT:      -7.2      1.869      3.254
  Name = 
  3 active torsions:
  status: ('A' for Active; 'I' for Inactive)
    1  A    between atoms: C_1  and  C_3
    2  A    between atoms: C_1  and  C_5
    3  A    between atoms: C_15  and  N_21
                            x       y       z     vdW  Elec       q    Type
                         _______ _______ _______ _____ _____    ______ ____

>  <TORSDO>
F 3

$$$$
=
 OpenBabel11052417293D

 25 29  0  0  1  0  0  0  0  0999 V2000
  188.1750  176.0470  144.0170 C   0  0  1  0  0  3  0  0  0  0  0  0
  190.3660  175.7650  144.9360 C   0  0  1  0  0  0  0  0  0  0  0  0
  190.0550  175.2730  142.4700 C   0  0  2  0  0  3  0  0  0  0  0  0
  189.8600  176.8470  145.7920 C   0  0  0  0  0  2  0  0  0  0  0  0
  190.0830  173.5010  144.3670 C   0  0  0  0  0  0  0  0  0  0  0  0
  190.0860  172.2800  144.6720 O   0  0  0  0  0  0  0  0  0  0  0  0
  190.8460  176.1150  143.4890 C   0  0  1  0  0  0  0  0  0  0  0  0
  188.5740  175.1530  142.8140 C   0  0  1  0  0  3  0  0  0  0  0  0
  190.6330  174.4310  145.2630 O   0  0  0  0  0  0  0  0  0  0  0  0
  189.5200  173.9230  142.9960 C   0  0  1  0  0  3  0  0  0  0  0  0
  188.9090  175.8620  145.2610 N   0  0  1  0  0  0  0  0  0  0  0  0
  190.7090  177.5920  143.1190 C   0  0  0  0  0  1  0  0  0  0  0  0
  193.3270  176.2920  144.1320 C   0  0  0  0  0  0  0  0  0  0  0  0
  193.1060  177.1660  145.0130 O   0  0  0  0  0  0  0  0  0  0  0  0
  194.7150  175.8200  143.8990 C   0  0  0  0  0  1  0  0  0  0  0  0
  192.2560  175.7470  143.3520 N   0  0  0  0  0  2  0  0  0  0  0  0
  187.4490  177.3470  143.7990 C   0  0  0  0  0  0  0  0  0  0  0  0
  187.8260  178.1180  142.8780 O   0  0  0  0  0  0  0  0  0  0  0  0
  186.2990  177.7170  144.6610 C   0  0  0  0  0  0  0  0  0  0  0  0
  184.1280  178.3650  146.3300 C   0  0  0  0  0  3  0  0  0  0  0  0
  185.5970  178.9300  144.4850 C   0  0  0  0  0  0  0  0  0  0  0  0
  184.5190  179.2450  145.3180 C   0  0  0  0  0  3  0  0  0  0  0  0
  184.8160  177.1650  146.5130 C   0  0  0  0  0  3  0  0  0  0  0  0
  185.9410  179.8100  143.5130 F   0  0  0  0  0  0  0  0  0  0  0  0
  185.8940  176.8450  145.6840 C   0  0  0  0  0  3  0  0  0  0  0  0
  1 17  1  6  0  0  0
  1 11  1  0  0  0  0
  2 11  1  0  0  0  0
  2  9  1  0  0  0  0
  2  4  1  1  0  0  0
  3  8  1  0  0  0  0
  3 10  1  0  0  0  0
  3  7  1  0  0  0  0
  5  6  2  0  0  0  0
  5  9  1  0  0  0  0
  7  2  1  0  0  0  0
  8 10  1  0  0  0  0
  8  1  1  0  0  0  0
 10  5  1  0  0  0  0
 11  4  1  0  0  0  0
 12  7  1  0  0  0  0
 13 14  2  0  0  0  0
 15 13  1  0  0  0  0
 16  7  1  0  0  0  0
 16 13  1  0  0  0  0
 17 19  1  0  0  0  0
 18 17  2  0  0  0  0
 19 25  1  0  0  0  0
 20 23  1  0  0  0  0
 21 19  2  0  0  0  0
 21 22  1  0  0  0  0
 22 20  2  0  0  0  0
 24 21  1  0  0  0  0
 25 23  2  0  0  0  0
M  END
>  <MODEL>
9

>  <REMARK>
 VINA RESULT:      -7.2      1.968      2.871
  Name = 
  3 active torsions:
  status: ('A' for Active; 'I' for Inactive)
    1  A    between atoms: C_1  and  C_3
    2  A    between atoms: C_1  and  C_5
    3  A    between atoms: C_15  and  N_21
                            x       y       z     vdW  Elec       q    Type
                         _______ _______ _______ _____ _____    ______ ____

>  <TORSDO>
F 3

$$$$
