=
 OpenBabel11052420103D

 37 39  0  0  1  0  0  0  0  0999 V2000
  189.9950  175.1680  146.9750 C   0  0  0  0  0  2  0  0  0  0  0  0
  192.4470  174.9710  146.9160 C   0  0  0  0  0  1  0  0  0  0  0  0
  188.8420  176.0320  144.9400 C   0  0  0  0  0  0  0  0  0  0  0  0
  192.1410  178.0100  144.1840 O   0  0  0  0  0  0  0  0  0  0  0  0
  187.7400  176.6140  144.3080 C   0  0  0  0  0  3  0  0  0  0  0  0
  191.2820  175.8360  146.4720 C   0  0  1  0  0  0  0  0  0  0  0  0
  192.3360  176.7850  144.3950 C   0  0  0  0  0  0  0  0  0  0  0  0
  187.6360  176.0240  147.0420 C   0  0  0  0  0  3  0  0  0  0  0  0
  191.2950  176.0010  144.9960 N   0  0  0  0  0  0  0  0  0  0  0  0
  191.4000  177.0870  147.0830 O   0  0  0  0  0  1  0  0  0  0  0  0
  188.7960  175.7550  146.3110 C   0  0  0  0  0  0  0  0  0  0  0  0
  190.0990  175.7310  144.1710 C   0  0  1  0  0  3  0  0  0  0  0  0
  186.5730  176.8950  145.0350 C   0  0  0  0  0  0  0  0  0  0  0  0
  186.5280  176.5900  146.4040 C   0  0  0  0  0  3  0  0  0  0  0  0
  184.4490  177.9440  145.0570 O   0  0  0  0  0  0  0  0  0  0  0  0
  185.4070  177.4970  144.3670 C   0  0  0  0  0  0  0  0  0  0  0  0
  185.3620  177.5630  142.9350 N   0  0  0  0  0  2  0  0  0  0  0  0
  184.3200  178.1790  142.1690 C   0  0  0  0  0  0  0  0  0  0  0  0
  183.3800  178.8010  142.7320 O   0  0  0  0  0  0  0  0  0  0  0  0
  185.7900  177.8410  140.2270 C   0  0  0  0  0  1  0  0  0  0  0  0
  184.3700  178.1140  140.6830 C   0  0  0  0  0  2  0  0  0  0  0  0
  193.5610  176.2210  144.0350 O   0  0  0  0  0  0  0  0  0  0  0  0
  195.9250  176.3920  143.7220 C   0  0  0  0  0  2  0  0  0  0  0  0
  194.7750  176.5460  144.6950 C   0  0  0  0  0  3  0  0  0  0  0  0
  195.6560  175.3150  144.7470 C   0  0  0  0  0  2  0  0  0  0  0  0
  190.1610  174.3430  143.4500 C   0  0  1  0  0  0  0  0  0  0  0  0
  189.5930  172.1840  144.7600 C   0  0  0  0  0  1  0  0  0  0  0  0
  190.6570  173.2090  144.3810 C   0  0  0  0  0  2  0  0  0  0  0  0
  188.7320  173.9880  142.9930 C   0  0  0  0  0  2  0  0  0  0  0  0
  188.4610  174.2100  141.5300 C   0  0  0  0  0  0  0  0  0  0  0  0
  188.2820  175.3390  141.1000 O   0  0  0  0  0  0  0  0  0  0  0  0
  189.0690  173.2770  139.4490 O   0  0  0  0  0  1  0  0  0  0  0  0
  188.3390  173.0410  140.6140 C   0  0  0  0  0  2  0  0  0  0  0  0
  191.0620  174.4440  142.1980 C   0  0  0  0  0  2  0  0  0  0  0  0
  192.0560  173.3310  142.0540 C   0  0  0  0  0  0  0  0  0  0  0  0
  193.2360  173.4880  142.4590 O   0  0  0  0  0  0  0  0  0  0  0  0
  191.6690  172.0980  141.4610 N   0  0  0  0  0  1  0  0  0  0  0  0
  3 11  1  0  0  0  0
  4  7  2  0  0  0  0
  5  3  2  0  0  0  0
  5 13  1  0  0  0  0
  6  2  1  1  0  0  0
  6  1  1  0  0  0  0
  6 10  1  0  0  0  0
  7  9  1  0  0  0  0
  9  6  1  0  0  0  0
 11  1  1  0  0  0  0
 11  8  2  0  0  0  0
 12 26  1  1  0  0  0
 12  3  1  0  0  0  0
 12  9  1  0  0  0  0
 13 14  2  0  0  0  0
 14  8  1  0  0  0  0
 16 13  1  0  0  0  0
 16 15  2  0  0  0  0
 17 16  1  0  0  0  0
 18 19  2  0  0  0  0
 18 17  1  0  0  0  0
 20 21  1  0  0  0  0
 21 18  1  0  0  0  0
 22  7  1  0  0  0  0
 22 24  1  0  0  0  0
 23 24  1  0  0  0  0
 23 25  1  0  0  0  0
 24 25  1  0  0  0  0
 26 34  1  6  0  0  0
 26 28  1  0  0  0  0
 28 27  1  0  0  0  0
 29 26  1  0  0  0  0
 30 29  1  0  0  0  0
 31 30  2  0  0  0  0
 32 33  1  0  0  0  0
 33 30  1  0  0  0  0
 35 34  1  0  0  0  0
 35 36  2  0  0  0  0
 37 35  1  0  0  0  0
M  END
>  <MODEL>
1

>  <REMARK>
 VINA RESULT:      -7.0      0.000      0.000
  Name = 
  11 active torsions:
  status: ('A' for Active; 'I' for Inactive)
    1  A    between atoms: C_1  and  C_5
    2  A    between atoms: C_1  and  C_36
    3  A    between atoms: C_5  and  C_23
    4  A    between atoms: C_6  and  C_31
    5  A    between atoms: C_11  and  C_33
    6  A    between atoms: C_18  and  C_19
    7  A    between atoms: C_20  and  O_32
    8  A    between atoms: C_21  and  O_32
    9  A    between atoms: C_27  and  C_36
   10  A    between atoms: C_29  and  C_36
   11  A    between atoms: C_33  and  C_36
                            x       y       z     vdW  Elec       q    Type
                         _______ _______ _______ _____ _____    ______ ____

>  <TORSDO>
F 11

$$$$
=
 OpenBabel11052420103D

 37 39  0  0  1  0  0  0  0  0999 V2000
  189.9140  174.5500  141.1560 C   0  0  0  0  0  2  0  0  0  0  0  0
  191.6740  172.8450  141.3780 C   0  0  0  0  0  1  0  0  0  0  0  0
  188.9690  175.5330  143.2430 C   0  0  0  0  0  0  0  0  0  0  0  0
  189.8540  172.1320  144.9800 O   0  0  0  0  0  0  0  0  0  0  0  0
  187.9600  176.2120  143.9340 C   0  0  0  0  0  3  0  0  0  0  0  0
  190.3800  173.3480  141.9890 C   0  0  1  0  0  0  0  0  0  0  0  0
  190.8250  172.6390  144.3600 C   0  0  0  0  0  0  0  0  0  0  0  0
  187.7350  175.7980  141.1750 C   0  0  0  0  0  3  0  0  0  0  0  0
  190.5840  173.6950  143.4180 N   0  0  0  0  0  0  0  0  0  0  0  0
  189.4180  172.3390  141.8860 O   0  0  0  0  0  1  0  0  0  0  0  0
  188.8450  175.3090  141.8680 C   0  0  0  0  0  0  0  0  0  0  0  0
  190.1740  175.0030  143.9700 C   0  0  1  0  0  3  0  0  0  0  0  0
  186.8370  176.6990  143.2470 C   0  0  0  0  0  0  0  0  0  0  0  0
  186.7360  176.4920  141.8630 C   0  0  0  0  0  3  0  0  0  0  0  0
  184.7810  177.8700  143.3430 O   0  0  0  0  0  0  0  0  0  0  0  0
  185.7810  177.4260  143.9710 C   0  0  0  0  0  0  0  0  0  0  0  0
  185.9000  177.6340  145.3850 N   0  0  0  0  0  2  0  0  0  0  0  0
  184.9170  178.2660  146.2130 C   0  0  0  0  0  0  0  0  0  0  0  0
  183.8010  178.6160  145.7450 O   0  0  0  0  0  0  0  0  0  0  0  0
  186.7000  178.5850  147.8760 C   0  0  0  0  0  1  0  0  0  0  0  0
  185.2030  178.4750  147.6590 C   0  0  0  0  0  2  0  0  0  0  0  0
  192.1130  172.1610  144.6090 O   0  0  0  0  0  0  0  0  0  0  0  0
  193.7970  170.5010  144.9640 C   0  0  0  0  0  2  0  0  0  0  0  0
  192.5400  170.8700  144.2020 C   0  0  0  0  0  3  0  0  0  0  0  0
  193.8960  170.9840  143.5350 C   0  0  0  0  0  2  0  0  0  0  0  0
  191.3750  175.9910  144.1430 C   0  0  1  0  0  0  0  0  0  0  0  0
  191.0410  178.5120  143.6640 C   0  0  0  0  0  1  0  0  0  0  0  0
  191.3640  177.1330  143.0980 C   0  0  0  0  0  2  0  0  0  0  0  0
  191.2600  176.6290  145.5420 C   0  0  0  0  0  2  0  0  0  0  0  0
  190.9560  175.6650  146.6550 C   0  0  0  0  0  0  0  0  0  0  0  0
  191.7970  174.8580  147.0200 O   0  0  0  0  0  0  0  0  0  0  0  0
  189.1100  174.3390  147.2930 O   0  0  0  0  0  1  0  0  0  0  0  0
  189.5970  175.6460  147.2670 C   0  0  0  0  0  2  0  0  0  0  0  0
  192.7080  175.2110  144.0720 C   0  0  0  0  0  2  0  0  0  0  0  0
  193.9220  176.0690  143.8770 C   0  0  0  0  0  0  0  0  0  0  0  0
  194.3480  176.7790  144.8240 O   0  0  0  0  0  0  0  0  0  0  0  0
  194.5950  176.0830  142.6240 N   0  0  0  0  0  1  0  0  0  0  0  0
  1 11  1  0  0  0  0
  1  6  1  0  0  0  0
  3  5  1  0  0  0  0
  3 12  1  0  0  0  0
  6  2  1  6  0  0  0
  6  9  1  0  0  0  0
  7 22  1  0  0  0  0
  7  4  2  0  0  0  0
  8 14  2  0  0  0  0
  8 11  1  0  0  0  0
  9 12  1  0  0  0  0
  9  7  1  0  0  0  0
 10  6  1  0  0  0  0
 11  3  2  0  0  0  0
 12 26  1  6  0  0  0
 13  5  2  0  0  0  0
 13 16  1  0  0  0  0
 14 13  1  0  0  0  0
 15 16  2  0  0  0  0
 16 17  1  0  0  0  0
 17 18  1  0  0  0  0
 18 21  1  0  0  0  0
 19 18  2  0  0  0  0
 21 20  1  0  0  0  0
 24 22  1  0  0  0  0
 24 23  1  0  0  0  0
 25 24  1  0  0  0  0
 25 23  1  0  0  0  0
 26 28  1  6  0  0  0
 26 29  1  0  0  0  0
 28 27  1  0  0  0  0
 29 30  1  0  0  0  0
 30 31  2  0  0  0  0
 30 33  1  0  0  0  0
 33 32  1  0  0  0  0
 34 26  1  0  0  0  0
 35 34  1  0  0  0  0
 35 36  2  0  0  0  0
 37 35  1  0  0  0  0
M  END
>  <MODEL>
2

>  <REMARK>
 VINA RESULT:      -6.7      2.207      4.971
  Name = 
  11 active torsions:
  status: ('A' for Active; 'I' for Inactive)
    1  A    between atoms: C_1  and  C_5
    2  A    between atoms: C_1  and  C_36
    3  A    between atoms: C_5  and  C_23
    4  A    between atoms: C_6  and  C_31
    5  A    between atoms: C_11  and  C_33
    6  A    between atoms: C_18  and  C_19
    7  A    between atoms: C_20  and  O_32
    8  A    between atoms: C_21  and  O_32
    9  A    between atoms: C_27  and  C_36
   10  A    between atoms: C_29  and  C_36
   11  A    between atoms: C_33  and  C_36
                            x       y       z     vdW  Elec       q    Type
                         _______ _______ _______ _____ _____    ______ ____

>  <TORSDO>
F 11

$$$$
=
 OpenBabel11052420103D

 37 39  0  0  1  0  0  0  0  0999 V2000
  190.4100  174.8960  146.8080 C   0  0  0  0  0  2  0  0  0  0  0  0
  192.8560  174.7350  146.5940 C   0  0  0  0  0  1  0  0  0  0  0  0
  189.1450  176.0000  144.9660 C   0  0  0  0  0  0  0  0  0  0  0  0
  192.3890  178.0940  144.2930 O   0  0  0  0  0  0  0  0  0  0  0  0
  188.0070  176.6460  144.4720 C   0  0  0  0  0  3  0  0  0  0  0  0
  191.6660  175.6360  146.3270 C   0  0  1  0  0  0  0  0  0  0  0  0
  192.6010  176.8550  144.3360 C   0  0  0  0  0  0  0  0  0  0  0  0
  188.0540  175.7100  147.1100 C   0  0  0  0  0  3  0  0  0  0  0  0
  191.5970  175.9880  144.8860 N   0  0  0  0  0  0  0  0  0  0  0  0
  191.8110  176.8010  147.0860 O   0  0  0  0  0  1  0  0  0  0  0  0
  189.1740  175.5500  146.2900 C   0  0  0  0  0  0  0  0  0  0  0  0
  190.3590  175.8130  144.0980 C   0  0  1  0  0  3  0  0  0  0  0  0
  186.8810  176.8190  145.2910 C   0  0  0  0  0  0  0  0  0  0  0  0
  186.9120  176.3410  146.6100 C   0  0  0  0  0  3  0  0  0  0  0  0
  184.8470  178.0010  145.5680 O   0  0  0  0  0  0  0  0  0  0  0  0
  185.6780  177.4890  144.7690 C   0  0  0  0  0  0  0  0  0  0  0  0
  185.4520  177.5460  143.3540 N   0  0  0  0  0  2  0  0  0  0  0  0
  184.3600  178.2200  142.7180 C   0  0  0  0  0  0  0  0  0  0  0  0
  183.5420  178.9050  143.3870 O   0  0  0  0  0  0  0  0  0  0  0  0
  185.5820  178.1260  140.5860 C   0  0  0  0  0  1  0  0  0  0  0  0
  184.2130  178.1400  141.2390 C   0  0  0  0  0  2  0  0  0  0  0  0
  193.8070  176.3540  143.8420 O   0  0  0  0  0  0  0  0  0  0  0  0
  196.1620  176.4660  143.4470 C   0  0  0  0  0  2  0  0  0  0  0  0
  195.0540  176.6110  144.4690 C   0  0  0  0  0  3  0  0  0  0  0  0
  195.8960  175.3510  144.4320 C   0  0  0  0  0  2  0  0  0  0  0  0
  190.3870  174.5300  143.2040 C   0  0  1  0  0  0  0  0  0  0  0  0
  192.3760  174.1990  141.5800 C   0  0  0  0  0  1  0  0  0  0  0  0
  190.9880  174.7930  141.8010 C   0  0  0  0  0  2  0  0  0  0  0  0
  191.2760  173.4850  143.9090 C   0  0  0  0  0  2  0  0  0  0  0  0
  190.6660  172.1160  144.0320 C   0  0  0  0  0  0  0  0  0  0  0  0
  189.8240  171.8890  144.8870 O   0  0  0  0  0  0  0  0  0  0  0  0
  190.1700  170.7070  142.2040 O   0  0  0  0  0  1  0  0  0  0  0  0
  191.1460  171.0110  143.1540 C   0  0  0  0  0  2  0  0  0  0  0  0
  188.9600  173.9480  143.0760 C   0  0  0  0  0  2  0  0  0  0  0  0
  188.3270  174.1400  141.7310 C   0  0  0  0  0  0  0  0  0  0  0  0
  187.8440  175.2570  141.4180 O   0  0  0  0  0  0  0  0  0  0  0  0
  188.2700  173.0600  140.8070 N   0  0  0  0  0  1  0  0  0  0  0  0
  3 11  1  0  0  0  0
  4  7  2  0  0  0  0
  5  3  2  0  0  0  0
  5 13  1  0  0  0  0
  6  2  1  1  0  0  0
  6  1  1  0  0  0  0
  6 10  1  0  0  0  0
  7  9  1  0  0  0  0
  9  6  1  0  0  0  0
 11  1  1  0  0  0  0
 11  8  2  0  0  0  0
 12 26  1  1  0  0  0
 12  9  1  0  0  0  0
 12  3  1  0  0  0  0
 13 14  2  0  0  0  0
 14  8  1  0  0  0  0
 16 13  1  0  0  0  0
 16 15  2  0  0  0  0
 17 16  1  0  0  0  0
 18 17  1  0  0  0  0
 18 19  2  0  0  0  0
 20 21  1  0  0  0  0
 21 18  1  0  0  0  0
 22  7  1  0  0  0  0
 22 24  1  0  0  0  0
 23 25  1  0  0  0  0
 23 24  1  0  0  0  0
 25 24  1  0  0  0  0
 26 28  1  6  0  0  0
 26 29  1  0  0  0  0
 27 28  1  0  0  0  0
 29 30  1  0  0  0  0
 30 31  2  0  0  0  0
 32 33  1  0  0  0  0
 33 30  1  0  0  0  0
 34 26  1  0  0  0  0
 35 34  1  0  0  0  0
 36 35  2  0  0  0  0
 37 35  1  0  0  0  0
M  END
>  <MODEL>
3

>  <REMARK>
 VINA RESULT:      -6.5      1.315      2.257
  Name = 
  11 active torsions:
  status: ('A' for Active; 'I' for Inactive)
    1  A    between atoms: C_1  and  C_5
    2  A    between atoms: C_1  and  C_36
    3  A    between atoms: C_5  and  C_23
    4  A    between atoms: C_6  and  C_31
    5  A    between atoms: C_11  and  C_33
    6  A    between atoms: C_18  and  C_19
    7  A    between atoms: C_20  and  O_32
    8  A    between atoms: C_21  and  O_32
    9  A    between atoms: C_27  and  C_36
   10  A    between atoms: C_29  and  C_36
   11  A    between atoms: C_33  and  C_36
                            x       y       z     vdW  Elec       q    Type
                         _______ _______ _______ _____ _____    ______ ____

>  <TORSDO>
F 11

$$$$
=
 OpenBabel11052420103D

 37 39  0  0  1  0  0  0  0  0999 V2000
  191.2510  174.7500  146.1500 C   0  0  0  0  0  2  0  0  0  0  0  0
  193.6150  174.5130  145.5130 C   0  0  0  0  0  1  0  0  0  0  0  0
  189.6440  175.5320  144.4120 C   0  0  0  0  0  0  0  0  0  0  0  0
  192.6690  177.4220  142.7850 O   0  0  0  0  0  0  0  0  0  0  0  0
  188.4240  176.1000  144.0350 C   0  0  0  0  0  3  0  0  0  0  0  0
  192.3810  175.3730  145.3200 C   0  0  1  0  0  0  0  0  0  0  0  0
  192.9060  176.2060  143.0060 C   0  0  0  0  0  0  0  0  0  0  0  0
  188.9800  175.6440  146.7400 C   0  0  0  0  0  3  0  0  0  0  0  0
  192.0380  175.4670  143.8780 N   0  0  0  0  0  0  0  0  0  0  0  0
  192.6460  176.6510  145.8210 O   0  0  0  0  0  1  0  0  0  0  0  0
  189.9290  175.3230  145.7660 C   0  0  0  0  0  0  0  0  0  0  0  0
  190.6770  175.1750  143.3790 C   0  0  1  0  0  3  0  0  0  0  0  0
  187.4680  176.4330  145.0060 C   0  0  0  0  0  0  0  0  0  0  0  0
  187.7530  176.1950  146.3590 C   0  0  0  0  0  3  0  0  0  0  0  0
  185.2910  177.2370  145.4800 O   0  0  0  0  0  0  0  0  0  0  0  0
  186.1770  177.0200  144.6090 C   0  0  0  0  0  0  0  0  0  0  0  0
  185.9310  177.3330  143.2310 N   0  0  0  0  0  2  0  0  0  0  0  0
  184.7480  177.9630  142.7250 C   0  0  0  0  0  0  0  0  0  0  0  0
  183.8480  178.3760  143.5040 O   0  0  0  0  0  0  0  0  0  0  0  0
  185.9400  177.9900  140.5740 C   0  0  0  0  0  1  0  0  0  0  0  0
  184.5980  178.1670  141.2580 C   0  0  0  0  0  2  0  0  0  0  0  0
  194.0070  175.6060  142.3900 O   0  0  0  0  0  0  0  0  0  0  0  0
  195.8660  176.5920  141.2570 C   0  0  0  0  0  2  0  0  0  0  0  0
  195.3340  176.0740  142.5760 C   0  0  0  0  0  3  0  0  0  0  0  0
  196.2790  175.2240  141.7500 C   0  0  0  0  0  2  0  0  0  0  0  0
  190.5600  173.7540  142.7360 C   0  0  1  0  0  0  0  0  0  0  0  0
  189.5480  171.9800  144.3250 C   0  0  0  0  0  1  0  0  0  0  0  0
  189.3000  172.9880  143.2080 C   0  0  0  0  0  2  0  0  0  0  0  0
  190.4560  173.9370  141.2080 C   0  0  0  0  0  2  0  0  0  0  0  0
  189.0550  174.0790  140.6810 C   0  0  0  0  0  0  0  0  0  0  0  0
  188.4190  175.1020  140.8820 O   0  0  0  0  0  0  0  0  0  0  0  0
  189.3700  171.9640  139.6790 O   0  0  0  0  0  1  0  0  0  0  0  0
  188.4130  172.9360  139.9700 C   0  0  0  0  0  2  0  0  0  0  0  0
  191.8340  172.9340  143.0420 C   0  0  0  0  0  2  0  0  0  0  0  0
  192.3050  172.0690  141.9120 C   0  0  0  0  0  0  0  0  0  0  0  0
  191.7790  170.9420  141.7220 O   0  0  0  0  0  0  0  0  0  0  0  0
  193.3460  172.5180  141.0530 N   0  0  0  0  0  1  0  0  0  0  0  0
  3 11  1  0  0  0  0
  4  7  2  0  0  0  0
  5  3  2  0  0  0  0
  5 13  1  0  0  0  0
  6  2  1  1  0  0  0
  6 10  1  0  0  0  0
  6  1  1  0  0  0  0
  7  9  1  0  0  0  0
  9  6  1  0  0  0  0
 11  1  1  0  0  0  0
 11  8  2  0  0  0  0
 12 26  1  1  0  0  0
 12  9  1  0  0  0  0
 12  3  1  0  0  0  0
 13 14  2  0  0  0  0
 14  8  1  0  0  0  0
 16 13  1  0  0  0  0
 16 15  2  0  0  0  0
 17 16  1  0  0  0  0
 18 17  1  0  0  0  0
 18 19  2  0  0  0  0
 20 21  1  0  0  0  0
 21 18  1  0  0  0  0
 22 24  1  0  0  0  0
 22  7  1  0  0  0  0
 23 25  1  0  0  0  0
 23 24  1  0  0  0  0
 25 24  1  0  0  0  0
 26 29  1  6  0  0  0
 26 34  1  0  0  0  0
 26 28  1  0  0  0  0
 28 27  1  0  0  0  0
 30 31  2  0  0  0  0
 30 29  1  0  0  0  0
 32 33  1  0  0  0  0
 33 30  1  0  0  0  0
 35 34  1  0  0  0  0
 36 35  2  0  0  0  0
 37 35  1  0  0  0  0
M  END
>  <MODEL>
4

>  <REMARK>
 VINA RESULT:      -6.4      1.343      1.555
  Name = 
  11 active torsions:
  status: ('A' for Active; 'I' for Inactive)
    1  A    between atoms: C_1  and  C_5
    2  A    between atoms: C_1  and  C_36
    3  A    between atoms: C_5  and  C_23
    4  A    between atoms: C_6  and  C_31
    5  A    between atoms: C_11  and  C_33
    6  A    between atoms: C_18  and  C_19
    7  A    between atoms: C_20  and  O_32
    8  A    between atoms: C_21  and  O_32
    9  A    between atoms: C_27  and  C_36
   10  A    between atoms: C_29  and  C_36
   11  A    between atoms: C_33  and  C_36
                            x       y       z     vdW  Elec       q    Type
                         _______ _______ _______ _____ _____    ______ ____

>  <TORSDO>
F 11

$$$$
=
 OpenBabel11052420103D

 37 39  0  0  1  0  0  0  0  0999 V2000
  192.4100  175.6960  146.3050 C   0  0  0  0  0  2  0  0  0  0  0  0
  194.6890  174.9200  145.7990 C   0  0  0  0  0  1  0  0  0  0  0  0
  190.8000  175.9100  144.4140 C   0  0  0  0  0  0  0  0  0  0  0  0
  193.9150  176.5770  142.1310 O   0  0  0  0  0  0  0  0  0  0  0  0
  189.6300  176.4280  143.8500 C   0  0  0  0  0  3  0  0  0  0  0  0
  193.5500  175.7800  145.2820 C   0  0  1  0  0  0  0  0  0  0  0  0
  194.0250  175.5330  142.8250 C   0  0  0  0  0  0  0  0  0  0  0  0
  190.2940  177.0350  146.5000 C   0  0  0  0  0  3  0  0  0  0  0  0
  193.1330  175.3270  143.9320 N   0  0  0  0  0  0  0  0  0  0  0  0
  193.9890  177.1060  145.2160 O   0  0  0  0  0  1  0  0  0  0  0  0
  191.1400  176.2290  145.7330 C   0  0  0  0  0  0  0  0  0  0  0  0
  191.7210  175.0370  143.6070 C   0  0  1  0  0  3  0  0  0  0  0  0
  188.7790  177.2450  144.6100 C   0  0  0  0  0  0  0  0  0  0  0  0
  189.1170  177.5390  145.9400 C   0  0  0  0  0  3  0  0  0  0  0  0
  187.4730  177.9800  142.7760 O   0  0  0  0  0  0  0  0  0  0  0  0
  187.5410  177.7820  144.0200 C   0  0  0  0  0  0  0  0  0  0  0  0
  186.4230  178.0860  144.8650 N   0  0  0  0  0  2  0  0  0  0  0  0
  185.1470  178.5500  144.4110 C   0  0  0  0  0  0  0  0  0  0  0  0
  184.8890  178.6430  143.1810 O   0  0  0  0  0  0  0  0  0  0  0  0
  184.4470  178.2860  146.7530 C   0  0  0  0  0  1  0  0  0  0  0  0
  184.0950  178.8910  145.4080 C   0  0  0  0  0  2  0  0  0  0  0  0
  195.0110  174.6010  142.4980 O   0  0  0  0  0  0  0  0  0  0  0  0
  197.1060  174.0430  141.4900 C   0  0  0  0  0  2  0  0  0  0  0  0
  196.3940  174.9190  142.5000 C   0  0  0  0  0  3  0  0  0  0  0  0
  197.1800  173.7090  142.9620 C   0  0  0  0  0  2  0  0  0  0  0  0
  191.4030  173.5050  143.6010 C   0  0  1  0  0  0  0  0  0  0  0  0
  189.7030  172.6180  145.3380 C   0  0  0  0  0  1  0  0  0  0  0  0
  189.9250  173.2000  143.9460 C   0  0  0  0  0  2  0  0  0  0  0  0
  191.6750  172.9750  142.1780 C   0  0  0  0  0  2  0  0  0  0  0  0
  190.4460  172.7500  141.3410 C   0  0  0  0  0  0  0  0  0  0  0  0
  189.9260  171.6460  141.2920 O   0  0  0  0  0  0  0  0  0  0  0  0
  188.5810  174.1200  140.8760 O   0  0  0  0  0  1  0  0  0  0  0  0
  189.9020  173.8610  140.5100 C   0  0  0  0  0  2  0  0  0  0  0  0
  192.3470  172.7710  144.5810 C   0  0  0  0  0  2  0  0  0  0  0  0
  192.9430  171.5050  144.0430 C   0  0  0  0  0  0  0  0  0  0  0  0
  192.2600  170.4490  144.0200 O   0  0  0  0  0  0  0  0  0  0  0  0
  194.2800  171.4930  143.5570 N   0  0  0  0  0  1  0  0  0  0  0  0
  3 11  1  0  0  0  0
  4  7  2  0  0  0  0
  5  3  2  0  0  0  0
  5 13  1  0  0  0  0
  6  2  1  1  0  0  0
  6  1  1  0  0  0  0
  7  9  1  0  0  0  0
  9  6  1  0  0  0  0
 10  6  1  0  0  0  0
 11  1  1  0  0  0  0
 11  8  2  0  0  0  0
 12 26  1  1  0  0  0
 12  9  1  0  0  0  0
 12  3  1  0  0  0  0
 13 14  2  0  0  0  0
 14  8  1  0  0  0  0
 15 16  2  0  0  0  0
 16 13  1  0  0  0  0
 16 17  1  0  0  0  0
 18 17  1  0  0  0  0
 18 21  1  0  0  0  0
 19 18  2  0  0  0  0
 21 20  1  0  0  0  0
 22 24  1  0  0  0  0
 22  7  1  0  0  0  0
 23 24  1  0  0  0  0
 23 25  1  0  0  0  0
 24 25  1  0  0  0  0
 26 29  1  6  0  0  0
 26 28  1  0  0  0  0
 26 34  1  0  0  0  0
 28 27  1  0  0  0  0
 30 29  1  0  0  0  0
 31 30  2  0  0  0  0
 33 32  1  0  0  0  0
 33 30  1  0  0  0  0
 35 34  1  0  0  0  0
 36 35  2  0  0  0  0
 37 35  1  0  0  0  0
M  END
>  <MODEL>
5

>  <REMARK>
 VINA RESULT:      -6.2      2.009      2.903
  Name = 
  11 active torsions:
  status: ('A' for Active; 'I' for Inactive)
    1  A    between atoms: C_1  and  C_5
    2  A    between atoms: C_1  and  C_36
    3  A    between atoms: C_5  and  C_23
    4  A    between atoms: C_6  and  C_31
    5  A    between atoms: C_11  and  C_33
    6  A    between atoms: C_18  and  C_19
    7  A    between atoms: C_20  and  O_32
    8  A    between atoms: C_21  and  O_32
    9  A    between atoms: C_27  and  C_36
   10  A    between atoms: C_29  and  C_36
   11  A    between atoms: C_33  and  C_36
                            x       y       z     vdW  Elec       q    Type
                         _______ _______ _______ _____ _____    ______ ____

>  <TORSDO>
F 11

$$$$
=
 OpenBabel11052420103D

 37 39  0  0  1  0  0  0  0  0999 V2000
  188.7600  173.8710  141.7870 C   0  0  0  0  0  2  0  0  0  0  0  0
  186.7320  175.0160  142.5800 C   0  0  0  0  0  1  0  0  0  0  0  0
  190.9510  175.0140  142.1110 C   0  0  0  0  0  0  0  0  0  0  0  0
  188.9660  178.3890  141.9220 O   0  0  0  0  0  0  0  0  0  0  0  0
  192.3000  175.1960  141.7940 C   0  0  0  0  0  3  0  0  0  0  0  0
  188.0790  175.2400  141.9190 C   0  0  1  0  0  0  0  0  0  0  0  0
  188.4840  177.5770  142.7540 C   0  0  0  0  0  0  0  0  0  0  0  0
  190.8190  173.1920  140.5200 C   0  0  0  0  0  3  0  0  0  0  0  0
  188.8890  176.2010  142.7100 N   0  0  0  0  0  0  0  0  0  0  0  0
  187.8650  175.7540  140.6370 O   0  0  0  0  0  1  0  0  0  0  0  0
  190.2070  174.0250  141.4600 C   0  0  0  0  0  0  0  0  0  0  0  0
  190.2750  175.8980  143.1240 C   0  0  1  0  0  3  0  0  0  0  0  0
  192.9220  174.3700  140.8450 C   0  0  0  0  0  0  0  0  0  0  0  0
  192.1720  173.3630  140.2160 C   0  0  0  0  0  3  0  0  0  0  0  0
  194.7450  174.3860  139.3330 O   0  0  0  0  0  0  0  0  0  0  0  0
  194.3460  174.5520  140.5180 C   0  0  0  0  0  0  0  0  0  0  0  0
  195.2740  174.9080  141.5520 N   0  0  0  0  0  2  0  0  0  0  0  0
  196.6670  175.1770  141.3550 C   0  0  0  0  0  0  0  0  0  0  0  0
  197.1670  175.2010  140.1990 O   0  0  0  0  0  0  0  0  0  0  0  0
  197.1260  176.7980  143.1470 C   0  0  0  0  0  1  0  0  0  0  0  0
  197.5280  175.4710  142.5330 C   0  0  0  0  0  2  0  0  0  0  0  0
  187.5690  178.0400  143.7020 O   0  0  0  0  0  0  0  0  0  0  0  0
  185.7740  179.4060  144.4940 C   0  0  0  0  0  2  0  0  0  0  0  0
  186.3030  178.5730  143.3440 C   0  0  0  0  0  3  0  0  0  0  0  0
  185.2470  178.0070  144.2720 C   0  0  0  0  0  2  0  0  0  0  0  0
  190.3760  175.4500  144.6190 C   0  0  1  0  0  0  0  0  0  0  0  0
  190.3630  172.8850  144.9640 C   0  0  0  0  0  1  0  0  0  0  0  0
  191.1990  174.1500  144.7990 C   0  0  0  0  0  2  0  0  0  0  0  0
  191.0910  176.5730  145.3980 C   0  0  0  0  0  2  0  0  0  0  0  0
  192.4710  176.2260  145.8850 C   0  0  0  0  0  0  0  0  0  0  0  0
  192.6270  175.7090  146.9800 O   0  0  0  0  0  0  0  0  0  0  0  0
  194.8270  176.2500  145.7440 O   0  0  0  0  0  1  0  0  0  0  0  0
  193.6590  176.5810  145.0580 C   0  0  0  0  0  2  0  0  0  0  0  0
  188.9580  175.2750  145.2100 C   0  0  0  0  0  2  0  0  0  0  0  0
  188.8080  175.7560  146.6220 C   0  0  0  0  0  0  0  0  0  0  0  0
  189.2180  175.0460  147.5750 O   0  0  0  0  0  0  0  0  0  0  0  0
  188.2010  177.0150  146.8880 N   0  0  0  0  0  1  0  0  0  0  0  0
  1  6  1  0  0  0  0
  3 12  1  0  0  0  0
  4  7  2  0  0  0  0
  5  3  1  0  0  0  0
  6  2  1  1  0  0  0
  6  9  1  0  0  0  0
  7 22  1  0  0  0  0
  8 11  1  0  0  0  0
  9  7  1  0  0  0  0
  9 12  1  0  0  0  0
 10  6  1  0  0  0  0
 11  1  1  0  0  0  0
 11  3  2  0  0  0  0
 12 26  1  1  0  0  0
 13  5  2  0  0  0  0
 14  8  2  0  0  0  0
 14 13  1  0  0  0  0
 15 16  2  0  0  0  0
 16 13  1  0  0  0  0
 16 17  1  0  0  0  0
 18 17  1  0  0  0  0
 18 21  1  0  0  0  0
 19 18  2  0  0  0  0
 21 20  1  0  0  0  0
 24 22  1  0  0  0  0
 24 25  1  0  0  0  0
 24 23  1  0  0  0  0
 25 23  1  0  0  0  0
 26 28  1  1  0  0  0
 26 34  1  0  0  0  0
 26 29  1  0  0  0  0
 28 27  1  0  0  0  0
 29 30  1  0  0  0  0
 30 31  2  0  0  0  0
 33 32  1  0  0  0  0
 33 30  1  0  0  0  0
 34 35  1  0  0  0  0
 35 37  1  0  0  0  0
 35 36  2  0  0  0  0
M  END
>  <MODEL>
6

>  <REMARK>
 VINA RESULT:      -6.2      2.282      7.905
  Name = 
  11 active torsions:
  status: ('A' for Active; 'I' for Inactive)
    1  A    between atoms: C_1  and  C_5
    2  A    between atoms: C_1  and  C_36
    3  A    between atoms: C_5  and  C_23
    4  A    between atoms: C_6  and  C_31
    5  A    between atoms: C_11  and  C_33
    6  A    between atoms: C_18  and  C_19
    7  A    between atoms: C_20  and  O_32
    8  A    between atoms: C_21  and  O_32
    9  A    between atoms: C_27  and  C_36
   10  A    between atoms: C_29  and  C_36
   11  A    between atoms: C_33  and  C_36
                            x       y       z     vdW  Elec       q    Type
                         _______ _______ _______ _____ _____    ______ ____

>  <TORSDO>
F 11

$$$$
=
 OpenBabel11052420103D

 37 39  0  0  1  0  0  0  0  0999 V2000
  190.4560  174.5190  141.5810 C   0  0  0  0  0  2  0  0  0  0  0  0
  192.1680  172.8740  140.9380 C   0  0  0  0  0  1  0  0  0  0  0  0
  190.1400  174.9900  144.0090 C   0  0  0  0  0  0  0  0  0  0  0  0
  191.3840  171.3300  144.6530 O   0  0  0  0  0  0  0  0  0  0  0  0
  189.3750  175.4660  145.0780 C   0  0  0  0  0  3  0  0  0  0  0  0
  191.1020  173.1830  141.9720 C   0  0  1  0  0  0  0  0  0  0  0  0
  192.1610  171.9940  143.9190 C   0  0  0  0  0  0  0  0  0  0  0  0
  188.3950  175.6520  142.4620 C   0  0  0  0  0  3  0  0  0  0  0  0
  191.6970  173.2200  143.3320 N   0  0  0  0  0  0  0  0  0  0  0  0
  190.1250  172.1860  141.9160 O   0  0  0  0  0  1  0  0  0  0  0  0
  189.6410  175.0660  142.7040 C   0  0  0  0  0  0  0  0  0  0  0  0
  191.4850  174.3610  144.2470 C   0  0  1  0  0  3  0  0  0  0  0  0
  188.1200  176.0490  144.8460 C   0  0  0  0  0  0  0  0  0  0  0  0
  187.6390  176.1420  143.5300 C   0  0  0  0  0  3  0  0  0  0  0  0
  187.6700  176.3140  147.1560 O   0  0  0  0  0  0  0  0  0  0  0  0
  187.3180  176.5620  145.9700 C   0  0  0  0  0  0  0  0  0  0  0  0
  186.1370  177.3320  145.7090 N   0  0  0  0  0  2  0  0  0  0  0  0
  185.3100  177.9390  146.7090 C   0  0  0  0  0  0  0  0  0  0  0  0
  185.6310  177.9050  147.9270 O   0  0  0  0  0  0  0  0  0  0  0  0
  184.1480  179.0080  144.8230 C   0  0  0  0  0  1  0  0  0  0  0  0
  184.0730  178.6570  146.2960 C   0  0  0  0  0  2  0  0  0  0  0  0
  193.4560  171.5220  143.6980 O   0  0  0  0  0  0  0  0  0  0  0  0
  194.7250  171.2350  145.7030 C   0  0  0  0  0  2  0  0  0  0  0  0
  194.0640  170.5450  144.5280 C   0  0  0  0  0  3  0  0  0  0  0  0
  195.5640  170.7660  144.5370 C   0  0  0  0  0  2  0  0  0  0  0  0
  192.7110  175.3320  144.2990 C   0  0  1  0  0  0  0  0  0  0  0  0
  192.3580  177.4080  142.7940 C   0  0  0  0  0  1  0  0  0  0  0  0
  192.2980  176.8210  144.2010 C   0  0  0  0  0  2  0  0  0  0  0  0
  193.4160  175.1260  145.6540 C   0  0  0  0  0  2  0  0  0  0  0  0
  193.2900  176.2760  146.6150 C   0  0  0  0  0  0  0  0  0  0  0  0
  194.2240  177.0440  146.7840 O   0  0  0  0  0  0  0  0  0  0  0  0
  191.5520  175.1830  147.7790 O   0  0  0  0  0  1  0  0  0  0  0  0
  192.0450  176.4360  147.4180 C   0  0  0  0  0  2  0  0  0  0  0  0
  193.7090  174.9760  143.1720 C   0  0  0  0  0  2  0  0  0  0  0  0
  195.1510  175.1620  143.5360 C   0  0  0  0  0  0  0  0  0  0  0  0
  195.7690  174.2490  144.1410 O   0  0  0  0  0  0  0  0  0  0  0  0
  195.8240  176.3690  143.1990 N   0  0  0  0  0  1  0  0  0  0  0  0
  1  6  1  0  0  0  0
  1 11  1  0  0  0  0
  3 12  1  0  0  0  0
  3  5  1  0  0  0  0
  6  2  1  6  0  0  0
  6  9  1  0  0  0  0
  7  4  2  0  0  0  0
  8 11  1  0  0  0  0
  8 14  2  0  0  0  0
  9  7  1  0  0  0  0
  9 12  1  0  0  0  0
 10  6  1  0  0  0  0
 11  3  2  0  0  0  0
 12 26  1  6  0  0  0
 13  5  2  0  0  0  0
 13 16  1  0  0  0  0
 14 13  1  0  0  0  0
 16 15  2  0  0  0  0
 17 16  1  0  0  0  0
 17 18  1  0  0  0  0
 18 19  2  0  0  0  0
 20 21  1  0  0  0  0
 21 18  1  0  0  0  0
 22  7  1  0  0  0  0
 22 24  1  0  0  0  0
 24 25  1  0  0  0  0
 24 23  1  0  0  0  0
 25 23  1  0  0  0  0
 26 34  1  6  0  0  0
 26 29  1  0  0  0  0
 27 28  1  0  0  0  0
 28 26  1  0  0  0  0
 29 30  1  0  0  0  0
 30 31  2  0  0  0  0
 30 33  1  0  0  0  0
 33 32  1  0  0  0  0
 34 35  1  0  0  0  0
 35 36  2  0  0  0  0
 37 35  1  0  0  0  0
M  END
>  <MODEL>
7

>  <REMARK>
 VINA RESULT:      -6.0      2.421      5.160
  Name = 
  11 active torsions:
  status: ('A' for Active; 'I' for Inactive)
    1  A    between atoms: C_1  and  C_5
    2  A    between atoms: C_1  and  C_36
    3  A    between atoms: C_5  and  C_23
    4  A    between atoms: C_6  and  C_31
    5  A    between atoms: C_11  and  C_33
    6  A    between atoms: C_18  and  C_19
    7  A    between atoms: C_20  and  O_32
    8  A    between atoms: C_21  and  O_32
    9  A    between atoms: C_27  and  C_36
   10  A    between atoms: C_29  and  C_36
   11  A    between atoms: C_33  and  C_36
                            x       y       z     vdW  Elec       q    Type
                         _______ _______ _______ _____ _____    ______ ____

>  <TORSDO>
F 11

$$$$
=
 OpenBabel11052420103D

 37 39  0  0  1  0  0  0  0  0999 V2000
  192.2780  176.3890  144.6950 C   0  0  0  0  0  2  0  0  0  0  0  0
  190.3710  177.8820  145.1240 C   0  0  0  0  0  1  0  0  0  0  0  0
  191.8750  173.9290  144.7560 C   0  0  0  0  0  0  0  0  0  0  0  0
  188.9840  174.6930  147.2910 O   0  0  0  0  0  0  0  0  0  0  0  0
  192.3290  172.6130  144.8800 C   0  0  0  0  0  3  0  0  0  0  0  0
  191.0100  176.5710  145.5400 C   0  0  1  0  0  0  0  0  0  0  0  0
  188.9110  175.3750  146.2370 C   0  0  0  0  0  0  0  0  0  0  0  0
  194.1550  174.7340  144.9100 C   0  0  0  0  0  3  0  0  0  0  0  0
  190.0500  175.4510  145.3670 N   0  0  0  0  0  0  0  0  0  0  0  0
  191.3830  176.6640  146.8840 O   0  0  0  0  0  1  0  0  0  0  0  0
  192.7870  174.9900  144.7910 C   0  0  0  0  0  0  0  0  0  0  0  0
  190.4060  174.2250  144.6220 C   0  0  1  0  0  3  0  0  0  0  0  0
  193.7010  172.3470  145.0080 C   0  0  0  0  0  0  0  0  0  0  0  0
  194.6100  173.4170  145.0160 C   0  0  0  0  0  3  0  0  0  0  0  0
  193.5450  170.0250  144.5680 O   0  0  0  0  0  0  0  0  0  0  0  0
  194.1820  170.9600  145.1260 C   0  0  0  0  0  0  0  0  0  0  0  0
  195.3680  170.6790  145.8820 N   0  0  0  0  0  2  0  0  0  0  0  0
  195.9730  169.3890  146.0200 C   0  0  0  0  0  0  0  0  0  0  0  0
  195.5310  168.3920  145.3880 O   0  0  0  0  0  0  0  0  0  0  0  0
  196.8660  168.2500  148.0080 C   0  0  0  0  0  1  0  0  0  0  0  0
  197.1690  169.2310  146.8930 C   0  0  0  0  0  2  0  0  0  0  0  0
  187.7190  176.0390  145.9400 O   0  0  0  0  0  0  0  0  0  0  0  0
  185.5590  176.8490  146.5670 C   0  0  0  0  0  2  0  0  0  0  0  0
  187.0390  176.8490  146.8860 C   0  0  0  0  0  3  0  0  0  0  0  0
  186.4140  178.0290  146.1700 C   0  0  0  0  0  2  0  0  0  0  0  0
  189.8190  174.2060  143.1720 C   0  0  1  0  0  0  0  0  0  0  0  0
  187.9350  172.6920  142.2460 C   0  0  0  0  0  1  0  0  0  0  0  0
  189.3810  172.7900  142.7240 C   0  0  0  0  0  2  0  0  0  0  0  0
  188.5730  175.1130  143.1580 C   0  0  0  0  0  2  0  0  0  0  0  0
  188.5930  176.2020  142.1210 C   0  0  0  0  0  0  0  0  0  0  0  0
  189.1940  177.2440  142.3310 O   0  0  0  0  0  0  0  0  0  0  0  0
  187.2170  177.2480  140.5130 O   0  0  0  0  0  1  0  0  0  0  0  0
  187.8160  176.0370  140.8590 C   0  0  0  0  0  2  0  0  0  0  0  0
  190.8540  174.7860  142.1810 C   0  0  0  0  0  2  0  0  0  0  0  0
  191.2770  173.8410  141.0970 C   0  0  0  0  0  0  0  0  0  0  0  0
  190.6230  173.7830  140.0240 O   0  0  0  0  0  0  0  0  0  0  0  0
  192.4150  173.0080  141.2770 N   0  0  0  0  0  1  0  0  0  0  0  0
  1 11  1  0  0  0  0
  1  6  1  0  0  0  0
  3 11  2  0  0  0  0
  3  5  1  0  0  0  0
  5 13  2  0  0  0  0
  6  2  1  6  0  0  0
  6 10  1  0  0  0  0
  7  4  2  0  0  0  0
  8 14  2  0  0  0  0
  9  6  1  0  0  0  0
  9  7  1  0  0  0  0
 11  8  1  0  0  0  0
 12 26  1  6  0  0  0
 12  3  1  0  0  0  0
 12  9  1  0  0  0  0
 13 14  1  0  0  0  0
 13 16  1  0  0  0  0
 15 16  2  0  0  0  0
 16 17  1  0  0  0  0
 17 18  1  0  0  0  0
 18 21  1  0  0  0  0
 19 18  2  0  0  0  0
 21 20  1  0  0  0  0
 22  7  1  0  0  0  0
 22 24  1  0  0  0  0
 23 24  1  0  0  0  0
 25 23  1  0  0  0  0
 25 24  1  0  0  0  0
 26 34  1  6  0  0  0
 27 28  1  0  0  0  0
 28 26  1  0  0  0  0
 29 26  1  0  0  0  0
 30 31  2  0  0  0  0
 30 29  1  0  0  0  0
 32 33  1  0  0  0  0
 33 30  1  0  0  0  0
 35 37  1  0  0  0  0
 35 34  1  0  0  0  0
 36 35  2  0  0  0  0
M  END
>  <MODEL>
8

>  <REMARK>
 VINA RESULT:      -5.9      3.088      7.717
  Name = 
  11 active torsions:
  status: ('A' for Active; 'I' for Inactive)
    1  A    between atoms: C_1  and  C_5
    2  A    between atoms: C_1  and  C_36
    3  A    between atoms: C_5  and  C_23
    4  A    between atoms: C_6  and  C_31
    5  A    between atoms: C_11  and  C_33
    6  A    between atoms: C_18  and  C_19
    7  A    between atoms: C_20  and  O_32
    8  A    between atoms: C_21  and  O_32
    9  A    between atoms: C_27  and  C_36
   10  A    between atoms: C_29  and  C_36
   11  A    between atoms: C_33  and  C_36
                            x       y       z     vdW  Elec       q    Type
                         _______ _______ _______ _____ _____    ______ ____

>  <TORSDO>
F 11

$$$$
=
 OpenBabel11052420103D

 37 39  0  0  1  0  0  0  0  0999 V2000
  192.9310  175.6030  146.4100 C   0  0  0  0  0  2  0  0  0  0  0  0
  195.2200  174.9520  145.7840 C   0  0  0  0  0  1  0  0  0  0  0  0
  191.2500  175.8650  144.5880 C   0  0  0  0  0  0  0  0  0  0  0  0
  194.2570  176.7940  142.2510 O   0  0  0  0  0  0  0  0  0  0  0  0
  190.0430  176.3690  144.0940 C   0  0  0  0  0  3  0  0  0  0  0  0
  194.0320  175.7950  145.3580 C   0  0  1  0  0  0  0  0  0  0  0  0
  194.4310  175.7160  142.8770 C   0  0  0  0  0  0  0  0  0  0  0  0
  190.7740  176.8410  146.7540 C   0  0  0  0  0  3  0  0  0  0  0  0
  193.5860  175.4080  143.9960 N   0  0  0  0  0  0  0  0  0  0  0  0
  194.4170  177.1380  145.3600 O   0  0  0  0  0  1  0  0  0  0  0  0
  191.6230  176.1180  145.9120 C   0  0  0  0  0  0  0  0  0  0  0  0
  192.1760  175.0800  143.7000 C   0  0  1  0  0  3  0  0  0  0  0  0
  189.1880  177.1040  144.9290 C   0  0  0  0  0  0  0  0  0  0  0  0
  189.5600  177.3300  146.2640 C   0  0  0  0  0  3  0  0  0  0  0  0
  187.0660  178.1180  145.2100 O   0  0  0  0  0  0  0  0  0  0  0  0
  187.9110  177.6250  144.4130 C   0  0  0  0  0  0  0  0  0  0  0  0
  187.6310  177.5590  143.0080 N   0  0  0  0  0  2  0  0  0  0  0  0
  186.4600  178.0860  142.3740 C   0  0  0  0  0  0  0  0  0  0  0  0
  185.6070  178.7440  143.0280 O   0  0  0  0  0  0  0  0  0  0  0  0
  184.8660  178.3050  140.5140 C   0  0  0  0  0  1  0  0  0  0  0  0
  186.2680  177.8870  140.9110 C   0  0  0  0  0  2  0  0  0  0  0  0
  195.4400  174.8450  142.4610 O   0  0  0  0  0  0  0  0  0  0  0  0
  197.6240  174.3930  141.6000 C   0  0  0  0  0  2  0  0  0  0  0  0
  196.8180  175.1280  142.6510 C   0  0  0  0  0  3  0  0  0  0  0  0
  197.5430  173.8440  143.0050 C   0  0  0  0  0  2  0  0  0  0  0  0
  191.9180  173.5400  143.6090 C   0  0  1  0  0  0  0  0  0  0  0  0
  189.7230  172.3750  144.3320 C   0  0  0  0  0  1  0  0  0  0  0  0
  191.0380  173.0130  144.7690 C   0  0  0  0  0  2  0  0  0  0  0  0
  191.1710  173.2660  142.2880 C   0  0  0  0  0  2  0  0  0  0  0  0
  192.0580  172.9950  141.1040 C   0  0  0  0  0  0  0  0  0  0  0  0
  192.5520  173.9190  140.4770 O   0  0  0  0  0  0  0  0  0  0  0  0
  192.8120  171.5920  139.3620 O   0  0  0  0  0  1  0  0  0  0  0  0
  192.2760  171.5920  140.6490 C   0  0  0  0  0  2  0  0  0  0  0  0
  193.2660  172.7850  143.5710 C   0  0  0  0  0  2  0  0  0  0  0  0
  193.4040  171.7030  144.6000 C   0  0  0  0  0  0  0  0  0  0  0  0
  193.9450  171.9550  145.7070 O   0  0  0  0  0  0  0  0  0  0  0  0
  192.9240  170.3920  144.3290 N   0  0  0  0  0  1  0  0  0  0  0  0
  3 11  1  0  0  0  0
  4  7  2  0  0  0  0
  5  3  2  0  0  0  0
  5 13  1  0  0  0  0
  6 10  1  0  0  0  0
  6  2  1  1  0  0  0
  6  1  1  0  0  0  0
  7  9  1  0  0  0  0
  9  6  1  0  0  0  0
 11  1  1  0  0  0  0
 11  8  2  0  0  0  0
 12 26  1  1  0  0  0
 12  9  1  0  0  0  0
 12  3  1  0  0  0  0
 13 14  2  0  0  0  0
 14  8  1  0  0  0  0
 16 13  1  0  0  0  0
 16 15  2  0  0  0  0
 17 16  1  0  0  0  0
 18 17  1  0  0  0  0
 18 19  2  0  0  0  0
 20 21  1  0  0  0  0
 21 18  1  0  0  0  0
 22 24  1  0  0  0  0
 22  7  1  0  0  0  0
 23 24  1  0  0  0  0
 23 25  1  0  0  0  0
 24 25  1  0  0  0  0
 26 29  1  6  0  0  0
 26 28  1  0  0  0  0
 27 28  1  0  0  0  0
 30 29  1  0  0  0  0
 31 30  2  0  0  0  0
 32 33  1  0  0  0  0
 33 30  1  0  0  0  0
 34 26  1  0  0  0  0
 34 35  1  0  0  0  0
 35 36  2  0  0  0  0
 37 35  1  0  0  0  0
M  END
>  <MODEL>
9

>  <REMARK>
 VINA RESULT:      -5.8      2.161      2.912
  Name = 
  11 active torsions:
  status: ('A' for Active; 'I' for Inactive)
    1  A    between atoms: C_1  and  C_5
    2  A    between atoms: C_1  and  C_36
    3  A    between atoms: C_5  and  C_23
    4  A    between atoms: C_6  and  C_31
    5  A    between atoms: C_11  and  C_33
    6  A    between atoms: C_18  and  C_19
    7  A    between atoms: C_20  and  O_32
    8  A    between atoms: C_21  and  O_32
    9  A    between atoms: C_27  and  C_36
   10  A    between atoms: C_29  and  C_36
   11  A    between atoms: C_33  and  C_36
                            x       y       z     vdW  Elec       q    Type
                         _______ _______ _______ _____ _____    ______ ____

>  <TORSDO>
F 11

$$$$
