=
 OpenBabel11052417373D

 25 28  0  0  1  0  0  0  0  0999 V2000
  186.8860  176.7700  144.0500 C   0  0  0  0  0  0  0  0  0  0  0  0
  188.0120  176.1030  143.7900 C   0  0  0  0  0  0  0  0  0  0  0  0
  186.2700  177.0210  141.7940 N   0  0  0  0  0  0  0  0  0  0  0  0
  186.3120  177.1880  145.2310 C   0  0  0  0  0  0  0  0  0  0  0  0
  184.7070  178.3130  147.1880 C   0  0  0  0  0  3  0  0  0  0  0  0
  187.4000  176.2050  141.3230 C   0  0  0  0  0  2  0  0  0  0  0  0
  185.1740  177.8830  144.8750 C   0  0  0  0  0  0  0  0  0  0  0  0
  184.3450  178.4590  145.8360 C   0  0  0  0  0  3  0  0  0  0  0  0
  185.8740  177.6070  147.5480 C   0  0  0  0  0  3  0  0  0  0  0  0
  186.0530  177.2330  143.0560 C   0  0  0  0  0  0  0  0  0  0  0  0
  184.9960  177.9260  143.5360 N   0  0  0  0  0  2  0  0  0  0  0  0
  186.6970  177.0340  146.5620 C   0  0  0  0  0  3  0  0  0  0  0  0
  188.3540  175.8880  142.4010 N   0  0  0  0  0  0  0  0  0  0  0  0
  189.5940  175.2240  142.0240 C   0  0  0  0  0  2  0  0  0  0  0  0
  188.7850  172.9970  142.2370 O   0  0  0  0  0  1  0  0  0  0  0  0
  189.2940  173.9140  141.3190 C   0  0  0  0  0  2  0  0  0  0  0  0
  188.8940  175.6000  144.8950 C   0  0  0  0  0  2  0  0  0  0  0  0
  192.1560  175.7860  146.0060 C   0  0  0  0  0  0  0  0  0  0  0  0
  190.0410  176.4790  145.0650 N   0  0  0  0  0  0  0  0  0  0  0  0
  192.8210  174.4500  146.2700 C   0  0  0  0  0  1  0  0  0  0  0  0
  193.2150  176.8490  145.7430 C   0  0  0  0  0  1  0  0  0  0  0  0
  190.0730  176.8700  146.4720 C   0  0  0  0  0  2  0  0  0  0  0  0
  191.8210  176.9550  148.1040 O   0  0  0  0  0  1  0  0  0  0  0  0
  191.2450  175.6860  144.8060 C   0  0  0  0  0  2  0  0  0  0  0  0
  191.2190  176.1430  147.1380 C   0  0  2  0  0  3  0  0  0  0  0  0
  1  4  1  0  0  0  0
  2  1  2  0  0  0  0
  2 17  1  0  0  0  0
  3 10  2  0  0  0  0
  4 12  1  0  0  0  0
  5  9  1  0  0  0  0
  6  3  1  0  0  0  0
  6 13  1  0  0  0  0
  7  4  2  0  0  0  0
  7  8  1  0  0  0  0
  8  5  2  0  0  0  0
 10 11  1  0  0  0  0
 10  1  1  0  0  0  0
 11  7  1  0  0  0  0
 12  9  2  0  0  0  0
 13  2  1  0  0  0  0
 14 13  1  0  0  0  0
 16 14  1  0  0  0  0
 16 15  1  0  0  0  0
 17 19  1  0  0  0  0
 18 20  1  0  0  0  0
 18 25  1  0  0  0  0
 19 22  1  0  0  0  0
 21 18  1  0  0  0  0
 22 25  1  0  0  0  0
 24 19  1  0  0  0  0
 24 18  1  0  0  0  0
 25 23  1  1  0  0  0
M  END
>  <MODEL>
1

>  <REMARK>
 VINA RESULT:      -7.2      0.000      0.000
  Name = 
  4 active torsions:
  status: ('A' for Active; 'I' for Inactive)
    1  A    between atoms: C_3  and  C_16
    2  A    between atoms: N_6  and  C_16
    3  A    between atoms: C_13  and  C_20
    4  A    between atoms: C_13  and  N_24
                            x       y       z     vdW  Elec       q    Type
                         _______ _______ _______ _____ _____    ______ ____

>  <TORSDO>
F 4

$$$$
=
 OpenBabel11052417373D

 25 28  0  0  1  0  0  0  0  0999 V2000
  185.9200  177.8560  143.7320 C   0  0  0  0  0  0  0  0  0  0  0  0
  186.7240  177.5560  142.7110 C   0  0  0  0  0  0  0  0  0  0  0  0
  184.0890  178.4570  142.3830 N   0  0  0  0  0  0  0  0  0  0  0  0
  186.1160  177.8440  145.0960 C   0  0  0  0  0  0  0  0  0  0  0  0
  185.8830  178.0750  147.8460 C   0  0  0  0  0  3  0  0  0  0  0  0
  184.7840  178.0650  141.1470 C   0  0  0  0  0  2  0  0  0  0  0  0
  184.9420  178.3060  145.6530 C   0  0  0  0  0  0  0  0  0  0  0  0
  184.7920  178.4330  147.0320 C   0  0  0  0  0  3  0  0  0  0  0  0
  187.0850  177.6070  147.2740 C   0  0  0  0  0  3  0  0  0  0  0  0
  184.6360  178.3190  143.5530 C   0  0  0  0  0  0  0  0  0  0  0  0
  184.0140  178.6090  144.7180 N   0  0  0  0  0  2  0  0  0  0  0  0
  187.2140  177.4890  145.8790 C   0  0  0  0  0  3  0  0  0  0  0  0
  186.2060  177.7500  141.3750 N   0  0  0  0  0  0  0  0  0  0  0  0
  187.0340  177.5070  140.2010 C   0  0  0  0  0  2  0  0  0  0  0  0
  186.8100  176.2360  138.2040 O   0  0  0  0  0  1  0  0  0  0  0  0
  186.1630  177.1760  139.0040 C   0  0  0  0  0  2  0  0  0  0  0  0
  188.1160  177.0420  142.9380 C   0  0  0  0  0  2  0  0  0  0  0  0
  190.0750  174.2460  143.4470 C   0  0  0  0  0  0  0  0  0  0  0  0
  188.1040  175.5920  143.0690 N   0  0  0  0  0  0  0  0  0  0  0  0
  191.4880  174.5300  143.9150 C   0  0  0  0  0  1  0  0  0  0  0  0
  189.6690  172.8330  143.8490 C   0  0  0  0  0  1  0  0  0  0  0  0
  188.5450  175.0470  141.7880 C   0  0  0  0  0  2  0  0  0  0  0  0
  190.1290  173.3530  141.1930 O   0  0  0  0  0  1  0  0  0  0  0  0
  189.1130  175.2330  144.0670 C   0  0  0  0  0  2  0  0  0  0  0  0
  189.9460  174.5060  141.9630 C   0  0  2  0  0  3  0  0  0  0  0  0
  1  4  1  0  0  0  0
  2 17  1  0  0  0  0
  2  1  2  0  0  0  0
  3 10  2  0  0  0  0
  4  7  2  0  0  0  0
  4 12  1  0  0  0  0
  6 13  1  0  0  0  0
  6  3  1  0  0  0  0
  7  8  1  0  0  0  0
  8  5  2  0  0  0  0
  9  5  1  0  0  0  0
 10  1  1  0  0  0  0
 10 11  1  0  0  0  0
 11  7  1  0  0  0  0
 12  9  2  0  0  0  0
 13  2  1  0  0  0  0
 14 13  1  0  0  0  0
 15 16  1  0  0  0  0
 16 14  1  0  0  0  0
 17 19  1  0  0  0  0
 18 21  1  0  0  0  0
 18 20  1  0  0  0  0
 18 24  1  0  0  0  0
 19 24  1  0  0  0  0
 22 25  1  0  0  0  0
 22 19  1  0  0  0  0
 25 23  1  6  0  0  0
 25 18  1  0  0  0  0
M  END
>  <MODEL>
2

>  <REMARK>
 VINA RESULT:      -7.0      2.380      3.546
  Name = 
  4 active torsions:
  status: ('A' for Active; 'I' for Inactive)
    1  A    between atoms: C_3  and  C_16
    2  A    between atoms: N_6  and  C_16
    3  A    between atoms: C_13  and  C_20
    4  A    between atoms: C_13  and  N_24
                            x       y       z     vdW  Elec       q    Type
                         _______ _______ _______ _____ _____    ______ ____

>  <TORSDO>
F 4

$$$$
=
 OpenBabel11052417373D

 25 28  0  0  1  0  0  0  0  0999 V2000
  189.6620  175.7420  143.8630 C   0  0  0  0  0  0  0  0  0  0  0  0
  188.5960  176.4600  143.5070 C   0  0  0  0  0  0  0  0  0  0  0  0
  189.5910  174.3250  141.9870 N   0  0  0  0  0  0  0  0  0  0  0  0
  190.4890  175.8010  144.9640 C   0  0  0  0  0  0  0  0  0  0  0  0
  192.4330  175.3720  146.8900 C   0  0  0  0  0  3  0  0  0  0  0  0
  188.4790  175.0720  141.3790 C   0  0  0  0  0  2  0  0  0  0  0  0
  191.3930  174.7690  144.8140 C   0  0  0  0  0  0  0  0  0  0  0  0
  192.3830  174.5280  145.7650 C   0  0  0  0  0  3  0  0  0  0  0  0
  191.5030  176.4230  147.0420 C   0  0  0  0  0  3  0  0  0  0  0  0
  190.1240  174.6830  143.1150 C   0  0  0  0  0  0  0  0  0  0  0  0
  191.1850  174.0630  143.6820 N   0  0  0  0  0  2  0  0  0  0  0  0
  190.5120  176.6470  146.0710 C   0  0  0  0  0  3  0  0  0  0  0  0
  187.9080  176.0760  142.2940 N   0  0  0  0  0  0  0  0  0  0  0  0
  186.6980  176.7640  141.8620 C   0  0  0  0  0  2  0  0  0  0  0  0
  185.7810  178.0910  140.1150 O   0  0  0  0  0  1  0  0  0  0  0  0
  186.9790  177.5880  140.6190 C   0  0  0  0  0  2  0  0  0  0  0  0
  188.1220  177.6180  144.3370 C   0  0  0  0  0  2  0  0  0  0  0  0
  185.8040  178.4800  146.7440 C   0  0  0  0  0  0  0  0  0  0  0  0
  186.7770  177.3670  144.8330 N   0  0  0  0  0  0  0  0  0  0  0  0
  186.1350  179.7310  147.5330 C   0  0  0  0  0  1  0  0  0  0  0  0
  184.3030  178.2210  146.7880 C   0  0  0  0  0  1  0  0  0  0  0  0
  186.9100  176.4930  145.9960 C   0  0  0  0  0  2  0  0  0  0  0  0
  185.9580  176.5410  148.1910 O   0  0  0  0  0  1  0  0  0  0  0  0
  186.2380  178.6430  145.3060 C   0  0  0  0  0  2  0  0  0  0  0  0
  186.6270  177.3110  147.2360 C   0  0  2  0  0  3  0  0  0  0  0  0
  1  4  1  0  0  0  0
  2  1  2  0  0  0  0
  2 17  1  0  0  0  0
  3 10  2  0  0  0  0
  4 12  1  0  0  0  0
  5  9  1  0  0  0  0
  6  3  1  0  0  0  0
  6 13  1  0  0  0  0
  7  4  2  0  0  0  0
  7  8  1  0  0  0  0
  8  5  2  0  0  0  0
 10 11  1  0  0  0  0
 10  1  1  0  0  0  0
 11  7  1  0  0  0  0
 12  9  2  0  0  0  0
 13  2  1  0  0  0  0
 14 13  1  0  0  0  0
 15 16  1  0  0  0  0
 16 14  1  0  0  0  0
 17 19  1  0  0  0  0
 18 21  1  0  0  0  0
 18 25  1  0  0  0  0
 18 20  1  0  0  0  0
 19 24  1  0  0  0  0
 19 22  1  0  0  0  0
 22 25  1  0  0  0  0
 24 18  1  0  0  0  0
 25 23  1  1  0  0  0
M  END
>  <MODEL>
3

>  <REMARK>
 VINA RESULT:      -6.8      2.162      5.527
  Name = 
  4 active torsions:
  status: ('A' for Active; 'I' for Inactive)
    1  A    between atoms: C_3  and  C_16
    2  A    between atoms: N_6  and  C_16
    3  A    between atoms: C_13  and  C_20
    4  A    between atoms: C_13  and  N_24
                            x       y       z     vdW  Elec       q    Type
                         _______ _______ _______ _____ _____    ______ ____

>  <TORSDO>
F 4

$$$$
=
 OpenBabel11052417373D

 25 28  0  0  1  0  0  0  0  0999 V2000
  188.0150  177.4870  145.2860 C   0  0  0  0  0  0  0  0  0  0  0  0
  188.9660  177.0870  144.4400 C   0  0  0  0  0  0  0  0  0  0  0  0
  189.3450  177.2570  147.2120 N   0  0  0  0  0  0  0  0  0  0  0  0
  186.7050  177.8680  145.0900 C   0  0  0  0  0  0  0  0  0  0  0  0
  184.0690  178.6680  145.3750 C   0  0  0  0  0  3  0  0  0  0  0  0
  190.5410  176.9090  146.4280 C   0  0  0  0  0  2  0  0  0  0  0  0
  186.1930  178.1230  146.3460 C   0  0  0  0  0  0  0  0  0  0  0  0
  184.8710  178.5280  146.5220 C   0  0  0  0  0  3  0  0  0  0  0  0
  184.5940  178.4010  144.0930 C   0  0  0  0  0  3  0  0  0  0  0  0
  188.2120  177.5430  146.6470 C   0  0  0  0  0  0  0  0  0  0  0  0
  187.1050  177.9250  147.3230 N   0  0  0  0  0  2  0  0  0  0  0  0
  185.9300  177.9920  143.9380 C   0  0  0  0  0  3  0  0  0  0  0  0
  190.2360  176.6870  145.0030 N   0  0  0  0  0  0  0  0  0  0  0  0
  191.3090  176.1790  144.1600 C   0  0  0  0  0  2  0  0  0  0  0  0
  193.3230  175.0390  144.7100 O   0  0  0  0  0  1  0  0  0  0  0  0
  191.9340  174.9490  144.7910 C   0  0  0  0  0  2  0  0  0  0  0  0
  188.7250  177.0470  142.9580 C   0  0  0  0  0  2  0  0  0  0  0  0
  188.8020  173.7520  141.9350 C   0  0  0  0  0  0  0  0  0  0  0  0
  187.9090  175.8940  142.6100 N   0  0  0  0  0  0  0  0  0  0  0  0
  190.1580  173.0830  142.0330 C   0  0  0  0  0  1  0  0  0  0  0  0
  187.7010  172.7000  141.9580 C   0  0  0  0  0  1  0  0  0  0  0  0
  187.8800  175.8180  141.1520 C   0  0  0  0  0  2  0  0  0  0  0  0
  188.1940  174.0210  139.6030 O   0  0  0  0  0  1  0  0  0  0  0  0
  188.6060  174.7000  143.0950 C   0  0  0  0  0  2  0  0  0  0  0  0
  188.7430  174.6530  140.7220 C   0  0  2  0  0  3  0  0  0  0  0  0
  1 10  1  0  0  0  0
  2 13  1  0  0  0  0
  2  1  2  0  0  0  0
  4  1  1  0  0  0  0
  4  7  1  0  0  0  0
  5  8  1  0  0  0  0
  6  3  1  0  0  0  0
  7  8  2  0  0  0  0
  7 11  1  0  0  0  0
  9  5  2  0  0  0  0
 10  3  2  0  0  0  0
 10 11  1  0  0  0  0
 12  9  1  0  0  0  0
 12  4  2  0  0  0  0
 13  6  1  0  0  0  0
 14 16  1  0  0  0  0
 14 13  1  0  0  0  0
 15 16  1  0  0  0  0
 17  2  1  0  0  0  0
 18 21  1  0  0  0  0
 18 20  1  0  0  0  0
 18 24  1  0  0  0  0
 19 17  1  0  0  0  0
 19 24  1  0  0  0  0
 22 19  1  0  0  0  0
 25 23  1  6  0  0  0
 25 22  1  0  0  0  0
 25 18  1  0  0  0  0
M  END
>  <MODEL>
4

>  <REMARK>
 VINA RESULT:      -6.6      1.744      4.669
  Name = 
  4 active torsions:
  status: ('A' for Active; 'I' for Inactive)
    1  A    between atoms: C_3  and  C_16
    2  A    between atoms: N_6  and  C_16
    3  A    between atoms: C_13  and  C_20
    4  A    between atoms: C_13  and  N_24
                            x       y       z     vdW  Elec       q    Type
                         _______ _______ _______ _____ _____    ______ ____

>  <TORSDO>
F 4

$$$$
=
 OpenBabel11052417373D

 25 28  0  0  1  0  0  0  0  0999 V2000
  189.2820  177.1330  145.4640 C   0  0  0  0  0  0  0  0  0  0  0  0
  188.3450  177.3340  144.5350 C   0  0  0  0  0  0  0  0  0  0  0  0
  187.9110  177.7460  147.2740 N   0  0  0  0  0  0  0  0  0  0  0  0
  190.5980  176.7350  145.3770 C   0  0  0  0  0  0  0  0  0  0  0  0
  193.2350  176.0450  145.8710 C   0  0  0  0  0  3  0  0  0  0  0  0
  186.7290  177.9070  146.4130 C   0  0  0  0  0  2  0  0  0  0  0  0
  191.0870  176.7570  146.6670 C   0  0  0  0  0  0  0  0  0  0  0  0
  192.4080  176.4140  146.9480 C   0  0  0  0  0  3  0  0  0  0  0  0
  192.7330  176.0300  144.5510 C   0  0  0  0  0  3  0  0  0  0  0  0
  189.0580  177.3620  146.8030 C   0  0  0  0  0  0  0  0  0  0  0  0
  190.1540  177.1440  147.5640 N   0  0  0  0  0  2  0  0  0  0  0  0
  191.3970  176.3810  144.2900 C   0  0  0  0  0  3  0  0  0  0  0  0
  187.0610  177.8280  144.9790 N   0  0  0  0  0  0  0  0  0  0  0  0
  186.0000  178.1340  144.0290 C   0  0  0  0  0  2  0  0  0  0  0  0
  185.5280  180.4540  144.2550 O   0  0  0  0  0  1  0  0  0  0  0  0
  185.0690  179.1850  144.6030 C   0  0  0  0  0  2  0  0  0  0  0  0
  188.6160  177.0640  143.0830 C   0  0  0  0  0  2  0  0  0  0  0  0
  188.8250  173.8880  141.7500 C   0  0  0  0  0  0  0  0  0  0  0  0
  187.8470  175.9140  142.6320 N   0  0  0  0  0  0  0  0  0  0  0  0
  190.2100  173.2720  141.7750 C   0  0  0  0  0  1  0  0  0  0  0  0
  187.7710  172.7900  141.6790 C   0  0  0  0  0  1  0  0  0  0  0  0
  187.8070  175.9760  141.1730 C   0  0  0  0  0  2  0  0  0  0  0  0
  188.1820  174.3490  139.4590 O   0  0  0  0  0  1  0  0  0  0  0  0
  188.6000  174.7120  142.9960 C   0  0  0  0  0  2  0  0  0  0  0  0
  188.7150  174.8960  140.6290 C   0  0  2  0  0  3  0  0  0  0  0  0
  1 10  1  0  0  0  0
  2 13  1  0  0  0  0
  2  1  2  0  0  0  0
  4  1  1  0  0  0  0
  4  7  1  0  0  0  0
  5  8  1  0  0  0  0
  6  3  1  0  0  0  0
  7  8  2  0  0  0  0
  7 11  1  0  0  0  0
  9  5  2  0  0  0  0
 10  3  2  0  0  0  0
 10 11  1  0  0  0  0
 12  9  1  0  0  0  0
 12  4  2  0  0  0  0
 13  6  1  0  0  0  0
 14 16  1  0  0  0  0
 14 13  1  0  0  0  0
 15 16  1  0  0  0  0
 17  2  1  0  0  0  0
 18 20  1  0  0  0  0
 18 24  1  0  0  0  0
 19 24  1  0  0  0  0
 19 17  1  0  0  0  0
 21 18  1  0  0  0  0
 22 19  1  0  0  0  0
 25 23  1  6  0  0  0
 25 22  1  0  0  0  0
 25 18  1  0  0  0  0
M  END
>  <MODEL>
5

>  <REMARK>
 VINA RESULT:      -6.6      2.272      6.093
  Name = 
  4 active torsions:
  status: ('A' for Active; 'I' for Inactive)
    1  A    between atoms: C_3  and  C_16
    2  A    between atoms: N_6  and  C_16
    3  A    between atoms: C_13  and  C_20
    4  A    between atoms: C_13  and  N_24
                            x       y       z     vdW  Elec       q    Type
                         _______ _______ _______ _____ _____    ______ ____

>  <TORSDO>
F 4

$$$$
=
 OpenBabel11052417373D

 25 28  0  0  1  0  0  0  0  0999 V2000
  186.9270  177.0400  142.4180 C   0  0  0  0  0  0  0  0  0  0  0  0
  187.7040  175.9900  142.1470 C   0  0  0  0  0  0  0  0  0  0  0  0
  186.4170  177.5040  140.1690 N   0  0  0  0  0  0  0  0  0  0  0  0
  186.5780  177.6490  143.6040 C   0  0  0  0  0  0  0  0  0  0  0  0
  185.5630  179.3090  145.5750 C   0  0  0  0  0  3  0  0  0  0  0  0
  187.1380  176.3140  139.6890 C   0  0  0  0  0  2  0  0  0  0  0  0
  185.7890  178.7270  143.2600 C   0  0  0  0  0  0  0  0  0  0  0  0
  185.2630  179.5800  144.2270 C   0  0  0  0  0  3  0  0  0  0  0  0
  186.3740  178.2080  145.9240 C   0  0  0  0  0  3  0  0  0  0  0  0
  186.3200  177.7860  141.4330 C   0  0  0  0  0  0  0  0  0  0  0  0
  185.6200  178.8340  141.9230 N   0  0  0  0  0  2  0  0  0  0  0  0
  186.8960  177.3610  144.9310 C   0  0  0  0  0  3  0  0  0  0  0  0
  187.9140  175.6570  140.7560 N   0  0  0  0  0  0  0  0  0  0  0  0
  188.7960  174.5650  140.3650 C   0  0  0  0  0  2  0  0  0  0  0  0
  189.5180  173.9980  138.1710 O   0  0  0  0  0  1  0  0  0  0  0  0
  188.3990  174.0320  139.0020 C   0  0  0  0  0  2  0  0  0  0  0  0
  188.3430  175.1880  143.2440 C   0  0  0  0  0  2  0  0  0  0  0  0
  190.8590  176.6350  145.1100 C   0  0  0  0  0  0  0  0  0  0  0  0
  189.7710  175.4600  143.3010 N   0  0  0  0  0  0  0  0  0  0  0  0
  190.4770  176.9950  146.5320 C   0  0  0  0  0  1  0  0  0  0  0  0
  192.3700  176.4630  145.0080 C   0  0  0  0  0  1  0  0  0  0  0  0
  189.9550  176.8540  142.9050 C   0  0  0  0  0  2  0  0  0  0  0  0
  191.2240  178.6600  143.8280 O   0  0  0  0  0  1  0  0  0  0  0  0
  190.1840  175.3470  144.7010 C   0  0  0  0  0  2  0  0  0  0  0  0
  190.3060  177.6530  144.1390 C   0  0  2  0  0  3  0  0  0  0  0  0
  1  4  1  0  0  0  0
  2  1  2  0  0  0  0
  2 17  1  0  0  0  0
  3 10  2  0  0  0  0
  4 12  1  0  0  0  0
  5  9  1  0  0  0  0
  6  3  1  0  0  0  0
  6 13  1  0  0  0  0
  7  4  2  0  0  0  0
  7  8  1  0  0  0  0
  8  5  2  0  0  0  0
 10 11  1  0  0  0  0
 10  1  1  0  0  0  0
 11  7  1  0  0  0  0
 12  9  2  0  0  0  0
 13  2  1  0  0  0  0
 14 13  1  0  0  0  0
 15 16  1  0  0  0  0
 16 14  1  0  0  0  0
 17 19  1  0  0  0  0
 18 20  1  0  0  0  0
 19 24  1  0  0  0  0
 21 18  1  0  0  0  0
 22 19  1  0  0  0  0
 22 25  1  0  0  0  0
 24 18  1  0  0  0  0
 25 23  1  6  0  0  0
 25 18  1  0  0  0  0
M  END
>  <MODEL>
6

>  <REMARK>
 VINA RESULT:      -6.6      1.922      2.387
  Name = 
  4 active torsions:
  status: ('A' for Active; 'I' for Inactive)
    1  A    between atoms: C_3  and  C_16
    2  A    between atoms: N_6  and  C_16
    3  A    between atoms: C_13  and  C_20
    4  A    between atoms: C_13  and  N_24
                            x       y       z     vdW  Elec       q    Type
                         _______ _______ _______ _____ _____    ______ ____

>  <TORSDO>
F 4

$$$$
=
 OpenBabel11052417373D

 25 28  0  0  1  0  0  0  0  0999 V2000
  185.8630  177.9710  144.0920 C   0  0  0  0  0  0  0  0  0  0  0  0
  187.0380  177.5870  144.5930 C   0  0  0  0  0  0  0  0  0  0  0  0
  184.8920  178.4380  146.1840 N   0  0  0  0  0  0  0  0  0  0  0  0
  185.3860  178.0370  142.8010 C   0  0  0  0  0  0  0  0  0  0  0  0
  183.8520  178.3520  140.5160 C   0  0  0  0  0  3  0  0  0  0  0  0
  186.1460  178.1640  146.9030 C   0  0  0  0  0  2  0  0  0  0  0  0
  184.0760  178.4600  142.9020 C   0  0  0  0  0  0  0  0  0  0  0  0
  183.2790  178.6290  141.7710 C   0  0  0  0  0  3  0  0  0  0  0  0
  185.1910  177.9150  140.4170 C   0  0  0  0  0  3  0  0  0  0  0  0
  184.8120  178.3650  144.8900 C   0  0  0  0  0  0  0  0  0  0  0  0
  183.6990  178.6650  144.1830 N   0  0  0  0  0  2  0  0  0  0  0  0
  185.9760  177.7500  141.5720 C   0  0  0  0  0  3  0  0  0  0  0  0
  187.1790  177.5770  146.0320 N   0  0  0  0  0  0  0  0  0  0  0  0
  188.4060  177.1130  146.6670 C   0  0  0  0  0  2  0  0  0  0  0  0
  189.4340  175.0540  147.2640 O   0  0  0  0  0  1  0  0  0  0  0  0
  188.2100  175.7190  147.2310 C   0  0  0  0  0  2  0  0  0  0  0  0
  188.1690  177.1740  143.6970 C   0  0  0  0  0  2  0  0  0  0  0  0
  190.0930  174.5330  142.5830 C   0  0  0  0  0  0  0  0  0  0  0  0
  188.3120  175.7250  143.7000 N   0  0  0  0  0  0  0  0  0  0  0  0
  191.4450  174.9190  142.0180 C   0  0  0  0  0  1  0  0  0  0  0  0
  190.1200  173.0830  143.0500 C   0  0  0  0  0  1  0  0  0  0  0  0
  187.8140  175.2470  142.4120 C   0  0  0  0  0  2  0  0  0  0  0  0
  188.6750  173.7020  140.8010 O   0  0  0  0  0  1  0  0  0  0  0  0
  189.7440  175.4250  143.7520 C   0  0  0  0  0  2  0  0  0  0  0  0
  188.9990  174.8170  141.5780 C   0  0  2  0  0  3  0  0  0  0  0  0
  1  2  2  0  0  0  0
  1 10  1  0  0  0  0
  2 13  1  0  0  0  0
  3  6  1  0  0  0  0
  4  7  1  0  0  0  0
  4  1  1  0  0  0  0
  5  8  1  0  0  0  0
  7 11  1  0  0  0  0
  8  7  2  0  0  0  0
  9  5  2  0  0  0  0
  9 12  1  0  0  0  0
 10  3  2  0  0  0  0
 11 10  1  0  0  0  0
 12  4  2  0  0  0  0
 13 14  1  0  0  0  0
 13  6  1  0  0  0  0
 14 16  1  0  0  0  0
 16 15  1  0  0  0  0
 17 19  1  0  0  0  0
 17  2  1  0  0  0  0
 18 21  1  0  0  0  0
 18 24  1  0  0  0  0
 19 24  1  0  0  0  0
 20 18  1  0  0  0  0
 22 19  1  0  0  0  0
 25 23  1  1  0  0  0
 25 22  1  0  0  0  0
 25 18  1  0  0  0  0
M  END
>  <MODEL>
7

>  <REMARK>
 VINA RESULT:      -6.6      2.094      4.729
  Name = 
  4 active torsions:
  status: ('A' for Active; 'I' for Inactive)
    1  A    between atoms: C_3  and  C_16
    2  A    between atoms: N_6  and  C_16
    3  A    between atoms: C_13  and  C_20
    4  A    between atoms: C_13  and  N_24
                            x       y       z     vdW  Elec       q    Type
                         _______ _______ _______ _____ _____    ______ ____

>  <TORSDO>
F 4

$$$$
=
 OpenBabel11052417373D

 25 28  0  0  1  0  0  0  0  0999 V2000
  187.6140  176.5910  142.9660 C   0  0  0  0  0  0  0  0  0  0  0  0
  188.5700  175.6910  143.2030 C   0  0  0  0  0  0  0  0  0  0  0  0
  187.4720  176.1380  140.6620 N   0  0  0  0  0  0  0  0  0  0  0  0
  186.9670  177.4880  143.7870 C   0  0  0  0  0  0  0  0  0  0  0  0
  185.3750  179.4870  144.8570 C   0  0  0  0  0  3  0  0  0  0  0  0
  188.4320  175.0260  140.7520 C   0  0  0  0  0  2  0  0  0  0  0  0
  186.1110  178.2000  142.9720 C   0  0  0  0  0  0  0  0  0  0  0  0
  185.2970  179.2110  143.4800 C   0  0  0  0  0  3  0  0  0  0  0  0
  186.2560  178.7610  145.6880 C   0  0  0  0  0  3  0  0  0  0  0  0
  187.1020  176.8130  141.7070 C   0  0  0  0  0  0  0  0  0  0  0  0
  186.1800  177.8020  141.6820 N   0  0  0  0  0  2  0  0  0  0  0  0
  187.0690  177.7470  145.1530 C   0  0  0  0  0  3  0  0  0  0  0  0
  189.0810  174.9470  142.0730 N   0  0  0  0  0  0  0  0  0  0  0  0
  190.1660  173.9890  142.2280 C   0  0  0  0  0  2  0  0  0  0  0  0
  192.2030  174.2700  141.0320 O   0  0  0  0  0  1  0  0  0  0  0  0
  190.8950  173.8030  140.9100 C   0  0  0  0  0  2  0  0  0  0  0  0
  189.1000  175.4620  144.5880 C   0  0  0  0  0  2  0  0  0  0  0  0
  192.2720  175.6970  145.9280 C   0  0  0  0  0  0  0  0  0  0  0  0
  190.2110  176.3640  144.8580 N   0  0  0  0  0  0  0  0  0  0  0  0
  192.9510  174.3700  146.2040 C   0  0  0  0  0  1  0  0  0  0  0  0
  193.3200  176.7910  145.7650 C   0  0  0  0  0  1  0  0  0  0  0  0
  190.1350  176.7180  146.2740 C   0  0  0  0  0  2  0  0  0  0  0  0
  191.7630  176.8020  148.0250 O   0  0  0  0  0  1  0  0  0  0  0  0
  191.4490  175.6060  144.6650 C   0  0  0  0  0  2  0  0  0  0  0  0
  191.2510  176.0020  147.0000 C   0  0  2  0  0  3  0  0  0  0  0  0
  1  2  2  0  0  0  0
  1  4  1  0  0  0  0
  2 17  1  0  0  0  0
  3  6  1  0  0  0  0
  3 10  2  0  0  0  0
  4 12  1  0  0  0  0
  5  9  1  0  0  0  0
  6 13  1  0  0  0  0
  7  8  1  0  0  0  0
  7  4  2  0  0  0  0
  8  5  2  0  0  0  0
 10  1  1  0  0  0  0
 11 10  1  0  0  0  0
 11  7  1  0  0  0  0
 12  9  2  0  0  0  0
 13 14  1  0  0  0  0
 13  2  1  0  0  0  0
 16 15  1  0  0  0  0
 16 14  1  0  0  0  0
 17 19  1  0  0  0  0
 18 20  1  0  0  0  0
 18 25  1  0  0  0  0
 19 22  1  0  0  0  0
 21 18  1  0  0  0  0
 22 25  1  0  0  0  0
 24 19  1  0  0  0  0
 24 18  1  0  0  0  0
 25 23  1  1  0  0  0
M  END
>  <MODEL>
8

>  <REMARK>
 VINA RESULT:      -6.4      1.382      1.640
  Name = 
  4 active torsions:
  status: ('A' for Active; 'I' for Inactive)
    1  A    between atoms: C_3  and  C_16
    2  A    between atoms: N_6  and  C_16
    3  A    between atoms: C_13  and  C_20
    4  A    between atoms: C_13  and  N_24
                            x       y       z     vdW  Elec       q    Type
                         _______ _______ _______ _____ _____    ______ ____

>  <TORSDO>
F 4

$$$$
=
 OpenBabel11052417373D

 25 28  0  0  1  0  0  0  0  0999 V2000
  189.1220  177.0450  144.8490 C   0  0  0  0  0  0  0  0  0  0  0  0
  188.8310  177.0120  143.5470 C   0  0  0  0  0  0  0  0  0  0  0  0
  186.9850  177.7660  145.5180 N   0  0  0  0  0  0  0  0  0  0  0  0
  190.2820  176.7780  145.5430 C   0  0  0  0  0  0  0  0  0  0  0  0
  192.2430  176.4440  147.4700 C   0  0  0  0  0  3  0  0  0  0  0  0
  186.4520  177.6780  144.1490 C   0  0  0  0  0  2  0  0  0  0  0  0
  189.9980  177.0360  146.8690 C   0  0  0  0  0  0  0  0  0  0  0  0
  190.9630  176.8760  147.8620 C   0  0  0  0  0  3  0  0  0  0  0  0
  192.5310  176.1870  146.1130 C   0  0  0  0  0  3  0  0  0  0  0  0
  188.2090  177.4400  145.8010 C   0  0  0  0  0  0  0  0  0  0  0  0
  188.7240  177.4490  147.0510 N   0  0  0  0  0  2  0  0  0  0  0  0
  191.5430  176.3560  145.1270 C   0  0  0  0  0  3  0  0  0  0  0  0
  187.5050  177.4280  143.1490 N   0  0  0  0  0  0  0  0  0  0  0  0
  187.1210  177.4820  141.7450 C   0  0  0  0  0  2  0  0  0  0  0  0
  185.3500  178.1490  140.3040 O   0  0  0  0  0  1  0  0  0  0  0  0
  185.8950  178.3590  141.5690 C   0  0  0  0  0  2  0  0  0  0  0  0
  189.8440  176.5650  142.5330 C   0  0  0  0  0  2  0  0  0  0  0  0
  189.7680  173.2420  143.4630 C   0  0  0  0  0  0  0  0  0  0  0  0
  189.5460  175.2140  142.0830 N   0  0  0  0  0  0  0  0  0  0  0  0
  189.8950  172.9900  144.9520 C   0  0  0  0  0  1  0  0  0  0  0  0
  189.0800  172.0600  142.7930 C   0  0  0  0  0  1  0  0  0  0  0  0
  190.8250  174.5760  141.7780 C   0  0  0  0  0  2  0  0  0  0  0  0
  191.7580  172.4430  142.3300 O   0  0  0  0  0  1  0  0  0  0  0  0
  188.9590  174.4930  143.2140 C   0  0  0  0  0  2  0  0  0  0  0  0
  191.1190  173.5650  142.8630 C   0  0  2  0  0  3  0  0  0  0  0  0
  1  4  1  0  0  0  0
  1 10  1  0  0  0  0
  2  1  2  0  0  0  0
  3 10  2  0  0  0  0
  4  7  1  0  0  0  0
  5  8  1  0  0  0  0
  6  3  1  0  0  0  0
  7 11  1  0  0  0  0
  7  8  2  0  0  0  0
  9  5  2  0  0  0  0
 10 11  1  0  0  0  0
 12  4  2  0  0  0  0
 12  9  1  0  0  0  0
 13  2  1  0  0  0  0
 13  6  1  0  0  0  0
 14 13  1  0  0  0  0
 15 16  1  0  0  0  0
 16 14  1  0  0  0  0
 17  2  1  0  0  0  0
 18 20  1  0  0  0  0
 19 17  1  0  0  0  0
 19 24  1  0  0  0  0
 21 18  1  0  0  0  0
 22 19  1  0  0  0  0
 22 25  1  0  0  0  0
 24 18  1  0  0  0  0
 25 23  1  6  0  0  0
 25 18  1  0  0  0  0
M  END
>  <MODEL>
9

>  <REMARK>
 VINA RESULT:      -6.4      2.341      4.912
  Name = 
  4 active torsions:
  status: ('A' for Active; 'I' for Inactive)
    1  A    between atoms: C_3  and  C_16
    2  A    between atoms: N_6  and  C_16
    3  A    between atoms: C_13  and  C_20
    4  A    between atoms: C_13  and  N_24
                            x       y       z     vdW  Elec       q    Type
                         _______ _______ _______ _____ _____    ______ ____

>  <TORSDO>
F 4

$$$$
