=
 OpenBabel11052419093D

 32 34  0  0  1  0  0  0  0  0999 V2000
  191.0050  173.2450  144.4540 C   0  0  2  0  0  3  0  0  0  0  0  0
  190.8280  174.7350  144.1400 C   0  0  2  0  0  0  0  0  0  0  0  0
  192.4470  172.7850  144.7480 C   0  0  2  0  0  3  0  0  0  0  0  0
  190.8540  173.7180  143.0020 C   0  0  2  0  0  3  0  0  0  0  0  0
  193.3920  173.9040  145.1880 C   0  0  1  0  0  3  0  0  0  0  0  0
  192.9750  172.0530  143.6760 O   0  0  0  0  0  1  0  0  0  0  0  0
  192.0290  175.6940  144.1270 C   0  0  0  0  0  2  0  0  0  0  0  0
  194.7880  173.3510  145.4420 C   0  0  0  0  0  1  0  0  0  0  0  0
  193.3960  175.0160  144.1440 C   0  0  1  0  0  3  0  0  0  0  0  0
  190.2920  171.3460  141.0990 C   0  0  0  0  0  2  0  0  0  0  0  0
  190.0000  173.7530  140.0330 C   0  0  0  0  0  2  0  0  0  0  0  0
  189.1030  174.1040  141.2150 C   0  0  0  0  0  2  0  0  0  0  0  0
  189.4760  173.3120  142.4710 C   0  0  0  0  0  3  0  0  0  0  0  0
  189.7120  172.0310  139.5150 S   0  0  0  0  0  0  0  0  0  0  0  0
  189.3820  171.8020  142.2350 C   0  0  0  0  0  2  0  0  0  0  0  0
  189.4630  175.3490  144.4830 C   0  0  0  0  0  2  0  0  0  0  0  0
  189.5200  176.7550  145.0900 C   0  0  2  0  0  3  0  0  0  0  0  0
  188.3400  176.8890  147.1540 O   0  0  0  0  0  0  0  0  0  0  0  0
  189.4600  176.7600  146.5910 C   0  0  0  0  0  0  0  0  0  0  0  0
  191.1530  175.4780  147.8120 C   0  0  0  0  0  2  0  0  0  0  0  0
  190.6870  176.6480  147.3980 C   0  0  0  0  0  3  0  0  0  0  0  0
  188.5340  177.7130  144.4250 C   0  0  0  0  0  2  0  0  0  0  0  0
  188.6690  177.6800  142.9370 C   0  0  0  0  0  0  0  0  0  0  0  0
  189.7890  177.9130  142.4100 O   0  0  0  0  0  0  0  0  0  0  0  0
  187.5100  177.3810  142.0860 C   0  0  0  0  0  0  0  0  0  0  0  0
  187.5900  177.5250  140.8350 O   0  0  0  0  0  0  0  0  0  0  0  0
  186.3210  176.9430  142.6720 O   0  0  0  0  0  0  0  0  0  0  0  0
  185.1890  178.9500  143.3240 C   0  0  0  0  0  1  0  0  0  0  0  0
  185.1070  177.6620  142.5320 C   0  0  0  0  0  2  0  0  0  0  0  0
  194.4090  176.0130  144.4570 N   0  0  0  0  0  2  0  0  0  0  0  0
  193.7650  177.0420  145.2530 C   0  0  0  0  0  2  0  0  0  0  0  0
  194.3860  177.0760  146.6330 C   0  0  0  0  0  1  0  0  0  0  0  0
  1  3  1  0  0  0  0
  2  1  1  0  0  0  0
  2 16  1  0  0  0  0
  3  5  1  0  0  0  0
  4  2  1  0  0  0  0
  4  1  1  0  0  0  0
  5  8  1  0  0  0  0
  6  3  1  0  0  0  0
  7  2  1  0  0  0  0
  7  9  1  0  0  0  0
  9 30  1  0  0  0  0
  9  5  1  0  0  0  0
 10 15  1  0  0  0  0
 11 12  1  0  0  0  0
 12 13  1  0  0  0  0
 13  4  1  0  0  0  0
 14 11  1  0  0  0  0
 14 10  1  0  0  0  0
 15 13  1  0  0  0  0
 16 17  1  0  0  0  0
 17 19  1  0  0  0  0
 19 18  2  0  0  0  0
 19 21  1  0  0  0  0
 21 20  2  0  0  0  0
 22 17  1  0  0  0  0
 23 22  1  0  0  0  0
 24 23  2  0  0  0  0
 25 27  1  0  0  0  0
 25 23  1  0  0  0  0
 26 25  2  0  0  0  0
 29 27  1  0  0  0  0
 29 28  1  0  0  0  0
 30 31  1  0  0  0  0
 31 32  1  0  0  0  0
M  END
>  <MODEL>
1

>  <REMARK>
 VINA RESULT:      -5.6      0.000      0.000
  Name = 
  12 active torsions:
  status: ('A' for Active; 'I' for Inactive)
    1  A    between atoms: C_1  and  C_5
    2  A    between atoms: C_1  and  C_24
    3  A    between atoms: C_3  and  O_15
    4  A    between atoms: C_3  and  C_22
    5  A    between atoms: C_10  and  C_28
    6  A    between atoms: N_14  and  C_21
    7  A    between atoms: N_14  and  C_29
    8  A    between atoms: O_15  and  C_26
    9  A    between atoms: C_16  and  C_20
   10  A    between atoms: C_16  and  C_24
   11  A    between atoms: C_22  and  C_27
   12  A    between atoms: C_24  and  C_27
                            x       y       z     vdW  Elec       q    Type
                         _______ _______ _______ _____ _____    ______ ____

>  <TORSDO>
F 12

$$$$
=
 OpenBabel11052419093D

 32 34  0  0  1  0  0  0  0  0999 V2000
  190.4300  174.4260  144.0420 C   0  0  2  0  0  3  0  0  0  0  0  0
  190.7340  175.5370  143.0290 C   0  0  2  0  0  0  0  0  0  0  0  0
  191.5800  174.0550  145.0000 C   0  0  2  0  0  3  0  0  0  0  0  0
  190.7770  174.0760  142.5890 C   0  0  2  0  0  3  0  0  0  0  0  0
  192.6430  175.1430  145.1650 C   0  0  1  0  0  3  0  0  0  0  0  0
  192.1500  172.8230  144.6560 O   0  0  0  0  0  1  0  0  0  0  0  0
  192.1070  176.2260  142.9910 C   0  0  0  0  0  2  0  0  0  0  0  0
  193.7350  174.6760  146.1180 C   0  0  0  0  0  1  0  0  0  0  0  0
  193.1990  175.5320  143.8000 C   0  0  1  0  0  3  0  0  0  0  0  0
  190.2930  171.1880  141.5940 C   0  0  0  0  0  2  0  0  0  0  0  0
  190.6860  172.9930  139.6970 C   0  0  0  0  0  2  0  0  0  0  0  0
  189.6050  173.8400  140.3580 C   0  0  0  0  0  2  0  0  0  0  0  0
  189.5200  173.5840  141.8650 C   0  0  0  0  0  3  0  0  0  0  0  0
  190.2410  171.2290  139.7750 S   0  0  0  0  0  0  0  0  0  0  0  0
  189.2280  172.1140  142.1730 C   0  0  0  0  0  2  0  0  0  0  0  0
  189.5350  176.3660  142.5440 C   0  0  0  0  0  2  0  0  0  0  0  0
  188.5120  176.7200  143.6290 C   0  0  2  0  0  3  0  0  0  0  0  0
  186.3170  176.0690  142.9740 O   0  0  0  0  0  0  0  0  0  0  0  0
  187.1430  177.0140  143.0840 C   0  0  0  0  0  0  0  0  0  0  0  0
  185.8470  179.0830  143.2780 C   0  0  0  0  0  2  0  0  0  0  0  0
  186.7770  178.3730  142.6530 C   0  0  0  0  0  3  0  0  0  0  0  0
  189.0370  177.7780  144.5970 C   0  0  0  0  0  2  0  0  0  0  0  0
  189.1370  177.2360  145.9870 C   0  0  0  0  0  0  0  0  0  0  0  0
  190.2410  177.2790  146.5910 O   0  0  0  0  0  0  0  0  0  0  0  0
  187.9640  176.6540  146.6510 C   0  0  0  0  0  0  0  0  0  0  0  0
  188.0240  175.4910  147.1370 O   0  0  0  0  0  0  0  0  0  0  0  0
  186.7840  177.3950  146.7340 O   0  0  0  0  0  0  0  0  0  0  0  0
  184.4640  177.9240  146.4540 C   0  0  0  0  0  1  0  0  0  0  0  0
  185.5300  176.8550  146.3460 C   0  0  0  0  0  2  0  0  0  0  0  0
  194.3250  176.4420  143.9420 N   0  0  0  0  0  2  0  0  0  0  0  0
  195.3240  176.0430  142.9660 C   0  0  0  0  0  2  0  0  0  0  0  0
  196.6330  176.7390  143.2700 C   0  0  0  0  0  1  0  0  0  0  0  0
  1  3  1  0  0  0  0
  2  1  1  0  0  0  0
  3  5  1  0  0  0  0
  4  2  1  0  0  0  0
  4  1  1  0  0  0  0
  5  8  1  0  0  0  0
  6  3  1  0  0  0  0
  7  2  1  0  0  0  0
  7  9  1  0  0  0  0
  9 30  1  0  0  0  0
  9  5  1  0  0  0  0
 10 15  1  0  0  0  0
 11 14  1  0  0  0  0
 11 12  1  0  0  0  0
 12 13  1  0  0  0  0
 13 15  1  0  0  0  0
 13  4  1  0  0  0  0
 14 10  1  0  0  0  0
 16  2  1  0  0  0  0
 16 17  1  0  0  0  0
 17 22  1  0  0  0  0
 18 19  2  0  0  0  0
 19 17  1  0  0  0  0
 21 19  1  0  0  0  0
 21 20  2  0  0  0  0
 22 23  1  0  0  0  0
 23 24  2  0  0  0  0
 23 25  1  0  0  0  0
 25 27  1  0  0  0  0
 25 26  2  0  0  0  0
 29 28  1  0  0  0  0
 29 27  1  0  0  0  0
 31 32  1  0  0  0  0
 31 30  1  0  0  0  0
M  END
>  <MODEL>
2

>  <REMARK>
 VINA RESULT:      -5.6      1.575      3.229
  Name = 
  12 active torsions:
  status: ('A' for Active; 'I' for Inactive)
    1  A    between atoms: C_1  and  C_5
    2  A    between atoms: C_1  and  C_24
    3  A    between atoms: C_3  and  O_15
    4  A    between atoms: C_3  and  C_22
    5  A    between atoms: C_10  and  C_28
    6  A    between atoms: N_14  and  C_21
    7  A    between atoms: N_14  and  C_29
    8  A    between atoms: O_15  and  C_26
    9  A    between atoms: C_16  and  C_20
   10  A    between atoms: C_16  and  C_24
   11  A    between atoms: C_22  and  C_27
   12  A    between atoms: C_24  and  C_27
                            x       y       z     vdW  Elec       q    Type
                         _______ _______ _______ _____ _____    ______ ____

>  <TORSDO>
F 12

$$$$
=
 OpenBabel11052419093D

 32 34  0  0  1  0  0  0  0  0999 V2000
  191.4360  172.9030  144.6410 C   0  0  2  0  0  3  0  0  0  0  0  0
  191.0470  174.3330  144.2460 C   0  0  2  0  0  0  0  0  0  0  0  0
  192.9360  172.6610  144.9020 C   0  0  2  0  0  3  0  0  0  0  0  0
  191.1730  173.2560  143.1720 C   0  0  2  0  0  3  0  0  0  0  0  0
  193.7340  173.9240  145.2340 C   0  0  1  0  0  3  0  0  0  0  0  0
  193.5230  171.9380  143.8550 O   0  0  0  0  0  1  0  0  0  0  0  0
  192.1050  175.4410  144.1260 C   0  0  0  0  0  2  0  0  0  0  0  0
  195.2000  173.5800  145.4620 C   0  0  0  0  0  1  0  0  0  0  0  0
  193.5510  174.9550  144.1260 C   0  0  1  0  0  3  0  0  0  0  0  0
  190.8560  171.0590  141.0180 C   0  0  0  0  0  2  0  0  0  0  0  0
  189.9700  173.4590  140.3330 C   0  0  0  0  0  2  0  0  0  0  0  0
  189.1750  173.4740  141.6340 C   0  0  0  0  0  2  0  0  0  0  0  0
  189.8460  172.6350  142.7240 C   0  0  0  0  0  3  0  0  0  0  0  0
  189.9630  171.7880  139.6090 S   0  0  0  0  0  0  0  0  0  0  0  0
  190.0220  171.1780  142.2900 C   0  0  0  0  0  2  0  0  0  0  0  0
  189.6230  174.7790  144.6090 C   0  0  0  0  0  2  0  0  0  0  0  0
  189.5320  175.7620  145.7810 C   0  0  2  0  0  3  0  0  0  0  0  0
  188.9220  174.3710  147.6160 O   0  0  0  0  0  0  0  0  0  0  0  0
  189.8000  175.1250  147.1150 C   0  0  0  0  0  0  0  0  0  0  0  0
  191.8280  176.4270  147.5480 C   0  0  0  0  0  2  0  0  0  0  0  0
  191.0480  175.3980  147.8470 C   0  0  0  0  0  3  0  0  0  0  0  0
  188.2570  176.6010  145.7370 C   0  0  0  0  0  2  0  0  0  0  0  0
  188.3280  177.6360  144.6600 C   0  0  0  0  0  0  0  0  0  0  0  0
  189.4440  178.1280  144.3460 O   0  0  0  0  0  0  0  0  0  0  0  0
  187.1120  178.0840  143.9700 C   0  0  0  0  0  0  0  0  0  0  0  0
  186.9630  177.8540  142.7380 O   0  0  0  0  0  0  0  0  0  0  0  0
  186.1270  178.7680  144.6850 O   0  0  0  0  0  0  0  0  0  0  0  0
  184.5840  177.9010  146.2980 C   0  0  0  0  0  1  0  0  0  0  0  0
  184.8170  178.2460  144.8430 C   0  0  0  0  0  2  0  0  0  0  0  0
  194.4290  176.0970  144.3350 N   0  0  0  0  0  2  0  0  0  0  0  0
  195.1360  176.3270  143.0870 C   0  0  0  0  0  2  0  0  0  0  0  0
  196.5690  176.7130  143.3830 C   0  0  0  0  0  1  0  0  0  0  0  0
  1  3  1  0  0  0  0
  2 16  1  0  0  0  0
  2  1  1  0  0  0  0
  3  5  1  0  0  0  0
  4  2  1  0  0  0  0
  4  1  1  0  0  0  0
  5  8  1  0  0  0  0
  6  3  1  0  0  0  0
  7  9  1  0  0  0  0
  7  2  1  0  0  0  0
  9 30  1  0  0  0  0
  9  5  1  0  0  0  0
 10 15  1  0  0  0  0
 11 12  1  0  0  0  0
 12 13  1  0  0  0  0
 13  4  1  0  0  0  0
 14 11  1  0  0  0  0
 14 10  1  0  0  0  0
 15 13  1  0  0  0  0
 16 17  1  0  0  0  0
 17 19  1  0  0  0  0
 19 18  2  0  0  0  0
 19 21  1  0  0  0  0
 20 21  2  0  0  0  0
 22 17  1  0  0  0  0
 23 22  1  0  0  0  0
 24 23  2  0  0  0  0
 25 23  1  0  0  0  0
 25 27  1  0  0  0  0
 26 25  2  0  0  0  0
 27 29  1  0  0  0  0
 29 28  1  0  0  0  0
 31 32  1  0  0  0  0
 31 30  1  0  0  0  0
M  END
>  <MODEL>
3

>  <REMARK>
 VINA RESULT:      -5.5      1.425      1.623
  Name = 
  12 active torsions:
  status: ('A' for Active; 'I' for Inactive)
    1  A    between atoms: C_1  and  C_5
    2  A    between atoms: C_1  and  C_24
    3  A    between atoms: C_3  and  O_15
    4  A    between atoms: C_3  and  C_22
    5  A    between atoms: C_10  and  C_28
    6  A    between atoms: N_14  and  C_21
    7  A    between atoms: N_14  and  C_29
    8  A    between atoms: O_15  and  C_26
    9  A    between atoms: C_16  and  C_20
   10  A    between atoms: C_16  and  C_24
   11  A    between atoms: C_22  and  C_27
   12  A    between atoms: C_24  and  C_27
                            x       y       z     vdW  Elec       q    Type
                         _______ _______ _______ _____ _____    ______ ____

>  <TORSDO>
F 12

$$$$
=
 OpenBabel11052419093D

 32 34  0  0  1  0  0  0  0  0999 V2000
  189.3430  176.9570  142.6380 C   0  0  2  0  0  3  0  0  0  0  0  0
  189.4800  177.0560  144.1620 C   0  0  2  0  0  0  0  0  0  0  0  0
  187.9620  177.3220  142.0600 C   0  0  2  0  0  3  0  0  0  0  0  0
  189.2720  175.6940  143.5050 C   0  0  2  0  0  3  0  0  0  0  0  0
  187.1040  178.1990  142.9750 C   0  0  1  0  0  3  0  0  0  0  0  0
  187.2690  176.1790  141.6410 O   0  0  0  0  0  1  0  0  0  0  0  0
  188.2990  177.4960  145.0400 C   0  0  0  0  0  2  0  0  0  0  0  0
  185.7600  178.4920  142.3210 C   0  0  0  0  0  1  0  0  0  0  0  0
  186.9460  177.5260  144.3340 C   0  0  1  0  0  3  0  0  0  0  0  0
  189.7940  173.6980  141.2020 C   0  0  0  0  0  2  0  0  0  0  0  0
  189.4370  172.6100  143.5900 C   0  0  0  0  0  2  0  0  0  0  0  0
  190.4980  173.5670  144.1210 C   0  0  0  0  0  2  0  0  0  0  0  0
  190.5480  174.8690  143.3160 C   0  0  0  0  0  3  0  0  0  0  0  0
  189.8890  172.0290  141.9240 S   0  0  0  0  0  0  0  0  0  0  0  0
  190.8400  174.6080  141.8370 C   0  0  0  0  0  2  0  0  0  0  0  0
  190.8870  177.3500  144.7050 C   0  0  0  0  0  2  0  0  0  0  0  0
  191.4200  176.3220  145.7090 C   0  0  2  0  0  3  0  0  0  0  0  0
  190.5890  177.4190  147.6530 O   0  0  0  0  0  0  0  0  0  0  0  0
  190.6850  176.3330  147.0200 C   0  0  0  0  0  0  0  0  0  0  0  0
  188.8860  174.6930  147.2830 C   0  0  0  0  0  2  0  0  0  0  0  0
  190.1140  175.0960  147.5780 C   0  0  0  0  0  3  0  0  0  0  0  0
  192.9400  176.3820  145.8470 C   0  0  0  0  0  2  0  0  0  0  0  0
  193.5710  175.0920  145.4300 C   0  0  0  0  0  0  0  0  0  0  0  0
  193.3630  174.0520  146.1080 O   0  0  0  0  0  0  0  0  0  0  0  0
  194.4290  175.0290  144.2400 C   0  0  0  0  0  0  0  0  0  0  0  0
  194.1700  175.7460  143.2340 O   0  0  0  0  0  0  0  0  0  0  0  0
  195.5270  174.1660  144.2290 O   0  0  0  0  0  0  0  0  0  0  0  0
  196.9670  173.5770  146.0500 C   0  0  0  0  0  1  0  0  0  0  0  0
  196.7480  174.5010  144.8710 C   0  0  0  0  0  2  0  0  0  0  0  0
  186.0010  178.2570  145.1650 N   0  0  0  0  0  2  0  0  0  0  0  0
  186.4900  178.1890  146.5310 C   0  0  0  0  0  2  0  0  0  0  0  0
  185.7760  177.0760  147.2670 C   0  0  0  0  0  1  0  0  0  0  0  0
  1  4  1  0  0  0  0
  1  2  1  0  0  0  0
  2 16  1  0  0  0  0
  2  7  1  0  0  0  0
  3  1  1  0  0  0  0
  3  5  1  0  0  0  0
  4  2  1  0  0  0  0
  5  9  1  0  0  0  0
  6  3  1  0  0  0  0
  8  5  1  0  0  0  0
  9  7  1  0  0  0  0
  9 30  1  0  0  0  0
 10 15  1  0  0  0  0
 10 14  1  0  0  0  0
 11 12  1  0  0  0  0
 13  4  1  0  0  0  0
 13 12  1  0  0  0  0
 14 11  1  0  0  0  0
 15 13  1  0  0  0  0
 16 17  1  0  0  0  0
 17 22  1  0  0  0  0
 17 19  1  0  0  0  0
 19 21  1  0  0  0  0
 19 18  2  0  0  0  0
 20 21  2  0  0  0  0
 23 22  1  0  0  0  0
 23 24  2  0  0  0  0
 25 23  1  0  0  0  0
 26 25  2  0  0  0  0
 27 25  1  0  0  0  0
 27 29  1  0  0  0  0
 29 28  1  0  0  0  0
 30 31  1  0  0  0  0
 31 32  1  0  0  0  0
M  END
>  <MODEL>
4

>  <REMARK>
 VINA RESULT:      -5.5      2.447      6.371
  Name = 
  12 active torsions:
  status: ('A' for Active; 'I' for Inactive)
    1  A    between atoms: C_1  and  C_5
    2  A    between atoms: C_1  and  C_24
    3  A    between atoms: C_3  and  O_15
    4  A    between atoms: C_3  and  C_22
    5  A    between atoms: C_10  and  C_28
    6  A    between atoms: N_14  and  C_21
    7  A    between atoms: N_14  and  C_29
    8  A    between atoms: O_15  and  C_26
    9  A    between atoms: C_16  and  C_20
   10  A    between atoms: C_16  and  C_24
   11  A    between atoms: C_22  and  C_27
   12  A    between atoms: C_24  and  C_27
                            x       y       z     vdW  Elec       q    Type
                         _______ _______ _______ _____ _____    ______ ____

>  <TORSDO>
F 12

$$$$
=
 OpenBabel11052419093D

 32 34  0  0  1  0  0  0  0  0999 V2000
  191.4920  172.6600  144.4470 C   0  0  2  0  0  3  0  0  0  0  0  0
  191.0370  174.0970  144.1660 C   0  0  2  0  0  0  0  0  0  0  0  0
  192.9970  172.4710  144.7240 C   0  0  2  0  0  3  0  0  0  0  0  0
  191.2430  173.1260  143.0070 C   0  0  2  0  0  3  0  0  0  0  0  0
  193.7200  173.7390  145.1840 C   0  0  1  0  0  3  0  0  0  0  0  0
  193.6430  171.8730  143.6340 O   0  0  0  0  0  1  0  0  0  0  0  0
  192.0380  175.2630  144.1690 C   0  0  0  0  0  2  0  0  0  0  0  0
  195.1970  173.4500  145.4200 C   0  0  0  0  0  1  0  0  0  0  0  0
  193.5070  174.8520  144.1650 C   0  0  1  0  0  3  0  0  0  0  0  0
  191.1160  170.7830  140.9920 C   0  0  0  0  0  2  0  0  0  0  0  0
  190.3310  173.1320  140.0540 C   0  0  0  0  0  2  0  0  0  0  0  0
  189.4100  173.2420  141.2650 C   0  0  0  0  0  2  0  0  0  0  0  0
  189.9600  172.4800  142.4730 C   0  0  0  0  0  3  0  0  0  0  0  0
  190.3770  171.4140  139.4530 S   0  0  0  0  0  0  0  0  0  0  0  0
  190.1610  170.9950  142.1620 C   0  0  0  0  0  2  0  0  0  0  0  0
  189.5840  174.4380  144.5290 C   0  0  0  0  0  2  0  0  0  0  0  0
  189.1920  175.9040  144.3170 C   0  0  2  0  0  3  0  0  0  0  0  0
  189.7260  177.5230  145.9800 O   0  0  0  0  0  0  0  0  0  0  0  0
  188.9140  176.6380  145.5980 C   0  0  0  0  0  0  0  0  0  0  0  0
  187.0670  177.2400  147.0900 C   0  0  0  0  0  2  0  0  0  0  0  0
  187.7340  176.3120  146.4160 C   0  0  0  0  0  3  0  0  0  0  0  0
  188.1020  176.0650  143.2590 C   0  0  0  0  0  2  0  0  0  0  0  0
  188.0890  177.4530  142.7050 C   0  0  0  0  0  0  0  0  0  0  0  0
  189.1210  177.9080  142.1450 O   0  0  0  0  0  0  0  0  0  0  0  0
  186.8860  178.2900  142.8080 C   0  0  0  0  0  0  0  0  0  0  0  0
  186.1920  178.5280  141.7810 O   0  0  0  0  0  0  0  0  0  0  0  0
  186.5220  178.8210  144.0470 O   0  0  0  0  0  0  0  0  0  0  0  0
  184.3780  178.9640  145.1040 C   0  0  0  0  0  1  0  0  0  0  0  0
  185.3800  179.6500  144.2000 C   0  0  0  0  0  2  0  0  0  0  0  0
  194.3190  176.0140  144.4940 N   0  0  0  0  0  2  0  0  0  0  0  0
  193.5210  176.8610  145.3640 C   0  0  0  0  0  2  0  0  0  0  0  0
  194.2390  177.0470  146.6830 C   0  0  0  0  0  1  0  0  0  0  0  0
  1  3  1  0  0  0  0
  2  7  1  0  0  0  0
  2  1  1  0  0  0  0
  2 16  1  0  0  0  0
  3  5  1  0  0  0  0
  4  2  1  0  0  0  0
  4  1  1  0  0  0  0
  5  8  1  0  0  0  0
  6  3  1  0  0  0  0
  9  7  1  0  0  0  0
  9 30  1  0  0  0  0
  9  5  1  0  0  0  0
 10 15  1  0  0  0  0
 11 12  1  0  0  0  0
 12 13  1  0  0  0  0
 13  4  1  0  0  0  0
 14 11  1  0  0  0  0
 14 10  1  0  0  0  0
 15 13  1  0  0  0  0
 17 16  1  0  0  0  0
 17 19  1  0  0  0  0
 19 18  2  0  0  0  0
 19 21  1  0  0  0  0
 21 20  2  0  0  0  0
 22 17  1  0  0  0  0
 23 25  1  0  0  0  0
 23 22  1  0  0  0  0
 24 23  2  0  0  0  0
 25 27  1  0  0  0  0
 26 25  2  0  0  0  0
 27 29  1  0  0  0  0
 29 28  1  0  0  0  0
 30 31  1  0  0  0  0
 31 32  1  0  0  0  0
M  END
>  <MODEL>
5

>  <REMARK>
 VINA RESULT:      -5.5      1.227      1.508
  Name = 
  12 active torsions:
  status: ('A' for Active; 'I' for Inactive)
    1  A    between atoms: C_1  and  C_5
    2  A    between atoms: C_1  and  C_24
    3  A    between atoms: C_3  and  O_15
    4  A    between atoms: C_3  and  C_22
    5  A    between atoms: C_10  and  C_28
    6  A    between atoms: N_14  and  C_21
    7  A    between atoms: N_14  and  C_29
    8  A    between atoms: O_15  and  C_26
    9  A    between atoms: C_16  and  C_20
   10  A    between atoms: C_16  and  C_24
   11  A    between atoms: C_22  and  C_27
   12  A    between atoms: C_24  and  C_27
                            x       y       z     vdW  Elec       q    Type
                         _______ _______ _______ _____ _____    ______ ____

>  <TORSDO>
F 12

$$$$
=
 OpenBabel11052419093D

 32 34  0  0  1  0  0  0  0  0999 V2000
  189.2230  175.2210  145.3110 C   0  0  2  0  0  3  0  0  0  0  0  0
  189.3570  175.6960  143.8590 C   0  0  2  0  0  0  0  0  0  0  0  0
  188.2410  176.0190  146.1930 C   0  0  2  0  0  3  0  0  0  0  0  0
  190.4190  176.0820  144.8860 C   0  0  2  0  0  3  0  0  0  0  0  0
  187.1860  176.8070  145.4140 C   0  0  1  0  0  3  0  0  0  0  0  0
  188.9250  176.8330  147.1060 O   0  0  0  0  0  1  0  0  0  0  0  0
  188.5510  176.8950  143.3360 C   0  0  0  0  0  2  0  0  0  0  0  0
  186.2780  177.5660  146.3710 C   0  0  0  0  0  1  0  0  0  0  0  0
  187.8690  177.7330  144.4140 C   0  0  1  0  0  3  0  0  0  0  0  0
  192.6760  176.1360  146.9980 C   0  0  0  0  0  2  0  0  0  0  0  0
  193.3060  177.1540  144.6360 C   0  0  0  0  0  2  0  0  0  0  0  0
  192.7830  175.8680  144.0060 C   0  0  0  0  0  2  0  0  0  0  0  0
  191.6860  175.2200  144.8550 C   0  0  0  0  0  3  0  0  0  0  0  0
  194.1740  176.7860  146.1930 S   0  0  0  0  0  0  0  0  0  0  0  0
  192.1810  174.8930  146.2660 C   0  0  0  0  0  2  0  0  0  0  0  0
  189.7540  174.6310  142.8260 C   0  0  0  0  0  2  0  0  0  0  0  0
  188.9470  173.3300  142.8960 C   0  0  2  0  0  3  0  0  0  0  0  0
  189.7300  171.1690  142.2720 O   0  0  0  0  0  0  0  0  0  0  0  0
  189.7990  172.1100  143.1070 C   0  0  0  0  0  0  0  0  0  0  0  0
  191.9150  171.5300  144.1950 C   0  0  0  0  0  2  0  0  0  0  0  0
  190.6760  171.9950  144.2840 C   0  0  0  0  0  3  0  0  0  0  0  0
  187.9530  173.2020  141.7440 C   0  0  0  0  0  2  0  0  0  0  0  0
  188.4580  173.8890  140.5160 C   0  0  0  0  0  0  0  0  0  0  0  0
  188.1930  175.1060  140.3330 O   0  0  0  0  0  0  0  0  0  0  0  0
  189.2580  173.1590  139.5240 C   0  0  0  0  0  0  0  0  0  0  0  0
  188.9620  171.9690  139.2250 O   0  0  0  0  0  0  0  0  0  0  0  0
  190.3480  173.7890  138.9210 O   0  0  0  0  0  0  0  0  0  0  0  0
  192.1020  173.1890  140.4370 C   0  0  0  0  0  1  0  0  0  0  0  0
  191.6590  173.2500  138.9910 C   0  0  0  0  0  2  0  0  0  0  0  0
  186.8990  178.6120  143.7790 N   0  0  0  0  0  2  0  0  0  0  0  0
  186.5210  177.9930  142.5190 C   0  0  0  0  0  2  0  0  0  0  0  0
  185.0180  177.8260  142.4700 C   0  0  0  0  0  1  0  0  0  0  0  0
  1  3  1  0  0  0  0
  2  4  1  0  0  0  0
  2  1  1  0  0  0  0
  3  6  1  0  0  0  0
  4  1  1  0  0  0  0
  5  3  1  0  0  0  0
  5  8  1  0  0  0  0
  7  2  1  0  0  0  0
  7  9  1  0  0  0  0
  9  5  1  0  0  0  0
 11 14  1  0  0  0  0
 12 11  1  0  0  0  0
 12 13  1  0  0  0  0
 13  4  1  0  0  0  0
 13 15  1  0  0  0  0
 14 10  1  0  0  0  0
 15 10  1  0  0  0  0
 16 17  1  0  0  0  0
 16  2  1  0  0  0  0
 17 19  1  0  0  0  0
 18 19  2  0  0  0  0
 19 21  1  0  0  0  0
 20 21  2  0  0  0  0
 22 17  1  0  0  0  0
 23 22  1  0  0  0  0
 24 23  2  0  0  0  0
 25 23  1  0  0  0  0
 26 25  2  0  0  0  0
 27 29  1  0  0  0  0
 27 25  1  0  0  0  0
 29 28  1  0  0  0  0
 30  9  1  0  0  0  0
 31 30  1  0  0  0  0
 32 31  1  0  0  0  0
M  END
>  <MODEL>
6

>  <REMARK>
 VINA RESULT:      -5.3      2.966      6.354
  Name = 
  12 active torsions:
  status: ('A' for Active; 'I' for Inactive)
    1  A    between atoms: C_1  and  C_5
    2  A    between atoms: C_1  and  C_24
    3  A    between atoms: C_3  and  O_15
    4  A    between atoms: C_3  and  C_22
    5  A    between atoms: C_10  and  C_28
    6  A    between atoms: N_14  and  C_21
    7  A    between atoms: N_14  and  C_29
    8  A    between atoms: O_15  and  C_26
    9  A    between atoms: C_16  and  C_20
   10  A    between atoms: C_16  and  C_24
   11  A    between atoms: C_22  and  C_27
   12  A    between atoms: C_24  and  C_27
                            x       y       z     vdW  Elec       q    Type
                         _______ _______ _______ _____ _____    ______ ____

>  <TORSDO>
F 12

$$$$
=
 OpenBabel11052419093D

 32 34  0  0  1  0  0  0  0  0999 V2000
  191.7080  174.1740  144.1990 C   0  0  2  0  0  3  0  0  0  0  0  0
  191.0300  175.2840  143.3860 C   0  0  2  0  0  0  0  0  0  0  0  0
  191.6450  174.3280  145.7320 C   0  0  2  0  0  3  0  0  0  0  0  0
  192.5470  175.2870  143.5580 C   0  0  2  0  0  3  0  0  0  0  0  0
  190.5210  175.2370  146.2320 C   0  0  1  0  0  3  0  0  0  0  0  0
  192.8890  174.7070  146.2550 O   0  0  0  0  0  1  0  0  0  0  0  0
  190.3350  176.4660  144.0780 C   0  0  0  0  0  2  0  0  0  0  0  0
  190.5530  175.3310  147.7520 C   0  0  0  0  0  1  0  0  0  0  0  0
  190.6300  176.6050  145.5690 C   0  0  1  0  0  3  0  0  0  0  0  0
  195.3700  174.0330  143.7060 C   0  0  0  0  0  2  0  0  0  0  0  0
  195.2330  176.3870  142.4990 C   0  0  0  0  0  2  0  0  0  0  0  0
  194.1100  175.8160  141.6390 C   0  0  0  0  0  2  0  0  0  0  0  0
  193.3310  174.7200  142.3710 C   0  0  0  0  0  3  0  0  0  0  0  0
  196.5080  175.1200  142.7910 S   0  0  0  0  0  0  0  0  0  0  0  0
  194.2410  173.5650  142.7930 C   0  0  0  0  0  2  0  0  0  0  0  0
  190.4960  174.8880  142.0010 C   0  0  0  0  0  2  0  0  0  0  0  0
  189.0280  174.4490  141.9760 C   0  0  2  0  0  3  0  0  0  0  0  0
  187.7170  172.4610  142.0280 O   0  0  0  0  0  0  0  0  0  0  0  0
  188.8510  172.9660  141.8090 C   0  0  0  0  0  0  0  0  0  0  0  0
  190.4410  171.1510  142.2290 C   0  0  0  0  0  2  0  0  0  0  0  0
  189.9850  172.1070  141.4310 C   0  0  0  0  0  3  0  0  0  0  0  0
  188.1900  175.2870  141.0130 C   0  0  0  0  0  2  0  0  0  0  0  0
  187.2110  176.1420  141.7520 C   0  0  0  0  0  0  0  0  0  0  0  0
  186.7370  175.7380  142.8470 O   0  0  0  0  0  0  0  0  0  0  0  0
  186.7980  177.4440  141.2140 C   0  0  0  0  0  0  0  0  0  0  0  0
  186.6500  177.5970  139.9710 O   0  0  0  0  0  0  0  0  0  0  0  0
  186.5760  178.5100  142.0890 O   0  0  0  0  0  0  0  0  0  0  0  0
  185.5250  179.6260  143.9300 C   0  0  0  0  0  1  0  0  0  0  0  0
  185.3380  178.6820  142.7610 C   0  0  0  0  0  2  0  0  0  0  0  0
  189.6760  177.5370  146.1500 N   0  0  0  0  0  2  0  0  0  0  0  0
  188.4970  177.5280  145.3010 C   0  0  0  0  0  2  0  0  0  0  0  0
  187.2820  177.1720  146.1290 C   0  0  0  0  0  1  0  0  0  0  0  0
  1  3  1  0  0  0  0
  2  4  1  0  0  0  0
  2  7  1  0  0  0  0
  2  1  1  0  0  0  0
  3  5  1  0  0  0  0
  3  6  1  0  0  0  0
  4  1  1  0  0  0  0
  5  8  1  0  0  0  0
  7  9  1  0  0  0  0
  9 30  1  0  0  0  0
  9  5  1  0  0  0  0
 11 14  1  0  0  0  0
 12 13  1  0  0  0  0
 12 11  1  0  0  0  0
 13 15  1  0  0  0  0
 13  4  1  0  0  0  0
 14 10  1  0  0  0  0
 15 10  1  0  0  0  0
 16  2  1  0  0  0  0
 17 16  1  0  0  0  0
 19 17  1  0  0  0  0
 19 18  2  0  0  0  0
 21 19  1  0  0  0  0
 21 20  2  0  0  0  0
 22 23  1  0  0  0  0
 22 17  1  0  0  0  0
 23 24  2  0  0  0  0
 25 23  1  0  0  0  0
 25 27  1  0  0  0  0
 26 25  2  0  0  0  0
 27 29  1  0  0  0  0
 29 28  1  0  0  0  0
 31 32  1  0  0  0  0
 31 30  1  0  0  0  0
M  END
>  <MODEL>
7

>  <REMARK>
 VINA RESULT:      -5.2      2.560      4.555
  Name = 
  12 active torsions:
  status: ('A' for Active; 'I' for Inactive)
    1  A    between atoms: C_1  and  C_5
    2  A    between atoms: C_1  and  C_24
    3  A    between atoms: C_3  and  O_15
    4  A    between atoms: C_3  and  C_22
    5  A    between atoms: C_10  and  C_28
    6  A    between atoms: N_14  and  C_21
    7  A    between atoms: N_14  and  C_29
    8  A    between atoms: O_15  and  C_26
    9  A    between atoms: C_16  and  C_20
   10  A    between atoms: C_16  and  C_24
   11  A    between atoms: C_22  and  C_27
   12  A    between atoms: C_24  and  C_27
                            x       y       z     vdW  Elec       q    Type
                         _______ _______ _______ _____ _____    ______ ____

>  <TORSDO>
F 12

$$$$
=
 OpenBabel11052419093D

 32 34  0  0  1  0  0  0  0  0999 V2000
  190.7330  175.1460  142.5390 C   0  0  2  0  0  3  0  0  0  0  0  0
  190.0540  174.1590  143.4970 C   0  0  2  0  0  0  0  0  0  0  0  0
  191.3190  174.5390  141.2490 C   0  0  2  0  0  3  0  0  0  0  0  0
  191.4740  174.6400  143.7830 C   0  0  2  0  0  3  0  0  0  0  0  0
  190.7170  173.1880  140.8550 C   0  0  1  0  0  3  0  0  0  0  0  0
  192.7180  174.4860  141.3030 O   0  0  0  0  0  1  0  0  0  0  0  0
  189.9720  172.6610  143.1680 C   0  0  0  0  0  2  0  0  0  0  0  0
  191.3690  172.6700  139.5800 C   0  0  0  0  0  1  0  0  0  0  0  0
  190.8570  172.2050  142.0120 C   0  0  1  0  0  3  0  0  0  0  0  0
  194.0300  176.2550  144.4310 C   0  0  0  0  0  2  0  0  0  0  0  0
  193.2290  174.5870  146.3260 C   0  0  0  0  0  2  0  0  0  0  0  0
  191.8460  175.2210  146.2190 C   0  0  0  0  0  2  0  0  0  0  0  0
  191.5750  175.7680  144.8150 C   0  0  0  0  0  3  0  0  0  0  0  0
  194.5200  175.8570  146.1380 S   0  0  0  0  0  0  0  0  0  0  0  0
  192.6130  176.8170  144.4060 C   0  0  0  0  0  2  0  0  0  0  0  0
  188.9410  174.7290  144.3900 C   0  0  0  0  0  2  0  0  0  0  0  0
  188.2940  176.0180  143.8730 C   0  0  2  0  0  3  0  0  0  0  0  0
  188.3910  178.2000  144.8230 O   0  0  0  0  0  0  0  0  0  0  0  0
  187.9930  177.0120  144.9590 C   0  0  0  0  0  0  0  0  0  0  0  0
  185.9720  176.7960  146.3250 C   0  0  0  0  0  2  0  0  0  0  0  0
  187.2760  176.6050  146.1790 C   0  0  0  0  0  3  0  0  0  0  0  0
  187.1170  175.7420  142.9400 C   0  0  0  0  0  2  0  0  0  0  0  0
  186.8820  176.8900  142.0110 C   0  0  0  0  0  0  0  0  0  0  0  0
  187.8160  177.2860  141.2660 O   0  0  0  0  0  0  0  0  0  0  0  0
  185.5760  177.5590  141.9620 C   0  0  0  0  0  0  0  0  0  0  0  0
  185.1930  178.1230  140.9010 O   0  0  0  0  0  0  0  0  0  0  0  0
  184.7650  177.5690  143.1000 O   0  0  0  0  0  0  0  0  0  0  0  0
  185.4160  179.6890  144.0050 C   0  0  0  0  0  1  0  0  0  0  0  0
  184.2620  178.7760  143.6500 C   0  0  0  0  0  2  0  0  0  0  0  0
  190.4440  170.8690  141.6060 N   0  0  0  0  0  2  0  0  0  0  0  0
  191.3160  169.9270  142.2850 C   0  0  0  0  0  2  0  0  0  0  0  0
  192.7480  170.4100  142.1960 C   0  0  0  0  0  1  0  0  0  0  0  0
  1  2  1  0  0  0  0
  1  4  1  0  0  0  0
  2  4  1  0  0  0  0
  2 16  1  0  0  0  0
  3  6  1  0  0  0  0
  3  1  1  0  0  0  0
  4 13  1  0  0  0  0
  5  3  1  0  0  0  0
  5  9  1  0  0  0  0
  7  2  1  0  0  0  0
  8  5  1  0  0  0  0
  9  7  1  0  0  0  0
 10 14  1  0  0  0  0
 12 11  1  0  0  0  0
 13 12  1  0  0  0  0
 14 11  1  0  0  0  0
 15 10  1  0  0  0  0
 15 13  1  0  0  0  0
 17 16  1  0  0  0  0
 17 19  1  0  0  0  0
 18 19  2  0  0  0  0
 19 21  1  0  0  0  0
 21 20  2  0  0  0  0
 22 17  1  0  0  0  0
 23 22  1  0  0  0  0
 24 23  2  0  0  0  0
 25 23  1  0  0  0  0
 25 27  1  0  0  0  0
 26 25  2  0  0  0  0
 27 29  1  0  0  0  0
 29 28  1  0  0  0  0
 30  9  1  0  0  0  0
 30 31  1  0  0  0  0
 32 31  1  0  0  0  0
M  END
>  <MODEL>
8

>  <REMARK>
 VINA RESULT:      -5.2      2.641      4.659
  Name = 
  12 active torsions:
  status: ('A' for Active; 'I' for Inactive)
    1  A    between atoms: C_1  and  C_5
    2  A    between atoms: C_1  and  C_24
    3  A    between atoms: C_3  and  O_15
    4  A    between atoms: C_3  and  C_22
    5  A    between atoms: C_10  and  C_28
    6  A    between atoms: N_14  and  C_21
    7  A    between atoms: N_14  and  C_29
    8  A    between atoms: O_15  and  C_26
    9  A    between atoms: C_16  and  C_20
   10  A    between atoms: C_16  and  C_24
   11  A    between atoms: C_22  and  C_27
   12  A    between atoms: C_24  and  C_27
                            x       y       z     vdW  Elec       q    Type
                         _______ _______ _______ _____ _____    ______ ____

>  <TORSDO>
F 12

$$$$
=
 OpenBabel11052419093D

 32 34  0  0  1  0  0  0  0  0999 V2000
  189.2180  175.2760  145.8440 C   0  0  2  0  0  3  0  0  0  0  0  0
  189.2310  175.3860  144.3150 C   0  0  2  0  0  0  0  0  0  0  0  0
  188.3270  176.2920  146.5860 C   0  0  2  0  0  3  0  0  0  0  0  0
  190.3830  175.9710  145.1280 C   0  0  2  0  0  3  0  0  0  0  0  0
  187.2170  176.9050  145.7290 C   0  0  1  0  0  3  0  0  0  0  0  0
  189.0970  177.2780  147.2170 O   0  0  0  0  0  1  0  0  0  0  0  0
  188.3960  176.4510  143.5870 C   0  0  0  0  0  2  0  0  0  0  0  0
  186.4030  177.8990  146.5470 C   0  0  0  0  0  1  0  0  0  0  0  0
  187.8210  177.5430  144.4830 C   0  0  1  0  0  3  0  0  0  0  0  0
  192.7000  176.3070  147.1470 C   0  0  0  0  0  2  0  0  0  0  0  0
  193.2800  176.9260  144.6390 C   0  0  0  0  0  2  0  0  0  0  0  0
  192.7160  175.5690  144.2340 C   0  0  0  0  0  2  0  0  0  0  0  0
  191.6320  175.0880  145.2020 C   0  0  0  0  0  3  0  0  0  0  0  0
  194.1860  176.7880  146.2120 S   0  0  0  0  0  0  0  0  0  0  0  0
  192.1620  174.9760  146.6330 C   0  0  0  0  0  2  0  0  0  0  0  0
  189.5240  174.0930  143.5390 C   0  0  0  0  0  2  0  0  0  0  0  0
  189.5750  174.2510  142.0150 C   0  0  2  0  0  3  0  0  0  0  0  0
  187.5200  173.0470  141.9990 O   0  0  0  0  0  0  0  0  0  0  0  0
  188.3870  173.6540  141.3140 C   0  0  0  0  0  0  0  0  0  0  0  0
  188.1920  172.6640  139.0830 C   0  0  0  0  0  2  0  0  0  0  0  0
  188.2480  173.7430  139.8510 C   0  0  0  0  0  3  0  0  0  0  0  0
  190.9200  173.8250  141.4320 C   0  0  0  0  0  2  0  0  0  0  0  0
  191.3160  172.4690  141.9240 C   0  0  0  0  0  0  0  0  0  0  0  0
  190.5870  171.4760  141.6610 O   0  0  0  0  0  0  0  0  0  0  0  0
  192.5430  172.2860  142.7110 C   0  0  0  0  0  0  0  0  0  0  0  0
  193.6670  172.5330  142.1950 O   0  0  0  0  0  0  0  0  0  0  0  0
  192.4530  171.8330  144.0290 O   0  0  0  0  0  0  0  0  0  0  0  0
  194.1900  171.9510  145.6740 C   0  0  0  0  0  1  0  0  0  0  0  0
  193.4980  171.0910  144.6380 C   0  0  0  0  0  2  0  0  0  0  0  0
  186.8080  178.2750  143.7370 N   0  0  0  0  0  2  0  0  0  0  0  0
  186.1290  177.3160  142.8830 C   0  0  0  0  0  2  0  0  0  0  0  0
  185.5860  178.0250  141.6610 C   0  0  0  0  0  1  0  0  0  0  0  0
  1  3  1  0  0  0  0
  2  4  1  0  0  0  0
  2  1  1  0  0  0  0
  3  6  1  0  0  0  0
  4 13  1  0  0  0  0
  4  1  1  0  0  0  0
  5  8  1  0  0  0  0
  5  3  1  0  0  0  0
  7  2  1  0  0  0  0
  7  9  1  0  0  0  0
  9  5  1  0  0  0  0
 11 14  1  0  0  0  0
 12 11  1  0  0  0  0
 12 13  1  0  0  0  0
 13 15  1  0  0  0  0
 14 10  1  0  0  0  0
 15 10  1  0  0  0  0
 16  2  1  0  0  0  0
 17 16  1  0  0  0  0
 19 18  2  0  0  0  0
 19 17  1  0  0  0  0
 20 21  2  0  0  0  0
 21 19  1  0  0  0  0
 22 23  1  0  0  0  0
 22 17  1  0  0  0  0
 23 25  1  0  0  0  0
 24 23  2  0  0  0  0
 25 27  1  0  0  0  0
 26 25  2  0  0  0  0
 27 29  1  0  0  0  0
 29 28  1  0  0  0  0
 30  9  1  0  0  0  0
 31 30  1  0  0  0  0
 32 31  1  0  0  0  0
M  END
>  <MODEL>
9

>  <REMARK>
 VINA RESULT:      -5.1      2.906      7.093
  Name = 
  12 active torsions:
  status: ('A' for Active; 'I' for Inactive)
    1  A    between atoms: C_1  and  C_5
    2  A    between atoms: C_1  and  C_24
    3  A    between atoms: C_3  and  O_15
    4  A    between atoms: C_3  and  C_22
    5  A    between atoms: C_10  and  C_28
    6  A    between atoms: N_14  and  C_21
    7  A    between atoms: N_14  and  C_29
    8  A    between atoms: O_15  and  C_26
    9  A    between atoms: C_16  and  C_20
   10  A    between atoms: C_16  and  C_24
   11  A    between atoms: C_22  and  C_27
   12  A    between atoms: C_24  and  C_27
                            x       y       z     vdW  Elec       q    Type
                         _______ _______ _______ _____ _____    ______ ____

>  <TORSDO>
F 12

$$$$
