=
 OpenBabel11052420353D

 34 39  0  0  0  0  0  0  0  0999 V2000
  187.2660  176.8040  143.7640 C   0  0  0  0  0  0  0  0  0  0  0  0
  186.3460  177.5710  140.1020 C   0  0  0  0  0  3  0  0  0  0  0  0
  185.8800  178.6780  142.1970 C   0  0  0  0  0  3  0  0  0  0  0  0
  187.8620  176.3030  146.0970 C   0  0  0  0  0  0  0  0  0  0  0  0
  187.9120  175.9750  144.7120 C   0  0  0  0  0  3  0  0  0  0  0  0
  186.5550  178.2450  145.5720 C   0  0  0  0  0  0  0  0  0  0  0  0
  185.8420  179.3860  145.7060 N   0  0  0  0  0  0  0  0  0  0  0  0
  187.1760  177.4620  146.5430 C   0  0  0  0  0  3  0  0  0  0  0  0
  185.9660  178.7870  143.5410 N   0  0  0  0  0  0  0  0  0  0  0  0
  186.6160  177.9050  144.2730 C   0  0  0  0  0  0  0  0  0  0  0  0
  185.4890  179.7000  144.4200 C   0  0  0  0  0  3  0  0  0  0  0  0
  186.7900  176.7180  139.1870 C   0  0  0  0  0  3  0  0  0  0  0  0
  187.5930  175.5000  139.3480 C   0  0  0  0  0  0  0  0  0  0  0  0
  188.0330  175.0250  140.5130 C   0  0  0  0  0  3  0  0  0  0  0  0
  186.5110  177.5790  141.5600 C   0  0  0  0  0  0  0  0  0  0  0  0
  187.8610  175.5380  141.8750 C   0  0  0  0  0  3  0  0  0  0  0  0
  187.2250  176.6130  142.3560 C   0  0  0  0  0  0  0  0  0  0  0  0
  187.9340  174.7490  138.1210 C   0  0  0  0  0  0  0  0  0  0  0  0
  188.6690  173.5300  138.2020 N   0  0  0  0  0  1  0  0  0  0  0  0
  187.5810  175.1750  136.9880 O   0  0  0  0  0  0  0  0  0  0  0  0
  188.5700  175.4390  147.0850 C   0  0  0  0  0  2  0  0  0  0  0  0
  192.2320  176.3910  147.1030 C   0  0  0  0  0  3  0  0  0  0  0  0
  190.5980  174.3850  146.0630 C   0  0  0  0  0  3  0  0  0  0  0  0
  194.6400  175.3340  144.7500 N   0  0  0  0  0  0  0  0  0  0  0  0
  194.4460  174.1060  144.0480 C   0  0  0  0  0  0  0  0  0  0  0  0
  194.2900  175.4080  146.1610 C   0  0  0  0  0  2  0  0  0  0  0  0
  194.7830  173.9910  142.8380 O   0  0  0  0  0  0  0  0  0  0  0  0
  192.8040  175.3640  146.3440 C   0  0  0  0  0  0  0  0  0  0  0  0
  195.1600  176.5150  144.0810 C   0  0  0  0  0  1  0  0  0  0  0  0
  192.4410  173.2600  145.0370 O   0  0  0  0  0  0  0  0  0  0  0  0
  191.9750  174.3350  145.8180 C   0  0  0  0  0  0  0  0  0  0  0  0
  193.8040  172.9610  144.7540 C   0  0  0  0  0  2  0  0  0  0  0  0
  190.0370  175.4210  146.8140 C   0  0  0  0  0  0  0  0  0  0  0  0
  190.8570  176.4220  147.3380 C   0  0  0  0  0  3  0  0  0  0  0  0
  1 10  2  0  0  0  0
  1  5  1  0  0  0  0
  2 15  1  0  0  0  0
  3  9  1  0  0  0  0
  4  8  1  0  0  0  0
  4 21  1  0  0  0  0
  5  4  2  0  0  0  0
  6  7  1  0  0  0  0
  6  8  2  0  0  0  0
  9 10  1  0  0  0  0
  9 11  1  0  0  0  0
 10  6  1  0  0  0  0
 11  7  2  0  0  0  0
 12 13  1  0  0  0  0
 12  2  2  0  0  0  0
 13 14  2  0  0  0  0
 14 16  1  0  0  0  0
 15  3  2  0  0  0  0
 15 17  1  0  0  0  0
 16 17  2  0  0  0  0
 17  1  1  0  0  0  0
 18 19  1  0  0  0  0
 18 13  1  0  0  0  0
 20 18  2  0  0  0  0
 22 34  1  0  0  0  0
 23 33  1  0  0  0  0
 24 26  1  0  0  0  0
 25 24  1  0  0  0  0
 25 32  1  0  0  0  0
 26 28  1  0  0  0  0
 27 25  2  0  0  0  0
 28 22  2  0  0  0  0
 29 24  1  0  0  0  0
 30 31  1  0  0  0  0
 31 23  2  0  0  0  0
 31 28  1  0  0  0  0
 32 30  1  0  0  0  0
 33 21  1  0  0  0  0
 33 34  2  0  0  0  0
M  END
>  <MODEL>
1

>  <REMARK>
 VINA RESULT:      -8.8      0.000      0.000
  Name = 
  3 active torsions:
  status: ('A' for Active; 'I' for Inactive)
    1  A    between atoms: C_3  and  C_25
    2  A    between atoms: C_8  and  C_18
    3  A    between atoms: C_18  and  C_30
                            x       y       z     vdW  Elec       q    Type
                         _______ _______ _______ _____ _____    ______ ____

>  <TORSDO>
F 3

$$$$
=
 OpenBabel11052420353D

 34 39  0  0  0  0  0  0  0  0999 V2000
  186.5560  176.9620  144.4540 C   0  0  0  0  0  0  0  0  0  0  0  0
  184.9300  178.1350  141.1640 C   0  0  0  0  0  3  0  0  0  0  0  0
  184.4310  178.5270  143.4940 C   0  0  0  0  0  3  0  0  0  0  0  0
  187.6060  176.2070  146.5460 C   0  0  0  0  0  0  0  0  0  0  0  0
  187.5630  176.2260  145.1230 C   0  0  0  0  0  3  0  0  0  0  0  0
  185.6790  177.6350  146.6050 C   0  0  0  0  0  0  0  0  0  0  0  0
  184.6620  178.3980  147.0650 N   0  0  0  0  0  0  0  0  0  0  0  0
  186.6520  176.9280  147.3100 C   0  0  0  0  0  3  0  0  0  0  0  0
  184.6660  178.3660  144.8150 N   0  0  0  0  0  0  0  0  0  0  0  0
  185.6630  177.6290  145.2620 C   0  0  0  0  0  0  0  0  0  0  0  0
  184.0480  178.8400  145.9220 C   0  0  0  0  0  3  0  0  0  0  0  0
  185.4920  177.7110  140.0400 C   0  0  0  0  0  3  0  0  0  0  0  0
  186.6610  176.8460  139.8410 C   0  0  0  0  0  0  0  0  0  0  0  0
  187.3910  176.3140  140.8210 C   0  0  0  0  0  3  0  0  0  0  0  0
  185.2870  177.8840  142.5650 C   0  0  0  0  0  0  0  0  0  0  0  0
  187.2560  176.4260  142.2760 C   0  0  0  0  0  3  0  0  0  0  0  0
  186.3800  177.0800  143.0480 C   0  0  0  0  0  0  0  0  0  0  0  0
  187.0500  176.5470  138.4470 C   0  0  0  0  0  0  0  0  0  0  0  0
  187.4610  175.2320  138.0780 N   0  0  0  0  0  1  0  0  0  0  0  0
  187.0240  177.4470  137.5650 O   0  0  0  0  0  0  0  0  0  0  0  0
  188.6880  175.4520  147.2410 C   0  0  0  0  0  2  0  0  0  0  0  0
  190.6730  173.5560  144.6380 C   0  0  0  0  0  3  0  0  0  0  0  0
  190.8610  175.9270  146.0930 C   0  0  0  0  0  3  0  0  0  0  0  0
  194.1250  173.9350  144.0100 N   0  0  0  0  0  0  0  0  0  0  0  0
  194.7660  175.1720  144.3250 C   0  0  0  0  0  0  0  0  0  0  0  0
  192.7890  173.9550  143.4320 C   0  0  0  0  0  2  0  0  0  0  0  0
  195.9410  175.1950  144.7820 O   0  0  0  0  0  0  0  0  0  0  0  0
  191.7770  174.3930  144.4450 C   0  0  0  0  0  0  0  0  0  0  0  0
  194.7700  172.6590  144.2730 C   0  0  0  0  0  1  0  0  0  0  0  0
  192.9400  176.5210  145.0730 O   0  0  0  0  0  0  0  0  0  0  0  0
  191.8730  175.6080  145.1810 C   0  0  0  0  0  0  0  0  0  0  0  0
  194.0140  176.4450  144.1410 C   0  0  0  0  0  2  0  0  0  0  0  0
  189.7690  175.0770  146.2830 C   0  0  0  0  0  0  0  0  0  0  0  0
  189.6740  173.8930  145.5500 C   0  0  0  0  0  3  0  0  0  0  0  0
  1  5  2  0  0  0  0
  1 10  1  0  0  0  0
  2 15  1  0  0  0  0
  3  9  1  0  0  0  0
  4 21  1  0  0  0  0
  4  8  2  0  0  0  0
  5  4  1  0  0  0  0
  6  7  1  0  0  0  0
  6  8  1  0  0  0  0
  9 10  1  0  0  0  0
  9 11  1  0  0  0  0
 10  6  2  0  0  0  0
 11  7  2  0  0  0  0
 12  2  2  0  0  0  0
 13 12  1  0  0  0  0
 13 14  2  0  0  0  0
 14 16  1  0  0  0  0
 15 17  1  0  0  0  0
 15  3  2  0  0  0  0
 16 17  2  0  0  0  0
 17  1  1  0  0  0  0
 18 13  1  0  0  0  0
 19 18  1  0  0  0  0
 20 18  2  0  0  0  0
 22 34  1  0  0  0  0
 23 33  1  0  0  0  0
 24 29  1  0  0  0  0
 24 25  1  0  0  0  0
 25 27  2  0  0  0  0
 26 24  1  0  0  0  0
 26 28  1  0  0  0  0
 28 22  2  0  0  0  0
 28 31  1  0  0  0  0
 30 31  1  0  0  0  0
 31 23  2  0  0  0  0
 32 25  1  0  0  0  0
 32 30  1  0  0  0  0
 33 21  1  0  0  0  0
 34 33  2  0  0  0  0
M  END
>  <MODEL>
2

>  <REMARK>
 VINA RESULT:      -8.7      1.518      2.130
  Name = 
  3 active torsions:
  status: ('A' for Active; 'I' for Inactive)
    1  A    between atoms: C_3  and  C_25
    2  A    between atoms: C_8  and  C_18
    3  A    between atoms: C_18  and  C_30
                            x       y       z     vdW  Elec       q    Type
                         _______ _______ _______ _____ _____    ______ ____

>  <TORSDO>
F 3

$$$$
=
 OpenBabel11052420353D

 34 39  0  0  0  0  0  0  0  0999 V2000
  191.1410  173.8600  145.1920 C   0  0  0  0  0  0  0  0  0  0  0  0
  193.3430  171.7530  142.8340 C   0  0  0  0  0  3  0  0  0  0  0  0
  193.8180  173.5180  144.4130 C   0  0  0  0  0  3  0  0  0  0  0  0
  189.7240  175.1960  146.6950 C   0  0  0  0  0  0  0  0  0  0  0  0
  189.8630  174.1750  145.7120 C   0  0  0  0  0  3  0  0  0  0  0  0
  192.0950  175.5570  146.6280 C   0  0  0  0  0  0  0  0  0  0  0  0
  193.3240  176.0550  146.8910 N   0  0  0  0  0  0  0  0  0  0  0  0
  190.8590  175.9020  147.1710 C   0  0  0  0  0  3  0  0  0  0  0  0
  193.4490  174.4330  145.3360 N   0  0  0  0  0  0  0  0  0  0  0  0
  192.1920  174.5920  145.6980 C   0  0  0  0  0  0  0  0  0  0  0  0
  194.1480  175.3320  146.0680 C   0  0  0  0  0  3  0  0  0  0  0  0
  192.7190  170.8470  142.0930 C   0  0  0  0  0  3  0  0  0  0  0  0
  191.2930  170.5090  142.0220 C   0  0  0  0  0  0  0  0  0  0  0  0
  190.3340  171.0950  142.7380 C   0  0  0  0  0  3  0  0  0  0  0  0
  192.8180  172.7050  143.8200 C   0  0  0  0  0  0  0  0  0  0  0  0
  190.4120  172.1700  143.7320 C   0  0  0  0  0  3  0  0  0  0  0  0
  191.4430  172.8730  144.2140 C   0  0  0  0  0  0  0  0  0  0  0  0
  190.8980  169.4360  141.0840 C   0  0  0  0  0  0  0  0  0  0  0  0
  190.8920  169.6740  139.6790 N   0  0  0  0  0  1  0  0  0  0  0  0
  190.5640  168.2990  141.5120 O   0  0  0  0  0  0  0  0  0  0  0  0
  188.3770  175.5000  147.2560 C   0  0  0  0  0  2  0  0  0  0  0  0
  185.8850  178.0720  146.0370 C   0  0  0  0  0  3  0  0  0  0  0  0
  188.0210  176.5880  145.0310 C   0  0  0  0  0  3  0  0  0  0  0  0
  184.9690  178.6100  142.6710 N   0  0  0  0  0  0  0  0  0  0  0  0
  185.8840  178.2660  141.6290 C   0  0  0  0  0  0  0  0  0  0  0  0
  185.4790  179.2200  143.8900 C   0  0  0  0  0  2  0  0  0  0  0  0
  185.4730  177.7800  140.5410 O   0  0  0  0  0  0  0  0  0  0  0  0
  186.2580  178.2290  144.6970 C   0  0  0  0  0  0  0  0  0  0  0  0
  183.5460  178.3440  142.5470 C   0  0  0  0  0  1  0  0  0  0  0  0
  187.8090  177.5500  142.8520 O   0  0  0  0  0  0  0  0  0  0  0  0
  187.3530  177.4790  144.1820 C   0  0  0  0  0  0  0  0  0  0  0  0
  187.3450  178.4560  141.8550 C   0  0  0  0  0  2  0  0  0  0  0  0
  187.6320  176.4350  146.3630 C   0  0  0  0  0  0  0  0  0  0  0  0
  186.5660  177.1820  146.8670 C   0  0  0  0  0  3  0  0  0  0  0  0
  1 10  2  0  0  0  0
  1  5  1  0  0  0  0
  2 15  1  0  0  0  0
  3  9  1  0  0  0  0
  4  8  1  0  0  0  0
  4 21  1  0  0  0  0
  5  4  2  0  0  0  0
  6  7  1  0  0  0  0
  6  8  2  0  0  0  0
  9 10  1  0  0  0  0
  9 11  1  0  0  0  0
 10  6  1  0  0  0  0
 11  7  2  0  0  0  0
 12  2  2  0  0  0  0
 13 12  1  0  0  0  0
 13 14  2  0  0  0  0
 14 16  1  0  0  0  0
 15 17  1  0  0  0  0
 15  3  2  0  0  0  0
 16 17  2  0  0  0  0
 17  1  1  0  0  0  0
 18 20  2  0  0  0  0
 18 13  1  0  0  0  0
 19 18  1  0  0  0  0
 22 34  1  0  0  0  0
 23 33  1  0  0  0  0
 24 26  1  0  0  0  0
 25 32  1  0  0  0  0
 25 24  1  0  0  0  0
 26 28  1  0  0  0  0
 27 25  2  0  0  0  0
 28 22  2  0  0  0  0
 29 24  1  0  0  0  0
 30 31  1  0  0  0  0
 31 28  1  0  0  0  0
 31 23  2  0  0  0  0
 32 30  1  0  0  0  0
 33 34  2  0  0  0  0
 33 21  1  0  0  0  0
M  END
>  <MODEL>
3

>  <REMARK>
 VINA RESULT:      -8.6      2.774      7.338
  Name = 
  3 active torsions:
  status: ('A' for Active; 'I' for Inactive)
    1  A    between atoms: C_3  and  C_25
    2  A    between atoms: C_8  and  C_18
    3  A    between atoms: C_18  and  C_30
                            x       y       z     vdW  Elec       q    Type
                         _______ _______ _______ _____ _____    ______ ____

>  <TORSDO>
F 3

$$$$
=
 OpenBabel11052420353D

 34 39  0  0  0  0  0  0  0  0999 V2000
  193.4350  173.7220  144.9750 C   0  0  0  0  0  0  0  0  0  0  0  0
  197.0220  172.5610  145.7660 C   0  0  0  0  0  3  0  0  0  0  0  0
  196.0540  174.7060  145.2250 C   0  0  0  0  0  3  0  0  0  0  0  0
  191.1390  174.4500  144.4740 C   0  0  0  0  0  0  0  0  0  0  0  0
  192.0620  173.4190  144.8100 C   0  0  0  0  0  3  0  0  0  0  0  0
  192.9380  176.0380  144.4820 C   0  0  0  0  0  0  0  0  0  0  0  0
  193.6240  177.1990  144.3890 N   0  0  0  0  0  0  0  0  0  0  0  0
  191.5780  175.7900  144.3100 C   0  0  0  0  0  3  0  0  0  0  0  0
  195.0110  175.5070  144.9110 N   0  0  0  0  0  0  0  0  0  0  0  0
  193.7840  175.0420  144.7930 C   0  0  0  0  0  0  0  0  0  0  0  0
  194.9160  176.8340  144.6630 C   0  0  0  0  0  3  0  0  0  0  0  0
  197.1840  171.2700  146.0270 C   0  0  0  0  0  3  0  0  0  0  0  0
  196.1950  170.1860  146.0620 C   0  0  0  0  0  0  0  0  0  0  0  0
  194.8920  170.3350  145.8240 C   0  0  0  0  0  3  0  0  0  0  0  0
  195.8140  173.3240  145.4330 C   0  0  0  0  0  0  0  0  0  0  0  0
  194.1180  171.5320  145.4820 C   0  0  0  0  0  3  0  0  0  0  0  0
  194.4740  172.8110  145.3080 C   0  0  0  0  0  0  0  0  0  0  0  0
  196.6890  168.8310  146.3870 C   0  0  0  0  0  0  0  0  0  0  0  0
  196.2450  168.1660  147.5670 N   0  0  0  0  0  1  0  0  0  0  0  0
  197.5080  168.2470  145.6280 O   0  0  0  0  0  0  0  0  0  0  0  0
  189.6910  174.1250  144.3300 C   0  0  0  0  0  2  0  0  0  0  0  0
  187.9800  176.7330  146.4710 C   0  0  0  0  0  3  0  0  0  0  0  0
  188.1780  176.0400  143.7770 C   0  0  0  0  0  3  0  0  0  0  0  0
  185.1340  178.6030  145.5470 N   0  0  0  0  0  0  0  0  0  0  0  0
  184.8630  178.8350  144.1640 C   0  0  0  0  0  0  0  0  0  0  0  0
  186.5100  178.6620  146.0200 C   0  0  0  0  0  2  0  0  0  0  0  0
  183.6800  178.8390  143.7280 O   0  0  0  0  0  0  0  0  0  0  0  0
  187.2970  177.4930  145.5150 C   0  0  0  0  0  0  0  0  0  0  0  0
  184.0690  178.2910  146.4860 C   0  0  0  0  0  1  0  0  0  0  0  0
  186.7530  177.8350  143.0950 O   0  0  0  0  0  0  0  0  0  0  0  0
  187.4010  177.1470  144.1390 C   0  0  0  0  0  0  0  0  0  0  0  0
  186.0030  179.0390  143.2260 C   0  0  0  0  0  2  0  0  0  0  0  0
  188.8470  175.2840  144.7420 C   0  0  0  0  0  0  0  0  0  0  0  0
  188.7510  175.6350  146.0890 C   0  0  0  0  0  3  0  0  0  0  0  0
  1 17  1  0  0  0  0
  2 12  2  0  0  0  0
  3 15  2  0  0  0  0
  4  5  2  0  0  0  0
  5  1  1  0  0  0  0
  6 10  1  0  0  0  0
  7  6  1  0  0  0  0
  7 11  2  0  0  0  0
  8  4  1  0  0  0  0
  8  6  2  0  0  0  0
  9  3  1  0  0  0  0
 10  9  1  0  0  0  0
 10  1  2  0  0  0  0
 11  9  1  0  0  0  0
 12 13  1  0  0  0  0
 13 18  1  0  0  0  0
 14 13  2  0  0  0  0
 15  2  1  0  0  0  0
 16 14  1  0  0  0  0
 17 15  1  0  0  0  0
 17 16  2  0  0  0  0
 18 19  1  0  0  0  0
 20 18  2  0  0  0  0
 21  4  1  0  0  0  0
 21 33  1  0  0  0  0
 23 31  2  0  0  0  0
 23 33  1  0  0  0  0
 24 26  1  0  0  0  0
 24 29  1  0  0  0  0
 25 24  1  0  0  0  0
 27 25  2  0  0  0  0
 28 26  1  0  0  0  0
 28 22  2  0  0  0  0
 30 32  1  0  0  0  0
 30 31  1  0  0  0  0
 31 28  1  0  0  0  0
 32 25  1  0  0  0  0
 33 34  2  0  0  0  0
 34 22  1  0  0  0  0
M  END
>  <MODEL>
4

>  <REMARK>
 VINA RESULT:      -8.4      3.329      9.229
  Name = 
  3 active torsions:
  status: ('A' for Active; 'I' for Inactive)
    1  A    between atoms: C_3  and  C_25
    2  A    between atoms: C_8  and  C_18
    3  A    between atoms: C_18  and  C_30
                            x       y       z     vdW  Elec       q    Type
                         _______ _______ _______ _____ _____    ______ ____

>  <TORSDO>
F 3

$$$$
=
 OpenBabel11052420353D

 34 39  0  0  0  0  0  0  0  0999 V2000
  192.5310  174.2410  145.7440 C   0  0  0  0  0  0  0  0  0  0  0  0
  195.7780  172.7590  144.2940 C   0  0  0  0  0  3  0  0  0  0  0  0
  195.2690  174.8050  145.4710 C   0  0  0  0  0  3  0  0  0  0  0  0
  190.4510  175.1730  146.6680 C   0  0  0  0  0  0  0  0  0  0  0  0
  191.1400  174.1330  145.9810 C   0  0  0  0  0  3  0  0  0  0  0  0
  192.5140  176.3810  146.8710 C   0  0  0  0  0  0  0  0  0  0  0  0
  193.4130  177.3390  147.1900 N   0  0  0  0  0  0  0  0  0  0  0  0
  191.1460  176.3210  147.1300 C   0  0  0  0  0  3  0  0  0  0  0  0
  194.4180  175.6520  146.0910 N   0  0  0  0  0  0  0  0  0  0  0  0
  193.1340  175.3850  146.2160 C   0  0  0  0  0  0  0  0  0  0  0  0
  194.5930  176.8540  146.6890 C   0  0  0  0  0  3  0  0  0  0  0  0
  195.6770  171.5770  143.6990 C   0  0  0  0  0  3  0  0  0  0  0  0
  194.5010  170.7230  143.4980 C   0  0  0  0  0  0  0  0  0  0  0  0
  193.2670  171.0150  143.9070 C   0  0  0  0  0  3  0  0  0  0  0  0
  194.7590  173.5920  144.9420 C   0  0  0  0  0  0  0  0  0  0  0  0
  192.7560  172.1870  144.6250 C   0  0  0  0  0  3  0  0  0  0  0  0
  193.3560  173.2940  145.0780 C   0  0  0  0  0  0  0  0  0  0  0  0
  194.7100  169.4430  142.7870 C   0  0  0  0  0  0  0  0  0  0  0  0
  194.3070  168.2130  143.3830 N   0  0  0  0  0  1  0  0  0  0  0  0
  195.2460  169.4220  141.6460 O   0  0  0  0  0  0  0  0  0  0  0  0
  188.9900  175.0370  146.9370 C   0  0  0  0  0  2  0  0  0  0  0  0
  186.5290  177.7750  146.0650 C   0  0  0  0  0  3  0  0  0  0  0  0
  188.4860  176.2410  144.8020 C   0  0  0  0  0  3  0  0  0  0  0  0
  185.3350  178.5070  142.8250 N   0  0  0  0  0  0  0  0  0  0  0  0
  186.1320  178.1700  141.6890 C   0  0  0  0  0  0  0  0  0  0  0  0
  185.9850  179.0370  144.0150 C   0  0  0  0  0  2  0  0  0  0  0  0
  185.5980  177.7530  140.6250 O   0  0  0  0  0  0  0  0  0  0  0  0
  186.7850  177.9750  144.7040 C   0  0  0  0  0  0  0  0  0  0  0  0
  183.8950  178.3130  142.8250 C   0  0  0  0  0  1  0  0  0  0  0  0
  188.1230  177.3110  142.6940 O   0  0  0  0  0  0  0  0  0  0  0  0
  187.7880  177.1990  144.0570 C   0  0  0  0  0  0  0  0  0  0  0  0
  187.6150  178.2810  141.7840 C   0  0  0  0  0  2  0  0  0  0  0  0
  188.2140  176.0450  146.1570 C   0  0  0  0  0  0  0  0  0  0  0  0
  187.2380  176.8170  146.7890 C   0  0  0  0  0  3  0  0  0  0  0  0
  1  5  2  0  0  0  0
  1 10  1  0  0  0  0
  2 15  1  0  0  0  0
  3  9  1  0  0  0  0
  4 21  1  0  0  0  0
  4  8  2  0  0  0  0
  5  4  1  0  0  0  0
  6  8  1  0  0  0  0
  6  7  1  0  0  0  0
  9 10  1  0  0  0  0
  9 11  1  0  0  0  0
 10  6  2  0  0  0  0
 11  7  2  0  0  0  0
 12  2  2  0  0  0  0
 13 12  1  0  0  0  0
 13 14  2  0  0  0  0
 14 16  1  0  0  0  0
 15 17  1  0  0  0  0
 15  3  2  0  0  0  0
 16 17  2  0  0  0  0
 17  1  1  0  0  0  0
 18 19  1  0  0  0  0
 18 13  1  0  0  0  0
 20 18  2  0  0  0  0
 22 34  1  0  0  0  0
 23 33  1  0  0  0  0
 24 26  1  0  0  0  0
 25 32  1  0  0  0  0
 25 24  1  0  0  0  0
 26 28  1  0  0  0  0
 27 25  2  0  0  0  0
 28 22  2  0  0  0  0
 29 24  1  0  0  0  0
 30 31  1  0  0  0  0
 31 28  1  0  0  0  0
 31 23  2  0  0  0  0
 32 30  1  0  0  0  0
 33 34  2  0  0  0  0
 33 21  1  0  0  0  0
M  END
>  <MODEL>
5

>  <REMARK>
 VINA RESULT:      -8.3      2.647      8.025
  Name = 
  3 active torsions:
  status: ('A' for Active; 'I' for Inactive)
    1  A    between atoms: C_3  and  C_25
    2  A    between atoms: C_8  and  C_18
    3  A    between atoms: C_18  and  C_30
                            x       y       z     vdW  Elec       q    Type
                         _______ _______ _______ _____ _____    ______ ____

>  <TORSDO>
F 3

$$$$
=
 OpenBabel11052420353D

 34 39  0  0  0  0  0  0  0  0999 V2000
  193.8880  174.3270  145.8240 C   0  0  0  0  0  0  0  0  0  0  0  0
  196.9990  172.5350  144.4260 C   0  0  0  0  0  3  0  0  0  0  0  0
  196.3800  174.8590  144.6450 C   0  0  0  0  0  3  0  0  0  0  0  0
  191.8960  175.4580  146.7220 C   0  0  0  0  0  0  0  0  0  0  0  0
  192.6090  174.2600  146.4270 C   0  0  0  0  0  3  0  0  0  0  0  0
  193.7190  176.7400  145.8320 C   0  0  0  0  0  0  0  0  0  0  0  0
  194.4830  177.7870  145.4480 N   0  0  0  0  0  0  0  0  0  0  0  0
  192.4580  176.7270  146.4270 C   0  0  0  0  0  3  0  0  0  0  0  0
  195.5320  175.8450  145.0100 N   0  0  0  0  0  0  0  0  0  0  0  0
  194.3630  175.5920  145.5620 C   0  0  0  0  0  0  0  0  0  0  0  0
  195.6090  177.1950  144.9380 C   0  0  0  0  0  3  0  0  0  0  0  0
  196.9900  171.2090  144.4730 C   0  0  0  0  0  3  0  0  0  0  0  0
  195.9640  170.2920  144.9820 C   0  0  0  0  0  0  0  0  0  0  0  0
  194.8010  170.6680  145.5130 C   0  0  0  0  0  3  0  0  0  0  0  0
  195.9960  173.5120  144.8650 C   0  0  0  0  0  0  0  0  0  0  0  0
  194.2440  172.0060  145.7310 C   0  0  0  0  0  3  0  0  0  0  0  0
  194.7190  173.2300  145.4700 C   0  0  0  0  0  0  0  0  0  0  0  0
  196.2490  168.8440  144.8950 C   0  0  0  0  0  0  0  0  0  0  0  0
  196.1950  168.1720  143.6390 N   0  0  0  0  0  1  0  0  0  0  0  0
  196.5440  168.1840  145.9280 O   0  0  0  0  0  0  0  0  0  0  0  0
  190.5620  175.3780  147.3830 C   0  0  0  0  0  2  0  0  0  0  0  0
  188.3960  175.4950  144.2840 C   0  0  0  0  0  3  0  0  0  0  0  0
  188.4960  176.6690  146.8110 C   0  0  0  0  0  3  0  0  0  0  0  0
  186.2230  178.1300  143.3960 N   0  0  0  0  0  0  0  0  0  0  0  0
  185.6820  178.9710  144.4160 C   0  0  0  0  0  0  0  0  0  0  0  0
  186.3410  176.7000  143.6420 C   0  0  0  0  0  2  0  0  0  0  0  0
  185.5220  180.2060  144.2200 O   0  0  0  0  0  0  0  0  0  0  0  0
  187.4120  176.4200  144.6500 C   0  0  0  0  0  0  0  0  0  0  0  0
  186.6770  178.6750  142.1260 C   0  0  0  0  0  1  0  0  0  0  0  0
  186.5240  177.9610  146.4120 O   0  0  0  0  0  0  0  0  0  0  0  0
  187.4550  177.0160  145.9420 C   0  0  0  0  0  0  0  0  0  0  0  0
  185.3400  178.3760  145.7390 C   0  0  0  0  0  2  0  0  0  0  0  0
  189.4780  175.7520  146.4290 C   0  0  0  0  0  0  0  0  0  0  0  0
  189.4240  175.1620  145.1660 C   0  0  0  0  0  3  0  0  0  0  0  0
  1  5  1  0  0  0  0
  2 12  2  0  0  0  0
  2 15  1  0  0  0  0
  3 15  2  0  0  0  0
  3  9  1  0  0  0  0
  4 21  1  0  0  0  0
  5  4  2  0  0  0  0
  6  8  2  0  0  0  0
  7  6  1  0  0  0  0
  8  4  1  0  0  0  0
  9 10  1  0  0  0  0
 10  1  2  0  0  0  0
 10  6  1  0  0  0  0
 11  9  1  0  0  0  0
 11  7  2  0  0  0  0
 12 13  1  0  0  0  0
 13 14  2  0  0  0  0
 14 16  1  0  0  0  0
 15 17  1  0  0  0  0
 17 16  2  0  0  0  0
 17  1  1  0  0  0  0
 18 13  1  0  0  0  0
 18 20  2  0  0  0  0
 19 18  1  0  0  0  0
 22 28  2  0  0  0  0
 22 34  1  0  0  0  0
 24 26  1  0  0  0  0
 24 25  1  0  0  0  0
 25 32  1  0  0  0  0
 26 28  1  0  0  0  0
 27 25  2  0  0  0  0
 28 31  1  0  0  0  0
 29 24  1  0  0  0  0
 31 30  1  0  0  0  0
 31 23  2  0  0  0  0
 32 30  1  0  0  0  0
 33 23  1  0  0  0  0
 33 21  1  0  0  0  0
 34 33  2  0  0  0  0
M  END
>  <MODEL>
6

>  <REMARK>
 VINA RESULT:      -8.2      3.210      8.863
  Name = 
  3 active torsions:
  status: ('A' for Active; 'I' for Inactive)
    1  A    between atoms: C_3  and  C_25
    2  A    between atoms: C_8  and  C_18
    3  A    between atoms: C_18  and  C_30
                            x       y       z     vdW  Elec       q    Type
                         _______ _______ _______ _____ _____    ______ ____

>  <TORSDO>
F 3

$$$$
=
 OpenBabel11052420353D

 34 39  0  0  0  0  0  0  0  0999 V2000
  192.5990  174.5890  143.8280 C   0  0  0  0  0  0  0  0  0  0  0  0
  193.3470  170.8150  143.6340 C   0  0  0  0  0  3  0  0  0  0  0  0
  194.3140  172.6360  144.8900 C   0  0  0  0  0  3  0  0  0  0  0  0
  192.1090  176.9970  143.9430 C   0  0  0  0  0  0  0  0  0  0  0  0
  191.8330  175.7050  143.4120 C   0  0  0  0  0  3  0  0  0  0  0  0
  193.8700  176.0550  145.2720 C   0  0  0  0  0  0  0  0  0  0  0  0
  194.8940  175.9380  146.1470 N   0  0  0  0  0  0  0  0  0  0  0  0
  193.1430  177.1830  144.8970 C   0  0  0  0  0  3  0  0  0  0  0  0
  194.3940  173.9360  145.2510 N   0  0  0  0  0  0  0  0  0  0  0  0
  193.5880  174.8500  144.7490 C   0  0  0  0  0  0  0  0  0  0  0  0
  195.1990  174.6020  146.1120 C   0  0  0  0  0  3  0  0  0  0  0  0
  192.5870  170.1010  142.8130 C   0  0  0  0  0  3  0  0  0  0  0  0
  191.4830  170.5260  141.9450 C   0  0  0  0  0  0  0  0  0  0  0  0
  191.0370  171.7770  141.8350 C   0  0  0  0  0  3  0  0  0  0  0  0
  193.3320  172.2490  143.9440 C   0  0  0  0  0  0  0  0  0  0  0  0
  191.4820  173.0060  142.4980 C   0  0  0  0  0  3  0  0  0  0  0  0
  192.4470  173.2440  143.3940 C   0  0  0  0  0  0  0  0  0  0  0  0
  190.8210  169.4820  141.1340 C   0  0  0  0  0  0  0  0  0  0  0  0
  190.5120  169.7210  139.7630 N   0  0  0  0  0  1  0  0  0  0  0  0
  190.5210  168.3680  141.6420 O   0  0  0  0  0  0  0  0  0  0  0  0
  191.2780  178.1610  143.5200 C   0  0  0  0  0  2  0  0  0  0  0  0
  187.5820  177.5500  142.9880 C   0  0  0  0  0  3  0  0  0  0  0  0
  189.3910  177.7200  145.1040 C   0  0  0  0  0  3  0  0  0  0  0  0
  185.0560  178.0060  145.4100 N   0  0  0  0  0  0  0  0  0  0  0  0
  185.3840  177.9100  146.7960 C   0  0  0  0  0  0  0  0  0  0  0  0
  185.6660  177.0770  144.4690 C   0  0  0  0  0  2  0  0  0  0  0  0
  184.8390  178.6660  147.6450 O   0  0  0  0  0  0  0  0  0  0  0  0
  187.1240  177.3730  144.2980 C   0  0  0  0  0  0  0  0  0  0  0  0
  184.1420  179.0240  144.9170 C   0  0  0  0  0  1  0  0  0  0  0  0
  187.6940  177.2980  146.7350 O   0  0  0  0  0  0  0  0  0  0  0  0
  188.0450  177.4510  145.3810 C   0  0  0  0  0  0  0  0  0  0  0  0
  186.4130  176.9220  147.2310 C   0  0  0  0  0  2  0  0  0  0  0  0
  189.8340  177.9040  143.7930 C   0  0  0  0  0  0  0  0  0  0  0  0
  188.9280  177.8140  142.7340 C   0  0  0  0  0  3  0  0  0  0  0  0
  1 10  1  0  0  0  0
  2 15  1  0  0  0  0
  3  9  1  0  0  0  0
  4  8  2  0  0  0  0
  5  1  2  0  0  0  0
  5  4  1  0  0  0  0
  6  7  1  0  0  0  0
  8  6  1  0  0  0  0
  9 11  1  0  0  0  0
 10  9  1  0  0  0  0
 10  6  2  0  0  0  0
 11  7  2  0  0  0  0
 12  2  2  0  0  0  0
 13 12  1  0  0  0  0
 14 13  2  0  0  0  0
 14 16  1  0  0  0  0
 15  3  2  0  0  0  0
 16 17  2  0  0  0  0
 17  1  1  0  0  0  0
 17 15  1  0  0  0  0
 18 20  2  0  0  0  0
 18 13  1  0  0  0  0
 19 18  1  0  0  0  0
 21 33  1  0  0  0  0
 21  4  1  0  0  0  0
 22 28  1  0  0  0  0
 23 31  1  0  0  0  0
 24 25  1  0  0  0  0
 25 32  1  0  0  0  0
 25 27  2  0  0  0  0
 26 24  1  0  0  0  0
 28 26  1  0  0  0  0
 28 31  2  0  0  0  0
 29 24  1  0  0  0  0
 30 32  1  0  0  0  0
 31 30  1  0  0  0  0
 33 23  2  0  0  0  0
 34 22  2  0  0  0  0
 34 33  1  0  0  0  0
M  END
>  <MODEL>
7

>  <REMARK>
 VINA RESULT:      -8.2      3.367      7.801
  Name = 
  3 active torsions:
  status: ('A' for Active; 'I' for Inactive)
    1  A    between atoms: C_3  and  C_25
    2  A    between atoms: C_8  and  C_18
    3  A    between atoms: C_18  and  C_30
                            x       y       z     vdW  Elec       q    Type
                         _______ _______ _______ _____ _____    ______ ____

>  <TORSDO>
F 3

$$$$
=
 OpenBabel11052420353D

 34 39  0  0  0  0  0  0  0  0999 V2000
  193.1290  175.5820  143.5600 C   0  0  0  0  0  0  0  0  0  0  0  0
  196.6160  176.2000  142.0440 C   0  0  0  0  0  3  0  0  0  0  0  0
  195.6730  176.5610  144.2370 C   0  0  0  0  0  3  0  0  0  0  0  0
  190.8980  175.1800  144.5160 C   0  0  0  0  0  0  0  0  0  0  0  0
  191.7970  175.1270  143.4120 C   0  0  0  0  0  3  0  0  0  0  0  0
  192.6440  176.1160  145.8690 C   0  0  0  0  0  0  0  0  0  0  0  0
  193.3110  176.6290  146.9270 N   0  0  0  0  0  0  0  0  0  0  0  0
  191.3250  175.6780  145.7740 C   0  0  0  0  0  3  0  0  0  0  0  0
  194.6590  176.5150  145.1290 N   0  0  0  0  0  0  0  0  0  0  0  0
  193.4660  176.0570  144.8080 C   0  0  0  0  0  0  0  0  0  0  0  0
  194.5660  176.8690  146.4330 C   0  0  0  0  0  3  0  0  0  0  0  0
  196.7760  175.8680  140.7690 C   0  0  0  0  0  3  0  0  0  0  0  0
  195.8170  175.2910  139.8200 C   0  0  0  0  0  0  0  0  0  0  0  0
  194.5510  174.9880  140.1040 C   0  0  0  0  0  3  0  0  0  0  0  0
  195.4410  176.0990  142.9170 C   0  0  0  0  0  0  0  0  0  0  0  0
  193.7970  175.1290  141.3530 C   0  0  0  0  0  3  0  0  0  0  0  0
  194.1400  175.5940  142.5610 C   0  0  0  0  0  0  0  0  0  0  0  0
  196.3000  175.0300  138.4470 C   0  0  0  0  0  0  0  0  0  0  0  0
  195.3880  175.0150  137.3520 N   0  0  0  0  0  1  0  0  0  0  0  0
  197.5230  174.8170  138.2260 O   0  0  0  0  0  0  0  0  0  0  0  0
  189.5050  174.6720  144.3570 C   0  0  0  0  0  2  0  0  0  0  0  0
  187.3030  177.7290  144.6940 C   0  0  0  0  0  3  0  0  0  0  0  0
  188.1400  175.9640  142.7050 C   0  0  0  0  0  3  0  0  0  0  0  0
  184.7300  178.6630  142.4660 N   0  0  0  0  0  0  0  0  0  0  0  0
  184.7900  178.2380  141.1040 C   0  0  0  0  0  0  0  0  0  0  0  0
  185.9540  179.0830  143.1330 C   0  0  0  0  0  2  0  0  0  0  0  0
  183.7440  177.9130  140.4800 O   0  0  0  0  0  0  0  0  0  0  0  0
  186.8540  177.9120  143.3820 C   0  0  0  0  0  0  0  0  0  0  0  0
  183.4780  178.6660  143.2040 C   0  0  0  0  0  1  0  0  0  0  0  0
  186.8920  177.1030  141.0130 O   0  0  0  0  0  0  0  0  0  0  0  0
  187.2850  177.0180  142.3620 C   0  0  0  0  0  0  0  0  0  0  0  0
  186.1170  178.1460  140.4310 C   0  0  0  0  0  2  0  0  0  0  0  0
  188.5720  175.7860  144.0200 C   0  0  0  0  0  0  0  0  0  0  0  0
  188.1560  176.6740  145.0150 C   0  0  0  0  0  3  0  0  0  0  0  0
  1 10  1  0  0  0  0
  2 15  1  0  0  0  0
  3  9  1  0  0  0  0
  4  8  2  0  0  0  0
  5  1  2  0  0  0  0
  5  4  1  0  0  0  0
  6  7  1  0  0  0  0
  8  6  1  0  0  0  0
  9 11  1  0  0  0  0
 10  9  1  0  0  0  0
 10  6  2  0  0  0  0
 11  7  2  0  0  0  0
 12  2  2  0  0  0  0
 13 14  2  0  0  0  0
 13 12  1  0  0  0  0
 14 16  1  0  0  0  0
 15  3  2  0  0  0  0
 16 17  2  0  0  0  0
 17 15  1  0  0  0  0
 17  1  1  0  0  0  0
 18 13  1  0  0  0  0
 19 18  1  0  0  0  0
 20 18  2  0  0  0  0
 21  4  1  0  0  0  0
 22 34  1  0  0  0  0
 23 33  1  0  0  0  0
 24 26  1  0  0  0  0
 24 29  1  0  0  0  0
 25 24  1  0  0  0  0
 26 28  1  0  0  0  0
 27 25  2  0  0  0  0
 28 22  2  0  0  0  0
 30 31  1  0  0  0  0
 31 23  2  0  0  0  0
 31 28  1  0  0  0  0
 32 30  1  0  0  0  0
 32 25  1  0  0  0  0
 33 21  1  0  0  0  0
 33 34  2  0  0  0  0
M  END
>  <MODEL>
8

>  <REMARK>
 VINA RESULT:      -8.2      2.934      8.027
  Name = 
  3 active torsions:
  status: ('A' for Active; 'I' for Inactive)
    1  A    between atoms: C_3  and  C_25
    2  A    between atoms: C_8  and  C_18
    3  A    between atoms: C_18  and  C_30
                            x       y       z     vdW  Elec       q    Type
                         _______ _______ _______ _____ _____    ______ ____

>  <TORSDO>
F 3

$$$$
=
 OpenBabel11052420353D

 34 39  0  0  0  0  0  0  0  0999 V2000
  187.6030  176.0320  142.4140 C   0  0  0  0  0  0  0  0  0  0  0  0
  185.5700  178.9860  143.8220 C   0  0  0  0  0  3  0  0  0  0  0  0
  186.0150  178.1950  141.5840 C   0  0  0  0  0  3  0  0  0  0  0  0
  188.9030  174.1400  141.5290 C   0  0  0  0  0  0  0  0  0  0  0  0
  188.4200  174.8970  142.6350 C   0  0  0  0  0  3  0  0  0  0  0  0
  187.7610  175.6290  140.0340 C   0  0  0  0  0  0  0  0  0  0  0  0
  187.2900  176.1970  138.9010 N   0  0  0  0  0  0  0  0  0  0  0  0
  188.5660  174.5040  140.2000 C   0  0  0  0  0  3  0  0  0  0  0  0
  186.5800  177.3380  140.7050 N   0  0  0  0  0  0  0  0  0  0  0  0
  187.3250  176.3250  141.0980 C   0  0  0  0  0  0  0  0  0  0  0  0
  186.5570  177.2620  139.3540 C   0  0  0  0  0  3  0  0  0  0  0  0
  185.5460  179.1140  145.1420 C   0  0  0  0  0  3  0  0  0  0  0  0
  186.1840  178.2930  146.1790 C   0  0  0  0  0  0  0  0  0  0  0  0
  186.9380  177.2200  145.9440 C   0  0  0  0  0  3  0  0  0  0  0  0
  186.2340  177.9920  142.9710 C   0  0  0  0  0  0  0  0  0  0  0  0
  187.3240  176.5870  144.6800 C   0  0  0  0  0  3  0  0  0  0  0  0
  187.0460  176.8850  143.4050 C   0  0  0  0  0  0  0  0  0  0  0  0
  185.9690  178.6950  147.5850 C   0  0  0  0  0  0  0  0  0  0  0  0
  187.0660  179.1240  148.3880 N   0  0  0  0  0  1  0  0  0  0  0  0
  184.8160  178.6650  148.0930 O   0  0  0  0  0  0  0  0  0  0  0  0
  189.7390  172.9300  141.7740 C   0  0  0  0  0  2  0  0  0  0  0  0
  191.7930  173.2200  144.9380 C   0  0  0  0  0  3  0  0  0  0  0  0
  192.0430  173.8000  142.2220 C   0  0  0  0  0  3  0  0  0  0  0  0
  194.5190  175.4080  145.4230 N   0  0  0  0  0  0  0  0  0  0  0  0
  195.2720  175.8550  144.2950 C   0  0  0  0  0  0  0  0  0  0  0  0
  194.0630  174.0260  145.4710 C   0  0  0  0  0  2  0  0  0  0  0  0
  195.7230  177.0310  144.2420 O   0  0  0  0  0  0  0  0  0  0  0  0
  192.9810  173.7870  144.4640 C   0  0  0  0  0  0  0  0  0  0  0  0
  194.1800  176.3090  146.5130 C   0  0  0  0  0  1  0  0  0  0  0  0
  194.2590  174.6540  142.4930 O   0  0  0  0  0  0  0  0  0  0  0  0
  193.1150  174.0780  143.0770 C   0  0  0  0  0  0  0  0  0  0  0  0
  195.4920  174.9210  143.1550 C   0  0  0  0  0  2  0  0  0  0  0  0
  190.8590  173.2430  142.7090 C   0  0  0  0  0  0  0  0  0  0  0  0
  190.7370  172.9490  144.0680 C   0  0  0  0  0  3  0  0  0  0  0  0
  1  5  1  0  0  0  0
  1 17  1  0  0  0  0
  2 12  2  0  0  0  0
  3 15  2  0  0  0  0
  4 21  1  0  0  0  0
  4  5  2  0  0  0  0
  6  8  2  0  0  0  0
  6 10  1  0  0  0  0
  7 11  2  0  0  0  0
  7  6  1  0  0  0  0
  8  4  1  0  0  0  0
  9 10  1  0  0  0  0
  9  3  1  0  0  0  0
 10  1  2  0  0  0  0
 11  9  1  0  0  0  0
 12 13  1  0  0  0  0
 13 18  1  0  0  0  0
 14 13  2  0  0  0  0
 15 17  1  0  0  0  0
 15  2  1  0  0  0  0
 16 14  1  0  0  0  0
 17 16  2  0  0  0  0
 18 20  2  0  0  0  0
 18 19  1  0  0  0  0
 21 33  1  0  0  0  0
 23 33  2  0  0  0  0
 23 31  1  0  0  0  0
 24 26  1  0  0  0  0
 24 29  1  0  0  0  0
 25 24  1  0  0  0  0
 27 25  2  0  0  0  0
 28 22  1  0  0  0  0
 28 26  1  0  0  0  0
 30 31  1  0  0  0  0
 30 32  1  0  0  0  0
 31 28  2  0  0  0  0
 32 25  1  0  0  0  0
 33 34  1  0  0  0  0
 34 22  2  0  0  0  0
M  END
>  <MODEL>
9

>  <REMARK>
 VINA RESULT:      -8.1      2.449      5.337
  Name = 
  3 active torsions:
  status: ('A' for Active; 'I' for Inactive)
    1  A    between atoms: C_3  and  C_25
    2  A    between atoms: C_8  and  C_18
    3  A    between atoms: C_18  and  C_30
                            x       y       z     vdW  Elec       q    Type
                         _______ _______ _______ _____ _____    ______ ____

>  <TORSDO>
F 3

$$$$
