=
 OpenBabel11052417263D

 25 28  0  0  1  0  0  0  0  0999 V2000
  186.5250  178.1420  145.0930 C   0  0  0  0  0  0  0  0  0  0  0  0
  187.7530  177.5470  145.3890 C   0  0  0  0  0  0  0  0  0  0  0  0
  185.4650  176.9610  146.8880 C   0  0  0  0  0  3  0  0  0  0  0  0
  186.1550  179.1660  144.0720 C   0  0  2  0  0  3  0  0  0  0  0  0
  190.9360  176.6630  143.6180 N   0  0  0  0  0  2  0  0  0  0  0  0
  184.1590  177.9160  142.4520 C   0  0  0  0  0  2  0  0  0  0  0  0
  186.6580  176.3650  147.1790 N   0  0  0  0  0  0  0  0  0  0  0  0
  184.6990  179.4590  144.3230 N   0  0  1  0  0  0  0  0  0  0  0  0
  183.7920  179.1980  143.1930 C   0  0  0  0  0  2  0  0  0  0  0  0
  189.1160  176.0080  146.8320 C   0  0  1  0  0  3  0  0  0  0  0  0
  188.9440  174.6190  147.4220 C   0  0  0  0  0  1  0  0  0  0  0  0
  189.0110  177.9160  144.6600 C   0  0  0  0  0  2  0  0  0  0  0  0
  185.5440  178.0710  141.9220 C   0  0  0  0  0  3  0  0  0  0  0  0
  185.4220  177.8560  145.8240 C   0  0  0  0  0  0  0  0  0  0  0  0
  184.3180  178.6090  145.3830 N   0  0  0  0  0  2  0  0  0  0  0  0
  190.0140  175.9310  145.6750 N   0  0  0  0  0  0  0  0  0  0  0  0
  186.4710  178.6650  142.6780 C   0  0  0  0  0  3  0  0  0  0  0  0
  190.0010  176.7850  144.6900 C   0  0  0  0  0  0  0  0  0  0  0  0
  187.7920  176.6210  146.4530 C   0  0  0  0  0  0  0  0  0  0  0  0
  191.9260  175.5970  143.5640 C   0  0  0  0  0  2  0  0  0  0  0  0
  193.2790  176.1200  144.0240 C   0  0  2  0  0  3  0  0  0  0  0  0
  194.2990  175.9000  142.9170 C   0  0  0  0  0  1  0  0  0  0  0  0
  193.7200  175.4070  145.3020 C   0  0  2  0  0  3  0  0  0  0  0  0
  192.9770  174.2380  145.4850 O   0  0  0  0  0  1  0  0  0  0  0  0
  193.5200  176.3010  146.5130 C   0  0  0  0  0  1  0  0  0  0  0  0
  1  2  2  0  0  0  0
  1 14  1  0  0  0  0
  2 19  1  0  0  0  0
  3  7  1  0  0  0  0
  4 17  1  6  0  0  0
  4  8  1  0  0  0  0
  4  1  1  0  0  0  0
  5 18  1  0  0  0  0
  6  9  1  0  0  0  0
  8  9  1  6  0  0  0
  8 15  1  0  0  0  0
 10 11  1  6  0  0  0
 12 18  1  0  0  0  0
 12  2  1  0  0  0  0
 13  6  1  0  0  0  0
 13 17  2  0  0  0  0
 14  3  2  0  0  0  0
 15 14  1  0  0  0  0
 16 10  1  0  0  0  0
 18 16  2  0  0  0  0
 19 10  1  0  0  0  0
 19  7  2  0  0  0  0
 20  5  1  0  0  0  0
 20 21  1  0  0  0  0
 21 22  1  6  0  0  0
 21 23  1  0  0  0  0
 23 24  1  0  0  0  0
 23 25  1  1  0  0  0
M  END
>  <MODEL>
1

>  <REMARK>
 VINA RESULT:      -7.5      0.000      0.000
  Name = 
  3 active torsions:
  status: ('A' for Active; 'I' for Inactive)
    1  A    between atoms: C_2  and  C_21
    2  A    between atoms: N_6  and  C_15
    3  A    between atoms: C_15  and  C_21
                            x       y       z     vdW  Elec       q    Type
                         _______ _______ _______ _____ _____    ______ ____

>  <TORSDO>
F 3

$$$$
=
 OpenBabel11052417263D

 25 28  0  0  1  0  0  0  0  0999 V2000
  186.6920  178.1440  145.0570 C   0  0  0  0  0  0  0  0  0  0  0  0
  187.8940  177.4610  145.2560 C   0  0  0  0  0  0  0  0  0  0  0  0
  185.7650  177.1930  147.0520 C   0  0  0  0  0  3  0  0  0  0  0  0
  186.2850  179.1220  144.0060 C   0  0  2  0  0  3  0  0  0  0  0  0
  190.7550  176.1690  143.2080 N   0  0  0  0  0  2  0  0  0  0  0  0
  184.0110  177.9460  142.7330 C   0  0  0  0  0  2  0  0  0  0  0  0
  186.9320  176.5130  147.2510 N   0  0  0  0  0  0  0  0  0  0  0  0
  184.9000  179.5630  144.3980 N   0  0  1  0  0  0  0  0  0  0  0  0
  183.8430  179.3060  143.4060 C   0  0  0  0  0  2  0  0  0  0  0  0
  189.2920  175.9110  146.6530 C   0  0  1  0  0  3  0  0  0  0  0  0
  189.0810  174.5890  147.3700 C   0  0  0  0  0  1  0  0  0  0  0  0
  189.0800  177.6620  144.3600 C   0  0  0  0  0  2  0  0  0  0  0  0
  185.3290  177.9380  142.0370 C   0  0  0  0  0  3  0  0  0  0  0  0
  185.6660  178.0110  145.9310 C   0  0  0  0  0  0  0  0  0  0  0  0
  184.5830  178.8280  145.5610 N   0  0  0  0  0  2  0  0  0  0  0  0
  190.0340  175.6720  145.4110 N   0  0  0  0  0  0  0  0  0  0  0  0
  186.3860  178.4980  142.6300 C   0  0  0  0  0  3  0  0  0  0  0  0
  189.9700  176.4520  144.3680 C   0  0  0  0  0  0  0  0  0  0  0  0
  187.9870  176.6140  146.3810 C   0  0  0  0  0  0  0  0  0  0  0  0
  191.6400  175.0170  143.1270 C   0  0  0  0  0  2  0  0  0  0  0  0
  190.9740  173.9040  142.3330 C   0  0  2  0  0  3  0  0  0  0  0  0
  189.8290  174.4890  141.5210 C   0  0  0  0  0  1  0  0  0  0  0  0
  190.4570  172.8140  143.2730 C   0  0  2  0  0  3  0  0  0  0  0  0
  191.2740  171.6840  143.1990 O   0  0  0  0  0  1  0  0  0  0  0  0
  189.0400  172.4130  142.9040 C   0  0  0  0  0  1  0  0  0  0  0  0
  1  2  2  0  0  0  0
  1 14  1  0  0  0  0
  2 19  1  0  0  0  0
  3  7  1  0  0  0  0
  4 17  1  6  0  0  0
  4  8  1  0  0  0  0
  4  1  1  0  0  0  0
  5 18  1  0  0  0  0
  6  9  1  0  0  0  0
  8  9  1  6  0  0  0
  8 15  1  0  0  0  0
 10 11  1  6  0  0  0
 12 18  1  0  0  0  0
 12  2  1  0  0  0  0
 13 17  2  0  0  0  0
 13  6  1  0  0  0  0
 14  3  2  0  0  0  0
 15 14  1  0  0  0  0
 16 10  1  0  0  0  0
 18 16  2  0  0  0  0
 19 10  1  0  0  0  0
 19  7  2  0  0  0  0
 20  5  1  0  0  0  0
 21 22  1  1  0  0  0
 21 20  1  0  0  0  0
 21 23  1  0  0  0  0
 23 25  1  6  0  0  0
 24 23  1  0  0  0  0
M  END
>  <MODEL>
2

>  <REMARK>
 VINA RESULT:      -7.1      1.566      2.227
  Name = 
  3 active torsions:
  status: ('A' for Active; 'I' for Inactive)
    1  A    between atoms: C_2  and  C_21
    2  A    between atoms: N_6  and  C_15
    3  A    between atoms: C_15  and  C_21
                            x       y       z     vdW  Elec       q    Type
                         _______ _______ _______ _____ _____    ______ ____

>  <TORSDO>
F 3

$$$$
=
 OpenBabel11052417263D

 25 28  0  0  1  0  0  0  0  0999 V2000
  192.2930  175.9950  143.4550 C   0  0  0  0  0  0  0  0  0  0  0  0
  190.9150  176.2120  143.3690 C   0  0  0  0  0  0  0  0  0  0  0  0
  192.1720  174.2610  141.8060 C   0  0  0  0  0  3  0  0  0  0  0  0
  193.3450  176.6920  144.2510 C   0  0  2  0  0  3  0  0  0  0  0  0
  188.1470  177.5320  145.5240 N   0  0  0  0  0  2  0  0  0  0  0  0
  194.5090  174.6600  145.8890 C   0  0  0  0  0  2  0  0  0  0  0  0
  190.8230  174.4560  141.7210 N   0  0  0  0  0  0  0  0  0  0  0  0
  194.6410  176.0500  143.8340 N   0  0  1  0  0  0  0  0  0  0  0  0
  195.4110  175.4080  144.9120 C   0  0  0  0  0  2  0  0  0  0  0  0
  188.7010  175.6460  142.3290 C   0  0  1  0  0  3  0  0  0  0  0  0
  187.9490  174.3760  141.9720 C   0  0  0  0  0  1  0  0  0  0  0  0
  190.2360  177.3140  144.1260 C   0  0  0  0  0  2  0  0  0  0  0  0
  193.5730  175.6460  146.4980 C   0  0  0  0  0  3  0  0  0  0  0  0
  192.8950  175.0500  142.6940 C   0  0  0  0  0  0  0  0  0  0  0  0
  194.2850  175.0470  142.9060 N   0  0  0  0  0  2  0  0  0  0  0  0
  188.1280  176.2170  143.5520 N   0  0  0  0  0  0  0  0  0  0  0  0
  193.0390  176.6010  145.7320 C   0  0  0  0  0  3  0  0  0  0  0  0
  188.7900  176.9840  144.3720 C   0  0  0  0  0  0  0  0  0  0  0  0
  190.1780  175.3950  142.4850 C   0  0  0  0  0  0  0  0  0  0  0  0
  186.7530  177.2620  145.8410 C   0  0  0  0  0  2  0  0  0  0  0  0
  185.9330  178.5370  145.7070 C   0  0  2  0  0  3  0  0  0  0  0  0
  184.5430  178.2950  146.2750 C   0  0  0  0  0  1  0  0  0  0  0  0
  185.8420  178.9610  144.2400 C   0  0  2  0  0  3  0  0  0  0  0  0
  185.3830  180.2760  144.1450 O   0  0  0  0  0  1  0  0  0  0  0  0
  184.8890  178.0580  143.4780 C   0  0  0  0  0  1  0  0  0  0  0  0
  1  4  1  0  0  0  0
  2  1  1  0  0  0  0
  2 12  1  0  0  0  0
  3 14  1  0  0  0  0
  4 17  1  1  0  0  0
  5 20  1  0  0  0  0
  6 13  1  0  0  0  0
  7  3  2  0  0  0  0
  7 19  1  0  0  0  0
  8  4  1  0  0  0  0
  8  9  1  1  0  0  0
  9  6  1  0  0  0  0
 10 11  1  1  0  0  0
 10 19  1  0  0  0  0
 10 16  1  0  0  0  0
 12 18  1  0  0  0  0
 14 15  1  0  0  0  0
 14  1  2  0  0  0  0
 15  8  1  0  0  0  0
 16 18  2  0  0  0  0
 17 13  2  0  0  0  0
 18  5  1  0  0  0  0
 19  2  2  0  0  0  0
 21 20  1  0  0  0  0
 21 22  1  6  0  0  0
 23 25  1  6  0  0  0
 23 21  1  0  0  0  0
 24 23  1  0  0  0  0
M  END
>  <MODEL>
3

>  <REMARK>
 VINA RESULT:      -6.8      2.820      7.853
  Name = 
  3 active torsions:
  status: ('A' for Active; 'I' for Inactive)
    1  A    between atoms: C_2  and  C_21
    2  A    between atoms: N_6  and  C_15
    3  A    between atoms: C_15  and  C_21
                            x       y       z     vdW  Elec       q    Type
                         _______ _______ _______ _____ _____    ______ ____

>  <TORSDO>
F 3

$$$$
=
 OpenBabel11052417263D

 25 28  0  0  1  0  0  0  0  0999 V2000
  187.0780  177.0240  144.8590 C   0  0  0  0  0  0  0  0  0  0  0  0
  188.3880  176.5660  144.6970 C   0  0  0  0  0  0  0  0  0  0  0  0
  187.2730  178.4170  142.9190 C   0  0  0  0  0  3  0  0  0  0  0  0
  186.0290  176.6560  145.8550 C   0  0  2  0  0  3  0  0  0  0  0  0
  191.1490  175.1710  146.8140 N   0  0  0  0  0  2  0  0  0  0  0  0
  185.3790  179.0990  147.1900 C   0  0  0  0  0  2  0  0  0  0  0  0
  188.5580  177.9840  142.7570 N   0  0  0  0  0  0  0  0  0  0  0  0
  184.8070  177.4310  145.4390 N   0  0  1  0  0  0  0  0  0  0  0  0
  184.2700  178.3630  146.4450 C   0  0  0  0  0  2  0  0  0  0  0  0
  190.5310  176.5700  143.3880 C   0  0  1  0  0  3  0  0  0  0  0  0
  191.4210  177.6180  142.7440 C   0  0  0  0  0  1  0  0  0  0  0  0
  188.9740  175.5060  145.5810 C   0  0  0  0  0  2  0  0  0  0  0  0
  186.2180  178.0820  147.8860 C   0  0  0  0  0  3  0  0  0  0  0  0
  186.5440  177.9180  143.9940 C   0  0  0  0  0  0  0  0  0  0  0  0
  185.2030  178.1920  144.3190 N   0  0  0  0  0  2  0  0  0  0  0  0
  191.1450  176.1210  144.6410 N   0  0  0  0  0  0  0  0  0  0  0  0
  186.5100  176.9380  147.2630 C   0  0  0  0  0  3  0  0  0  0  0  0
  190.4710  175.6220  145.6400 C   0  0  0  0  0  0  0  0  0  0  0  0
  189.1350  177.0890  143.6210 C   0  0  0  0  0  0  0  0  0  0  0  0
  192.5950  175.2500  146.9570 C   0  0  0  0  0  2  0  0  0  0  0  0
  193.2710  174.8150  145.6660 C   0  0  2  0  0  3  0  0  0  0  0  0
  193.5170  173.3140  145.7150 C   0  0  0  0  0  1  0  0  0  0  0  0
  194.5900  175.5640  145.4750 C   0  0  2  0  0  3  0  0  0  0  0  0
  195.6250  174.8950  146.1320 O   0  0  0  0  0  1  0  0  0  0  0  0
  194.4930  176.9730  146.0320 C   0  0  0  0  0  1  0  0  0  0  0  0
  1  4  1  0  0  0  0
  2  1  1  0  0  0  0
  2 12  1  0  0  0  0
  3 14  1  0  0  0  0
  4 17  1  1  0  0  0
  5 20  1  0  0  0  0
  6 13  1  0  0  0  0
  7  3  2  0  0  0  0
  7 19  1  0  0  0  0
  8  4  1  0  0  0  0
  8  9  1  1  0  0  0
  9  6  1  0  0  0  0
 10 11  1  1  0  0  0
 10 19  1  0  0  0  0
 10 16  1  0  0  0  0
 12 18  1  0  0  0  0
 14 15  1  0  0  0  0
 14  1  2  0  0  0  0
 15  8  1  0  0  0  0
 16 18  2  0  0  0  0
 17 13  2  0  0  0  0
 18  5  1  0  0  0  0
 19  2  2  0  0  0  0
 21 22  1  1  0  0  0
 21 20  1  0  0  0  0
 23 21  1  0  0  0  0
 23 25  1  1  0  0  0
 23 24  1  0  0  0  0
M  END
>  <MODEL>
4

>  <REMARK>
 VINA RESULT:      -6.8      1.798      3.441
  Name = 
  3 active torsions:
  status: ('A' for Active; 'I' for Inactive)
    1  A    between atoms: C_2  and  C_21
    2  A    between atoms: N_6  and  C_15
    3  A    between atoms: C_15  and  C_21
                            x       y       z     vdW  Elec       q    Type
                         _______ _______ _______ _____ _____    ______ ____

>  <TORSDO>
F 3

$$$$
=
 OpenBabel11052417263D

 25 28  0  0  1  0  0  0  0  0999 V2000
  185.5810  177.1860  144.5380 C   0  0  0  0  0  0  0  0  0  0  0  0
  186.3420  176.6500  143.4960 C   0  0  0  0  0  0  0  0  0  0  0  0
  184.4600  178.6660  143.0240 C   0  0  0  0  0  3  0  0  0  0  0  0
  185.5240  176.8370  145.9880 C   0  0  2  0  0  3  0  0  0  0  0  0
  189.6530  174.9580  143.0280 N   0  0  0  0  0  2  0  0  0  0  0  0
  186.2290  179.2410  147.3630 C   0  0  0  0  0  2  0  0  0  0  0  0
  185.2050  178.1570  141.9990 N   0  0  0  0  0  0  0  0  0  0  0  0
  184.4410  177.7130  146.5590 N   0  0  1  0  0  0  0  0  0  0  0  0
  184.8610  178.6240  147.6380 C   0  0  0  0  0  2  0  0  0  0  0  0
  186.9090  176.5800  141.0510 C   0  0  1  0  0  3  0  0  0  0  0  0
  187.1650  177.5990  139.9540 C   0  0  0  0  0  1  0  0  0  0  0  0
  187.2870  175.5060  143.7100 C   0  0  0  0  0  2  0  0  0  0  0  0
  187.2210  178.1330  147.2640 C   0  0  0  0  0  3  0  0  0  0  0  0
  184.6710  178.1600  144.3020 C   0  0  0  0  0  0  0  0  0  0  0  0
  183.9880  178.5060  145.4820 N   0  0  0  0  0  2  0  0  0  0  0  0
  188.1890  176.0230  141.4970 N   0  0  0  0  0  0  0  0  0  0  0  0
  186.8850  177.0070  146.6300 C   0  0  0  0  0  3  0  0  0  0  0  0
  188.3850  175.5180  142.6830 C   0  0  0  0  0  0  0  0  0  0  0  0
  186.1450  177.1800  142.2030 C   0  0  0  0  0  0  0  0  0  0  0  0
  190.7720  174.9310  142.0990 C   0  0  0  0  0  2  0  0  0  0  0  0
  191.9410  175.7210  142.6680 C   0  0  2  0  0  3  0  0  0  0  0  0
  192.9500  174.7530  143.2670 C   0  0  0  0  0  1  0  0  0  0  0  0
  191.4530  176.7060  143.7310 C   0  0  2  0  0  3  0  0  0  0  0  0
  191.3810  177.9950  143.1990 O   0  0  0  0  0  1  0  0  0  0  0  0
  192.3950  176.7240  144.9210 C   0  0  0  0  0  1  0  0  0  0  0  0
  1  4  1  0  0  0  0
  2 12  1  0  0  0  0
  2  1  2  0  0  0  0
  3 14  2  0  0  0  0
  4  8  1  0  0  0  0
  4 17  1  1  0  0  0
  6  9  1  0  0  0  0
  7 19  2  0  0  0  0
  7  3  1  0  0  0  0
  8  9  1  1  0  0  0
 10 11  1  6  0  0  0
 10 16  1  0  0  0  0
 10 19  1  0  0  0  0
 13  6  1  0  0  0  0
 14  1  1  0  0  0  0
 14 15  1  0  0  0  0
 15  8  1  0  0  0  0
 16 18  2  0  0  0  0
 17 13  2  0  0  0  0
 18  5  1  0  0  0  0
 18 12  1  0  0  0  0
 19  2  1  0  0  0  0
 20 21  1  0  0  0  0
 20  5  1  0  0  0  0
 21 22  1  1  0  0  0
 21 23  1  0  0  0  0
 23 25  1  1  0  0  0
 24 23  1  0  0  0  0
M  END
>  <MODEL>
5

>  <REMARK>
 VINA RESULT:      -6.7      2.112      3.994
  Name = 
  3 active torsions:
  status: ('A' for Active; 'I' for Inactive)
    1  A    between atoms: C_2  and  C_21
    2  A    between atoms: N_6  and  C_15
    3  A    between atoms: C_15  and  C_21
                            x       y       z     vdW  Elec       q    Type
                         _______ _______ _______ _____ _____    ______ ____

>  <TORSDO>
F 3

$$$$
=
 OpenBabel11052417263D

 25 28  0  0  1  0  0  0  0  0999 V2000
  188.9830  177.5190  144.4810 C   0  0  0  0  0  0  0  0  0  0  0  0
  190.2120  177.1500  145.0320 C   0  0  0  0  0  0  0  0  0  0  0  0
  187.8950  177.2450  146.5970 C   0  0  0  0  0  3  0  0  0  0  0  0
  188.6240  177.9660  143.1030 C   0  0  2  0  0  3  0  0  0  0  0  0
  193.4510  175.6420  143.9000 N   0  0  0  0  0  2  0  0  0  0  0  0
  186.6880  176.0730  142.1860 C   0  0  0  0  0  2  0  0  0  0  0  0
  189.0880  176.8720  147.1460 N   0  0  0  0  0  0  0  0  0  0  0  0
  187.1590  178.3050  143.1710 N   0  0  1  0  0  0  0  0  0  0  0  0
  186.2840  177.5420  142.2650 C   0  0  0  0  0  2  0  0  0  0  0  0
  191.5590  176.4570  147.0350 C   0  0  1  0  0  3  0  0  0  0  0  0
  191.3920  175.4780  148.1840 C   0  0  0  0  0  1  0  0  0  0  0  0
  191.4820  177.1830  144.2360 C   0  0  0  0  0  2  0  0  0  0  0  0
  188.0830  176.0080  141.6650 C   0  0  0  0  0  3  0  0  0  0  0  0
  187.8660  177.5650  145.2440 C   0  0  0  0  0  0  0  0  0  0  0  0
  186.7630  178.0130  144.4940 N   0  0  0  0  0  2  0  0  0  0  0  0
  192.4880  175.8910  146.0520 N   0  0  0  0  0  0  0  0  0  0  0  0
  188.9820  176.9000  142.0880 C   0  0  0  0  0  3  0  0  0  0  0  0
  192.4870  176.2100  144.7880 C   0  0  0  0  0  0  0  0  0  0  0  0
  190.2370  176.8020  146.4000 C   0  0  0  0  0  0  0  0  0  0  0  0
  194.4570  174.6900  144.3470 C   0  0  0  0  0  2  0  0  0  0  0  0
  195.7530  175.4170  144.6730 C   0  0  2  0  0  3  0  0  0  0  0  0
  196.0300  176.4490  143.5900 C   0  0  0  0  0  1  0  0  0  0  0  0
  196.9120  174.4240  144.7690 C   0  0  2  0  0  3  0  0  0  0  0  0
  196.8500  173.5060  143.7190 O   0  0  0  0  0  1  0  0  0  0  0  0
  196.8600  173.6630  146.0820 C   0  0  0  0  0  1  0  0  0  0  0  0
  1  2  2  0  0  0  0
  1 14  1  0  0  0  0
  2 19  1  0  0  0  0
  3  7  1  0  0  0  0
  4 17  1  6  0  0  0
  4  8  1  0  0  0  0
  4  1  1  0  0  0  0
  5 20  1  0  0  0  0
  5 18  1  0  0  0  0
  6  9  1  0  0  0  0
  8  9  1  6  0  0  0
  8 15  1  0  0  0  0
 10 11  1  1  0  0  0
 12 18  1  0  0  0  0
 12  2  1  0  0  0  0
 13 17  2  0  0  0  0
 13  6  1  0  0  0  0
 14  3  2  0  0  0  0
 15 14  1  0  0  0  0
 16 10  1  0  0  0  0
 18 16  2  0  0  0  0
 19 10  1  0  0  0  0
 19  7  2  0  0  0  0
 20 21  1  0  0  0  0
 21 22  1  6  0  0  0
 21 23  1  0  0  0  0
 23 25  1  1  0  0  0
 24 23  1  0  0  0  0
M  END
>  <MODEL>
6

>  <REMARK>
 VINA RESULT:      -6.6      2.298      2.898
  Name = 
  3 active torsions:
  status: ('A' for Active; 'I' for Inactive)
    1  A    between atoms: C_2  and  C_21
    2  A    between atoms: N_6  and  C_15
    3  A    between atoms: C_15  and  C_21
                            x       y       z     vdW  Elec       q    Type
                         _______ _______ _______ _____ _____    ______ ____

>  <TORSDO>
F 3

$$$$
=
 OpenBabel11052417263D

 25 28  0  0  1  0  0  0  0  0999 V2000
  191.0960  175.0000  145.0400 C   0  0  0  0  0  0  0  0  0  0  0  0
  189.8080  175.5180  144.8830 C   0  0  0  0  0  0  0  0  0  0  0  0
  190.9990  175.3450  147.4080 C   0  0  0  0  0  3  0  0  0  0  0  0
  192.0430  174.4170  144.0450 C   0  0  2  0  0  3  0  0  0  0  0  0
  187.7710  177.2090  142.2290 N   0  0  0  0  0  2  0  0  0  0  0  0
  194.3800  176.0550  144.1900 C   0  0  0  0  0  2  0  0  0  0  0  0
  189.7430  175.8630  147.2660 N   0  0  0  0  0  0  0  0  0  0  0  0
  193.2260  173.9580  144.8550 N   0  0  1  0  0  0  0  0  0  0  0  0
  194.5180  174.5680  144.4990 C   0  0  0  0  0  2  0  0  0  0  0  0
  187.7280  176.4820  145.9090 C   0  0  1  0  0  3  0  0  0  0  0  0
  187.4070  177.5300  146.9600 C   0  0  0  0  0  1  0  0  0  0  0  0
  189.1130  175.5330  143.5530 C   0  0  0  0  0  2  0  0  0  0  0  0
  193.4520  176.2010  143.0330 C   0  0  0  0  0  3  0  0  0  0  0  0
  191.6650  174.9180  146.2650 C   0  0  0  0  0  0  0  0  0  0  0  0
  192.9350  174.3180  146.1880 N   0  0  0  0  0  2  0  0  0  0  0  0
  187.4900  177.0470  144.5770 N   0  0  0  0  0  0  0  0  0  0  0  0
  192.3670  175.4260  142.9630 C   0  0  0  0  0  3  0  0  0  0  0  0
  188.0870  176.6300  143.4960 C   0  0  0  0  0  0  0  0  0  0  0  0
  189.1400  175.9730  146.0400 C   0  0  0  0  0  0  0  0  0  0  0  0
  186.7940  178.2770  142.0810 C   0  0  0  0  0  2  0  0  0  0  0  0
  185.4230  177.6900  141.7810 C   0  0  2  0  0  3  0  0  0  0  0  0
  184.9120  178.2650  140.4690 C   0  0  0  0  0  1  0  0  0  0  0  0
  184.4480  178.0060  142.9160 C   0  0  2  0  0  3  0  0  0  0  0  0
  183.1850  178.3030  142.3990 O   0  0  0  0  0  1  0  0  0  0  0  0
  184.9320  179.1960  143.7250 C   0  0  0  0  0  1  0  0  0  0  0  0
  1 14  1  0  0  0  0
  2  1  2  0  0  0  0
  2 19  1  0  0  0  0
  4 17  1  6  0  0  0
  4  8  1  0  0  0  0
  4  1  1  0  0  0  0
  5 18  1  0  0  0  0
  6  9  1  0  0  0  0
  7  3  1  0  0  0  0
  8  9  1  6  0  0  0
  8 15  1  0  0  0  0
 10 19  1  0  0  0  0
 10 11  1  1  0  0  0
 12  2  1  0  0  0  0
 13  6  1  0  0  0  0
 14  3  2  0  0  0  0
 15 14  1  0  0  0  0
 16 10  1  0  0  0  0
 17 13  2  0  0  0  0
 18 12  1  0  0  0  0
 18 16  2  0  0  0  0
 19  7  2  0  0  0  0
 20  5  1  0  0  0  0
 21 22  1  6  0  0  0
 21 20  1  0  0  0  0
 21 23  1  0  0  0  0
 23 25  1  6  0  0  0
 24 23  1  0  0  0  0
M  END
>  <MODEL>
7

>  <REMARK>
 VINA RESULT:      -6.6      2.908      7.240
  Name = 
  3 active torsions:
  status: ('A' for Active; 'I' for Inactive)
    1  A    between atoms: C_2  and  C_21
    2  A    between atoms: N_6  and  C_15
    3  A    between atoms: C_15  and  C_21
                            x       y       z     vdW  Elec       q    Type
                         _______ _______ _______ _____ _____    ______ ____

>  <TORSDO>
F 3

$$$$
=
 OpenBabel11052417263D

 25 28  0  0  1  0  0  0  0  0999 V2000
  185.4210  177.2180  144.4600 C   0  0  0  0  0  0  0  0  0  0  0  0
  186.0890  176.6810  143.3570 C   0  0  0  0  0  0  0  0  0  0  0  0
  184.4260  178.9160  143.0940 C   0  0  0  0  0  3  0  0  0  0  0  0
  185.3670  176.7710  145.8830 C   0  0  2  0  0  3  0  0  0  0  0  0
  189.1820  174.6840  142.6540 N   0  0  0  0  0  2  0  0  0  0  0  0
  186.3690  178.9790  147.3970 C   0  0  0  0  0  2  0  0  0  0  0  0
  185.0820  178.4070  142.0100 N   0  0  0  0  0  0  0  0  0  0  0  0
  184.4040  177.7140  146.5530 N   0  0  1  0  0  0  0  0  0  0  0  0
  184.9500  178.4930  147.6770 C   0  0  0  0  0  2  0  0  0  0  0  0
  186.5770  176.7300  140.8940 C   0  0  1  0  0  3  0  0  0  0  0  0
  186.9110  177.7940  139.8630 C   0  0  0  0  0  1  0  0  0  0  0  0
  186.9100  175.4300  143.4560 C   0  0  0  0  0  2  0  0  0  0  0  0
  187.2310  177.7820  147.1850 C   0  0  0  0  0  3  0  0  0  0  0  0
  184.6170  178.2980  144.3260 C   0  0  0  0  0  0  0  0  0  0  0  0
  184.0090  178.6270  145.5510 N   0  0  0  0  0  2  0  0  0  0  0  0
  187.8010  176.0080  141.2540 N   0  0  0  0  0  0  0  0  0  0  0  0
  186.7560  176.7480  146.4870 C   0  0  0  0  0  3  0  0  0  0  0  0
  187.9730  175.3990  142.3940 C   0  0  0  0  0  0  0  0  0  0  0  0
  185.9150  177.3220  142.1120 C   0  0  0  0  0  0  0  0  0  0  0  0
  190.2650  174.6060  141.6850 C   0  0  0  0  0  2  0  0  0  0  0  0
  190.2820  173.2310  141.0330 C   0  0  2  0  0  3  0  0  0  0  0  0
  191.7240  172.7760  140.8700 C   0  0  0  0  0  1  0  0  0  0  0  0
  189.5810  173.2770  139.6750 C   0  0  2  0  0  3  0  0  0  0  0  0
  188.2520  172.8670  139.8020 O   0  0  0  0  0  1  0  0  0  0  0  0
  190.2760  172.3640  138.6800 C   0  0  0  0  0  1  0  0  0  0  0  0
  1  4  1  0  0  0  0
  2 12  1  0  0  0  0
  2  1  2  0  0  0  0
  3 14  2  0  0  0  0
  4 17  1  1  0  0  0
  4  8  1  0  0  0  0
  6  9  1  0  0  0  0
  7 19  2  0  0  0  0
  7  3  1  0  0  0  0
  8  9  1  1  0  0  0
 10 11  1  6  0  0  0
 10 16  1  0  0  0  0
 10 19  1  0  0  0  0
 13  6  1  0  0  0  0
 14  1  1  0  0  0  0
 14 15  1  0  0  0  0
 15  8  1  0  0  0  0
 16 18  2  0  0  0  0
 17 13  2  0  0  0  0
 18  5  1  0  0  0  0
 18 12  1  0  0  0  0
 19  2  1  0  0  0  0
 20  5  1  0  0  0  0
 21 22  1  6  0  0  0
 21 20  1  0  0  0  0
 23 25  1  6  0  0  0
 23 24  1  0  0  0  0
 23 21  1  0  0  0  0
M  END
>  <MODEL>
8

>  <REMARK>
 VINA RESULT:      -6.5      3.138      5.014
  Name = 
  3 active torsions:
  status: ('A' for Active; 'I' for Inactive)
    1  A    between atoms: C_2  and  C_21
    2  A    between atoms: N_6  and  C_15
    3  A    between atoms: C_15  and  C_21
                            x       y       z     vdW  Elec       q    Type
                         _______ _______ _______ _____ _____    ______ ____

>  <TORSDO>
F 3

$$$$
=
 OpenBabel11052417263D

 25 28  0  0  1  0  0  0  0  0999 V2000
  190.0170  173.9420  141.2470 C   0  0  0  0  0  0  0  0  0  0  0  0
  189.4120  174.9100  142.0520 C   0  0  0  0  0  0  0  0  0  0  0  0
  192.1940  174.6240  141.9790 C   0  0  0  0  0  3  0  0  0  0  0  0
  189.4250  172.8920  140.3670 C   0  0  2  0  0  3  0  0  0  0  0  0
  186.2310  176.8920  142.1390 N   0  0  0  0  0  2  0  0  0  0  0  0
  190.4450  173.4440  137.7550 C   0  0  0  0  0  2  0  0  0  0  0  0
  191.6140  175.5810  142.7610 N   0  0  0  0  0  0  0  0  0  0  0  0
  190.6010  172.1100  139.8460 N   0  0  1  0  0  0  0  0  0  0  0  0
  190.7530  172.0880  138.3810 C   0  0  0  0  0  2  0  0  0  0  0  0
  189.6270  176.7680  143.7280 C   0  0  1  0  0  3  0  0  0  0  0  0
  190.5100  177.9920  143.9020 C   0  0  0  0  0  1  0  0  0  0  0  0
  187.9210  175.0190  142.1790 C   0  0  0  0  0  2  0  0  0  0  0  0
  189.0320  173.7900  138.0800 C   0  0  0  0  0  3  0  0  0  0  0  0
  191.3640  173.8080  141.2180 C   0  0  0  0  0  0  0  0  0  0  0  0
  191.7440  172.7400  140.3840 N   0  0  0  0  0  2  0  0  0  0  0  0
  188.3120  177.1890  143.2360 N   0  0  0  0  0  0  0  0  0  0  0  0
  188.5560  173.5210  139.2980 C   0  0  0  0  0  3  0  0  0  0  0  0
  187.5150  176.4180  142.5500 C   0  0  0  0  0  0  0  0  0  0  0  0
  190.2540  175.7540  142.8060 C   0  0  0  0  0  0  0  0  0  0  0  0
  185.7590  178.2320  142.4510 C   0  0  0  0  0  2  0  0  0  0  0  0
  184.4420  178.1560  143.2100 C   0  0  2  0  0  3  0  0  0  0  0  0
  183.2920  178.2910  142.2240 C   0  0  0  0  0  1  0  0  0  0  0  0
  184.3700  179.2610  144.2650 C   0  0  2  0  0  3  0  0  0  0  0  0
  185.5630  179.9880  144.2850 O   0  0  0  0  0  1  0  0  0  0  0  0
  184.1370  178.6720  145.6450 C   0  0  0  0  0  1  0  0  0  0  0  0
  1  2  1  0  0  0  0
  2 12  1  0  0  0  0
  2 19  2  0  0  0  0
  3  7  2  0  0  0  0
  4 17  1  6  0  0  0
  4  1  1  0  0  0  0
  5 20  1  0  0  0  0
  5 18  1  0  0  0  0
  6 13  1  0  0  0  0
  6  9  1  0  0  0  0
  7 19  1  0  0  0  0
  8  9  1  6  0  0  0
  8  4  1  0  0  0  0
  8 15  1  0  0  0  0
 10 11  1  6  0  0  0
 12 18  1  0  0  0  0
 13 17  2  0  0  0  0
 14  1  2  0  0  0  0
 14  3  1  0  0  0  0
 15 14  1  0  0  0  0
 16 10  1  0  0  0  0
 18 16  2  0  0  0  0
 19 10  1  0  0  0  0
 20 21  1  0  0  0  0
 21 22  1  6  0  0  0
 21 23  1  0  0  0  0
 23 24  1  0  0  0  0
 23 25  1  1  0  0  0
M  END
>  <MODEL>
9

>  <REMARK>
 VINA RESULT:      -6.3      4.103      7.742
  Name = 
  3 active torsions:
  status: ('A' for Active; 'I' for Inactive)
    1  A    between atoms: C_2  and  C_21
    2  A    between atoms: N_6  and  C_15
    3  A    between atoms: C_15  and  C_21
                            x       y       z     vdW  Elec       q    Type
                         _______ _______ _______ _____ _____    ______ ____

>  <TORSDO>
F 3

$$$$
