=
 OpenBabel11052417503D

 31 35  0  0  0  0  0  0  0  0999 V2000
  184.4090  178.4690  146.2070 C   0  0  0  0  0  0  0  0  0  0  0  0
  186.9700  177.3520  143.6820 C   0  0  0  0  0  0  0  0  0  0  0  0
  186.3710  177.4890  142.3920 C   0  0  0  0  0  0  0  0  0  0  0  0
  190.5920  176.2480  147.3490 O   0  0  0  0  0  0  0  0  0  0  0  0
  191.0780  175.9930  146.2140 C   0  0  0  0  0  0  0  0  0  0  0  0
  184.5270  178.0770  140.9140 C   0  0  0  0  0  0  0  0  0  0  0  0
  186.3230  177.6730  144.9140 C   0  0  0  0  0  0  0  0  0  0  0  0
  185.1170  178.2850  147.3930 C   0  0  0  0  0  3  0  0  0  0  0  0
  185.0640  177.9610  142.1950 C   0  0  0  0  0  3  0  0  0  0  0  0
  188.9500  176.7020  144.9800 C   0  0  0  0  0  0  0  0  0  0  0  0
  183.1410  178.9430  146.2420 F   0  0  0  0  0  0  0  0  0  0  0  0
  188.3830  176.6730  141.3590 N   0  0  0  0  0  0  0  0  0  0  0  0
  183.1410  178.5780  140.7240 C   0  0  0  0  0  1  0  0  0  0  0  0
  188.2960  177.0210  146.1260 N   0  0  0  0  0  0  0  0  0  0  0  0
  188.3040  176.8600  143.7430 C   0  0  0  0  0  0  0  0  0  0  0  0
  190.2970  176.2050  145.0290 N   0  0  0  0  0  2  0  0  0  0  0  0
  185.0080  178.1670  144.9820 C   0  0  0  0  0  3  0  0  0  0  0  0
  185.3030  177.7160  139.8160 C   0  0  0  0  0  3  0  0  0  0  0  0
  187.0270  177.4920  146.1310 C   0  0  0  0  0  0  0  0  0  0  0  0
  186.4230  177.7980  147.3540 C   0  0  0  0  0  3  0  0  0  0  0  0
  188.9810  176.5310  142.5650 C   0  0  0  0  0  3  0  0  0  0  0  0
  187.1160  177.1360  141.2390 C   0  0  0  0  0  0  0  0  0  0  0  0
  186.5680  177.2580  140.0000 N   0  0  0  0  0  0  0  0  0  0  0  0
  195.1080  174.5550  145.8900 C   0  0  0  0  0  0  0  0  0  0  0  0
  193.5320  176.2950  146.4670 C   0  0  0  0  0  3  0  0  0  0  0  0
  191.7330  173.3350  145.2350 F   0  0  0  0  0  0  0  0  0  0  0  0
  196.5090  174.0700  145.7840 C   0  0  0  0  0  1  0  0  0  0  0  0
  194.8490  175.8400  146.3680 C   0  0  0  0  0  3  0  0  0  0  0  0
  192.7300  174.1720  145.6110 C   0  0  0  0  0  0  0  0  0  0  0  0
  192.4580  175.4720  146.0930 C   0  0  0  0  0  0  0  0  0  0  0  0
  194.0520  173.7240  145.5140 C   0  0  0  0  0  3  0  0  0  0  0  0
  1 11  1  0  0  0  0
  1  8  1  0  0  0  0
  2 15  1  0  0  0  0
  2  7  1  0  0  0  0
  3  2  2  0  0  0  0
  5  4  2  0  0  0  0
  6  9  2  0  0  0  0
  7 17  1  0  0  0  0
  7 19  2  0  0  0  0
  9  3  1  0  0  0  0
 10 16  1  0  0  0  0
 10 14  2  0  0  0  0
 12 21  1  0  0  0  0
 13  6  1  0  0  0  0
 14 19  1  0  0  0  0
 15 10  1  0  0  0  0
 16  5  1  0  0  0  0
 17  1  2  0  0  0  0
 18 23  2  0  0  0  0
 18  6  1  0  0  0  0
 19 20  1  0  0  0  0
 20  8  2  0  0  0  0
 21 15  2  0  0  0  0
 22 12  2  0  0  0  0
 22  3  1  0  0  0  0
 23 22  1  0  0  0  0
 24 28  1  0  0  0  0
 26 29  1  0  0  0  0
 27 24  1  0  0  0  0
 28 25  2  0  0  0  0
 29 30  2  0  0  0  0
 30  5  1  0  0  0  0
 30 25  1  0  0  0  0
 31 29  1  0  0  0  0
 31 24  2  0  0  0  0
M  END
>  <MODEL>
1

>  <REMARK>
 VINA RESULT:     -10.5      0.000      0.000
  Name = 
  1 active torsions:
  status: ('A' for Active; 'I' for Inactive)
    1  A    between atoms: C_9  and  C_22
                            x       y       z     vdW  Elec       q    Type
                         _______ _______ _______ _____ _____    ______ ____

>  <TORSDO>
F 1

$$$$
=
 OpenBabel11052417503D

 31 35  0  0  0  0  0  0  0  0999 V2000
  190.7750  176.7530  147.2160 C   0  0  0  0  0  0  0  0  0  0  0  0
  188.2610  176.3670  144.4380 C   0  0  0  0  0  0  0  0  0  0  0  0
  187.0970  177.1000  144.8250 C   0  0  0  0  0  0  0  0  0  0  0  0
  191.4490  173.3500  141.5210 O   0  0  0  0  0  0  0  0  0  0  0  0
  190.3610  173.5010  140.9030 C   0  0  0  0  0  0  0  0  0  0  0  0
  185.8360  178.5030  146.3640 C   0  0  0  0  0  0  0  0  0  0  0  0
  189.4500  176.2620  145.2230 C   0  0  0  0  0  0  0  0  0  0  0  0
  191.8360  176.0030  146.7110 C   0  0  0  0  0  3  0  0  0  0  0  0
  186.9950  177.8040  146.0350 C   0  0  0  0  0  3  0  0  0  0  0  0
  189.3450  174.9590  142.7450 C   0  0  0  0  0  0  0  0  0  0  0  0
  190.8880  177.3600  148.4210 F   0  0  0  0  0  0  0  0  0  0  0  0
  186.0070  176.4710  142.7750 N   0  0  0  0  0  0  0  0  0  0  0  0
  185.7460  179.2430  147.6500 C   0  0  0  0  0  1  0  0  0  0  0  0
  190.4550  174.8870  143.5240 N   0  0  0  0  0  0  0  0  0  0  0  0
  188.2330  175.6970  143.1840 C   0  0  0  0  0  0  0  0  0  0  0  0
  189.3060  174.2860  141.4760 N   0  0  0  0  0  2  0  0  0  0  0  0
  189.5960  176.8800  146.4780 C   0  0  0  0  0  3  0  0  0  0  0  0
  184.7640  178.5010  145.4770 C   0  0  0  0  0  3  0  0  0  0  0  0
  190.5390  175.5030  144.7260 C   0  0  0  0  0  0  0  0  0  0  0  0
  191.7170  175.3800  145.4690 C   0  0  0  0  0  3  0  0  0  0  0  0
  187.0930  175.7690  142.3780 C   0  0  0  0  0  3  0  0  0  0  0  0
  185.9760  177.1300  143.9590 C   0  0  0  0  0  0  0  0  0  0  0  0
  184.8550  177.8210  144.3050 N   0  0  0  0  0  0  0  0  0  0  0  0
  189.7710  171.7440  137.0310 C   0  0  0  0  0  0  0  0  0  0  0  0
  189.9190  173.6870  138.4640 C   0  0  0  0  0  3  0  0  0  0  0  0
  190.4350  170.6320  140.4420 F   0  0  0  0  0  0  0  0  0  0  0  0
  189.5650  171.1500  135.6840 C   0  0  0  0  0  1  0  0  0  0  0  0
  189.7260  173.1290  137.1970 C   0  0  0  0  0  3  0  0  0  0  0  0
  190.2060  171.4690  139.4000 C   0  0  0  0  0  0  0  0  0  0  0  0
  190.1610  172.8690  139.5790 C   0  0  0  0  0  0  0  0  0  0  0  0
  190.0110  170.9170  138.1300 C   0  0  0  0  0  3  0  0  0  0  0  0
  1 11  1  0  0  0  0
  2  3  2  0  0  0  0
  2  7  1  0  0  0  0
  3  9  1  0  0  0  0
  5 16  1  0  0  0  0
  5  4  2  0  0  0  0
  6 13  1  0  0  0  0
  7 17  1  0  0  0  0
  8  1  1  0  0  0  0
  9  6  2  0  0  0  0
 10 15  1  0  0  0  0
 10 14  2  0  0  0  0
 12 22  2  0  0  0  0
 14 19  1  0  0  0  0
 15  2  1  0  0  0  0
 16 10  1  0  0  0  0
 17  1  2  0  0  0  0
 18  6  1  0  0  0  0
 19  7  2  0  0  0  0
 19 20  1  0  0  0  0
 20  8  2  0  0  0  0
 21 12  1  0  0  0  0
 21 15  2  0  0  0  0
 22 23  1  0  0  0  0
 22  3  1  0  0  0  0
 23 18  2  0  0  0  0
 24 28  2  0  0  0  0
 24 31  1  0  0  0  0
 25 30  2  0  0  0  0
 27 24  1  0  0  0  0
 28 25  1  0  0  0  0
 29 30  1  0  0  0  0
 29 26  1  0  0  0  0
 30  5  1  0  0  0  0
 31 29  2  0  0  0  0
M  END
>  <MODEL>
2

>  <REMARK>
 VINA RESULT:      -9.1      3.926      6.374
  Name = 
  1 active torsions:
  status: ('A' for Active; 'I' for Inactive)
    1  A    between atoms: C_9  and  C_22
                            x       y       z     vdW  Elec       q    Type
                         _______ _______ _______ _____ _____    ______ ____

>  <TORSDO>
F 1

$$$$
=
 OpenBabel11052417503D

 31 35  0  0  0  0  0  0  0  0999 V2000
  186.1860  177.1770  141.1680 C   0  0  0  0  0  0  0  0  0  0  0  0
  187.7070  176.3190  144.5050 C   0  0  0  0  0  0  0  0  0  0  0  0
  186.8610  176.8860  145.5070 C   0  0  0  0  0  0  0  0  0  0  0  0
  191.7460  173.6950  142.3650 O   0  0  0  0  0  0  0  0  0  0  0  0
  191.8630  173.6600  143.6200 C   0  0  0  0  0  0  0  0  0  0  0  0
  184.9060  178.1460  146.2280 C   0  0  0  0  0  0  0  0  0  0  0  0
  187.4780  176.4200  143.0990 C   0  0  0  0  0  0  0  0  0  0  0  0
  187.0990  176.5720  140.3050 C   0  0  0  0  0  3  0  0  0  0  0  0
  185.6970  177.6140  145.2120 C   0  0  0  0  0  3  0  0  0  0  0  0
  189.7300  175.0220  144.0050 C   0  0  0  0  0  0  0  0  0  0  0  0
  185.1160  177.8380  140.6680 F   0  0  0  0  0  0  0  0  0  0  0  0
  188.3040  176.0270  147.2290 N   0  0  0  0  0  0  0  0  0  0  0  0
  183.6770  178.9140  145.8970 C   0  0  0  0  0  1  0  0  0  0  0  0
  189.4730  175.1430  142.6780 N   0  0  0  0  0  0  0  0  0  0  0  0
  188.8580  175.6040  144.9400 C   0  0  0  0  0  0  0  0  0  0  0  0
  190.8900  174.3030  144.4550 N   0  0  0  0  0  2  0  0  0  0  0  0
  186.3760  177.1000  142.5500 C   0  0  0  0  0  3  0  0  0  0  0  0
  185.2790  177.9520  147.5550 C   0  0  0  0  0  3  0  0  0  0  0  0
  188.3950  175.8110  142.2060 C   0  0  0  0  0  0  0  0  0  0  0  0
  188.1990  175.8910  140.8230 C   0  0  0  0  0  3  0  0  0  0  0  0
  189.1260  175.4770  146.3050 C   0  0  0  0  0  3  0  0  0  0  0  0
  187.1940  176.7190  146.8740 C   0  0  0  0  0  0  0  0  0  0  0  0
  186.4040  177.2490  147.8470 N   0  0  0  0  0  0  0  0  0  0  0  0
  195.2170  171.6890  145.4330 C   0  0  0  0  0  0  0  0  0  0  0  0
  194.1400  173.6940  144.6170 C   0  0  0  0  0  3  0  0  0  0  0  0
  191.9250  170.8000  144.1350 F   0  0  0  0  0  0  0  0  0  0  0  0
  196.3860  171.0200  146.0620 C   0  0  0  0  0  1  0  0  0  0  0  0
  195.2390  173.0660  145.2080 C   0  0  0  0  0  3  0  0  0  0  0  0
  192.9930  171.5620  144.4760 C   0  0  0  0  0  0  0  0  0  0  0  0
  193.0060  172.9560  144.2440 C   0  0  0  0  0  0  0  0  0  0  0  0
  194.0970  170.9400  145.0680 C   0  0  0  0  0  3  0  0  0  0  0  0
  1 17  1  0  0  0  0
  2 15  1  0  0  0  0
  2  3  2  0  0  0  0
  3 22  1  0  0  0  0
  4  5  2  0  0  0  0
  5 30  1  0  0  0  0
  5 16  1  0  0  0  0
  6 18  1  0  0  0  0
  7  2  1  0  0  0  0
  8 20  1  0  0  0  0
  8  1  2  0  0  0  0
  9  3  1  0  0  0  0
  9  6  2  0  0  0  0
 10 16  1  0  0  0  0
 10 15  1  0  0  0  0
 11  1  1  0  0  0  0
 13  6  1  0  0  0  0
 14 10  2  0  0  0  0
 15 21  2  0  0  0  0
 17  7  2  0  0  0  0
 18 23  2  0  0  0  0
 19 14  1  0  0  0  0
 19  7  1  0  0  0  0
 20 19  2  0  0  0  0
 21 12  1  0  0  0  0
 22 12  2  0  0  0  0
 22 23  1  0  0  0  0
 24 27  1  0  0  0  0
 25 28  2  0  0  0  0
 26 29  1  0  0  0  0
 28 24  1  0  0  0  0
 29 31  1  0  0  0  0
 30 29  2  0  0  0  0
 30 25  1  0  0  0  0
 31 24  2  0  0  0  0
M  END
>  <MODEL>
3

>  <REMARK>
 VINA RESULT:      -8.5      2.407      4.526
  Name = 
  1 active torsions:
  status: ('A' for Active; 'I' for Inactive)
    1  A    between atoms: C_9  and  C_22
                            x       y       z     vdW  Elec       q    Type
                         _______ _______ _______ _____ _____    ______ ____

>  <TORSDO>
F 1

$$$$
=
 OpenBabel11052417503D

 31 35  0  0  0  0  0  0  0  0999 V2000
  185.4470  177.4410  146.7820 C   0  0  0  0  0  0  0  0  0  0  0  0
  186.8530  177.0070  143.3160 C   0  0  0  0  0  0  0  0  0  0  0  0
  185.8460  177.4420  142.4000 C   0  0  0  0  0  0  0  0  0  0  0  0
  191.4520  175.1110  145.0570 O   0  0  0  0  0  0  0  0  0  0  0  0
  191.4820  175.1460  143.7970 C   0  0  0  0  0  0  0  0  0  0  0  0
  183.6440  178.3380  141.8700 C   0  0  0  0  0  0  0  0  0  0  0  0
  186.7120  177.0120  144.7370 C   0  0  0  0  0  0  0  0  0  0  0  0
  186.5160  176.9870  147.5530 C   0  0  0  0  0  3  0  0  0  0  0  0
  184.5920  177.9260  142.8050 C   0  0  0  0  0  3  0  0  0  0  0  0
  189.1120  176.0960  143.6190 C   0  0  0  0  0  0  0  0  0  0  0  0
  184.3120  177.8710  147.3830 F   0  0  0  0  0  0  0  0  0  0  0  0
  187.2930  176.9320  140.5480 N   0  0  0  0  0  0  0  0  0  0  0  0
  182.3220  178.8480  142.3180 C   0  0  0  0  0  1  0  0  0  0  0  0
  188.9340  176.1190  144.9640 N   0  0  0  0  0  0  0  0  0  0  0  0
  188.0810  176.5380  142.7730 C   0  0  0  0  0  0  0  0  0  0  0  0
  190.3480  175.6240  143.0590 N   0  0  0  0  0  2  0  0  0  0  0  0
  185.5470  177.4520  145.3900 C   0  0  0  0  0  3  0  0  0  0  0  0
  183.9490  178.2660  140.5140 C   0  0  0  0  0  3  0  0  0  0  0  0
  187.7880  176.5540  145.5380 C   0  0  0  0  0  0  0  0  0  0  0  0
  187.6830  176.5450  146.9320 C   0  0  0  0  0  3  0  0  0  0  0  0
  188.2690  176.5140  141.3880 C   0  0  0  0  0  3  0  0  0  0  0  0
  186.1030  177.3900  141.0080 C   0  0  0  0  0  0  0  0  0  0  0  0
  185.1610  177.7980  140.1160 N   0  0  0  0  0  0  0  0  0  0  0  0
  194.9660  173.7570  141.7100 C   0  0  0  0  0  0  0  0  0  0  0  0
  193.0910  173.3530  143.1820 C   0  0  0  0  0  3  0  0  0  0  0  0
  193.1030  176.8690  142.1090 F   0  0  0  0  0  0  0  0  0  0  0  0
  196.1700  173.2620  140.9930 C   0  0  0  0  0  1  0  0  0  0  0  0
  194.2220  172.8870  142.5080 C   0  0  0  0  0  3  0  0  0  0  0  0
  193.4460  175.5660  142.2560 C   0  0  0  0  0  0  0  0  0  0  0  0
  192.6870  174.6920  143.0660 C   0  0  0  0  0  0  0  0  0  0  0  0
  194.5780  175.0930  141.5840 C   0  0  0  0  0  3  0  0  0  0  0  0
  1 11  1  0  0  0  0
  1  8  1  0  0  0  0
  2  7  1  0  0  0  0
  3  9  1  0  0  0  0
  3  2  2  0  0  0  0
  5  4  2  0  0  0  0
  6 13  1  0  0  0  0
  6  9  2  0  0  0  0
  7 17  1  0  0  0  0
  7 19  2  0  0  0  0
 10 14  2  0  0  0  0
 12 22  2  0  0  0  0
 12 21  1  0  0  0  0
 14 19  1  0  0  0  0
 15  2  1  0  0  0  0
 15 10  1  0  0  0  0
 16 10  1  0  0  0  0
 16  5  1  0  0  0  0
 17  1  2  0  0  0  0
 18  6  1  0  0  0  0
 19 20  1  0  0  0  0
 20  8  2  0  0  0  0
 21 15  2  0  0  0  0
 22  3  1  0  0  0  0
 23 18  2  0  0  0  0
 23 22  1  0  0  0  0
 24 28  1  0  0  0  0
 26 29  1  0  0  0  0
 27 24  1  0  0  0  0
 28 25  2  0  0  0  0
 29 30  2  0  0  0  0
 30 25  1  0  0  0  0
 30  5  1  0  0  0  0
 31 24  2  0  0  0  0
 31 29  1  0  0  0  0
M  END
>  <MODEL>
4

>  <REMARK>
 VINA RESULT:      -8.5      2.288      2.588
  Name = 
  1 active torsions:
  status: ('A' for Active; 'I' for Inactive)
    1  A    between atoms: C_9  and  C_22
                            x       y       z     vdW  Elec       q    Type
                         _______ _______ _______ _____ _____    ______ ____

>  <TORSDO>
F 1

$$$$
=
 OpenBabel11052417503D

 31 35  0  0  0  0  0  0  0  0999 V2000
  195.5110  173.5220  145.3710 C   0  0  0  0  0  0  0  0  0  0  0  0
  192.0190  172.8690  144.1190 C   0  0  0  0  0  0  0  0  0  0  0  0
  192.0680  171.6590  143.3610 C   0  0  0  0  0  0  0  0  0  0  0  0
  190.0370  177.1910  146.3940 O   0  0  0  0  0  0  0  0  0  0  0  0
  189.1070  176.5910  145.7890 C   0  0  0  0  0  0  0  0  0  0  0  0
  193.2360  169.7400  142.4200 C   0  0  0  0  0  0  0  0  0  0  0  0
  193.1440  173.4640  144.7670 C   0  0  0  0  0  0  0  0  0  0  0  0
  195.3150  174.7070  146.0780 C   0  0  0  0  0  3  0  0  0  0  0  0
  193.2430  170.9150  143.1690 C   0  0  0  0  0  3  0  0  0  0  0  0
  190.6470  174.7190  144.9680 C   0  0  0  0  0  0  0  0  0  0  0  0
  196.7440  172.9640  145.3120 F   0  0  0  0  0  0  0  0  0  0  0  0
  189.7130  171.8350  142.9080 N   0  0  0  0  0  0  0  0  0  0  0  0
  194.4900  168.9660  142.2270 C   0  0  0  0  0  1  0  0  0  0  0  0
  191.7440  175.2490  145.5680 N   0  0  0  0  0  0  0  0  0  0  0  0
  190.7630  173.5260  144.2360 C   0  0  0  0  0  0  0  0  0  0  0  0
  189.3730  175.3740  145.0790 N   0  0  0  0  0  2  0  0  0  0  0  0
  194.4360  172.9090  144.7240 C   0  0  0  0  0  3  0  0  0  0  0  0
  192.0420  169.3010  141.8540 C   0  0  0  0  0  3  0  0  0  0  0  0
  192.9640  174.6700  145.4910 C   0  0  0  0  0  0  0  0  0  0  0  0
  194.0450  175.2780  146.1380 C   0  0  0  0  0  3  0  0  0  0  0  0
  189.6320  172.9830  143.6200 C   0  0  0  0  0  3  0  0  0  0  0  0
  190.8820  171.1660  142.7620 C   0  0  0  0  0  0  0  0  0  0  0  0
  190.9020  170.0160  142.0360 N   0  0  0  0  0  0  0  0  0  0  0  0
  185.1050  178.1370  145.9130 C   0  0  0  0  0  0  0  0  0  0  0  0
  186.8900  176.8290  146.8880 C   0  0  0  0  0  3  0  0  0  0  0  0
  188.0050  178.2900  143.7040 F   0  0  0  0  0  0  0  0  0  0  0  0
  183.7170  178.6660  145.9700 C   0  0  0  0  0  1  0  0  0  0  0  0
  185.5850  177.3250  146.9420 C   0  0  0  0  0  3  0  0  0  0  0  0
  187.2370  177.9600  144.7720 C   0  0  0  0  0  0  0  0  0  0  0  0
  187.7310  177.1370  145.8080 C   0  0  0  0  0  0  0  0  0  0  0  0
  185.9290  178.4540  144.8320 C   0  0  0  0  0  3  0  0  0  0  0  0
  1  8  1  0  0  0  0
  2 15  1  0  0  0  0
  2  7  1  0  0  0  0
  3  2  2  0  0  0  0
  5 30  1  0  0  0  0
  5  4  2  0  0  0  0
  6  9  2  0  0  0  0
  7 19  2  0  0  0  0
  8 20  2  0  0  0  0
  9  3  1  0  0  0  0
 10 16  1  0  0  0  0
 10 14  2  0  0  0  0
 11  1  1  0  0  0  0
 12 21  1  0  0  0  0
 13  6  1  0  0  0  0
 15 10  1  0  0  0  0
 16  5  1  0  0  0  0
 17  7  1  0  0  0  0
 17  1  2  0  0  0  0
 18 23  2  0  0  0  0
 18  6  1  0  0  0  0
 19 14  1  0  0  0  0
 19 20  1  0  0  0  0
 21 15  2  0  0  0  0
 22 12  2  0  0  0  0
 22  3  1  0  0  0  0
 23 22  1  0  0  0  0
 24 27  1  0  0  0  0
 24 28  1  0  0  0  0
 25 28  2  0  0  0  0
 26 29  1  0  0  0  0
 29 31  1  0  0  0  0
 29 30  2  0  0  0  0
 30 25  1  0  0  0  0
 31 24  2  0  0  0  0
M  END
>  <MODEL>
5

>  <REMARK>
 VINA RESULT:      -8.4      3.202      8.704
  Name = 
  1 active torsions:
  status: ('A' for Active; 'I' for Inactive)
    1  A    between atoms: C_9  and  C_22
                            x       y       z     vdW  Elec       q    Type
                         _______ _______ _______ _____ _____    ______ ____

>  <TORSDO>
F 1

$$$$
=
 OpenBabel11052417503D

 31 35  0  0  0  0  0  0  0  0999 V2000
  186.1240  178.8550  143.3780 C   0  0  0  0  0  0  0  0  0  0  0  0
  188.8460  176.2530  143.4470 C   0  0  0  0  0  0  0  0  0  0  0  0
  189.4780  176.3440  144.7260 C   0  0  0  0  0  0  0  0  0  0  0  0
  187.8160  174.5660  138.5610 O   0  0  0  0  0  0  0  0  0  0  0  0
  188.7750  173.8910  139.0260 C   0  0  0  0  0  0  0  0  0  0  0  0
  189.7400  177.3110  146.9450 C   0  0  0  0  0  0  0  0  0  0  0  0
  187.7580  177.0740  143.0210 C   0  0  0  0  0  0  0  0  0  0  0  0
  185.6070  178.6540  142.1000 C   0  0  0  0  0  3  0  0  0  0  0  0
  189.0910  177.2640  145.7130 C   0  0  0  0  0  3  0  0  0  0  0  0
  188.7600  175.1360  141.2630 C   0  0  0  0  0  0  0  0  0  0  0  0
  185.5960  179.8090  144.1810 F   0  0  0  0  0  0  0  0  0  0  0  0
  190.9770  174.5620  144.1250 N   0  0  0  0  0  0  0  0  0  0  0  0
  189.3170  178.2900  147.9790 C   0  0  0  0  0  1  0  0  0  0  0  0
  187.7270  175.9380  140.9010 N   0  0  0  0  0  0  0  0  0  0  0  0
  189.3370  175.2770  142.5360 C   0  0  0  0  0  0  0  0  0  0  0  0
  189.2630  174.1470  140.3510 N   0  0  0  0  0  2  0  0  0  0  0  0
  187.1880  178.0720  143.8310 C   0  0  0  0  0  3  0  0  0  0  0  0
  190.7900  176.4310  147.1960 C   0  0  0  0  0  3  0  0  0  0  0  0
  187.2180  176.8840  141.7240 C   0  0  0  0  0  0  0  0  0  0  0  0
  186.1520  177.6710  141.2760 C   0  0  0  0  0  3  0  0  0  0  0  0
  190.4000  174.4490  142.9060 C   0  0  0  0  0  3  0  0  0  0  0  0
  190.5520  175.4730  145.0340 C   0  0  0  0  0  0  0  0  0  0  0  0
  191.1690  175.5400  146.2440 N   0  0  0  0  0  0  0  0  0  0  0  0
  190.5800  170.7590  136.7130 C   0  0  0  0  0  0  0  0  0  0  0  0
  189.3160  171.4970  138.6380 C   0  0  0  0  0  3  0  0  0  0  0  0
  190.2170  174.3860  136.5510 F   0  0  0  0  0  0  0  0  0  0  0  0
  191.2000  169.6640  135.9220 C   0  0  0  0  0  1  0  0  0  0  0  0
  189.8980  170.4670  137.8950 C   0  0  0  0  0  3  0  0  0  0  0  0
  190.0980  173.1160  137.0120 C   0  0  0  0  0  0  0  0  0  0  0  0
  189.4060  172.8300  138.2100 C   0  0  0  0  0  0  0  0  0  0  0  0
  190.6790  172.0800  136.2730 C   0  0  0  0  0  3  0  0  0  0  0  0
  1 17  1  0  0  0  0
  1 11  1  0  0  0  0
  2  3  2  0  0  0  0
  3 22  1  0  0  0  0
  3  9  1  0  0  0  0
  4  5  2  0  0  0  0
  5 16  1  0  0  0  0
  6 18  1  0  0  0  0
  6 13  1  0  0  0  0
  7  2  1  0  0  0  0
  7 17  2  0  0  0  0
  8  1  2  0  0  0  0
  9  6  2  0  0  0  0
 10 15  1  0  0  0  0
 12 22  2  0  0  0  0
 14 10  2  0  0  0  0
 14 19  1  0  0  0  0
 15 21  2  0  0  0  0
 15  2  1  0  0  0  0
 16 10  1  0  0  0  0
 19  7  1  0  0  0  0
 20 19  2  0  0  0  0
 20  8  1  0  0  0  0
 21 12  1  0  0  0  0
 22 23  1  0  0  0  0
 23 18  2  0  0  0  0
 24 28  1  0  0  0  0
 26 29  1  0  0  0  0
 27 24  1  0  0  0  0
 28 25  2  0  0  0  0
 29 30  2  0  0  0  0
 30 25  1  0  0  0  0
 30  5  1  0  0  0  0
 31 24  2  0  0  0  0
 31 29  1  0  0  0  0
M  END
>  <MODEL>
6

>  <REMARK>
 VINA RESULT:      -8.2      4.591      7.150
  Name = 
  1 active torsions:
  status: ('A' for Active; 'I' for Inactive)
    1  A    between atoms: C_9  and  C_22
                            x       y       z     vdW  Elec       q    Type
                         _______ _______ _______ _____ _____    ______ ____

>  <TORSDO>
F 1

$$$$
=
 OpenBabel11052417503D

 31 35  0  0  0  0  0  0  0  0999 V2000
  195.0510  174.8700  146.0580 C   0  0  0  0  0  0  0  0  0  0  0  0
  192.1140  173.4240  144.1950 C   0  0  0  0  0  0  0  0  0  0  0  0
  192.4410  172.0670  143.8910 C   0  0  0  0  0  0  0  0  0  0  0  0
  189.3460  177.9040  144.4090 O   0  0  0  0  0  0  0  0  0  0  0  0
  188.6640  177.0380  143.7970 C   0  0  0  0  0  0  0  0  0  0  0  0
  193.9250  170.1370  143.9350 C   0  0  0  0  0  0  0  0  0  0  0  0
  192.9700  174.3250  144.9000 C   0  0  0  0  0  0  0  0  0  0  0  0
  194.5990  176.1690  146.2850 C   0  0  0  0  0  3  0  0  0  0  0  0
  193.6560  171.4650  144.2560 C   0  0  0  0  0  3  0  0  0  0  0  0
  190.4660  175.2360  144.0340 C   0  0  0  0  0  0  0  0  0  0  0  0
  196.2720  174.4900  146.5030 F   0  0  0  0  0  0  0  0  0  0  0  0
  190.3160  171.7880  142.8000 N   0  0  0  0  0  0  0  0  0  0  0  0
  195.2160  169.5160  144.3300 C   0  0  0  0  0  1  0  0  0  0  0  0
  191.3110  176.0570  144.7070 N   0  0  0  0  0  0  0  0  0  0  0  0
  190.8480  173.9110  143.7660 C   0  0  0  0  0  0  0  0  0  0  0  0
  189.1850  175.7170  143.5960 N   0  0  0  0  0  2  0  0  0  0  0  0
  194.2430  173.9600  145.3730 C   0  0  0  0  0  3  0  0  0  0  0  0
  192.9720  169.3980  143.2390 C   0  0  0  0  0  3  0  0  0  0  0  0
  192.5280  175.6500  145.1400 C   0  0  0  0  0  0  0  0  0  0  0  0
  193.3410  176.5570  145.8270 C   0  0  0  0  0  3  0  0  0  0  0  0
  189.9740  173.0690  143.0730 C   0  0  0  0  0  3  0  0  0  0  0  0
  191.5070  171.2690  143.1840 C   0  0  0  0  0  0  0  0  0  0  0  0
  191.7950  169.9740  142.8820 N   0  0  0  0  0  0  0  0  0  0  0  0
  184.7300  177.9990  142.3730 C   0  0  0  0  0  0  0  0  0  0  0  0
  186.2080  177.2380  144.1290 C   0  0  0  0  0  3  0  0  0  0  0  0
  188.1490  177.9880  141.0990 F   0  0  0  0  0  0  0  0  0  0  0  0
  183.3630  178.3280  141.8940 C   0  0  0  0  0  1  0  0  0  0  0  0
  184.9220  177.5470  143.6800 C   0  0  0  0  0  3  0  0  0  0  0  0
  187.1140  177.8360  141.9610 C   0  0  0  0  0  0  0  0  0  0  0  0
  187.3180  177.3770  143.2820 C   0  0  0  0  0  0  0  0  0  0  0  0
  185.8240  178.1430  141.5170 C   0  0  0  0  0  3  0  0  0  0  0  0
  1  8  1  0  0  0  0
  1 11  1  0  0  0  0
  2  7  1  0  0  0  0
  3  2  2  0  0  0  0
  3  9  1  0  0  0  0
  5  4  2  0  0  0  0
  6  9  2  0  0  0  0
  6 13  1  0  0  0  0
  7 19  2  0  0  0  0
  7 17  1  0  0  0  0
 10 14  2  0  0  0  0
 12 21  1  0  0  0  0
 12 22  2  0  0  0  0
 14 19  1  0  0  0  0
 15 10  1  0  0  0  0
 15  2  1  0  0  0  0
 16  5  1  0  0  0  0
 16 10  1  0  0  0  0
 17  1  2  0  0  0  0
 18  6  1  0  0  0  0
 19 20  1  0  0  0  0
 20  8  2  0  0  0  0
 21 15  2  0  0  0  0
 22  3  1  0  0  0  0
 23 22  1  0  0  0  0
 23 18  2  0  0  0  0
 24 28  1  0  0  0  0
 26 29  1  0  0  0  0
 27 24  1  0  0  0  0
 28 25  2  0  0  0  0
 29 30  2  0  0  0  0
 30  5  1  0  0  0  0
 30 25  1  0  0  0  0
 31 29  1  0  0  0  0
 31 24  2  0  0  0  0
M  END
>  <MODEL>
7

>  <REMARK>
 VINA RESULT:      -8.1      3.068      8.871
  Name = 
  1 active torsions:
  status: ('A' for Active; 'I' for Inactive)
    1  A    between atoms: C_9  and  C_22
                            x       y       z     vdW  Elec       q    Type
                         _______ _______ _______ _____ _____    ______ ____

>  <TORSDO>
F 1

$$$$
=
 OpenBabel11052417503D

 31 35  0  0  0  0  0  0  0  0999 V2000
  195.6860  175.1350  142.8940 C   0  0  0  0  0  0  0  0  0  0  0  0
  192.1160  174.5860  141.8290 C   0  0  0  0  0  0  0  0  0  0  0  0
  192.1510  173.7690  140.6580 C   0  0  0  0  0  0  0  0  0  0  0  0
  190.1430  177.4480  145.7910 O   0  0  0  0  0  0  0  0  0  0  0  0
  189.1870  177.0140  145.0930 C   0  0  0  0  0  0  0  0  0  0  0  0
  193.3210  172.5070  138.9340 C   0  0  0  0  0  0  0  0  0  0  0  0
  193.2700  175.0230  142.5470 C   0  0  0  0  0  0  0  0  0  0  0  0
  195.5000  175.9310  144.0230 C   0  0  0  0  0  3  0  0  0  0  0  0
  193.3420  173.3030  140.0780 C   0  0  0  0  0  3  0  0  0  0  0  0
  190.7370  175.7950  143.4610 C   0  0  0  0  0  0  0  0  0  0  0  0
  196.9380  174.7960  142.5030 F   0  0  0  0  0  0  0  0  0  0  0  0
  189.7500  173.8160  140.5380 N   0  0  0  0  0  0  0  0  0  0  0  0
  194.5910  172.0220  138.3340 C   0  0  0  0  0  1  0  0  0  0  0  0
  191.8620  176.1870  144.1120 N   0  0  0  0  0  0  0  0  0  0  0  0
  190.8410  174.9910  142.3140 C   0  0  0  0  0  0  0  0  0  0  0  0
  189.4440  176.1990  143.9410 N   0  0  0  0  0  2  0  0  0  0  0  0
  194.5820  174.6880  142.1660 C   0  0  0  0  0  3  0  0  0  0  0  0
  192.0980  172.1730  138.3590 C   0  0  0  0  0  3  0  0  0  0  0  0
  193.1010  175.8330  143.6980 C   0  0  0  0  0  0  0  0  0  0  0  0
  194.2100  176.2780  144.4240 C   0  0  0  0  0  3  0  0  0  0  0  0
  189.6800  174.5890  141.6470 C   0  0  0  0  0  3  0  0  0  0  0  0
  190.9350  173.3990  140.0310 C   0  0  0  0  0  0  0  0  0  0  0  0
  190.9420  172.6210  138.9150 N   0  0  0  0  0  0  0  0  0  0  0  0
  185.1330  178.0170  146.0850 C   0  0  0  0  0  0  0  0  0  0  0  0
  187.1000  178.3070  144.7080 C   0  0  0  0  0  3  0  0  0  0  0  0
  187.7450  175.7720  147.2900 F   0  0  0  0  0  0  0  0  0  0  0  0
  183.7290  178.3740  146.4160 C   0  0  0  0  0  1  0  0  0  0  0  0
  185.7800  178.6440  145.0190 C   0  0  0  0  0  3  0  0  0  0  0  0
  187.1270  176.7110  146.5330 C   0  0  0  0  0  0  0  0  0  0  0  0
  187.7900  177.3410  145.4560 C   0  0  0  0  0  0  0  0  0  0  0  0
  185.8050  177.0530  146.8390 C   0  0  0  0  0  3  0  0  0  0  0  0
  1  8  1  0  0  0  0
  2 15  1  0  0  0  0
  2  7  1  0  0  0  0
  3  2  2  0  0  0  0
  5 30  1  0  0  0  0
  5  4  2  0  0  0  0
  6  9  2  0  0  0  0
  7 19  2  0  0  0  0
  8 20  2  0  0  0  0
  9  3  1  0  0  0  0
 10 16  1  0  0  0  0
 10 14  2  0  0  0  0
 11  1  1  0  0  0  0
 12 21  1  0  0  0  0
 13  6  1  0  0  0  0
 15 10  1  0  0  0  0
 16  5  1  0  0  0  0
 17  7  1  0  0  0  0
 17  1  2  0  0  0  0
 18 23  2  0  0  0  0
 18  6  1  0  0  0  0
 19 14  1  0  0  0  0
 19 20  1  0  0  0  0
 21 15  2  0  0  0  0
 22 12  2  0  0  0  0
 22  3  1  0  0  0  0
 23 22  1  0  0  0  0
 24 27  1  0  0  0  0
 24 31  1  0  0  0  0
 25 28  1  0  0  0  0
 25 30  2  0  0  0  0
 28 24  2  0  0  0  0
 29 31  2  0  0  0  0
 29 26  1  0  0  0  0
 30 29  1  0  0  0  0
M  END
>  <MODEL>
8

>  <REMARK>
 VINA RESULT:      -8.0      3.656      8.190
  Name = 
  1 active torsions:
  status: ('A' for Active; 'I' for Inactive)
    1  A    between atoms: C_9  and  C_22
                            x       y       z     vdW  Elec       q    Type
                         _______ _______ _______ _____ _____    ______ ____

>  <TORSDO>
F 1

$$$$
=
 OpenBabel11052417503D

 31 35  0  0  0  0  0  0  0  0999 V2000
  190.0650  177.5370  147.5270 C   0  0  0  0  0  0  0  0  0  0  0  0
  188.6810  176.0130  144.3730 C   0  0  0  0  0  0  0  0  0  0  0  0
  187.5000  176.7450  144.0400 C   0  0  0  0  0  0  0  0  0  0  0  0
  192.5160  172.4130  144.0330 O   0  0  0  0  0  0  0  0  0  0  0  0
  191.7280  172.2550  143.0610 C   0  0  0  0  0  0  0  0  0  0  0  0
  185.8590  178.5000  144.4340 C   0  0  0  0  0  0  0  0  0  0  0  0
  189.5060  176.2800  145.5080 C   0  0  0  0  0  0  0  0  0  0  0  0
  191.1900  176.7400  147.7270 C   0  0  0  0  0  3  0  0  0  0  0  0
  187.0170  177.8190  144.8040 C   0  0  0  0  0  3  0  0  0  0  0  0
  190.2120  174.1860  143.7850 C   0  0  0  0  0  0  0  0  0  0  0  0
  189.7780  178.5350  148.3960 F   0  0  0  0  0  0  0  0  0  0  0  0
  187.1720  175.3570  142.1030 N   0  0  0  0  0  0  0  0  0  0  0  0
  185.3620  179.6350  145.2550 C   0  0  0  0  0  1  0  0  0  0  0  0
  190.9660  174.4760  144.8750 N   0  0  0  0  0  0  0  0  0  0  0  0
  189.0610  174.9450  143.5140 C   0  0  0  0  0  0  0  0  0  0  0  0
  190.5860  173.1100  142.9100 N   0  0  0  0  0  2  0  0  0  0  0  0
  189.2340  177.3080  146.4280 C   0  0  0  0  0  3  0  0  0  0  0  0
  185.1720  178.1050  143.2890 C   0  0  0  0  0  3  0  0  0  0  0  0
  190.6550  175.4790  145.7280 C   0  0  0  0  0  0  0  0  0  0  0  0
  191.4840  175.7140  146.8300 C   0  0  0  0  0  3  0  0  0  0  0  0
  188.2870  174.6440  142.3890 C   0  0  0  0  0  3  0  0  0  0  0  0
  186.7620  176.3850  142.8850 C   0  0  0  0  0  0  0  0  0  0  0  0
  185.6340  177.0670  142.5460 N   0  0  0  0  0  0  0  0  0  0  0  0
  192.4290  169.2100  140.1200 C   0  0  0  0  0  0  0  0  0  0  0  0
  191.9160  171.5000  140.7010 C   0  0  0  0  0  3  0  0  0  0  0  0
  192.3330  169.4980  143.7550 F   0  0  0  0  0  0  0  0  0  0  0  0
  192.6710  168.1660  139.0890 C   0  0  0  0  0  1  0  0  0  0  0  0
  192.1430  170.5190  139.7320 C   0  0  0  0  0  3  0  0  0  0  0  0
  192.2650  169.8580  142.4500 C   0  0  0  0  0  0  0  0  0  0  0  0
  191.9740  171.1860  142.0670 C   0  0  0  0  0  0  0  0  0  0  0  0
  192.4910  168.8810  141.4750 C   0  0  0  0  0  3  0  0  0  0  0  0
  1  8  1  0  0  0  0
  1 11  1  0  0  0  0
  2  7  1  0  0  0  0
  3  2  2  0  0  0  0
  3  9  1  0  0  0  0
  5  4  2  0  0  0  0
  6  9  2  0  0  0  0
  6 13  1  0  0  0  0
  7 19  2  0  0  0  0
  7 17  1  0  0  0  0
 10 14  2  0  0  0  0
 12 21  1  0  0  0  0
 12 22  2  0  0  0  0
 14 19  1  0  0  0  0
 15 10  1  0  0  0  0
 15  2  1  0  0  0  0
 16  5  1  0  0  0  0
 16 10  1  0  0  0  0
 17  1  2  0  0  0  0
 18  6  1  0  0  0  0
 19 20  1  0  0  0  0
 20  8  2  0  0  0  0
 21 15  2  0  0  0  0
 22  3  1  0  0  0  0
 23 22  1  0  0  0  0
 23 18  2  0  0  0  0
 24 31  1  0  0  0  0
 25 30  2  0  0  0  0
 27 24  1  0  0  0  0
 28 24  2  0  0  0  0
 28 25  1  0  0  0  0
 29 26  1  0  0  0  0
 30 29  1  0  0  0  0
 30  5  1  0  0  0  0
 31 29  2  0  0  0  0
M  END
>  <MODEL>
9

>  <REMARK>
 VINA RESULT:      -7.9      3.860      5.135
  Name = 
  1 active torsions:
  status: ('A' for Active; 'I' for Inactive)
    1  A    between atoms: C_9  and  C_22
                            x       y       z     vdW  Elec       q    Type
                         _______ _______ _______ _____ _____    ______ ____

>  <TORSDO>
F 1

$$$$
