=
 OpenBabel11052421313D

 32 37  0  0  1  0  0  0  0  0999 V2000
  189.9390  175.9830  143.4400 C   0  0  1  0  0  3  0  0  0  0  0  0
  191.1280  175.7730  148.0260 C   0  0  0  0  0  2  0  0  0  0  0  0
  190.0440  174.8150  147.5520 C   0  0  0  0  0  2  0  0  0  0  0  0
  187.5990  176.6160  142.6900 C   0  0  2  0  0  3  0  0  0  0  0  0
  186.3210  177.2780  143.1100 C   0  0  0  0  0  0  0  0  0  0  0  0
  191.1380  174.0450  142.4460 C   0  0  0  0  0  0  0  0  0  0  0  0
  192.1120  175.1340  144.3850 C   0  0  0  0  0  3  0  0  0  0  0  0
  184.8120  178.3850  144.4900 C   0  0  0  0  0  0  0  0  0  0  0  0
  191.7560  176.5170  146.8420 C   0  0  0  0  0  2  0  0  0  0  0  0
  190.8820  175.8610  144.5750 N   0  0  0  0  0  0  0  0  0  0  0  0
  190.7720  176.8170  145.6880 C   0  0  1  0  0  3  0  0  0  0  0  0
  188.4040  177.2450  145.0310 C   0  0  2  0  0  3  0  0  0  0  0  0
  184.1130  178.4910  143.2890 C   0  0  0  0  0  3  0  0  0  0  0  0
  192.2480  174.2710  143.3820 C   0  0  0  0  0  3  0  0  0  0  0  0
  185.0590  177.7440  142.1070 S   0  0  0  0  0  0  0  0  0  0  0  0
  188.8880  175.5740  146.8930 C   0  0  0  0  0  2  0  0  0  0  0  0
  189.3260  176.8790  146.1910 C   0  0  1  0  0  3  0  0  0  0  0  0
  186.9720  177.4610  145.5310 C   0  0  0  0  0  2  0  0  0  0  0  0
  190.0400  174.8000  142.5080 C   0  0  0  0  0  3  0  0  0  0  0  0
  187.3000  175.4990  141.9070 O   0  0  0  0  0  1  0  0  0  0  0  0
  184.2770  178.9360  145.7670 C   0  0  0  0  0  1  0  0  0  0  0  0
  188.4770  176.1960  143.8940 C   0  0  2  0  0  3  0  0  0  0  0  0
  186.0480  177.7310  144.3870 C   0  0  0  0  0  0  0  0  0  0  0  0
  191.2030  172.9140  141.4820 C   0  0  0  0  0  2  0  0  0  0  0  0
  189.8050  172.5200  141.0430 C   0  0  0  0  0  2  0  0  0  0  0  0
  189.7100  172.5760  139.5320 C   0  0  2  0  0  3  0  0  0  0  0  0
  190.2870  173.7760  139.0770 O   0  0  0  0  0  0  0  0  0  0  0  0
  188.8820  173.7310  139.1270 C   0  0  1  0  0  3  0  0  0  0  0  0
  188.3410  173.5140  137.7260 C   0  0  0  0  0  2  0  0  0  0  0  0
  188.0080  174.7900  137.1210 N   0  0  0  0  0  0  0  0  0  0  0  0
  188.5360  175.1220  135.8960 O   0  0  0  0  0  0  0  0  0  0  0  0
  187.1070  175.4960  137.6170 O   0  0  0  0  0  0  0  0  0  0  0  0
  1 19  1  1  0  0  0
  1 22  1  0  0  0  0
  1 10  1  0  0  0  0
  3  2  1  0  0  0  0
  4 20  1  1  0  0  0
  4  5  1  0  0  0  0
  4 22  1  0  0  0  0
  5 23  2  0  0  0  0
  6 19  2  0  0  0  0
  6 14  1  0  0  0  0
  7 10  1  0  0  0  0
  8 21  1  0  0  0  0
  9  2  1  0  0  0  0
 10 11  1  0  0  0  0
 11 17  1  0  0  0  0
 11  9  1  1  0  0  0
 12 18  1  1  0  0  0
 12 17  1  0  0  0  0
 13  8  2  0  0  0  0
 14  7  2  0  0  0  0
 15  5  1  0  0  0  0
 15 13  1  0  0  0  0
 16  3  1  0  0  0  0
 17 16  1  6  0  0  0
 22 12  1  0  0  0  0
 23  8  1  0  0  0  0
 23 18  1  0  0  0  0
 24  6  1  0  0  0  0
 25 24  1  0  0  0  0
 26 25  1  0  0  0  0
 27 28  1  0  0  0  0
 27 26  1  0  0  0  0
 28 26  1  0  0  0  0
 29 28  1  0  0  0  0
 30 32  2  0  0  0  0
 30 29  1  0  0  0  0
 31 30  2  0  0  0  0
M  END
>  <MODEL>
1

>  <REMARK>
 VINA RESULT:      -7.9      0.000      0.000
  Name = 
  5 active torsions:
  status: ('A' for Active; 'I' for Inactive)
    1  A    between atoms: N_1  and  C_10
    2  A    between atoms: C_2  and  C_19
    3  A    between atoms: C_8  and  C_23
    4  A    between atoms: C_10  and  C_24
    5  A    between atoms: C_19  and  C_23
                            x       y       z     vdW  Elec       q    Type
                         _______ _______ _______ _____ _____    ______ ____

>  <TORSDO>
F 5

$$$$
=
 OpenBabel11052421313D

 32 37  0  0  1  0  0  0  0  0999 V2000
  189.8520  176.4290  143.4040 C   0  0  1  0  0  3  0  0  0  0  0  0
  190.9560  175.6540  147.9510 C   0  0  0  0  0  2  0  0  0  0  0  0
  189.9330  174.7180  147.3230 C   0  0  0  0  0  2  0  0  0  0  0  0
  187.4990  177.0430  142.6830 C   0  0  2  0  0  3  0  0  0  0  0  0
  186.1800  177.5780  143.1520 C   0  0  0  0  0  0  0  0  0  0  0  0
  191.1700  174.7050  142.1920 C   0  0  0  0  0  0  0  0  0  0  0  0
  192.0470  175.5660  144.2860 C   0  0  0  0  0  3  0  0  0  0  0  0
  184.5860  178.4130  144.6270 C   0  0  0  0  0  0  0  0  0  0  0  0
  191.5690  176.5830  146.8960 C   0  0  0  0  0  2  0  0  0  0  0  0
  190.7770  176.1990  144.5380 N   0  0  0  0  0  0  0  0  0  0  0  0
  190.5950  176.9880  145.7660 C   0  0  1  0  0  3  0  0  0  0  0  0
  188.2220  177.3860  145.1080 C   0  0  2  0  0  3  0  0  0  0  0  0
  183.9080  178.6470  143.4320 C   0  0  0  0  0  3  0  0  0  0  0  0
  192.2480  174.8550  143.1790 C   0  0  0  0  0  3  0  0  0  0  0  0
  184.9160  178.1150  142.1880 S   0  0  0  0  0  0  0  0  0  0  0  0
  188.7530  175.5030  146.7400 C   0  0  0  0  0  2  0  0  0  0  0  0
  189.1370  176.9110  146.2330 C   0  0  1  0  0  3  0  0  0  0  0  0
  186.7700  177.4620  145.5930 C   0  0  0  0  0  2  0  0  0  0  0  0
  190.0340  175.3900  142.3240 C   0  0  0  0  0  3  0  0  0  0  0  0
  187.2740  176.0290  141.7480 O   0  0  0  0  0  1  0  0  0  0  0  0
  183.9970  178.7590  145.9510 C   0  0  0  0  0  1  0  0  0  0  0  0
  188.3720  176.5070  143.8430 C   0  0  2  0  0  3  0  0  0  0  0  0
  185.8570  177.8390  144.4710 C   0  0  0  0  0  0  0  0  0  0  0  0
  191.3140  173.7200  141.0860 C   0  0  0  0  0  2  0  0  0  0  0  0
  189.9490  173.2200  140.6500 C   0  0  0  0  0  2  0  0  0  0  0  0
  189.7580  173.4830  139.1700 C   0  0  2  0  0  3  0  0  0  0  0  0
  188.3830  173.4770  138.8740 O   0  0  0  0  0  0  0  0  0  0  0  0
  189.1050  172.3190  138.5370 C   0  0  1  0  0  3  0  0  0  0  0  0
  189.3810  172.3190  137.0450 C   0  0  0  0  0  2  0  0  0  0  0  0
  189.7600  170.9870  136.6110 N   0  0  0  0  0  0  0  0  0  0  0  0
  189.5590  169.9150  137.4490 O   0  0  0  0  0  0  0  0  0  0  0  0
  190.0910  170.7910  135.4250 O   0  0  0  0  0  0  0  0  0  0  0  0
  1 19  1  6  0  0  0
  1 22  1  0  0  0  0
  1 10  1  0  0  0  0
  3  2  1  0  0  0  0
  4 20  1  6  0  0  0
  4  5  1  0  0  0  0
  4 22  1  0  0  0  0
  5 23  2  0  0  0  0
  6 19  2  0  0  0  0
  6 14  1  0  0  0  0
  7 10  1  0  0  0  0
  8 21  1  0  0  0  0
  9  2  1  0  0  0  0
 10 11  1  0  0  0  0
 11 17  1  0  0  0  0
 11  9  1  1  0  0  0
 12 18  1  1  0  0  0
 12 17  1  0  0  0  0
 13  8  2  0  0  0  0
 14  7  2  0  0  0  0
 15  5  1  0  0  0  0
 15 13  1  0  0  0  0
 16  3  1  0  0  0  0
 17 16  1  6  0  0  0
 22 12  1  0  0  0  0
 23  8  1  0  0  0  0
 23 18  1  0  0  0  0
 24  6  1  0  0  0  0
 25 24  1  0  0  0  0
 26 25  1  0  0  0  0
 27 26  1  0  0  0  0
 28 27  1  0  0  0  0
 28 26  1  0  0  0  0
 29 28  1  0  0  0  0
 30 29  1  0  0  0  0
 30 31  2  0  0  0  0
 32 30  2  0  0  0  0
M  END
>  <MODEL>
2

>  <REMARK>
 VINA RESULT:      -7.9      1.492      1.761
  Name = 
  5 active torsions:
  status: ('A' for Active; 'I' for Inactive)
    1  A    between atoms: N_1  and  C_10
    2  A    between atoms: C_2  and  C_19
    3  A    between atoms: C_8  and  C_23
    4  A    between atoms: C_10  and  C_24
    5  A    between atoms: C_19  and  C_23
                            x       y       z     vdW  Elec       q    Type
                         _______ _______ _______ _____ _____    ______ ____

>  <TORSDO>
F 5

$$$$
=
 OpenBabel11052421313D

 32 37  0  0  1  0  0  0  0  0999 V2000
  189.8270  176.3800  143.4110 C   0  0  1  0  0  3  0  0  0  0  0  0
  190.9570  175.6130  147.9530 C   0  0  0  0  0  2  0  0  0  0  0  0
  189.9160  174.6870  147.3370 C   0  0  0  0  0  2  0  0  0  0  0  0
  187.4760  177.0200  142.7050 C   0  0  2  0  0  3  0  0  0  0  0  0
  186.1670  177.5750  143.1820 C   0  0  0  0  0  0  0  0  0  0  0  0
  191.1130  174.6330  142.1970 C   0  0  0  0  0  0  0  0  0  0  0  0
  192.0170  175.4940  144.2800 C   0  0  0  0  0  3  0  0  0  0  0  0
  184.5960  178.4360  144.6660 C   0  0  0  0  0  0  0  0  0  0  0  0
  191.5720  176.5290  146.8890 C   0  0  0  0  0  2  0  0  0  0  0  0
  190.7570  176.1440  144.5380 N   0  0  0  0  0  0  0  0  0  0  0  0
  190.5950  176.9410  145.7650 C   0  0  1  0  0  3  0  0  0  0  0  0
  188.2220  177.3660  145.1230 C   0  0  2  0  0  3  0  0  0  0  0  0
  183.9110  178.6730  143.4750 C   0  0  0  0  0  3  0  0  0  0  0  0
  192.2010  174.7750  143.1750 C   0  0  0  0  0  3  0  0  0  0  0  0
  184.9030  178.1230  142.2250 S   0  0  0  0  0  0  0  0  0  0  0  0
  188.7420  175.4840  146.7600 C   0  0  0  0  0  2  0  0  0  0  0  0
  189.1400  176.8850  146.2430 C   0  0  1  0  0  3  0  0  0  0  0  0
  186.7750  177.4620  145.6190 C   0  0  0  0  0  2  0  0  0  0  0  0
  189.9870  175.3340  142.3350 C   0  0  0  0  0  3  0  0  0  0  0  0
  187.2310  176.0050  141.7770 O   0  0  0  0  0  1  0  0  0  0  0  0
  184.0220  178.7960  145.9920 C   0  0  0  0  0  1  0  0  0  0  0  0
  188.3510  176.4780  143.8610 C   0  0  2  0  0  3  0  0  0  0  0  0
  185.8580  177.8460  144.5020 C   0  0  0  0  0  0  0  0  0  0  0  0
  191.2360  173.6420  141.0940 C   0  0  0  0  0  2  0  0  0  0  0  0
  190.5790  172.3330  141.4930 C   0  0  0  0  0  2  0  0  0  0  0  0
  191.6390  171.2660  141.6770 C   0  0  2  0  0  3  0  0  0  0  0  0
  191.0200  170.0630  142.0620 O   0  0  0  0  0  0  0  0  0  0  0  0
  191.6420  170.8050  143.0810 C   0  0  1  0  0  3  0  0  0  0  0  0
  192.9800  170.1710  143.4140 C   0  0  0  0  0  2  0  0  0  0  0  0
  193.4840  170.7060  144.6660 N   0  0  0  0  0  0  0  0  0  0  0  0
  194.2740  169.9220  145.4720 O   0  0  0  0  0  0  0  0  0  0  0  0
  193.3560  171.9210  144.9170 O   0  0  0  0  0  0  0  0  0  0  0  0
  1 19  1  6  0  0  0
  1 22  1  0  0  0  0
  1 10  1  0  0  0  0
  3  2  1  0  0  0  0
  4 20  1  6  0  0  0
  4  5  1  0  0  0  0
  4 22  1  0  0  0  0
  5 23  2  0  0  0  0
  6 19  2  0  0  0  0
  6 14  1  0  0  0  0
  7 10  1  0  0  0  0
  8 21  1  0  0  0  0
  9  2  1  0  0  0  0
 10 11  1  0  0  0  0
 11 17  1  0  0  0  0
 11  9  1  1  0  0  0
 12 18  1  1  0  0  0
 12 17  1  0  0  0  0
 13  8  2  0  0  0  0
 14  7  2  0  0  0  0
 15  5  1  0  0  0  0
 15 13  1  0  0  0  0
 16  3  1  0  0  0  0
 17 16  1  6  0  0  0
 22 12  1  0  0  0  0
 23  8  1  0  0  0  0
 23 18  1  0  0  0  0
 24 25  1  0  0  0  0
 24  6  1  0  0  0  0
 25 26  1  0  0  0  0
 26 27  1  0  0  0  0
 26 28  1  0  0  0  0
 27 28  1  0  0  0  0
 28 29  1  0  0  0  0
 29 30  1  0  0  0  0
 30 32  2  0  0  0  0
 30 31  2  0  0  0  0
M  END
>  <MODEL>
3

>  <REMARK>
 VINA RESULT:      -7.7      2.526      3.934
  Name = 
  5 active torsions:
  status: ('A' for Active; 'I' for Inactive)
    1  A    between atoms: N_1  and  C_10
    2  A    between atoms: C_2  and  C_19
    3  A    between atoms: C_8  and  C_23
    4  A    between atoms: C_10  and  C_24
    5  A    between atoms: C_19  and  C_23
                            x       y       z     vdW  Elec       q    Type
                         _______ _______ _______ _____ _____    ______ ____

>  <TORSDO>
F 5

$$$$
=
 OpenBabel11052421313D

 32 37  0  0  1  0  0  0  0  0999 V2000
  189.1430  175.2600  144.8520 C   0  0  1  0  0  3  0  0  0  0  0  0
  193.5730  176.2460  146.2270 C   0  0  0  0  0  2  0  0  0  0  0  0
  193.0570  176.9760  144.9940 C   0  0  0  0  0  2  0  0  0  0  0  0
  188.6410  174.2220  142.5920 C   0  0  2  0  0  3  0  0  0  0  0  0
  189.2270  173.4560  141.4440 C   0  0  0  0  0  0  0  0  0  0  0  0
  187.8320  177.1900  145.7100 C   0  0  0  0  0  0  0  0  0  0  0  0
  189.8220  176.5140  146.9260 C   0  0  0  0  0  3  0  0  0  0  0  0
  190.8370  172.3510  140.1790 C   0  0  0  0  0  0  0  0  0  0  0  0
  192.4530  175.4400  146.8950 C   0  0  0  0  0  2  0  0  0  0  0  0
  190.1860  175.6610  145.8230 N   0  0  0  0  0  0  0  0  0  0  0  0
  191.4160  174.8580  145.9070 C   0  0  1  0  0  3  0  0  0  0  0  0
  190.9820  174.0290  143.5950 C   0  0  2  0  0  3  0  0  0  0  0  0
  189.7090  171.9900  139.4440 C   0  0  0  0  0  3  0  0  0  0  0  0
  188.7100  177.2440  146.8870 C   0  0  0  0  0  3  0  0  0  0  0  0
  188.3810  172.6920  140.2130 S   0  0  0  0  0  0  0  0  0  0  0  0
  192.5800  175.9850  143.9270 C   0  0  0  0  0  2  0  0  0  0  0  0
  192.0210  174.6690  144.5120 C   0  0  1  0  0  3  0  0  0  0  0  0
  191.6020  173.6910  142.2350 C   0  0  0  0  0  2  0  0  0  0  0  0
  188.0630  176.3090  144.7360 C   0  0  0  0  0  3  0  0  0  0  0  0
  187.7450  175.1720  142.0970 O   0  0  0  0  0  1  0  0  0  0  0  0
  192.2060  171.9100  139.7930 C   0  0  0  0  0  1  0  0  0  0  0  0
  189.7190  174.9150  143.4600 C   0  0  2  0  0  3  0  0  0  0  0  0
  190.5670  173.1470  141.3030 C   0  0  0  0  0  0  0  0  0  0  0  0
  186.7300  178.1790  145.5640 C   0  0  0  0  0  2  0  0  0  0  0  0
  185.5860  177.5740  144.7710 C   0  0  0  0  0  2  0  0  0  0  0  0
  185.3210  178.4130  143.5380 C   0  0  2  0  0  3  0  0  0  0  0  0
  184.0470  178.0990  143.0310 O   0  0  0  0  0  0  0  0  0  0  0  0
  185.1480  177.5320  142.3640 C   0  0  1  0  0  3  0  0  0  0  0  0
  185.4130  178.3120  141.0900 C   0  0  0  0  0  2  0  0  0  0  0  0
  186.6210  177.8200  140.4510 N   0  0  0  0  0  0  0  0  0  0  0  0
  186.5340  177.1520  139.2520 O   0  0  0  0  0  0  0  0  0  0  0  0
  187.7380  178.1600  140.8890 O   0  0  0  0  0  0  0  0  0  0  0  0
  1 19  1  6  0  0  0
  1 10  1  0  0  0  0
  2  9  1  0  0  0  0
  3  2  1  0  0  0  0
  4 20  1  6  0  0  0
  4 22  1  0  0  0  0
  5  4  1  0  0  0  0
  6 14  1  0  0  0  0
  8 23  1  0  0  0  0
 10 11  1  0  0  0  0
 10  7  1  0  0  0  0
 11  9  1  1  0  0  0
 12 18  1  6  0  0  0
 12 17  1  0  0  0  0
 13  8  2  0  0  0  0
 13 15  1  0  0  0  0
 14  7  2  0  0  0  0
 15  5  1  0  0  0  0
 16  3  1  0  0  0  0
 17 16  1  6  0  0  0
 17 11  1  0  0  0  0
 19  6  2  0  0  0  0
 21  8  1  0  0  0  0
 22 12  1  0  0  0  0
 22  1  1  0  0  0  0
 23  5  2  0  0  0  0
 23 18  1  0  0  0  0
 24  6  1  0  0  0  0
 25 24  1  0  0  0  0
 26 25  1  0  0  0  0
 27 26  1  0  0  0  0
 28 27  1  0  0  0  0
 28 26  1  0  0  0  0
 29 28  1  0  0  0  0
 30 32  2  0  0  0  0
 30 29  1  0  0  0  0
 31 30  2  0  0  0  0
M  END
>  <MODEL>
4

>  <REMARK>
 VINA RESULT:      -7.6      2.196      5.849
  Name = 
  5 active torsions:
  status: ('A' for Active; 'I' for Inactive)
    1  A    between atoms: N_1  and  C_10
    2  A    between atoms: C_2  and  C_19
    3  A    between atoms: C_8  and  C_23
    4  A    between atoms: C_10  and  C_24
    5  A    between atoms: C_19  and  C_23
                            x       y       z     vdW  Elec       q    Type
                         _______ _______ _______ _____ _____    ______ ____

>  <TORSDO>
F 5

$$$$
=
 OpenBabel11052421313D

 32 37  0  0  1  0  0  0  0  0999 V2000
  189.6190  174.8180  144.7220 C   0  0  1  0  0  3  0  0  0  0  0  0
  194.0900  175.7940  145.9670 C   0  0  0  0  0  2  0  0  0  0  0  0
  193.4110  176.7720  145.0160 C   0  0  0  0  0  2  0  0  0  0  0  0
  188.9670  174.3630  142.3130 C   0  0  2  0  0  3  0  0  0  0  0  0
  189.4870  173.9750  140.9610 C   0  0  0  0  0  0  0  0  0  0  0  0
  188.2770  176.3380  146.1610 C   0  0  0  0  0  0  0  0  0  0  0  0
  190.4150  175.5450  146.9970 C   0  0  0  0  0  3  0  0  0  0  0  0
  191.0330  173.3810  139.3280 C   0  0  0  0  0  0  0  0  0  0  0  0
  193.0930  174.7480  146.4790 C   0  0  0  0  0  2  0  0  0  0  0  0
  190.7230  175.0420  145.6820 N   0  0  0  0  0  0  0  0  0  0  0  0
  192.0040  174.3550  145.4550 C   0  0  1  0  0  3  0  0  0  0  0  0
  191.4020  174.1210  143.0460 C   0  0  2  0  0  3  0  0  0  0  0  0
  189.8650  173.1270  138.6120 C   0  0  0  0  0  3  0  0  0  0  0  0
  189.2600  176.1610  147.2390 C   0  0  0  0  0  3  0  0  0  0  0  0
  188.5760  173.4870  139.6400 S   0  0  0  0  0  0  0  0  0  0  0  0
  192.8970  176.0540  143.7640 C   0  0  0  0  0  2  0  0  0  0  0  0
  192.4820  174.5880  144.0180 C   0  0  1  0  0  3  0  0  0  0  0  0
  191.9080  174.2020  141.6010 C   0  0  0  0  0  2  0  0  0  0  0  0
  188.4680  175.7640  144.9730 C   0  0  0  0  0  3  0  0  0  0  0  0
  187.9690  175.3280  142.1590 O   0  0  0  0  0  1  0  0  0  0  0  0
  192.3840  173.1760  138.7350 C   0  0  0  0  0  1  0  0  0  0  0  0
  190.0780  174.8980  143.2480 C   0  0  2  0  0  3  0  0  0  0  0  0
  190.8240  173.8310  140.6400 C   0  0  0  0  0  0  0  0  0  0  0  0
  187.1050  177.2320  146.3690 C   0  0  0  0  0  2  0  0  0  0  0  0
  185.9960  176.8730  145.3980 C   0  0  0  0  0  2  0  0  0  0  0  0
  185.7310  178.0430  144.4730 C   0  0  2  0  0  3  0  0  0  0  0  0
  184.4420  177.9150  143.9240 O   0  0  0  0  0  0  0  0  0  0  0  0
  185.5180  177.5510  143.0950 C   0  0  1  0  0  3  0  0  0  0  0  0
  185.7810  178.6660  142.1010 C   0  0  0  0  0  2  0  0  0  0  0  0
  185.2890  178.2860  140.7890 N   0  0  0  0  0  0  0  0  0  0  0  0
  186.0880  177.5440  139.9510 O   0  0  0  0  0  0  0  0  0  0  0  0
  184.0900  178.4680  140.4980 O   0  0  0  0  0  0  0  0  0  0  0  0
  1 19  1  6  0  0  0
  1 10  1  0  0  0  0
  2  9  1  0  0  0  0
  3  2  1  0  0  0  0
  4 20  1  6  0  0  0
  4 22  1  0  0  0  0
  5  4  1  0  0  0  0
  6 24  1  0  0  0  0
  6 14  1  0  0  0  0
  7 14  2  0  0  0  0
  8 23  1  0  0  0  0
 10  7  1  0  0  0  0
 11 10  1  0  0  0  0
 11  9  1  1  0  0  0
 12 18  1  6  0  0  0
 12 22  1  0  0  0  0
 12 17  1  0  0  0  0
 13  8  2  0  0  0  0
 13 15  1  0  0  0  0
 15  5  1  0  0  0  0
 16  3  1  0  0  0  0
 17 16  1  1  0  0  0
 17 11  1  0  0  0  0
 19  6  2  0  0  0  0
 21  8  1  0  0  0  0
 22  1  1  0  0  0  0
 23  5  2  0  0  0  0
 23 18  1  0  0  0  0
 25 24  1  0  0  0  0
 26 25  1  0  0  0  0
 27 26  1  0  0  0  0
 28 27  1  0  0  0  0
 28 26  1  0  0  0  0
 29 28  1  0  0  0  0
 30 29  1  0  0  0  0
 31 30  2  0  0  0  0
 32 30  2  0  0  0  0
M  END
>  <MODEL>
5

>  <REMARK>
 VINA RESULT:      -7.6      2.336      5.949
  Name = 
  5 active torsions:
  status: ('A' for Active; 'I' for Inactive)
    1  A    between atoms: N_1  and  C_10
    2  A    between atoms: C_2  and  C_19
    3  A    between atoms: C_8  and  C_23
    4  A    between atoms: C_10  and  C_24
    5  A    between atoms: C_19  and  C_23
                            x       y       z     vdW  Elec       q    Type
                         _______ _______ _______ _____ _____    ______ ____

>  <TORSDO>
F 5

$$$$
=
 OpenBabel11052421313D

 32 37  0  0  1  0  0  0  0  0999 V2000
  190.0380  176.5250  143.5270 C   0  0  1  0  0  3  0  0  0  0  0  0
  191.0900  175.5060  148.0390 C   0  0  0  0  0  2  0  0  0  0  0  0
  190.0840  174.5980  147.3450 C   0  0  0  0  0  2  0  0  0  0  0  0
  187.6890  177.1580  142.8090 C   0  0  2  0  0  3  0  0  0  0  0  0
  186.3590  177.6540  143.2900 C   0  0  0  0  0  0  0  0  0  0  0  0
  191.3890  174.8840  142.2380 C   0  0  0  0  0  0  0  0  0  0  0  0
  192.2290  175.6340  144.3900 C   0  0  0  0  0  3  0  0  0  0  0  0
  184.7380  178.3900  144.7870 C   0  0  0  0  0  0  0  0  0  0  0  0
  191.7070  176.4980  147.0460 C   0  0  0  0  0  2  0  0  0  0  0  0
  190.9500  176.2400  144.6590 N   0  0  0  0  0  0  0  0  0  0  0  0
  190.7440  176.9580  145.9270 C   0  0  1  0  0  3  0  0  0  0  0  0
  188.3760  177.3700  145.2600 C   0  0  2  0  0  3  0  0  0  0  0  0
  184.0730  178.6850  143.5980 C   0  0  0  0  0  3  0  0  0  0  0  0
  192.4530  174.9880  143.2470 C   0  0  0  0  0  3  0  0  0  0  0  0
  185.1030  178.2330  142.3390 S   0  0  0  0  0  0  0  0  0  0  0  0
  188.9040  175.4040  146.7910 C   0  0  0  0  0  2  0  0  0  0  0  0
  189.2810  176.8420  146.3690 C   0  0  1  0  0  3  0  0  0  0  0  0
  186.9180  177.4060  145.7280 C   0  0  0  0  0  2  0  0  0  0  0  0
  190.2450  175.5500  142.3930 C   0  0  0  0  0  3  0  0  0  0  0  0
  187.4870  176.1960  141.8160 O   0  0  0  0  0  1  0  0  0  0  0  0
  184.1280  178.6560  146.1200 C   0  0  0  0  0  1  0  0  0  0  0  0
  188.5520  176.5650  143.9490 C   0  0  2  0  0  3  0  0  0  0  0  0
  186.0160  177.8380  144.6160 C   0  0  0  0  0  0  0  0  0  0  0  0
  191.5570  173.9640  141.0810 C   0  0  0  0  0  2  0  0  0  0  0  0
  192.9210  173.3020  141.1330 C   0  0  0  0  0  2  0  0  0  0  0  0
  193.8110  173.8800  140.0520 C   0  0  2  0  0  3  0  0  0  0  0  0
  194.8790  172.9970  139.8110 O   0  0  0  0  0  0  0  0  0  0  0  0
  195.1620  174.1280  140.5970 C   0  0  1  0  0  3  0  0  0  0  0  0
  195.8820  175.1580  139.7470 C   0  0  0  0  0  2  0  0  0  0  0  0
  196.7510  175.9680  140.5820 N   0  0  0  0  0  0  0  0  0  0  0  0
  196.2220  177.0050  141.3120 O   0  0  0  0  0  0  0  0  0  0  0  0
  197.9300  175.6110  140.7800 O   0  0  0  0  0  0  0  0  0  0  0  0
  1 19  1  6  0  0  0
  1 22  1  0  0  0  0
  1 10  1  0  0  0  0
  3  2  1  0  0  0  0
  4 20  1  6  0  0  0
  4  5  1  0  0  0  0
  4 22  1  0  0  0  0
  5 23  2  0  0  0  0
  6 19  2  0  0  0  0
  6 14  1  0  0  0  0
  7 10  1  0  0  0  0
  8 21  1  0  0  0  0
  9  2  1  0  0  0  0
 10 11  1  0  0  0  0
 11 17  1  0  0  0  0
 11  9  1  1  0  0  0
 12 18  1  1  0  0  0
 12 17  1  0  0  0  0
 13  8  2  0  0  0  0
 14  7  2  0  0  0  0
 15  5  1  0  0  0  0
 15 13  1  0  0  0  0
 16  3  1  0  0  0  0
 17 16  1  6  0  0  0
 22 12  1  0  0  0  0
 23  8  1  0  0  0  0
 23 18  1  0  0  0  0
 24 25  1  0  0  0  0
 24  6  1  0  0  0  0
 26 28  1  0  0  0  0
 26 25  1  0  0  0  0
 27 26  1  0  0  0  0
 27 28  1  0  0  0  0
 29 30  1  0  0  0  0
 29 28  1  0  0  0  0
 30 32  2  0  0  0  0
 30 31  2  0  0  0  0
M  END
>  <MODEL>
6

>  <REMARK>
 VINA RESULT:      -7.5      2.801      3.842
  Name = 
  5 active torsions:
  status: ('A' for Active; 'I' for Inactive)
    1  A    between atoms: N_1  and  C_10
    2  A    between atoms: C_2  and  C_19
    3  A    between atoms: C_8  and  C_23
    4  A    between atoms: C_10  and  C_24
    5  A    between atoms: C_19  and  C_23
                            x       y       z     vdW  Elec       q    Type
                         _______ _______ _______ _____ _____    ______ ____

>  <TORSDO>
F 5

$$$$
=
 OpenBabel11052421313D

 32 37  0  0  1  0  0  0  0  0999 V2000
  190.4730  176.8720  143.5980 C   0  0  1  0  0  3  0  0  0  0  0  0
  191.1910  175.6780  148.1320 C   0  0  0  0  0  2  0  0  0  0  0  0
  190.3100  174.7490  147.3070 C   0  0  0  0  0  2  0  0  0  0  0  0
  188.1590  177.4010  142.7020 C   0  0  2  0  0  3  0  0  0  0  0  0
  186.7630  177.7900  143.0850 C   0  0  0  0  0  0  0  0  0  0  0  0
  192.0330  175.3850  142.3590 C   0  0  0  0  0  0  0  0  0  0  0  0
  192.6330  176.0680  144.6110 C   0  0  0  0  0  3  0  0  0  0  0  0
  184.9740  178.3470  144.4630 C   0  0  0  0  0  0  0  0  0  0  0  0
  191.8280  176.7570  147.2470 C   0  0  0  0  0  2  0  0  0  0  0  0
  191.2990  176.5820  144.7920 N   0  0  0  0  0  0  0  0  0  0  0  0
  190.9380  177.2170  146.0700 C   0  0  1  0  0  3  0  0  0  0  0  0
  188.6160  177.5220  145.2130 C   0  0  2  0  0  3  0  0  0  0  0  0
  184.3980  178.6650  143.2350 C   0  0  0  0  0  3  0  0  0  0  0  0
  192.9960  175.4990  143.4640 C   0  0  0  0  0  3  0  0  0  0  0  0
  185.5600  178.3430  142.0540 S   0  0  0  0  0  0  0  0  0  0  0  0
  189.1340  175.5120  146.6890 C   0  0  0  0  0  2  0  0  0  0  0  0
  189.4530  176.9900  146.3720 C   0  0  1  0  0  3  0  0  0  0  0  0
  187.1230  177.4460  145.5490 C   0  0  0  0  0  2  0  0  0  0  0  0
  190.8390  175.9730  142.4420 C   0  0  0  0  0  3  0  0  0  0  0  0
  188.1060  176.4830  141.6510 O   0  0  0  0  0  1  0  0  0  0  0  0
  184.2350  178.5050  145.7470 C   0  0  0  0  0  1  0  0  0  0  0  0
  188.9560  176.8000  143.8860 C   0  0  2  0  0  3  0  0  0  0  0  0
  186.2950  177.8820  144.3820 C   0  0  0  0  0  0  0  0  0  0  0  0
  192.3600  174.5400  141.1790 C   0  0  0  0  0  2  0  0  0  0  0  0
  191.1010  173.8860  140.6390 C   0  0  0  0  0  2  0  0  0  0  0  0
  190.9250  172.5210  141.2720 C   0  0  2  0  0  3  0  0  0  0  0  0
  189.6980  171.9730  140.8540 O   0  0  0  0  0  0  0  0  0  0  0  0
  189.7330  172.5270  142.1460 C   0  0  1  0  0  3  0  0  0  0  0  0
  189.8340  171.4070  143.1650 C   0  0  0  0  0  2  0  0  0  0  0  0
  190.1600  171.9540  144.4700 N   0  0  0  0  0  0  0  0  0  0  0  0
  191.3100  172.6900  144.6330 O   0  0  0  0  0  0  0  0  0  0  0  0
  189.3160  171.9160  145.3880 O   0  0  0  0  0  0  0  0  0  0  0  0
  1 19  1  6  0  0  0
  1 22  1  0  0  0  0
  1 10  1  0  0  0  0
  3  2  1  0  0  0  0
  4 20  1  6  0  0  0
  4  5  1  0  0  0  0
  4 22  1  0  0  0  0
  5 23  2  0  0  0  0
  6 19  2  0  0  0  0
  6 14  1  0  0  0  0
  7 10  1  0  0  0  0
  8 21  1  0  0  0  0
  9  2  1  0  0  0  0
 10 11  1  0  0  0  0
 11 17  1  0  0  0  0
 11  9  1  1  0  0  0
 12 18  1  1  0  0  0
 12 17  1  0  0  0  0
 13  8  2  0  0  0  0
 14  7  2  0  0  0  0
 15  5  1  0  0  0  0
 15 13  1  0  0  0  0
 16  3  1  0  0  0  0
 17 16  1  6  0  0  0
 22 12  1  0  0  0  0
 23  8  1  0  0  0  0
 23 18  1  0  0  0  0
 24  6  1  0  0  0  0
 25 24  1  0  0  0  0
 25 26  1  0  0  0  0
 26 28  1  0  0  0  0
 27 26  1  0  0  0  0
 27 28  1  0  0  0  0
 28 29  1  0  0  0  0
 29 30  1  0  0  0  0
 30 31  2  0  0  0  0
 30 32  2  0  0  0  0
M  END
>  <MODEL>
7

>  <REMARK>
 VINA RESULT:      -7.5      2.317      3.147
  Name = 
  5 active torsions:
  status: ('A' for Active; 'I' for Inactive)
    1  A    between atoms: N_1  and  C_10
    2  A    between atoms: C_2  and  C_19
    3  A    between atoms: C_8  and  C_23
    4  A    between atoms: C_10  and  C_24
    5  A    between atoms: C_19  and  C_23
                            x       y       z     vdW  Elec       q    Type
                         _______ _______ _______ _____ _____    ______ ____

>  <TORSDO>
F 5

$$$$
=
 OpenBabel11052421313D

 32 37  0  0  1  0  0  0  0  0999 V2000
  187.7850  175.8390  144.3560 C   0  0  1  0  0  3  0  0  0  0  0  0
  191.3290  175.6030  147.4990 C   0  0  0  0  0  2  0  0  0  0  0  0
  191.5070  176.5660  146.3320 C   0  0  0  0  0  2  0  0  0  0  0  0
  188.1080  175.2040  141.9220 C   0  0  2  0  0  3  0  0  0  0  0  0
  188.9830  174.4550  140.9630 C   0  0  0  0  0  0  0  0  0  0  0  0
  186.5800  177.9150  145.0040 C   0  0  0  0  0  0  0  0  0  0  0  0
  187.7330  176.6620  146.7350 C   0  0  0  0  0  3  0  0  0  0  0  0
  190.7640  173.1520  140.2260 C   0  0  0  0  0  0  0  0  0  0  0  0
  189.9140  175.0130  147.5100 C   0  0  0  0  0  2  0  0  0  0  0  0
  188.3760  175.8750  145.7130 N   0  0  0  0  0  0  0  0  0  0  0  0
  189.3040  174.8020  146.1050 C   0  0  1  0  0  3  0  0  0  0  0  0
  189.7460  174.3590  143.6910 C   0  0  2  0  0  3  0  0  0  0  0  0
  190.0050  173.1480  139.0570 C   0  0  0  0  0  3  0  0  0  0  0  0
  186.8800  177.6310  146.4150 C   0  0  0  0  0  3  0  0  0  0  0  0
  188.6150  174.0510  139.3760 S   0  0  0  0  0  0  0  0  0  0  0  0
  191.3610  175.8380  144.9920 C   0  0  0  0  0  2  0  0  0  0  0  0
  190.3960  174.6330  145.0440 C   0  0  1  0  0  3  0  0  0  0  0  0
  190.8120  174.0380  142.6370 C   0  0  0  0  0  2  0  0  0  0  0  0
  187.0460  177.1180  144.0420 C   0  0  0  0  0  3  0  0  0  0  0  0
  187.6760  176.3860  141.3170 O   0  0  0  0  0  1  0  0  0  0  0  0
  192.0740  172.4480  140.3190 C   0  0  0  0  0  1  0  0  0  0  0  0
  188.8240  175.5250  143.2560 C   0  0  2  0  0  3  0  0  0  0  0  0
  190.1870  173.8580  141.2910 C   0  0  0  0  0  0  0  0  0  0  0  0
  185.8230  179.1440  144.6430 C   0  0  0  0  0  2  0  0  0  0  0  0
  185.5040  179.1440  143.1590 C   0  0  0  0  0  2  0  0  0  0  0  0
  184.3560  178.1950  142.8850 C   0  0  2  0  0  3  0  0  0  0  0  0
  184.6300  177.4660  141.7130 O   0  0  0  0  0  0  0  0  0  0  0  0
  183.7250  178.5360  141.5920 C   0  0  1  0  0  3  0  0  0  0  0  0
  182.3100  177.9900  141.5470 C   0  0  0  0  0  2  0  0  0  0  0  0
  181.3560  179.0820  141.6370 N   0  0  0  0  0  0  0  0  0  0  0  0
  180.7170  179.5220  140.5030 O   0  0  0  0  0  0  0  0  0  0  0  0
  180.9820  179.4890  142.7550 O   0  0  0  0  0  0  0  0  0  0  0  0
  1 19  1  6  0  0  0
  1 10  1  0  0  0  0
  2  9  1  0  0  0  0
  3  2  1  0  0  0  0
  4 20  1  6  0  0  0
  4 22  1  0  0  0  0
  5 23  2  0  0  0  0
  5  4  1  0  0  0  0
  6 14  1  0  0  0  0
  8 21  1  0  0  0  0
  8 23  1  0  0  0  0
 10 11  1  0  0  0  0
 10  7  1  0  0  0  0
 11  9  1  1  0  0  0
 12 18  1  6  0  0  0
 12 17  1  0  0  0  0
 13 15  1  0  0  0  0
 13  8  2  0  0  0  0
 14  7  2  0  0  0  0
 15  5  1  0  0  0  0
 16  3  1  0  0  0  0
 17 16  1  6  0  0  0
 17 11  1  0  0  0  0
 19  6  2  0  0  0  0
 22 12  1  0  0  0  0
 22  1  1  0  0  0  0
 23 18  1  0  0  0  0
 24  6  1  0  0  0  0
 25 24  1  0  0  0  0
 26 25  1  0  0  0  0
 27 26  1  0  0  0  0
 28 27  1  0  0  0  0
 28 26  1  0  0  0  0
 29 28  1  0  0  0  0
 29 30  1  0  0  0  0
 30 32  2  0  0  0  0
 31 30  2  0  0  0  0
M  END
>  <MODEL>
8

>  <REMARK>
 VINA RESULT:      -7.5      3.052      6.342
  Name = 
  5 active torsions:
  status: ('A' for Active; 'I' for Inactive)
    1  A    between atoms: N_1  and  C_10
    2  A    between atoms: C_2  and  C_19
    3  A    between atoms: C_8  and  C_23
    4  A    between atoms: C_10  and  C_24
    5  A    between atoms: C_19  and  C_23
                            x       y       z     vdW  Elec       q    Type
                         _______ _______ _______ _____ _____    ______ ____

>  <TORSDO>
F 5

$$$$
=
 OpenBabel11052421313D

 32 37  0  0  1  0  0  0  0  0999 V2000
  189.3940  174.6060  144.6340 C   0  0  1  0  0  3  0  0  0  0  0  0
  190.0560  172.3500  140.5150 C   0  0  0  0  0  2  0  0  0  0  0  0
  190.5880  173.7730  140.6130 C   0  0  0  0  0  2  0  0  0  0  0  0
  188.0040  176.7220  144.7940 C   0  0  2  0  0  3  0  0  0  0  0  0
  186.9580  177.5490  144.1090 C   0  0  0  0  0  0  0  0  0  0  0  0
  191.6080  174.4230  145.7510 C   0  0  0  0  0  0  0  0  0  0  0  0
  190.9350  172.6580  144.2250 C   0  0  0  0  0  3  0  0  0  0  0  0
  185.4290  178.1790  142.4740 C   0  0  0  0  0  0  0  0  0  0  0  0
  189.5480  171.8610  141.8760 C   0  0  0  0  0  2  0  0  0  0  0  0
  189.8420  173.4830  143.7780 N   0  0  0  0  0  0  0  0  0  0  0  0
  188.9200  172.9680  142.7530 C   0  0  1  0  0  3  0  0  0  0  0  0
  187.7140  175.1510  142.8010 C   0  0  2  0  0  3  0  0  0  0  0  0
  185.0780  179.1040  143.4560 C   0  0  0  0  0  3  0  0  0  0  0  0
  191.7800  173.0890  145.1580 C   0  0  0  0  0  3  0  0  0  0  0  0
  186.0810  178.8120  144.7810 S   0  0  0  0  0  0  0  0  0  0  0  0
  189.4760  174.7510  141.0050 C   0  0  0  0  0  2  0  0  0  0  0  0
  188.3840  174.1200  141.8970 C   0  0  1  0  0  3  0  0  0  0  0  0
  187.0380  176.2410  141.9630 C   0  0  0  0  0  2  0  0  0  0  0  0
  190.5300  175.1530  145.4650 C   0  0  0  0  0  3  0  0  0  0  0  0
  188.9450  177.5700  145.3820 O   0  0  0  0  0  1  0  0  0  0  0  0
  184.7480  178.1370  141.1490 C   0  0  0  0  0  1  0  0  0  0  0  0
  188.7100  175.7360  143.8320 C   0  0  2  0  0  3  0  0  0  0  0  0
  186.4580  177.3010  142.8440 C   0  0  0  0  0  0  0  0  0  0  0  0
  192.6810  174.9950  146.6070 C   0  0  0  0  0  2  0  0  0  0  0  0
  193.1190  176.3430  146.0670 C   0  0  0  0  0  2  0  0  0  0  0  0
  194.6010  176.3110  145.7540 C   0  0  2  0  0  3  0  0  0  0  0  0
  195.0380  177.6140  145.4560 O   0  0  0  0  0  0  0  0  0  0  0  0
  194.8270  176.7550  144.3630 C   0  0  1  0  0  3  0  0  0  0  0  0
  196.1650  176.2410  143.8660 C   0  0  0  0  0  2  0  0  0  0  0  0
  196.0850  175.9430  142.4480 N   0  0  0  0  0  0  0  0  0  0  0  0
  196.1030  176.9700  141.5340 O   0  0  0  0  0  0  0  0  0  0  0  0
  196.1870  174.7640  142.0540 O   0  0  0  0  0  0  0  0  0  0  0  0
  1 19  1  6  0  0  0
  2  3  1  0  0  0  0
  2  9  1  0  0  0  0
  3 16  1  0  0  0  0
  4 20  1  6  0  0  0
  5 15  1  0  0  0  0
  5  4  1  0  0  0  0
  6 24  1  0  0  0  0
  7 14  2  0  0  0  0
  8 23  1  0  0  0  0
  8 13  2  0  0  0  0
 10  7  1  0  0  0  0
 10  1  1  0  0  0  0
 11  9  1  6  0  0  0
 11 10  1  0  0  0  0
 12 18  1  6  0  0  0
 12 22  1  0  0  0  0
 13 15  1  0  0  0  0
 14  6  1  0  0  0  0
 17 16  1  1  0  0  0
 17 11  1  0  0  0  0
 17 12  1  0  0  0  0
 18 23  1  0  0  0  0
 19  6  2  0  0  0  0
 21  8  1  0  0  0  0
 22  1  1  0  0  0  0
 22  4  1  0  0  0  0
 23  5  2  0  0  0  0
 25 24  1  0  0  0  0
 26 25  1  0  0  0  0
 27 26  1  0  0  0  0
 28 27  1  0  0  0  0
 28 26  1  0  0  0  0
 29 28  1  0  0  0  0
 30 29  1  0  0  0  0
 31 30  2  0  0  0  0
 32 30  2  0  0  0  0
M  END
>  <MODEL>
9

>  <REMARK>
 VINA RESULT:      -7.0      3.371      5.861
  Name = 
  5 active torsions:
  status: ('A' for Active; 'I' for Inactive)
    1  A    between atoms: N_1  and  C_10
    2  A    between atoms: C_2  and  C_19
    3  A    between atoms: C_8  and  C_23
    4  A    between atoms: C_10  and  C_24
    5  A    between atoms: C_19  and  C_23
                            x       y       z     vdW  Elec       q    Type
                         _______ _______ _______ _____ _____    ______ ____

>  <TORSDO>
F 5

$$$$
