=
 OpenBabel11052418373D

 34 38  0  0  1  0  0  0  0  0999 V2000
  189.6500  174.9550  144.2080 C   0  0  0  0  0  0  0  0  0  0  0  0
  190.0150  175.7570  146.4430 C   0  0  0  0  0  0  0  0  0  0  0  0
  191.7760  174.4050  145.5570 C   0  0  0  0  0  2  0  0  0  0  0  0
  191.1330  175.7960  147.8190 S   0  0  0  0  0  0  0  0  0  0  0  0
  188.4270  175.6670  144.1820 C   0  0  0  0  0  0  0  0  0  0  0  0
  188.8570  176.4600  146.4040 N   0  0  0  0  0  0  0  0  0  0  0  0
  188.0450  176.4450  145.3120 C   0  0  0  0  0  0  0  0  0  0  0  0
  192.4400  175.1580  146.7120 C   0  0  2  0  0  3  0  0  0  0  0  0
  190.4400  175.0280  145.3650 C   0  0  0  0  0  0  0  0  0  0  0  0
  190.7860  172.9530  143.3360 N   0  0  0  0  0  2  0  0  0  0  0  0
  190.9970  174.9430  141.9880 C   0  0  1  0  0  3  0  0  0  0  0  0
  191.9210  172.8420  142.5060 C   0  0  0  0  0  0  0  0  0  0  0  0
  192.1110  173.9820  141.5850 C   0  0  0  0  0  2  0  0  0  0  0  0
  190.0980  174.1800  142.9880 C   0  0  2  0  0  3  0  0  0  0  0  0
  192.7030  171.8590  142.5630 O   0  0  0  0  0  0  0  0  0  0  0  0
  191.5630  176.0870  142.5500 O   0  0  0  0  0  1  0  0  0  0  0  0
  185.5230  179.2510  144.8060 C   0  0  0  0  0  0  0  0  0  0  0  0
  184.4620  178.7980  145.5860 C   0  0  0  0  0  3  0  0  0  0  0  0
  186.8020  177.2560  145.3670 C   0  0  0  0  0  0  0  0  0  0  0  0
  184.5650  177.5820  146.2640 C   0  0  0  0  0  3  0  0  0  0  0  0
  186.6890  178.4870  144.7020 C   0  0  0  0  0  3  0  0  0  0  0  0
  185.7300  176.8190  146.1590 C   0  0  0  0  0  3  0  0  0  0  0  0
  185.4260  180.4630  144.1390 O   0  0  0  0  0  1  0  0  0  0  0  0
  187.8380  176.6120  141.9780 C   0  0  0  0  0  1  0  0  0  0  0  0
  187.5270  175.5320  142.9900 C   0  0  0  0  0  2  0  0  0  0  0  0
  193.1680  176.2330  146.2040 O   0  0  0  0  0  0  0  0  0  0  0  0
  194.4990  175.9550  146.5220 C   0  0  0  0  0  2  0  0  0  0  0  0
  196.6190  173.7420  145.8880 O   0  0  0  0  0  1  0  0  0  0  0  0
  195.2920  175.6410  145.2610 C   0  0  1  0  0  3  0  0  0  0  0  0
  195.5240  174.1300  145.1130 C   0  0  1  0  0  3  0  0  0  0  0  0
  196.3560  174.7930  142.8180 C   0  0  0  0  0  2  0  0  0  0  0  0
  195.4560  176.0370  142.7690 C   0  0  0  0  0  2  0  0  0  0  0  0
  194.6030  176.2270  144.0290 C   0  0  0  0  0  2  0  0  0  0  0  0
  195.7330  173.6830  143.6600 C   0  0  0  0  0  2  0  0  0  0  0  0
  1  9  1  0  0  0  0
  2  4  1  0  0  0  0
  3  8  1  0  0  0  0
  5  1  2  0  0  0  0
  5  7  1  0  0  0  0
  6  2  1  0  0  0  0
  7 19  1  0  0  0  0
  7  6  2  0  0  0  0
  8 26  1  6  0  0  0
  8  4  1  0  0  0  0
  9  3  1  0  0  0  0
  9  2  2  0  0  0  0
 11 16  1  1  0  0  0
 11 14  1  0  0  0  0
 12 15  2  0  0  0  0
 12 10  1  0  0  0  0
 13 11  1  0  0  0  0
 13 12  1  0  0  0  0
 14 10  1  0  0  0  0
 14  1  1  1  0  0  0
 17 18  1  0  0  0  0
 18 20  2  0  0  0  0
 19 22  2  0  0  0  0
 21 17  2  0  0  0  0
 21 19  1  0  0  0  0
 22 20  1  0  0  0  0
 23 17  1  0  0  0  0
 24 25  1  0  0  0  0
 25  5  1  0  0  0  0
 26 27  1  0  0  0  0
 29 27  1  1  0  0  0
 30 29  1  0  0  0  0
 30 28  1  1  0  0  0
 31 34  1  0  0  0  0
 32 31  1  0  0  0  0
 32 33  1  0  0  0  0
 33 29  1  0  0  0  0
 34 30  1  0  0  0  0
M  END
>  <MODEL>
1

>  <REMARK>
 VINA RESULT:      -7.9      0.000      0.000
  Name = 
  6 active torsions:
  status: ('A' for Active; 'I' for Inactive)
    1  A    between atoms: C_3  and  C_13
    2  A    between atoms: C_3  and  O_17
    3  A    between atoms: C_4  and  C_15
    4  A    between atoms: C_12  and  C_28
    5  A    between atoms: O_17  and  C_29
    6  A    between atoms: C_21  and  C_32
                            x       y       z     vdW  Elec       q    Type
                         _______ _______ _______ _____ _____    ______ ____

>  <TORSDO>
F 6

$$$$
=
 OpenBabel11052418373D

 34 38  0  0  1  0  0  0  0  0999 V2000
  189.6010  174.8940  144.0650 C   0  0  0  0  0  0  0  0  0  0  0  0
  190.0330  175.6550  146.3020 C   0  0  0  0  0  0  0  0  0  0  0  0
  191.7510  174.2920  145.3510 C   0  0  0  0  0  2  0  0  0  0  0  0
  191.1850  175.6570  147.6500 S   0  0  0  0  0  0  0  0  0  0  0  0
  188.3870  175.6230  144.0810 C   0  0  0  0  0  0  0  0  0  0  0  0
  188.8850  176.3750  146.3030 N   0  0  0  0  0  0  0  0  0  0  0  0
  188.0460  176.3890  145.2320 C   0  0  0  0  0  0  0  0  0  0  0  0
  192.4550  175.0170  146.5010 C   0  0  2  0  0  3  0  0  0  0  0  0
  190.4200  174.9370  145.2030 C   0  0  0  0  0  0  0  0  0  0  0  0
  190.5880  172.8410  143.1330 N   0  0  0  0  0  2  0  0  0  0  0  0
  190.9810  174.8560  141.8660 C   0  0  1  0  0  3  0  0  0  0  0  0
  191.7250  172.6690  142.3160 C   0  0  0  0  0  0  0  0  0  0  0  0
  192.0210  173.8230  141.4430 C   0  0  0  0  0  2  0  0  0  0  0  0
  190.0060  174.1310  142.8230 C   0  0  2  0  0  3  0  0  0  0  0  0
  192.4230  171.6250  142.3460 O   0  0  0  0  0  0  0  0  0  0  0  0
  191.6270  175.9290  142.4810 O   0  0  0  0  0  1  0  0  0  0  0  0
  185.5480  179.2310  144.8170 C   0  0  0  0  0  0  0  0  0  0  0  0
  184.5070  178.7900  145.6310 C   0  0  0  0  0  3  0  0  0  0  0  0
  186.8170  177.2170  145.3300 C   0  0  0  0  0  0  0  0  0  0  0  0
  184.6150  177.5710  146.3010 C   0  0  0  0  0  3  0  0  0  0  0  0
  186.6990  178.4520  144.6730 C   0  0  0  0  0  3  0  0  0  0  0  0
  185.7660  176.7930  146.1550 C   0  0  0  0  0  3  0  0  0  0  0  0
  185.4450  180.4470  144.1580 O   0  0  0  0  0  1  0  0  0  0  0  0
  187.7860  176.5830  141.8870 C   0  0  0  0  0  1  0  0  0  0  0  0
  187.4560  175.5190  142.9100 C   0  0  0  0  0  2  0  0  0  0  0  0
  193.1850  176.0890  145.9910 O   0  0  0  0  0  0  0  0  0  0  0  0
  194.4990  175.8670  146.4100 C   0  0  0  0  0  2  0  0  0  0  0  0
  194.9070  176.1530  143.3200 O   0  0  0  0  0  1  0  0  0  0  0  0
  195.2400  175.0010  145.3990 C   0  0  1  0  0  3  0  0  0  0  0  0
  195.8680  175.8580  144.2900 C   0  0  1  0  0  3  0  0  0  0  0  0
  196.9960  173.6800  143.6700 C   0  0  0  0  0  2  0  0  0  0  0  0
  196.9450  173.1570  145.1130 C   0  0  0  0  0  2  0  0  0  0  0  0
  196.2840  174.1300  146.0960 C   0  0  0  0  0  2  0  0  0  0  0  0
  197.0870  175.2030  143.6280 C   0  0  0  0  0  2  0  0  0  0  0  0
  1  5  2  0  0  0  0
  1  9  1  0  0  0  0
  2  6  1  0  0  0  0
  2  4  1  0  0  0  0
  3  8  1  0  0  0  0
  5  7  1  0  0  0  0
  7 19  1  0  0  0  0
  7  6  2  0  0  0  0
  8 26  1  6  0  0  0
  8  4  1  0  0  0  0
  9  3  1  0  0  0  0
  9  2  2  0  0  0  0
 11 16  1  1  0  0  0
 11 14  1  0  0  0  0
 12 15  2  0  0  0  0
 12 10  1  0  0  0  0
 13 11  1  0  0  0  0
 13 12  1  0  0  0  0
 14 10  1  0  0  0  0
 14  1  1  1  0  0  0
 17 18  1  0  0  0  0
 18 20  2  0  0  0  0
 19 22  2  0  0  0  0
 21 17  2  0  0  0  0
 21 19  1  0  0  0  0
 22 20  1  0  0  0  0
 23 17  1  0  0  0  0
 24 25  1  0  0  0  0
 25  5  1  0  0  0  0
 26 27  1  0  0  0  0
 29 33  1  0  0  0  0
 29 27  1  1  0  0  0
 30 28  1  6  0  0  0
 30 29  1  0  0  0  0
 31 32  1  0  0  0  0
 32 33  1  0  0  0  0
 34 31  1  0  0  0  0
 34 30  1  0  0  0  0
M  END
>  <MODEL>
2

>  <REMARK>
 VINA RESULT:      -7.8      0.856      1.266
  Name = 
  6 active torsions:
  status: ('A' for Active; 'I' for Inactive)
    1  A    between atoms: C_3  and  C_13
    2  A    between atoms: C_3  and  O_17
    3  A    between atoms: C_4  and  C_15
    4  A    between atoms: C_12  and  C_28
    5  A    between atoms: O_17  and  C_29
    6  A    between atoms: C_21  and  C_32
                            x       y       z     vdW  Elec       q    Type
                         _______ _______ _______ _____ _____    ______ ____

>  <TORSDO>
F 6

$$$$
=
 OpenBabel11052418373D

 34 38  0  0  1  0  0  0  0  0999 V2000
  191.7500  175.8390  144.1030 C   0  0  0  0  0  0  0  0  0  0  0  0
  191.9130  176.0870  146.4860 C   0  0  0  0  0  0  0  0  0  0  0  0
  190.0900  177.2570  145.4740 C   0  0  0  0  0  2  0  0  0  0  0  0
  191.1870  176.8060  147.9360 S   0  0  0  0  0  0  0  0  0  0  0  0
  192.8680  174.9730  144.1440 C   0  0  0  0  0  0  0  0  0  0  0  0
  192.9650  175.2340  146.5260 N   0  0  0  0  0  0  0  0  0  0  0  0
  193.4670  174.6630  145.3980 C   0  0  0  0  0  0  0  0  0  0  0  0
  189.6910  177.1650  146.9480 C   0  0  2  0  0  3  0  0  0  0  0  0
  191.2810  176.3830  145.3080 C   0  0  0  0  0  0  0  0  0  0  0  0
  190.5380  177.4710  142.7140 N   0  0  0  0  0  2  0  0  0  0  0  0
  189.9160  175.1630  142.3930 C   0  0  1  0  0  3  0  0  0  0  0  0
  189.2460  177.4050  142.1550 C   0  0  0  0  0  0  0  0  0  0  0  0
  188.7870  176.0340  141.8520 C   0  0  0  0  0  2  0  0  0  0  0  0
  191.0630  176.1230  142.7840 C   0  0  2  0  0  3  0  0  0  0  0  0
  188.5490  178.4310  141.9460 O   0  0  0  0  0  0  0  0  0  0  0  0
  189.4450  174.4290  143.4820 O   0  0  0  0  0  1  0  0  0  0  0  0
  195.5450  171.4920  145.7430 C   0  0  0  0  0  0  0  0  0  0  0  0
  196.8160  172.0270  145.9400 C   0  0  0  0  0  3  0  0  0  0  0  0
  194.6180  173.7340  145.5500 C   0  0  0  0  0  0  0  0  0  0  0  0
  196.9940  173.4110  145.9510 C   0  0  0  0  0  3  0  0  0  0  0  0
  194.4520  172.3400  145.5550 C   0  0  0  0  0  3  0  0  0  0  0  0
  195.9000  174.2590  145.7620 C   0  0  0  0  0  3  0  0  0  0  0  0
  195.3660  170.1160  145.7420 O   0  0  0  0  0  1  0  0  0  0  0  0
  194.5660  175.3440  142.3890 C   0  0  0  0  0  1  0  0  0  0  0  0
  193.4380  174.4520  142.8580 C   0  0  0  0  0  2  0  0  0  0  0  0
  188.7780  176.1260  147.1140 O   0  0  0  0  0  0  0  0  0  0  0  0
  187.9080  176.2270  146.0270 C   0  0  0  0  0  2  0  0  0  0  0  0
  186.3070  178.0730  144.0720 O   0  0  0  0  0  1  0  0  0  0  0  0
  186.8680  177.3120  146.2770 C   0  0  1  0  0  3  0  0  0  0  0  0
  185.8190  177.3420  145.1560 C   0  0  1  0  0  3  0  0  0  0  0  0
  184.6330  178.9300  146.7290 C   0  0  0  0  0  2  0  0  0  0  0  0
  185.2690  178.2910  147.9730 C   0  0  0  0  0  2  0  0  0  0  0  0
  186.2200  177.1320  147.6490 C   0  0  0  0  0  2  0  0  0  0  0  0
  184.4670  177.9160  145.6000 C   0  0  0  0  0  2  0  0  0  0  0  0
  1  5  2  0  0  0  0
  1  9  1  0  0  0  0
  2  6  1  0  0  0  0
  2  4  1  0  0  0  0
  3  8  1  0  0  0  0
  5  7  1  0  0  0  0
  7 19  1  0  0  0  0
  7  6  2  0  0  0  0
  8 26  1  6  0  0  0
  8  4  1  0  0  0  0
  9  3  1  0  0  0  0
  9  2  2  0  0  0  0
 10 14  1  0  0  0  0
 11 14  1  0  0  0  0
 11 16  1  1  0  0  0
 12 10  1  0  0  0  0
 13 12  1  0  0  0  0
 13 11  1  0  0  0  0
 14  1  1  1  0  0  0
 15 12  2  0  0  0  0
 17 18  1  0  0  0  0
 18 20  2  0  0  0  0
 19 21  1  0  0  0  0
 19 22  2  0  0  0  0
 21 17  2  0  0  0  0
 22 20  1  0  0  0  0
 23 17  1  0  0  0  0
 24 25  1  0  0  0  0
 25  5  1  0  0  0  0
 27 26  1  0  0  0  0
 29 27  1  6  0  0  0
 29 33  1  0  0  0  0
 30 28  1  6  0  0  0
 30 34  1  0  0  0  0
 30 29  1  0  0  0  0
 31 32  1  0  0  0  0
 33 32  1  0  0  0  0
 34 31  1  0  0  0  0
M  END
>  <MODEL>
3

>  <REMARK>
 VINA RESULT:      -7.8      2.227      8.156
  Name = 
  6 active torsions:
  status: ('A' for Active; 'I' for Inactive)
    1  A    between atoms: C_3  and  C_13
    2  A    between atoms: C_3  and  O_17
    3  A    between atoms: C_4  and  C_15
    4  A    between atoms: C_12  and  C_28
    5  A    between atoms: O_17  and  C_29
    6  A    between atoms: C_21  and  C_32
                            x       y       z     vdW  Elec       q    Type
                         _______ _______ _______ _____ _____    ______ ____

>  <TORSDO>
F 6

$$$$
=
 OpenBabel11052418373D

 34 38  0  0  1  0  0  0  0  0999 V2000
  191.4970  176.0840  144.0790 C   0  0  0  0  0  0  0  0  0  0  0  0
  191.6930  176.4030  146.4520 C   0  0  0  0  0  0  0  0  0  0  0  0
  189.8540  177.5380  145.4300 C   0  0  0  0  0  2  0  0  0  0  0  0
  190.9860  177.1640  147.8890 S   0  0  0  0  0  0  0  0  0  0  0  0
  192.6180  175.2210  144.1310 C   0  0  0  0  0  0  0  0  0  0  0  0
  192.7470  175.5540  146.5030 N   0  0  0  0  0  0  0  0  0  0  0  0
  193.2350  174.9490  145.3860 C   0  0  0  0  0  0  0  0  0  0  0  0
  189.4750  177.4910  146.9120 C   0  0  2  0  0  3  0  0  0  0  0  0
  191.0440  176.6620  145.2750 C   0  0  0  0  0  0  0  0  0  0  0  0
  190.1400  177.6190  142.7160 N   0  0  0  0  0  2  0  0  0  0  0  0
  189.7440  175.2680  142.3470 C   0  0  1  0  0  3  0  0  0  0  0  0
  188.8620  177.4410  142.1470 C   0  0  0  0  0  0  0  0  0  0  0  0
  188.5390  176.0380  141.8160 C   0  0  0  0  0  2  0  0  0  0  0  0
  190.7920  176.3260  142.7630 C   0  0  2  0  0  3  0  0  0  0  0  0
  188.0710  178.3990  141.9550 O   0  0  0  0  0  0  0  0  0  0  0  0
  189.3410  174.4710  143.4180 O   0  0  0  0  0  1  0  0  0  0  0  0
  195.3280  171.7920  145.7630 C   0  0  0  0  0  0  0  0  0  0  0  0
  196.5950  172.3360  145.9620 C   0  0  0  0  0  3  0  0  0  0  0  0
  194.3900  174.0280  145.5490 C   0  0  0  0  0  0  0  0  0  0  0  0
  196.7660  173.7210  145.9630 C   0  0  0  0  0  3  0  0  0  0  0  0
  194.2310  172.6330  145.5640 C   0  0  0  0  0  3  0  0  0  0  0  0
  195.6690  174.5610  145.7630 C   0  0  0  0  0  3  0  0  0  0  0  0
  195.1550  170.4160  145.7710 O   0  0  0  0  0  1  0  0  0  0  0  0
  194.2780  175.5520  142.3330 C   0  0  0  0  0  1  0  0  0  0  0  0
  193.1720  174.6630  142.8540 C   0  0  0  0  0  2  0  0  0  0  0  0
  188.5670  176.4550  147.1220 O   0  0  0  0  0  0  0  0  0  0  0  0
  187.8790  176.3220  145.9140 C   0  0  0  0  0  2  0  0  0  0  0  0
  185.9410  176.5960  148.3560 O   0  0  0  0  0  1  0  0  0  0  0  0
  186.4750  176.8990  146.0360 C   0  0  1  0  0  3  0  0  0  0  0  0
  186.2660  177.5650  147.4040 C   0  0  1  0  0  3  0  0  0  0  0  0
  184.1290  178.3910  146.3330 C   0  0  0  0  0  2  0  0  0  0  0  0
  184.7340  178.3560  144.9220 C   0  0  0  0  0  2  0  0  0  0  0  0
  186.1880  177.8690  144.8900 C   0  0  0  0  0  2  0  0  0  0  0  0
  185.1930  178.6610  147.3940 C   0  0  0  0  0  2  0  0  0  0  0  0
  1  5  2  0  0  0  0
  1  9  1  0  0  0  0
  2  6  1  0  0  0  0
  2  4  1  0  0  0  0
  3  8  1  0  0  0  0
  5  7  1  0  0  0  0
  7 19  1  0  0  0  0
  7  6  2  0  0  0  0
  8 26  1  6  0  0  0
  8  4  1  0  0  0  0
  9  3  1  0  0  0  0
  9  2  2  0  0  0  0
 10 14  1  0  0  0  0
 11 14  1  0  0  0  0
 11 16  1  1  0  0  0
 12 10  1  0  0  0  0
 13 12  1  0  0  0  0
 13 11  1  0  0  0  0
 14  1  1  1  0  0  0
 15 12  2  0  0  0  0
 17 23  1  0  0  0  0
 17 18  1  0  0  0  0
 18 20  2  0  0  0  0
 19 21  1  0  0  0  0
 19 22  2  0  0  0  0
 21 17  2  0  0  0  0
 22 20  1  0  0  0  0
 24 25  1  0  0  0  0
 25  5  1  0  0  0  0
 27 26  1  0  0  0  0
 29 27  1  1  0  0  0
 29 30  1  0  0  0  0
 30 28  1  1  0  0  0
 31 34  1  0  0  0  0
 32 31  1  0  0  0  0
 33 32  1  0  0  0  0
 33 29  1  0  0  0  0
 34 30  1  0  0  0  0
M  END
>  <MODEL>
4

>  <REMARK>
 VINA RESULT:      -7.8      2.362      8.041
  Name = 
  6 active torsions:
  status: ('A' for Active; 'I' for Inactive)
    1  A    between atoms: C_3  and  C_13
    2  A    between atoms: C_3  and  O_17
    3  A    between atoms: C_4  and  C_15
    4  A    between atoms: C_12  and  C_28
    5  A    between atoms: O_17  and  C_29
    6  A    between atoms: C_21  and  C_32
                            x       y       z     vdW  Elec       q    Type
                         _______ _______ _______ _____ _____    ______ ____

>  <TORSDO>
F 6

$$$$
=
 OpenBabel11052418373D

 34 38  0  0  1  0  0  0  0  0999 V2000
  191.3860  175.0750  145.6200 C   0  0  0  0  0  0  0  0  0  0  0  0
  191.5530  173.6580  143.6880 C   0  0  0  0  0  0  0  0  0  0  0  0
  189.3280  174.3090  144.2720 C   0  0  0  0  0  2  0  0  0  0  0  0
  190.6610  172.8390  142.3920 S   0  0  0  0  0  0  0  0  0  0  0  0
  192.7980  175.0610  145.7180 C   0  0  0  0  0  0  0  0  0  0  0  0
  192.9050  173.6700  143.7670 N   0  0  0  0  0  0  0  0  0  0  0  0
  193.5600  174.3480  144.7490 C   0  0  0  0  0  0  0  0  0  0  0  0
  189.2080  173.8670  142.8110 C   0  0  2  0  0  3  0  0  0  0  0  0
  190.7820  174.3620  144.5740 C   0  0  0  0  0  0  0  0  0  0  0  0
  189.3210  175.2380  146.9490 N   0  0  0  0  0  2  0  0  0  0  0  0
  190.2340  177.3340  146.1790 C   0  0  1  0  0  3  0  0  0  0  0  0
  188.3060  176.2170  146.9330 C   0  0  0  0  0  0  0  0  0  0  0  0
  188.7700  177.5630  146.5400 C   0  0  0  0  0  2  0  0  0  0  0  0
  190.5700  175.8850  146.6030 C   0  0  2  0  0  3  0  0  0  0  0  0
  187.1110  175.9520  147.2210 O   0  0  0  0  0  0  0  0  0  0  0  0
  190.4050  177.5390  144.8100 O   0  0  0  0  0  1  0  0  0  0  0  0
  197.2020  175.0250  143.8720 C   0  0  0  0  0  0  0  0  0  0  0  0
  197.8490  174.1130  144.7020 C   0  0  0  0  0  3  0  0  0  0  0  0
  195.0450  174.3050  144.7430 C   0  0  0  0  0  0  0  0  0  0  0  0
  197.1030  173.2910  145.5480 C   0  0  0  0  0  3  0  0  0  0  0  0
  195.8080  175.1160  143.8870 C   0  0  0  0  0  3  0  0  0  0  0  0
  195.7100  173.3830  145.5640 C   0  0  0  0  0  3  0  0  0  0  0  0
  197.9410  175.8360  143.0240 O   0  0  0  0  0  1  0  0  0  0  0  0
  194.0650  177.0570  146.4340 C   0  0  0  0  0  1  0  0  0  0  0  0
  193.4580  175.7440  146.8780 C   0  0  0  0  0  2  0  0  0  0  0  0
  189.1960  174.9920  141.9890 O   0  0  0  0  0  0  0  0  0  0  0  0
  187.8450  175.2890  141.7970 C   0  0  0  0  0  2  0  0  0  0  0  0
  188.6680  178.3040  141.6450 O   0  0  0  0  0  1  0  0  0  0  0  0
  187.4410  176.4950  142.6360 C   0  0  1  0  0  3  0  0  0  0  0  0
  187.3850  177.7700  141.7810 C   0  0  1  0  0  3  0  0  0  0  0  0
  186.3220  178.7460  143.8580 C   0  0  0  0  0  2  0  0  0  0  0  0
  185.7620  177.3870  144.3010 C   0  0  0  0  0  2  0  0  0  0  0  0
  186.1150  176.2380  143.3490 C   0  0  0  0  0  2  0  0  0  0  0  0
  186.4360  178.8380  142.3390 C   0  0  0  0  0  2  0  0  0  0  0  0
  1  5  1  0  0  0  0
  2  6  2  0  0  0  0
  2  9  1  0  0  0  0
  3  9  1  0  0  0  0
  4  8  1  0  0  0  0
  4  2  1  0  0  0  0
  5 25  1  0  0  0  0
  6  7  1  0  0  0  0
  7  5  2  0  0  0  0
  8 26  1  6  0  0  0
  8  3  1  0  0  0  0
  9  1  2  0  0  0  0
 11 16  1  6  0  0  0
 11 13  1  0  0  0  0
 11 14  1  0  0  0  0
 12 10  1  0  0  0  0
 12 15  2  0  0  0  0
 13 12  1  0  0  0  0
 14  1  1  6  0  0  0
 14 10  1  0  0  0  0
 17 21  2  0  0  0  0
 17 18  1  0  0  0  0
 18 20  2  0  0  0  0
 19  7  1  0  0  0  0
 19 22  2  0  0  0  0
 20 22  1  0  0  0  0
 21 19  1  0  0  0  0
 23 17  1  0  0  0  0
 24 25  1  0  0  0  0
 27 26  1  0  0  0  0
 29 27  1  6  0  0  0
 29 33  1  0  0  0  0
 30 28  1  1  0  0  0
 30 34  1  0  0  0  0
 30 29  1  0  0  0  0
 31 32  1  0  0  0  0
 33 32  1  0  0  0  0
 34 31  1  0  0  0  0
M  END
>  <MODEL>
5

>  <REMARK>
 VINA RESULT:      -7.7      2.283      8.200
  Name = 
  6 active torsions:
  status: ('A' for Active; 'I' for Inactive)
    1  A    between atoms: C_3  and  C_13
    2  A    between atoms: C_3  and  O_17
    3  A    between atoms: C_4  and  C_15
    4  A    between atoms: C_12  and  C_28
    5  A    between atoms: O_17  and  C_29
    6  A    between atoms: C_21  and  C_32
                            x       y       z     vdW  Elec       q    Type
                         _______ _______ _______ _____ _____    ______ ____

>  <TORSDO>
F 6

$$$$
=
 OpenBabel11052418373D

 34 38  0  0  1  0  0  0  0  0999 V2000
  191.6300  175.3010  144.4620 C   0  0  0  0  0  0  0  0  0  0  0  0
  191.1570  174.3620  142.3020 C   0  0  0  0  0  0  0  0  0  0  0  0
  189.2670  174.5530  143.7530 C   0  0  0  0  0  2  0  0  0  0  0  0
  189.9000  173.7180  141.2290 S   0  0  0  0  0  0  0  0  0  0  0  0
  192.9780  175.4660  144.0640 C   0  0  0  0  0  0  0  0  0  0  0  0
  192.4420  174.5480  141.9140 N   0  0  0  0  0  0  0  0  0  0  0  0
  193.3710  175.0890  142.7480 C   0  0  0  0  0  0  0  0  0  0  0  0
  188.6460  174.4180  142.3610 C   0  0  2  0  0  3  0  0  0  0  0  0
  190.7260  174.7460  143.5430 C   0  0  0  0  0  0  0  0  0  0  0  0
  190.2290  174.8540  146.4360 N   0  0  0  0  0  2  0  0  0  0  0  0
  190.5840  177.1830  145.9130 C   0  0  1  0  0  3  0  0  0  0  0  0
  189.2030  175.6290  147.0160 C   0  0  0  0  0  0  0  0  0  0  0  0
  189.3570  177.0840  146.8140 C   0  0  0  0  0  2  0  0  0  0  0  0
  191.1860  175.7600  145.8330 C   0  0  2  0  0  3  0  0  0  0  0  0
  188.2400  175.1130  147.6380 O   0  0  0  0  0  0  0  0  0  0  0  0
  190.1950  177.6650  144.6630 O   0  0  0  0  0  1  0  0  0  0  0  0
  197.0030  174.4270  141.8190 C   0  0  0  0  0  0  0  0  0  0  0  0
  197.3770  175.6690  141.3090 C   0  0  0  0  0  3  0  0  0  0  0  0
  194.7510  175.2590  142.2240 C   0  0  0  0  0  0  0  0  0  0  0  0
  196.4480  176.7090  141.2600 C   0  0  0  0  0  3  0  0  0  0  0  0
  195.6990  174.2250  142.2800 C   0  0  0  0  0  3  0  0  0  0  0  0
  195.1450  176.5070  141.7200 C   0  0  0  0  0  3  0  0  0  0  0  0
  197.9270  173.3950  141.8770 O   0  0  0  0  0  1  0  0  0  0  0  0
  194.6510  174.8160  145.7600 C   0  0  0  0  0  1  0  0  0  0  0  0
  193.9770  175.9750  145.0600 C   0  0  0  0  0  2  0  0  0  0  0  0
  188.2710  175.6780  141.9000 O   0  0  0  0  0  0  0  0  0  0  0  0
  186.9060  175.7770  142.1790 C   0  0  0  0  0  2  0  0  0  0  0  0
  185.4440  178.2830  141.0070 O   0  0  0  0  0  1  0  0  0  0  0  0
  186.5850  177.1390  142.7810 C   0  0  1  0  0  3  0  0  0  0  0  0
  185.2480  177.6780  142.2500 C   0  0  1  0  0  3  0  0  0  0  0  0
  185.5850  179.4180  144.0540 C   0  0  0  0  0  2  0  0  0  0  0  0
  186.4090  178.4610  144.9280 C   0  0  0  0  0  2  0  0  0  0  0  0
  186.5970  177.0720  144.3080 C   0  0  0  0  0  2  0  0  0  0  0  0
  184.5650  178.6660  143.2050 C   0  0  0  0  0  2  0  0  0  0  0  0
  2  9  1  0  0  0  0
  4  2  1  0  0  0  0
  4  8  1  0  0  0  0
  5  1  1  0  0  0  0
  5 25  1  0  0  0  0
  6  2  2  0  0  0  0
  6  7  1  0  0  0  0
  7  5  2  0  0  0  0
  8 26  1  6  0  0  0
  8  3  1  0  0  0  0
  9  3  1  0  0  0  0
  9  1  2  0  0  0  0
 10 12  1  0  0  0  0
 11 16  1  6  0  0  0
 11 13  1  0  0  0  0
 12 15  2  0  0  0  0
 13 12  1  0  0  0  0
 14  1  1  6  0  0  0
 14 11  1  0  0  0  0
 14 10  1  0  0  0  0
 17 23  1  0  0  0  0
 17 21  1  0  0  0  0
 18 17  2  0  0  0  0
 19 21  2  0  0  0  0
 19  7  1  0  0  0  0
 20 18  1  0  0  0  0
 20 22  2  0  0  0  0
 22 19  1  0  0  0  0
 25 24  1  0  0  0  0
 26 27  1  0  0  0  0
 29 27  1  6  0  0  0
 29 33  1  0  0  0  0
 30 28  1  6  0  0  0
 30 29  1  0  0  0  0
 30 34  1  0  0  0  0
 31 32  1  0  0  0  0
 33 32  1  0  0  0  0
 34 31  1  0  0  0  0
M  END
>  <MODEL>
6

>  <REMARK>
 VINA RESULT:      -7.3      2.401      8.556
  Name = 
  6 active torsions:
  status: ('A' for Active; 'I' for Inactive)
    1  A    between atoms: C_3  and  C_13
    2  A    between atoms: C_3  and  O_17
    3  A    between atoms: C_4  and  C_15
    4  A    between atoms: C_12  and  C_28
    5  A    between atoms: O_17  and  C_29
    6  A    between atoms: C_21  and  C_32
                            x       y       z     vdW  Elec       q    Type
                         _______ _______ _______ _____ _____    ______ ____

>  <TORSDO>
F 6

$$$$
=
 OpenBabel11052418373D

 34 38  0  0  1  0  0  0  0  0999 V2000
  189.7710  174.3140  142.1230 C   0  0  0  0  0  0  0  0  0  0  0  0
  189.3500  176.6650  142.3720 C   0  0  0  0  0  0  0  0  0  0  0  0
  187.7400  175.4870  141.0550 C   0  0  0  0  0  2  0  0  0  0  0  0
  188.2540  178.0050  141.9850 S   0  0  0  0  0  0  0  0  0  0  0  0
  190.9060  174.4570  142.9560 C   0  0  0  0  0  0  0  0  0  0  0  0
  190.4200  176.7930  143.1930 N   0  0  0  0  0  0  0  0  0  0  0  0
  191.2130  175.7330  143.5080 C   0  0  0  0  0  0  0  0  0  0  0  0
  187.0120  176.7710  141.4590 C   0  0  2  0  0  3  0  0  0  0  0  0
  188.9940  175.4500  141.8520 C   0  0  0  0  0  0  0  0  0  0  0  0
  189.8330  171.8760  142.4550 N   0  0  0  0  0  2  0  0  0  0  0  0
  189.8950  172.6180  140.1610 C   0  0  1  0  0  3  0  0  0  0  0  0
  190.3900  170.8630  141.6470 C   0  0  0  0  0  0  0  0  0  0  0  0
  190.4160  171.1850  140.2060 C   0  0  0  0  0  2  0  0  0  0  0  0
  189.3960  172.9500  141.5860 C   0  0  2  0  0  3  0  0  0  0  0  0
  190.8330  169.7880  142.1260 O   0  0  0  0  0  0  0  0  0  0  0  0
  190.9250  173.4650  139.7490 O   0  0  0  0  0  1  0  0  0  0  0  0
  194.6930  176.5330  144.8270 C   0  0  0  0  0  0  0  0  0  0  0  0
  194.5130  176.3290  146.1930 C   0  0  0  0  0  3  0  0  0  0  0  0
  192.3580  175.9770  144.4240 C   0  0  0  0  0  0  0  0  0  0  0  0
  193.2630  175.9430  146.6800 C   0  0  0  0  0  3  0  0  0  0  0  0
  193.6240  176.3520  143.9470 C   0  0  0  0  0  3  0  0  0  0  0  0
  192.1940  175.7640  145.8000 C   0  0  0  0  0  3  0  0  0  0  0  0
  195.9370  176.9060  144.3400 O   0  0  0  0  0  1  0  0  0  0  0  0
  193.0130  173.3550  142.2900 C   0  0  0  0  0  1  0  0  0  0  0  0
  191.7980  173.2740  143.1870 C   0  0  0  0  0  2  0  0  0  0  0  0
  186.1600  176.5010  142.5290 O   0  0  0  0  0  0  0  0  0  0  0  0
  186.0020  177.7230  143.1870 C   0  0  0  0  0  2  0  0  0  0  0  0
  187.7240  176.3150  145.3880 O   0  0  0  0  0  1  0  0  0  0  0  0
  185.7620  177.4980  144.6730 C   0  0  1  0  0  3  0  0  0  0  0  0
  187.0800  177.5520  145.4620 C   0  0  1  0  0  3  0  0  0  0  0  0
  185.5280  177.5330  147.4590 C   0  0  0  0  0  2  0  0  0  0  0  0
  184.3900  178.2040  146.6760 C   0  0  0  0  0  2  0  0  0  0  0  0
  184.7430  178.5010  145.2140 C   0  0  0  0  0  2  0  0  0  0  0  0
  186.8970  177.9530  146.9310 C   0  0  0  0  0  2  0  0  0  0  0  0
  1  5  1  0  0  0  0
  2  6  2  0  0  0  0
  3  8  1  0  0  0  0
  3  9  1  0  0  0  0
  4  2  1  0  0  0  0
  5 25  1  0  0  0  0
  5  7  2  0  0  0  0
  6  7  1  0  0  0  0
  7 19  1  0  0  0  0
  8  4  1  0  0  0  0
  8 26  1  1  0  0  0
  9  1  2  0  0  0  0
  9  2  1  0  0  0  0
 11 16  1  1  0  0  0
 11 13  1  0  0  0  0
 11 14  1  0  0  0  0
 12 15  2  0  0  0  0
 12 10  1  0  0  0  0
 13 12  1  0  0  0  0
 14  1  1  1  0  0  0
 14 10  1  0  0  0  0
 17 18  1  0  0  0  0
 18 20  2  0  0  0  0
 19 22  2  0  0  0  0
 21 19  1  0  0  0  0
 21 17  2  0  0  0  0
 22 20  1  0  0  0  0
 23 17  1  0  0  0  0
 24 25  1  0  0  0  0
 26 27  1  0  0  0  0
 29 27  1  6  0  0  0
 29 33  1  0  0  0  0
 29 30  1  0  0  0  0
 30 28  1  1  0  0  0
 30 34  1  0  0  0  0
 32 31  1  0  0  0  0
 33 32  1  0  0  0  0
 34 31  1  0  0  0  0
M  END
>  <MODEL>
7

>  <REMARK>
 VINA RESULT:      -7.2      2.442      7.237
  Name = 
  6 active torsions:
  status: ('A' for Active; 'I' for Inactive)
    1  A    between atoms: C_3  and  C_13
    2  A    between atoms: C_3  and  O_17
    3  A    between atoms: C_4  and  C_15
    4  A    between atoms: C_12  and  C_28
    5  A    between atoms: O_17  and  C_29
    6  A    between atoms: C_21  and  C_32
                            x       y       z     vdW  Elec       q    Type
                         _______ _______ _______ _____ _____    ______ ____

>  <TORSDO>
F 6

$$$$
=
 OpenBabel11052418373D

 34 38  0  0  1  0  0  0  0  0999 V2000
  190.6640  176.1190  144.0330 C   0  0  0  0  0  0  0  0  0  0  0  0
  189.1520  174.7480  142.7670 C   0  0  0  0  0  0  0  0  0  0  0  0
  191.4660  174.2140  142.4940 C   0  0  0  0  0  2  0  0  0  0  0  0
  189.0060  173.3850  141.6420 S   0  0  0  0  0  0  0  0  0  0  0  0
  189.5480  176.7960  144.5800 C   0  0  0  0  0  0  0  0  0  0  0  0
  188.0850  175.3790  143.3140 N   0  0  0  0  0  0  0  0  0  0  0  0
  188.2340  176.3910  144.2110 C   0  0  0  0  0  0  0  0  0  0  0  0
  190.7420  172.9530  142.0170 C   0  0  2  0  0  3  0  0  0  0  0  0
  190.4320  175.0770  143.1220 C   0  0  0  0  0  0  0  0  0  0  0  0
  193.0270  176.3760  143.3950 N   0  0  0  0  0  2  0  0  0  0  0  0
  192.6300  175.7210  145.6820 C   0  0  1  0  0  3  0  0  0  0  0  0
  194.1810  175.7530  143.9140 C   0  0  0  0  0  0  0  0  0  0  0  0
  194.0730  175.3690  145.3360 C   0  0  0  0  0  2  0  0  0  0  0  0
  192.0630  176.4950  144.4700 C   0  0  2  0  0  3  0  0  0  0  0  0
  195.2030  175.5400  143.2130 O   0  0  0  0  0  0  0  0  0  0  0  0
  191.9230  174.5460  145.9390 O   0  0  0  0  0  1  0  0  0  0  0  0
  185.3330  178.7850  144.7960 C   0  0  0  0  0  0  0  0  0  0  0  0
  184.7200  178.1950  145.9000 C   0  0  0  0  0  3  0  0  0  0  0  0
  187.0000  177.0120  144.7590 C   0  0  0  0  0  0  0  0  0  0  0  0
  185.2440  177.0210  146.4420 C   0  0  0  0  0  3  0  0  0  0  0  0
  186.4700  178.2010  144.2330 C   0  0  0  0  0  3  0  0  0  0  0  0
  186.3800  176.4360  145.8770 C   0  0  0  0  0  3  0  0  0  0  0  0
  184.8190  179.9580  144.2630 O   0  0  0  0  0  1  0  0  0  0  0  0
  189.6920  177.5330  146.9330 C   0  0  0  0  0  1  0  0  0  0  0  0
  189.7760  177.9680  145.4870 C   0  0  0  0  0  2  0  0  0  0  0  0
  190.7630  171.9990  143.0330 O   0  0  0  0  0  0  0  0  0  0  0  0
  191.7780  171.1080  142.6760 C   0  0  0  0  0  2  0  0  0  0  0  0
  192.6010  168.3570  143.9180 O   0  0  0  0  0  1  0  0  0  0  0  0
  192.6260  170.7560  143.8910 C   0  0  1  0  0  3  0  0  0  0  0  0
  193.4160  169.4590  143.6570 C   0  0  1  0  0  3  0  0  0  0  0  0
  194.5660  170.1360  145.8060 C   0  0  0  0  0  2  0  0  0  0  0  0
  194.3120  171.6310  145.5590 C   0  0  0  0  0  2  0  0  0  0  0  0
  193.5490  171.9170  144.2610 C   0  0  0  0  0  2  0  0  0  0  0  0
  194.6980  169.3650  144.4960 C   0  0  0  0  0  2  0  0  0  0  0  0
  1  5  1  0  0  0  0
  2  9  1  0  0  0  0
  2  6  2  0  0  0  0
  3  9  1  0  0  0  0
  4  8  1  0  0  0  0
  4  2  1  0  0  0  0
  5 25  1  0  0  0  0
  6  7  1  0  0  0  0
  7  5  2  0  0  0  0
  7 19  1  0  0  0  0
  8  3  1  0  0  0  0
  8 26  1  1  0  0  0
  9  1  2  0  0  0  0
 10 12  1  0  0  0  0
 10 14  1  0  0  0  0
 11 16  1  6  0  0  0
 12 13  1  0  0  0  0
 13 11  1  0  0  0  0
 14  1  1  6  0  0  0
 14 11  1  0  0  0  0
 15 12  2  0  0  0  0
 17 18  1  0  0  0  0
 18 20  2  0  0  0  0
 19 22  2  0  0  0  0
 21 19  1  0  0  0  0
 21 17  2  0  0  0  0
 22 20  1  0  0  0  0
 23 17  1  0  0  0  0
 25 24  1  0  0  0  0
 27 26  1  0  0  0  0
 29 27  1  6  0  0  0
 29 33  1  0  0  0  0
 30 29  1  0  0  0  0
 30 28  1  1  0  0  0
 30 34  1  0  0  0  0
 32 31  1  0  0  0  0
 33 32  1  0  0  0  0
 34 31  1  0  0  0  0
M  END
>  <MODEL>
8

>  <REMARK>
 VINA RESULT:      -7.2      2.545      4.139
  Name = 
  6 active torsions:
  status: ('A' for Active; 'I' for Inactive)
    1  A    between atoms: C_3  and  C_13
    2  A    between atoms: C_3  and  O_17
    3  A    between atoms: C_4  and  C_15
    4  A    between atoms: C_12  and  C_28
    5  A    between atoms: O_17  and  C_29
    6  A    between atoms: C_21  and  C_32
                            x       y       z     vdW  Elec       q    Type
                         _______ _______ _______ _____ _____    ______ ____

>  <TORSDO>
F 6

$$$$
=
 OpenBabel11052418373D

 34 38  0  0  1  0  0  0  0  0999 V2000
  191.0750  176.4390  144.3950 C   0  0  0  0  0  0  0  0  0  0  0  0
  189.8050  175.2770  142.7190 C   0  0  0  0  0  0  0  0  0  0  0  0
  192.1560  174.8460  142.6820 C   0  0  0  0  0  2  0  0  0  0  0  0
  189.8690  174.1260  141.3710 S   0  0  0  0  0  0  0  0  0  0  0  0
  189.8680  176.9880  144.8890 C   0  0  0  0  0  0  0  0  0  0  0  0
  188.6490  175.7820  143.2120 N   0  0  0  0  0  0  0  0  0  0  0  0
  188.6330  176.6270  144.2790 C   0  0  0  0  0  0  0  0  0  0  0  0
  191.5570  173.6710  141.9040 C   0  0  2  0  0  3  0  0  0  0  0  0
  191.0110  175.5660  143.2980 C   0  0  0  0  0  0  0  0  0  0  0  0
  193.4980  176.7950  144.1490 N   0  0  0  0  0  2  0  0  0  0  0  0
  192.7920  175.8360  146.2470 C   0  0  1  0  0  3  0  0  0  0  0  0
  194.5810  176.1160  144.7450 C   0  0  0  0  0  0  0  0  0  0  0  0
  194.2790  175.5430  146.0720 C   0  0  0  0  0  2  0  0  0  0  0  0
  192.3860  176.7620  145.0770 C   0  0  2  0  0  3  0  0  0  0  0  0
  195.6980  176.0050  144.1790 O   0  0  0  0  0  0  0  0  0  0  0  0
  192.0860  174.6330  146.2400 O   0  0  0  0  0  1  0  0  0  0  0  0
  185.5210  178.7680  144.7520 C   0  0  0  0  0  0  0  0  0  0  0  0
  184.8550  178.0520  145.7450 C   0  0  0  0  0  3  0  0  0  0  0  0
  187.3110  177.1180  144.7490 C   0  0  0  0  0  0  0  0  0  0  0  0
  185.4130  176.8760  146.2490 C   0  0  0  0  0  3  0  0  0  0  0  0
  186.7450  178.3070  144.2610 C   0  0  0  0  0  3  0  0  0  0  0  0
  186.6360  176.4160  145.7570 C   0  0  0  0  0  3  0  0  0  0  0  0
  184.9720  179.9420  144.2580 O   0  0  0  0  0  1  0  0  0  0  0  0
  189.6910  177.3060  147.3320 C   0  0  0  0  0  1  0  0  0  0  0  0
  189.9220  177.9910  146.0030 C   0  0  0  0  0  2  0  0  0  0  0  0
  191.4850  172.5570  142.7370 O   0  0  0  0  0  0  0  0  0  0  0  0
  192.4280  171.6600  142.2300 C   0  0  0  0  0  2  0  0  0  0  0  0
  195.5270  171.4310  141.8630 O   0  0  0  0  0  1  0  0  0  0  0  0
  193.5560  171.4520  143.2320 C   0  0  1  0  0  3  0  0  0  0  0  0
  194.8270  172.1980  142.7970 C   0  0  1  0  0  3  0  0  0  0  0  0
  195.6210  171.5650  145.1140 C   0  0  0  0  0  2  0  0  0  0  0  0
  194.1920  171.5370  145.6770 C   0  0  0  0  0  2  0  0  0  0  0  0
  193.1150  171.8650  144.6360 C   0  0  0  0  0  2  0  0  0  0  0  0
  195.7520  172.5610  143.9650 C   0  0  0  0  0  2  0  0  0  0  0  0
  1  5  1  0  0  0  0
  2  6  2  0  0  0  0
  2  9  1  0  0  0  0
  3  9  1  0  0  0  0
  4  8  1  0  0  0  0
  4  2  1  0  0  0  0
  5 25  1  0  0  0  0
  6  7  1  0  0  0  0
  7 19  1  0  0  0  0
  7  5  2  0  0  0  0
  8  3  1  0  0  0  0
  8 26  1  1  0  0  0
  9  1  2  0  0  0  0
 10 12  1  0  0  0  0
 10 14  1  0  0  0  0
 11 16  1  6  0  0  0
 12 13  1  0  0  0  0
 13 11  1  0  0  0  0
 14  1  1  6  0  0  0
 14 11  1  0  0  0  0
 15 12  2  0  0  0  0
 17 18  1  0  0  0  0
 18 20  2  0  0  0  0
 19 22  2  0  0  0  0
 21 19  1  0  0  0  0
 21 17  2  0  0  0  0
 22 20  1  0  0  0  0
 23 17  1  0  0  0  0
 25 24  1  0  0  0  0
 27 26  1  0  0  0  0
 29 27  1  6  0  0  0
 29 33  1  0  0  0  0
 30 28  1  6  0  0  0
 30 29  1  0  0  0  0
 30 34  1  0  0  0  0
 31 32  1  0  0  0  0
 33 32  1  0  0  0  0
 34 31  1  0  0  0  0
M  END
>  <MODEL>
9

>  <REMARK>
 VINA RESULT:      -7.1      2.233      3.950
  Name = 
  6 active torsions:
  status: ('A' for Active; 'I' for Inactive)
    1  A    between atoms: C_3  and  C_13
    2  A    between atoms: C_3  and  O_17
    3  A    between atoms: C_4  and  C_15
    4  A    between atoms: C_12  and  C_28
    5  A    between atoms: O_17  and  C_29
    6  A    between atoms: C_21  and  C_32
                            x       y       z     vdW  Elec       q    Type
                         _______ _______ _______ _____ _____    ______ ____

>  <TORSDO>
F 6

$$$$
