=
 OpenBabel11052417333D

 25 30  0  0  1  0  0  0  0  0999 V2000
  185.5900  178.0310  143.6290 N   0  0  0  0  0  0  0  0  0  0  0  0
  186.5760  177.7950  144.6500 C   0  0  0  0  0  0  0  0  0  0  0  0
  183.9690  178.7710  145.2410 C   0  0  0  0  0  3  0  0  0  0  0  0
  185.6780  177.8430  142.2210 C   0  0  0  0  0  0  0  0  0  0  0  0
  189.2590  175.6170  145.3630 C   0  0  0  0  0  2  0  0  0  0  0  0
  190.7130  175.5570  145.2770 N   0  0  2  0  0  0  0  0  0  0  0  0
  185.5510  177.5750  139.4520 C   0  0  0  0  0  3  0  0  0  0  0  0
  184.9610  178.5430  146.3170 C   0  0  0  0  0  3  0  0  0  0  0  0
  184.5130  178.1720  141.5440 C   0  0  0  0  0  0  0  0  0  0  0  0
  184.4330  178.0450  140.1560 C   0  0  0  0  0  3  0  0  0  0  0  0
  187.1770  177.8650  147.1240 C   0  0  0  0  0  0  0  0  0  0  0  0
  186.8510  178.1380  148.4470 O   0  0  0  0  0  1  0  0  0  0  0  0
  190.0900  177.8590  145.1050 C   0  0  0  0  0  2  0  0  0  0  0  0
  187.7970  177.3340  144.3680 C   0  0  0  0  0  3  0  0  0  0  0  0
  186.7320  177.2420  140.1370 C   0  0  0  0  0  3  0  0  0  0  0  0
  184.2950  178.5190  143.9710 C   0  0  0  0  0  0  0  0  0  0  0  0
  183.1720  178.7570  142.5890 S   0  0  0  0  0  0  0  0  0  0  0  0
  188.8430  177.0730  145.4260 C   0  0  1  0  0  0  0  0  0  0  0  0
  186.8000  177.3740  141.5310 C   0  0  0  0  0  3  0  0  0  0  0  0
  188.3950  177.4040  146.8310 C   0  0  0  0  0  3  0  0  0  0  0  0
  186.1940  178.0830  146.0500 C   0  0  0  0  0  0  0  0  0  0  0  0
  191.1130  176.8280  144.6890 C   0  0  0  0  0  2  0  0  0  0  0  0
  191.0510  174.5110  144.3230 C   0  0  0  0  0  3  0  0  0  0  0  0
  190.4650  173.1900  144.7860 C   0  0  0  0  0  2  0  0  0  0  0  0
  191.9360  173.4750  144.9930 C   0  0  0  0  0  2  0  0  0  0  0  0
  1 16  1  0  0  0  0
  1  2  1  0  0  0  0
  2 21  1  0  0  0  0
  3  8  1  0  0  0  0
  4  1  1  0  0  0  0
  5 18  1  0  0  0  0
  6 23  1  6  0  0  0
  6  5  1  0  0  0  0
  7 15  2  0  0  0  0
  7 10  1  0  0  0  0
  9  4  1  0  0  0  0
  9 17  1  0  0  0  0
 10  9  2  0  0  0  0
 11 12  1  0  0  0  0
 13 18  1  0  0  0  0
 14  2  2  0  0  0  0
 15 19  1  0  0  0  0
 16  3  2  0  0  0  0
 17 16  1  0  0  0  0
 18 14  1  6  0  0  0
 18 20  1  0  0  0  0
 19  4  2  0  0  0  0
 20 11  2  0  0  0  0
 21  8  2  0  0  0  0
 21 11  1  0  0  0  0
 22 13  1  0  0  0  0
 22  6  1  0  0  0  0
 23 24  1  0  0  0  0
 23 25  1  0  0  0  0
 24 25  1  0  0  0  0
M  END
>  <MODEL>
1

>  <REMARK>
 VINA RESULT:      -7.7      0.000      0.000
  Name = 
  1 active torsions:
  status: ('A' for Active; 'I' for Inactive)
    1  A    between atoms: C_2  and  N_7
                            x       y       z     vdW  Elec       q    Type
                         _______ _______ _______ _____ _____    ______ ____

>  <TORSDO>
F 1

$$$$
=
 OpenBabel11052417333D

 25 30  0  0  1  0  0  0  0  0999 V2000
  187.0290  177.0610  144.0450 N   0  0  0  0  0  0  0  0  0  0  0  0
  188.1740  176.2670  143.6890 C   0  0  0  0  0  0  0  0  0  0  0  0
  186.1310  176.9240  141.8190 C   0  0  0  0  0  3  0  0  0  0  0  0
  186.6860  177.6520  145.2930 C   0  0  0  0  0  0  0  0  0  0  0  0
  191.5960  175.9480  144.4930 C   0  0  0  0  0  2  0  0  0  0  0  0
  192.4860  175.1480  145.3240 N   0  0  2  0  0  0  0  0  0  0  0  0
  185.7580  178.9210  147.5920 C   0  0  0  0  0  3  0  0  0  0  0  0
  187.2960  176.1010  141.4200 C   0  0  0  0  0  3  0  0  0  0  0  0
  185.4940  178.3630  145.2620 C   0  0  0  0  0  0  0  0  0  0  0  0
  185.0160  179.0040  146.4060 C   0  0  0  0  0  3  0  0  0  0  0  0
  189.4170  174.9590  141.8910 C   0  0  0  0  0  0  0  0  0  0  0  0
  189.5240  174.4820  140.5900 O   0  0  0  0  0  1  0  0  0  0  0  0
  190.4290  173.9440  145.1320 C   0  0  0  0  0  2  0  0  0  0  0  0
  189.1320  175.9630  144.5690 C   0  0  0  0  0  3  0  0  0  0  0  0
  186.9650  178.2020  147.6240 C   0  0  0  0  0  3  0  0  0  0  0  0
  186.0290  177.3680  143.0750 C   0  0  0  0  0  0  0  0  0  0  0  0
  184.6640  178.3730  143.6680 S   0  0  0  0  0  0  0  0  0  0  0  0
  190.3450  175.1370  144.2130 C   0  0  1  0  0  0  0  0  0  0  0  0
  187.4360  177.5620  146.4700 C   0  0  0  0  0  3  0  0  0  0  0  0
  190.3680  174.6620  142.7780 C   0  0  0  0  0  3  0  0  0  0  0  0
  188.2660  175.7840  142.2940 C   0  0  0  0  0  0  0  0  0  0  0  0
  191.6160  174.2150  146.0260 C   0  0  0  0  0  2  0  0  0  0  0  0
  193.0660  176.0360  146.3200 C   0  0  0  0  0  3  0  0  0  0  0  0
  194.0160  177.0090  145.6450 C   0  0  0  0  0  2  0  0  0  0  0  0
  194.5670  175.8130  146.3900 C   0  0  0  0  0  2  0  0  0  0  0  0
  1  4  1  0  0  0  0
  2  1  1  0  0  0  0
  2 14  2  0  0  0  0
  3 16  2  0  0  0  0
  4 19  1  0  0  0  0
  5  6  1  0  0  0  0
  6 22  1  0  0  0  0
  6 23  1  1  0  0  0
  7 15  1  0  0  0  0
  8  3  1  0  0  0  0
  8 21  2  0  0  0  0
  9  4  2  0  0  0  0
  9 10  1  0  0  0  0
 10  7  2  0  0  0  0
 11 21  1  0  0  0  0
 11 20  2  0  0  0  0
 12 11  1  0  0  0  0
 13 22  1  0  0  0  0
 16 17  1  0  0  0  0
 16  1  1  0  0  0  0
 17  9  1  0  0  0  0
 18 20  1  6  0  0  0
 18  5  1  0  0  0  0
 18 14  1  0  0  0  0
 18 13  1  0  0  0  0
 19 15  2  0  0  0  0
 21  2  1  0  0  0  0
 23 25  1  0  0  0  0
 24 23  1  0  0  0  0
 24 25  1  0  0  0  0
M  END
>  <MODEL>
2

>  <REMARK>
 VINA RESULT:      -7.5      2.497      4.737
  Name = 
  1 active torsions:
  status: ('A' for Active; 'I' for Inactive)
    1  A    between atoms: C_2  and  N_7
                            x       y       z     vdW  Elec       q    Type
                         _______ _______ _______ _____ _____    ______ ____

>  <TORSDO>
F 1

$$$$
=
 OpenBabel11052417333D

 25 30  0  0  1  0  0  0  0  0999 V2000
  186.8780  176.9700  144.1570 N   0  0  0  0  0  0  0  0  0  0  0  0
  188.0780  176.2450  144.4790 C   0  0  0  0  0  0  0  0  0  0  0  0
  186.2990  177.2150  146.4770 C   0  0  0  0  0  3  0  0  0  0  0  0
  186.3490  177.3320  142.8860 C   0  0  0  0  0  0  0  0  0  0  0  0
  190.1030  173.6620  143.1810 C   0  0  0  0  0  2  0  0  0  0  0  0
  191.3260  173.4710  142.4130 N   0  0  2  0  0  0  0  0  0  0  0  0
  185.0730  178.1720  140.5580 C   0  0  0  0  0  3  0  0  0  0  0  0
  187.5280  176.4750  146.8430 C   0  0  0  0  0  3  0  0  0  0  0  0
  185.1530  178.0320  142.9630 C   0  0  0  0  0  0  0  0  0  0  0  0
  184.5010  178.4600  141.8050 C   0  0  0  0  0  3  0  0  0  0  0  0
  189.5990  175.2830  146.2820 C   0  0  0  0  0  0  0  0  0  0  0  0
  189.9100  175.0600  147.6180 O   0  0  0  0  0  1  0  0  0  0  0  0
  191.3540  175.7160  143.2330 C   0  0  0  0  0  2  0  0  0  0  0  0
  188.9090  175.7890  143.5370 C   0  0  0  0  0  3  0  0  0  0  0  0
  186.2840  177.4630  140.4800 C   0  0  0  0  0  3  0  0  0  0  0  0
  186.0140  177.4370  145.1910 C   0  0  0  0  0  0  0  0  0  0  0  0
  184.5530  178.3200  144.6330 S   0  0  0  0  0  0  0  0  0  0  0  0
  190.1690  175.0190  143.8550 C   0  0  1  0  0  0  0  0  0  0  0  0
  186.9290  177.0380  141.6490 C   0  0  0  0  0  3  0  0  0  0  0  0
  190.4220  174.8320  145.3330 C   0  0  0  0  0  3  0  0  0  0  0  0
  188.3750  176.0130  145.9090 C   0  0  0  0  0  0  0  0  0  0  0  0
  191.7990  174.8140  142.1070 C   0  0  0  0  0  2  0  0  0  0  0  0
  190.9550  172.8430  141.1530 C   0  0  0  0  0  3  0  0  0  0  0  0
  190.2560  171.5230  141.4280 C   0  0  0  0  0  2  0  0  0  0  0  0
  191.7060  171.5320  140.9960 C   0  0  0  0  0  2  0  0  0  0  0  0
  1  2  1  0  0  0  0
  1 16  1  0  0  0  0
  2 21  1  0  0  0  0
  3  8  1  0  0  0  0
  4  9  1  0  0  0  0
  4  1  1  0  0  0  0
  6 23  1  6  0  0  0
  6  5  1  0  0  0  0
  7 10  1  0  0  0  0
  9 17  1  0  0  0  0
 10  9  2  0  0  0  0
 11 12  1  0  0  0  0
 13 18  1  0  0  0  0
 14 18  1  0  0  0  0
 14  2  2  0  0  0  0
 15  7  2  0  0  0  0
 15 19  1  0  0  0  0
 16  3  2  0  0  0  0
 17 16  1  0  0  0  0
 18  5  1  6  0  0  0
 18 20  1  0  0  0  0
 19  4  2  0  0  0  0
 20 11  2  0  0  0  0
 21 11  1  0  0  0  0
 21  8  2  0  0  0  0
 22  6  1  0  0  0  0
 22 13  1  0  0  0  0
 23 24  1  0  0  0  0
 25 23  1  0  0  0  0
 25 24  1  0  0  0  0
M  END
>  <MODEL>
3

>  <REMARK>
 VINA RESULT:      -7.5      2.145      2.873
  Name = 
  1 active torsions:
  status: ('A' for Active; 'I' for Inactive)
    1  A    between atoms: C_2  and  N_7
                            x       y       z     vdW  Elec       q    Type
                         _______ _______ _______ _____ _____    ______ ____

>  <TORSDO>
F 1

$$$$
=
 OpenBabel11052417333D

 25 30  0  0  1  0  0  0  0  0999 V2000
  187.0410  177.8020  144.1250 N   0  0  0  0  0  0  0  0  0  0  0  0
  188.3390  177.4410  144.6280 C   0  0  0  0  0  0  0  0  0  0  0  0
  186.2190  178.2760  146.3340 C   0  0  0  0  0  3  0  0  0  0  0  0
  186.5570  177.8190  142.7860 C   0  0  0  0  0  0  0  0  0  0  0  0
  190.9950  175.2320  143.9090 C   0  0  0  0  0  2  0  0  0  0  0  0
  192.2930  175.2110  143.2470 N   0  0  2  0  0  0  0  0  0  0  0  0
  185.3360  177.9470  140.2870 C   0  0  0  0  0  3  0  0  0  0  0  0
  187.5460  177.9150  146.8850 C   0  0  0  0  0  3  0  0  0  0  0  0
  185.2340  178.2210  142.6800 C   0  0  0  0  0  0  0  0  0  0  0  0
  184.6070  178.2910  141.4340 C   0  0  0  0  0  3  0  0  0  0  0  0
  189.8710  177.1680  146.6440 C   0  0  0  0  0  0  0  0  0  0  0  0
  190.1060  177.2440  148.0120 O   0  0  0  0  0  1  0  0  0  0  0  0
  191.7460  177.5030  143.6550 C   0  0  0  0  0  2  0  0  0  0  0  0
  189.3300  177.0470  143.8240 C   0  0  0  0  0  3  0  0  0  0  0  0
  186.6770  177.5400  140.3940 C   0  0  0  0  0  3  0  0  0  0  0  0
  186.0060  178.2140  145.0160 C   0  0  0  0  0  0  0  0  0  0  0  0
  184.4400  178.6270  144.2410 S   0  0  0  0  0  0  0  0  0  0  0  0
  190.6980  176.6570  144.3330 C   0  0  1  0  0  0  0  0  0  0  0  0
  187.2950  177.4730  141.6500 C   0  0  0  0  0  3  0  0  0  0  0  0
  190.8550  176.7750  145.8320 C   0  0  0  0  0  3  0  0  0  0  0  0
  188.5540  177.5190  146.0890 C   0  0  0  0  0  0  0  0  0  0  0  0
  192.4790  176.5600  142.7300 C   0  0  0  0  0  2  0  0  0  0  0  0
  192.1840  174.3190  142.1020 C   0  0  0  0  0  3  0  0  0  0  0  0
  191.6090  172.9860  142.5480 C   0  0  0  0  0  2  0  0  0  0  0  0
  193.0950  173.1200  142.3010 C   0  0  0  0  0  2  0  0  0  0  0  0
  1  2  1  0  0  0  0
  1 16  1  0  0  0  0
  2 21  1  0  0  0  0
  3  8  1  0  0  0  0
  4  1  1  0  0  0  0
  5 18  1  0  0  0  0
  6 23  1  6  0  0  0
  6  5  1  0  0  0  0
  7 15  2  0  0  0  0
  7 10  1  0  0  0  0
  9  4  1  0  0  0  0
  9 17  1  0  0  0  0
 10  9  2  0  0  0  0
 11 12  1  0  0  0  0
 14 18  1  0  0  0  0
 14  2  2  0  0  0  0
 15 19  1  0  0  0  0
 16  3  2  0  0  0  0
 17 16  1  0  0  0  0
 18 13  1  6  0  0  0
 18 20  1  0  0  0  0
 19  4  2  0  0  0  0
 20 11  2  0  0  0  0
 21 11  1  0  0  0  0
 21  8  2  0  0  0  0
 22  6  1  0  0  0  0
 22 13  1  0  0  0  0
 23 25  1  0  0  0  0
 23 24  1  0  0  0  0
 25 24  1  0  0  0  0
M  END
>  <MODEL>
4

>  <REMARK>
 VINA RESULT:      -7.3      1.622      2.177
  Name = 
  1 active torsions:
  status: ('A' for Active; 'I' for Inactive)
    1  A    between atoms: C_2  and  N_7
                            x       y       z     vdW  Elec       q    Type
                         _______ _______ _______ _____ _____    ______ ____

>  <TORSDO>
F 1

$$$$
=
 OpenBabel11052417333D

 25 30  0  0  1  0  0  0  0  0999 V2000
  190.9140  174.3890  144.8870 N   0  0  0  0  0  0  0  0  0  0  0  0
  190.2620  175.4230  145.6460 C   0  0  0  0  0  0  0  0  0  0  0  0
  192.9760  174.6850  146.0850 C   0  0  0  0  0  3  0  0  0  0  0  0
  190.4040  173.5770  143.8350 C   0  0  0  0  0  0  0  0  0  0  0  0
  187.7980  177.9180  145.2530 C   0  0  0  0  0  2  0  0  0  0  0  0
  186.3830  178.1520  145.5110 N   0  0  2  0  0  0  0  0  0  0  0  0
  189.6920  171.8540  141.7660 C   0  0  0  0  0  3  0  0  0  0  0  0
  192.3350  175.7520  146.8880 C   0  0  0  0  0  3  0  0  0  0  0  0
  191.3330  172.6790  143.3270 C   0  0  0  0  0  0  0  0  0  0  0  0
  190.9910  171.8090  142.2910 C   0  0  0  0  0  3  0  0  0  0  0  0
  190.4230  177.1660  147.4960 C   0  0  0  0  0  0  0  0  0  0  0  0
  191.1400  177.8190  148.4920 O   0  0  0  0  0  1  0  0  0  0  0  0
  187.0480  176.2920  146.8590 C   0  0  0  0  0  2  0  0  0  0  0  0
  188.9890  175.7680  145.4340 C   0  0  0  0  0  3  0  0  0  0  0  0
  188.7510  172.7620  142.2800 C   0  0  0  0  0  3  0  0  0  0  0  0
  192.2760  174.0530  145.1390 C   0  0  0  0  0  0  0  0  0  0  0  0
  192.9510  172.7470  144.1070 S   0  0  0  0  0  0  0  0  0  0  0  0
  188.2900  176.8550  146.2160 C   0  0  1  0  0  0  0  0  0  0  0  0
  189.1050  173.6310  143.3210 C   0  0  0  0  0  3  0  0  0  0  0  0
  189.1510  177.5030  147.2760 C   0  0  0  0  0  3  0  0  0  0  0  0
  191.0550  176.1090  146.6900 C   0  0  0  0  0  0  0  0  0  0  0  0
  185.8950  176.9170  146.1090 C   0  0  0  0  0  2  0  0  0  0  0  0
  185.7230  178.3010  144.2220 C   0  0  0  0  0  3  0  0  0  0  0  0
  185.5850  179.7750  143.8880 C   0  0  0  0  0  2  0  0  0  0  0  0
  184.3910  179.0070  144.4090 C   0  0  0  0  0  2  0  0  0  0  0  0
  1 16  1  0  0  0  0
  1  2  1  0  0  0  0
  2 21  1  0  0  0  0
  3  8  1  0  0  0  0
  4  1  1  0  0  0  0
  5  6  1  0  0  0  0
  6 23  1  6  0  0  0
  6 22  1  0  0  0  0
  7 15  2  0  0  0  0
  7 10  1  0  0  0  0
  9  4  1  0  0  0  0
  9 17  1  0  0  0  0
 10  9  2  0  0  0  0
 11 12  1  0  0  0  0
 14  2  2  0  0  0  0
 14 18  1  0  0  0  0
 15 19  1  0  0  0  0
 16  3  2  0  0  0  0
 17 16  1  0  0  0  0
 18  5  1  6  0  0  0
 18 13  1  0  0  0  0
 18 20  1  0  0  0  0
 19  4  2  0  0  0  0
 20 11  2  0  0  0  0
 21  8  2  0  0  0  0
 21 11  1  0  0  0  0
 22 13  1  0  0  0  0
 23 25  1  0  0  0  0
 24 23  1  0  0  0  0
 24 25  1  0  0  0  0
M  END
>  <MODEL>
5

>  <REMARK>
 VINA RESULT:      -7.2      3.260      6.631
  Name = 
  1 active torsions:
  status: ('A' for Active; 'I' for Inactive)
    1  A    between atoms: C_2  and  N_7
                            x       y       z     vdW  Elec       q    Type
                         _______ _______ _______ _____ _____    ______ ____

>  <TORSDO>
F 1

$$$$
=
 OpenBabel11052417333D

 25 30  0  0  1  0  0  0  0  0999 V2000
  187.0260  177.0440  143.4870 N   0  0  0  0  0  0  0  0  0  0  0  0
  187.8800  176.0290  142.9310 C   0  0  0  0  0  0  0  0  0  0  0  0
  186.1500  177.6160  141.3230 C   0  0  0  0  0  3  0  0  0  0  0  0
  186.8660  177.4560  144.8400 C   0  0  0  0  0  0  0  0  0  0  0  0
  191.0360  174.5520  143.4880 C   0  0  0  0  0  2  0  0  0  0  0  0
  191.6350  173.3770  144.1090 N   0  0  2  0  0  0  0  0  0  0  0  0
  186.3450  178.4720  147.3790 C   0  0  0  0  0  3  0  0  0  0  0  0
  187.0140  176.5760  140.7190 C   0  0  0  0  0  3  0  0  0  0  0  0
  185.9460  178.4820  145.0020 C   0  0  0  0  0  0  0  0  0  0  0  0
  185.6730  179.0020  146.2690 C   0  0  0  0  0  3  0  0  0  0  0  0
  188.6850  174.7850  140.8590 C   0  0  0  0  0  0  0  0  0  0  0  0
  188.6550  174.5590  139.4880 O   0  0  0  0  0  1  0  0  0  0  0  0
  189.3110  172.9040  143.7980 C   0  0  0  0  0  2  0  0  0  0  0  0
  188.6920  175.2880  143.6900 C   0  0  0  0  0  3  0  0  0  0  0  0
  187.2760  177.4330  147.2160 C   0  0  0  0  0  3  0  0  0  0  0  0
  186.1750  177.8170  142.6430 C   0  0  0  0  0  0  0  0  0  0  0  0
  185.1730  179.0490  143.4820 S   0  0  0  0  0  0  0  0  0  0  0  0
  189.6020  174.2220  143.1240 C   0  0  1  0  0  0  0  0  0  0  0  0
  187.5420  176.9190  145.9390 C   0  0  0  0  0  3  0  0  0  0  0  0
  189.4940  174.0510  141.6270 C   0  0  0  0  0  3  0  0  0  0  0  0
  187.8340  175.8210  141.4670 C   0  0  0  0  0  0  0  0  0  0  0  0
  190.5170  172.6290  144.6660 C   0  0  0  0  0  2  0  0  0  0  0  0
  192.4470  173.8400  145.2240 C   0  0  0  0  0  3  0  0  0  0  0  0
  193.5630  174.7300  144.7080 C   0  0  0  0  0  2  0  0  0  0  0  0
  193.8590  173.2960  145.0870 C   0  0  0  0  0  2  0  0  0  0  0  0
  1  4  1  0  0  0  0
  2  1  1  0  0  0  0
  2 14  2  0  0  0  0
  3 16  2  0  0  0  0
  4  9  2  0  0  0  0
  4 19  1  0  0  0  0
  5  6  1  0  0  0  0
  6 22  1  0  0  0  0
  6 23  1  1  0  0  0
  8  3  1  0  0  0  0
  8 21  2  0  0  0  0
  9 10  1  0  0  0  0
 10  7  2  0  0  0  0
 11 21  1  0  0  0  0
 11 20  2  0  0  0  0
 12 11  1  0  0  0  0
 13 22  1  0  0  0  0
 15  7  1  0  0  0  0
 16 17  1  0  0  0  0
 16  1  1  0  0  0  0
 17  9  1  0  0  0  0
 18 20  1  6  0  0  0
 18  5  1  0  0  0  0
 18 14  1  0  0  0  0
 18 13  1  0  0  0  0
 19 15  2  0  0  0  0
 21  2  1  0  0  0  0
 24 25  1  0  0  0  0
 24 23  1  0  0  0  0
 25 23  1  0  0  0  0
M  END
>  <MODEL>
6

>  <REMARK>
 VINA RESULT:      -7.2      2.564      4.872
  Name = 
  1 active torsions:
  status: ('A' for Active; 'I' for Inactive)
    1  A    between atoms: C_2  and  N_7
                            x       y       z     vdW  Elec       q    Type
                         _______ _______ _______ _____ _____    ______ ____

>  <TORSDO>
F 1

$$$$
=
 OpenBabel11052417333D

 25 30  0  0  1  0  0  0  0  0999 V2000
  189.8660  176.0790  144.2250 N   0  0  0  0  0  0  0  0  0  0  0  0
  188.6940  176.5400  143.5300 C   0  0  0  0  0  0  0  0  0  0  0  0
  190.5540  174.7330  142.3570 C   0  0  0  0  0  3  0  0  0  0  0  0
  190.3210  176.3850  145.5380 C   0  0  0  0  0  0  0  0  0  0  0  0
  185.3620  177.4970  144.1910 C   0  0  0  0  0  2  0  0  0  0  0  0
  184.5540  178.6930  144.3900 N   0  0  2  0  0  0  0  0  0  0  0  0
  191.4560  176.7910  148.0490 C   0  0  0  0  0  3  0  0  0  0  0  0
  189.3590  175.1900  141.6110 C   0  0  0  0  0  3  0  0  0  0  0  0
  191.5040  175.7430  145.8790 C   0  0  0  0  0  0  0  0  0  0  0  0
  192.0850  175.9360  147.1330 C   0  0  0  0  0  3  0  0  0  0  0  0
  187.2920  176.4980  141.4030 C   0  0  0  0  0  0  0  0  0  0  0  0
  187.0660  176.0570  140.1050 O   0  0  0  0  0  1  0  0  0  0  0  0
  186.5870  179.3830  143.3370 C   0  0  0  0  0  2  0  0  0  0  0  0
  187.8220  177.3860  144.0850 C   0  0  0  0  0  3  0  0  0  0  0  0
  190.2590  177.4410  147.7050 C   0  0  0  0  0  3  0  0  0  0  0  0
  190.7710  175.1720  143.6000 C   0  0  0  0  0  0  0  0  0  0  0  0
  192.1830  174.6840  144.5950 S   0  0  0  0  0  0  0  0  0  0  0  0
  186.5820  177.8750  143.3740 C   0  0  1  0  0  0  0  0  0  0  0  0
  189.6840  177.2400  146.4430 C   0  0  0  0  0  3  0  0  0  0  0  0
  186.4270  177.3430  141.9680 C   0  0  0  0  0  3  0  0  0  0  0  0
  188.4740  176.0430  142.1540 C   0  0  0  0  0  0  0  0  0  0  0  0
  185.4870  179.8060  144.2820 C   0  0  0  0  0  2  0  0  0  0  0  0
  184.0660  178.6660  145.7620 C   0  0  0  0  0  3  0  0  0  0  0  0
  185.2280  178.8640  146.7190 C   0  0  0  0  0  2  0  0  0  0  0  0
  184.6670  177.4780  146.4930 C   0  0  0  0  0  2  0  0  0  0  0  0
  1  4  1  0  0  0  0
  2 14  2  0  0  0  0
  2  1  1  0  0  0  0
  3 16  2  0  0  0  0
  4  9  2  0  0  0  0
  4 19  1  0  0  0  0
  5  6  1  0  0  0  0
  6 23  1  1  0  0  0
  8 21  2  0  0  0  0
  8  3  1  0  0  0  0
  9 10  1  0  0  0  0
 10  7  2  0  0  0  0
 11 20  2  0  0  0  0
 11 21  1  0  0  0  0
 12 11  1  0  0  0  0
 13 18  1  0  0  0  0
 13 22  1  0  0  0  0
 15  7  1  0  0  0  0
 16  1  1  0  0  0  0
 16 17  1  0  0  0  0
 17  9  1  0  0  0  0
 18 20  1  6  0  0  0
 18 14  1  0  0  0  0
 18  5  1  0  0  0  0
 19 15  2  0  0  0  0
 21  2  1  0  0  0  0
 22  6  1  0  0  0  0
 23 25  1  0  0  0  0
 23 24  1  0  0  0  0
 25 24  1  0  0  0  0
M  END
>  <MODEL>
7

>  <REMARK>
 VINA RESULT:      -6.8      3.139      7.035
  Name = 
  1 active torsions:
  status: ('A' for Active; 'I' for Inactive)
    1  A    between atoms: C_2  and  N_7
                            x       y       z     vdW  Elec       q    Type
                         _______ _______ _______ _____ _____    ______ ____

>  <TORSDO>
F 1

$$$$
=
 OpenBabel11052417333D

 25 30  0  0  1  0  0  0  0  0999 V2000
  191.3630  173.9310  144.1010 N   0  0  0  0  0  0  0  0  0  0  0  0
  190.1050  174.2580  143.4850 C   0  0  0  0  0  0  0  0  0  0  0  0
  191.2110  171.6370  143.4010 C   0  0  0  0  0  3  0  0  0  0  0  0
  192.2590  174.7620  144.8320 C   0  0  0  0  0  0  0  0  0  0  0  0
  187.3370  176.3940  143.9630 C   0  0  0  0  0  2  0  0  0  0  0  0
  186.8120  177.6750  143.5060 N   0  0  2  0  0  0  0  0  0  0  0  0
  194.1930  176.1300  146.2960 C   0  0  0  0  0  3  0  0  0  0  0  0
  189.9150  171.9400  142.7530 C   0  0  0  0  0  3  0  0  0  0  0  0
  193.3860  174.0940  145.2890 C   0  0  0  0  0  0  0  0  0  0  0  0
  194.3650  174.7660  146.0240 C   0  0  0  0  0  3  0  0  0  0  0  0
  188.0970  173.4670  142.1330 C   0  0  0  0  0  0  0  0  0  0  0  0
  187.4010  172.4700  141.4580 O   0  0  0  0  0  1  0  0  0  0  0  0
  188.4670  176.9850  141.9230 C   0  0  0  0  0  2  0  0  0  0  0  0
  189.5880  175.4890  143.5290 C   0  0  0  0  0  3  0  0  0  0  0  0
  193.0520  176.8070  145.8330 C   0  0  0  0  0  3  0  0  0  0  0  0
  191.8800  172.6040  144.0360 C   0  0  0  0  0  0  0  0  0  0  0  0
  193.4570  172.3500  144.8570 S   0  0  0  0  0  0  0  0  0  0  0  0
  188.2650  175.8490  142.8950 C   0  0  1  0  0  0  0  0  0  0  0  0
  192.0750  176.1220  145.0960 C   0  0  0  0  0  3  0  0  0  0  0  0
  187.5890  174.7000  142.1830 C   0  0  0  0  0  3  0  0  0  0  0  0
  189.3830  173.1730  142.7860 C   0  0  0  0  0  0  0  0  0  0  0  0
  187.8040  178.1800  142.5670 C   0  0  0  0  0  2  0  0  0  0  0  0
  186.7980  178.5730  144.6510 C   0  0  0  0  0  3  0  0  0  0  0  0
  185.9150  177.9950  145.7420 C   0  0  0  0  0  2  0  0  0  0  0  0
  185.3930  179.1090  144.8620 C   0  0  0  0  0  2  0  0  0  0  0  0
  1  4  1  0  0  0  0
  2 14  2  0  0  0  0
  2  1  1  0  0  0  0
  3 16  2  0  0  0  0
  4 19  2  0  0  0  0
  4  9  1  0  0  0  0
  6  5  1  0  0  0  0
  6 23  1  1  0  0  0
  8 21  2  0  0  0  0
  8  3  1  0  0  0  0
  9 10  2  0  0  0  0
 10  7  1  0  0  0  0
 11 20  2  0  0  0  0
 11 21  1  0  0  0  0
 12 11  1  0  0  0  0
 13 22  1  0  0  0  0
 15  7  2  0  0  0  0
 16  1  1  0  0  0  0
 16 17  1  0  0  0  0
 17  9  1  0  0  0  0
 18 13  1  6  0  0  0
 18 14  1  0  0  0  0
 18  5  1  0  0  0  0
 19 15  1  0  0  0  0
 20 18  1  0  0  0  0
 21  2  1  0  0  0  0
 22  6  1  0  0  0  0
 23 25  1  0  0  0  0
 23 24  1  0  0  0  0
 25 24  1  0  0  0  0
M  END
>  <MODEL>
8

>  <REMARK>
 VINA RESULT:      -6.8      3.686      7.720
  Name = 
  1 active torsions:
  status: ('A' for Active; 'I' for Inactive)
    1  A    between atoms: C_2  and  N_7
                            x       y       z     vdW  Elec       q    Type
                         _______ _______ _______ _____ _____    ______ ____

>  <TORSDO>
F 1

$$$$
=
 OpenBabel11052417333D

 25 30  0  0  1  0  0  0  0  0999 V2000
  189.9030  175.4420  143.7090 N   0  0  0  0  0  0  0  0  0  0  0  0
  190.9620  175.5970  144.6700 C   0  0  0  0  0  0  0  0  0  0  0  0
  188.3020  176.4750  145.1740 C   0  0  0  0  0  3  0  0  0  0  0  0
  189.9340  174.8620  142.4090 C   0  0  0  0  0  0  0  0  0  0  0  0
  193.8960  173.9570  145.7450 C   0  0  0  0  0  2  0  0  0  0  0  0
  195.3410  174.0000  145.5610 N   0  0  2  0  0  0  0  0  0  0  0  0
  189.6860  173.7950  139.8490 C   0  0  0  0  0  3  0  0  0  0  0  0
  189.3700  176.6540  146.1840 C   0  0  0  0  0  3  0  0  0  0  0  0
  188.7050  174.8810  141.7640 C   0  0  0  0  0  0  0  0  0  0  0  0
  188.5650  174.3500  140.4810 C   0  0  0  0  0  3  0  0  0  0  0  0
  191.6860  176.4320  146.9650 C   0  0  0  0  0  0  0  0  0  0  0  0
  191.4050  177.0470  148.1790 O   0  0  0  0  0  1  0  0  0  0  0  0
  194.4690  176.0920  144.7970 C   0  0  0  0  0  2  0  0  0  0  0  0
  192.2080  175.1810  144.4300 C   0  0  0  0  0  3  0  0  0  0  0  0
  190.9310  173.7770  140.5010 C   0  0  0  0  0  3  0  0  0  0  0  0
  188.5840  175.8950  144.0040 C   0  0  0  0  0  0  0  0  0  0  0  0
  187.3690  175.6260  142.7080 S   0  0  0  0  0  0  0  0  0  0  0  0
  193.3320  175.3280  145.4290 C   0  0  1  0  0  0  0  0  0  0  0  0
  191.0600  174.3120  141.7900 C   0  0  0  0  0  3  0  0  0  0  0  0
  192.9280  176.0120  146.7150 C   0  0  0  0  0  3  0  0  0  0  0  0
  190.6290  176.2440  145.9570 C   0  0  0  0  0  0  0  0  0  0  0  0
  195.5710  175.0760  144.6060 C   0  0  0  0  0  2  0  0  0  0  0  0
  195.7350  172.7560  144.9160 C   0  0  0  0  0  3  0  0  0  0  0  0
  195.2860  171.5790  145.7640 C   0  0  0  0  0  2  0  0  0  0  0  0
  196.7330  172.0210  145.7940 C   0  0  0  0  0  2  0  0  0  0  0  0
  1 16  1  0  0  0  0
  1  2  1  0  0  0  0
  2 21  1  0  0  0  0
  3  8  1  0  0  0  0
  4  1  1  0  0  0  0
  6 23  1  6  0  0  0
  6  5  1  0  0  0  0
  7 10  2  0  0  0  0
  7 15  1  0  0  0  0
  9  4  2  0  0  0  0
  9 17  1  0  0  0  0
 10  9  1  0  0  0  0
 11 12  1  0  0  0  0
 13 18  1  0  0  0  0
 14  2  2  0  0  0  0
 15 19  2  0  0  0  0
 16  3  2  0  0  0  0
 17 16  1  0  0  0  0
 18 14  1  6  0  0  0
 18  5  1  0  0  0  0
 18 20  1  0  0  0  0
 19  4  1  0  0  0  0
 20 11  2  0  0  0  0
 21  8  2  0  0  0  0
 21 11  1  0  0  0  0
 22 13  1  0  0  0  0
 22  6  1  0  0  0  0
 23 24  1  0  0  0  0
 23 25  1  0  0  0  0
 24 25  1  0  0  0  0
M  END
>  <MODEL>
9

>  <REMARK>
 VINA RESULT:      -6.6      3.451      5.033
  Name = 
  1 active torsions:
  status: ('A' for Active; 'I' for Inactive)
    1  A    between atoms: C_2  and  N_7
                            x       y       z     vdW  Elec       q    Type
                         _______ _______ _______ _____ _____    ______ ____

>  <TORSDO>
F 1

$$$$
