=
 OpenBabel11052418233D

 27 30  0  0  0  0  0  0  0  0999 V2000
  190.4740  173.7410  144.2190 C   0  0  0  0  0  2  0  0  0  0  0  0
  188.5530  175.2140  143.4620 C   0  0  0  0  0  0  0  0  0  0  0  0
  189.5120  175.9720  145.5790 O   0  0  0  0  0  0  0  0  0  0  0  0
  185.1360  177.5630  144.1030 C   0  0  0  0  0  3  0  0  0  0  0  0
  183.8660  179.0410  145.4740 F   0  0  0  0  0  0  0  0  0  0  0  0
  187.5030  175.2930  142.5330 C   0  0  0  0  0  3  0  0  0  0  0  0
  187.1360  177.5110  146.0550 C   0  0  0  0  0  3  0  0  0  0  0  0
  191.6790  175.7820  147.5080 C   0  0  0  0  0  2  0  0  0  0  0  0
  185.9810  178.2710  146.2560 C   0  0  0  0  0  3  0  0  0  0  0  0
  192.8410  176.0830  146.5730 C   0  0  0  0  0  2  0  0  0  0  0  0
  188.4660  175.9910  144.6470 C   0  0  0  0  0  0  0  0  0  0  0  0
  189.6910  174.3740  143.1570 N   0  0  0  0  0  0  0  0  0  0  0  0
  184.9840  178.3010  145.2790 C   0  0  0  0  0  0  0  0  0  0  0  0
  186.2880  176.7980  143.8980 C   0  0  0  0  0  0  0  0  0  0  0  0
  191.8430  174.3850  144.3330 C   0  0  0  0  0  2  0  0  0  0  0  0
  187.3100  176.7750  144.8720 C   0  0  0  0  0  0  0  0  0  0  0  0
  190.6650  176.9160  147.5070 C   0  0  0  0  0  2  0  0  0  0  0  0
  186.4150  176.0690  142.7630 N   0  0  0  0  0  0  0  0  0  0  0  0
  193.5420  174.7970  146.1380 C   0  0  0  0  0  2  0  0  0  0  0  0
  192.5710  173.7910  145.5240 C   0  0  0  0  0  2  0  0  0  0  0  0
  190.0660  177.1660  146.1250 C   0  0  0  0  0  2  0  0  0  0  0  0
  191.4390  172.3630  139.9540 O   0  0  0  0  0  0  0  0  0  0  0  0
  189.9300  173.9750  141.7650 C   0  0  0  0  0  3  0  0  0  0  0  0
  189.6480  172.4860  141.5530 C   0  0  0  0  0  2  0  0  0  0  0  0
  190.0700  172.0980  140.1370 C   0  0  0  0  0  2  0  0  0  0  0  0
  191.5780  173.7630  139.9120 C   0  0  0  0  0  2  0  0  0  0  0  0
  191.3390  174.3520  141.3020 C   0  0  0  0  0  2  0  0  0  0  0  0
  1 15  1  0  0  0  0
  2 11  1  0  0  0  0
  3 21  1  0  0  0  0
  4 13  2  0  0  0  0
  6 18  1  0  0  0  0
  6  2  2  0  0  0  0
  7  9  2  0  0  0  0
 10  8  1  0  0  0  0
 11 16  2  0  0  0  0
 11  3  1  0  0  0  0
 12  2  1  0  0  0  0
 12  1  1  0  0  0  0
 13  5  1  0  0  0  0
 13  9  1  0  0  0  0
 14  4  1  0  0  0  0
 14 16  1  0  0  0  0
 15 20  1  0  0  0  0
 16  7  1  0  0  0  0
 17  8  1  0  0  0  0
 18 14  2  0  0  0  0
 19 10  1  0  0  0  0
 20 19  1  0  0  0  0
 21 17  1  0  0  0  0
 22 25  1  0  0  0  0
 23 12  1  0  0  0  0
 24 23  1  0  0  0  0
 25 24  1  0  0  0  0
 26 22  1  0  0  0  0
 26 27  1  0  0  0  0
 27 23  1  0  0  0  0
M  END
>  <MODEL>
1

>  <REMARK>
 VINA RESULT:      -8.0      0.000      0.000
  Name = 
  1 active torsions:
  status: ('A' for Active; 'I' for Inactive)
    1  A    between atoms: C_9  and  N_15
                            x       y       z     vdW  Elec       q    Type
                         _______ _______ _______ _____ _____    ______ ____

>  <TORSDO>
F 1

$$$$
=
 OpenBabel11052418233D

 27 30  0  0  0  0  0  0  0  0999 V2000
  189.0570  177.5580  145.2700 C   0  0  0  0  0  2  0  0  0  0  0  0
  188.2750  176.1540  143.3090 C   0  0  0  0  0  0  0  0  0  0  0  0
  190.4540  175.4300  144.1450 O   0  0  0  0  0  0  0  0  0  0  0  0
  188.8560  174.0020  139.7550 C   0  0  0  0  0  3  0  0  0  0  0  0
  190.2260  172.6400  138.3590 F   0  0  0  0  0  0  0  0  0  0  0  0
  187.3060  176.0910  142.2940 C   0  0  0  0  0  3  0  0  0  0  0  0
  190.8870  174.0290  141.6760 C   0  0  0  0  0  3  0  0  0  0  0  0
  192.4640  175.5860  146.2400 C   0  0  0  0  0  2  0  0  0  0  0  0
  191.0670  173.3340  140.4770 C   0  0  0  0  0  3  0  0  0  0  0  0
  191.5880  175.1940  147.4220 C   0  0  0  0  0  2  0  0  0  0  0  0
  189.4810  175.4270  143.1360 C   0  0  0  0  0  0  0  0  0  0  0  0
  187.9870  176.9250  144.4990 N   0  0  0  0  0  0  0  0  0  0  0  0
  190.0510  173.3160  139.5200 C   0  0  0  0  0  0  0  0  0  0  0  0
  188.6720  174.7010  140.9510 C   0  0  0  0  0  0  0  0  0  0  0  0
  189.2500  176.8530  146.5990 C   0  0  0  0  0  2  0  0  0  0  0  0
  189.6870  174.7100  141.9340 C   0  0  0  0  0  0  0  0  0  0  0  0
  192.4610  174.5030  145.1710 C   0  0  0  0  0  2  0  0  0  0  0  0
  187.5180  175.3790  141.1590 N   0  0  0  0  0  0  0  0  0  0  0  0
  191.1370  176.4260  148.2030 C   0  0  0  0  0  2  0  0  0  0  0  0
  190.4480  177.4550  147.3090 C   0  0  0  0  0  2  0  0  0  0  0  0
  191.0650  174.2320  144.6150 C   0  0  0  0  0  2  0  0  0  0  0  0
  184.7820  178.6320  146.5430 O   0  0  0  0  0  0  0  0  0  0  0  0
  186.5920  177.2590  144.8120 C   0  0  0  0  0  3  0  0  0  0  0  0
  186.3430  178.7660  144.7190 C   0  0  0  0  0  2  0  0  0  0  0  0
  184.9290  179.0670  145.2130 C   0  0  0  0  0  2  0  0  0  0  0  0
  184.7740  177.2260  146.5110 C   0  0  0  0  0  2  0  0  0  0  0  0
  186.1690  176.7030  146.1740 C   0  0  0  0  0  2  0  0  0  0  0  0
  1 15  1  0  0  0  0
  2 12  1  0  0  0  0
  3 21  1  0  0  0  0
  4 14  1  0  0  0  0
  5 13  1  0  0  0  0
  6  2  2  0  0  0  0
  7 16  1  0  0  0  0
  8 10  1  0  0  0  0
  9  7  2  0  0  0  0
 10 19  1  0  0  0  0
 11  2  1  0  0  0  0
 11  3  1  0  0  0  0
 12 23  1  0  0  0  0
 12  1  1  0  0  0  0
 13  4  2  0  0  0  0
 13  9  1  0  0  0  0
 14 18  2  0  0  0  0
 14 16  1  0  0  0  0
 15 20  1  0  0  0  0
 16 11  2  0  0  0  0
 17  8  1  0  0  0  0
 18  6  1  0  0  0  0
 20 19  1  0  0  0  0
 21 17  1  0  0  0  0
 23 27  1  0  0  0  0
 24 23  1  0  0  0  0
 24 25  1  0  0  0  0
 25 22  1  0  0  0  0
 26 22  1  0  0  0  0
 27 26  1  0  0  0  0
M  END
>  <MODEL>
2

>  <REMARK>
 VINA RESULT:      -8.0      2.755      6.176
  Name = 
  1 active torsions:
  status: ('A' for Active; 'I' for Inactive)
    1  A    between atoms: C_9  and  N_15
                            x       y       z     vdW  Elec       q    Type
                         _______ _______ _______ _____ _____    ______ ____

>  <TORSDO>
F 1

$$$$
=
 OpenBabel11052418233D

 27 30  0  0  0  0  0  0  0  0999 V2000
  187.6280  175.9370  144.8080 C   0  0  0  0  0  2  0  0  0  0  0  0
  189.1600  174.9080  143.0690 C   0  0  0  0  0  0  0  0  0  0  0  0
  187.3850  176.2460  142.0520 O   0  0  0  0  0  0  0  0  0  0  0  0
  189.9710  173.0740  139.3840 C   0  0  0  0  0  3  0  0  0  0  0  0
  189.4710  172.7540  137.0760 F   0  0  0  0  0  0  0  0  0  0  0  0
  190.1890  173.9670  142.9010 C   0  0  0  0  0  3  0  0  0  0  0  0
  187.8830  174.9260  139.5510 C   0  0  0  0  0  3  0  0  0  0  0  0
  185.2410  178.1760  142.4150 C   0  0  0  0  0  2  0  0  0  0  0  0
  188.1590  174.2890  138.3380 C   0  0  0  0  0  3  0  0  0  0  0  0
  186.0420  179.2790  143.0910 C   0  0  0  0  0  2  0  0  0  0  0  0
  188.3920  175.2780  141.9340 C   0  0  0  0  0  0  0  0  0  0  0  0
  188.9520  175.4860  144.3790 N   0  0  0  0  0  0  0  0  0  0  0  0
  189.2040  173.3690  138.2530 C   0  0  0  0  0  0  0  0  0  0  0  0
  189.6980  173.7060  140.6010 C   0  0  0  0  0  0  0  0  0  0  0  0
  187.5750  177.4520  144.8820 C   0  0  0  0  0  2  0  0  0  0  0  0
  188.6540  174.6530  140.6930 C   0  0  0  0  0  0  0  0  0  0  0  0
  185.8240  177.8280  141.0530 C   0  0  0  0  0  2  0  0  0  0  0  0
  190.4340  173.3980  141.6950 N   0  0  0  0  0  0  0  0  0  0  0  0
  185.8440  179.2520  144.6050 C   0  0  0  0  0  2  0  0  0  0  0  0
  186.1560  177.8820  145.2030 C   0  0  0  0  0  2  0  0  0  0  0  0
  187.2660  177.3350  141.1420 C   0  0  0  0  0  2  0  0  0  0  0  0
  191.2000  176.5160  147.7330 O   0  0  0  0  0  0  0  0  0  0  0  0
  190.0340  175.4170  145.3690 C   0  0  0  0  0  3  0  0  0  0  0  0
  189.4920  175.1240  146.7700 C   0  0  0  0  0  2  0  0  0  0  0  0
  190.6380  175.2270  147.7760 C   0  0  0  0  0  2  0  0  0  0  0  0
  191.8910  176.6160  146.5120 C   0  0  0  0  0  2  0  0  0  0  0  0
  190.8970  176.6800  145.3540 C   0  0  0  0  0  2  0  0  0  0  0  0
  1 15  1  0  0  0  0
  2 12  1  0  0  0  0
  4 14  1  0  0  0  0
  5 13  1  0  0  0  0
  6  2  1  0  0  0  0
  7 16  1  0  0  0  0
  8 10  1  0  0  0  0
  9  7  2  0  0  0  0
 10 19  1  0  0  0  0
 11  3  1  0  0  0  0
 11  2  2  0  0  0  0
 12  1  1  0  0  0  0
 12 23  1  0  0  0  0
 13  9  1  0  0  0  0
 13  4  2  0  0  0  0
 14 16  2  0  0  0  0
 14 18  1  0  0  0  0
 15 20  1  0  0  0  0
 16 11  1  0  0  0  0
 17 21  1  0  0  0  0
 17  8  1  0  0  0  0
 18  6  2  0  0  0  0
 19 20  1  0  0  0  0
 21  3  1  0  0  0  0
 22 25  1  0  0  0  0
 23 24  1  0  0  0  0
 24 25  1  0  0  0  0
 26 22  1  0  0  0  0
 27 23  1  0  0  0  0
 27 26  1  0  0  0  0
M  END
>  <MODEL>
3

>  <REMARK>
 VINA RESULT:      -7.9      3.053      6.777
  Name = 
  1 active torsions:
  status: ('A' for Active; 'I' for Inactive)
    1  A    between atoms: C_9  and  N_15
                            x       y       z     vdW  Elec       q    Type
                         _______ _______ _______ _____ _____    ______ ____

>  <TORSDO>
F 1

$$$$
=
 OpenBabel11052418233D

 27 30  0  0  0  0  0  0  0  0999 V2000
  187.9720  177.1520  142.0950 C   0  0  0  0  0  2  0  0  0  0  0  0
  189.4070  176.2470  143.9800 C   0  0  0  0  0  0  0  0  0  0  0  0
  187.7370  177.8410  144.7820 O   0  0  0  0  0  0  0  0  0  0  0  0
  191.5390  176.5810  147.5780 C   0  0  0  0  0  3  0  0  0  0  0  0
  191.8340  177.5690  149.7260 F   0  0  0  0  0  0  0  0  0  0  0  0
  190.5690  175.5040  144.2440 C   0  0  0  0  0  3  0  0  0  0  0  0
  189.2440  178.1340  147.2080 C   0  0  0  0  0  3  0  0  0  0  0  0
  185.3440  179.3940  144.2170 C   0  0  0  0  0  2  0  0  0  0  0  0
  189.9800  178.2430  148.3910 C   0  0  0  0  0  3  0  0  0  0  0  0
  184.4310  178.2530  143.7900 C   0  0  0  0  0  2  0  0  0  0  0  0
  188.9170  177.1150  144.9900 C   0  0  0  0  0  0  0  0  0  0  0  0
  188.7390  176.0680  142.7080 N   0  0  0  0  0  0  0  0  0  0  0  0
  191.1230  177.4630  148.5780 C   0  0  0  0  0  0  0  0  0  0  0  0
  190.8080  176.4700  146.3910 C   0  0  0  0  0  0  0  0  0  0  0  0
  186.4860  176.8520  142.1440 C   0  0  0  0  0  2  0  0  0  0  0  0
  189.6400  177.2400  146.2000 C   0  0  0  0  0  0  0  0  0  0  0  0
  185.8780  179.1720  145.6250 C   0  0  0  0  0  2  0  0  0  0  0  0
  191.2320  175.6260  145.4200 N   0  0  0  0  0  0  0  0  0  0  0  0
  184.3440  178.1600  142.2680 C   0  0  0  0  0  2  0  0  0  0  0  0
  185.7210  178.0530  141.6180 C   0  0  0  0  0  2  0  0  0  0  0  0
  186.6900  177.8860  145.7480 C   0  0  0  0  0  2  0  0  0  0  0  0
  187.9650  172.7490  140.3110 O   0  0  0  0  0  0  0  0  0  0  0  0
  189.0170  174.8610  141.9210 C   0  0  0  0  0  3  0  0  0  0  0  0
  188.6400  175.0520  140.4500 C   0  0  0  0  0  2  0  0  0  0  0  0
  188.7950  173.7190  139.7210 C   0  0  0  0  0  2  0  0  0  0  0  0
  188.5240  172.4470  141.5660 C   0  0  0  0  0  2  0  0  0  0  0  0
  188.3360  173.6270  142.5190 C   0  0  0  0  0  2  0  0  0  0  0  0
  1 15  1  0  0  0  0
  1 12  1  0  0  0  0
  2  6  2  0  0  0  0
  2 11  1  0  0  0  0
  3 11  1  0  0  0  0
  3 21  1  0  0  0  0
  4 13  2  0  0  0  0
  6 18  1  0  0  0  0
  7  9  2  0  0  0  0
  8 17  1  0  0  0  0
  9 13  1  0  0  0  0
 10  8  1  0  0  0  0
 11 16  2  0  0  0  0
 12  2  1  0  0  0  0
 13  5  1  0  0  0  0
 14  4  1  0  0  0  0
 16 14  1  0  0  0  0
 16  7  1  0  0  0  0
 17 21  1  0  0  0  0
 18 14  2  0  0  0  0
 19 10  1  0  0  0  0
 20 15  1  0  0  0  0
 20 19  1  0  0  0  0
 22 26  1  0  0  0  0
 23 27  1  0  0  0  0
 23 12  1  0  0  0  0
 24 23  1  0  0  0  0
 25 22  1  0  0  0  0
 25 24  1  0  0  0  0
 26 27  1  0  0  0  0
M  END
>  <MODEL>
4

>  <REMARK>
 VINA RESULT:      -7.8      2.570      5.449
  Name = 
  1 active torsions:
  status: ('A' for Active; 'I' for Inactive)
    1  A    between atoms: C_9  and  N_15
                            x       y       z     vdW  Elec       q    Type
                         _______ _______ _______ _____ _____    ______ ____

>  <TORSDO>
F 1

$$$$
=
 OpenBabel11052418233D

 27 30  0  0  0  0  0  0  0  0999 V2000
  187.4250  176.1870  146.1560 C   0  0  0  0  0  2  0  0  0  0  0  0
  188.1970  176.1370  143.7420 C   0  0  0  0  0  0  0  0  0  0  0  0
  186.2820  177.6210  144.0620 O   0  0  0  0  0  0  0  0  0  0  0  0
  187.5750  176.1330  139.5920 C   0  0  0  0  0  3  0  0  0  0  0  0
  186.2990  176.7880  137.6890 F   0  0  0  0  0  0  0  0  0  0  0  0
  189.0380  175.4510  142.8500 C   0  0  0  0  0  3  0  0  0  0  0  0
  185.8060  177.5470  141.2320 C   0  0  0  0  0  3  0  0  0  0  0  0
  184.5320  179.0180  145.9180 C   0  0  0  0  0  2  0  0  0  0  0  0
  185.6060  177.5160  139.8490 C   0  0  0  0  0  3  0  0  0  0  0  0
  185.5920  179.7910  146.6890 C   0  0  0  0  0  2  0  0  0  0  0  0
  187.1180  176.8890  143.2090 C   0  0  0  0  0  0  0  0  0  0  0  0
  188.4890  176.0790  145.1580 N   0  0  0  0  0  0  0  0  0  0  0  0
  186.4930  176.8150  139.0300 C   0  0  0  0  0  0  0  0  0  0  0  0
  187.7770  176.1570  140.9750 C   0  0  0  0  0  0  0  0  0  0  0  0
  187.5080  177.5140  146.8880 C   0  0  0  0  0  2  0  0  0  0  0  0
  186.8960  176.8800  141.8110 C   0  0  0  0  0  0  0  0  0  0  0  0
  184.5920  179.3370  144.4310 C   0  0  0  0  0  2  0  0  0  0  0  0
  188.8170  175.4760  141.5120 N   0  0  0  0  0  0  0  0  0  0  0  0
  185.9190  179.1020  148.0130 C   0  0  0  0  0  2  0  0  0  0  0  0
  186.3170  177.6400  147.8190 C   0  0  0  0  0  2  0  0  0  0  0  0
  185.9390  178.9810  143.8080 C   0  0  0  0  0  2  0  0  0  0  0  0
  191.9900  176.1200  147.4170 O   0  0  0  0  0  0  0  0  0  0  0  0
  189.8340  175.6870  145.5930 C   0  0  0  0  0  3  0  0  0  0  0  0
  189.8250  175.1500  147.0260 C   0  0  0  0  0  2  0  0  0  0  0  0
  191.2660  174.9160  147.4780 C   0  0  0  0  0  2  0  0  0  0  0  0
  192.1690  176.4160  146.0530 C   0  0  0  0  0  2  0  0  0  0  0  0
  190.8370  176.8310  145.4290 C   0  0  0  0  0  2  0  0  0  0  0  0
  1 15  1  0  0  0  0
  2 12  1  0  0  0  0
  4 14  1  0  0  0  0
  5 13  1  0  0  0  0
  6  2  2  0  0  0  0
  7 16  1  0  0  0  0
  8 10  1  0  0  0  0
  9  7  2  0  0  0  0
 10 19  1  0  0  0  0
 11  2  1  0  0  0  0
 11  3  1  0  0  0  0
 12 23  1  0  0  0  0
 12  1  1  0  0  0  0
 13  4  2  0  0  0  0
 13  9  1  0  0  0  0
 14 18  2  0  0  0  0
 14 16  1  0  0  0  0
 15 20  1  0  0  0  0
 16 11  2  0  0  0  0
 17  8  1  0  0  0  0
 18  6  1  0  0  0  0
 20 19  1  0  0  0  0
 21  3  1  0  0  0  0
 21 17  1  0  0  0  0
 22 25  1  0  0  0  0
 23 24  1  0  0  0  0
 24 25  1  0  0  0  0
 26 22  1  0  0  0  0
 27 23  1  0  0  0  0
 27 26  1  0  0  0  0
M  END
>  <MODEL>
5

>  <REMARK>
 VINA RESULT:      -7.5      3.170      5.866
  Name = 
  1 active torsions:
  status: ('A' for Active; 'I' for Inactive)
    1  A    between atoms: C_9  and  N_15
                            x       y       z     vdW  Elec       q    Type
                         _______ _______ _______ _____ _____    ______ ____

>  <TORSDO>
F 1

$$$$
=
 OpenBabel11052418233D

 27 30  0  0  0  0  0  0  0  0999 V2000
  190.0220  175.1450  145.1520 C   0  0  0  0  0  2  0  0  0  0  0  0
  190.9430  174.6270  142.8470 C   0  0  0  0  0  0  0  0  0  0  0  0
  188.6030  175.3300  142.7640 O   0  0  0  0  0  0  0  0  0  0  0  0
  190.6820  173.0970  138.9490 C   0  0  0  0  0  3  0  0  0  0  0  0
  189.4050  172.6100  136.9970 F   0  0  0  0  0  0  0  0  0  0  0  0
  192.0390  174.0530  142.1830 C   0  0  0  0  0  3  0  0  0  0  0  0
  188.4030  174.2050  140.1310 C   0  0  0  0  0  3  0  0  0  0  0  0
  186.3320  176.4970  144.1560 C   0  0  0  0  0  2  0  0  0  0  0  0
  188.3340  173.6720  138.8410 C   0  0  0  0  0  3  0  0  0  0  0  0
  186.9810  177.8030  144.5910 C   0  0  0  0  0  2  0  0  0  0  0  0
  189.7090  174.7250  142.1520 C   0  0  0  0  0  0  0  0  0  0  0  0
  191.1270  175.1260  144.1930 N   0  0  0  0  0  0  0  0  0  0  0  0
  189.4730  173.1240  138.2490 C   0  0  0  0  0  0  0  0  0  0  0  0
  190.7560  173.6250  140.2410 C   0  0  0  0  0  0  0  0  0  0  0  0
  189.5670  176.5680  145.4180 C   0  0  0  0  0  2  0  0  0  0  0  0
  189.6130  174.1990  140.8420 C   0  0  0  0  0  0  0  0  0  0  0  0
  186.3860  176.3340  142.6440 C   0  0  0  0  0  2  0  0  0  0  0  0
  191.9270  173.5750  140.9190 N   0  0  0  0  0  0  0  0  0  0  0  0
  187.4320  177.7330  146.0490 C   0  0  0  0  0  2  0  0  0  0  0  0
  188.3430  176.5360  146.3130 C   0  0  0  0  0  2  0  0  0  0  0  0
  187.8140  176.3170  142.1060 C   0  0  0  0  0  2  0  0  0  0  0  0
  194.1300  176.7560  146.5760 O   0  0  0  0  0  0  0  0  0  0  0  0
  192.4860  175.4090  144.6680 C   0  0  0  0  0  3  0  0  0  0  0  0
  192.7030  174.8840  146.0890 C   0  0  0  0  0  2  0  0  0  0  0  0
  194.0700  175.3510  146.5880 C   0  0  0  0  0  2  0  0  0  0  0  0
  194.1770  177.1480  145.2260 C   0  0  0  0  0  2  0  0  0  0  0  0
  192.8230  176.8980  144.5630 C   0  0  0  0  0  2  0  0  0  0  0  0
  1 15  1  0  0  0  0
  2 12  1  0  0  0  0
  4 14  1  0  0  0  0
  5 13  1  0  0  0  0
  6  2  1  0  0  0  0
  7 16  1  0  0  0  0
  8 10  1  0  0  0  0
  9  7  2  0  0  0  0
 10 19  1  0  0  0  0
 11  3  1  0  0  0  0
 11  2  2  0  0  0  0
 12 23  1  0  0  0  0
 12  1  1  0  0  0  0
 13  9  1  0  0  0  0
 13  4  2  0  0  0  0
 14 16  2  0  0  0  0
 14 18  1  0  0  0  0
 15 20  1  0  0  0  0
 16 11  1  0  0  0  0
 17  8  1  0  0  0  0
 18  6  2  0  0  0  0
 19 20  1  0  0  0  0
 21 17  1  0  0  0  0
 21  3  1  0  0  0  0
 22 25  1  0  0  0  0
 23 24  1  0  0  0  0
 24 25  1  0  0  0  0
 26 22  1  0  0  0  0
 27 23  1  0  0  0  0
 27 26  1  0  0  0  0
M  END
>  <MODEL>
6

>  <REMARK>
 VINA RESULT:      -7.4      3.060      6.378
  Name = 
  1 active torsions:
  status: ('A' for Active; 'I' for Inactive)
    1  A    between atoms: C_9  and  N_15
                            x       y       z     vdW  Elec       q    Type
                         _______ _______ _______ _____ _____    ______ ____

>  <TORSDO>
F 1

$$$$
=
 OpenBabel11052418233D

 27 30  0  0  0  0  0  0  0  0999 V2000
  188.7150  177.3520  143.7930 C   0  0  0  0  0  2  0  0  0  0  0  0
  187.8530  176.3280  141.6390 C   0  0  0  0  0  0  0  0  0  0  0  0
  189.2890  174.7860  142.8770 O   0  0  0  0  0  0  0  0  0  0  0  0
  188.2180  173.9830  138.1790 C   0  0  0  0  0  3  0  0  0  0  0  0
  189.1500  172.1120  137.0340 F   0  0  0  0  0  0  0  0  0  0  0  0
  187.1900  176.6380  140.4400 C   0  0  0  0  0  3  0  0  0  0  0  0
  189.6080  173.2300  140.4850 C   0  0  0  0  0  3  0  0  0  0  0  0
  190.6780  174.1670  145.3560 C   0  0  0  0  0  2  0  0  0  0  0  0
  189.7300  172.4740  139.3160 C   0  0  0  0  0  3  0  0  0  0  0  0
  189.4880  174.2320  146.3030 C   0  0  0  0  0  2  0  0  0  0  0  0
  188.6460  175.1520  141.6870 C   0  0  0  0  0  0  0  0  0  0  0  0
  187.6700  177.1980  142.7800 N   0  0  0  0  0  0  0  0  0  0  0  0
  189.0320  172.8470  138.1660 C   0  0  0  0  0  0  0  0  0  0  0  0
  188.0950  174.7450  139.3440 C   0  0  0  0  0  0  0  0  0  0  0  0
  188.3030  176.6870  145.0930 C   0  0  0  0  0  2  0  0  0  0  0  0
  188.7830  174.3660  140.5190 C   0  0  0  0  0  0  0  0  0  0  0  0
  190.4470  173.1430  144.2540 C   0  0  0  0  0  2  0  0  0  0  0  0
  187.3200  175.8550  139.3400 N   0  0  0  0  0  0  0  0  0  0  0  0
  189.4430  175.5720  147.0350 C   0  0  0  0  0  2  0  0  0  0  0  0
  189.4610  176.7560  146.0710 C   0  0  0  0  0  2  0  0  0  0  0  0
  189.2220  173.4630  143.4020 C   0  0  0  0  0  2  0  0  0  0  0  0
  184.2450  179.0570  144.2580 O   0  0  0  0  0  0  0  0  0  0  0  0
  186.5150  178.1030  142.8080 C   0  0  0  0  0  3  0  0  0  0  0  0
  186.6290  179.1210  143.9460 C   0  0  0  0  0  2  0  0  0  0  0  0
  185.3300  179.9220  144.0270 C   0  0  0  0  0  2  0  0  0  0  0  0
  184.0500  178.3270  143.0700 C   0  0  0  0  0  2  0  0  0  0  0  0
  185.1940  177.3330  142.8740 C   0  0  0  0  0  2  0  0  0  0  0  0
  1 15  1  0  0  0  0
  2 11  1  0  0  0  0
  2 12  1  0  0  0  0
  3 21  1  0  0  0  0
  4 14  1  0  0  0  0
  5 13  1  0  0  0  0
  6  2  2  0  0  0  0
  7 16  1  0  0  0  0
  8 10  1  0  0  0  0
  9  7  2  0  0  0  0
 10 19  1  0  0  0  0
 11  3  1  0  0  0  0
 12 23  1  0  0  0  0
 12  1  1  0  0  0  0
 13  4  2  0  0  0  0
 13  9  1  0  0  0  0
 14 16  1  0  0  0  0
 15 20  1  0  0  0  0
 16 11  2  0  0  0  0
 17  8  1  0  0  0  0
 18 14  2  0  0  0  0
 18  6  1  0  0  0  0
 20 19  1  0  0  0  0
 21 17  1  0  0  0  0
 23 27  1  0  0  0  0
 23 24  1  0  0  0  0
 24 25  1  0  0  0  0
 25 22  1  0  0  0  0
 26 22  1  0  0  0  0
 27 26  1  0  0  0  0
M  END
>  <MODEL>
7

>  <REMARK>
 VINA RESULT:      -7.3      3.254      6.505
  Name = 
  1 active torsions:
  status: ('A' for Active; 'I' for Inactive)
    1  A    between atoms: C_9  and  N_15
                            x       y       z     vdW  Elec       q    Type
                         _______ _______ _______ _____ _____    ______ ____

>  <TORSDO>
F 1

$$$$
=
 OpenBabel11052418233D

 27 30  0  0  0  0  0  0  0  0999 V2000
  192.3840  175.0790  141.9160 C   0  0  0  0  0  2  0  0  0  0  0  0
  190.8260  176.2700  143.5240 C   0  0  0  0  0  0  0  0  0  0  0  0
  189.6500  174.6150  142.1630 O   0  0  0  0  0  0  0  0  0  0  0  0
  187.1860  178.0510  144.6100 C   0  0  0  0  0  3  0  0  0  0  0  0
  184.8130  178.1840  144.4380 F   0  0  0  0  0  0  0  0  0  0  0  0
  190.7500  177.3600  144.4060 C   0  0  0  0  0  3  0  0  0  0  0  0
  187.1670  175.8890  142.8380 C   0  0  0  0  0  3  0  0  0  0  0  0
  189.8200  172.3750  140.3170 C   0  0  0  0  0  2  0  0  0  0  0  0
  185.9680  176.5100  143.1990 C   0  0  0  0  0  3  0  0  0  0  0  0
  190.6820  171.4500  141.1640 C   0  0  0  0  0  2  0  0  0  0  0  0
  189.6180  175.7300  143.0120 C   0  0  0  0  0  0  0  0  0  0  0  0
  192.1270  175.7230  143.2040 N   0  0  0  0  0  0  0  0  0  0  0  0
  185.9770  177.5860  144.0870 C   0  0  0  0  0  0  0  0  0  0  0  0
  188.3890  177.4370  144.2500 C   0  0  0  0  0  0  0  0  0  0  0  0
  192.5520  173.5810  142.0900 C   0  0  0  0  0  2  0  0  0  0  0  0
  188.3890  176.3350  143.3660 C   0  0  0  0  0  0  0  0  0  0  0  0
  188.5400  172.7550  141.0470 C   0  0  0  0  0  2  0  0  0  0  0  0
  189.5570  177.9090  144.7470 N   0  0  0  0  0  0  0  0  0  0  0  0
  192.1440  171.5090  140.7270 C   0  0  0  0  0  2  0  0  0  0  0  0
  192.6870  172.9370  140.7230 C   0  0  0  0  0  2  0  0  0  0  0  0
  188.8090  173.4830  142.3610 C   0  0  0  0  0  2  0  0  0  0  0  0
  195.7710  175.1470  145.1420 O   0  0  0  0  0  0  0  0  0  0  0  0
  193.2600  176.0130  144.0910 C   0  0  0  0  0  3  0  0  0  0  0  0
  194.5690  176.1330  143.3070 C   0  0  0  0  0  2  0  0  0  0  0  0
  195.7280  176.2690  144.2940 C   0  0  0  0  0  2  0  0  0  0  0  0
  194.6610  175.2450  146.0000 C   0  0  0  0  0  2  0  0  0  0  0  0
  193.3730  174.9850  145.2190 C   0  0  0  0  0  2  0  0  0  0  0  0
  1 15  1  0  0  0  0
  1 12  1  0  0  0  0
  2  6  1  0  0  0  0
  3 21  1  0  0  0  0
  3 11  1  0  0  0  0
  6 18  2  0  0  0  0
  7  9  2  0  0  0  0
  7 16  1  0  0  0  0
  8 17  1  0  0  0  0
  8 10  1  0  0  0  0
  9 13  1  0  0  0  0
 11 16  1  0  0  0  0
 11  2  2  0  0  0  0
 12  2  1  0  0  0  0
 12 23  1  0  0  0  0
 13  5  1  0  0  0  0
 13  4  2  0  0  0  0
 14  4  1  0  0  0  0
 14 18  1  0  0  0  0
 16 14  2  0  0  0  0
 17 21  1  0  0  0  0
 19 10  1  0  0  0  0
 20 19  1  0  0  0  0
 20 15  1  0  0  0  0
 22 26  1  0  0  0  0
 23 27  1  0  0  0  0
 24 23  1  0  0  0  0
 24 25  1  0  0  0  0
 25 22  1  0  0  0  0
 27 26  1  0  0  0  0
M  END
>  <MODEL>
8

>  <REMARK>
 VINA RESULT:      -7.3      2.293      4.941
  Name = 
  1 active torsions:
  status: ('A' for Active; 'I' for Inactive)
    1  A    between atoms: C_9  and  N_15
                            x       y       z     vdW  Elec       q    Type
                         _______ _______ _______ _____ _____    ______ ____

>  <TORSDO>
F 1

$$$$
=
 OpenBabel11052418233D

 27 30  0  0  0  0  0  0  0  0999 V2000
  188.3550  174.3240  142.1260 C   0  0  0  0  0  2  0  0  0  0  0  0
  189.9590  175.5240  143.6800 C   0  0  0  0  0  0  0  0  0  0  0  0
  191.1230  174.0300  142.1350 O   0  0  0  0  0  0  0  0  0  0  0  0
  193.3710  175.7610  146.1110 C   0  0  0  0  0  3  0  0  0  0  0  0
  195.6050  175.1030  146.6140 F   0  0  0  0  0  0  0  0  0  0  0  0
  190.0120  176.3200  144.8360 C   0  0  0  0  0  3  0  0  0  0  0  0
  193.4270  174.1260  143.8450 C   0  0  0  0  0  3  0  0  0  0  0  0
  190.9960  172.3650  139.7550 C   0  0  0  0  0  2  0  0  0  0  0  0
  194.5450  174.2050  144.6790 C   0  0  0  0  0  3  0  0  0  0  0  0
  190.4900  173.4120  138.7730 C   0  0  0  0  0  2  0  0  0  0  0  0
  191.1220  174.8020  143.3040 C   0  0  0  0  0  0  0  0  0  0  0  0
  188.7380  175.5010  142.9050 N   0  0  0  0  0  0  0  0  0  0  0  0
  194.5190  175.0260  145.8080 C   0  0  0  0  0  0  0  0  0  0  0  0
  192.2480  175.6830  145.2820 C   0  0  0  0  0  0  0  0  0  0  0  0
  188.4880  174.5980  140.6390 C   0  0  0  0  0  2  0  0  0  0  0  0
  192.2700  174.8700  144.1280 C   0  0  0  0  0  0  0  0  0  0  0  0
  192.3060  172.8000  140.3960 C   0  0  0  0  0  2  0  0  0  0  0  0
  191.1330  176.3850  145.5970 N   0  0  0  0  0  0  0  0  0  0  0  0
  188.9830  173.2790  138.5580 C   0  0  0  0  0  2  0  0  0  0  0  0
  188.2080  173.3190  139.8740 C   0  0  0  0  0  2  0  0  0  0  0  0
  192.1720  174.1060  141.1730 C   0  0  0  0  0  2  0  0  0  0  0  0
  185.5630  178.0350  141.9770 O   0  0  0  0  0  0  0  0  0  0  0  0
  187.7640  176.5860  143.0780 C   0  0  0  0  0  3  0  0  0  0  0  0
  186.3300  176.0530  143.1010 C   0  0  0  0  0  2  0  0  0  0  0  0
  185.3610  177.2350  143.1160 C   0  0  0  0  0  2  0  0  0  0  0  0
  186.7980  178.6850  142.1520 C   0  0  0  0  0  2  0  0  0  0  0  0
  187.9400  177.6780  142.0200 C   0  0  0  0  0  2  0  0  0  0  0  0
  1 12  1  0  0  0  0
  2  6  1  0  0  0  0
  3 11  1  0  0  0  0
  6 18  2  0  0  0  0
  7 16  2  0  0  0  0
  7  9  1  0  0  0  0
  8 17  1  0  0  0  0
  9 13  2  0  0  0  0
 10  8  1  0  0  0  0
 11  2  2  0  0  0  0
 11 16  1  0  0  0  0
 12 23  1  0  0  0  0
 12  2  1  0  0  0  0
 13  4  1  0  0  0  0
 13  5  1  0  0  0  0
 14 18  1  0  0  0  0
 14  4  2  0  0  0  0
 15  1  1  0  0  0  0
 16 14  1  0  0  0  0
 17 21  1  0  0  0  0
 19 10  1  0  0  0  0
 19 20  1  0  0  0  0
 20 15  1  0  0  0  0
 21  3  1  0  0  0  0
 22 26  1  0  0  0  0
 22 25  1  0  0  0  0
 23 24  1  0  0  0  0
 24 25  1  0  0  0  0
 27 26  1  0  0  0  0
 27 23  1  0  0  0  0
M  END
>  <MODEL>
9

>  <REMARK>
 VINA RESULT:      -7.1      3.136      6.902
  Name = 
  1 active torsions:
  status: ('A' for Active; 'I' for Inactive)
    1  A    between atoms: C_9  and  N_15
                            x       y       z     vdW  Elec       q    Type
                         _______ _______ _______ _____ _____    ______ ____

>  <TORSDO>
F 1

$$$$
