=
 OpenBabel11052419063D

 32 36  0  0  1  0  0  0  0  0999 V2000
  192.5630  174.9280  146.4040 O   0  0  0  0  0  0  0  0  0  0  0  0
  192.5160  174.7170  145.0100 C   0  0  1  0  0  0  0  0  0  0  0  0
  195.8770  174.9820  142.9900 C   0  0  0  0  0  2  0  0  0  0  0  0
  194.7780  170.9900  146.0180 C   0  0  0  0  0  3  0  0  0  0  0  0
  193.8270  174.3070  144.3170 C   0  0  1  0  0  3  0  0  0  0  0  0
  196.5700  171.6080  144.4520 C   0  0  0  0  0  2  0  0  0  0  0  0
  196.0550  173.0570  144.4140 C   0  0  1  0  0  3  0  0  0  0  0  0
  194.6960  175.4840  143.8400 C   0  0  1  0  0  3  0  0  0  0  0  0
  192.4880  176.3080  146.6500 C   0  0  2  0  0  3  0  0  0  0  0  0
  196.0430  173.5230  143.0270 N   0  0  0  0  0  2  0  0  0  0  0  0
  193.8710  176.9200  146.7540 C   0  0  0  0  0  2  0  0  0  0  0  0
  191.7470  176.5370  147.9510 C   0  0  0  0  0  1  0  0  0  0  0  0
  191.5490  173.7200  144.7460 O   0  0  0  0  0  0  0  0  0  0  0  0
  195.2720  176.2840  145.0020 C   0  0  0  0  0  2  0  0  0  0  0  0
  191.2630  174.9890  144.2220 C   0  0  1  0  0  0  0  0  0  0  0  0
  194.6600  173.2670  145.0840 C   0  0  2  0  0  3  0  0  0  0  0  0
  194.3300  177.3000  145.4310 N   0  0  0  0  0  2  0  0  0  0  0  0
  196.0510  170.8410  145.6380 C   0  0  0  0  0  3  0  0  0  0  0  0
  193.9000  171.9490  145.2720 C   0  0  0  0  0  2  0  0  0  0  0  0
  188.7070  177.6170  145.3530 C   0  0  0  0  0  3  0  0  0  0  0  0
  188.2280  175.5100  146.4330 C   0  0  0  0  0  3  0  0  0  0  0  0
  190.0900  175.6740  144.8810 C   0  0  0  0  0  0  0  0  0  0  0  0
  187.9090  176.8600  146.2250 C   0  0  0  0  0  0  0  0  0  0  0  0
  189.3100  174.9260  145.7720 C   0  0  0  0  0  3  0  0  0  0  0  0
  189.7930  177.0390  144.6900 C   0  0  0  0  0  0  0  0  0  0  0  0
  190.5680  177.8360  143.8560 O   0  0  0  0  0  1  0  0  0  0  0  0
  186.9780  178.5380  147.8620 C   0  0  0  0  0  1  0  0  0  0  0  0
  185.4290  177.0080  146.6580 C   0  0  0  0  0  1  0  0  0  0  0  0
  186.7900  177.4610  146.9030 N   0  0  0  0  0  0  0  0  0  0  0  0
  191.3930  175.0320  142.4000 S   0  0  0  0  0  0  0  0  0  0  0  0
  189.7990  174.2030  142.1270 C   0  0  0  0  0  2  0  0  0  0  0  0
  188.8580  175.1360  141.5330 N   0  0  0  0  0  1  0  0  0  0  0  0
  1  9  1  0  0  0  0
  2 13  1  1  0  0  0
  2  1  1  0  0  0  0
  3 10  1  0  0  0  0
  3  8  1  0  0  0  0
  5  2  1  0  0  0  0
  5 16  1  0  0  0  0
  6 18  1  0  0  0  0
  7  6  1  0  0  0  0
  7 16  1  0  0  0  0
  8  5  1  0  0  0  0
  8 14  1  0  0  0  0
  9 11  1  0  0  0  0
  9 12  1  0  0  0  0
 10  7  1  0  0  0  0
 14 17  1  0  0  0  0
 15 13  1  0  0  0  0
 15 22  1  0  0  0  0
 15  2  1  0  0  0  0
 16 19  1  0  0  0  0
 17 11  1  0  0  0  0
 18  4  2  0  0  0  0
 19  4  1  0  0  0  0
 20 23  1  0  0  0  0
 22 24  2  0  0  0  0
 23 21  2  0  0  0  0
 23 29  1  0  0  0  0
 24 21  1  0  0  0  0
 25 22  1  0  0  0  0
 25 20  2  0  0  0  0
 26 25  1  0  0  0  0
 28 29  1  0  0  0  0
 29 27  1  0  0  0  0
 30 15  1  0  0  0  0
 31 30  1  0  0  0  0
 32 31  1  0  0  0  0
M  END
>  <MODEL>
1

>  <REMARK>
 VINA RESULT:      -7.3      0.000      0.000
  Name = 
  4 active torsions:
  status: ('A' for Active; 'I' for Inactive)
    1  A    between atoms: S_1  and  C_4
    2  A    between atoms: S_1  and  C_27
    3  A    between atoms: C_16  and  C_27
    4  A    between atoms: C_19  and  N_26
                            x       y       z     vdW  Elec       q    Type
                         _______ _______ _______ _____ _____    ______ ____

>  <TORSDO>
F 4

$$$$
=
 OpenBabel11052419063D

 32 36  0  0  1  0  0  0  0  0999 V2000
  190.6320  175.1670  143.3630 O   0  0  0  0  0  0  0  0  0  0  0  0
  191.3770  175.3480  144.5470 C   0  0  1  0  0  0  0  0  0  0  0  0
  194.0830  172.6460  145.4540 C   0  0  0  0  0  2  0  0  0  0  0  0
  194.7520  176.0790  141.7020 C   0  0  0  0  0  3  0  0  0  0  0  0
  192.7340  174.6310  144.6400 C   0  0  1  0  0  3  0  0  0  0  0  0
  196.0960  174.3280  142.7850 C   0  0  0  0  0  2  0  0  0  0  0  0
  194.8370  173.7670  143.4700 C   0  0  1  0  0  3  0  0  0  0  0  0
  192.6690  173.2040  145.2160 C   0  0  1  0  0  3  0  0  0  0  0  0
  189.5490  174.3190  143.6400 C   0  0  2  0  0  3  0  0  0  0  0  0
  195.1440  173.4770  144.8710 N   0  0  0  0  0  2  0  0  0  0  0  0
  189.9020  172.8730  143.3520 C   0  0  0  0  0  2  0  0  0  0  0  0
  188.3730  174.7220  142.7760 C   0  0  0  0  0  1  0  0  0  0  0  0
  191.6000  176.7330  144.7230 O   0  0  0  0  0  0  0  0  0  0  0  0
  191.9430  172.2400  144.2850 C   0  0  0  0  0  2  0  0  0  0  0  0
  190.8150  176.1200  145.7110 C   0  0  1  0  0  0  0  0  0  0  0  0
  193.5750  174.6800  143.3530 C   0  0  2  0  0  3  0  0  0  0  0  0
  190.5140  172.2840  144.5290 N   0  0  0  0  0  2  0  0  0  0  0  0
  195.7700  175.2170  141.6170 C   0  0  0  0  0  3  0  0  0  0  0  0
  193.9300  176.1160  142.9540 C   0  0  0  0  0  2  0  0  0  0  0  0
  187.0450  176.3410  146.3820 C   0  0  0  0  0  3  0  0  0  0  0  0
  187.6790  178.0340  144.7820 C   0  0  0  0  0  3  0  0  0  0  0  0
  189.3700  176.5530  145.7030 C   0  0  0  0  0  0  0  0  0  0  0  0
  186.6850  177.4120  145.5510 C   0  0  0  0  0  0  0  0  0  0  0  0
  189.0060  177.6050  144.8530 C   0  0  0  0  0  3  0  0  0  0  0  0
  188.3710  175.9040  146.4580 C   0  0  0  0  0  0  0  0  0  0  0  0
  188.6730  174.8230  147.2760 O   0  0  0  0  0  1  0  0  0  0  0  0
  184.7000  178.2010  144.2090 C   0  0  0  0  0  1  0  0  0  0  0  0
  184.5050  177.9900  146.6800 C   0  0  0  0  0  1  0  0  0  0  0  0
  185.3180  177.8590  145.4810 N   0  0  0  0  0  0  0  0  0  0  0  0
  191.6870  176.0010  147.3130 S   0  0  0  0  0  0  0  0  0  0  0  0
  190.9130  177.4950  148.0020 C   0  0  0  0  0  2  0  0  0  0  0  0
  191.5390  177.8300  149.2690 N   0  0  0  0  0  1  0  0  0  0  0  0
  1  9  1  0  0  0  0
  2  1  1  6  0  0  0
  2  5  1  0  0  0  0
  2 13  1  0  0  0  0
  2 15  1  0  0  0  0
  4 19  1  0  0  0  0
  5  8  1  0  0  0  0
  6  7  1  0  0  0  0
  7 10  1  0  0  0  0
  8  3  1  0  0  0  0
 10  3  1  0  0  0  0
 11  9  1  0  0  0  0
 11 17  1  0  0  0  0
 12  9  1  0  0  0  0
 13 15  1  0  0  0  0
 14 17  1  0  0  0  0
 14  8  1  0  0  0  0
 15 30  1  0  0  0  0
 16  7  1  0  0  0  0
 16  5  1  0  0  0  0
 18  4  2  0  0  0  0
 18  6  1  0  0  0  0
 19 16  1  0  0  0  0
 20 25  1  0  0  0  0
 21 24  2  0  0  0  0
 21 23  1  0  0  0  0
 22 15  1  0  0  0  0
 22 25  2  0  0  0  0
 23 20  2  0  0  0  0
 24 22  1  0  0  0  0
 25 26  1  0  0  0  0
 27 29  1  0  0  0  0
 29 23  1  0  0  0  0
 29 28  1  0  0  0  0
 30 31  1  0  0  0  0
 31 32  1  0  0  0  0
M  END
>  <MODEL>
2

>  <REMARK>
 VINA RESULT:      -7.1      2.167      4.278
  Name = 
  4 active torsions:
  status: ('A' for Active; 'I' for Inactive)
    1  A    between atoms: S_1  and  C_4
    2  A    between atoms: S_1  and  C_27
    3  A    between atoms: C_16  and  C_27
    4  A    between atoms: C_19  and  N_26
                            x       y       z     vdW  Elec       q    Type
                         _______ _______ _______ _____ _____    ______ ____

>  <TORSDO>
F 4

$$$$
=
 OpenBabel11052419063D

 32 36  0  0  1  0  0  0  0  0999 V2000
  192.5990  174.9180  146.3030 O   0  0  0  0  0  0  0  0  0  0  0  0
  192.6240  174.6960  144.9100 C   0  0  1  0  0  0  0  0  0  0  0  0
  196.0970  174.8680  143.0780 C   0  0  0  0  0  2  0  0  0  0  0  0
  194.7420  170.9280  146.0700 C   0  0  0  0  0  3  0  0  0  0  0  0
  193.9610  174.2510  144.2940 C   0  0  1  0  0  3  0  0  0  0  0  0
  196.6310  171.4920  144.6010 C   0  0  0  0  0  2  0  0  0  0  0  0
  196.1520  172.9530  144.5230 C   0  0  1  0  0  3  0  0  0  0  0  0
  194.8830  175.4040  143.8570 C   0  0  1  0  0  3  0  0  0  0  0  0
  192.5420  176.3010  146.5350 C   0  0  2  0  0  3  0  0  0  0  0  0
  196.2270  173.4070  143.1340 N   0  0  0  0  0  2  0  0  0  0  0  0
  193.9300  176.8820  146.7110 C   0  0  0  0  0  2  0  0  0  0  0  0
  191.7360  176.5580  147.7910 C   0  0  0  0  0  1  0  0  0  0  0  0
  191.6510  173.7180  144.6010 O   0  0  0  0  0  0  0  0  0  0  0  0
  195.4110  176.2010  145.0430 C   0  0  0  0  0  2  0  0  0  0  0  0
  191.4230  174.9890  144.0520 C   0  0  1  0  0  0  0  0  0  0  0  0
  194.7270  173.1990  145.1130 C   0  0  2  0  0  3  0  0  0  0  0  0
  194.4700  177.2410  145.4120 N   0  0  0  0  0  2  0  0  0  0  0  0
  196.0300  170.7480  145.7610 C   0  0  0  0  0  3  0  0  0  0  0  0
  193.9290  171.9000  145.2700 C   0  0  0  0  0  2  0  0  0  0  0  0
  188.2390  175.8070  146.0300 C   0  0  0  0  0  3  0  0  0  0  0  0
  188.8720  177.7180  144.6950 C   0  0  0  0  0  3  0  0  0  0  0  0
  190.2320  175.7050  144.6400 C   0  0  0  0  0  0  0  0  0  0  0  0
  187.9960  177.1260  145.6170 C   0  0  0  0  0  0  0  0  0  0  0  0
  189.9740  177.0130  144.2080 C   0  0  0  0  0  3  0  0  0  0  0  0
  189.3390  175.0940  145.5450 C   0  0  0  0  0  0  0  0  0  0  0  0
  189.5230  173.7820  145.9630 O   0  0  0  0  0  1  0  0  0  0  0  0
  186.4450  177.7350  147.5110 C   0  0  0  0  0  1  0  0  0  0  0  0
  186.0890  178.7370  145.2620 C   0  0  0  0  0  1  0  0  0  0  0  0
  186.8630  177.8560  146.1230 N   0  0  0  0  0  0  0  0  0  0  0  0
  191.6550  175.0140  142.2400 S   0  0  0  0  0  0  0  0  0  0  0  0
  190.2260  173.9410  141.9040 C   0  0  0  0  0  2  0  0  0  0  0  0
  189.1450  174.7300  141.3400 N   0  0  0  0  0  1  0  0  0  0  0  0
  1  9  1  0  0  0  0
  2 13  1  1  0  0  0
  2  1  1  0  0  0  0
  3 10  1  0  0  0  0
  3  8  1  0  0  0  0
  5  2  1  0  0  0  0
  5 16  1  0  0  0  0
  6 18  1  0  0  0  0
  7  6  1  0  0  0  0
  7 16  1  0  0  0  0
  8  5  1  0  0  0  0
  8 14  1  0  0  0  0
  9 11  1  0  0  0  0
  9 12  1  0  0  0  0
 10  7  1  0  0  0  0
 14 17  1  0  0  0  0
 15 13  1  0  0  0  0
 15 22  1  0  0  0  0
 15  2  1  0  0  0  0
 16 19  1  0  0  0  0
 17 11  1  0  0  0  0
 18  4  2  0  0  0  0
 19  4  1  0  0  0  0
 21 23  2  0  0  0  0
 22 25  1  0  0  0  0
 23 20  1  0  0  0  0
 23 29  1  0  0  0  0
 24 22  2  0  0  0  0
 24 21  1  0  0  0  0
 25 26  1  0  0  0  0
 25 20  2  0  0  0  0
 28 29  1  0  0  0  0
 29 27  1  0  0  0  0
 30 15  1  0  0  0  0
 31 30  1  0  0  0  0
 32 31  1  0  0  0  0
M  END
>  <MODEL>
3

>  <REMARK>
 VINA RESULT:      -7.0      0.893      1.312
  Name = 
  4 active torsions:
  status: ('A' for Active; 'I' for Inactive)
    1  A    between atoms: S_1  and  C_4
    2  A    between atoms: S_1  and  C_27
    3  A    between atoms: C_16  and  C_27
    4  A    between atoms: C_19  and  N_26
                            x       y       z     vdW  Elec       q    Type
                         _______ _______ _______ _____ _____    ______ ____

>  <TORSDO>
F 4

$$$$
=
 OpenBabel11052419063D

 32 36  0  0  1  0  0  0  0  0999 V2000
  190.5740  174.8060  143.0350 O   0  0  0  0  0  0  0  0  0  0  0  0
  191.4400  174.8480  144.1490 C   0  0  1  0  0  0  0  0  0  0  0  0
  193.8400  171.7920  144.7330 C   0  0  0  0  0  2  0  0  0  0  0  0
  194.6120  175.2440  141.0190 C   0  0  0  0  0  3  0  0  0  0  0  0
  192.6950  173.9600  144.0970 C   0  0  1  0  0  3  0  0  0  0  0  0
  195.8080  173.2980  141.9290 C   0  0  0  0  0  2  0  0  0  0  0  0
  194.5530  172.8780  142.7150 C   0  0  1  0  0  3  0  0  0  0  0  0
  192.4950  172.5340  144.6420 C   0  0  1  0  0  3  0  0  0  0  0  0
  189.4190  174.0940  143.3920 C   0  0  2  0  0  3  0  0  0  0  0  0
  194.9440  172.5000  144.0740 N   0  0  0  0  0  2  0  0  0  0  0  0
  189.5530  172.6260  143.0380 C   0  0  0  0  0  2  0  0  0  0  0  0
  188.2330  174.6740  142.6520 C   0  0  0  0  0  1  0  0  0  0  0  0
  191.8560  176.1860  144.3360 O   0  0  0  0  0  0  0  0  0  0  0  0
  191.5700  171.7040  143.7600 C   0  0  0  0  0  2  0  0  0  0  0  0
  191.0900  175.6420  145.3790 C   0  0  1  0  0  0  0  0  0  0  0  0
  193.4160  173.9480  142.7390 C   0  0  2  0  0  3  0  0  0  0  0  0
  190.1860  171.9210  144.1370 N   0  0  0  0  0  2  0  0  0  0  0  0
  195.4980  174.2630  140.8180 C   0  0  0  0  0  3  0  0  0  0  0  0
  193.9180  175.3400  142.3440 C   0  0  0  0  0  2  0  0  0  0  0  0
  187.4540  176.3150  146.4000 C   0  0  0  0  0  3  0  0  0  0  0  0
  188.1620  177.9780  144.7980 C   0  0  0  0  0  3  0  0  0  0  0  0
  189.7190  176.2560  145.5170 C   0  0  0  0  0  0  0  0  0  0  0  0
  187.1660  177.4570  145.6370 C   0  0  0  0  0  0  0  0  0  0  0  0
  189.4220  177.3800  144.7340 C   0  0  0  0  0  3  0  0  0  0  0  0
  188.7130  175.7100  146.3410 C   0  0  0  0  0  0  0  0  0  0  0  0
  188.9420  174.5670  147.0960 O   0  0  0  0  0  1  0  0  0  0  0  0
  184.8010  177.5060  146.5120 C   0  0  0  0  0  1  0  0  0  0  0  0
  185.5740  179.2930  144.9640 C   0  0  0  0  0  1  0  0  0  0  0  0
  185.8680  178.0760  145.7060 N   0  0  0  0  0  0  0  0  0  0  0  0
  192.0790  175.3560  146.8890 S   0  0  0  0  0  0  0  0  0  0  0  0
  193.2810  176.6670  146.5170 C   0  0  0  0  0  2  0  0  0  0  0  0
  194.6030  176.0870  146.3570 N   0  0  0  0  0  1  0  0  0  0  0  0
  1  9  1  0  0  0  0
  2  1  1  6  0  0  0
  2 13  1  0  0  0  0
  2 15  1  0  0  0  0
  4 19  1  0  0  0  0
  5  2  1  0  0  0  0
  5  8  1  0  0  0  0
  6  7  1  0  0  0  0
  7 16  1  0  0  0  0
  7 10  1  0  0  0  0
  8  3  1  0  0  0  0
 10  3  1  0  0  0  0
 11  9  1  0  0  0  0
 11 17  1  0  0  0  0
 12  9  1  0  0  0  0
 13 15  1  0  0  0  0
 14 17  1  0  0  0  0
 14  8  1  0  0  0  0
 15 22  1  0  0  0  0
 15 30  1  0  0  0  0
 16  5  1  0  0  0  0
 18  4  2  0  0  0  0
 18  6  1  0  0  0  0
 19 16  1  0  0  0  0
 21 23  1  0  0  0  0
 22 25  2  0  0  0  0
 23 29  1  0  0  0  0
 23 20  2  0  0  0  0
 24 21  2  0  0  0  0
 24 22  1  0  0  0  0
 25 20  1  0  0  0  0
 25 26  1  0  0  0  0
 28 29  1  0  0  0  0
 29 27  1  0  0  0  0
 31 30  1  0  0  0  0
 32 31  1  0  0  0  0
M  END
>  <MODEL>
4

>  <REMARK>
 VINA RESULT:      -6.9      2.025      4.228
  Name = 
  4 active torsions:
  status: ('A' for Active; 'I' for Inactive)
    1  A    between atoms: S_1  and  C_4
    2  A    between atoms: S_1  and  C_27
    3  A    between atoms: C_16  and  C_27
    4  A    between atoms: C_19  and  N_26
                            x       y       z     vdW  Elec       q    Type
                         _______ _______ _______ _____ _____    ______ ____

>  <TORSDO>
F 4

$$$$
=
 OpenBabel11052419063D

 32 36  0  0  1  0  0  0  0  0999 V2000
  192.0010  174.0530  145.2510 O   0  0  0  0  0  0  0  0  0  0  0  0
  192.8880  174.1630  144.1600 C   0  0  1  0  0  0  0  0  0  0  0  0
  196.6980  174.7420  144.9350 C   0  0  0  0  0  2  0  0  0  0  0  0
  194.3880  170.2180  145.6470 C   0  0  0  0  0  3  0  0  0  0  0  0
  194.3740  173.8680  144.4300 C   0  0  1  0  0  3  0  0  0  0  0  0
  196.6780  171.1010  145.7960 C   0  0  0  0  0  2  0  0  0  0  0  0
  196.1420  172.5410  145.7140 C   0  0  1  0  0  3  0  0  0  0  0  0
  195.1990  175.0870  144.8810 C   0  0  1  0  0  3  0  0  0  0  0  0
  191.6220  175.3430  145.6520 C   0  0  2  0  0  3  0  0  0  0  0  0
  196.9720  173.3080  144.7840 N   0  0  0  0  0  2  0  0  0  0  0  0
  192.5270  175.8610  146.7520 C   0  0  0  0  0  2  0  0  0  0  0  0
  190.1970  175.3030  146.1620 C   0  0  0  0  0  1  0  0  0  0  0  0
  192.4460  173.2900  143.1400 O   0  0  0  0  0  0  0  0  0  0  0  0
  194.7900  175.5810  146.2630 C   0  0  0  0  0  2  0  0  0  0  0  0
  192.4170  174.6560  142.8180 C   0  0  1  0  0  0  0  0  0  0  0  0
  194.6320  172.6490  145.3320 C   0  0  2  0  0  3  0  0  0  0  0  0
  193.6820  176.5100  146.1600 N   0  0  0  0  0  2  0  0  0  0  0  0
  195.6120  170.1080  146.1720 C   0  0  0  0  0  3  0  0  0  0  0  0
  194.0920  171.3550  144.7160 C   0  0  0  0  0  2  0  0  0  0  0  0
  189.4270  177.0520  142.6360 C   0  0  0  0  0  3  0  0  0  0  0  0
  188.6550  174.7790  142.3740 C   0  0  0  0  0  3  0  0  0  0  0  0
  191.0260  175.2200  142.6660 C   0  0  0  0  0  0  0  0  0  0  0  0
  188.3710  176.1510  142.4360 C   0  0  0  0  0  0  0  0  0  0  0  0
  189.9680  174.3190  142.4930 C   0  0  0  0  0  3  0  0  0  0  0  0
  190.7440  176.5990  142.7590 C   0  0  0  0  0  0  0  0  0  0  0  0
  191.7530  177.5280  142.9820 O   0  0  0  0  0  1  0  0  0  0  0  0
  186.5770  177.3380  141.1190 C   0  0  0  0  0  1  0  0  0  0  0  0
  186.0410  176.4120  143.3650 C   0  0  0  0  0  1  0  0  0  0  0  0
  187.0170  176.6240  142.3070 N   0  0  0  0  0  0  0  0  0  0  0  0
  193.6850  175.1030  141.5800 S   0  0  0  0  0  0  0  0  0  0  0  0
  193.4270  173.6120  140.5730 C   0  0  0  0  0  2  0  0  0  0  0  0
  192.3970  173.8650  139.5810 N   0  0  0  0  0  1  0  0  0  0  0  0
  1  9  1  0  0  0  0
  2 13  1  6  0  0  0
  2  5  1  0  0  0  0
  2  1  1  0  0  0  0
  4 18  2  0  0  0  0
  5  8  1  0  0  0  0
  5 16  1  0  0  0  0
  6 18  1  0  0  0  0
  7  6  1  0  0  0  0
  8  3  1  0  0  0  0
  8 14  1  0  0  0  0
  9 12  1  0  0  0  0
  9 11  1  0  0  0  0
 10  3  1  0  0  0  0
 10  7  1  0  0  0  0
 15 13  1  0  0  0  0
 15  2  1  0  0  0  0
 16  7  1  0  0  0  0
 17 14  1  0  0  0  0
 17 11  1  0  0  0  0
 19 16  1  0  0  0  0
 19  4  1  0  0  0  0
 20 25  1  0  0  0  0
 21 23  1  0  0  0  0
 21 24  2  0  0  0  0
 22 25  2  0  0  0  0
 22 15  1  0  0  0  0
 23 20  2  0  0  0  0
 24 22  1  0  0  0  0
 25 26  1  0  0  0  0
 27 29  1  0  0  0  0
 29 23  1  0  0  0  0
 29 28  1  0  0  0  0
 30 15  1  0  0  0  0
 31 30  1  0  0  0  0
 32 31  1  0  0  0  0
M  END
>  <MODEL>
5

>  <REMARK>
 VINA RESULT:      -6.7      2.019      2.682
  Name = 
  4 active torsions:
  status: ('A' for Active; 'I' for Inactive)
    1  A    between atoms: S_1  and  C_4
    2  A    between atoms: S_1  and  C_27
    3  A    between atoms: C_16  and  C_27
    4  A    between atoms: C_19  and  N_26
                            x       y       z     vdW  Elec       q    Type
                         _______ _______ _______ _____ _____    ______ ____

>  <TORSDO>
F 4

$$$$
=
 OpenBabel11052419063D

 32 36  0  0  1  0  0  0  0  0999 V2000
  190.5450  174.9030  143.0660 O   0  0  0  0  0  0  0  0  0  0  0  0
  191.3840  174.8980  144.2010 C   0  0  1  0  0  0  0  0  0  0  0  0
  193.7280  171.7910  144.7460 C   0  0  0  0  0  2  0  0  0  0  0  0
  194.6370  175.3440  141.1610 C   0  0  0  0  0  3  0  0  0  0  0  0
  192.6280  173.9940  144.1510 C   0  0  1  0  0  3  0  0  0  0  0  0
  195.7830  173.3540  142.0380 C   0  0  0  0  0  2  0  0  0  0  0  0
  194.5040  172.9280  142.7800 C   0  0  1  0  0  3  0  0  0  0  0  0
  192.3950  172.5540  144.6460 C   0  0  1  0  0  3  0  0  0  0  0  0
  189.3720  174.1960  143.3720 C   0  0  2  0  0  3  0  0  0  0  0  0
  194.8570  172.5030  144.1360 N   0  0  0  0  0  2  0  0  0  0  0  0
  189.4950  172.7380  142.9760 C   0  0  0  0  0  2  0  0  0  0  0  0
  188.2120  174.8160  142.6230 C   0  0  0  0  0  1  0  0  0  0  0  0
  191.8130  176.2230  144.4400 O   0  0  0  0  0  0  0  0  0  0  0  0
  191.4810  171.7660  143.7170 C   0  0  0  0  0  2  0  0  0  0  0  0
  191.0150  175.6580  145.4460 C   0  0  1  0  0  0  0  0  0  0  0  0
  193.3820  174.0130  142.8110 C   0  0  2  0  0  3  0  0  0  0  0  0
  190.0910  171.9910  144.0680 N   0  0  0  0  0  2  0  0  0  0  0  0
  195.5140  174.3570  140.9510 C   0  0  0  0  0  3  0  0  0  0  0  0
  193.9110  175.4100  142.4710 C   0  0  0  0  0  2  0  0  0  0  0  0
  188.0110  178.0140  145.0730 C   0  0  0  0  0  3  0  0  0  0  0  0
  187.4640  176.2520  146.6320 C   0  0  0  0  0  3  0  0  0  0  0  0
  189.6490  176.2880  145.5700 C   0  0  0  0  0  0  0  0  0  0  0  0
  187.0850  177.4100  145.9380 C   0  0  0  0  0  0  0  0  0  0  0  0
  188.7340  175.7010  146.4530 C   0  0  0  0  0  3  0  0  0  0  0  0
  189.2850  177.4690  144.8910 C   0  0  0  0  0  0  0  0  0  0  0  0
  190.1750  178.1180  144.0440 O   0  0  0  0  0  1  0  0  0  0  0  0
  185.3360  178.4700  147.4150 C   0  0  0  0  0  1  0  0  0  0  0  0
  184.8330  178.0670  145.0120 C   0  0  0  0  0  1  0  0  0  0  0  0
  185.7730  177.9750  146.1180 N   0  0  0  0  0  0  0  0  0  0  0  0
  191.9630  175.3120  146.9690 S   0  0  0  0  0  0  0  0  0  0  0  0
  193.2140  176.5910  146.6480 C   0  0  0  0  0  2  0  0  0  0  0  0
  194.5180  175.9710  146.4940 N   0  0  0  0  0  1  0  0  0  0  0  0
  1  9  1  0  0  0  0
  2  1  1  6  0  0  0
  2 13  1  0  0  0  0
  2 15  1  0  0  0  0
  4 19  1  0  0  0  0
  5  2  1  0  0  0  0
  5  8  1  0  0  0  0
  6  7  1  0  0  0  0
  7 16  1  0  0  0  0
  7 10  1  0  0  0  0
  8  3  1  0  0  0  0
 10  3  1  0  0  0  0
 11  9  1  0  0  0  0
 11 17  1  0  0  0  0
 12  9  1  0  0  0  0
 13 15  1  0  0  0  0
 14 17  1  0  0  0  0
 14  8  1  0  0  0  0
 15 22  1  0  0  0  0
 15 30  1  0  0  0  0
 16  5  1  0  0  0  0
 18  4  2  0  0  0  0
 18  6  1  0  0  0  0
 19 16  1  0  0  0  0
 20 23  1  0  0  0  0
 22 24  2  0  0  0  0
 23 29  1  0  0  0  0
 23 21  2  0  0  0  0
 24 21  1  0  0  0  0
 25 20  2  0  0  0  0
 25 22  1  0  0  0  0
 26 25  1  0  0  0  0
 28 29  1  0  0  0  0
 29 27  1  0  0  0  0
 31 30  1  0  0  0  0
 32 31  1  0  0  0  0
M  END
>  <MODEL>
6

>  <REMARK>
 VINA RESULT:      -6.6      1.931      4.023
  Name = 
  4 active torsions:
  status: ('A' for Active; 'I' for Inactive)
    1  A    between atoms: S_1  and  C_4
    2  A    between atoms: S_1  and  C_27
    3  A    between atoms: C_16  and  C_27
    4  A    between atoms: C_19  and  N_26
                            x       y       z     vdW  Elec       q    Type
                         _______ _______ _______ _____ _____    ______ ____

>  <TORSDO>
F 4

$$$$
=
 OpenBabel11052419063D

 32 36  0  0  1  0  0  0  0  0999 V2000
  191.2950  175.1800  143.2830 O   0  0  0  0  0  0  0  0  0  0  0  0
  191.8100  175.2460  144.5950 C   0  0  1  0  0  0  0  0  0  0  0  0
  194.2560  172.3990  145.7590 C   0  0  0  0  0  2  0  0  0  0  0  0
  195.6660  176.0890  142.4870 C   0  0  0  0  0  3  0  0  0  0  0  0
  193.1150  174.4810  144.8760 C   0  0  1  0  0  3  0  0  0  0  0  0
  196.7560  174.2180  143.6520 C   0  0  0  0  0  2  0  0  0  0  0  0
  195.3830  173.6450  144.0460 C   0  0  1  0  0  3  0  0  0  0  0  0
  192.9200  173.0170  145.3120 C   0  0  1  0  0  3  0  0  0  0  0  0
  190.1660  174.3470  143.2860 C   0  0  2  0  0  3  0  0  0  0  0  0
  195.4200  173.2380  145.4510 N   0  0  0  0  0  2  0  0  0  0  0  0
  190.5420  172.9180  142.9510 C   0  0  0  0  0  2  0  0  0  0  0  0
  189.1770  174.8520  142.2570 C   0  0  0  0  0  1  0  0  0  0  0  0
  192.0190  176.6050  144.9210 O   0  0  0  0  0  0  0  0  0  0  0  0
  192.3640  172.1510  144.1880 C   0  0  0  0  0  2  0  0  0  0  0  0
  191.0540  175.9420  145.6950 C   0  0  1  0  0  0  0  0  0  0  0  0
  194.1800  174.6030  143.7750 C   0  0  2  0  0  3  0  0  0  0  0  0
  190.9160  172.2200  144.1670 N   0  0  0  0  0  2  0  0  0  0  0  0
  196.6680  175.2050  142.5210 C   0  0  0  0  0  3  0  0  0  0  0  0
  194.6260  176.0540  143.5670 C   0  0  0  0  0  2  0  0  0  0  0  0
  188.0090  177.9550  144.5170 C   0  0  0  0  0  3  0  0  0  0  0  0
  187.2780  176.1500  145.9440 C   0  0  0  0  0  3  0  0  0  0  0  0
  189.6430  176.4190  145.4570 C   0  0  0  0  0  0  0  0  0  0  0  0
  186.9650  177.2580  145.1430 C   0  0  0  0  0  0  0  0  0  0  0  0
  188.6030  175.7390  146.1040 C   0  0  0  0  0  3  0  0  0  0  0  0
  189.3380  177.5510  144.6730 C   0  0  0  0  0  0  0  0  0  0  0  0
  190.3390  178.2900  144.0540 O   0  0  0  0  0  1  0  0  0  0  0  0
  184.7350  177.9150  146.1210 C   0  0  0  0  0  1  0  0  0  0  0  0
  185.0280  177.8740  143.6510 C   0  0  0  0  0  1  0  0  0  0  0  0
  185.5990  177.6770  144.9750 N   0  0  0  0  0  0  0  0  0  0  0  0
  191.6110  175.6730  147.4150 S   0  0  0  0  0  0  0  0  0  0  0  0
  191.0710  177.3100  147.9920 C   0  0  0  0  0  2  0  0  0  0  0  0
  191.5690  177.5420  149.3360 N   0  0  0  0  0  1  0  0  0  0  0  0
  1  9  1  0  0  0  0
  2  1  1  6  0  0  0
  2  5  1  0  0  0  0
  2 13  1  0  0  0  0
  2 15  1  0  0  0  0
  4 18  2  0  0  0  0
  4 19  1  0  0  0  0
  5  8  1  0  0  0  0
  6  7  1  0  0  0  0
  7 10  1  0  0  0  0
  8  3  1  0  0  0  0
 10  3  1  0  0  0  0
 11  9  1  0  0  0  0
 11 17  1  0  0  0  0
 12  9  1  0  0  0  0
 13 15  1  0  0  0  0
 14  8  1  0  0  0  0
 15 30  1  0  0  0  0
 16  7  1  0  0  0  0
 16  5  1  0  0  0  0
 17 14  1  0  0  0  0
 18  6  1  0  0  0  0
 19 16  1  0  0  0  0
 20 25  2  0  0  0  0
 20 23  1  0  0  0  0
 21 24  1  0  0  0  0
 22 15  1  0  0  0  0
 22 24  2  0  0  0  0
 23 21  2  0  0  0  0
 25 22  1  0  0  0  0
 26 25  1  0  0  0  0
 28 29  1  0  0  0  0
 29 23  1  0  0  0  0
 29 27  1  0  0  0  0
 30 31  1  0  0  0  0
 31 32  1  0  0  0  0
M  END
>  <MODEL>
7

>  <REMARK>
 VINA RESULT:      -6.5      2.060      3.980
  Name = 
  4 active torsions:
  status: ('A' for Active; 'I' for Inactive)
    1  A    between atoms: S_1  and  C_4
    2  A    between atoms: S_1  and  C_27
    3  A    between atoms: C_16  and  C_27
    4  A    between atoms: C_19  and  N_26
                            x       y       z     vdW  Elec       q    Type
                         _______ _______ _______ _____ _____    ______ ____

>  <TORSDO>
F 4

$$$$
=
 OpenBabel11052419063D

 32 36  0  0  1  0  0  0  0  0999 V2000
  193.4510  173.6730  145.9020 O   0  0  0  0  0  0  0  0  0  0  0  0
  193.7600  173.1580  144.6260 C   0  0  1  0  0  0  0  0  0  0  0  0
  197.5480  172.6610  143.7060 C   0  0  0  0  0  2  0  0  0  0  0  0
  195.0640  169.5680  146.9570 C   0  0  0  0  0  3  0  0  0  0  0  0
  195.1340  172.4870  144.4520 C   0  0  1  0  0  3  0  0  0  0  0  0
  197.2910  169.6550  145.9190 C   0  0  0  0  0  2  0  0  0  0  0  0
  197.0320  171.0990  145.4530 C   0  0  1  0  0  3  0  0  0  0  0  0
  196.2690  173.4450  144.0470 C   0  0  1  0  0  3  0  0  0  0  0  0
  193.5200  175.0740  145.8490 C   0  0  2  0  0  3  0  0  0  0  0  0
  197.4750  171.2400  144.0650 N   0  0  0  0  0  2  0  0  0  0  0  0
  194.8960  175.5670  146.2480 C   0  0  0  0  0  2  0  0  0  0  0  0
  192.4920  175.6550  146.7960 C   0  0  0  0  0  1  0  0  0  0  0  0
  192.7650  172.2170  144.2750 O   0  0  0  0  0  0  0  0  0  0  0  0
  196.6150  174.4310  145.1550 C   0  0  0  0  0  2  0  0  0  0  0  0
  192.8300  173.3570  143.4590 C   0  0  1  0  0  0  0  0  0  0  0  0
  195.5550  171.5770  145.6170 C   0  0  2  0  0  3  0  0  0  0  0  0
  195.7560  175.5970  145.0790 N   0  0  0  0  0  2  0  0  0  0  0  0
  196.3540  169.2250  147.0140 C   0  0  0  0  0  3  0  0  0  0  0  0
  194.5820  170.4090  145.8130 C   0  0  0  0  0  2  0  0  0  0  0  0
  190.5250  176.4200  143.3430 C   0  0  0  0  0  3  0  0  0  0  0  0
  189.3690  174.5820  144.4000 C   0  0  0  0  0  3  0  0  0  0  0  0
  191.6390  174.2730  143.5900 C   0  0  0  0  0  0  0  0  0  0  0  0
  189.3690  175.9120  143.9540 C   0  0  0  0  0  0  0  0  0  0  0  0
  190.4940  173.7740  144.2240 C   0  0  0  0  0  3  0  0  0  0  0  0
  191.6560  175.6180  143.1660 C   0  0  0  0  0  0  0  0  0  0  0  0
  192.7850  176.1750  142.5790 O   0  0  0  0  0  1  0  0  0  0  0  0
  187.8030  177.7040  143.1150 C   0  0  0  0  0  1  0  0  0  0  0  0
  187.3950  176.6580  145.3350 C   0  0  0  0  0  1  0  0  0  0  0  0
  188.2060  176.7430  144.1300 N   0  0  0  0  0  0  0  0  0  0  0  0
  193.4640  172.9760  141.7880 S   0  0  0  0  0  0  0  0  0  0  0  0
  192.3770  171.5380  141.5510 C   0  0  0  0  0  2  0  0  0  0  0  0
  191.1780  171.9450  140.8410 N   0  0  0  0  0  1  0  0  0  0  0  0
  2 13  1  1  0  0  0
  2  1  1  0  0  0  0
  3  8  1  0  0  0  0
  3 10  1  0  0  0  0
  4 18  2  0  0  0  0
  5  2  1  0  0  0  0
  5 16  1  0  0  0  0
  6 18  1  0  0  0  0
  7 16  1  0  0  0  0
  7  6  1  0  0  0  0
  8  5  1  0  0  0  0
  8 14  1  0  0  0  0
  9  1  1  0  0  0  0
  9 11  1  0  0  0  0
  9 12  1  0  0  0  0
 10  7  1  0  0  0  0
 15 22  1  0  0  0  0
 15 13  1  0  0  0  0
 15  2  1  0  0  0  0
 16 19  1  0  0  0  0
 17 14  1  0  0  0  0
 17 11  1  0  0  0  0
 19  4  1  0  0  0  0
 20 23  1  0  0  0  0
 22 24  2  0  0  0  0
 23 29  1  0  0  0  0
 23 21  2  0  0  0  0
 24 21  1  0  0  0  0
 25 20  2  0  0  0  0
 25 22  1  0  0  0  0
 26 25  1  0  0  0  0
 27 29  1  0  0  0  0
 29 28  1  0  0  0  0
 30 15  1  0  0  0  0
 31 30  1  0  0  0  0
 32 31  1  0  0  0  0
M  END
>  <MODEL>
8

>  <REMARK>
 VINA RESULT:      -6.5      1.967      2.633
  Name = 
  4 active torsions:
  status: ('A' for Active; 'I' for Inactive)
    1  A    between atoms: S_1  and  C_4
    2  A    between atoms: S_1  and  C_27
    3  A    between atoms: C_16  and  C_27
    4  A    between atoms: C_19  and  N_26
                            x       y       z     vdW  Elec       q    Type
                         _______ _______ _______ _____ _____    ______ ____

>  <TORSDO>
F 4

$$$$
=
 OpenBabel11052419063D

 32 36  0  0  1  0  0  0  0  0999 V2000
  191.8400  176.1070  144.1110 O   0  0  0  0  0  0  0  0  0  0  0  0
  190.8320  175.1380  144.2970 C   0  0  1  0  0  0  0  0  0  0  0  0
  187.8160  176.0410  146.6500 C   0  0  0  0  0  2  0  0  0  0  0  0
  188.3430  178.0190  141.9470 C   0  0  0  0  0  3  0  0  0  0  0  0
  189.4520  175.6380  144.7580 C   0  0  1  0  0  3  0  0  0  0  0  0
  186.6590  178.0840  143.7370 C   0  0  0  0  0  2  0  0  0  0  0  0
  187.6640  177.4640  144.7240 C   0  0  1  0  0  3  0  0  0  0  0  0
  189.2780  175.7250  146.2850 C   0  0  1  0  0  3  0  0  0  0  0  0
  192.7600  176.0050  145.1660 C   0  0  2  0  0  3  0  0  0  0  0  0
  186.9940  176.4160  145.4940 N   0  0  0  0  0  2  0  0  0  0  0  0
  192.3990  176.9470  146.2970 C   0  0  0  0  0  2  0  0  0  0  0  0
  194.1400  176.3550  144.6520 C   0  0  0  0  0  1  0  0  0  0  0  0
  190.6620  174.4370  143.0810 O   0  0  0  0  0  0  0  0  0  0  0  0
  190.1510  176.8090  146.9040 C   0  0  0  0  0  2  0  0  0  0  0  0
  191.1290  173.6680  144.1580 C   0  0  1  0  0  0  0  0  0  0  0  0
  188.9700  176.9210  144.0620 C   0  0  2  0  0  3  0  0  0  0  0  0
  191.4720  176.2860  147.1970 N   0  0  0  0  0  2  0  0  0  0  0  0
  187.3260  178.6690  142.5230 C   0  0  0  0  0  3  0  0  0  0  0  0
  188.8210  176.7330  142.5490 C   0  0  0  0  0  2  0  0  0  0  0  0
  194.5250  172.6730  142.6800 C   0  0  0  0  0  3  0  0  0  0  0  0
  194.5280  172.2540  145.0590 C   0  0  0  0  0  3  0  0  0  0  0  0
  192.5540  173.1970  144.0020 C   0  0  0  0  0  0  0  0  0  0  0  0
  195.2000  172.2280  143.8270 C   0  0  0  0  0  0  0  0  0  0  0  0
  193.2170  172.7280  145.1430 C   0  0  0  0  0  3  0  0  0  0  0  0
  193.2130  173.1470  142.7570 C   0  0  0  0  0  0  0  0  0  0  0  0
  192.5790  173.5520  141.5880 O   0  0  0  0  0  1  0  0  0  0  0  0
  197.3790  171.5990  144.9300 C   0  0  0  0  0  1  0  0  0  0  0  0
  197.1460  171.3870  142.4620 C   0  0  0  0  0  1  0  0  0  0  0  0
  196.5530  171.7440  143.7420 N   0  0  0  0  0  0  0  0  0  0  0  0
  189.8740  172.4840  144.7590 S   0  0  0  0  0  0  0  0  0  0  0  0
  189.2130  172.1300  143.1030 C   0  0  0  0  0  2  0  0  0  0  0  0
  190.0670  171.1660  142.4330 N   0  0  0  0  0  1  0  0  0  0  0  0
  1  2  1  0  0  0  0
  1  9  1  0  0  0  0
  2 13  1  6  0  0  0
  2  5  1  0  0  0  0
  4 18  2  0  0  0  0
  4 19  1  0  0  0  0
  5  8  1  0  0  0  0
  6  7  1  0  0  0  0
  7 10  1  0  0  0  0
  8  3  1  0  0  0  0
  8 14  1  0  0  0  0
  9 11  1  0  0  0  0
 10  3  1  0  0  0  0
 11 17  1  0  0  0  0
 12  9  1  0  0  0  0
 13 15  1  0  0  0  0
 14 17  1  0  0  0  0
 15  2  1  0  0  0  0
 15 30  1  0  0  0  0
 16  7  1  0  0  0  0
 16  5  1  0  0  0  0
 18  6  1  0  0  0  0
 19 16  1  0  0  0  0
 20 25  2  0  0  0  0
 20 23  1  0  0  0  0
 21 24  1  0  0  0  0
 22 15  1  0  0  0  0
 22 24  2  0  0  0  0
 23 21  2  0  0  0  0
 25 22  1  0  0  0  0
 26 25  1  0  0  0  0
 28 29  1  0  0  0  0
 29 23  1  0  0  0  0
 29 27  1  0  0  0  0
 31 30  1  0  0  0  0
 32 31  1  0  0  0  0
M  END
>  <MODEL>
9

>  <REMARK>
 VINA RESULT:      -6.3      2.139      7.326
  Name = 
  4 active torsions:
  status: ('A' for Active; 'I' for Inactive)
    1  A    between atoms: S_1  and  C_4
    2  A    between atoms: S_1  and  C_27
    3  A    between atoms: C_16  and  C_27
    4  A    between atoms: C_19  and  N_26
                            x       y       z     vdW  Elec       q    Type
                         _______ _______ _______ _____ _____    ______ ____

>  <TORSDO>
F 4

$$$$
