=
 OpenBabel11052418103D

 28 30  0  0  1  0  0  0  0  0999 V2000
  189.8320  174.5360  141.7910 C   0  0  0  0  0  0  0  0  0  0  0  0
  191.9320  178.2170  143.9820 O   0  0  0  0  0  0  0  0  0  0  0  0
  188.4180  177.1480  144.0790 C   0  0  0  0  0  0  0  0  0  0  0  0
  189.8860  177.2840  146.0810 C   0  0  0  0  0  1  0  0  0  0  0  0
  190.9590  176.3190  142.9510 C   0  0  0  0  0  0  0  0  0  0  0  0
  188.4920  176.1350  143.1960 C   0  0  0  0  0  3  0  0  0  0  0  0
  192.1770  174.8210  141.5900 C   0  0  0  0  0  3  0  0  0  0  0  0
  190.9180  177.4820  143.8490 C   0  0  0  0  0  0  0  0  0  0  0  0
  192.1350  175.9010  142.4110 N   0  0  0  0  0  0  0  0  0  0  0  0
  189.6800  177.7670  144.6550 C   0  0  1  0  0  3  0  0  0  0  0  0
  191.0370  174.1470  141.2900 N   0  0  0  0  0  0  0  0  0  0  0  0
  189.7720  175.6430  142.6530 C   0  0  0  0  0  0  0  0  0  0  0  0
  186.4380  178.6710  143.8960 C   0  0  0  0  0  3  0  0  0  0  0  0
  186.4240  176.9910  145.6430 C   0  0  0  0  0  0  0  0  0  0  0  0
  184.5430  178.4970  145.3840 C   0  0  0  0  0  0  0  0  0  0  0  0
  187.0800  177.6020  144.5500 C   0  0  0  0  0  0  0  0  0  0  0  0
  185.1650  177.4410  146.0500 C   0  0  0  0  0  3  0  0  0  0  0  0
  187.0040  175.9840  146.3430 F   0  0  0  0  0  0  0  0  0  0  0  0
  183.3220  178.9270  145.7840 F   0  0  0  0  0  0  0  0  0  0  0  0
  185.1800  179.1150  144.3080 C   0  0  0  0  0  3  0  0  0  0  0  0
  188.5890  173.7510  141.4600 C   0  0  1  0  0  3  0  0  0  0  0  0
  188.5140  173.2710  140.0100 C   0  0  0  0  0  2  0  0  0  0  0  0
  188.1650  174.3120  139.1470 O   0  0  0  0  0  1  0  0  0  0  0  0
  188.2330  172.6720  142.4890 C   0  0  0  0  0  2  0  0  0  0  0  0
  189.4310  171.8580  142.9600 C   0  0  0  0  0  2  0  0  0  0  0  0
  189.7690  172.2090  144.3960 C   0  0  0  0  0  2  0  0  0  0  0  0
  191.2500  172.4950  144.5100 C   0  0  0  0  0  2  0  0  0  0  0  0
  191.4380  173.7150  145.1580 O   0  0  0  0  0  1  0  0  0  0  0  0
  1 12  1  0  0  0  0
  3 16  1  0  0  0  0
  3 10  1  0  0  0  0
  5  8  1  0  0  0  0
  6  3  2  0  0  0  0
  7  9  2  0  0  0  0
  8  2  2  0  0  0  0
  8 10  1  0  0  0  0
  9  5  1  0  0  0  0
 10  4  1  1  0  0  0
 11  7  1  0  0  0  0
 11  1  2  0  0  0  0
 12  5  2  0  0  0  0
 12  6  1  0  0  0  0
 13 20  2  0  0  0  0
 13 16  1  0  0  0  0
 14 17  1  0  0  0  0
 14 18  1  0  0  0  0
 15 19  1  0  0  0  0
 15 17  2  0  0  0  0
 16 14  2  0  0  0  0
 20 15  1  0  0  0  0
 21 22  1  6  0  0  0
 21  1  1  0  0  0  0
 21 24  1  0  0  0  0
 23 22  1  0  0  0  0
 24 25  1  0  0  0  0
 25 26  1  0  0  0  0
 26 27  1  0  0  0  0
 27 28  1  0  0  0  0
M  END
>  <MODEL>
1

>  <REMARK>
 VINA RESULT:      -6.9      0.000      0.000
  Name = 
  7 active torsions:
  status: ('A' for Active; 'I' for Inactive)
    1  A    between atoms: C_1  and  C_2
    2  A    between atoms: C_2  and  C_3
    3  A    between atoms: C_2  and  C_8
    4  A    between atoms: C_3  and  C_7
    5  A    between atoms: C_6  and  C_22
    6  A    between atoms: C_7  and  C_22
    7  A    between atoms: C_10  and  C_13
                            x       y       z     vdW  Elec       q    Type
                         _______ _______ _______ _____ _____    ______ ____

>  <TORSDO>
F 7

$$$$
=
 OpenBabel11052418103D

 28 30  0  0  1  0  0  0  0  0999 V2000
  185.3650  177.9950  143.9130 C   0  0  0  0  0  0  0  0  0  0  0  0
  186.8360  177.0410  139.4760 O   0  0  0  0  0  0  0  0  0  0  0  0
  188.6260  176.6330  142.6590 C   0  0  0  0  0  0  0  0  0  0  0  0
  188.1220  174.7650  141.0970 C   0  0  0  0  0  1  0  0  0  0  0  0
  186.0220  177.4390  141.6640 C   0  0  0  0  0  0  0  0  0  0  0  0
  187.6980  177.1590  143.4800 C   0  0  0  0  0  3  0  0  0  0  0  0
  183.8530  178.2650  142.1070 C   0  0  0  0  0  3  0  0  0  0  0  0
  187.0310  176.9450  140.7170 C   0  0  0  0  0  0  0  0  0  0  0  0
  184.7900  177.8180  141.2320 N   0  0  0  0  0  0  0  0  0  0  0  0
  188.2760  176.2720  141.2260 C   0  0  1  0  0  3  0  0  0  0  0  0
  184.1410  178.3460  143.4310 N   0  0  0  0  0  0  0  0  0  0  0  0
  186.3420  177.5180  143.0240 C   0  0  0  0  0  0  0  0  0  0  0  0
  191.0450  177.2160  142.9400 C   0  0  0  0  0  3  0  0  0  0  0  0
  190.2400  175.1730  143.9650 C   0  0  0  0  0  0  0  0  0  0  0  0
  192.5640  175.8230  144.2000 C   0  0  0  0  0  0  0  0  0  0  0  0
  189.9810  176.3310  143.1970 C   0  0  0  0  0  0  0  0  0  0  0  0
  191.5250  174.9280  144.4590 C   0  0  0  0  0  3  0  0  0  0  0  0
  189.2710  174.2570  144.2150 F   0  0  0  0  0  0  0  0  0  0  0  0
  193.8060  175.5790  144.6830 F   0  0  0  0  0  0  0  0  0  0  0  0
  192.3250  176.9660  143.4370 C   0  0  0  0  0  3  0  0  0  0  0  0
  185.6440  178.0720  145.3920 C   0  0  1  0  0  3  0  0  0  0  0  0
  184.7330  179.0330  146.1560 C   0  0  0  0  0  2  0  0  0  0  0  0
  183.7550  178.3450  146.8770 O   0  0  0  0  0  1  0  0  0  0  0  0
  185.8170  176.7090  146.0720 C   0  0  0  0  0  2  0  0  0  0  0  0
  186.7950  176.7280  147.2390 C   0  0  0  0  0  2  0  0  0  0  0  0
  188.1250  176.1370  146.8150 C   0  0  0  0  0  2  0  0  0  0  0  0
  189.1900  177.2110  146.8560 C   0  0  0  0  0  2  0  0  0  0  0  0
  190.3830  176.6630  147.3260 O   0  0  0  0  0  1  0  0  0  0  0  0
  1 21  1  0  0  0  0
  2  8  2  0  0  0  0
  3 16  1  0  0  0  0
  3  6  2  0  0  0  0
  5 12  1  0  0  0  0
  7 11  2  0  0  0  0
  8 10  1  0  0  0  0
  8  5  1  0  0  0  0
  9  5  2  0  0  0  0
  9  7  1  0  0  0  0
 10  4  1  1  0  0  0
 10  3  1  0  0  0  0
 11  1  1  0  0  0  0
 12  6  1  0  0  0  0
 12  1  2  0  0  0  0
 13 16  2  0  0  0  0
 13 20  1  0  0  0  0
 14 18  1  0  0  0  0
 14 17  2  0  0  0  0
 15 17  1  0  0  0  0
 15 19  1  0  0  0  0
 16 14  1  0  0  0  0
 20 15  2  0  0  0  0
 21 24  1  1  0  0  0
 21 22  1  0  0  0  0
 22 23  1  0  0  0  0
 24 25  1  0  0  0  0
 26 27  1  0  0  0  0
 26 25  1  0  0  0  0
 27 28  1  0  0  0  0
M  END
>  <MODEL>
2

>  <REMARK>
 VINA RESULT:      -6.8      3.500      6.450
  Name = 
  7 active torsions:
  status: ('A' for Active; 'I' for Inactive)
    1  A    between atoms: C_1  and  C_2
    2  A    between atoms: C_2  and  C_3
    3  A    between atoms: C_2  and  C_8
    4  A    between atoms: C_3  and  C_7
    5  A    between atoms: C_6  and  C_22
    6  A    between atoms: C_7  and  C_22
    7  A    between atoms: C_10  and  C_13
                            x       y       z     vdW  Elec       q    Type
                         _______ _______ _______ _____ _____    ______ ____

>  <TORSDO>
F 7

$$$$
=
 OpenBabel11052418103D

 28 30  0  0  1  0  0  0  0  0999 V2000
  185.6120  177.9940  142.6430 C   0  0  0  0  0  0  0  0  0  0  0  0
  183.9440  178.1400  147.1100 O   0  0  0  0  0  0  0  0  0  0  0  0
  187.2770  177.1750  145.9010 C   0  0  0  0  0  0  0  0  0  0  0  0
  186.8570  179.0600  147.4660 C   0  0  0  0  0  1  0  0  0  0  0  0
  184.7520  178.1790  144.8840 C   0  0  0  0  0  0  0  0  0  0  0  0
  187.0460  177.2690  144.5790 C   0  0  0  0  0  3  0  0  0  0  0  0
  183.4220  178.8110  143.0370 C   0  0  0  0  0  3  0  0  0  0  0  0
  184.9290  178.0190  146.3340 C   0  0  0  0  0  0  0  0  0  0  0  0
  183.5840  178.6530  144.3750 N   0  0  0  0  0  0  0  0  0  0  0  0
  186.2990  177.7650  146.9020 C   0  0  1  0  0  3  0  0  0  0  0  0
  184.4290  178.4880  142.1850 N   0  0  0  0  0  0  0  0  0  0  0  0
  185.8020  177.8360  144.0250 C   0  0  0  0  0  0  0  0  0  0  0  0
  188.5070  175.3750  147.1320 C   0  0  0  0  0  3  0  0  0  0  0  0
  189.8090  177.1280  146.0800 C   0  0  0  0  0  0  0  0  0  0  0  0
  190.9180  175.3360  147.2790 C   0  0  0  0  0  0  0  0  0  0  0  0
  188.5490  176.5590  146.3720 C   0  0  0  0  0  0  0  0  0  0  0  0
  190.9810  176.5140  146.5340 C   0  0  0  0  0  3  0  0  0  0  0  0
  189.9180  178.2890  145.3880 F   0  0  0  0  0  0  0  0  0  0  0  0
  192.0580  174.7480  147.7150 F   0  0  0  0  0  0  0  0  0  0  0  0
  189.6810  174.7670  147.5810 C   0  0  0  0  0  3  0  0  0  0  0  0
  186.7190  177.6700  141.6730 C   0  0  1  0  0  3  0  0  0  0  0  0
  186.3070  177.7350  140.2020 C   0  0  0  0  0  2  0  0  0  0  0  0
  186.8830  176.6960  139.4660 O   0  0  0  0  0  1  0  0  0  0  0  0
  188.0480  178.3710  141.9770 C   0  0  0  0  0  2  0  0  0  0  0  0
  189.2400  177.4240  142.0300 C   0  0  0  0  0  2  0  0  0  0  0  0
  188.7620  175.9870  142.0900 C   0  0  0  0  0  2  0  0  0  0  0  0
  189.6690  175.1920  143.0040 C   0  0  0  0  0  2  0  0  0  0  0  0
  190.9580  175.7200  142.9500 O   0  0  0  0  0  1  0  0  0  0  0  0
  1 12  1  0  0  0  0
  3 16  1  0  0  0  0
  3 10  1  0  0  0  0
  5  8  1  0  0  0  0
  6  3  2  0  0  0  0
  7  9  2  0  0  0  0
  8 10  1  0  0  0  0
  8  2  2  0  0  0  0
  9  5  1  0  0  0  0
 10  4  1  6  0  0  0
 11  1  2  0  0  0  0
 11  7  1  0  0  0  0
 12  6  1  0  0  0  0
 12  5  2  0  0  0  0
 13 20  1  0  0  0  0
 14 16  1  0  0  0  0
 14 17  2  0  0  0  0
 15 20  2  0  0  0  0
 15 19  1  0  0  0  0
 16 13  2  0  0  0  0
 17 15  1  0  0  0  0
 18 14  1  0  0  0  0
 21 22  1  6  0  0  0
 21 24  1  0  0  0  0
 21  1  1  0  0  0  0
 23 22  1  0  0  0  0
 24 25  1  0  0  0  0
 25 26  1  0  0  0  0
 26 27  1  0  0  0  0
 28 27  1  0  0  0  0
M  END
>  <MODEL>
3

>  <REMARK>
 VINA RESULT:      -6.6      3.579      5.826
  Name = 
  7 active torsions:
  status: ('A' for Active; 'I' for Inactive)
    1  A    between atoms: C_1  and  C_2
    2  A    between atoms: C_2  and  C_3
    3  A    between atoms: C_2  and  C_8
    4  A    between atoms: C_3  and  C_7
    5  A    between atoms: C_6  and  C_22
    6  A    between atoms: C_7  and  C_22
    7  A    between atoms: C_10  and  C_13
                            x       y       z     vdW  Elec       q    Type
                         _______ _______ _______ _____ _____    ______ ____

>  <TORSDO>
F 7

$$$$
=
 OpenBabel11052418103D

 28 30  0  0  1  0  0  0  0  0999 V2000
  185.2250  177.9540  143.8330 C   0  0  0  0  0  0  0  0  0  0  0  0
  186.3260  176.9970  148.3750 O   0  0  0  0  0  0  0  0  0  0  0  0
  188.1730  176.1680  145.3080 C   0  0  0  0  0  0  0  0  0  0  0  0
  189.0820  177.5820  147.1400 C   0  0  0  0  0  1  0  0  0  0  0  0
  185.7820  177.5830  146.1450 C   0  0  0  0  0  0  0  0  0  0  0  0
  187.2880  176.6330  144.4090 C   0  0  0  0  0  3  0  0  0  0  0  0
  183.8330  178.7840  145.5630 C   0  0  0  0  0  3  0  0  0  0  0  0
  186.6790  177.0240  147.1660 C   0  0  0  0  0  0  0  0  0  0  0  0
  184.6580  178.2580  146.5040 N   0  0  0  0  0  0  0  0  0  0  0  0
  188.0470  176.5300  146.7780 C   0  0  1  0  0  3  0  0  0  0  0  0
  184.1200  178.6350  144.2440 N   0  0  0  0  0  0  0  0  0  0  0  0
  186.0960  177.4140  144.7920 C   0  0  0  0  0  0  0  0  0  0  0  0
  189.4390  174.0090  145.2170 C   0  0  0  0  0  3  0  0  0  0  0  0
  190.3360  175.9070  144.0050 C   0  0  0  0  0  0  0  0  0  0  0  0
  191.4880  173.7740  143.9580 C   0  0  0  0  0  0  0  0  0  0  0  0
  189.3310  175.3600  144.8340 C   0  0  0  0  0  0  0  0  0  0  0  0
  191.4030  175.1130  143.5740 C   0  0  0  0  0  3  0  0  0  0  0  0
  190.3140  177.2110  143.6330 F   0  0  0  0  0  0  0  0  0  0  0  0
  192.5250  173.0120  143.5360 F   0  0  0  0  0  0  0  0  0  0  0  0
  190.5080  173.2220  144.7830 C   0  0  0  0  0  3  0  0  0  0  0  0
  185.5290  177.8290  142.3620 C   0  0  1  0  0  3  0  0  0  0  0  0
  184.3100  177.9790  141.4510 C   0  0  0  0  0  2  0  0  0  0  0  0
  184.6210  178.7070  140.3000 O   0  0  0  0  0  1  0  0  0  0  0  0
  186.7510  178.6330  141.9010 C   0  0  0  0  0  2  0  0  0  0  0  0
  187.8980  177.7660  141.3980 C   0  0  0  0  0  2  0  0  0  0  0  0
  187.3540  176.5150  140.7350 C   0  0  0  0  0  2  0  0  0  0  0  0
  188.2420  175.3380  141.0740 C   0  0  0  0  0  2  0  0  0  0  0  0
  188.4330  174.5580  139.9350 O   0  0  0  0  0  1  0  0  0  0  0  0
  1 11  2  0  0  0  0
  1 12  1  0  0  0  0
  3 10  1  0  0  0  0
  5  9  1  0  0  0  0
  5  8  1  0  0  0  0
  6 12  1  0  0  0  0
  6  3  2  0  0  0  0
  7  9  2  0  0  0  0
  8  2  2  0  0  0  0
 10  4  1  6  0  0  0
 10  8  1  0  0  0  0
 11  7  1  0  0  0  0
 12  5  2  0  0  0  0
 14 16  2  0  0  0  0
 15 20  1  0  0  0  0
 16 13  1  0  0  0  0
 16  3  1  0  0  0  0
 17 15  2  0  0  0  0
 17 14  1  0  0  0  0
 18 14  1  0  0  0  0
 19 15  1  0  0  0  0
 20 13  2  0  0  0  0
 21 22  1  6  0  0  0
 21  1  1  0  0  0  0
 23 22  1  0  0  0  0
 24 21  1  0  0  0  0
 25 24  1  0  0  0  0
 26 27  1  0  0  0  0
 26 25  1  0  0  0  0
 28 27  1  0  0  0  0
M  END
>  <MODEL>
4

>  <REMARK>
 VINA RESULT:      -6.5      3.621      6.344
  Name = 
  7 active torsions:
  status: ('A' for Active; 'I' for Inactive)
    1  A    between atoms: C_1  and  C_2
    2  A    between atoms: C_2  and  C_3
    3  A    between atoms: C_2  and  C_8
    4  A    between atoms: C_3  and  C_7
    5  A    between atoms: C_6  and  C_22
    6  A    between atoms: C_7  and  C_22
    7  A    between atoms: C_10  and  C_13
                            x       y       z     vdW  Elec       q    Type
                         _______ _______ _______ _____ _____    ______ ____

>  <TORSDO>
F 7

$$$$
=
 OpenBabel11052418103D

 28 30  0  0  1  0  0  0  0  0999 V2000
  190.0440  174.8720  142.6620 C   0  0  0  0  0  0  0  0  0  0  0  0
  191.9480  175.3620  147.0080 O   0  0  0  0  0  0  0  0  0  0  0  0
  188.5600  176.1810  145.8460 C   0  0  0  0  0  0  0  0  0  0  0  0
  189.0530  174.5410  147.6490 C   0  0  0  0  0  1  0  0  0  0  0  0
  191.0220  175.0060  144.8570 C   0  0  0  0  0  0  0  0  0  0  0  0
  188.7190  175.8910  144.5430 C   0  0  0  0  0  3  0  0  0  0  0  0
  192.2470  174.0920  143.0570 C   0  0  0  0  0  3  0  0  0  0  0  0
  190.9240  175.3790  146.2750 C   0  0  0  0  0  0  0  0  0  0  0  0
  192.1580  174.4470  144.3640 N   0  0  0  0  0  0  0  0  0  0  0  0
  189.5880  175.7320  146.8710 C   0  0  1  0  0  3  0  0  0  0  0  0
  191.1980  174.3000  142.2210 N   0  0  0  0  0  0  0  0  0  0  0  0
  189.9290  175.2330  144.0140 C   0  0  0  0  0  0  0  0  0  0  0  0
  186.0800  176.5100  145.7280 C   0  0  0  0  0  3  0  0  0  0  0  0
  187.3410  177.9060  147.2560 C   0  0  0  0  0  0  0  0  0  0  0  0
  184.9350  178.1450  147.0880 C   0  0  0  0  0  0  0  0  0  0  0  0
  187.3190  176.8770  146.2870 C   0  0  0  0  0  0  0  0  0  0  0  0
  186.1530  178.5290  147.6490 C   0  0  0  0  0  3  0  0  0  0  0  0
  188.5050  178.3360  147.8040 F   0  0  0  0  0  0  0  0  0  0  0  0
  183.7880  178.7540  147.4750 F   0  0  0  0  0  0  0  0  0  0  0  0
  184.8980  177.1360  146.1250 C   0  0  0  0  0  3  0  0  0  0  0  0
  188.8880  175.0640  141.7140 C   0  0  1  0  0  3  0  0  0  0  0  0
  187.7010  174.1340  141.9700 C   0  0  0  0  0  2  0  0  0  0  0  0
  188.1100  172.8020  142.0650 O   0  0  0  0  0  1  0  0  0  0  0  0
  188.4920  176.5280  141.4930 C   0  0  0  0  0  2  0  0  0  0  0  0
  187.0850  176.8600  141.9730 C   0  0  0  0  0  2  0  0  0  0  0  0
  186.9850  178.3330  142.3180 C   0  0  0  0  0  2  0  0  0  0  0  0
  185.5630  178.6610  142.7200 C   0  0  0  0  0  2  0  0  0  0  0  0
  184.7580  177.5390  142.5320 O   0  0  0  0  0  1  0  0  0  0  0  0
  1 12  1  0  0  0  0
  3 16  1  0  0  0  0
  3 10  1  0  0  0  0
  5  8  1  0  0  0  0
  6  3  2  0  0  0  0
  7  9  2  0  0  0  0
  8 10  1  0  0  0  0
  8  2  2  0  0  0  0
  9  5  1  0  0  0  0
 10  4  1  6  0  0  0
 11  1  2  0  0  0  0
 11  7  1  0  0  0  0
 12  6  1  0  0  0  0
 12  5  2  0  0  0  0
 13 20  2  0  0  0  0
 13 16  1  0  0  0  0
 14 17  1  0  0  0  0
 14 18  1  0  0  0  0
 15 19  1  0  0  0  0
 15 17  2  0  0  0  0
 16 14  2  0  0  0  0
 20 15  1  0  0  0  0
 21 24  1  1  0  0  0
 21 22  1  0  0  0  0
 21  1  1  0  0  0  0
 22 23  1  0  0  0  0
 24 25  1  0  0  0  0
 25 26  1  0  0  0  0
 26 27  1  0  0  0  0
 28 27  1  0  0  0  0
M  END
>  <MODEL>
5

>  <REMARK>
 VINA RESULT:      -6.5      2.168      3.636
  Name = 
  7 active torsions:
  status: ('A' for Active; 'I' for Inactive)
    1  A    between atoms: C_1  and  C_2
    2  A    between atoms: C_2  and  C_3
    3  A    between atoms: C_2  and  C_8
    4  A    between atoms: C_3  and  C_7
    5  A    between atoms: C_6  and  C_22
    6  A    between atoms: C_7  and  C_22
    7  A    between atoms: C_10  and  C_13
                            x       y       z     vdW  Elec       q    Type
                         _______ _______ _______ _____ _____    ______ ____

>  <TORSDO>
F 7

$$$$
=
 OpenBabel11052418103D

 28 30  0  0  1  0  0  0  0  0999 V2000
  191.3700  175.1470  144.4230 C   0  0  0  0  0  0  0  0  0  0  0  0
  188.1280  173.3090  141.4450 O   0  0  0  0  0  0  0  0  0  0  0  0
  187.7890  176.0830  143.8310 C   0  0  0  0  0  0  0  0  0  0  0  0
  187.4560  176.3100  141.3770 C   0  0  0  0  0  1  0  0  0  0  0  0
  189.8020  174.2480  142.8340 C   0  0  0  0  0  0  0  0  0  0  0  0
  189.0100  176.0170  144.3910 C   0  0  0  0  0  3  0  0  0  0  0  0
  192.0170  173.4290  142.9220 C   0  0  0  0  0  3  0  0  0  0  0  0
  188.4570  174.2280  142.2420 C   0  0  0  0  0  0  0  0  0  0  0  0
  190.7710  173.4060  142.3840 N   0  0  0  0  0  0  0  0  0  0  0  0
  187.4860  175.3360  142.5430 C   0  0  1  0  0  3  0  0  0  0  0  0
  192.3090  174.2950  143.9270 N   0  0  0  0  0  0  0  0  0  0  0  0
  190.0800  175.1450  143.8700 C   0  0  0  0  0  0  0  0  0  0  0  0
  185.9460  176.4730  145.4810 C   0  0  0  0  0  3  0  0  0  0  0  0
  186.5640  178.3000  144.0140 C   0  0  0  0  0  0  0  0  0  0  0  0
  184.8010  178.5930  145.6520 C   0  0  0  0  0  0  0  0  0  0  0  0
  186.7580  176.9670  144.4430 C   0  0  0  0  0  0  0  0  0  0  0  0
  185.5910  179.1000  144.6190 C   0  0  0  0  0  3  0  0  0  0  0  0
  187.2840  178.8250  142.9910 F   0  0  0  0  0  0  0  0  0  0  0  0
  183.8610  179.3760  146.2340 F   0  0  0  0  0  0  0  0  0  0  0  0
  184.9760  177.2780  146.0820 C   0  0  0  0  0  3  0  0  0  0  0  0
  191.7350  176.1130  145.5210 C   0  0  1  0  0  3  0  0  0  0  0  0
  191.3830  175.6310  146.9280 C   0  0  0  0  0  2  0  0  0  0  0  0
  190.7980  176.6490  147.6840 O   0  0  0  0  0  1  0  0  0  0  0  0
  193.1460  176.6990  145.4000 C   0  0  0  0  0  2  0  0  0  0  0  0
  194.0890  176.2560  146.5120 C   0  0  0  0  0  2  0  0  0  0  0  0
  195.1570  175.3360  145.9540 C   0  0  0  0  0  2  0  0  0  0  0  0
  195.5650  175.8150  144.5770 C   0  0  0  0  0  2  0  0  0  0  0  0
  195.6620  174.7220  143.7170 O   0  0  0  0  0  1  0  0  0  0  0  0
  1 21  1  0  0  0  0
  2  8  2  0  0  0  0
  3  6  2  0  0  0  0
  3 16  1  0  0  0  0
  5 12  1  0  0  0  0
  7 11  2  0  0  0  0
  8 10  1  0  0  0  0
  8  5  1  0  0  0  0
  9  5  2  0  0  0  0
  9  7  1  0  0  0  0
 10  4  1  6  0  0  0
 10  3  1  0  0  0  0
 11  1  1  0  0  0  0
 12  6  1  0  0  0  0
 12  1  2  0  0  0  0
 13 20  1  0  0  0  0
 14 16  1  0  0  0  0
 14 17  2  0  0  0  0
 15 20  2  0  0  0  0
 15 19  1  0  0  0  0
 16 13  2  0  0  0  0
 17 15  1  0  0  0  0
 18 14  1  0  0  0  0
 21 24  1  1  0  0  0
 21 22  1  0  0  0  0
 22 23  1  0  0  0  0
 24 25  1  0  0  0  0
 26 25  1  0  0  0  0
 27 26  1  0  0  0  0
 28 27  1  0  0  0  0
M  END
>  <MODEL>
6

>  <REMARK>
 VINA RESULT:      -6.4      2.505      4.499
  Name = 
  7 active torsions:
  status: ('A' for Active; 'I' for Inactive)
    1  A    between atoms: C_1  and  C_2
    2  A    between atoms: C_2  and  C_3
    3  A    between atoms: C_2  and  C_8
    4  A    between atoms: C_3  and  C_7
    5  A    between atoms: C_6  and  C_22
    6  A    between atoms: C_7  and  C_22
    7  A    between atoms: C_10  and  C_13
                            x       y       z     vdW  Elec       q    Type
                         _______ _______ _______ _____ _____    ______ ____

>  <TORSDO>
F 7

$$$$
=
 OpenBabel11052418103D

 28 30  0  0  1  0  0  0  0  0999 V2000
  190.4060  173.7050  142.7920 C   0  0  0  0  0  0  0  0  0  0  0  0
  187.3220  176.0590  140.0160 O   0  0  0  0  0  0  0  0  0  0  0  0
  187.7810  176.2390  143.6570 C   0  0  0  0  0  0  0  0  0  0  0  0
  188.0560  178.1760  142.1230 C   0  0  0  0  0  1  0  0  0  0  0  0
  188.9380  174.9390  141.3360 C   0  0  0  0  0  0  0  0  0  0  0  0
  188.7190  175.2830  143.7890 C   0  0  0  0  0  3  0  0  0  0  0  0
  190.5090  173.4180  140.4410 C   0  0  0  0  0  3  0  0  0  0  0  0
  187.8610  175.9190  141.1460 C   0  0  0  0  0  0  0  0  0  0  0  0
  189.5070  174.3170  140.2690 N   0  0  0  0  0  0  0  0  0  0  0  0
  187.4340  176.8000  142.2890 C   0  0  1  0  0  3  0  0  0  0  0  0
  190.9530  173.1220  141.6900 N   0  0  0  0  0  0  0  0  0  0  0  0
  189.3770  174.6470  142.6320 C   0  0  0  0  0  0  0  0  0  0  0  0
  185.7550  176.6800  145.0610 C   0  0  0  0  0  3  0  0  0  0  0  0
  187.8970  177.4660  145.8760 C   0  0  0  0  0  0  0  0  0  0  0  0
  185.8860  177.8350  147.1780 C   0  0  0  0  0  0  0  0  0  0  0  0
  187.1460  176.8030  144.8800 C   0  0  0  0  0  0  0  0  0  0  0  0
  187.2640  177.9750  147.0140 C   0  0  0  0  0  3  0  0  0  0  0  0
  189.2340  177.6560  145.7450 F   0  0  0  0  0  0  0  0  0  0  0  0
  185.2800  178.3310  148.2840 F   0  0  0  0  0  0  0  0  0  0  0  0
  185.1300  177.1900  146.2000 C   0  0  0  0  0  3  0  0  0  0  0  0
  190.9400  173.3760  144.1620 C   0  0  1  0  0  3  0  0  0  0  0  0
  190.6030  171.9660  144.6470 C   0  0  0  0  0  2  0  0  0  0  0  0
  189.3220  171.9100  145.2020 O   0  0  0  0  0  1  0  0  0  0  0  0
  192.4040  173.7740  144.3800 C   0  0  0  0  0  2  0  0  0  0  0  0
  192.6660  174.4210  145.7340 C   0  0  0  0  0  2  0  0  0  0  0  0
  191.5990  175.4550  146.0330 C   0  0  0  0  0  2  0  0  0  0  0  0
  191.1430  175.3080  147.4690 C   0  0  0  0  0  2  0  0  0  0  0  0
  189.8050  174.9190  147.4930 O   0  0  0  0  0  1  0  0  0  0  0  0
  1 21  1  0  0  0  0
  2  8  2  0  0  0  0
  3  6  2  0  0  0  0
  3 16  1  0  0  0  0
  5 12  2  0  0  0  0
  7 11  1  0  0  0  0
  8  5  1  0  0  0  0
  8 10  1  0  0  0  0
  9  7  2  0  0  0  0
  9  5  1  0  0  0  0
 10  4  1  6  0  0  0
 10  3  1  0  0  0  0
 11  1  2  0  0  0  0
 12  1  1  0  0  0  0
 12  6  1  0  0  0  0
 13 20  1  0  0  0  0
 14 17  2  0  0  0  0
 15 19  1  0  0  0  0
 16 13  2  0  0  0  0
 16 14  1  0  0  0  0
 17 15  1  0  0  0  0
 18 14  1  0  0  0  0
 20 15  2  0  0  0  0
 21 24  1  6  0  0  0
 21 22  1  0  0  0  0
 22 23  1  0  0  0  0
 24 25  1  0  0  0  0
 25 26  1  0  0  0  0
 26 27  1  0  0  0  0
 27 28  1  0  0  0  0
M  END
>  <MODEL>
7

>  <REMARK>
 VINA RESULT:      -6.4      2.203      3.524
  Name = 
  7 active torsions:
  status: ('A' for Active; 'I' for Inactive)
    1  A    between atoms: C_1  and  C_2
    2  A    between atoms: C_2  and  C_3
    3  A    between atoms: C_2  and  C_8
    4  A    between atoms: C_3  and  C_7
    5  A    between atoms: C_6  and  C_22
    6  A    between atoms: C_7  and  C_22
    7  A    between atoms: C_10  and  C_13
                            x       y       z     vdW  Elec       q    Type
                         _______ _______ _______ _____ _____    ______ ____

>  <TORSDO>
F 7

$$$$
=
 OpenBabel11052418103D

 28 30  0  0  1  0  0  0  0  0999 V2000
  187.4470  177.5070  146.0810 C   0  0  0  0  0  0  0  0  0  0  0  0
  191.9250  175.8630  146.0440 O   0  0  0  0  0  0  0  0  0  0  0  0
  189.2630  175.4200  143.5510 C   0  0  0  0  0  0  0  0  0  0  0  0
  191.4420  176.5200  143.0780 C   0  0  0  0  0  1  0  0  0  0  0  0
  189.7430  176.7860  146.0650 C   0  0  0  0  0  0  0  0  0  0  0  0
  188.2670  176.0420  144.2070 C   0  0  0  0  0  3  0  0  0  0  0  0
  188.9250  178.1290  147.8280 C   0  0  0  0  0  3  0  0  0  0  0  0
  190.8440  176.0520  145.4250 C   0  0  0  0  0  0  0  0  0  0  0  0
  189.9370  177.4420  147.2400 N   0  0  0  0  0  0  0  0  0  0  0  0
  190.7040  175.5700  144.0070 C   0  0  1  0  0  3  0  0  0  0  0  0
  187.6970  178.1610  147.2490 N   0  0  0  0  0  0  0  0  0  0  0  0
  188.4860  176.8020  145.4520 C   0  0  0  0  0  0  0  0  0  0  0  0
  188.4960  175.3260  141.1680 C   0  0  0  0  0  3  0  0  0  0  0  0
  189.0770  173.2410  142.2600 C   0  0  0  0  0  0  0  0  0  0  0  0
  188.3400  173.2450  139.9500 C   0  0  0  0  0  0  0  0  0  0  0  0
  188.9450  174.6470  142.3180 C   0  0  0  0  0  0  0  0  0  0  0  0
  188.7760  172.5530  141.0810 C   0  0  0  0  0  3  0  0  0  0  0  0
  189.4640  172.5220  143.3440 F   0  0  0  0  0  0  0  0  0  0  0  0
  188.0510  172.5710  138.8120 F   0  0  0  0  0  0  0  0  0  0  0  0
  188.1980  174.6320  139.9940 C   0  0  0  0  0  3  0  0  0  0  0  0
  186.0800  177.5850  145.4510 C   0  0  1  0  0  3  0  0  0  0  0  0
  184.9380  177.1370  146.3640 C   0  0  0  0  0  2  0  0  0  0  0  0
  184.2150  178.2290  146.8490 O   0  0  0  0  0  1  0  0  0  0  0  0
  185.8030  178.8980  144.7100 C   0  0  0  0  0  2  0  0  0  0  0  0
  186.0490  178.8160  143.2090 C   0  0  0  0  0  2  0  0  0  0  0  0
  185.1620  177.7530  142.5920 C   0  0  0  0  0  2  0  0  0  0  0  0
  184.9240  178.0790  141.1340 C   0  0  0  0  0  2  0  0  0  0  0  0
  186.1300  178.0020  140.4390 O   0  0  0  0  0  1  0  0  0  0  0  0
  1 11  1  0  0  0  0
  3 10  1  0  0  0  0
  3  6  2  0  0  0  0
  5  9  2  0  0  0  0
  6 12  1  0  0  0  0
  8  2  2  0  0  0  0
  8  5  1  0  0  0  0
  9  7  1  0  0  0  0
 10  4  1  6  0  0  0
 10  8  1  0  0  0  0
 11  7  2  0  0  0  0
 12  5  1  0  0  0  0
 12  1  2  0  0  0  0
 13 16  1  0  0  0  0
 14 16  2  0  0  0  0
 14 18  1  0  0  0  0
 15 20  1  0  0  0  0
 15 17  2  0  0  0  0
 16  3  1  0  0  0  0
 17 14  1  0  0  0  0
 19 15  1  0  0  0  0
 20 13  2  0  0  0  0
 21 24  1  1  0  0  0
 21  1  1  0  0  0  0
 21 22  1  0  0  0  0
 22 23  1  0  0  0  0
 25 24  1  0  0  0  0
 26 25  1  0  0  0  0
 27 26  1  0  0  0  0
 28 27  1  0  0  0  0
M  END
>  <MODEL>
8

>  <REMARK>
 VINA RESULT:      -6.3      3.319      6.409
  Name = 
  7 active torsions:
  status: ('A' for Active; 'I' for Inactive)
    1  A    between atoms: C_1  and  C_2
    2  A    between atoms: C_2  and  C_3
    3  A    between atoms: C_2  and  C_8
    4  A    between atoms: C_3  and  C_7
    5  A    between atoms: C_6  and  C_22
    6  A    between atoms: C_7  and  C_22
    7  A    between atoms: C_10  and  C_13
                            x       y       z     vdW  Elec       q    Type
                         _______ _______ _______ _____ _____    ______ ____

>  <TORSDO>
F 7

$$$$
=
 OpenBabel11052418103D

 28 30  0  0  1  0  0  0  0  0999 V2000
  190.3740  176.7010  145.1400 C   0  0  0  0  0  0  0  0  0  0  0  0
  187.0990  178.5290  148.0880 O   0  0  0  0  0  0  0  0  0  0  0  0
  186.8390  177.7750  144.5010 C   0  0  0  0  0  0  0  0  0  0  0  0
  185.4010  176.7420  146.2470 C   0  0  0  0  0  1  0  0  0  0  0  0
  188.7280  177.5280  146.6900 C   0  0  0  0  0  0  0  0  0  0  0  0
  188.1070  177.3830  144.2860 C   0  0  0  0  0  3  0  0  0  0  0  0
  190.8810  176.9150  147.4460 C   0  0  0  0  0  3  0  0  0  0  0  0
  187.3760  178.0360  146.9620 C   0  0  0  0  0  0  0  0  0  0  0  0
  189.6350  177.3930  147.6930 N   0  0  0  0  0  0  0  0  0  0  0  0
  186.3030  177.9200  145.9150 C   0  0  1  0  0  3  0  0  0  0  0  0
  191.2390  176.5700  146.1820 N   0  0  0  0  0  0  0  0  0  0  0  0
  189.0770  177.1820  145.3800 C   0  0  0  0  0  0  0  0  0  0  0  0
  184.5490  178.0870  143.5380 C   0  0  0  0  0  3  0  0  0  0  0  0
  186.4330  178.0830  142.0140 C   0  0  0  0  0  0  0  0  0  0  0  0
  184.1820  178.3950  141.1700 C   0  0  0  0  0  0  0  0  0  0  0  0
  185.9380  177.9840  143.3340 C   0  0  0  0  0  0  0  0  0  0  0  0
  185.5550  178.2870  140.9460 C   0  0  0  0  0  3  0  0  0  0  0  0
  187.7560  177.9510  141.7430 F   0  0  0  0  0  0  0  0  0  0  0  0
  183.3380  178.5940  140.1290 F   0  0  0  0  0  0  0  0  0  0  0  0
  183.6780  178.2920  142.4660 C   0  0  0  0  0  3  0  0  0  0  0  0
  190.7950  176.2840  143.7540 C   0  0  1  0  0  3  0  0  0  0  0  0
  191.9520  177.0980  143.1750 C   0  0  0  0  0  2  0  0  0  0  0  0
  192.9700  176.2680  142.6990 O   0  0  0  0  0  1  0  0  0  0  0  0
  190.9480  174.7700  143.5710 C   0  0  0  0  0  2  0  0  0  0  0  0
  190.2740  174.2350  142.3140 C   0  0  0  0  0  2  0  0  0  0  0  0
  188.9560  173.5750  142.6690 C   0  0  0  0  0  2  0  0  0  0  0  0
  187.8210  174.3340  142.0180 C   0  0  0  0  0  2  0  0  0  0  0  0
  188.3160  175.0830  140.9520 O   0  0  0  0  0  1  0  0  0  0  0  0
  1 12  2  0  0  0  0
  1 11  1  0  0  0  0
  3 10  1  0  0  0  0
  5  8  1  0  0  0  0
  5  9  2  0  0  0  0
  6  3  2  0  0  0  0
  6 12  1  0  0  0  0
  7  9  1  0  0  0  0
  8  2  2  0  0  0  0
 10  4  1  1  0  0  0
 10  8  1  0  0  0  0
 11  7  2  0  0  0  0
 12  5  1  0  0  0  0
 14 16  2  0  0  0  0
 15 20  1  0  0  0  0
 16 13  1  0  0  0  0
 16  3  1  0  0  0  0
 17 15  2  0  0  0  0
 17 14  1  0  0  0  0
 18 14  1  0  0  0  0
 19 15  1  0  0  0  0
 20 13  2  0  0  0  0
 21 22  1  1  0  0  0
 21  1  1  0  0  0  0
 23 22  1  0  0  0  0
 24 21  1  0  0  0  0
 25 26  1  0  0  0  0
 25 24  1  0  0  0  0
 27 26  1  0  0  0  0
 28 27  1  0  0  0  0
M  END
>  <MODEL>
9

>  <REMARK>
 VINA RESULT:      -6.2      2.776      4.450
  Name = 
  7 active torsions:
  status: ('A' for Active; 'I' for Inactive)
    1  A    between atoms: C_1  and  C_2
    2  A    between atoms: C_2  and  C_3
    3  A    between atoms: C_2  and  C_8
    4  A    between atoms: C_3  and  C_7
    5  A    between atoms: C_6  and  C_22
    6  A    between atoms: C_7  and  C_22
    7  A    between atoms: C_10  and  C_13
                            x       y       z     vdW  Elec       q    Type
                         _______ _______ _______ _____ _____    ______ ____

>  <TORSDO>
F 7

$$$$
