=
 OpenBabel11052420543D

 43 50  0  0  1  0  0  0  0  0999 V2000
  184.9860  178.8250  144.0780 C   0  0  0  0  0  0  0  0  0  0  0  0
  188.9920  175.8030  144.3680 N   0  0  0  0  0  0  0  0  0  0  0  0
  188.6440  174.0280  142.2230 C   0  0  0  0  0  0  0  0  0  0  0  0
  187.0450  177.7360  144.7630 C   0  0  0  0  0  0  0  0  0  0  0  0
  184.8320  177.8980  143.0470 C   0  0  0  0  0  3  0  0  0  0  0  0
  184.0670  179.8050  144.2520 F   0  0  0  0  0  0  0  0  0  0  0  0
  186.8970  176.7990  143.7140 C   0  0  0  0  0  0  0  0  0  0  0  0
  186.0900  178.7440  144.9310 C   0  0  0  0  0  3  0  0  0  0  0  0
  185.7820  176.8900  142.8660 C   0  0  0  0  0  3  0  0  0  0  0  0
  187.7190  174.9140  142.4430 N   0  0  0  0  0  0  0  0  0  0  0  0
  187.8310  175.8560  143.5200 C   0  0  0  0  0  0  0  0  0  0  0  0
  189.1070  176.6670  145.5440 C   0  0  0  0  0  2  0  0  0  0  0  0
  190.0130  174.8280  144.0980 C   0  0  0  0  0  0  0  0  0  0  0  0
  189.8580  173.9860  143.0660 C   0  0  0  0  0  3  0  0  0  0  0  0
  188.0570  177.6870  145.5790 N   0  0  0  0  0  0  0  0  0  0  0  0
  188.4930  173.0830  141.0760 C   0  0  2  0  0  3  0  0  0  0  0  0
  189.5340  173.3550  140.0560 C   0  0  2  0  0  3  0  0  0  0  0  0
  188.2070  173.7930  139.8940 O   0  0  0  0  0  0  0  0  0  0  0  0
  189.7710  172.1350  139.2330 C   0  0  0  0  0  0  0  0  0  0  0  0
  189.2700  172.0470  138.0780 O   0  0  0  0  0  0  0  0  0  0  0  0
  190.5730  171.1100  139.7440 O   0  0  0  0  0  0  0  0  0  0  0  0
  191.8910  170.8610  139.2670 C   0  0  2  0  0  3  0  0  0  0  0  0
  194.0450  169.7370  140.6760 S   0  0  0  0  0  0  0  0  0  0  0  0
  192.7930  172.3440  141.2690 C   0  0  2  0  0  3  0  0  0  0  0  0
  192.0170  169.3910  138.9170 C   0  0  0  0  0  2  0  0  0  0  0  0
  192.9210  171.1260  140.3500 C   0  0  2  0  0  0  0  0  0  0  0  0
  193.7100  172.3790  140.0530 C   0  0  0  0  0  2  0  0  0  0  0  0
  193.4600  168.9690  139.1380 C   0  0  0  0  0  2  0  0  0  0  0  0
  193.5560  172.1840  142.5520 C   0  0  0  0  0  0  0  0  0  0  0  0
  195.5880  172.4590  143.8590 C   0  0  0  0  0  3  0  0  0  0  0  0
  193.5750  171.6230  144.9170 C   0  0  0  0  0  3  0  0  0  0  0  0
  194.9240  171.9840  144.9940 C   0  0  0  0  0  3  0  0  0  0  0  0
  192.8920  171.7290  143.7000 C   0  0  0  0  0  3  0  0  0  0  0  0
  194.9040  172.5660  142.6420 C   0  0  0  0  0  3  0  0  0  0  0  0
  191.1660  174.8050  144.9050 O   0  0  0  0  0  0  0  0  0  0  0  0
  194.0960  176.1000  142.9800 C   0  0  0  0  0  3  0  0  0  0  0  0
  195.0590  176.1510  143.9930 C   0  0  0  0  0  0  0  0  0  0  0  0
  193.4210  175.3180  145.5780 C   0  0  0  0  0  3  0  0  0  0  0  0
  192.8000  175.6610  143.2660 C   0  0  0  0  0  3  0  0  0  0  0  0
  192.4490  175.2730  144.5710 C   0  0  0  0  0  0  0  0  0  0  0  0
  194.7180  175.7570  145.2940 C   0  0  0  0  0  3  0  0  0  0  0  0
  196.7510  176.8650  142.4830 O   0  0  0  0  0  0  0  0  0  0  0  0
  196.4120  176.6160  143.6720 C   0  0  0  0  0  3  0  0  0  0  0  0
  1  6  1  0  0  0  0
  1  8  2  0  0  0  0
  2 12  1  0  0  0  0
  3 10  2  0  0  0  0
  3 14  1  0  0  0  0
  4  8  1  0  0  0  0
  4 15  2  0  0  0  0
  5  1  1  0  0  0  0
  7  4  1  0  0  0  0
  9  5  2  0  0  0  0
  9  7  1  0  0  0  0
 10 11  1  0  0  0  0
 11  7  2  0  0  0  0
 11  2  1  0  0  0  0
 12 15  1  0  0  0  0
 13  2  1  0  0  0  0
 13 35  1  0  0  0  0
 14 13  2  0  0  0  0
 16  3  1  1  0  0  0
 17 19  1  6  0  0  0
 17 16  1  0  0  0  0
 18 17  1  0  0  0  0
 18 16  1  0  0  0  0
 19 21  1  0  0  0  0
 20 19  2  0  0  0  0
 22 21  1  1  0  0  0
 22 26  1  0  0  0  0
 24 29  1  1  0  0  0
 25 28  1  0  0  0  0
 25 22  1  0  0  0  0
 26 27  1  6  0  0  0
 26 23  1  0  0  0  0
 26 24  1  0  0  0  0
 27 24  1  0  0  0  0
 28 23  1  0  0  0  0
 29 34  2  0  0  0  0
 29 33  1  0  0  0  0
 30 32  2  0  0  0  0
 31 32  1  0  0  0  0
 33 31  2  0  0  0  0
 34 30  1  0  0  0  0
 36 39  2  0  0  0  0
 36 37  1  0  0  0  0
 37 41  2  0  0  0  0
 39 40  1  0  0  0  0
 40 35  1  0  0  0  0
 40 38  2  0  0  0  0
 41 38  1  0  0  0  0
 42 43  2  0  0  0  0
 43 37  1  0  0  0  0
M  END
>  <MODEL>
1

>  <REMARK>
 VINA RESULT:      -7.2      0.000      0.000
  Name = 
  8 active torsions:
  status: ('A' for Active; 'I' for Inactive)
    1  A    between atoms: O_1  and  C_34
    2  A    between atoms: O_1  and  C_35
    3  A    between atoms: C_2  and  C_13
    4  A    between atoms: O_3  and  C_4
    5  A    between atoms: O_3  and  C_12
    6  A    between atoms: C_6  and  C_12
    7  A    between atoms: C_11  and  C_14
    8  A    between atoms: C_19  and  C_37
                            x       y       z     vdW  Elec       q    Type
                         _______ _______ _______ _____ _____    ______ ____

>  <TORSDO>
F 8

$$$$
=
 OpenBabel11052420543D

 43 50  0  0  1  0  0  0  0  0999 V2000
  185.1980  178.0480  146.9320 C   0  0  0  0  0  0  0  0  0  0  0  0
  188.2620  176.2570  143.3730 N   0  0  0  0  0  0  0  0  0  0  0  0
  190.8280  176.7020  144.4170 C   0  0  0  0  0  0  0  0  0  0  0  0
  186.0970  177.0780  144.8960 C   0  0  0  0  0  0  0  0  0  0  0  0
  186.4920  178.2870  147.3960 C   0  0  0  0  0  3  0  0  0  0  0  0
  184.1310  178.4010  147.6870 F   0  0  0  0  0  0  0  0  0  0  0  0
  187.4100  177.3100  145.3660 C   0  0  0  0  0  0  0  0  0  0  0  0
  185.0030  177.4450  145.6870 C   0  0  0  0  0  3  0  0  0  0  0  0
  187.5920  177.9190  146.6180 C   0  0  0  0  0  3  0  0  0  0  0  0
  189.8060  177.1180  145.1030 N   0  0  0  0  0  0  0  0  0  0  0  0
  188.4640  176.9220  144.6330 C   0  0  0  0  0  0  0  0  0  0  0  0
  186.9240  176.1260  142.7950 C   0  0  0  0  0  2  0  0  0  0  0  0
  189.4050  175.7880  142.6370 C   0  0  0  0  0  0  0  0  0  0  0  0
  190.6330  175.9870  143.1390 C   0  0  0  0  0  3  0  0  0  0  0  0
  185.8780  176.5240  143.7400 N   0  0  0  0  0  0  0  0  0  0  0  0
  192.2050  176.9100  144.9580 C   0  0  2  0  0  3  0  0  0  0  0  0
  192.8000  175.6070  145.3420 C   0  0  2  0  0  3  0  0  0  0  0  0
  192.2690  176.4890  146.3010 O   0  0  0  0  0  0  0  0  0  0  0  0
  194.2870  175.7030  145.3300 C   0  0  0  0  0  0  0  0  0  0  0  0
  194.9370  175.5490  146.4020 O   0  0  0  0  0  0  0  0  0  0  0  0
  194.9470  175.9360  144.1210 O   0  0  0  0  0  0  0  0  0  0  0  0
  196.0230  175.1220  143.6680 C   0  0  2  0  0  3  0  0  0  0  0  0
  196.7290  174.5240  141.0160 S   0  0  0  0  0  0  0  0  0  0  0  0
  194.2420  173.6650  142.3550 C   0  0  2  0  0  3  0  0  0  0  0  0
  197.1670  176.0160  143.2320 C   0  0  0  0  0  2  0  0  0  0  0  0
  195.6230  174.3220  142.4420 C   0  0  2  0  0  0  0  0  0  0  0  0
  195.4630  172.8580  142.7770 C   0  0  0  0  0  2  0  0  0  0  0  0
  197.9340  175.3080  142.1270 C   0  0  0  0  0  2  0  0  0  0  0  0
  193.8280  173.3720  140.9410 C   0  0  0  0  0  0  0  0  0  0  0  0
  192.8770  174.0840  138.8200 C   0  0  0  0  0  3  0  0  0  0  0  0
  193.8060  171.8580  139.0400 C   0  0  0  0  0  3  0  0  0  0  0  0
  193.1720  172.8340  138.2660 C   0  0  0  0  0  3  0  0  0  0  0  0
  194.1390  172.1290  140.3720 C   0  0  0  0  0  3  0  0  0  0  0  0
  193.2110  174.3550  140.1520 C   0  0  0  0  0  3  0  0  0  0  0  0
  189.2020  175.1020  141.4250 O   0  0  0  0  0  0  0  0  0  0  0  0
  190.6450  171.6630  141.6660 C   0  0  0  0  0  3  0  0  0  0  0  0
  190.4070  171.2000  140.3690 C   0  0  0  0  0  0  0  0  0  0  0  0
  189.3750  173.3230  139.8110 C   0  0  0  0  0  3  0  0  0  0  0  0
  190.2490  172.9520  142.0340 C   0  0  0  0  0  3  0  0  0  0  0  0
  189.6020  173.7920  141.1100 C   0  0  0  0  0  0  0  0  0  0  0  0
  189.7720  172.0340  139.4400 C   0  0  0  0  0  3  0  0  0  0  0  0
  190.4110  169.2900  138.9530 O   0  0  0  0  0  0  0  0  0  0  0  0
  190.8300  169.8440  140.0050 C   0  0  0  0  0  3  0  0  0  0  0  0
  1  5  1  0  0  0  0
  1  6  1  0  0  0  0
  2 11  1  0  0  0  0
  3 10  2  0  0  0  0
  4  7  1  0  0  0  0
  4  8  1  0  0  0  0
  7  9  1  0  0  0  0
  8  1  2  0  0  0  0
  9  5  2  0  0  0  0
 11 10  1  0  0  0  0
 11  7  2  0  0  0  0
 12  2  1  0  0  0  0
 12 15  1  0  0  0  0
 13 14  2  0  0  0  0
 13  2  1  0  0  0  0
 14  3  1  0  0  0  0
 15  4  2  0  0  0  0
 16  3  1  6  0  0  0
 16 17  1  0  0  0  0
 16 18  1  0  0  0  0
 17 19  1  1  0  0  0
 17 18  1  0  0  0  0
 19 20  2  0  0  0  0
 21 19  1  0  0  0  0
 22 21  1  6  0  0  0
 23 28  1  0  0  0  0
 23 26  1  0  0  0  0
 24 29  1  6  0  0  0
 24 26  1  0  0  0  0
 24 27  1  0  0  0  0
 25 22  1  0  0  0  0
 26 27  1  1  0  0  0
 26 22  1  0  0  0  0
 28 25  1  0  0  0  0
 30 34  1  0  0  0  0
 31 33  2  0  0  0  0
 32 30  2  0  0  0  0
 32 31  1  0  0  0  0
 33 29  1  0  0  0  0
 34 29  2  0  0  0  0
 35 13  1  0  0  0  0
 36 39  1  0  0  0  0
 37 36  2  0  0  0  0
 38 40  1  0  0  0  0
 40 35  1  0  0  0  0
 40 39  2  0  0  0  0
 41 38  2  0  0  0  0
 41 37  1  0  0  0  0
 42 43  2  0  0  0  0
 43 37  1  0  0  0  0
M  END
>  <MODEL>
2

>  <REMARK>
 VINA RESULT:      -7.2      2.038      5.783
  Name = 
  8 active torsions:
  status: ('A' for Active; 'I' for Inactive)
    1  A    between atoms: O_1  and  C_34
    2  A    between atoms: O_1  and  C_35
    3  A    between atoms: C_2  and  C_13
    4  A    between atoms: O_3  and  C_4
    5  A    between atoms: O_3  and  C_12
    6  A    between atoms: C_6  and  C_12
    7  A    between atoms: C_11  and  C_14
    8  A    between atoms: C_19  and  C_37
                            x       y       z     vdW  Elec       q    Type
                         _______ _______ _______ _____ _____    ______ ____

>  <TORSDO>
F 8

$$$$
=
 OpenBabel11052420543D

 43 50  0  0  1  0  0  0  0  0999 V2000
  194.0230  174.5810  145.3120 C   0  0  0  0  0  0  0  0  0  0  0  0
  190.3600  173.4270  142.0700 N   0  0  0  0  0  0  0  0  0  0  0  0
  188.9410  175.8310  141.7860 C   0  0  0  0  0  0  0  0  0  0  0  0
  192.5290  173.4150  143.7950 C   0  0  0  0  0  0  0  0  0  0  0  0
  193.2660  175.7440  145.1730 C   0  0  0  0  0  3  0  0  0  0  0  0
  195.1150  174.5740  146.1150 F   0  0  0  0  0  0  0  0  0  0  0  0
  191.7640  174.5940  143.6430 C   0  0  0  0  0  0  0  0  0  0  0  0
  193.6550  173.4210  144.6250 C   0  0  0  0  0  3  0  0  0  0  0  0
  192.1430  175.7510  144.3420 C   0  0  0  0  0  3  0  0  0  0  0  0
  189.9360  175.8010  142.6210 N   0  0  0  0  0  0  0  0  0  0  0  0
  190.7090  174.6070  142.8150 C   0  0  0  0  0  0  0  0  0  0  0  0
  191.0440  172.1550  142.3070 C   0  0  0  0  0  2  0  0  0  0  0  0
  189.2670  173.4850  141.1380 C   0  0  0  0  0  0  0  0  0  0  0  0
  188.5940  174.6360  140.9880 C   0  0  0  0  0  3  0  0  0  0  0  0
  192.2140  172.3160  143.1740 N   0  0  0  0  0  0  0  0  0  0  0  0
  188.1800  177.1030  141.6010 C   0  0  2  0  0  3  0  0  0  0  0  0
  186.7720  176.9170  142.0290 C   0  0  2  0  0  3  0  0  0  0  0  0
  187.1390  176.9170  140.6700 O   0  0  0  0  0  0  0  0  0  0  0  0
  186.1740  178.2330  142.3930 C   0  0  0  0  0  0  0  0  0  0  0  0
  185.4650  178.8570  141.5550 O   0  0  0  0  0  0  0  0  0  0  0  0
  186.3830  178.7480  143.6750 O   0  0  0  0  0  0  0  0  0  0  0  0
  185.6830  178.2640  144.8170 C   0  0  2  0  0  3  0  0  0  0  0  0
  186.5900  178.1600  147.4740 S   0  0  0  0  0  0  0  0  0  0  0  0
  187.7000  176.5960  145.2290 C   0  0  2  0  0  3  0  0  0  0  0  0
  185.1290  179.4450  145.5910 C   0  0  0  0  0  2  0  0  0  0  0  0
  186.6220  177.5420  145.7660 C   0  0  2  0  0  0  0  0  0  0  0  0
  186.3750  176.0510  145.7440 C   0  0  0  0  0  2  0  0  0  0  0  0
  185.0710  179.0680  147.0610 C   0  0  0  0  0  2  0  0  0  0  0  0
  188.8210  176.3820  146.2050 C   0  0  0  0  0  0  0  0  0  0  0  0
  190.1620  174.9140  147.6050 C   0  0  0  0  0  3  0  0  0  0  0  0
  190.7520  177.2540  147.3960 C   0  0  0  0  0  3  0  0  0  0  0  0
  190.9940  175.9870  147.9370 C   0  0  0  0  0  3  0  0  0  0  0  0
  189.6720  177.4480  146.5270 C   0  0  0  0  0  3  0  0  0  0  0  0
  189.0830  175.1080  146.7350 C   0  0  0  0  0  3  0  0  0  0  0  0
  188.9550  172.3400  140.3810 O   0  0  0  0  0  0  0  0  0  0  0  0
  189.2710  172.4920  136.6590 C   0  0  0  0  0  3  0  0  0  0  0  0
  190.1210  171.4060  136.4360 C   0  0  0  0  0  0  0  0  0  0  0  0
  190.1800  170.9730  138.8230 C   0  0  0  0  0  3  0  0  0  0  0  0
  188.8780  172.8190  137.9600 C   0  0  0  0  0  3  0  0  0  0  0  0
  189.3360  172.0650  139.0560 C   0  0  0  0  0  0  0  0  0  0  0  0
  190.5740  170.6450  137.5210 C   0  0  0  0  0  3  0  0  0  0  0  0
  191.0470  169.9700  134.7820 O   0  0  0  0  0  0  0  0  0  0  0  0
  190.5220  171.0810  135.0630 C   0  0  0  0  0  3  0  0  0  0  0  0
  1  6  1  0  0  0  0
  2 12  1  0  0  0  0
  2 11  1  0  0  0  0
  3 10  2  0  0  0  0
  4  8  1  0  0  0  0
  5  1  1  0  0  0  0
  7  4  1  0  0  0  0
  7  9  1  0  0  0  0
  8  1  2  0  0  0  0
  9  5  2  0  0  0  0
 10 11  1  0  0  0  0
 11  7  2  0  0  0  0
 12 15  1  0  0  0  0
 13  2  1  0  0  0  0
 14 13  2  0  0  0  0
 14  3  1  0  0  0  0
 15  4  2  0  0  0  0
 16  3  1  1  0  0  0
 16 17  1  0  0  0  0
 17 19  1  6  0  0  0
 18 16  1  0  0  0  0
 18 17  1  0  0  0  0
 19 21  1  0  0  0  0
 20 19  2  0  0  0  0
 22 21  1  6  0  0  0
 22 25  1  0  0  0  0
 22 26  1  0  0  0  0
 24 27  1  0  0  0  0
 24 26  1  0  0  0  0
 24 29  1  1  0  0  0
 25 28  1  0  0  0  0
 26 27  1  1  0  0  0
 26 23  1  0  0  0  0
 28 23  1  0  0  0  0
 29 33  2  0  0  0  0
 29 34  1  0  0  0  0
 30 32  1  0  0  0  0
 31 32  2  0  0  0  0
 33 31  1  0  0  0  0
 34 30  2  0  0  0  0
 35 13  1  0  0  0  0
 36 39  1  0  0  0  0
 37 36  2  0  0  0  0
 37 41  1  0  0  0  0
 38 40  1  0  0  0  0
 39 40  2  0  0  0  0
 40 35  1  0  0  0  0
 41 38  2  0  0  0  0
 42 43  2  0  0  0  0
 43 37  1  0  0  0  0
M  END
>  <MODEL>
3

>  <REMARK>
 VINA RESULT:      -7.0      3.744      8.378
  Name = 
  8 active torsions:
  status: ('A' for Active; 'I' for Inactive)
    1  A    between atoms: O_1  and  C_34
    2  A    between atoms: O_1  and  C_35
    3  A    between atoms: C_2  and  C_13
    4  A    between atoms: O_3  and  C_4
    5  A    between atoms: O_3  and  C_12
    6  A    between atoms: C_6  and  C_12
    7  A    between atoms: C_11  and  C_14
    8  A    between atoms: C_19  and  C_37
                            x       y       z     vdW  Elec       q    Type
                         _______ _______ _______ _____ _____    ______ ____

>  <TORSDO>
F 8

$$$$
=
 OpenBabel11052420543D

 43 50  0  0  1  0  0  0  0  0999 V2000
  185.2010  178.0290  147.0930 C   0  0  0  0  0  0  0  0  0  0  0  0
  189.8960  176.6980  145.8910 N   0  0  0  0  0  0  0  0  0  0  0  0
  189.5570  174.9260  143.7420 C   0  0  0  0  0  0  0  0  0  0  0  0
  187.6150  177.7750  147.0390 C   0  0  0  0  0  0  0  0  0  0  0  0
  185.0750  177.1130  146.0490 C   0  0  0  0  0  3  0  0  0  0  0  0
  184.0960  178.5990  147.6320 F   0  0  0  0  0  0  0  0  0  0  0  0
  187.4930  176.8520  145.9740 C   0  0  0  0  0  0  0  0  0  0  0  0
  186.4660  178.3580  147.5850 C   0  0  0  0  0  3  0  0  0  0  0  0
  186.2140  176.5280  145.4920 C   0  0  0  0  0  3  0  0  0  0  0  0
  188.4940  175.4070  144.3150 N   0  0  0  0  0  0  0  0  0  0  0  0
  188.5910  176.3220  145.4170 C   0  0  0  0  0  0  0  0  0  0  0  0
  190.0530  177.5410  147.0770 C   0  0  0  0  0  2  0  0  0  0  0  0
  191.0600  176.1700  145.2330 C   0  0  0  0  0  0  0  0  0  0  0  0
  190.9030  175.3330  144.1970 C   0  0  0  0  0  3  0  0  0  0  0  0
  188.7760  178.1010  147.5250 N   0  0  0  0  0  0  0  0  0  0  0  0
  189.4060  173.9950  142.5840 C   0  0  2  0  0  3  0  0  0  0  0  0
  188.9600  174.7460  141.3860 C   0  0  2  0  0  3  0  0  0  0  0  0
  188.0660  173.9720  142.1490 O   0  0  0  0  0  0  0  0  0  0  0  0
  189.3440  174.0070  140.1500 C   0  0  0  0  0  0  0  0  0  0  0  0
  188.4520  173.6060  139.3510 O   0  0  0  0  0  0  0  0  0  0  0  0
  190.6980  173.7910  139.8770 O   0  0  0  0  0  0  0  0  0  0  0  0
  191.2130  172.5080  139.5360 C   0  0  2  0  0  3  0  0  0  0  0  0
  191.7310  170.3500  141.2580 S   0  0  0  0  0  0  0  0  0  0  0  0
  193.1610  172.9330  141.2800 C   0  0  2  0  0  3  0  0  0  0  0  0
  190.0650  171.5180  139.4720 C   0  0  0  0  0  2  0  0  0  0  0  0
  192.1520  171.9940  140.6120 C   0  0  2  0  0  0  0  0  0  0  0  0
  193.5860  172.0190  140.1380 C   0  0  0  0  0  2  0  0  0  0  0  0
  190.5950  170.1470  139.8550 C   0  0  0  0  0  2  0  0  0  0  0  0
  193.6260  172.4270  142.6150 C   0  0  0  0  0  0  0  0  0  0  0  0
  195.3210  171.3880  144.0160 C   0  0  0  0  0  3  0  0  0  0  0  0
  193.2800  172.2310  145.0130 C   0  0  0  0  0  3  0  0  0  0  0  0
  194.5200  171.5970  145.1430 C   0  0  0  0  0  3  0  0  0  0  0  0
  192.8380  172.6500  143.7530 C   0  0  0  0  0  3  0  0  0  0  0  0
  194.8790  171.8090  142.7560 C   0  0  0  0  0  3  0  0  0  0  0  0
  192.3350  176.5730  145.6740 O   0  0  0  0  0  0  0  0  0  0  0  0
  195.2360  175.6790  143.4930 C   0  0  0  0  0  3  0  0  0  0  0  0
  196.0740  175.0660  144.4290 C   0  0  0  0  0  0  0  0  0  0  0  0
  194.4210  175.4720  146.1590 C   0  0  0  0  0  3  0  0  0  0  0  0
  193.9960  176.1870  143.8890 C   0  0  0  0  0  3  0  0  0  0  0  0
  193.5800  176.0950  145.2290 C   0  0  0  0  0  0  0  0  0  0  0  0
  195.6620  174.9620  145.7650 C   0  0  0  0  0  3  0  0  0  0  0  0
  197.9400  173.6050  144.6190 O   0  0  0  0  0  0  0  0  0  0  0  0
  197.3710  174.5400  143.9930 C   0  0  0  0  0  3  0  0  0  0  0  0
  1  8  2  0  0  0  0
  1  6  1  0  0  0  0
  2 12  1  0  0  0  0
  3 14  1  0  0  0  0
  3 10  2  0  0  0  0
  4 15  2  0  0  0  0
  4  8  1  0  0  0  0
  5  1  1  0  0  0  0
  7  4  1  0  0  0  0
  9  7  1  0  0  0  0
  9  5  2  0  0  0  0
 10 11  1  0  0  0  0
 11  2  1  0  0  0  0
 11  7  2  0  0  0  0
 12 15  1  0  0  0  0
 13 35  1  0  0  0  0
 13  2  1  0  0  0  0
 14 13  2  0  0  0  0
 16  3  1  1  0  0  0
 17 19  1  6  0  0  0
 17 18  1  0  0  0  0
 17 16  1  0  0  0  0
 18 16  1  0  0  0  0
 20 19  2  0  0  0  0
 21 19  1  0  0  0  0
 22 21  1  1  0  0  0
 22 26  1  0  0  0  0
 24 29  1  1  0  0  0
 25 22  1  0  0  0  0
 25 28  1  0  0  0  0
 26 27  1  6  0  0  0
 26 23  1  0  0  0  0
 26 24  1  0  0  0  0
 27 24  1  0  0  0  0
 28 23  1  0  0  0  0
 29 34  2  0  0  0  0
 29 33  1  0  0  0  0
 30 32  2  0  0  0  0
 31 32  1  0  0  0  0
 33 31  2  0  0  0  0
 34 30  1  0  0  0  0
 36 39  2  0  0  0  0
 36 37  1  0  0  0  0
 37 41  2  0  0  0  0
 39 40  1  0  0  0  0
 40 35  1  0  0  0  0
 40 38  2  0  0  0  0
 41 38  1  0  0  0  0
 43 37  1  0  0  0  0
 43 42  2  0  0  0  0
M  END
>  <MODEL>
4

>  <REMARK>
 VINA RESULT:      -7.0      1.789      2.120
  Name = 
  8 active torsions:
  status: ('A' for Active; 'I' for Inactive)
    1  A    between atoms: O_1  and  C_34
    2  A    between atoms: O_1  and  C_35
    3  A    between atoms: C_2  and  C_13
    4  A    between atoms: O_3  and  C_4
    5  A    between atoms: O_3  and  C_12
    6  A    between atoms: C_6  and  C_12
    7  A    between atoms: C_11  and  C_14
    8  A    between atoms: C_19  and  C_37
                            x       y       z     vdW  Elec       q    Type
                         _______ _______ _______ _____ _____    ______ ____

>  <TORSDO>
F 8

$$$$
=
 OpenBabel11052420543D

 43 50  0  0  1  0  0  0  0  0999 V2000
  190.8050  169.9610  135.6690 C   0  0  0  0  0  0  0  0  0  0  0  0
  189.3990  173.2830  139.1690 N   0  0  0  0  0  0  0  0  0  0  0  0
  190.2960  172.1410  141.5700 C   0  0  0  0  0  0  0  0  0  0  0  0
  189.8600  171.8740  136.8270 C   0  0  0  0  0  0  0  0  0  0  0  0
  191.1990  169.4100  136.8890 C   0  0  0  0  0  3  0  0  0  0  0  0
  191.0670  169.3050  134.5130 F   0  0  0  0  0  0  0  0  0  0  0  0
  190.2660  171.3240  138.0650 C   0  0  0  0  0  0  0  0  0  0  0  0
  190.1390  171.1880  135.6400 C   0  0  0  0  0  3  0  0  0  0  0  0
  190.9320  170.0880  138.0800 C   0  0  0  0  0  3  0  0  0  0  0  0
  190.4700  171.4720  140.4690 N   0  0  0  0  0  0  0  0  0  0  0  0
  190.0410  171.9960  139.2040 C   0  0  0  0  0  0  0  0  0  0  0  0
  188.8450  173.8160  137.9240 C   0  0  0  0  0  2  0  0  0  0  0  0
  189.2310  174.0150  140.3950 C   0  0  0  0  0  0  0  0  0  0  0  0
  189.6700  173.4800  141.5430 C   0  0  0  0  0  3  0  0  0  0  0  0
  189.2340  173.0120  136.7630 N   0  0  0  0  0  0  0  0  0  0  0  0
  190.7810  171.5650  142.8600 C   0  0  2  0  0  3  0  0  0  0  0  0
  192.2630  171.5210  142.8700 C   0  0  2  0  0  3  0  0  0  0  0  0
  191.4890  170.3710  142.6250 O   0  0  0  0  0  0  0  0  0  0  0  0
  192.7620  171.5080  144.2740 C   0  0  0  0  0  0  0  0  0  0  0  0
  193.3920  170.5050  144.7100 O   0  0  0  0  0  0  0  0  0  0  0  0
  192.5490  172.6260  145.0850 O   0  0  0  0  0  0  0  0  0  0  0  0
  193.1260  173.8960  144.8030 C   0  0  2  0  0  3  0  0  0  0  0  0
  192.6390  176.3350  146.1090 S   0  0  0  0  0  0  0  0  0  0  0  0
  190.6690  174.8380  144.4970 C   0  0  2  0  0  3  0  0  0  0  0  0
  194.2320  174.1670  145.8050 C   0  0  0  0  0  2  0  0  0  0  0  0
  192.1100  175.0090  144.9860 C   0  0  2  0  0  0  0  0  0  0  0  0
  191.6930  175.5870  143.6530 C   0  0  0  0  0  2  0  0  0  0  0  0
  194.3260  175.6690  146.0180 C   0  0  0  0  0  2  0  0  0  0  0  0
  189.7110  175.7680  145.1840 C   0  0  0  0  0  0  0  0  0  0  0  0
  188.5670  177.9080  145.3260 C   0  0  0  0  0  3  0  0  0  0  0  0
  188.0170  176.1390  146.8870 C   0  0  0  0  0  3  0  0  0  0  0  0
  187.8270  177.4430  146.4180 C   0  0  0  0  0  3  0  0  0  0  0  0
  188.9510  175.3030  146.2670 C   0  0  0  0  0  3  0  0  0  0  0  0
  189.5000  177.0710  144.7060 C   0  0  0  0  0  3  0  0  0  0  0  0
  188.6390  175.2920  140.3510 O   0  0  0  0  0  0  0  0  0  0  0  0
  186.3580  175.7270  143.2800 C   0  0  0  0  0  3  0  0  0  0  0  0
  185.9380  177.0450  143.0770 C   0  0  0  0  0  0  0  0  0  0  0  0
  187.3180  177.1670  141.0850 C   0  0  0  0  0  3  0  0  0  0  0  0
  187.2550  175.1320  142.3890 C   0  0  0  0  0  3  0  0  0  0  0  0
  187.7500  175.8510  141.2860 C   0  0  0  0  0  0  0  0  0  0  0  0
  186.4190  177.7640  141.9740 C   0  0  0  0  0  3  0  0  0  0  0  0
  185.2100  178.7900  144.5180 O   0  0  0  0  0  0  0  0  0  0  0  0
  184.9960  177.6500  144.0240 C   0  0  0  0  0  3  0  0  0  0  0  0
  1  5  1  0  0  0  0
  2 11  1  0  0  0  0
  2 13  1  0  0  0  0
  4  7  1  0  0  0  0
  5  9  2  0  0  0  0
  6  1  1  0  0  0  0
  7  9  1  0  0  0  0
  7 11  2  0  0  0  0
  8  1  2  0  0  0  0
  8  4  1  0  0  0  0
 10  3  2  0  0  0  0
 11 10  1  0  0  0  0
 12  2  1  0  0  0  0
 13 14  2  0  0  0  0
 14  3  1  0  0  0  0
 15  4  2  0  0  0  0
 15 12  1  0  0  0  0
 16  3  1  6  0  0  0
 16 17  1  0  0  0  0
 17 19  1  1  0  0  0
 18 16  1  0  0  0  0
 18 17  1  0  0  0  0
 19 20  2  0  0  0  0
 19 21  1  0  0  0  0
 22 26  1  0  0  0  0
 22 21  1  1  0  0  0
 22 25  1  0  0  0  0
 24 26  1  0  0  0  0
 24 29  1  1  0  0  0
 25 28  1  0  0  0  0
 26 27  1  6  0  0  0
 26 23  1  0  0  0  0
 27 24  1  0  0  0  0
 28 23  1  0  0  0  0
 29 33  1  0  0  0  0
 30 32  2  0  0  0  0
 32 31  1  0  0  0  0
 33 31  2  0  0  0  0
 34 29  2  0  0  0  0
 34 30  1  0  0  0  0
 35 13  1  0  0  0  0
 35 40  1  0  0  0  0
 37 36  1  0  0  0  0
 37 43  1  0  0  0  0
 38 40  2  0  0  0  0
 38 41  1  0  0  0  0
 39 36  2  0  0  0  0
 40 39  1  0  0  0  0
 41 37  2  0  0  0  0
 43 42  2  0  0  0  0
M  END
>  <MODEL>
5

>  <REMARK>
 VINA RESULT:      -6.9      3.815      8.166
  Name = 
  8 active torsions:
  status: ('A' for Active; 'I' for Inactive)
    1  A    between atoms: O_1  and  C_34
    2  A    between atoms: O_1  and  C_35
    3  A    between atoms: C_2  and  C_13
    4  A    between atoms: O_3  and  C_4
    5  A    between atoms: O_3  and  C_12
    6  A    between atoms: C_6  and  C_12
    7  A    between atoms: C_11  and  C_14
    8  A    between atoms: C_19  and  C_37
                            x       y       z     vdW  Elec       q    Type
                         _______ _______ _______ _____ _____    ______ ____

>  <TORSDO>
F 8

$$$$
=
 OpenBabel11052420543D

 43 50  0  0  1  0  0  0  0  0999 V2000
  190.9450  175.7060  147.3370 C   0  0  0  0  0  0  0  0  0  0  0  0
  188.5270  176.6870  143.0420 N   0  0  0  0  0  0  0  0  0  0  0  0
  188.6620  174.2640  141.6330 C   0  0  0  0  0  0  0  0  0  0  0  0
  189.7380  176.7920  145.5320 C   0  0  0  0  0  0  0  0  0  0  0  0
  191.0240  174.5330  146.5870 C   0  0  0  0  0  3  0  0  0  0  0  0
  191.4920  175.7560  148.5760 F   0  0  0  0  0  0  0  0  0  0  0  0
  189.8070  175.6020  144.7710 C   0  0  0  0  0  0  0  0  0  0  0  0
  190.3040  176.8300  146.8110 C   0  0  0  0  0  3  0  0  0  0  0  0
  190.4580  174.4800  145.3110 C   0  0  0  0  0  3  0  0  0  0  0  0
  189.2600  174.3390  142.7850 N   0  0  0  0  0  0  0  0  0  0  0  0
  189.2290  175.5450  143.5630 C   0  0  0  0  0  0  0  0  0  0  0  0
  188.5550  177.9720  143.7410 C   0  0  0  0  0  2  0  0  0  0  0  0
  187.8570  176.5790  141.7750 C   0  0  0  0  0  0  0  0  0  0  0  0
  187.9070  175.4190  141.1040 C   0  0  0  0  0  3  0  0  0  0  0  0
  189.1530  177.8590  145.0730 N   0  0  0  0  0  0  0  0  0  0  0  0
  188.7010  172.9800  140.8710 C   0  0  2  0  0  3  0  0  0  0  0  0
  189.5490  173.1340  139.6640 C   0  0  2  0  0  3  0  0  0  0  0  0
  188.1440  173.1570  139.5900 O   0  0  0  0  0  0  0  0  0  0  0  0
  190.0590  171.8040  139.2270 C   0  0  0  0  0  0  0  0  0  0  0  0
  189.3730  171.0910  138.4430 O   0  0  0  0  0  0  0  0  0  0  0  0
  191.3120  171.3730  139.6720 O   0  0  0  0  0  0  0  0  0  0  0  0
  192.5160  172.0610  139.3500 C   0  0  2  0  0  3  0  0  0  0  0  0
  194.9270  172.0750  140.7920 S   0  0  0  0  0  0  0  0  0  0  0  0
  192.3730  173.2270  141.7240 C   0  0  2  0  0  3  0  0  0  0  0  0
  193.4890  171.0800  138.7240 C   0  0  0  0  0  2  0  0  0  0  0  0
  193.1950  172.5870  140.6010 C   0  0  2  0  0  0  0  0  0  0  0  0
  193.0800  174.0910  140.6880 C   0  0  0  0  0  2  0  0  0  0  0  0
  194.9020  171.5300  139.0590 C   0  0  0  0  0  2  0  0  0  0  0  0
  193.0910  173.2190  143.0430 C   0  0  0  0  0  0  0  0  0  0  0  0
  194.3870  174.3550  144.7580 C   0  0  0  0  0  3  0  0  0  0  0  0
  193.6350  172.0810  145.1200 C   0  0  0  0  0  3  0  0  0  0  0  0
  194.3240  173.2140  145.5640 C   0  0  0  0  0  3  0  0  0  0  0  0
  193.0150  172.0870  143.8660 C   0  0  0  0  0  3  0  0  0  0  0  0
  193.7660  174.3610  143.5040 C   0  0  0  0  0  3  0  0  0  0  0  0
  187.1360  177.6860  141.2880 O   0  0  0  0  0  0  0  0  0  0  0  0
  183.7020  178.3030  142.6280 C   0  0  0  0  0  3  0  0  0  0  0  0
  182.9630  178.2870  141.4420 C   0  0  0  0  0  0  0  0  0  0  0  0
  185.0020  177.8810  140.1890 C   0  0  0  0  0  3  0  0  0  0  0  0
  185.0860  178.1100  142.5950 C   0  0  0  0  0  3  0  0  0  0  0  0
  185.7500  177.9050  141.3720 C   0  0  0  0  0  0  0  0  0  0  0  0
  183.6170  178.0730  140.2210 C   0  0  0  0  0  3  0  0  0  0  0  0
  180.9920  179.2190  142.3870 O   0  0  0  0  0  0  0  0  0  0  0  0
  181.5130  178.4920  141.4990 C   0  0  0  0  0  3  0  0  0  0  0  0
  1  6  1  0  0  0  0
  2 11  1  0  0  0  0
  2 12  1  0  0  0  0
  3 10  2  0  0  0  0
  4  8  1  0  0  0  0
  5  1  1  0  0  0  0
  7  9  1  0  0  0  0
  7  4  1  0  0  0  0
  8  1  2  0  0  0  0
  9  5  2  0  0  0  0
 10 11  1  0  0  0  0
 11  7  2  0  0  0  0
 12 15  1  0  0  0  0
 13  2  1  0  0  0  0
 14  3  1  0  0  0  0
 14 13  2  0  0  0  0
 15  4  2  0  0  0  0
 16  3  1  1  0  0  0
 17 19  1  6  0  0  0
 17 16  1  0  0  0  0
 18 17  1  0  0  0  0
 18 16  1  0  0  0  0
 19 21  1  0  0  0  0
 20 19  2  0  0  0  0
 22 21  1  1  0  0  0
 22 26  1  0  0  0  0
 24 29  1  1  0  0  0
 25 28  1  0  0  0  0
 25 22  1  0  0  0  0
 26 27  1  6  0  0  0
 26 23  1  0  0  0  0
 26 24  1  0  0  0  0
 27 24  1  0  0  0  0
 28 23  1  0  0  0  0
 29 34  2  0  0  0  0
 29 33  1  0  0  0  0
 30 32  2  0  0  0  0
 31 32  1  0  0  0  0
 33 31  2  0  0  0  0
 34 30  1  0  0  0  0
 35 40  1  0  0  0  0
 35 13  1  0  0  0  0
 37 43  1  0  0  0  0
 37 36  2  0  0  0  0
 38 41  2  0  0  0  0
 38 40  1  0  0  0  0
 39 36  1  0  0  0  0
 40 39  2  0  0  0  0
 41 37  1  0  0  0  0
 43 42  2  0  0  0  0
M  END
>  <MODEL>
6

>  <REMARK>
 VINA RESULT:      -6.8      2.687      6.008
  Name = 
  8 active torsions:
  status: ('A' for Active; 'I' for Inactive)
    1  A    between atoms: O_1  and  C_34
    2  A    between atoms: O_1  and  C_35
    3  A    between atoms: C_2  and  C_13
    4  A    between atoms: O_3  and  C_4
    5  A    between atoms: O_3  and  C_12
    6  A    between atoms: C_6  and  C_12
    7  A    between atoms: C_11  and  C_14
    8  A    between atoms: C_19  and  C_37
                            x       y       z     vdW  Elec       q    Type
                         _______ _______ _______ _____ _____    ______ ____

>  <TORSDO>
F 8

$$$$
=
 OpenBabel11052420543D

 43 50  0  0  1  0  0  0  0  0999 V2000
  185.1440  178.1430  146.9520 C   0  0  0  0  0  0  0  0  0  0  0  0
  188.2850  175.9360  143.7070 N   0  0  0  0  0  0  0  0  0  0  0  0
  190.7190  175.8380  145.0990 C   0  0  0  0  0  0  0  0  0  0  0  0
  186.1200  177.0990  144.9900 C   0  0  0  0  0  0  0  0  0  0  0  0
  186.3830  178.1100  147.5930 C   0  0  0  0  0  3  0  0  0  0  0  0
  184.0660  178.6660  147.5850 F   0  0  0  0  0  0  0  0  0  0  0  0
  187.3760  177.0550  145.6380 C   0  0  0  0  0  0  0  0  0  0  0  0
  185.0150  177.6390  145.6560 C   0  0  0  0  0  3  0  0  0  0  0  0
  187.4930  177.5680  146.9400 C   0  0  0  0  0  3  0  0  0  0  0  0
  189.7070  176.4160  145.6730 N   0  0  0  0  0  0  0  0  0  0  0  0
  188.4300  176.5000  145.0230 C   0  0  0  0  0  0  0  0  0  0  0  0
  187.0390  176.0880  142.9550 C   0  0  0  0  0  2  0  0  0  0  0  0
  189.4110  175.2850  143.0960 C   0  0  0  0  0  0  0  0  0  0  0  0
  190.5730  175.2240  143.7620 C   0  0  0  0  0  3  0  0  0  0  0  0
  185.9640  176.6430  143.7810 N   0  0  0  0  0  0  0  0  0  0  0  0
  192.0220  175.7540  145.8250 C   0  0  2  0  0  3  0  0  0  0  0  0
  193.1440  175.7980  144.8570 C   0  0  2  0  0  3  0  0  0  0  0  0
  192.7190  174.5920  145.4430 O   0  0  0  0  0  0  0  0  0  0  0  0
  194.3810  176.2830  145.5330 C   0  0  0  0  0  0  0  0  0  0  0  0
  194.5610  177.5210  145.7060 O   0  0  0  0  0  0  0  0  0  0  0  0
  195.3160  175.3540  145.9960 O   0  0  0  0  0  0  0  0  0  0  0  0
  196.3500  174.8340  145.1670 C   0  0  2  0  0  3  0  0  0  0  0  0
  196.0820  173.1290  142.9500 S   0  0  0  0  0  0  0  0  0  0  0  0
  195.4610  172.4060  145.7440 C   0  0  2  0  0  3  0  0  0  0  0  0
  196.4110  175.6470  143.8880 C   0  0  0  0  0  2  0  0  0  0  0  0
  196.0440  173.4080  144.7440 C   0  0  2  0  0  0  0  0  0  0  0  0
  196.9550  172.4270  145.4460 C   0  0  0  0  0  2  0  0  0  0  0  0
  196.8980  174.7420  142.7680 C   0  0  0  0  0  2  0  0  0  0  0  0
  194.7640  171.2570  145.0730 C   0  0  0  0  0  0  0  0  0  0  0  0
  194.7070  168.9310  144.3700 C   0  0  0  0  0  3  0  0  0  0  0  0
  192.7580  170.3350  144.0570 C   0  0  0  0  0  3  0  0  0  0  0  0
  193.3940  169.0970  143.9200 C   0  0  0  0  0  3  0  0  0  0  0  0
  193.4400  171.4100  144.6380 C   0  0  0  0  0  3  0  0  0  0  0  0
  195.3880  170.0060  144.9520 C   0  0  0  0  0  3  0  0  0  0  0  0
  189.2540  174.6990  141.8250 O   0  0  0  0  0  0  0  0  0  0  0  0
  191.1210  172.1900  139.7800 C   0  0  0  0  0  3  0  0  0  0  0  0
  190.8570  171.0260  140.5080 C   0  0  0  0  0  0  0  0  0  0  0  0
  189.5480  172.3230  142.0870 C   0  0  0  0  0  3  0  0  0  0  0  0
  190.6020  173.4160  140.2040 C   0  0  0  0  0  3  0  0  0  0  0  0
  189.8150  173.4940  141.3680 C   0  0  0  0  0  0  0  0  0  0  0  0
  190.0660  171.0950  141.6630 C   0  0  0  0  0  3  0  0  0  0  0  0
  191.4010  168.7280  140.7830 O   0  0  0  0  0  0  0  0  0  0  0  0
  191.4130  169.7500  140.0450 C   0  0  0  0  0  3  0  0  0  0  0  0
  1  6  1  0  0  0  0
  1  5  1  0  0  0  0
  2 11  1  0  0  0  0
  3 10  2  0  0  0  0
  4  7  1  0  0  0  0
  4  8  1  0  0  0  0
  7  9  1  0  0  0  0
  8  1  2  0  0  0  0
  9  5  2  0  0  0  0
 11  7  2  0  0  0  0
 11 10  1  0  0  0  0
 12  2  1  0  0  0  0
 12 15  1  0  0  0  0
 13  2  1  0  0  0  0
 13 14  2  0  0  0  0
 14  3  1  0  0  0  0
 15  4  2  0  0  0  0
 16  3  1  6  0  0  0
 17 18  1  0  0  0  0
 17 19  1  1  0  0  0
 17 16  1  0  0  0  0
 18 16  1  0  0  0  0
 19 20  2  0  0  0  0
 19 21  1  0  0  0  0
 22 21  1  1  0  0  0
 23 26  1  0  0  0  0
 24 29  1  6  0  0  0
 25 22  1  0  0  0  0
 26 22  1  0  0  0  0
 26 27  1  1  0  0  0
 26 24  1  0  0  0  0
 27 24  1  0  0  0  0
 28 23  1  0  0  0  0
 28 25  1  0  0  0  0
 30 34  2  0  0  0  0
 31 33  1  0  0  0  0
 32 31  2  0  0  0  0
 32 30  1  0  0  0  0
 33 29  2  0  0  0  0
 34 29  1  0  0  0  0
 35 13  1  0  0  0  0
 36 39  2  0  0  0  0
 36 37  1  0  0  0  0
 37 41  2  0  0  0  0
 39 40  1  0  0  0  0
 40 35  1  0  0  0  0
 40 38  2  0  0  0  0
 41 38  1  0  0  0  0
 43 37  1  0  0  0  0
 43 42  2  0  0  0  0
M  END
>  <MODEL>
7

>  <REMARK>
 VINA RESULT:      -6.7      2.070      5.595
  Name = 
  8 active torsions:
  status: ('A' for Active; 'I' for Inactive)
    1  A    between atoms: O_1  and  C_34
    2  A    between atoms: O_1  and  C_35
    3  A    between atoms: C_2  and  C_13
    4  A    between atoms: O_3  and  C_4
    5  A    between atoms: O_3  and  C_12
    6  A    between atoms: C_6  and  C_12
    7  A    between atoms: C_11  and  C_14
    8  A    between atoms: C_19  and  C_37
                            x       y       z     vdW  Elec       q    Type
                         _______ _______ _______ _____ _____    ______ ____

>  <TORSDO>
F 8

$$$$
=
 OpenBabel11052420543D

 43 50  0  0  1  0  0  0  0  0999 V2000
  191.7150  171.2480  138.8780 C   0  0  0  0  0  0  0  0  0  0  0  0
  189.4880  174.6800  141.7980 N   0  0  0  0  0  0  0  0  0  0  0  0
  191.6300  175.9240  143.1150 C   0  0  0  0  0  0  0  0  0  0  0  0
  190.0850  172.6300  140.0310 C   0  0  0  0  0  0  0  0  0  0  0  0
  192.7470  171.8660  139.5840 C   0  0  0  0  0  3  0  0  0  0  0  0
  191.9970  170.2770  137.9760 F   0  0  0  0  0  0  0  0  0  0  0  0
  191.1290  173.2650  140.7430 C   0  0  0  0  0  0  0  0  0  0  0  0
  190.3900  171.6300  139.1010 C   0  0  0  0  0  3  0  0  0  0  0  0
  192.4560  172.8700  140.5110 C   0  0  0  0  0  3  0  0  0  0  0  0
  191.8930  174.9350  142.3150 N   0  0  0  0  0  0  0  0  0  0  0  0
  190.8480  174.2540  141.6040 C   0  0  0  0  0  0  0  0  0  0  0  0
  188.3760  173.9540  141.1840 C   0  0  0  0  0  2  0  0  0  0  0  0
  189.2190  175.7880  142.6740 C   0  0  0  0  0  0  0  0  0  0  0  0
  190.2400  176.3940  143.2950 C   0  0  0  0  0  3  0  0  0  0  0  0
  188.8400  172.9560  140.2170 N   0  0  0  0  0  0  0  0  0  0  0  0
  192.7530  176.6170  143.8150 C   0  0  2  0  0  3  0  0  0  0  0  0
  192.7730  176.2300  145.2460 C   0  0  2  0  0  3  0  0  0  0  0  0
  192.2510  177.4660  144.8210 O   0  0  0  0  0  0  0  0  0  0  0  0
  194.1410  176.4230  145.8060 C   0  0  0  0  0  0  0  0  0  0  0  0
  194.5850  177.5890  145.9990 O   0  0  0  0  0  0  0  0  0  0  0  0
  194.9070  175.3020  146.1390 O   0  0  0  0  0  0  0  0  0  0  0  0
  195.8720  174.7460  145.2520 C   0  0  2  0  0  3  0  0  0  0  0  0
  195.4230  173.5800  142.7360 S   0  0  0  0  0  0  0  0  0  0  0  0
  194.4870  172.4880  145.3140 C   0  0  2  0  0  3  0  0  0  0  0  0
  196.1770  175.7550  144.1610 C   0  0  0  0  0  2  0  0  0  0  0  0
  195.3210  173.5190  144.5480 C   0  0  2  0  0  0  0  0  0  0  0  0
  195.9720  172.2580  145.0670 C   0  0  0  0  0  2  0  0  0  0  0  0
  196.5500  174.9960  142.8990 C   0  0  0  0  0  2  0  0  0  0  0  0
  193.6240  171.6550  144.4100 C   0  0  0  0  0  0  0  0  0  0  0  0
  193.3130  169.7260  142.9640 C   0  0  0  0  0  3  0  0  0  0  0  0
  191.4330  171.1630  143.4810 C   0  0  0  0  0  3  0  0  0  0  0  0
  191.9600  170.0480  142.8210 C   0  0  0  0  0  3  0  0  0  0  0  0
  192.2620  171.9600  144.2780 C   0  0  0  0  0  3  0  0  0  0  0  0
  194.1420  170.5220  143.7620 C   0  0  0  0  0  3  0  0  0  0  0  0
  187.8900  176.2280  142.8290 O   0  0  0  0  0  0  0  0  0  0  0  0
  186.8220  177.1050  146.3010 C   0  0  0  0  0  3  0  0  0  0  0  0
  186.1700  178.3190  146.0640 C   0  0  0  0  0  0  0  0  0  0  0  0
  186.6790  178.1180  143.7000 C   0  0  0  0  0  3  0  0  0  0  0  0
  187.4010  176.4010  145.2420 C   0  0  0  0  0  3  0  0  0  0  0  0
  187.3410  176.9060  143.9310 C   0  0  0  0  0  0  0  0  0  0  0  0
  186.0980  178.8230  144.7590 C   0  0  0  0  0  3  0  0  0  0  0  0
  186.2820  179.6970  147.9970 O   0  0  0  0  0  0  0  0  0  0  0  0
  185.5700  179.0410  147.1900 C   0  0  0  0  0  3  0  0  0  0  0  0
  1  8  2  0  0  0  0
  1  5  1  0  0  0  0
  2 13  1  0  0  0  0
  3 14  1  0  0  0  0
  4 15  2  0  0  0  0
  4  7  1  0  0  0  0
  5  9  2  0  0  0  0
  6  1  1  0  0  0  0
  7 11  2  0  0  0  0
  8  4  1  0  0  0  0
  9  7  1  0  0  0  0
 10  3  2  0  0  0  0
 11  2  1  0  0  0  0
 11 10  1  0  0  0  0
 12  2  1  0  0  0  0
 13 35  1  0  0  0  0
 13 14  2  0  0  0  0
 15 12  1  0  0  0  0
 16  3  1  6  0  0  0
 16 18  1  0  0  0  0
 16 17  1  0  0  0  0
 17 19  1  1  0  0  0
 18 17  1  0  0  0  0
 19 20  2  0  0  0  0
 19 21  1  0  0  0  0
 22 21  1  1  0  0  0
 23 28  1  0  0  0  0
 23 26  1  0  0  0  0
 24 29  1  6  0  0  0
 25 22  1  0  0  0  0
 26 27  1  1  0  0  0
 26 22  1  0  0  0  0
 26 24  1  0  0  0  0
 27 24  1  0  0  0  0
 28 25  1  0  0  0  0
 30 34  1  0  0  0  0
 31 33  2  0  0  0  0
 32 30  2  0  0  0  0
 32 31  1  0  0  0  0
 33 29  1  0  0  0  0
 34 29  2  0  0  0  0
 35 40  1  0  0  0  0
 37 36  1  0  0  0  0
 37 43  1  0  0  0  0
 38 40  2  0  0  0  0
 38 41  1  0  0  0  0
 39 36  2  0  0  0  0
 40 39  1  0  0  0  0
 41 37  2  0  0  0  0
 43 42  2  0  0  0  0
M  END
>  <MODEL>
8

>  <REMARK>
 VINA RESULT:      -6.7      3.194      7.277
  Name = 
  8 active torsions:
  status: ('A' for Active; 'I' for Inactive)
    1  A    between atoms: O_1  and  C_34
    2  A    between atoms: O_1  and  C_35
    3  A    between atoms: C_2  and  C_13
    4  A    between atoms: O_3  and  C_4
    5  A    between atoms: O_3  and  C_12
    6  A    between atoms: C_6  and  C_12
    7  A    between atoms: C_11  and  C_14
    8  A    between atoms: C_19  and  C_37
                            x       y       z     vdW  Elec       q    Type
                         _______ _______ _______ _____ _____    ______ ____

>  <TORSDO>
F 8

$$$$
=
 OpenBabel11052420543D

 43 50  0  0  1  0  0  0  0  0999 V2000
  189.7200  171.5550  135.8200 C   0  0  0  0  0  0  0  0  0  0  0  0
  188.1320  174.9300  139.1880 N   0  0  0  0  0  0  0  0  0  0  0  0
  188.7990  173.7730  141.6560 C   0  0  0  0  0  0  0  0  0  0  0  0
  188.7410  173.4990  136.8940 C   0  0  0  0  0  0  0  0  0  0  0  0
  189.9980  170.9980  137.0680 C   0  0  0  0  0  3  0  0  0  0  0  0
  190.0550  170.8870  134.6900 F   0  0  0  0  0  0  0  0  0  0  0  0
  189.0280  172.9430  138.1620 C   0  0  0  0  0  0  0  0  0  0  0  0
  189.0940  172.8010  135.7350 C   0  0  0  0  0  3  0  0  0  0  0  0
  189.6550  171.6880  138.2330 C   0  0  0  0  0  3  0  0  0  0  0  0
  189.0420  173.0950  140.5740 N   0  0  0  0  0  0  0  0  0  0  0  0
  188.7320  173.6260  139.2770 C   0  0  0  0  0  0  0  0  0  0  0  0
  187.6960  175.4740  137.9010 C   0  0  0  0  0  2  0  0  0  0  0  0
  187.8860  175.6720  140.3950 C   0  0  0  0  0  0  0  0  0  0  0  0
  188.2150  175.1290  141.5760 C   0  0  0  0  0  3  0  0  0  0  0  0
  188.1550  174.6550  136.7770 N   0  0  0  0  0  0  0  0  0  0  0  0
  189.1600  173.1890  142.9820 C   0  0  2  0  0  3  0  0  0  0  0  0
  190.6240  173.2900  143.1980 C   0  0  2  0  0  3  0  0  0  0  0  0
  190.0140  172.0820  142.8110 O   0  0  0  0  0  0  0  0  0  0  0  0
  190.9260  173.2620  144.6570 C   0  0  0  0  0  0  0  0  0  0  0  0
  191.7760  172.4450  145.1090 O   0  0  0  0  0  0  0  0  0  0  0  0
  190.2820  174.1650  145.5060 O   0  0  0  0  0  0  0  0  0  0  0  0
  190.7970  175.4650  145.7710 C   0  0  2  0  0  3  0  0  0  0  0  0
  189.7010  177.4420  147.4400 S   0  0  0  0  0  0  0  0  0  0  0  0
  188.4810  176.4490  144.9410 C   0  0  2  0  0  3  0  0  0  0  0  0
  191.5040  175.4500  147.1130 C   0  0  0  0  0  2  0  0  0  0  0  0
  189.6750  176.4800  145.8990 C   0  0  2  0  0  0  0  0  0  0  0  0
  189.6430  177.4050  144.7050 C   0  0  0  0  0  2  0  0  0  0  0  0
  191.3870  176.8320  147.7320 C   0  0  0  0  0  2  0  0  0  0  0  0
  187.2740  177.1470  145.4970 C   0  0  0  0  0  0  0  0  0  0  0  0
  185.7760  179.0610  145.5670 C   0  0  0  0  0  3  0  0  0  0  0  0
  185.2700  177.0830  146.8720 C   0  0  0  0  0  3  0  0  0  0  0  0
  184.9470  178.3820  146.4660 C   0  0  0  0  0  3  0  0  0  0  0  0
  186.4270  176.4660  146.3830 C   0  0  0  0  0  3  0  0  0  0  0  0
  186.9320  178.4420  145.0770 C   0  0  0  0  0  3  0  0  0  0  0  0
  187.3370  176.9650  140.3010 O   0  0  0  0  0  0  0  0  0  0  0  0
  184.4220  177.6960  142.5240 C   0  0  0  0  0  3  0  0  0  0  0  0
  183.5290  178.2380  141.5950 C   0  0  0  0  0  0  0  0  0  0  0  0
  185.1790  177.9290  139.8430 C   0  0  0  0  0  3  0  0  0  0  0  0
  185.6900  177.2730  142.1130 C   0  0  0  0  0  3  0  0  0  0  0  0
  186.0820  177.3930  140.7680 C   0  0  0  0  0  0  0  0  0  0  0  0
  183.9100  178.3520  140.2520 C   0  0  0  0  0  3  0  0  0  0  0  0
  181.1760  177.9840  141.8210 O   0  0  0  0  0  0  0  0  0  0  0  0
  182.2050  178.6760  142.0480 C   0  0  0  0  0  3  0  0  0  0  0  0
  1  5  1  0  0  0  0
  2 11  1  0  0  0  0
  2 13  1  0  0  0  0
  4  7  1  0  0  0  0
  5  9  2  0  0  0  0
  6  1  1  0  0  0  0
  7  9  1  0  0  0  0
  7 11  2  0  0  0  0
  8  1  2  0  0  0  0
  8  4  1  0  0  0  0
 10  3  2  0  0  0  0
 11 10  1  0  0  0  0
 12  2  1  0  0  0  0
 13 14  2  0  0  0  0
 14  3  1  0  0  0  0
 15  4  2  0  0  0  0
 15 12  1  0  0  0  0
 16  3  1  6  0  0  0
 16 17  1  0  0  0  0
 17 19  1  1  0  0  0
 18 16  1  0  0  0  0
 18 17  1  0  0  0  0
 19 20  2  0  0  0  0
 19 21  1  0  0  0  0
 22 21  1  1  0  0  0
 22 26  1  0  0  0  0
 22 25  1  0  0  0  0
 23 28  1  0  0  0  0
 24 29  1  1  0  0  0
 24 26  1  0  0  0  0
 25 28  1  0  0  0  0
 26 27  1  6  0  0  0
 26 23  1  0  0  0  0
 27 24  1  0  0  0  0
 29 33  1  0  0  0  0
 30 32  2  0  0  0  0
 32 31  1  0  0  0  0
 33 31  2  0  0  0  0
 34 29  2  0  0  0  0
 34 30  1  0  0  0  0
 35 13  1  0  0  0  0
 35 40  1  0  0  0  0
 37 43  1  0  0  0  0
 37 36  2  0  0  0  0
 38 41  2  0  0  0  0
 38 40  1  0  0  0  0
 39 36  1  0  0  0  0
 40 39  2  0  0  0  0
 41 37  1  0  0  0  0
 42 43  2  0  0  0  0
M  END
>  <MODEL>
9

>  <REMARK>
 VINA RESULT:      -6.7      4.334      9.068
  Name = 
  8 active torsions:
  status: ('A' for Active; 'I' for Inactive)
    1  A    between atoms: O_1  and  C_34
    2  A    between atoms: O_1  and  C_35
    3  A    between atoms: C_2  and  C_13
    4  A    between atoms: O_3  and  C_4
    5  A    between atoms: O_3  and  C_12
    6  A    between atoms: C_6  and  C_12
    7  A    between atoms: C_11  and  C_14
    8  A    between atoms: C_19  and  C_37
                            x       y       z     vdW  Elec       q    Type
                         _______ _______ _______ _____ _____    ______ ____

>  <TORSDO>
F 8

$$$$
