=
 OpenBabel11052420383D

 34 37  0  0  1  0  0  0  0  0999 V2000
  189.8560  176.2850  144.4170 O   0  0  0  0  0  0  0  0  0  0  0  0
  191.2020  174.2520  144.1000 C   0  0  1  0  0  3  0  0  0  0  0  0
  192.5300  175.1520  146.6420 C   0  0  0  0  0  2  0  0  0  0  0  0
  190.0840  174.8050  146.3010 C   0  0  0  0  0  0  0  0  0  0  0  0
  190.0090  174.9210  144.8050 C   0  0  1  0  0  3  0  0  0  0  0  0
  192.5110  175.0540  144.0680 C   0  0  0  0  0  2  0  0  0  0  0  0
  189.2800  174.0900  146.8780 O   0  0  0  0  0  0  0  0  0  0  0  0
  190.9960  175.2960  148.4410 F   0  0  0  0  0  0  0  0  0  0  0  0
  192.8640  175.8510  145.3300 C   0  0  2  0  0  3  0  0  0  0  0  0
  191.1310  175.5470  147.0860 C   0  0  1  0  0  3  0  0  0  0  0  0
  191.4280  172.9650  144.5970 O   0  0  0  0  0  1  0  0  0  0  0  0
  194.2960  176.3020  145.2950 C   0  0  0  0  0  0  0  0  0  0  0  0
  194.6580  177.2590  146.1430 C   0  0  0  0  0  2  0  0  0  0  0  0
  195.2690  175.7400  144.3900 N   0  0  0  0  0  0  0  0  0  0  0  0
  195.4000  176.2690  143.1480 O   0  0  0  0  0  1  0  0  0  0  0  0
  195.8030  173.3760  144.4210 C   0  0  0  0  0  2  0  0  0  0  0  0
  195.6170  173.8510  145.7290 O   0  0  0  0  0  0  0  0  0  0  0  0
  196.2370  174.7350  144.8250 C   0  0  2  0  0  3  0  0  0  0  0  0
  186.7300  178.0320  143.4400 C   0  0  0  0  0  0  0  0  0  0  0  0
  186.0450  178.3530  142.2700 O   0  0  0  0  0  1  0  0  0  0  0  0
  186.2110  178.3990  144.7020 C   0  0  0  0  0  0  0  0  0  0  0  0
  186.9270  178.0540  145.8550 C   0  0  0  0  0  3  0  0  0  0  0  0
  187.9510  177.3390  143.3540 C   0  0  0  0  0  0  0  0  0  0  0  0
  188.1320  177.3580  145.7680 C   0  0  0  0  0  3  0  0  0  0  0  0
  188.6500  176.9900  144.5200 C   0  0  0  0  0  0  0  0  0  0  0  0
  184.9380  179.1430  144.8550 C   0  0  0  0  0  0  0  0  0  0  0  0
  184.7340  180.2160  144.2290 O   0  0  0  0  0  0  0  0  0  0  0  0
  183.9190  178.6490  145.7210 N   0  0  0  0  0  1  0  0  0  0  0  0
  188.5060  176.9630  142.0170 C   0  0  0  0  0  2  0  0  0  0  0  0
  187.8210  175.8550  141.5120 O   0  0  0  0  0  0  0  0  0  0  0  0
  188.1940  173.5570  141.3440 N   0  0  0  0  0  0  0  0  0  0  0  0
  188.5790  174.1800  140.0710 C   0  0  0  0  0  2  0  0  0  0  0  0
  188.8120  174.8900  141.3240 C   0  0  1  0  0  3  0  0  0  0  0  0
  189.1780  172.6820  141.6610 O   0  0  0  0  0  1  0  0  0  0  0  0
  1 25  1  0  0  0  0
  2 11  1  1  0  0  0
  2  5  1  0  0  0  0
  3 10  1  0  0  0  0
  4  7  2  0  0  0  0
  4 10  1  0  0  0  0
  5  1  1  1  0  0  0
  5  4  1  0  0  0  0
  6  2  1  0  0  0  0
  6  9  1  0  0  0  0
  9 12  1  1  0  0  0
  9  3  1  0  0  0  0
 10  8  1  1  0  0  0
 12 13  2  0  0  0  0
 14 12  1  0  0  0  0
 15 14  1  0  0  0  0
 16 18  1  0  0  0  0
 16 17  1  0  0  0  0
 18 14  1  6  0  0  0
 18 17  1  0  0  0  0
 19 21  1  0  0  0  0
 20 19  1  0  0  0  0
 21 26  1  0  0  0  0
 21 22  2  0  0  0  0
 23 19  2  0  0  0  0
 23 25  1  0  0  0  0
 24 22  1  0  0  0  0
 25 24  2  0  0  0  0
 26 28  1  0  0  0  0
 27 26  2  0  0  0  0
 29 23  1  0  0  0  0
 30 29  1  0  0  0  0
 31 34  1  0  0  0  0
 32 33  1  0  0  0  0
 32 31  1  0  0  0  0
 33 31  1  0  0  0  0
 33 30  1  6  0  0  0
M  END
>  <MODEL>
1

>  <REMARK>
 VINA RESULT:      -7.2      0.000      0.000
  Name = 
  9 active torsions:
  status: ('A' for Active; 'I' for Inactive)
    1  A    between atoms: O_1  and  C_9
    2  A    between atoms: O_1  and  C_34
    3  A    between atoms: C_3  and  C_25
    4  A    between atoms: C_5  and  O_22
    5  A    between atoms: C_5  and  C_32
    6  A    between atoms: N_11  and  C_21
    7  A    between atoms: N_11  and  C_26
    8  A    between atoms: C_19  and  O_22
    9  A    between atoms: C_26  and  C_28
                            x       y       z     vdW  Elec       q    Type
                         _______ _______ _______ _____ _____    ______ ____

>  <TORSDO>
F 9

$$$$
=
 OpenBabel11052420383D

 34 37  0  0  1  0  0  0  0  0999 V2000
  189.6530  175.0720  144.4960 O   0  0  0  0  0  0  0  0  0  0  0  0
  189.7410  177.5050  144.1530 C   0  0  1  0  0  3  0  0  0  0  0  0
  189.3640  177.5900  147.1340 C   0  0  0  0  0  2  0  0  0  0  0  0
  191.1360  176.3340  145.9080 C   0  0  0  0  0  0  0  0  0  0  0  0
  190.4920  176.2240  144.5560 C   0  0  1  0  0  3  0  0  0  0  0  0
  188.3480  177.7000  144.7690 C   0  0  0  0  0  2  0  0  0  0  0  0
  192.3540  176.3780  145.9790 O   0  0  0  0  0  0  0  0  0  0  0  0
  191.1170  176.4850  148.2800 F   0  0  0  0  0  0  0  0  0  0  0  0
  188.1750  177.2780  146.2330 C   0  0  2  0  0  3  0  0  0  0  0  0
  190.3070  176.3980  147.1620 C   0  0  1  0  0  3  0  0  0  0  0  0
  190.5300  178.6400  144.3560 O   0  0  0  0  0  1  0  0  0  0  0  0
  186.8970  177.8240  146.7990 C   0  0  0  0  0  0  0  0  0  0  0  0
  186.9720  178.5020  147.9400 C   0  0  0  0  0  2  0  0  0  0  0  0
  185.6170  177.6410  146.1580 N   0  0  0  0  0  0  0  0  0  0  0  0
  185.1330  176.3840  145.9960 O   0  0  0  0  0  1  0  0  0  0  0  0
  184.4350  178.7940  144.3840 C   0  0  0  0  0  2  0  0  0  0  0  0
  185.4160  179.6300  144.9400 O   0  0  0  0  0  0  0  0  0  0  0  0
  184.7490  178.7700  145.8330 C   0  0  2  0  0  3  0  0  0  0  0  0
  189.3290  172.5840  141.7590 C   0  0  0  0  0  0  0  0  0  0  0  0
  188.4870  172.3370  140.6790 O   0  0  0  0  0  1  0  0  0  0  0  0
  190.4330  171.7400  142.0190 C   0  0  0  0  0  0  0  0  0  0  0  0
  191.2600  172.0240  143.1130 C   0  0  0  0  0  3  0  0  0  0  0  0
  189.0700  173.6840  142.5970 C   0  0  0  0  0  0  0  0  0  0  0  0
  191.0070  173.1220  143.9360 C   0  0  0  0  0  3  0  0  0  0  0  0
  189.9160  173.9620  143.6810 C   0  0  0  0  0  0  0  0  0  0  0  0
  190.7470  170.5590  141.1820 C   0  0  0  0  0  0  0  0  0  0  0  0
  190.5280  169.3900  141.5980 O   0  0  0  0  0  0  0  0  0  0  0  0
  191.3090  170.7300  139.8830 N   0  0  0  0  0  1  0  0  0  0  0  0
  187.8940  174.5690  142.3280 C   0  0  0  0  0  2  0  0  0  0  0  0
  188.2660  175.6080  141.4720 O   0  0  0  0  0  0  0  0  0  0  0  0
  187.6770  177.8520  141.2250 N   0  0  0  0  0  0  0  0  0  0  0  0
  186.9740  177.0760  140.1950 C   0  0  0  0  0  2  0  0  0  0  0  0
  187.1910  176.4970  141.5160 C   0  0  1  0  0  3  0  0  0  0  0  0
  186.7690  178.7080  141.7530 O   0  0  0  0  0  1  0  0  0  0  0  0
  2 11  1  1  0  0  0
  2  5  1  0  0  0  0
  2  6  1  0  0  0  0
  3 10  1  0  0  0  0
  4  7  2  0  0  0  0
  4 10  1  0  0  0  0
  5  1  1  1  0  0  0
  5  4  1  0  0  0  0
  6  9  1  0  0  0  0
  9 12  1  1  0  0  0
  9  3  1  0  0  0  0
 10  8  1  1  0  0  0
 12 13  2  0  0  0  0
 14 12  1  0  0  0  0
 15 14  1  0  0  0  0
 16 17  1  0  0  0  0
 16 18  1  0  0  0  0
 17 18  1  0  0  0  0
 18 14  1  6  0  0  0
 19 21  2  0  0  0  0
 19 23  1  0  0  0  0
 20 19  1  0  0  0  0
 21 22  1  0  0  0  0
 22 24  2  0  0  0  0
 23 25  2  0  0  0  0
 25 24  1  0  0  0  0
 25  1  1  0  0  0  0
 26 27  2  0  0  0  0
 26 21  1  0  0  0  0
 28 26  1  0  0  0  0
 29 23  1  0  0  0  0
 30 29  1  0  0  0  0
 31 33  1  0  0  0  0
 31 34  1  0  0  0  0
 32 31  1  0  0  0  0
 32 33  1  0  0  0  0
 33 30  1  6  0  0  0
M  END
>  <MODEL>
2

>  <REMARK>
 VINA RESULT:      -7.1      2.766      7.082
  Name = 
  9 active torsions:
  status: ('A' for Active; 'I' for Inactive)
    1  A    between atoms: O_1  and  C_9
    2  A    between atoms: O_1  and  C_34
    3  A    between atoms: C_3  and  C_25
    4  A    between atoms: C_5  and  O_22
    5  A    between atoms: C_5  and  C_32
    6  A    between atoms: N_11  and  C_21
    7  A    between atoms: N_11  and  C_26
    8  A    between atoms: C_19  and  O_22
    9  A    between atoms: C_26  and  C_28
                            x       y       z     vdW  Elec       q    Type
                         _______ _______ _______ _____ _____    ______ ____

>  <TORSDO>
F 9

$$$$
=
 OpenBabel11052420383D

 34 37  0  0  1  0  0  0  0  0999 V2000
  190.1440  175.0330  143.8270 O   0  0  0  0  0  0  0  0  0  0  0  0
  190.2960  177.4830  143.6830 C   0  0  1  0  0  3  0  0  0  0  0  0
  189.6360  177.3500  146.6120 C   0  0  0  0  0  2  0  0  0  0  0  0
  191.5010  176.1550  145.4670 C   0  0  0  0  0  0  0  0  0  0  0  0
  190.9880  176.1600  144.0550 C   0  0  1  0  0  3  0  0  0  0  0  0
  188.8540  177.6590  144.1770 C   0  0  0  0  0  2  0  0  0  0  0  0
  192.7070  176.1680  145.6560 O   0  0  0  0  0  0  0  0  0  0  0  0
  191.2560  176.1250  147.8310 F   0  0  0  0  0  0  0  0  0  0  0  0
  188.5350  177.1310  145.5810 C   0  0  2  0  0  3  0  0  0  0  0  0
  190.5560  176.1400  146.6370 C   0  0  1  0  0  3  0  0  0  0  0  0
  191.0770  178.5830  144.0470 O   0  0  0  0  0  1  0  0  0  0  0  0
  187.2150  177.6580  146.0640 C   0  0  0  0  0  0  0  0  0  0  0  0
  187.1230  178.0010  147.3460 C   0  0  0  0  0  2  0  0  0  0  0  0
  186.0680  177.8030  145.2000 N   0  0  0  0  0  0  0  0  0  0  0  0
  185.6340  176.7310  144.4920 O   0  0  0  0  0  1  0  0  0  0  0  0
  183.9580  178.7880  145.8720 C   0  0  0  0  0  2  0  0  0  0  0  0
  184.0700  178.7830  144.4720 O   0  0  0  0  0  0  0  0  0  0  0  0
  185.2560  179.0180  145.1940 C   0  0  2  0  0  3  0  0  0  0  0  0
  189.4140  173.2170  140.6720 C   0  0  0  0  0  0  0  0  0  0  0  0
  188.3990  173.1630  139.7200 O   0  0  0  0  0  1  0  0  0  0  0  0
  190.5730  172.4200  140.5360 C   0  0  0  0  0  0  0  0  0  0  0  0
  191.5730  172.5070  141.5120 C   0  0  0  0  0  3  0  0  0  0  0  0
  189.2740  174.0760  141.7780 C   0  0  0  0  0  0  0  0  0  0  0  0
  191.4370  173.3660  142.6020 C   0  0  0  0  0  3  0  0  0  0  0  0
  190.2920  174.1600  142.7400 C   0  0  0  0  0  0  0  0  0  0  0  0
  190.7700  171.4860  139.4020 C   0  0  0  0  0  0  0  0  0  0  0  0
  190.3310  170.3070  139.4480 O   0  0  0  0  0  0  0  0  0  0  0  0
  191.4660  171.9150  138.2340 N   0  0  0  0  0  1  0  0  0  0  0  0
  188.0420  174.9100  141.9270 C   0  0  0  0  0  2  0  0  0  0  0  0
  188.1610  176.0760  141.1670 O   0  0  0  0  0  0  0  0  0  0  0  0
  186.9560  178.0740  141.1330 N   0  0  0  0  0  0  0  0  0  0  0  0
  186.6630  177.3390  139.8960 C   0  0  0  0  0  2  0  0  0  0  0  0
  186.8710  176.6070  141.1400 C   0  0  1  0  0  3  0  0  0  0  0  0
  185.7710  178.5300  141.6030 O   0  0  0  0  0  1  0  0  0  0  0  0
  2 11  1  1  0  0  0
  2  5  1  0  0  0  0
  2  6  1  0  0  0  0
  3 10  1  0  0  0  0
  4  7  2  0  0  0  0
  4 10  1  0  0  0  0
  5  1  1  1  0  0  0
  5  4  1  0  0  0  0
  6  9  1  0  0  0  0
  9 12  1  1  0  0  0
  9  3  1  0  0  0  0
 10  8  1  1  0  0  0
 12 13  2  0  0  0  0
 14 12  1  0  0  0  0
 15 14  1  0  0  0  0
 17 18  1  0  0  0  0
 17 16  1  0  0  0  0
 18 14  1  1  0  0  0
 18 16  1  0  0  0  0
 19 23  1  0  0  0  0
 20 19  1  0  0  0  0
 21 19  2  0  0  0  0
 21 22  1  0  0  0  0
 22 24  2  0  0  0  0
 23 29  1  0  0  0  0
 23 25  2  0  0  0  0
 24 25  1  0  0  0  0
 25  1  1  0  0  0  0
 26 27  2  0  0  0  0
 26 21  1  0  0  0  0
 28 26  1  0  0  0  0
 30 29  1  0  0  0  0
 31 33  1  0  0  0  0
 31 34  1  0  0  0  0
 32 31  1  0  0  0  0
 32 33  1  0  0  0  0
 33 30  1  6  0  0  0
M  END
>  <MODEL>
3

>  <REMARK>
 VINA RESULT:      -6.9      2.718      7.085
  Name = 
  9 active torsions:
  status: ('A' for Active; 'I' for Inactive)
    1  A    between atoms: O_1  and  C_9
    2  A    between atoms: O_1  and  C_34
    3  A    between atoms: C_3  and  C_25
    4  A    between atoms: C_5  and  O_22
    5  A    between atoms: C_5  and  C_32
    6  A    between atoms: N_11  and  C_21
    7  A    between atoms: N_11  and  C_26
    8  A    between atoms: C_19  and  O_22
    9  A    between atoms: C_26  and  C_28
                            x       y       z     vdW  Elec       q    Type
                         _______ _______ _______ _____ _____    ______ ____

>  <TORSDO>
F 9

$$$$
=
 OpenBabel11052420383D

 34 37  0  0  1  0  0  0  0  0999 V2000
  189.9620  176.0700  143.4310 O   0  0  0  0  0  0  0  0  0  0  0  0
  191.4690  174.9290  141.8590 C   0  0  1  0  0  3  0  0  0  0  0  0
  192.0990  173.2150  144.2470 C   0  0  0  0  0  2  0  0  0  0  0  0
  189.8300  173.6700  143.3180 C   0  0  0  0  0  0  0  0  0  0  0  0
  190.1040  174.9430  142.5680 C   0  0  1  0  0  3  0  0  0  0  0  0
  192.6950  175.2160  142.7370 C   0  0  0  0  0  2  0  0  0  0  0  0
  188.9590  172.9190  142.9060 O   0  0  0  0  0  0  0  0  0  0  0  0
  190.1770  172.1040  145.0720 F   0  0  0  0  0  0  0  0  0  0  0  0
  192.6900  174.6160  144.1490 C   0  0  2  0  0  3  0  0  0  0  0  0
  190.6120  173.3100  144.5510 C   0  0  1  0  0  3  0  0  0  0  0  0
  191.6510  173.7480  141.1330 O   0  0  0  0  0  1  0  0  0  0  0  0
  194.0570  174.6820  144.7630 C   0  0  0  0  0  0  0  0  0  0  0  0
  194.4420  173.6540  145.5140 C   0  0  0  0  0  2  0  0  0  0  0  0
  194.9480  175.8000  144.5690 N   0  0  0  0  0  0  0  0  0  0  0  0
  194.6260  177.0030  145.1050 O   0  0  0  0  0  1  0  0  0  0  0  0
  196.3360  176.3400  142.6560 C   0  0  0  0  0  2  0  0  0  0  0  0
  196.1370  174.9520  142.7380 O   0  0  0  0  0  0  0  0  0  0  0  0
  196.2670  175.6380  143.9610 C   0  0  2  0  0  3  0  0  0  0  0  0
  186.9170  177.6610  144.8390 C   0  0  0  0  0  0  0  0  0  0  0  0
  186.2390  177.7030  146.0550 O   0  0  0  0  0  1  0  0  0  0  0  0
  186.4430  178.3870  143.7240 C   0  0  0  0  0  0  0  0  0  0  0  0
  187.1550  178.3220  142.5200 C   0  0  0  0  0  3  0  0  0  0  0  0
  188.0840  176.8810  144.7290 C   0  0  0  0  0  0  0  0  0  0  0  0
  188.3160  177.5570  142.4160 C   0  0  0  0  0  3  0  0  0  0  0  0
  188.7920  176.8370  143.5190 C   0  0  0  0  0  0  0  0  0  0  0  0
  185.2120  179.2120  143.7760 C   0  0  0  0  0  0  0  0  0  0  0  0
  185.2490  180.4100  144.1650 O   0  0  0  0  0  0  0  0  0  0  0  0
  183.9600  178.6560  143.3840 N   0  0  0  0  0  1  0  0  0  0  0  0
  188.5780  176.1020  145.9070 C   0  0  0  0  0  2  0  0  0  0  0  0
  189.3110  176.9360  146.7540 O   0  0  0  0  0  0  0  0  0  0  0  0
  191.3170  176.7680  147.9350 N   0  0  0  0  0  0  0  0  0  0  0  0
  190.8040  175.4120  147.7040 C   0  0  0  0  0  2  0  0  0  0  0  0
  190.6140  176.4400  146.6880 C   0  0  1  0  0  3  0  0  0  0  0  0
  192.6400  176.7360  147.6510 O   0  0  0  0  0  1  0  0  0  0  0  0
  1 25  1  0  0  0  0
  2 11  1  1  0  0  0
  2  5  1  0  0  0  0
  2  6  1  0  0  0  0
  3 10  1  0  0  0  0
  4 10  1  0  0  0  0
  5  4  1  0  0  0  0
  5  1  1  1  0  0  0
  6  9  1  0  0  0  0
  7  4  2  0  0  0  0
  9  3  1  0  0  0  0
  9 12  1  6  0  0  0
 10  8  1  6  0  0  0
 12 13  2  0  0  0  0
 14 12  1  0  0  0  0
 14 15  1  0  0  0  0
 16 17  1  0  0  0  0
 16 18  1  0  0  0  0
 17 18  1  0  0  0  0
 18 14  1  1  0  0  0
 19 20  1  0  0  0  0
 21 26  1  0  0  0  0
 21 19  2  0  0  0  0
 22 21  1  0  0  0  0
 23 19  1  0  0  0  0
 23 29  1  0  0  0  0
 24 22  2  0  0  0  0
 24 25  1  0  0  0  0
 25 23  2  0  0  0  0
 26 27  2  0  0  0  0
 28 26  1  0  0  0  0
 29 30  1  0  0  0  0
 32 31  1  0  0  0  0
 33 30  1  1  0  0  0
 33 32  1  0  0  0  0
 33 31  1  0  0  0  0
 34 31  1  0  0  0  0
M  END
>  <MODEL>
4

>  <REMARK>
 VINA RESULT:      -6.9      2.279      3.719
  Name = 
  9 active torsions:
  status: ('A' for Active; 'I' for Inactive)
    1  A    between atoms: O_1  and  C_9
    2  A    between atoms: O_1  and  C_34
    3  A    between atoms: C_3  and  C_25
    4  A    between atoms: C_5  and  O_22
    5  A    between atoms: C_5  and  C_32
    6  A    between atoms: N_11  and  C_21
    7  A    between atoms: N_11  and  C_26
    8  A    between atoms: C_19  and  O_22
    9  A    between atoms: C_26  and  C_28
                            x       y       z     vdW  Elec       q    Type
                         _______ _______ _______ _____ _____    ______ ____

>  <TORSDO>
F 9

$$$$
=
 OpenBabel11052420383D

 34 37  0  0  1  0  0  0  0  0999 V2000
  190.3160  176.1870  144.1360 O   0  0  0  0  0  0  0  0  0  0  0  0
  191.6280  175.0020  142.4280 C   0  0  1  0  0  3  0  0  0  0  0  0
  191.7190  172.8290  144.5020 C   0  0  0  0  0  2  0  0  0  0  0  0
  189.6670  173.9300  143.6130 C   0  0  0  0  0  0  0  0  0  0  0  0
  190.2590  175.2110  143.0980 C   0  0  1  0  0  3  0  0  0  0  0  0
  192.8310  174.8580  143.3690 C   0  0  0  0  0  2  0  0  0  0  0  0
  188.6780  173.4740  143.0600 O   0  0  0  0  0  0  0  0  0  0  0  0
  189.5540  172.0660  145.0830 F   0  0  0  0  0  0  0  0  0  0  0  0
  192.6090  174.0570  144.6580 C   0  0  2  0  0  3  0  0  0  0  0  0
  190.2750  173.2090  144.7840 C   0  0  1  0  0  3  0  0  0  0  0  0
  191.5890  173.9440  141.5160 O   0  0  0  0  0  1  0  0  0  0  0  0
  193.9180  173.7100  145.3050 C   0  0  0  0  0  0  0  0  0  0  0  0
  194.1250  172.4370  145.6260 C   0  0  0  0  0  2  0  0  0  0  0  0
  194.9370  174.6940  145.5830 N   0  0  0  0  0  0  0  0  0  0  0  0
  194.6830  175.6700  146.4890 O   0  0  0  0  0  1  0  0  0  0  0  0
  196.5210  175.5560  143.9640 C   0  0  0  0  0  2  0  0  0  0  0  0
  196.2270  174.2110  143.6900 O   0  0  0  0  0  0  0  0  0  0  0  0
  196.2920  174.5720  145.0490 C   0  0  2  0  0  3  0  0  0  0  0  0
  187.1420  178.0290  144.7000 C   0  0  0  0  0  0  0  0  0  0  0  0
  186.2640  178.8260  143.9690 O   0  0  0  0  0  1  0  0  0  0  0  0
  186.8890  177.7350  146.0580 C   0  0  0  0  0  0  0  0  0  0  0  0
  187.7940  176.9270  146.7570 C   0  0  0  0  0  3  0  0  0  0  0  0
  188.2940  177.5200  144.0710 C   0  0  0  0  0  0  0  0  0  0  0  0
  188.9280  176.4140  146.1290 C   0  0  0  0  0  3  0  0  0  0  0  0
  189.1840  176.7010  144.7820 C   0  0  0  0  0  0  0  0  0  0  0  0
  185.7020  178.2560  146.7780 C   0  0  0  0  0  0  0  0  0  0  0  0
  185.7980  179.2300  147.5710 O   0  0  0  0  0  0  0  0  0  0  0  0
  184.4240  177.6550  146.5820 N   0  0  0  0  0  1  0  0  0  0  0  0
  188.5680  177.8420  142.6360 C   0  0  0  0  0  2  0  0  0  0  0  0
  187.9110  176.9280  141.8090 O   0  0  0  0  0  0  0  0  0  0  0  0
  186.7100  176.8310  139.8110 N   0  0  0  0  0  0  0  0  0  0  0  0
  185.9910  177.7140  140.7380 C   0  0  0  0  0  2  0  0  0  0  0  0
  187.4490  177.6960  140.7400 C   0  0  1  0  0  3  0  0  0  0  0  0
  186.7220  177.4570  138.6100 O   0  0  0  0  0  1  0  0  0  0  0  0
  1 25  1  0  0  0  0
  2 11  1  1  0  0  0
  2  5  1  0  0  0  0
  2  6  1  0  0  0  0
  3  9  1  0  0  0  0
  3 10  1  0  0  0  0
  4 10  1  0  0  0  0
  5  4  1  0  0  0  0
  5  1  1  1  0  0  0
  6  9  1  0  0  0  0
  7  4  2  0  0  0  0
  9 12  1  6  0  0  0
 10  8  1  6  0  0  0
 12 14  1  0  0  0  0
 12 13  2  0  0  0  0
 14 15  1  0  0  0  0
 16 18  1  0  0  0  0
 17 16  1  0  0  0  0
 17 18  1  0  0  0  0
 18 14  1  6  0  0  0
 19 21  1  0  0  0  0
 20 19  1  0  0  0  0
 21 22  2  0  0  0  0
 21 26  1  0  0  0  0
 23 19  2  0  0  0  0
 23 25  1  0  0  0  0
 24 22  1  0  0  0  0
 25 24  2  0  0  0  0
 26 27  2  0  0  0  0
 28 26  1  0  0  0  0
 29 23  1  0  0  0  0
 30 29  1  0  0  0  0
 31 32  1  0  0  0  0
 31 33  1  0  0  0  0
 32 33  1  0  0  0  0
 33 30  1  1  0  0  0
 34 31  1  0  0  0  0
M  END
>  <MODEL>
5

>  <REMARK>
 VINA RESULT:      -6.7      2.192      2.796
  Name = 
  9 active torsions:
  status: ('A' for Active; 'I' for Inactive)
    1  A    between atoms: O_1  and  C_9
    2  A    between atoms: O_1  and  C_34
    3  A    between atoms: C_3  and  C_25
    4  A    between atoms: C_5  and  O_22
    5  A    between atoms: C_5  and  C_32
    6  A    between atoms: N_11  and  C_21
    7  A    between atoms: N_11  and  C_26
    8  A    between atoms: C_19  and  O_22
    9  A    between atoms: C_26  and  C_28
                            x       y       z     vdW  Elec       q    Type
                         _______ _______ _______ _____ _____    ______ ____

>  <TORSDO>
F 9

$$$$
=
 OpenBabel11052420383D

 34 37  0  0  1  0  0  0  0  0999 V2000
  189.9840  176.0370  144.2330 O   0  0  0  0  0  0  0  0  0  0  0  0
  191.4090  174.0370  144.1140 C   0  0  1  0  0  3  0  0  0  0  0  0
  192.5360  175.1120  146.6850 C   0  0  0  0  0  2  0  0  0  0  0  0
  190.1310  174.6660  146.2050 C   0  0  0  0  0  0  0  0  0  0  0  0
  190.1520  174.7010  144.7030 C   0  0  1  0  0  3  0  0  0  0  0  0
  192.6920  174.8810  144.1240 C   0  0  0  0  0  2  0  0  0  0  0  0
  189.3120  173.9540  146.7660 O   0  0  0  0  0  0  0  0  0  0  0  0
  190.8820  175.2970  148.3700 F   0  0  0  0  0  0  0  0  0  0  0  0
  192.9360  175.7530  145.3610 C   0  0  2  0  0  3  0  0  0  0  0  0
  191.0990  175.4820  147.0150 C   0  0  1  0  0  3  0  0  0  0  0  0
  191.6400  172.7860  144.6930 O   0  0  0  0  0  1  0  0  0  0  0  0
  194.3520  176.2490  145.3950 C   0  0  0  0  0  0  0  0  0  0  0  0
  194.5640  177.4670  145.8860 C   0  0  0  0  0  2  0  0  0  0  0  0
  195.4670  175.4630  144.9230 N   0  0  0  0  0  0  0  0  0  0  0  0
  195.9710  174.4880  145.7190 O   0  0  0  0  0  1  0  0  0  0  0  0
  197.4370  175.6840  143.5290 C   0  0  0  0  0  2  0  0  0  0  0  0
  196.6070  176.8070  143.3820 O   0  0  0  0  0  0  0  0  0  0  0  0
  195.9590  175.5690  143.5510 C   0  0  2  0  0  3  0  0  0  0  0  0
  186.9050  177.8320  143.1940 C   0  0  0  0  0  0  0  0  0  0  0  0
  186.0270  178.7740  143.7240 O   0  0  0  0  0  1  0  0  0  0  0  0
  186.7110  177.3200  141.8920 C   0  0  0  0  0  0  0  0  0  0  0  0
  187.6180  176.3770  141.3930 C   0  0  0  0  0  3  0  0  0  0  0  0
  187.9910  177.3900  143.9720 C   0  0  0  0  0  0  0  0  0  0  0  0
  188.7000  175.9480  142.1610 C   0  0  0  0  0  3  0  0  0  0  0  0
  188.8980  176.4540  143.4520 C   0  0  0  0  0  0  0  0  0  0  0  0
  185.5770  177.7360  141.0320 C   0  0  0  0  0  0  0  0  0  0  0  0
  184.4320  177.9320  141.5170 O   0  0  0  0  0  0  0  0  0  0  0  0
  185.7700  177.9200  139.6320 N   0  0  0  0  0  1  0  0  0  0  0  0
  188.1880  177.9240  145.3550 C   0  0  0  0  0  2  0  0  0  0  0  0
  187.5460  177.0960  146.2800 O   0  0  0  0  0  0  0  0  0  0  0  0
  185.2590  177.2810  146.7030 N   0  0  0  0  0  0  0  0  0  0  0  0
  185.9610  177.2230  147.9910 C   0  0  0  0  0  2  0  0  0  0  0  0
  186.5760  177.9130  146.8620 C   0  0  1  0  0  3  0  0  0  0  0  0
  184.3420  178.2720  146.8050 O   0  0  0  0  0  1  0  0  0  0  0  0
  2  6  1  0  0  0  0
  2 11  1  1  0  0  0
  2  5  1  0  0  0  0
  3 10  1  0  0  0  0
  4  7  2  0  0  0  0
  4 10  1  0  0  0  0
  5  1  1  1  0  0  0
  5  4  1  0  0  0  0
  6  9  1  0  0  0  0
  9 12  1  1  0  0  0
  9  3  1  0  0  0  0
 10  8  1  1  0  0  0
 12 13  2  0  0  0  0
 14 12  1  0  0  0  0
 14 15  1  0  0  0  0
 16 18  1  0  0  0  0
 17 16  1  0  0  0  0
 17 18  1  0  0  0  0
 18 14  1  1  0  0  0
 19 20  1  0  0  0  0
 19 23  1  0  0  0  0
 21 19  2  0  0  0  0
 22 21  1  0  0  0  0
 22 24  2  0  0  0  0
 23 29  1  0  0  0  0
 24 25  1  0  0  0  0
 25 23  2  0  0  0  0
 25  1  1  0  0  0  0
 26 27  2  0  0  0  0
 26 21  1  0  0  0  0
 28 26  1  0  0  0  0
 29 30  1  0  0  0  0
 31 34  1  0  0  0  0
 31 33  1  0  0  0  0
 31 32  1  0  0  0  0
 33 30  1  6  0  0  0
 33 32  1  0  0  0  0
M  END
>  <MODEL>
6

>  <REMARK>
 VINA RESULT:      -6.7      1.735      3.650
  Name = 
  9 active torsions:
  status: ('A' for Active; 'I' for Inactive)
    1  A    between atoms: O_1  and  C_9
    2  A    between atoms: O_1  and  C_34
    3  A    between atoms: C_3  and  C_25
    4  A    between atoms: C_5  and  O_22
    5  A    between atoms: C_5  and  C_32
    6  A    between atoms: N_11  and  C_21
    7  A    between atoms: N_11  and  C_26
    8  A    between atoms: C_19  and  O_22
    9  A    between atoms: C_26  and  C_28
                            x       y       z     vdW  Elec       q    Type
                         _______ _______ _______ _____ _____    ______ ____

>  <TORSDO>
F 9

$$$$
=
 OpenBabel11052420383D

 34 37  0  0  1  0  0  0  0  0999 V2000
  191.4290  176.1250  145.3440 O   0  0  0  0  0  0  0  0  0  0  0  0
  190.2190  177.8550  146.6050 C   0  0  1  0  0  3  0  0  0  0  0  0
  188.0660  175.7620  146.7380 C   0  0  0  0  0  2  0  0  0  0  0  0
  190.4420  175.4780  147.4410 C   0  0  0  0  0  0  0  0  0  0  0  0
  191.0830  176.5830  146.6500 C   0  0  1  0  0  3  0  0  0  0  0  0
  189.0560  177.8520  145.6030 C   0  0  0  0  0  2  0  0  0  0  0  0
  190.9360  175.1550  148.5090 O   0  0  0  0  0  0  0  0  0  0  0  0
  188.8090  173.7950  147.8270 F   0  0  0  0  0  0  0  0  0  0  0  0
  188.2840  176.5370  145.4430 C   0  0  2  0  0  3  0  0  0  0  0  0
  189.2080  174.7780  146.9400 C   0  0  1  0  0  3  0  0  0  0  0  0
  189.7680  178.2070  147.8800 O   0  0  0  0  0  1  0  0  0  0  0  0
  186.9940  176.7590  144.7100 C   0  0  0  0  0  0  0  0  0  0  0  0
  185.8980  176.9450  145.4400 C   0  0  0  0  0  2  0  0  0  0  0  0
  186.9070  176.7770  143.2700 N   0  0  0  0  0  0  0  0  0  0  0  0
  186.4270  175.6860  142.6230 O   0  0  0  0  0  1  0  0  0  0  0  0
  185.8860  178.6920  142.1920 C   0  0  0  0  0  2  0  0  0  0  0  0
  186.5290  177.8840  141.2410 O   0  0  0  0  0  0  0  0  0  0  0  0
  187.1560  177.9920  142.4970 C   0  0  2  0  0  3  0  0  0  0  0  0
  194.3040  175.7920  143.0190 C   0  0  0  0  0  0  0  0  0  0  0  0
  194.5170  175.6470  141.6500 O   0  0  0  0  0  1  0  0  0  0  0  0
  195.3950  175.8580  143.9150 C   0  0  0  0  0  0  0  0  0  0  0  0
  195.1390  176.0090  145.2830 C   0  0  0  0  0  3  0  0  0  0  0  0
  192.9860  175.8690  143.5050 C   0  0  0  0  0  0  0  0  0  0  0  0
  193.8320  176.0960  145.7620 C   0  0  0  0  0  3  0  0  0  0  0  0
  192.7480  176.0330  144.8780 C   0  0  0  0  0  0  0  0  0  0  0  0
  196.8040  175.7670  143.4630 C   0  0  0  0  0  0  0  0  0  0  0  0
  197.4520  176.7990  143.1460 O   0  0  0  0  0  0  0  0  0  0  0  0
  197.4480  174.4990  143.3780 N   0  0  0  0  0  1  0  0  0  0  0  0
  191.8320  175.7860  142.5570 C   0  0  0  0  0  2  0  0  0  0  0  0
  191.3820  174.4660  142.4710 O   0  0  0  0  0  0  0  0  0  0  0  0
  189.5060  173.2960  141.7240 N   0  0  0  0  0  0  0  0  0  0  0  0
  189.2720  173.6990  143.1160 C   0  0  0  0  0  2  0  0  0  0  0  0
  190.0140  174.5810  142.2220 C   0  0  1  0  0  3  0  0  0  0  0  0
  188.3670  173.5680  141.0440 O   0  0  0  0  0  1  0  0  0  0  0  0
  2  5  1  0  0  0  0
  2 11  1  1  0  0  0
  3 10  1  0  0  0  0
  4  7  2  0  0  0  0
  5  1  1  6  0  0  0
  5  4  1  0  0  0  0
  6  2  1  0  0  0  0
  9 12  1  1  0  0  0
  9  6  1  0  0  0  0
  9  3  1  0  0  0  0
 10  4  1  0  0  0  0
 10  8  1  1  0  0  0
 12 13  2  0  0  0  0
 14 12  1  0  0  0  0
 15 14  1  0  0  0  0
 16 18  1  0  0  0  0
 17 16  1  0  0  0  0
 17 18  1  0  0  0  0
 18 14  1  1  0  0  0
 19 23  2  0  0  0  0
 19 21  1  0  0  0  0
 20 19  1  0  0  0  0
 21 22  2  0  0  0  0
 22 24  1  0  0  0  0
 23 25  1  0  0  0  0
 25  1  1  0  0  0  0
 25 24  2  0  0  0  0
 26 21  1  0  0  0  0
 27 26  2  0  0  0  0
 28 26  1  0  0  0  0
 29 23  1  0  0  0  0
 30 29  1  0  0  0  0
 31 33  1  0  0  0  0
 31 32  1  0  0  0  0
 33 30  1  1  0  0  0
 33 32  1  0  0  0  0
 34 31  1  0  0  0  0
M  END
>  <MODEL>
7

>  <REMARK>
 VINA RESULT:      -6.7      2.135      7.181
  Name = 
  9 active torsions:
  status: ('A' for Active; 'I' for Inactive)
    1  A    between atoms: O_1  and  C_9
    2  A    between atoms: O_1  and  C_34
    3  A    between atoms: C_3  and  C_25
    4  A    between atoms: C_5  and  O_22
    5  A    between atoms: C_5  and  C_32
    6  A    between atoms: N_11  and  C_21
    7  A    between atoms: N_11  and  C_26
    8  A    between atoms: C_19  and  O_22
    9  A    between atoms: C_26  and  C_28
                            x       y       z     vdW  Elec       q    Type
                         _______ _______ _______ _____ _____    ______ ____

>  <TORSDO>
F 9

$$$$
=
 OpenBabel11052420383D

 34 37  0  0  1  0  0  0  0  0999 V2000
  189.5750  175.4610  142.3200 O   0  0  0  0  0  0  0  0  0  0  0  0
  190.9520  173.8180  141.1160 C   0  0  1  0  0  3  0  0  0  0  0  0
  191.5840  172.8360  143.8850 C   0  0  0  0  0  2  0  0  0  0  0  0
  189.3080  173.1460  142.9170 C   0  0  0  0  0  0  0  0  0  0  0  0
  189.6200  174.1250  141.8220 C   0  0  1  0  0  3  0  0  0  0  0  0
  192.2270  174.2690  141.8430 C   0  0  0  0  0  2  0  0  0  0  0  0
  188.3810  172.3660  142.7630 O   0  0  0  0  0  0  0  0  0  0  0  0
  189.6400  172.1390  145.0440 F   0  0  0  0  0  0  0  0  0  0  0  0
  192.2470  174.1070  143.3680 C   0  0  2  0  0  3  0  0  0  0  0  0
  190.1190  173.1100  144.1830 C   0  0  1  0  0  3  0  0  0  0  0  0
  191.0390  172.4690  140.7630 O   0  0  0  0  0  1  0  0  0  0  0  0
  193.6400  174.2600  143.9050 C   0  0  0  0  0  0  0  0  0  0  0  0
  194.1690  173.2210  144.5430 C   0  0  0  0  0  2  0  0  0  0  0  0
  194.4060  175.4740  143.7530 N   0  0  0  0  0  0  0  0  0  0  0  0
  194.1210  176.5390  144.5420 O   0  0  0  0  0  1  0  0  0  0  0  0
  196.8220  175.6640  143.7120 C   0  0  0  0  0  2  0  0  0  0  0  0
  196.2350  176.7740  143.0830 O   0  0  0  0  0  0  0  0  0  0  0  0
  195.5900  175.5360  142.8980 C   0  0  2  0  0  3  0  0  0  0  0  0
  187.6260  177.2270  144.9400 C   0  0  0  0  0  0  0  0  0  0  0  0
  187.8720  177.9170  146.1240 O   0  0  0  0  0  1  0  0  0  0  0  0
  186.3080  177.0770  144.4540 C   0  0  0  0  0  0  0  0  0  0  0  0
  186.1020  176.3800  143.2570 C   0  0  0  0  0  3  0  0  0  0  0  0
  188.7080  176.6750  144.2290 C   0  0  0  0  0  0  0  0  0  0  0  0
  187.1760  175.8430  142.5480 C   0  0  0  0  0  3  0  0  0  0  0  0
  188.4850  175.9900  143.0240 C   0  0  0  0  0  0  0  0  0  0  0  0
  185.1290  177.6230  145.1670 C   0  0  0  0  0  0  0  0  0  0  0  0
  184.7730  177.1620  146.2840 O   0  0  0  0  0  0  0  0  0  0  0  0
  184.3730  178.6860  144.5920 N   0  0  0  0  0  1  0  0  0  0  0  0
  190.1010  176.8230  144.7510 C   0  0  0  0  0  2  0  0  0  0  0  0
  190.3240  175.9050  145.7800 O   0  0  0  0  0  0  0  0  0  0  0  0
  191.0010  176.2110  147.9920 N   0  0  0  0  0  0  0  0  0  0  0  0
  192.0650  175.4920  147.2800 C   0  0  0  0  0  2  0  0  0  0  0  0
  191.2900  176.5120  146.5830 C   0  0  1  0  0  3  0  0  0  0  0  0
  191.6070  177.1760  148.7240 O   0  0  0  0  0  1  0  0  0  0  0  0
  1 25  1  0  0  0  0
  2 11  1  1  0  0  0
  2  5  1  0  0  0  0
  2  6  1  0  0  0  0
  3 10  1  0  0  0  0
  4 10  1  0  0  0  0
  5  1  1  1  0  0  0
  5  4  1  0  0  0  0
  6  9  1  0  0  0  0
  7  4  2  0  0  0  0
  9  3  1  0  0  0  0
  9 12  1  6  0  0  0
 10  8  1  1  0  0  0
 12 13  2  0  0  0  0
 14 12  1  0  0  0  0
 14 15  1  0  0  0  0
 17 16  1  0  0  0  0
 18 17  1  0  0  0  0
 18 16  1  0  0  0  0
 18 14  1  1  0  0  0
 19 20  1  0  0  0  0
 21 19  1  0  0  0  0
 21 26  1  0  0  0  0
 22 21  2  0  0  0  0
 23 29  1  0  0  0  0
 23 19  2  0  0  0  0
 24 25  2  0  0  0  0
 24 22  1  0  0  0  0
 25 23  1  0  0  0  0
 26 27  2  0  0  0  0
 28 26  1  0  0  0  0
 29 30  1  0  0  0  0
 31 34  1  0  0  0  0
 32 31  1  0  0  0  0
 33 30  1  6  0  0  0
 33 32  1  0  0  0  0
 33 31  1  0  0  0  0
M  END
>  <MODEL>
8

>  <REMARK>
 VINA RESULT:      -6.6      2.436      3.986
  Name = 
  9 active torsions:
  status: ('A' for Active; 'I' for Inactive)
    1  A    between atoms: O_1  and  C_9
    2  A    between atoms: O_1  and  C_34
    3  A    between atoms: C_3  and  C_25
    4  A    between atoms: C_5  and  O_22
    5  A    between atoms: C_5  and  C_32
    6  A    between atoms: N_11  and  C_21
    7  A    between atoms: N_11  and  C_26
    8  A    between atoms: C_19  and  O_22
    9  A    between atoms: C_26  and  C_28
                            x       y       z     vdW  Elec       q    Type
                         _______ _______ _______ _____ _____    ______ ____

>  <TORSDO>
F 9

$$$$
=
 OpenBabel11052420383D

 34 37  0  0  1  0  0  0  0  0999 V2000
  190.6670  176.4430  143.9620 O   0  0  0  0  0  0  0  0  0  0  0  0
  191.3430  174.2360  144.8080 C   0  0  1  0  0  3  0  0  0  0  0  0
  192.0730  173.7420  141.9350 C   0  0  0  0  0  2  0  0  0  0  0  0
  192.8510  175.6450  143.3460 C   0  0  0  0  0  0  0  0  0  0  0  0
  191.7740  175.6530  144.3920 C   0  0  1  0  0  3  0  0  0  0  0  0
  190.3770  173.5130  143.8610 C   0  0  0  0  0  2  0  0  0  0  0  0
  193.9730  176.0200  143.6510 O   0  0  0  0  0  0  0  0  0  0  0  0
  193.7060  175.2720  141.1600 F   0  0  0  0  0  0  0  0  0  0  0  0
  190.6090  173.7060  142.3570 C   0  0  2  0  0  3  0  0  0  0  0  0
  192.5700  175.1790  141.9440 C   0  0  1  0  0  3  0  0  0  0  0  0
  192.4520  173.4320  145.0880 O   0  0  0  0  0  1  0  0  0  0  0  0
  189.8310  172.6990  141.5610 C   0  0  0  0  0  0  0  0  0  0  0  0
  190.3620  171.4900  141.4140 C   0  0  0  0  0  2  0  0  0  0  0  0
  188.5510  172.9960  140.9640 N   0  0  0  0  0  0  0  0  0  0  0  0
  187.4180  172.6100  141.6030 O   0  0  0  0  0  1  0  0  0  0  0  0
  188.4030  173.0340  138.5450 C   0  0  0  0  0  2  0  0  0  0  0  0
  189.5690  173.6890  138.9730 O   0  0  0  0  0  0  0  0  0  0  0  0
  188.4290  173.8490  139.7840 C   0  0  2  0  0  3  0  0  0  0  0  0
  187.2140  177.0370  145.1920 C   0  0  0  0  0  0  0  0  0  0  0  0
  185.9100  176.8710  144.7350 O   0  0  0  0  0  1  0  0  0  0  0  0
  187.4650  177.5630  146.4790 C   0  0  0  0  0  0  0  0  0  0  0  0
  188.7910  177.7110  146.9040 C   0  0  0  0  0  3  0  0  0  0  0  0
  188.2870  176.6780  144.3550 C   0  0  0  0  0  0  0  0  0  0  0  0
  189.8530  177.3450  146.0780 C   0  0  0  0  0  3  0  0  0  0  0  0
  189.6100  176.8210  144.8020 C   0  0  0  0  0  0  0  0  0  0  0  0
  186.3770  177.9720  147.3990 C   0  0  0  0  0  0  0  0  0  0  0  0
  185.9690  179.1630  147.4330 O   0  0  0  0  0  0  0  0  0  0  0  0
  185.7740  177.0160  148.2660 N   0  0  0  0  0  1  0  0  0  0  0  0
  188.0210  176.1340  142.9880 C   0  0  0  0  0  2  0  0  0  0  0  0
  187.9160  177.1820  142.0710 O   0  0  0  0  0  0  0  0  0  0  0  0
  186.0520  178.2660  141.1790 N   0  0  0  0  0  0  0  0  0  0  0  0
  186.7220  177.5360  140.0950 C   0  0  0  0  0  2  0  0  0  0  0  0
  186.6900  176.9690  141.4390 C   0  0  1  0  0  3  0  0  0  0  0  0
  184.7260  178.0240  141.0490 O   0  0  0  0  0  1  0  0  0  0  0  0
  1 25  1  0  0  0  0
  2 11  1  6  0  0  0
  3 10  1  0  0  0  0
  3  9  1  0  0  0  0
  4  7  2  0  0  0  0
  4  5  1  0  0  0  0
  5  1  1  6  0  0  0
  5  2  1  0  0  0  0
  6  2  1  0  0  0  0
  9 12  1  6  0  0  0
  9  6  1  0  0  0  0
 10  8  1  6  0  0  0
 10  4  1  0  0  0  0
 13 12  2  0  0  0  0
 14 12  1  0  0  0  0
 14 15  1  0  0  0  0
 16 17  1  0  0  0  0
 16 18  1  0  0  0  0
 17 18  1  0  0  0  0
 18 14  1  1  0  0  0
 19 21  1  0  0  0  0
 20 19  1  0  0  0  0
 21 22  2  0  0  0  0
 21 26  1  0  0  0  0
 23 25  1  0  0  0  0
 23 19  2  0  0  0  0
 24 22  1  0  0  0  0
 25 24  2  0  0  0  0
 26 27  2  0  0  0  0
 26 28  1  0  0  0  0
 29 23  1  0  0  0  0
 30 29  1  0  0  0  0
 31 33  1  0  0  0  0
 32 31  1  0  0  0  0
 32 33  1  0  0  0  0
 33 30  1  1  0  0  0
 34 31  1  0  0  0  0
M  END
>  <MODEL>
9

>  <REMARK>
 VINA RESULT:      -6.6      2.900      5.114
  Name = 
  9 active torsions:
  status: ('A' for Active; 'I' for Inactive)
    1  A    between atoms: O_1  and  C_9
    2  A    between atoms: O_1  and  C_34
    3  A    between atoms: C_3  and  C_25
    4  A    between atoms: C_5  and  O_22
    5  A    between atoms: C_5  and  C_32
    6  A    between atoms: N_11  and  C_21
    7  A    between atoms: N_11  and  C_26
    8  A    between atoms: C_19  and  O_22
    9  A    between atoms: C_26  and  C_28
                            x       y       z     vdW  Elec       q    Type
                         _______ _______ _______ _____ _____    ______ ____

>  <TORSDO>
F 9

$$$$
