=
 OpenBabel11052419583D

 37 42  0  0  1  0  0  0  0  0999 V2000
  190.4770  173.9440  143.0760 C   0  0  1  0  0  0  0  0  0  0  0  0
  192.7190  175.2920  143.8290 C   0  0  1  0  0  0  0  0  0  0  0  0
  190.1120  177.7180  144.6930 C   0  0  2  0  0  3  0  0  0  0  0  0
  190.9090  173.2250  141.7500 C   0  0  2  0  0  0  0  0  0  0  0  0
  192.2360  176.3400  146.2040 C   0  0  0  0  0  2  0  0  0  0  0  0
  189.0330  177.1200  143.7920 C   0  0  2  0  0  3  0  0  0  0  0  0
  189.6680  172.9020  140.9410 C   0  0  0  0  0  0  0  0  0  0  0  0
  193.0790  174.5590  141.4420 C   0  0  0  0  0  2  0  0  0  0  0  0
  191.5300  177.6570  144.1160 C   0  0  0  0  0  2  0  0  0  0  0  0
  187.6630  177.6920  144.2120 C   0  0  2  0  0  3  0  0  0  0  0  0
  190.6700  175.8480  147.9160 O   0  0  0  0  0  1  0  0  0  0  0  0
  191.5890  172.0380  142.0520 O   0  0  0  0  0  1  0  0  0  0  0  0
  191.6510  174.1810  144.0520 C   0  0  0  0  0  2  0  0  0  0  0  0
  188.4740  177.1120  146.5590 C   0  0  0  0  0  2  0  0  0  0  0  0
  191.7840  174.0810  140.8230 C   0  0  0  0  0  2  0  0  0  0  0  0
  190.7740  176.1120  146.5490 C   0  0  1  0  0  3  0  0  0  0  0  0
  192.7790  175.7260  142.3620 C   0  0  0  0  0  2  0  0  0  0  0  0
  188.4160  173.7180  141.1150 C   0  0  0  0  0  2  0  0  0  0  0  0
  189.0290  175.7200  143.8920 O   0  0  0  0  0  0  0  0  0  0  0  0
  189.9510  177.3480  146.1870 C   0  0  1  0  0  3  0  0  0  0  0  0
  189.7050  175.2490  142.7600 C   0  0  2  0  0  3  0  0  0  0  0  0
  192.4290  176.5540  144.6990 C   0  0  2  0  0  3  0  0  0  0  0  0
  188.7520  175.1490  141.5440 C   0  0  0  0  0  2  0  0  0  0  0  0
  189.6740  171.9840  140.1370 O   0  0  0  0  0  0  0  0  0  0  0  0
  189.5530  173.0030  143.8600 C   0  0  0  0  0  1  0  0  0  0  0  0
  187.5190  177.9660  145.7240 C   0  0  0  0  0  2  0  0  0  0  0  0
  186.2450  175.7680  144.1260 O   0  0  0  0  0  0  0  0  0  0  0  0
  186.5070  176.9090  143.6550 C   0  0  0  0  0  0  0  0  0  0  0  0
  186.3230  177.6160  141.2620 C   0  0  0  0  0  3  0  0  0  0  0  0
  185.7240  177.4300  142.5180 C   0  0  0  0  0  0  0  0  0  0  0  0
  184.3630  177.7290  142.6770 C   0  0  0  0  0  3  0  0  0  0  0  0
  181.9150  178.5750  141.8110 Cl  0  0  0  0  0  0  0  0  0  0  0  0
  184.2170  178.3920  140.3530 C   0  0  0  0  0  3  0  0  0  0  0  0
  183.6130  178.2080  141.5980 C   0  0  0  0  0  0  0  0  0  0  0  0
  185.5730  178.0960  140.1840 C   0  0  0  0  0  3  0  0  0  0  0  0
  193.9920  173.5450  144.7410 C   0  0  0  0  0  1  0  0  0  0  0  0
  194.0270  174.8090  144.1260 O   0  0  0  0  0  0  0  0  0  0  0  0
  1 25  1  1  0  0  0
  1 13  1  0  0  0  0
  2 13  1  0  0  0  0
  2 37  1  1  0  0  0
  2 22  1  0  0  0  0
  3  9  1  6  0  0  0
  3 20  1  0  0  0  0
  4 12  1  1  0  0  0
  4  1  1  0  0  0  0
  5 16  1  0  0  0  0
  6 19  1  1  0  0  0
  6 10  1  0  0  0  0
  6  3  1  0  0  0  0
  7 18  1  0  0  0  0
  7  4  1  0  0  0  0
  8 17  1  0  0  0  0
 10 28  1  1  0  0  0
 10 26  1  0  0  0  0
 15  8  1  0  0  0  0
 15  4  1  0  0  0  0
 16 11  1  1  0  0  0
 17  2  1  0  0  0  0
 18 23  1  0  0  0  0
 20 16  1  0  0  0  0
 20 14  1  6  0  0  0
 21 23  1  6  0  0  0
 21  1  1  0  0  0  0
 21 19  1  0  0  0  0
 22  9  1  6  0  0  0
 22  5  1  0  0  0  0
 24  7  2  0  0  0  0
 26 14  1  0  0  0  0
 28 27  2  0  0  0  0
 29 30  1  0  0  0  0
 30 31  2  0  0  0  0
 30 28  1  0  0  0  0
 33 34  2  0  0  0  0
 34 32  1  0  0  0  0
 34 31  1  0  0  0  0
 35 33  1  0  0  0  0
 35 29  2  0  0  0  0
 37 36  1  0  0  0  0
M  END
>  <MODEL>
1

>  <REMARK>
 VINA RESULT:      -8.9      0.000      0.000
  Name = 
  3 active torsions:
  status: ('A' for Active; 'I' for Inactive)
    1  A    between atoms: C_3  and  O_32
    2  A    between atoms: C_6  and  C_31
    3  A    between atoms: C_14  and  C_31
                            x       y       z     vdW  Elec       q    Type
                         _______ _______ _______ _____ _____    ______ ____

>  <TORSDO>
F 3

$$$$
=
 OpenBabel11052419583D

 37 42  0  0  1  0  0  0  0  0999 V2000
  190.4700  173.9080  143.1900 C   0  0  1  0  0  0  0  0  0  0  0  0
  192.7380  175.2500  143.8740 C   0  0  1  0  0  0  0  0  0  0  0  0
  190.1650  177.6790  144.8270 C   0  0  2  0  0  3  0  0  0  0  0  0
  190.8570  173.1920  141.8490 C   0  0  2  0  0  0  0  0  0  0  0  0
  192.3330  176.2920  146.2660 C   0  0  0  0  0  2  0  0  0  0  0  0
  189.0570  177.0860  143.9590 C   0  0  2  0  0  3  0  0  0  0  0  0
  189.5900  172.8740  141.0790 C   0  0  0  0  0  0  0  0  0  0  0  0
  193.0200  174.5220  141.4760 C   0  0  0  0  0  2  0  0  0  0  0  0
  191.5640  177.6170  144.2050 C   0  0  0  0  0  2  0  0  0  0  0  0
  187.7030  177.6610  144.4240 C   0  0  2  0  0  3  0  0  0  0  0  0
  190.8210  175.8000  148.0260 O   0  0  0  0  0  1  0  0  0  0  0  0
  191.5440  172.0030  142.1270 O   0  0  0  0  0  1  0  0  0  0  0  0
  191.6740  174.1400  144.1290 C   0  0  0  0  0  2  0  0  0  0  0  0
  188.5870  177.0730  146.7430 C   0  0  0  0  0  2  0  0  0  0  0  0
  191.7050  174.0480  140.8970 C   0  0  0  0  0  2  0  0  0  0  0  0
  190.8820  176.0670  146.6570 C   0  0  1  0  0  3  0  0  0  0  0  0
  192.7520  175.6870  142.4080 C   0  0  0  0  0  2  0  0  0  0  0  0
  188.3470  173.6930  141.2950 C   0  0  0  0  0  2  0  0  0  0  0  0
  189.0530  175.6860  144.0560 O   0  0  0  0  0  0  0  0  0  0  0  0
  190.0510  177.3060  146.3240 C   0  0  1  0  0  3  0  0  0  0  0  0
  189.6910  175.2160  142.9020 C   0  0  2  0  0  3  0  0  0  0  0  0
  192.4780  176.5100  144.7570 C   0  0  2  0  0  3  0  0  0  0  0  0
  188.7000  175.1220  141.7160 C   0  0  0  0  0  2  0  0  0  0  0  0
  189.5690  171.9580  140.2730 O   0  0  0  0  0  0  0  0  0  0  0  0
  189.5690  172.9680  144.0000 C   0  0  0  0  0  1  0  0  0  0  0  0
  187.6070  177.9310  145.9410 C   0  0  0  0  0  2  0  0  0  0  0  0
  186.1850  175.8130  144.4790 O   0  0  0  0  0  0  0  0  0  0  0  0
  186.5270  176.8820  143.9020 C   0  0  0  0  0  0  0  0  0  0  0  0
  184.5360  177.8800  142.7610 C   0  0  0  0  0  3  0  0  0  0  0  0
  185.8190  177.3160  142.6820 C   0  0  0  0  0  0  0  0  0  0  0  0
  186.4320  177.1850  141.4270 C   0  0  0  0  0  3  0  0  0  0  0  0
  186.5480  177.4420  138.7110 Cl  0  0  0  0  0  0  0  0  0  0  0  0
  184.4950  178.1680  140.3580 C   0  0  0  0  0  3  0  0  0  0  0  0
  185.7720  177.6100  140.2700 C   0  0  0  0  0  0  0  0  0  0  0  0
  183.8760  178.3030  141.6050 C   0  0  0  0  0  3  0  0  0  0  0  0
  194.0350  173.4990  144.7460 C   0  0  0  0  0  1  0  0  0  0  0  0
  194.0530  174.7630  144.1280 O   0  0  0  0  0  0  0  0  0  0  0  0
  1 25  1  1  0  0  0
  1 13  1  0  0  0  0
  2 37  1  1  0  0  0
  2 13  1  0  0  0  0
  2 22  1  0  0  0  0
  3  9  1  6  0  0  0
  3 20  1  0  0  0  0
  4 12  1  1  0  0  0
  4  1  1  0  0  0  0
  5 16  1  0  0  0  0
  6 19  1  1  0  0  0
  6 10  1  0  0  0  0
  6  3  1  0  0  0  0
  7 18  1  0  0  0  0
  7  4  1  0  0  0  0
  8 17  1  0  0  0  0
 10 28  1  1  0  0  0
 10 26  1  0  0  0  0
 15  8  1  0  0  0  0
 15  4  1  0  0  0  0
 16 11  1  1  0  0  0
 17  2  1  0  0  0  0
 18 23  1  0  0  0  0
 20 16  1  0  0  0  0
 20 14  1  6  0  0  0
 21 23  1  6  0  0  0
 21  1  1  0  0  0  0
 21 19  1  0  0  0  0
 22  9  1  6  0  0  0
 22  5  1  0  0  0  0
 24  7  2  0  0  0  0
 26 14  1  0  0  0  0
 28 27  2  0  0  0  0
 30 29  1  0  0  0  0
 30 28  1  0  0  0  0
 31 30  2  0  0  0  0
 32 34  1  0  0  0  0
 33 35  1  0  0  0  0
 34 33  2  0  0  0  0
 34 31  1  0  0  0  0
 35 29  2  0  0  0  0
 37 36  1  0  0  0  0
M  END
>  <MODEL>
2

>  <REMARK>
 VINA RESULT:      -8.6      0.958      1.238
  Name = 
  3 active torsions:
  status: ('A' for Active; 'I' for Inactive)
    1  A    between atoms: C_3  and  O_32
    2  A    between atoms: C_6  and  C_31
    3  A    between atoms: C_14  and  C_31
                            x       y       z     vdW  Elec       q    Type
                         _______ _______ _______ _____ _____    ______ ____

>  <TORSDO>
F 3

$$$$
=
 OpenBabel11052419583D

 37 42  0  0  1  0  0  0  0  0999 V2000
  188.5740  176.9320  143.3210 C   0  0  1  0  0  0  0  0  0  0  0  0
  187.9350  177.2200  145.9520 C   0  0  1  0  0  0  0  0  0  0  0  0
  190.0780  174.2500  146.0660 C   0  0  2  0  0  3  0  0  0  0  0  0
  187.2410  177.2930  142.5770 C   0  0  2  0  0  0  0  0  0  0  0  0
  190.1640  176.9110  147.3320 C   0  0  0  0  0  2  0  0  0  0  0  0
  189.9370  173.8950  144.5870 C   0  0  2  0  0  3  0  0  0  0  0  0
  187.2640  176.6660  141.1970 C   0  0  0  0  0  0  0  0  0  0  0  0
  185.7610  177.2110  144.6730 C   0  0  0  0  0  2  0  0  0  0  0  0
  188.8090  174.8210  146.7080 C   0  0  0  0  0  2  0  0  0  0  0  0
  191.0430  172.8860  144.2130 C   0  0  2  0  0  3  0  0  0  0  0  0
  192.4640  177.0770  146.7760 O   0  0  0  0  0  1  0  0  0  0  0  0
  187.1260  178.6840  142.4550 O   0  0  0  0  0  1  0  0  0  0  0  0
  188.7280  177.6480  144.6810 C   0  0  0  0  0  2  0  0  0  0  0  0
  192.5460  174.5210  145.4640 C   0  0  0  0  0  2  0  0  0  0  0  0
  185.9740  176.7440  143.2490 C   0  0  0  0  0  2  0  0  0  0  0  0
  191.2680  176.4730  146.3840 C   0  0  1  0  0  3  0  0  0  0  0  0
  186.6790  176.4250  145.5870 C   0  0  0  0  0  2  0  0  0  0  0  0
  188.0970  175.4410  140.9350 C   0  0  0  0  0  2  0  0  0  0  0  0
  190.0380  175.0470  143.7930 O   0  0  0  0  0  0  0  0  0  0  0  0
  191.4120  174.9520  146.4150 C   0  0  1  0  0  3  0  0  0  0  0  0
  188.7270  175.3960  143.4470 C   0  0  2  0  0  3  0  0  0  0  0  0
  188.8050  176.3460  146.9070 C   0  0  2  0  0  3  0  0  0  0  0  0
  188.2490  174.6020  142.2070 C   0  0  0  0  0  2  0  0  0  0  0  0
  186.6030  177.1440  140.2880 O   0  0  0  0  0  0  0  0  0  0  0  0
  189.7500  177.4780  142.5010 C   0  0  0  0  0  1  0  0  0  0  0  0
  192.3750  173.0860  144.9650 C   0  0  0  0  0  2  0  0  0  0  0  0
  190.3820  172.1160  142.0460 O   0  0  0  0  0  0  0  0  0  0  0  0
  191.2330  172.7530  142.7270 C   0  0  0  0  0  0  0  0  0  0  0  0
  192.5150  174.6540  141.7250 C   0  0  0  0  0  3  0  0  0  0  0  0
  192.4390  173.2960  142.0710 C   0  0  0  0  0  0  0  0  0  0  0  0
  193.5330  172.4600  141.8040 C   0  0  0  0  0  3  0  0  0  0  0  0
  196.0410  171.9180  140.8690 Cl  0  0  0  0  0  0  0  0  0  0  0  0
  194.7490  174.3250  140.8540 C   0  0  0  0  0  3  0  0  0  0  0  0
  194.6830  172.9730  141.1970 C   0  0  0  0  0  0  0  0  0  0  0  0
  193.6650  175.1660  141.1180 C   0  0  0  0  0  3  0  0  0  0  0  0
  186.6680  177.9950  147.7680 C   0  0  0  0  0  1  0  0  0  0  0  0
  187.4580  178.3600  146.6630 O   0  0  0  0  0  0  0  0  0  0  0  0
  1 25  1  6  0  0  0
  1 21  1  0  0  0  0
  1 13  1  0  0  0  0
  2 37  1  1  0  0  0
  2 22  1  0  0  0  0
  3 20  1  0  0  0  0
  3  9  1  6  0  0  0
  4 12  1  6  0  0  0
  4 15  1  0  0  0  0
  4  1  1  0  0  0  0
  6 19  1  6  0  0  0
  6  3  1  0  0  0  0
  7  4  1  0  0  0  0
  8 17  1  0  0  0  0
 10 28  1  6  0  0  0
 10  6  1  0  0  0  0
 10 26  1  0  0  0  0
 13  2  1  0  0  0  0
 15  8  1  0  0  0  0
 16 20  1  0  0  0  0
 16 11  1  1  0  0  0
 16  5  1  0  0  0  0
 17  2  1  0  0  0  0
 18  7  1  0  0  0  0
 18 23  1  0  0  0  0
 20 14  1  6  0  0  0
 21 23  1  6  0  0  0
 21 19  1  0  0  0  0
 22  9  1  6  0  0  0
 22  5  1  0  0  0  0
 24  7  2  0  0  0  0
 26 14  1  0  0  0  0
 27 28  2  0  0  0  0
 29 30  1  0  0  0  0
 30 28  1  0  0  0  0
 31 30  2  0  0  0  0
 32 34  1  0  0  0  0
 33 35  1  0  0  0  0
 33 34  2  0  0  0  0
 34 31  1  0  0  0  0
 35 29  2  0  0  0  0
 37 36  1  0  0  0  0
M  END
>  <MODEL>
3

>  <REMARK>
 VINA RESULT:      -8.6      3.145      6.665
  Name = 
  3 active torsions:
  status: ('A' for Active; 'I' for Inactive)
    1  A    between atoms: C_3  and  O_32
    2  A    between atoms: C_6  and  C_31
    3  A    between atoms: C_14  and  C_31
                            x       y       z     vdW  Elec       q    Type
                         _______ _______ _______ _____ _____    ______ ____

>  <TORSDO>
F 3

$$$$
=
 OpenBabel11052419583D

 37 42  0  0  1  0  0  0  0  0999 V2000
  192.7690  174.7180  143.5690 C   0  0  1  0  0  0  0  0  0  0  0  0
  192.5050  172.1130  142.8270 C   0  0  1  0  0  0  0  0  0  0  0  0
  189.0380  173.2740  142.5770 C   0  0  2  0  0  3  0  0  0  0  0  0
  193.8260  174.6660  144.7270 C   0  0  2  0  0  0  0  0  0  0  0  0
  190.9550  172.0660  140.6900 C   0  0  0  0  0  2  0  0  0  0  0  0
  189.2160  174.4980  143.4730 C   0  0  2  0  0  3  0  0  0  0  0  0
  193.6730  175.9040  145.5880 C   0  0  0  0  0  0  0  0  0  0  0  0
  193.7270  172.1190  145.0340 C   0  0  0  0  0  2  0  0  0  0  0  0
  189.8490  172.0470  143.0080 C   0  0  0  0  0  2  0  0  0  0  0  0
  188.0100  175.4390  143.2700 C   0  0  2  0  0  3  0  0  0  0  0  0
  190.3550  173.6940  139.0740 O   0  0  0  0  0  1  0  0  0  0  0  0
  195.1190  174.6290  144.1900 O   0  0  0  0  0  1  0  0  0  0  0  0
  192.9360  173.5820  142.5380 C   0  0  0  0  0  2  0  0  0  0  0  0
  188.4780  175.0200  140.7980 C   0  0  0  0  0  2  0  0  0  0  0  0
  193.6510  173.4810  145.6890 C   0  0  0  0  0  2  0  0  0  0  0  0
  190.4140  173.4650  140.4490 C   0  0  1  0  0  3  0  0  0  0  0  0
  192.4130  171.8420  144.3300 C   0  0  0  0  0  2  0  0  0  0  0  0
  192.3530  176.6240  145.6530 C   0  0  0  0  0  2  0  0  0  0  0  0
  190.4120  175.1640  143.1650 O   0  0  0  0  0  0  0  0  0  0  0  0
  189.0230  173.6030  141.0660 C   0  0  1  0  0  3  0  0  0  0  0  0
  191.3330  174.7800  144.1470 C   0  0  2  0  0  3  0  0  0  0  0  0
  191.1220  171.7810  142.1860 C   0  0  2  0  0  3  0  0  0  0  0  0
  191.1910  175.6560  145.4160 C   0  0  0  0  0  2  0  0  0  0  0  0
  194.6140  176.3250  146.2420 O   0  0  0  0  0  0  0  0  0  0  0  0
  193.0200  175.9850  142.7400 C   0  0  0  0  0  1  0  0  0  0  0  0
  187.4400  175.4510  141.8350 C   0  0  0  0  0  2  0  0  0  0  0  0
  189.1410  177.5470  143.2780 O   0  0  0  0  0  0  0  0  0  0  0  0
  188.2520  176.8230  143.8060 C   0  0  0  0  0  0  0  0  0  0  0  0
  188.1160  177.3370  146.2510 C   0  0  0  0  0  3  0  0  0  0  0  0
  187.5110  177.3130  144.9840 C   0  0  0  0  0  0  0  0  0  0  0  0
  186.1960  177.7800  144.8470 C   0  0  0  0  0  3  0  0  0  0  0  0
  183.8550  178.8400  145.7710 Cl  0  0  0  0  0  0  0  0  0  0  0  0
  186.1040  178.2780  147.2140 C   0  0  0  0  0  3  0  0  0  0  0  0
  185.4950  178.2600  145.9580 C   0  0  0  0  0  0  0  0  0  0  0  0
  187.4150  177.8150  147.3610 C   0  0  0  0  0  3  0  0  0  0  0  0
  194.4670  171.8280  141.5720 C   0  0  0  0  0  1  0  0  0  0  0  0
  193.4790  171.1910  142.3430 O   0  0  0  0  0  0  0  0  0  0  0  0
  1 25  1  6  0  0  0
  1 21  1  0  0  0  0
  1  4  1  0  0  0  0
  2 37  1  6  0  0  0
  2 17  1  0  0  0  0
  3  9  1  6  0  0  0
  3  6  1  0  0  0  0
  4 12  1  6  0  0  0
  4  7  1  0  0  0  0
  4 15  1  0  0  0  0
  6 19  1  6  0  0  0
  7 18  1  0  0  0  0
  7 24  2  0  0  0  0
  8 15  1  0  0  0  0
 10  6  1  0  0  0  0
 10 28  1  6  0  0  0
 13  2  1  0  0  0  0
 13  1  1  0  0  0  0
 14 26  1  0  0  0  0
 16 11  1  6  0  0  0
 16  5  1  0  0  0  0
 16 20  1  0  0  0  0
 17  8  1  0  0  0  0
 19 21  1  0  0  0  0
 20 14  1  1  0  0  0
 20  3  1  0  0  0  0
 21 23  1  1  0  0  0
 22  5  1  6  0  0  0
 22  2  1  0  0  0  0
 22  9  1  0  0  0  0
 23 18  1  0  0  0  0
 26 10  1  0  0  0  0
 27 28  2  0  0  0  0
 28 30  1  0  0  0  0
 29 35  1  0  0  0  0
 30 29  2  0  0  0  0
 31 30  1  0  0  0  0
 31 34  2  0  0  0  0
 32 34  1  0  0  0  0
 33 35  2  0  0  0  0
 34 33  1  0  0  0  0
 36 37  1  0  0  0  0
M  END
>  <MODEL>
4

>  <REMARK>
 VINA RESULT:      -8.4      2.153      5.131
  Name = 
  3 active torsions:
  status: ('A' for Active; 'I' for Inactive)
    1  A    between atoms: C_3  and  O_32
    2  A    between atoms: C_6  and  C_31
    3  A    between atoms: C_14  and  C_31
                            x       y       z     vdW  Elec       q    Type
                         _______ _______ _______ _____ _____    ______ ____

>  <TORSDO>
F 3

$$$$
=
 OpenBabel11052419583D

 37 42  0  0  1  0  0  0  0  0999 V2000
  188.5430  177.0440  143.3400 C   0  0  1  0  0  0  0  0  0  0  0  0
  187.9600  177.1660  145.9960 C   0  0  1  0  0  0  0  0  0  0  0  0
  190.2090  174.2750  145.8980 C   0  0  2  0  0  3  0  0  0  0  0  0
  187.1810  177.3960  142.6480 C   0  0  2  0  0  0  0  0  0  0  0  0
  190.2330  176.8650  147.3060 C   0  0  0  0  0  2  0  0  0  0  0  0
  190.0440  173.9950  144.4050 C   0  0  2  0  0  3  0  0  0  0  0  0
  187.1910  176.8460  141.2350 C   0  0  0  0  0  0  0  0  0  0  0  0
  185.7570  177.1470  144.7690 C   0  0  0  0  0  2  0  0  0  0  0  0
  188.9370  174.7640  146.5990 C   0  0  0  0  0  2  0  0  0  0  0  0
  191.1760  173.0490  143.9510 C   0  0  2  0  0  3  0  0  0  0  0  0
  192.5110  177.1450  146.7070 O   0  0  0  0  0  1  0  0  0  0  0  0
  187.0140  178.7860  142.6050 O   0  0  0  0  0  1  0  0  0  0  0  0
  188.7060  177.6910  144.7330 C   0  0  0  0  0  2  0  0  0  0  0  0
  192.6510  174.6690  145.2560 C   0  0  0  0  0  2  0  0  0  0  0  0
  185.9500  176.7650  143.3170 C   0  0  0  0  0  2  0  0  0  0  0  0
  191.3270  176.5190  146.3100 C   0  0  1  0  0  3  0  0  0  0  0  0
  186.7250  176.3460  145.6170 C   0  0  0  0  0  2  0  0  0  0  0  0
  188.0600  175.6680  140.8870 C   0  0  0  0  0  2  0  0  0  0  0  0
  190.0850  175.1920  143.6740 O   0  0  0  0  0  0  0  0  0  0  0  0
  191.5260  175.0050  146.2540 C   0  0  1  0  0  3  0  0  0  0  0  0
  188.7540  175.5100  143.3770 C   0  0  2  0  0  3  0  0  0  0  0  0
  188.8840  176.2750  146.8820 C   0  0  2  0  0  3  0  0  0  0  0  0
  188.2740  174.7670  142.1070 C   0  0  0  0  0  2  0  0  0  0  0  0
  186.4910  177.3470  140.3690 O   0  0  0  0  0  0  0  0  0  0  0  0
  189.6790  177.6770  142.5250 C   0  0  0  0  0  1  0  0  0  0  0  0
  192.5190  173.2570  144.6820 C   0  0  0  0  0  2  0  0  0  0  0  0
  191.6460  174.0550  141.8320 O   0  0  0  0  0  0  0  0  0  0  0  0
  191.3330  173.0040  142.4560 C   0  0  0  0  0  0  0  0  0  0  0  0
  191.1050  170.5140  142.3480 C   0  0  0  0  0  3  0  0  0  0  0  0
  191.0560  171.7620  141.7080 C   0  0  0  0  0  0  0  0  0  0  0  0
  190.7210  171.8190  140.3470 C   0  0  0  0  0  3  0  0  0  0  0  0
  190.0240  170.7330  137.9410 Cl  0  0  0  0  0  0  0  0  0  0  0  0
  190.4960  169.4100  140.2830 C   0  0  0  0  0  3  0  0  0  0  0  0
  190.4420  170.6470  139.6380 C   0  0  0  0  0  0  0  0  0  0  0  0
  190.8280  169.3430  141.6390 C   0  0  0  0  0  3  0  0  0  0  0  0
  186.6190  177.8000  147.8140 C   0  0  0  0  0  1  0  0  0  0  0  0
  187.4610  178.2470  146.7800 O   0  0  0  0  0  0  0  0  0  0  0  0
  1 25  1  6  0  0  0
  1 21  1  0  0  0  0
  1 13  1  0  0  0  0
  2 37  1  1  0  0  0
  2 22  1  0  0  0  0
  3 20  1  0  0  0  0
  3  9  1  6  0  0  0
  4 12  1  6  0  0  0
  4 15  1  0  0  0  0
  4  1  1  0  0  0  0
  6 19  1  6  0  0  0
  6  3  1  0  0  0  0
  7  4  1  0  0  0  0
  8 17  1  0  0  0  0
 10 28  1  6  0  0  0
 10  6  1  0  0  0  0
 10 26  1  0  0  0  0
 13  2  1  0  0  0  0
 15  8  1  0  0  0  0
 16 11  1  1  0  0  0
 16  5  1  0  0  0  0
 17  2  1  0  0  0  0
 18  7  1  0  0  0  0
 18 23  1  0  0  0  0
 20 14  1  6  0  0  0
 20 16  1  0  0  0  0
 21 23  1  6  0  0  0
 21 19  1  0  0  0  0
 22  9  1  6  0  0  0
 22  5  1  0  0  0  0
 24  7  2  0  0  0  0
 26 14  1  0  0  0  0
 27 28  2  0  0  0  0
 30 29  1  0  0  0  0
 30 28  1  0  0  0  0
 31 30  2  0  0  0  0
 32 34  1  0  0  0  0
 33 35  1  0  0  0  0
 34 33  2  0  0  0  0
 34 31  1  0  0  0  0
 35 29  2  0  0  0  0
 37 36  1  0  0  0  0
M  END
>  <MODEL>
5

>  <REMARK>
 VINA RESULT:      -8.3      2.797      6.426
  Name = 
  3 active torsions:
  status: ('A' for Active; 'I' for Inactive)
    1  A    between atoms: C_3  and  O_32
    2  A    between atoms: C_6  and  C_31
    3  A    between atoms: C_14  and  C_31
                            x       y       z     vdW  Elec       q    Type
                         _______ _______ _______ _____ _____    ______ ____

>  <TORSDO>
F 3

$$$$
=
 OpenBabel11052419583D

 37 42  0  0  1  0  0  0  0  0999 V2000
  190.8200  172.8590  142.1340 C   0  0  1  0  0  0  0  0  0  0  0  0
  193.3880  173.4790  141.4790 C   0  0  1  0  0  0  0  0  0  0  0  0
  192.8090  175.7500  144.2960 C   0  0  2  0  0  3  0  0  0  0  0  0
  190.1280  172.6400  140.7430 C   0  0  2  0  0  0  0  0  0  0  0  0
  194.7560  173.6080  143.7340 C   0  0  0  0  0  2  0  0  0  0  0  0
  191.2840  175.7030  144.2280 C   0  0  2  0  0  3  0  0  0  0  0  0
  188.6330  172.8330  140.9030 C   0  0  0  0  0  0  0  0  0  0  0  0
  192.0340  173.6590  139.3590 C   0  0  0  0  0  2  0  0  0  0  0  0
  193.5090  175.7060  142.9330 C   0  0  0  0  0  2  0  0  0  0  0  0
  190.7120  176.2680  145.5450 C   0  0  2  0  0  3  0  0  0  0  0  0
  194.3970  172.7410  145.9120 O   0  0  0  0  0  1  0  0  0  0  0  0
  190.3840  171.3420  140.2840 O   0  0  0  0  0  1  0  0  0  0  0  0
  192.3300  172.5350  142.1230 C   0  0  0  0  0  2  0  0  0  0  0  0
  192.4450  174.7310  146.6100 C   0  0  0  0  0  2  0  0  0  0  0  0
  190.5520  173.6450  139.6620 C   0  0  0  0  0  2  0  0  0  0  0  0
  193.7890  173.4840  144.8990 C   0  0  1  0  0  3  0  0  0  0  0  0
  192.7500  174.4210  140.4560 C   0  0  0  0  0  2  0  0  0  0  0  0
  188.0940  173.6970  142.0110 C   0  0  0  0  0  2  0  0  0  0  0  0
  190.8420  174.3860  144.0280 O   0  0  0  0  0  0  0  0  0  0  0  0
  193.4110  174.8710  145.4170 C   0  0  1  0  0  3  0  0  0  0  0  0
  190.5300  174.2850  142.6670 C   0  0  2  0  0  3  0  0  0  0  0  0
  194.1170  174.3450  142.5530 C   0  0  2  0  0  3  0  0  0  0  0  0
  189.0950  174.7930  142.3850 C   0  0  0  0  0  2  0  0  0  0  0  0
  187.8530  172.2970  140.1310 O   0  0  0  0  0  0  0  0  0  0  0  0
  190.2480  171.8380  143.1260 C   0  0  0  0  0  1  0  0  0  0  0  0
  191.5640  175.9670  146.7960 C   0  0  0  0  0  2  0  0  0  0  0  0
  188.9360  174.7740  146.1270 O   0  0  0  0  0  0  0  0  0  0  0  0
  189.2600  175.9320  145.7420 C   0  0  0  0  0  0  0  0  0  0  0  0
  188.1300  177.4890  144.1410 C   0  0  0  0  0  3  0  0  0  0  0  0
  188.2090  176.9180  145.4210 C   0  0  0  0  0  0  0  0  0  0  0  0
  187.2630  177.2810  146.3910 C   0  0  0  0  0  3  0  0  0  0  0  0
  185.0830  178.6470  147.3070 Cl  0  0  0  0  0  0  0  0  0  0  0  0
  186.1880  178.7680  144.8120 C   0  0  0  0  0  3  0  0  0  0  0  0
  186.2570  178.2030  146.0870 C   0  0  0  0  0  0  0  0  0  0  0  0
  187.1250  178.4110  143.8390 C   0  0  0  0  0  3  0  0  0  0  0  0
  194.1760  171.3470  140.8960 C   0  0  0  0  0  1  0  0  0  0  0  0
  194.3550  172.7340  140.7440 O   0  0  0  0  0  0  0  0  0  0  0  0
  1 21  1  0  0  0  0
  1 25  1  1  0  0  0
  2 37  1  6  0  0  0
  2 13  1  0  0  0  0
  2 22  1  0  0  0  0
  3  9  1  6  0  0  0
  3 20  1  0  0  0  0
  4 12  1  6  0  0  0
  4  7  1  0  0  0  0
  4  1  1  0  0  0  0
  5 16  1  0  0  0  0
  6 19  1  1  0  0  0
  6  3  1  0  0  0  0
  6 10  1  0  0  0  0
  7 18  1  0  0  0  0
  8 15  1  0  0  0  0
  8 17  1  0  0  0  0
 10 28  1  1  0  0  0
 10 26  1  0  0  0  0
 13  1  1  0  0  0  0
 14 26  1  0  0  0  0
 15  4  1  0  0  0  0
 16 20  1  0  0  0  0
 16 11  1  1  0  0  0
 17  2  1  0  0  0  0
 18 23  1  0  0  0  0
 20 14  1  1  0  0  0
 21 23  1  1  0  0  0
 21 19  1  0  0  0  0
 22  9  1  1  0  0  0
 22  5  1  0  0  0  0
 24  7  2  0  0  0  0
 28 27  2  0  0  0  0
 29 30  1  0  0  0  0
 30 28  1  0  0  0  0
 30 31  2  0  0  0  0
 33 34  2  0  0  0  0
 34 31  1  0  0  0  0
 34 32  1  0  0  0  0
 35 29  2  0  0  0  0
 35 33  1  0  0  0  0
 37 36  1  0  0  0  0
M  END
>  <MODEL>
6

>  <REMARK>
 VINA RESULT:      -8.0      2.230      3.499
  Name = 
  3 active torsions:
  status: ('A' for Active; 'I' for Inactive)
    1  A    between atoms: C_3  and  O_32
    2  A    between atoms: C_6  and  C_31
    3  A    between atoms: C_14  and  C_31
                            x       y       z     vdW  Elec       q    Type
                         _______ _______ _______ _____ _____    ______ ____

>  <TORSDO>
F 3

$$$$
=
 OpenBabel11052419583D

 37 42  0  0  1  0  0  0  0  0999 V2000
  194.9720  174.0860  143.6530 C   0  0  1  0  0  0  0  0  0  0  0  0
  196.0880  171.6800  144.2670 C   0  0  1  0  0  0  0  0  0  0  0  0
  192.5490  170.7700  143.9960 C   0  0  2  0  0  3  0  0  0  0  0  0
  195.7770  175.1010  144.5370 C   0  0  2  0  0  0  0  0  0  0  0  0
  195.0190  169.8900  142.6470 C   0  0  0  0  0  2  0  0  0  0  0  0
  192.0060  172.1860  144.1760 C   0  0  2  0  0  3  0  0  0  0  0  0
  194.9450  176.3540  144.7270 C   0  0  0  0  0  0  0  0  0  0  0  0
  196.8830  173.3170  146.0140 C   0  0  0  0  0  2  0  0  0  0  0  0
  193.7930  170.4540  144.8320 C   0  0  0  0  0  2  0  0  0  0  0  0
  190.5290  172.2110  143.7280 C   0  0  2  0  0  3  0  0  0  0  0  0
  193.9050  170.0400  140.5580 O   0  0  0  0  0  1  0  0  0  0  0  0
  196.9810  175.4340  143.9020 O   0  0  0  0  0  1  0  0  0  0  0  0
  195.7880  172.8340  143.2640 C   0  0  0  0  0  2  0  0  0  0  0  0
  191.4310  170.9480  141.7050 C   0  0  0  0  0  2  0  0  0  0  0  0
  196.0830  174.6000  145.9560 C   0  0  0  0  0  2  0  0  0  0  0  0
  193.9030  170.5530  141.8570 C   0  0  1  0  0  3  0  0  0  0  0  0
  195.9600  172.1520  145.7170 C   0  0  0  0  0  2  0  0  0  0  0  0
  193.4450  176.2890  144.6320 C   0  0  0  0  0  2  0  0  0  0  0  0
  192.7600  173.1010  143.4250 O   0  0  0  0  0  0  0  0  0  0  0  0
  192.5560  170.2870  142.5260 C   0  0  1  0  0  3  0  0  0  0  0  0
  193.6280  173.7230  144.3300 C   0  0  2  0  0  3  0  0  0  0  0  0
  195.1240  170.4720  144.0600 C   0  0  2  0  0  3  0  0  0  0  0  0
  192.9310  174.9070  145.0450 C   0  0  0  0  0  2  0  0  0  0  0  0
  195.4820  177.4250  144.9650 O   0  0  0  0  0  0  0  0  0  0  0  0
  194.6780  174.7480  142.3000 C   0  0  0  0  0  1  0  0  0  0  0  0
  190.1990  171.2660  142.5540 C   0  0  0  0  0  2  0  0  0  0  0  0
  190.0880  174.1260  142.3640 O   0  0  0  0  0  0  0  0  0  0  0  0
  190.0080  173.6050  143.5110 C   0  0  0  0  0  0  0  0  0  0  0  0
  189.6410  173.9530  145.9610 C   0  0  0  0  0  3  0  0  0  0  0  0
  189.4740  174.3920  144.6390 C   0  0  0  0  0  0  0  0  0  0  0  0
  188.8050  175.6020  144.4000 C   0  0  0  0  0  3  0  0  0  0  0  0
  187.4800  177.8670  145.1530 Cl  0  0  0  0  0  0  0  0  0  0  0  0
  188.4800  175.9140  146.7780 C   0  0  0  0  0  3  0  0  0  0  0  0
  188.3100  176.3590  145.4660 C   0  0  0  0  0  0  0  0  0  0  0  0
  189.1450  174.7100  147.0260 C   0  0  0  0  0  3  0  0  0  0  0  0
  197.7040  170.1360  144.9810 C   0  0  0  0  0  1  0  0  0  0  0  0
  197.4350  171.2320  144.1410 O   0  0  0  0  0  0  0  0  0  0  0  0
  1 25  1  6  0  0  0
  1 21  1  0  0  0  0
  1  4  1  0  0  0  0
  2 37  1  6  0  0  0
  2 17  1  0  0  0  0
  3  6  1  0  0  0  0
  3  9  1  6  0  0  0
  4 12  1  6  0  0  0
  4  7  1  0  0  0  0
  4 15  1  0  0  0  0
  6 19  1  6  0  0  0
  7 24  2  0  0  0  0
 10 28  1  6  0  0  0
 10  6  1  0  0  0  0
 13  1  1  0  0  0  0
 13  2  1  0  0  0  0
 14 26  1  0  0  0  0
 15  8  1  0  0  0  0
 16 11  1  6  0  0  0
 16 20  1  0  0  0  0
 16  5  1  0  0  0  0
 17  8  1  0  0  0  0
 18  7  1  0  0  0  0
 18 23  1  0  0  0  0
 19 21  1  0  0  0  0
 20 14  1  6  0  0  0
 20  3  1  0  0  0  0
 21 23  1  6  0  0  0
 22  5  1  6  0  0  0
 22  2  1  0  0  0  0
 22  9  1  0  0  0  0
 26 10  1  0  0  0  0
 27 28  2  0  0  0  0
 28 30  1  0  0  0  0
 29 35  1  0  0  0  0
 30 29  2  0  0  0  0
 31 30  1  0  0  0  0
 31 34  2  0  0  0  0
 32 34  1  0  0  0  0
 33 35  2  0  0  0  0
 34 33  1  0  0  0  0
 37 36  1  0  0  0  0
M  END
>  <MODEL>
7

>  <REMARK>
 VINA RESULT:      -8.0      3.287      6.610
  Name = 
  3 active torsions:
  status: ('A' for Active; 'I' for Inactive)
    1  A    between atoms: C_3  and  O_32
    2  A    between atoms: C_6  and  C_31
    3  A    between atoms: C_14  and  C_31
                            x       y       z     vdW  Elec       q    Type
                         _______ _______ _______ _____ _____    ______ ____

>  <TORSDO>
F 3

$$$$
=
 OpenBabel11052419583D

 37 42  0  0  1  0  0  0  0  0999 V2000
  191.1780  172.8840  143.1550 C   0  0  1  0  0  0  0  0  0  0  0  0
  193.7300  173.2670  144.0200 C   0  0  1  0  0  0  0  0  0  0  0  0
  192.3520  176.6450  144.3650 C   0  0  2  0  0  3  0  0  0  0  0  0
  191.3420  171.8850  141.9570 C   0  0  2  0  0  0  0  0  0  0  0  0
  193.5950  174.7200  146.2210 C   0  0  0  0  0  2  0  0  0  0  0  0
  191.1780  176.4360  143.4110 C   0  0  2  0  0  3  0  0  0  0  0  0
  190.1320  172.0040  141.0500 C   0  0  0  0  0  0  0  0  0  0  0  0
  193.8880  172.1470  141.7660 C   0  0  0  0  0  2  0  0  0  0  0  0
  193.6420  175.9280  143.9550 C   0  0  0  0  0  2  0  0  0  0  0  0
  190.1580  177.5750  143.6230 C   0  0  2  0  0  3  0  0  0  0  0  0
  191.8680  175.1500  147.7890 O   0  0  0  0  0  1  0  0  0  0  0  0
  191.4340  170.5740  142.4400 O   0  0  0  0  0  1  0  0  0  0  0  0
  192.2790  172.7380  144.2270 C   0  0  0  0  0  2  0  0  0  0  0  0
  190.5030  177.0220  146.0890 C   0  0  0  0  0  2  0  0  0  0  0  0
  192.5520  172.1720  141.0550 C   0  0  0  0  0  2  0  0  0  0  0  0
  192.1570  175.1670  146.4230 C   0  0  1  0  0  3  0  0  0  0  0  0
  194.0560  173.4420  142.5350 C   0  0  0  0  0  2  0  0  0  0  0  0
  189.3370  173.2800  141.0100 C   0  0  0  0  0  2  0  0  0  0  0  0
  190.5740  175.1910  143.6390 O   0  0  0  0  0  0  0  0  0  0  0  0
  191.9600  176.5740  145.8600 C   0  0  1  0  0  3  0  0  0  0  0  0
  191.0530  174.3380  142.6360 C   0  0  2  0  0  3  0  0  0  0  0  0
  193.9500  174.6370  144.7330 C   0  0  2  0  0  3  0  0  0  0  0  0
  190.2230  174.4860  141.3380 C   0  0  0  0  0  2  0  0  0  0  0  0
  189.7960  171.0690  140.3390 O   0  0  0  0  0  0  0  0  0  0  0  0
  189.8960  172.5220  143.9160 C   0  0  0  0  0  1  0  0  0  0  0  0
  190.0530  178.0780  145.0780 C   0  0  0  0  0  2  0  0  0  0  0  0
  188.7310  177.0260  141.7830 O   0  0  0  0  0  0  0  0  0  0  0  0
  188.8150  177.2760  143.0180 C   0  0  0  0  0  0  0  0  0  0  0  0
  187.3230  176.3660  144.8090 C   0  0  0  0  0  3  0  0  0  0  0  0
  187.5890  177.3430  143.8370 C   0  0  0  0  0  0  0  0  0  0  0  0
  186.6820  178.3990  143.6640 C   0  0  0  0  0  3  0  0  0  0  0  0
  184.4050  179.8000  144.2220 Cl  0  0  0  0  0  0  0  0  0  0  0  0
  185.2700  177.4990  145.4120 C   0  0  0  0  0  3  0  0  0  0  0  0
  185.5270  178.4760  144.4480 C   0  0  0  0  0  0  0  0  0  0  0  0
  186.1680  176.4430  145.5920 C   0  0  0  0  0  3  0  0  0  0  0  0
  194.0820  171.2790  145.2150 C   0  0  0  0  0  1  0  0  0  0  0  0
  194.6880  172.3290  144.5020 O   0  0  0  0  0  0  0  0  0  0  0  0
  1 25  1  1  0  0  0
  1 13  1  0  0  0  0
  2 13  1  0  0  0  0
  2 37  1  1  0  0  0
  2 22  1  0  0  0  0
  3  9  1  6  0  0  0
  3 20  1  0  0  0  0
  4 12  1  1  0  0  0
  4  1  1  0  0  0  0
  5 16  1  0  0  0  0
  6 10  1  0  0  0  0
  6 19  1  1  0  0  0
  6  3  1  0  0  0  0
  7  4  1  0  0  0  0
  8 17  1  0  0  0  0
 10 28  1  1  0  0  0
 10 26  1  0  0  0  0
 15  8  1  0  0  0  0
 15  4  1  0  0  0  0
 16 11  1  1  0  0  0
 17  2  1  0  0  0  0
 18  7  1  0  0  0  0
 18 23  1  0  0  0  0
 20 14  1  6  0  0  0
 20 16  1  0  0  0  0
 21 23  1  6  0  0  0
 21  1  1  0  0  0  0
 21 19  1  0  0  0  0
 22  9  1  6  0  0  0
 22  5  1  0  0  0  0
 24  7  2  0  0  0  0
 26 14  1  0  0  0  0
 27 28  2  0  0  0  0
 28 30  1  0  0  0  0
 29 35  1  0  0  0  0
 30 29  2  0  0  0  0
 31 30  1  0  0  0  0
 31 34  2  0  0  0  0
 32 34  1  0  0  0  0
 33 35  2  0  0  0  0
 34 33  1  0  0  0  0
 37 36  1  0  0  0  0
M  END
>  <MODEL>
8

>  <REMARK>
 VINA RESULT:      -7.8      1.918      2.563
  Name = 
  3 active torsions:
  status: ('A' for Active; 'I' for Inactive)
    1  A    between atoms: C_3  and  O_32
    2  A    between atoms: C_6  and  C_31
    3  A    between atoms: C_14  and  C_31
                            x       y       z     vdW  Elec       q    Type
                         _______ _______ _______ _____ _____    ______ ____

>  <TORSDO>
F 3

$$$$
=
 OpenBabel11052419583D

 37 42  0  0  1  0  0  0  0  0999 V2000
  192.4730  172.2320  143.2180 C   0  0  1  0  0  0  0  0  0  0  0  0
  195.0870  172.8950  142.8450 C   0  0  1  0  0  0  0  0  0  0  0  0
  193.5090  176.2030  142.8310 C   0  0  2  0  0  3  0  0  0  0  0  0
  192.2970  170.9310  142.3590 C   0  0  2  0  0  0  0  0  0  0  0  0
  195.6130  174.9220  144.4530 C   0  0  0  0  0  2  0  0  0  0  0  0
  192.0990  175.7050  142.5220 C   0  0  2  0  0  3  0  0  0  0  0  0
  190.8290  170.7590  142.0230 C   0  0  0  0  0  0  0  0  0  0  0  0
  194.5170  171.1710  141.0930 C   0  0  0  0  0  2  0  0  0  0  0  0
  194.6270  175.4190  142.1340 C   0  0  0  0  0  2  0  0  0  0  0  0
  191.0970  176.8380  142.8270 C   0  0  2  0  0  3  0  0  0  0  0  0
  194.5760  175.7580  146.4160 O   0  0  0  0  0  1  0  0  0  0  0  0
  192.7410  169.8190  143.0850 O   0  0  0  0  0  1  0  0  0  0  0  0
  193.9100  172.4230  143.7500 C   0  0  0  0  0  2  0  0  0  0  0  0
  192.4290  177.0310  144.9930 C   0  0  0  0  0  2  0  0  0  0  0  0
  193.0210  170.9650  141.0050 C   0  0  0  0  0  2  0  0  0  0  0  0
  194.3150  175.3820  145.0970 C   0  0  1  0  0  3  0  0  0  0  0  0
  194.7930  172.6360  141.3650 C   0  0  0  0  0  2  0  0  0  0  0  0
  189.9170  171.9550  141.9790 C   0  0  0  0  0  2  0  0  0  0  0  0
  191.8000  174.5680  143.2900 O   0  0  0  0  0  0  0  0  0  0  0  0
  193.7330  176.5610  144.3190 C   0  0  1  0  0  3  0  0  0  0  0  0
  191.9670  173.4700  142.4370 C   0  0  2  0  0  3  0  0  0  0  0  0
  195.3790  174.4160  143.0260 C   0  0  2  0  0  3  0  0  0  0  0  0
  190.6920  173.2190  141.5960 C   0  0  0  0  0  2  0  0  0  0  0  0
  190.3740  169.6530  141.7780 O   0  0  0  0  0  0  0  0  0  0  0  0
  191.6410  172.0840  144.4980 C   0  0  0  0  0  1  0  0  0  0  0  0
  191.4900  177.7400  144.0150 C   0  0  0  0  0  2  0  0  0  0  0  0
  189.0920  175.9420  141.8760 O   0  0  0  0  0  0  0  0  0  0  0  0
  189.6760  176.3520  142.9170 C   0  0  0  0  0  0  0  0  0  0  0  0
  187.9360  177.3820  144.3920 C   0  0  0  0  0  3  0  0  0  0  0  0
  188.9380  176.4190  144.1940 C   0  0  0  0  0  0  0  0  0  0  0  0
  189.2190  175.5050  145.2190 C   0  0  0  0  0  3  0  0  0  0  0  0
  188.8720  174.4060  147.6950 Cl  0  0  0  0  0  0  0  0  0  0  0  0
  187.5190  176.5170  146.6140 C   0  0  0  0  0  3  0  0  0  0  0  0
  188.5120  175.5540  146.4250 C   0  0  0  0  0  0  0  0  0  0  0  0
  187.2310  177.4320  145.5970 C   0  0  0  0  0  3  0  0  0  0  0  0
  196.1360  171.3580  144.2740 C   0  0  0  0  0  1  0  0  0  0  0  0
  196.2720  172.1540  143.1220 O   0  0  0  0  0  0  0  0  0  0  0  0
  1 13  1  0  0  0  0
  1 25  1  1  0  0  0
  2 22  1  0  0  0  0
  2 37  1  1  0  0  0
  2 13  1  0  0  0  0
  3  9  1  1  0  0  0
  3 20  1  0  0  0  0
  4 12  1  1  0  0  0
  4  1  1  0  0  0  0
  5 16  1  0  0  0  0
  6 10  1  0  0  0  0
  6  3  1  0  0  0  0
  6 19  1  1  0  0  0
  7  4  1  0  0  0  0
  8 17  1  0  0  0  0
 10 28  1  1  0  0  0
 10 26  1  0  0  0  0
 15  8  1  0  0  0  0
 15  4  1  0  0  0  0
 16 11  1  1  0  0  0
 17  2  1  0  0  0  0
 18  7  1  0  0  0  0
 20 14  1  1  0  0  0
 20 16  1  0  0  0  0
 21 23  1  1  0  0  0
 21  1  1  0  0  0  0
 21 19  1  0  0  0  0
 22  9  1  1  0  0  0
 22  5  1  0  0  0  0
 23 18  1  0  0  0  0
 24  7  2  0  0  0  0
 26 14  1  0  0  0  0
 27 28  2  0  0  0  0
 28 30  1  0  0  0  0
 29 35  1  0  0  0  0
 30 29  2  0  0  0  0
 30 31  1  0  0  0  0
 31 34  2  0  0  0  0
 34 33  1  0  0  0  0
 34 32  1  0  0  0  0
 35 33  2  0  0  0  0
 37 36  1  0  0  0  0
M  END
>  <MODEL>
9

>  <REMARK>
 VINA RESULT:      -7.8      2.984      4.248
  Name = 
  3 active torsions:
  status: ('A' for Active; 'I' for Inactive)
    1  A    between atoms: C_3  and  O_32
    2  A    between atoms: C_6  and  C_31
    3  A    between atoms: C_14  and  C_31
                            x       y       z     vdW  Elec       q    Type
                         _______ _______ _______ _____ _____    ______ ____

>  <TORSDO>
F 3

$$$$
