=
 OpenBabel11052419553D

 37 41  0  0  1  0  0  0  0  0999 V2000
  193.9360  173.2760  144.9900 C   0  0  0  0  0  0  0  0  0  0  0  0
  190.6460  175.0280  145.0820 C   0  0  0  0  0  0  0  0  0  0  0  0
  193.1370  175.2510  146.4970 C   0  0  0  0  0  2  0  0  0  0  0  0
  190.2590  175.5800  143.9200 C   0  0  0  0  0  3  0  0  0  0  0  0
  191.5470  173.7890  145.0550 C   0  0  1  0  0  3  0  0  0  0  0  0
  189.2900  176.6360  143.8360 N   0  0  0  0  0  0  0  0  0  0  0  0
  192.3140  175.3090  147.7210 C   0  0  0  0  0  3  0  0  0  0  0  0
  191.8580  173.3350  143.6900 N   0  0  1  0  0  0  0  0  0  0  0  0
  194.3380  171.9280  145.5910 C   0  0  0  0  0  1  0  0  0  0  0  0
  188.7150  175.4780  146.6450 C   0  0  0  0  0  2  0  0  0  0  0  0
  190.9840  175.4350  147.6560 C   0  0  0  0  0  3  0  0  0  0  0  0
  193.2980  173.0480  143.6370 C   0  0  0  0  0  2  0  0  0  0  0  0
  190.1940  175.6630  146.3870 C   0  0  1  0  0  3  0  0  0  0  0  0
  192.8470  173.8940  145.8500 C   0  0  1  0  0  3  0  0  0  0  0  0
  187.9560  176.3940  144.4280 C   0  0  1  0  0  3  0  0  0  0  0  0
  195.1910  174.1470  144.8260 C   0  0  0  0  0  1  0  0  0  0  0  0
  187.9480  176.5800  145.9500 C   0  0  0  0  0  2  0  0  0  0  0  0
  186.1610  176.6680  142.6580 C   0  0  0  0  0  3  0  0  0  0  0  0
  186.8470  177.1710  143.7870 C   0  0  0  0  0  0  0  0  0  0  0  0
  186.5630  178.4510  144.2530 C   0  0  0  0  0  3  0  0  0  0  0  0
  185.3210  180.4760  144.0770 F   0  0  0  0  0  0  0  0  0  0  0  0
  184.9130  178.7360  142.5020 C   0  0  0  0  0  3  0  0  0  0  0  0
  185.5950  179.2380  143.6150 C   0  0  0  0  0  0  0  0  0  0  0  0
  185.1930  177.4490  142.0230 C   0  0  0  0  0  3  0  0  0  0  0  0
  191.6400  171.0920  142.4570 C   0  0  0  0  0  2  0  0  0  0  0  0
  191.5530  171.5110  140.9830 C   0  0  1  0  0  3  0  0  0  0  0  0
  190.1390  171.9470  140.5990 C   0  0  0  0  0  2  0  0  0  0  0  0
  189.6110  172.5170  142.9880 C   0  0  0  0  0  2  0  0  0  0  0  0
  189.6060  173.0300  141.5370 C   0  0  2  0  0  3  0  0  0  0  0  0
  191.0320  172.1330  143.4310 C   0  0  2  0  0  3  0  0  0  0  0  0
  188.2070  173.4580  141.0830 C   0  0  2  0  0  3  0  0  0  0  0  0
  188.2480  174.7620  140.3110 C   0  0  0  0  0  1  0  0  0  0  0  0
  187.3370  173.5680  142.1540 F   0  0  0  0  0  0  0  0  0  0  0  0
  192.5100  172.5400  140.6790 N   0  0  0  0  0  0  0  0  0  0  0  0
  192.5710  173.0060  139.5820 O   0  0  0  0  0  0  0  0  0  0  0  0
  189.5320  177.6990  142.8630 C   0  0  0  0  0  2  0  0  0  0  0  0
  190.8960  178.3290  143.1050 C   0  0  0  0  0  1  0  0  0  0  0  0
  1  9  1  0  0  0  0
  1 14  1  0  0  0  0
  2 13  1  0  0  0  0
  3  7  1  0  0  0  0
  4  2  2  0  0  0  0
  5  2  1  6  0  0  0
  5 14  1  0  0  0  0
  6  4  1  0  0  0  0
  6 15  1  0  0  0  0
  8 12  1  1  0  0  0
  8  5  1  0  0  0  0
 11  7  2  0  0  0  0
 12  1  1  0  0  0  0
 13 10  1  1  0  0  0
 13 11  1  0  0  0  0
 14  3  1  6  0  0  0
 15 19  1  6  0  0  0
 15 17  1  0  0  0  0
 16  1  1  0  0  0  0
 17 10  1  0  0  0  0
 18 19  1  0  0  0  0
 19 20  2  0  0  0  0
 22 23  2  0  0  0  0
 23 21  1  0  0  0  0
 23 20  1  0  0  0  0
 24 22  1  0  0  0  0
 24 18  2  0  0  0  0
 26 34  1  1  0  0  0
 26 25  1  0  0  0  0
 27 26  1  0  0  0  0
 27 29  1  0  0  0  0
 28 30  1  0  0  0  0
 29 31  1  6  0  0  0
 29 28  1  0  0  0  0
 30 25  1  6  0  0  0
 30  8  1  0  0  0  0
 31 32  1  1  0  0  0
 31 33  1  0  0  0  0
 35 34  2  0  0  0  0
 36 37  1  0  0  0  0
 36  6  1  0  0  0  0
M  END
>  <MODEL>
1

>  <REMARK>
 VINA RESULT:      -8.4      0.000      0.000
  Name = 
  5 active torsions:
  status: ('A' for Active; 'I' for Inactive)
    1  A    between atoms: C_5  and  N_12
    2  A    between atoms: C_6  and  C_31
    3  A    between atoms: C_7  and  N_14
    4  A    between atoms: C_11  and  C_33
    5  A    between atoms: N_20  and  C_36
                            x       y       z     vdW  Elec       q    Type
                         _______ _______ _______ _____ _____    ______ ____

>  <TORSDO>
F 5

$$$$
=
 OpenBabel11052419553D

 37 41  0  0  1  0  0  0  0  0999 V2000
  195.0910  175.0320  143.0970 C   0  0  0  0  0  0  0  0  0  0  0  0
  191.9200  175.8690  144.8720 C   0  0  0  0  0  0  0  0  0  0  0  0
  194.6580  176.7260  145.0350 C   0  0  0  0  0  2  0  0  0  0  0  0
  190.9220  176.3050  144.0850 C   0  0  0  0  0  3  0  0  0  0  0  0
  192.9600  174.9070  144.2900 C   0  0  1  0  0  3  0  0  0  0  0  0
  189.8130  177.0730  144.5770 N   0  0  0  0  0  0  0  0  0  0  0  0
  194.5100  176.5640  146.4950 C   0  0  0  0  0  3  0  0  0  0  0  0
  192.6950  174.5540  142.8860 N   0  0  1  0  0  0  0  0  0  0  0  0
  196.0220  173.8330  143.2830 C   0  0  0  0  0  1  0  0  0  0  0  0
  190.8930  175.7960  147.1780 C   0  0  0  0  0  2  0  0  0  0  0  0
  193.3140  176.3410  147.0490 C   0  0  0  0  0  3  0  0  0  0  0  0
  193.9680  174.6520  142.1580 C   0  0  0  0  0  2  0  0  0  0  0  0
  191.9950  176.3600  146.3080 C   0  0  1  0  0  3  0  0  0  0  0  0
  194.4180  175.3430  144.4240 C   0  0  1  0  0  3  0  0  0  0  0  0
  189.0040  176.4920  145.6690 C   0  0  1  0  0  3  0  0  0  0  0  0
  195.8890  176.2000  142.4980 C   0  0  0  0  0  1  0  0  0  0  0  0
  189.6620  176.6630  147.0440 C   0  0  0  0  0  2  0  0  0  0  0  0
  186.6930  176.6530  144.6370 C   0  0  0  0  0  3  0  0  0  0  0  0
  187.5790  176.9560  145.6950 C   0  0  0  0  0  0  0  0  0  0  0  0
  187.1580  177.7840  146.7320 C   0  0  0  0  0  3  0  0  0  0  0  0
  185.4580  179.1060  147.7480 F   0  0  0  0  0  0  0  0  0  0  0  0
  184.9820  178.0020  145.6900 C   0  0  0  0  0  3  0  0  0  0  0  0
  185.8590  178.3080  146.7360 C   0  0  0  0  0  0  0  0  0  0  0  0
  185.3960  177.1720  144.6400 C   0  0  0  0  0  3  0  0  0  0  0  0
  192.4000  172.3560  141.5910 C   0  0  0  0  0  2  0  0  0  0  0  0
  191.4990  172.7610  140.4170 C   0  0  1  0  0  3  0  0  0  0  0  0
  190.0260  172.8090  140.8210 C   0  0  0  0  0  2  0  0  0  0  0  0
  190.6460  173.1780  143.2280 C   0  0  0  0  0  2  0  0  0  0  0  0
  189.8040  173.6960  142.0480 C   0  0  2  0  0  3  0  0  0  0  0  0
  192.1430  173.1800  142.8780 C   0  0  2  0  0  3  0  0  0  0  0  0
  188.3100  173.7410  142.3840 C   0  0  2  0  0  3  0  0  0  0  0  0
  187.5640  172.5800  141.7550 C   0  0  0  0  0  1  0  0  0  0  0  0
  187.7370  174.9390  141.9930 F   0  0  0  0  0  0  0  0  0  0  0  0
  191.9190  174.0130  139.8490 N   0  0  0  0  0  0  0  0  0  0  0  0
  192.6210  174.0350  138.8830 O   0  0  0  0  0  0  0  0  0  0  0  0
  189.3250  178.1670  143.7390 C   0  0  0  0  0  2  0  0  0  0  0  0
  189.3800  177.7660  142.2720 C   0  0  0  0  0  1  0  0  0  0  0  0
  1  9  1  0  0  0  0
  1 14  1  0  0  0  0
  2 13  1  0  0  0  0
  3  7  1  0  0  0  0
  4  6  1  0  0  0  0
  4  2  2  0  0  0  0
  5 14  1  0  0  0  0
  5  2  1  6  0  0  0
  6 15  1  0  0  0  0
  7 11  2  0  0  0  0
  8 12  1  6  0  0  0
  8  5  1  0  0  0  0
 12  1  1  0  0  0  0
 13 11  1  1  0  0  0
 13 10  1  0  0  0  0
 14  3  1  6  0  0  0
 15 19  1  1  0  0  0
 15 17  1  0  0  0  0
 16  1  1  0  0  0  0
 17 10  1  0  0  0  0
 18 24  2  0  0  0  0
 18 19  1  0  0  0  0
 19 20  2  0  0  0  0
 20 23  1  0  0  0  0
 22 23  2  0  0  0  0
 23 21  1  0  0  0  0
 24 22  1  0  0  0  0
 26 34  1  1  0  0  0
 26 27  1  0  0  0  0
 26 25  1  0  0  0  0
 27 29  1  0  0  0  0
 29 31  1  1  0  0  0
 29 28  1  0  0  0  0
 30 25  1  6  0  0  0
 30  8  1  0  0  0  0
 30 28  1  0  0  0  0
 31 32  1  6  0  0  0
 33 31  1  0  0  0  0
 35 34  2  0  0  0  0
 36  6  1  0  0  0  0
 37 36  1  0  0  0  0
M  END
>  <MODEL>
2

>  <REMARK>
 VINA RESULT:      -7.9      1.753      2.202
  Name = 
  5 active torsions:
  status: ('A' for Active; 'I' for Inactive)
    1  A    between atoms: C_5  and  N_12
    2  A    between atoms: C_6  and  C_31
    3  A    between atoms: C_7  and  N_14
    4  A    between atoms: C_11  and  C_33
    5  A    between atoms: N_20  and  C_36
                            x       y       z     vdW  Elec       q    Type
                         _______ _______ _______ _____ _____    ______ ____

>  <TORSDO>
F 5

$$$$
=
 OpenBabel11052419553D

 37 41  0  0  1  0  0  0  0  0999 V2000
  195.7230  174.1370  141.8510 C   0  0  0  0  0  0  0  0  0  0  0  0
  192.8210  175.1050  143.9830 C   0  0  0  0  0  0  0  0  0  0  0  0
  195.6370  175.6770  143.9560 C   0  0  0  0  0  2  0  0  0  0  0  0
  191.8100  175.7070  143.3340 C   0  0  0  0  0  3  0  0  0  0  0  0
  193.7020  174.1070  143.2270 C   0  0  1  0  0  3  0  0  0  0  0  0
  190.8330  176.5290  143.9910 N   0  0  0  0  0  0  0  0  0  0  0  0
  195.5990  175.3950  145.4050 C   0  0  0  0  0  3  0  0  0  0  0  0
  193.2810  173.9120  141.8290 N   0  0  1  0  0  0  0  0  0  0  0  0
  196.5360  172.8420  141.8460 C   0  0  0  0  0  1  0  0  0  0  0  0
  191.9940  174.9180  146.3610 C   0  0  0  0  0  2  0  0  0  0  0  0
  194.4390  175.2370  146.0500 C   0  0  0  0  0  3  0  0  0  0  0  0
  194.4900  173.9550  140.9940 C   0  0  0  0  0  2  0  0  0  0  0  0
  193.0700  175.4510  145.4420 C   0  0  1  0  0  3  0  0  0  0  0  0
  195.2030  174.3860  143.2570 C   0  0  1  0  0  3  0  0  0  0  0  0
  190.0650  175.9290  145.1030 C   0  0  1  0  0  3  0  0  0  0  0  0
  196.5830  175.2730  141.2780 C   0  0  0  0  0  1  0  0  0  0  0  0
  190.8530  175.9080  146.4180 C   0  0  0  0  0  2  0  0  0  0  0  0
  188.3610  177.1740  146.5090 C   0  0  0  0  0  3  0  0  0  0  0  0
  188.7030  176.5230  145.3030 C   0  0  0  0  0  0  0  0  0  0  0  0
  187.7360  176.3360  144.3200 C   0  0  0  0  0  3  0  0  0  0  0  0
  185.4970  176.6190  143.5570 F   0  0  0  0  0  0  0  0  0  0  0  0
  186.0920  177.4490  145.7090 C   0  0  0  0  0  3  0  0  0  0  0  0
  186.4280  176.7990  144.5170 C   0  0  0  0  0  0  0  0  0  0  0  0
  187.0580  177.6400  146.7070 C   0  0  0  0  0  3  0  0  0  0  0  0
  192.6660  171.8730  140.3950 C   0  0  0  0  0  2  0  0  0  0  0  0
  191.7290  172.4630  139.3320 C   0  0  1  0  0  3  0  0  0  0  0  0
  190.3020  172.6200  139.8580 C   0  0  0  0  0  2  0  0  0  0  0  0
  191.1310  172.7180  142.2280 C   0  0  0  0  0  2  0  0  0  0  0  0
  190.2640  173.4150  141.1640 C   0  0  2  0  0  3  0  0  0  0  0  0
  192.5910  172.6040  141.7590 C   0  0  2  0  0  3  0  0  0  0  0  0
  188.8110  173.5760  141.6220 C   0  0  2  0  0  3  0  0  0  0  0  0
  188.2150  174.8810  141.1310 C   0  0  0  0  0  1  0  0  0  0  0  0
  188.7000  173.4940  142.9990 F   0  0  0  0  0  0  0  0  0  0  0  0
  192.2340  173.7130  138.8320 N   0  0  0  0  0  0  0  0  0  0  0  0
  191.8660  174.1360  137.7780 O   0  0  0  0  0  0  0  0  0  0  0  0
  190.3910  177.7380  143.2970 C   0  0  0  0  0  2  0  0  0  0  0  0
  191.1720  178.9440  143.7980 C   0  0  0  0  0  1  0  0  0  0  0  0
  1 14  1  0  0  0  0
  2 13  1  0  0  0  0
  3  7  1  0  0  0  0
  4  2  2  0  0  0  0
  4  6  1  0  0  0  0
  5 14  1  0  0  0  0
  5  2  1  6  0  0  0
  6 15  1  0  0  0  0
  7 11  2  0  0  0  0
  8 12  1  6  0  0  0
  8  5  1  0  0  0  0
  9  1  1  0  0  0  0
 10 17  1  0  0  0  0
 12  1  1  0  0  0  0
 13 11  1  1  0  0  0
 13 10  1  0  0  0  0
 14  3  1  6  0  0  0
 15 19  1  1  0  0  0
 15 17  1  0  0  0  0
 16  1  1  0  0  0  0
 18 24  1  0  0  0  0
 19 18  2  0  0  0  0
 20 23  2  0  0  0  0
 20 19  1  0  0  0  0
 21 23  1  0  0  0  0
 22 24  2  0  0  0  0
 23 22  1  0  0  0  0
 26 34  1  1  0  0  0
 26 27  1  0  0  0  0
 26 25  1  0  0  0  0
 27 29  1  0  0  0  0
 29 31  1  1  0  0  0
 29 28  1  0  0  0  0
 30 25  1  6  0  0  0
 30  8  1  0  0  0  0
 30 28  1  0  0  0  0
 31 32  1  1  0  0  0
 31 33  1  0  0  0  0
 35 34  2  0  0  0  0
 36 37  1  0  0  0  0
 36  6  1  0  0  0  0
M  END
>  <MODEL>
3

>  <REMARK>
 VINA RESULT:      -7.2      1.845      2.862
  Name = 
  5 active torsions:
  status: ('A' for Active; 'I' for Inactive)
    1  A    between atoms: C_5  and  N_12
    2  A    between atoms: C_6  and  C_31
    3  A    between atoms: C_7  and  N_14
    4  A    between atoms: C_11  and  C_33
    5  A    between atoms: N_20  and  C_36
                            x       y       z     vdW  Elec       q    Type
                         _______ _______ _______ _____ _____    ______ ____

>  <TORSDO>
F 5

$$$$
=
 OpenBabel11052419553D

 37 41  0  0  1  0  0  0  0  0999 V2000
  192.9040  171.9940  140.0160 C   0  0  0  0  0  0  0  0  0  0  0  0
  190.3470  174.0980  141.7320 C   0  0  0  0  0  0  0  0  0  0  0  0
  190.3030  171.7740  140.0420 C   0  0  0  0  0  2  0  0  0  0  0  0
  190.4880  174.1960  143.0650 C   0  0  0  0  0  3  0  0  0  0  0  0
  191.5910  173.8740  140.8670 C   0  0  1  0  0  3  0  0  0  0  0  0
  189.4130  174.5660  143.9420 N   0  0  0  0  0  0  0  0  0  0  0  0
  189.2300  172.4660  139.3000 C   0  0  0  0  0  3  0  0  0  0  0  0
  192.8350  173.8210  141.6510 N   0  0  1  0  0  0  0  0  0  0  0  0
  193.6660  172.2570  138.7180 C   0  0  0  0  0  1  0  0  0  0  0  0
  188.3750  175.5870  141.2140 C   0  0  0  0  0  2  0  0  0  0  0  0
  188.6730  173.5860  139.7720 C   0  0  0  0  0  3  0  0  0  0  0  0
  193.6180  172.6770  141.1620 C   0  0  0  0  0  2  0  0  0  0  0  0
  188.9560  174.1930  141.1280 C   0  0  1  0  0  3  0  0  0  0  0  0
  191.5430  172.6660  139.9320 C   0  0  1  0  0  3  0  0  0  0  0  0
  188.7320  175.8540  143.6910 C   0  0  1  0  0  3  0  0  0  0  0  0
  192.8530  170.4810  140.2720 C   0  0  0  0  0  1  0  0  0  0  0  0
  187.7030  175.7630  142.5580 C   0  0  0  0  0  2  0  0  0  0  0  0
  188.9480  177.0480  145.9170 C   0  0  0  0  0  3  0  0  0  0  0  0
  188.1320  176.4840  144.9110 C   0  0  0  0  0  0  0  0  0  0  0  0
  186.7540  176.4160  145.0970 C   0  0  0  0  0  3  0  0  0  0  0  0
  184.8360  176.8480  146.4400 F   0  0  0  0  0  0  0  0  0  0  0  0
  186.9810  177.4770  147.2630 C   0  0  0  0  0  3  0  0  0  0  0  0
  186.1730  176.9130  146.2700 C   0  0  0  0  0  0  0  0  0  0  0  0
  188.3700  177.5480  147.0870 C   0  0  0  0  0  3  0  0  0  0  0  0
  195.0790  175.0640  141.5330 C   0  0  0  0  0  2  0  0  0  0  0  0
  195.6120  174.9600  142.9690 C   0  0  1  0  0  3  0  0  0  0  0  0
  194.9890  176.0150  143.8830 C   0  0  0  0  0  2  0  0  0  0  0  0
  192.9780  176.1970  142.3880 C   0  0  0  0  0  2  0  0  0  0  0  0
  193.4610  175.9760  143.8320 C   0  0  2  0  0  3  0  0  0  0  0  0
  193.5330  175.1110  141.4510 C   0  0  2  0  0  3  0  0  0  0  0  0
  192.8910  177.0230  144.7950 C   0  0  2  0  0  3  0  0  0  0  0  0
  192.5640  176.4160  146.1450 C   0  0  0  0  0  1  0  0  0  0  0  0
  191.7690  177.6390  144.2690 F   0  0  0  0  0  0  0  0  0  0  0  0
  195.4180  173.6380  143.5000 N   0  0  0  0  0  0  0  0  0  0  0  0
  195.7710  173.3720  144.6090 O   0  0  0  0  0  0  0  0  0  0  0  0
  189.3160  173.8680  145.2230 C   0  0  0  0  0  2  0  0  0  0  0  0
  189.6910  172.4030  145.0490 C   0  0  0  0  0  1  0  0  0  0  0  0
  1 16  1  0  0  0  0
  1 12  1  0  0  0  0
  2  4  2  0  0  0  0
  4  6  1  0  0  0  0
  5  8  1  0  0  0  0
  5  2  1  1  0  0  0
  6 36  1  0  0  0  0
  7 11  2  0  0  0  0
  7  3  1  0  0  0  0
  8 12  1  6  0  0  0
  9  1  1  0  0  0  0
 10 17  1  0  0  0  0
 13 11  1  6  0  0  0
 13 10  1  0  0  0  0
 13  2  1  0  0  0  0
 14  1  1  0  0  0  0
 14  3  1  1  0  0  0
 14  5  1  0  0  0  0
 15  6  1  0  0  0  0
 15 19  1  1  0  0  0
 17 15  1  0  0  0  0
 18 24  1  0  0  0  0
 19 20  1  0  0  0  0
 19 18  2  0  0  0  0
 20 23  2  0  0  0  0
 23 21  1  0  0  0  0
 23 22  1  0  0  0  0
 24 22  2  0  0  0  0
 25 26  1  0  0  0  0
 26 34  1  1  0  0  0
 26 27  1  0  0  0  0
 28 29  1  0  0  0  0
 29 27  1  0  0  0  0
 29 31  1  1  0  0  0
 30 25  1  1  0  0  0
 30  8  1  0  0  0  0
 30 28  1  0  0  0  0
 31 32  1  1  0  0  0
 33 31  1  0  0  0  0
 34 35  2  0  0  0  0
 37 36  1  0  0  0  0
M  END
>  <MODEL>
4

>  <REMARK>
 VINA RESULT:      -7.1      2.641      5.361
  Name = 
  5 active torsions:
  status: ('A' for Active; 'I' for Inactive)
    1  A    between atoms: C_5  and  N_12
    2  A    between atoms: C_6  and  C_31
    3  A    between atoms: C_7  and  N_14
    4  A    between atoms: C_11  and  C_33
    5  A    between atoms: N_20  and  C_36
                            x       y       z     vdW  Elec       q    Type
                         _______ _______ _______ _____ _____    ______ ____

>  <TORSDO>
F 5

$$$$
=
 OpenBabel11052419553D

 37 41  0  0  1  0  0  0  0  0999 V2000
  186.3960  177.4470  145.9510 C   0  0  0  0  0  0  0  0  0  0  0  0
  189.1110  175.6090  144.1760 C   0  0  0  0  0  0  0  0  0  0  0  0
  188.1810  175.7890  146.8890 C   0  0  0  0  0  2  0  0  0  0  0  0
  188.7030  174.8140  143.1720 C   0  0  0  0  0  3  0  0  0  0  0  0
  188.2890  176.8530  144.5220 C   0  0  1  0  0  3  0  0  0  0  0  0
  189.4860  173.7220  142.6670 N   0  0  0  0  0  0  0  0  0  0  0  0
  189.6030  175.9470  147.2530 C   0  0  0  0  0  3  0  0  0  0  0  0
  187.1200  177.0320  143.6460 N   0  0  1  0  0  0  0  0  0  0  0  0
  186.3470  178.9050  146.4090 C   0  0  0  0  0  1  0  0  0  0  0  0
  191.6270  175.4050  144.1310 C   0  0  0  0  0  2  0  0  0  0  0  0
  190.5740  175.7530  146.3540 C   0  0  0  0  0  3  0  0  0  0  0  0
  185.9720  177.3640  144.5010 C   0  0  0  0  0  2  0  0  0  0  0  0
  190.3660  175.2350  144.9480 C   0  0  1  0  0  3  0  0  0  0  0  0
  187.8390  176.9710  145.9770 C   0  0  1  0  0  3  0  0  0  0  0  0
  190.8500  174.0210  142.1790 C   0  0  1  0  0  3  0  0  0  0  0  0
  185.4350  176.6160  146.8160 C   0  0  0  0  0  1  0  0  0  0  0  0
  191.8660  174.1510  143.3200 C   0  0  0  0  0  2  0  0  0  0  0  0
  192.2660  172.0550  141.4320 C   0  0  0  0  0  3  0  0  0  0  0  0
  191.3460  173.0820  141.1230 C   0  0  0  0  0  0  0  0  0  0  0  0
  190.9690  173.2950  139.8000 C   0  0  0  0  0  3  0  0  0  0  0  0
  191.1150  172.7020  137.4980 F   0  0  0  0  0  0  0  0  0  0  0  0
  192.3960  171.4720  139.0860 C   0  0  0  0  0  3  0  0  0  0  0  0
  191.4900  172.4910  138.7770 C   0  0  0  0  0  0  0  0  0  0  0  0
  192.7840  171.2500  140.4150 C   0  0  0  0  0  3  0  0  0  0  0  0
  186.3140  179.1350  142.4110 C   0  0  0  0  0  2  0  0  0  0  0  0
  185.2290  178.5940  141.4700 C   0  0  1  0  0  3  0  0  0  0  0  0
  185.8280  177.9860  140.2020 C   0  0  0  0  0  2  0  0  0  0  0  0
  188.0070  177.5550  141.3770 C   0  0  0  0  0  2  0  0  0  0  0  0
  186.8860  176.9300  140.5260 C   0  0  2  0  0  3  0  0  0  0  0  0
  187.4480  178.1180  142.6940 C   0  0  2  0  0  3  0  0  0  0  0  0
  187.4220  176.3270  139.2240 C   0  0  2  0  0  3  0  0  0  0  0  0
  186.3990  176.4160  138.1090 C   0  0  0  0  0  1  0  0  0  0  0  0
  187.8190  175.0130  139.3980 F   0  0  0  0  0  0  0  0  0  0  0  0
  184.3820  177.6480  142.1460 N   0  0  0  0  0  0  0  0  0  0  0  0
  183.2430  177.9160  142.3820 O   0  0  0  0  0  0  0  0  0  0  0  0
  188.7790  172.4930  142.3090 C   0  0  0  0  0  2  0  0  0  0  0  0
  187.4410  172.8280  141.6660 C   0  0  0  0  0  1  0  0  0  0  0  0
  1 14  1  0  0  0  0
  1  9  1  0  0  0  0
  1 16  1  0  0  0  0
  2 13  1  0  0  0  0
  3  7  1  0  0  0  0
  4  2  2  0  0  0  0
  5  2  1  1  0  0  0
  5 14  1  0  0  0  0
  6  4  1  0  0  0  0
  8 12  1  1  0  0  0
  8  5  1  0  0  0  0
 11  7  2  0  0  0  0
 12  1  1  0  0  0  0
 13 10  1  6  0  0  0
 13 11  1  0  0  0  0
 14  3  1  6  0  0  0
 15 19  1  6  0  0  0
 15  6  1  0  0  0  0
 15 17  1  0  0  0  0
 17 10  1  0  0  0  0
 19 18  1  0  0  0  0
 20 19  2  0  0  0  0
 21 23  1  0  0  0  0
 22 24  1  0  0  0  0
 23 22  2  0  0  0  0
 23 20  1  0  0  0  0
 24 18  2  0  0  0  0
 25 30  1  0  0  0  0
 26 34  1  1  0  0  0
 26 25  1  0  0  0  0
 27 29  1  0  0  0  0
 27 26  1  0  0  0  0
 29 31  1  6  0  0  0
 29 28  1  0  0  0  0
 30 28  1  6  0  0  0
 30  8  1  0  0  0  0
 31 32  1  6  0  0  0
 31 33  1  0  0  0  0
 34 35  2  0  0  0  0
 36  6  1  0  0  0  0
 37 36  1  0  0  0  0
M  END
>  <MODEL>
5

>  <REMARK>
 VINA RESULT:      -6.9      2.967      7.099
  Name = 
  5 active torsions:
  status: ('A' for Active; 'I' for Inactive)
    1  A    between atoms: C_5  and  N_12
    2  A    between atoms: C_6  and  C_31
    3  A    between atoms: C_7  and  N_14
    4  A    between atoms: C_11  and  C_33
    5  A    between atoms: N_20  and  C_36
                            x       y       z     vdW  Elec       q    Type
                         _______ _______ _______ _____ _____    ______ ____

>  <TORSDO>
F 5

$$$$
=
 OpenBabel11052419553D

 37 41  0  0  1  0  0  0  0  0999 V2000
  191.1790  176.1740  147.6430 C   0  0  0  0  0  0  0  0  0  0  0  0
  191.5470  175.0850  144.0950 C   0  0  0  0  0  0  0  0  0  0  0  0
  193.0660  174.7670  146.5140 C   0  0  0  0  0  2  0  0  0  0  0  0
  190.5270  174.3570  143.6120 C   0  0  0  0  0  3  0  0  0  0  0  0
  191.2730  176.1100  145.2000 C   0  0  1  0  0  3  0  0  0  0  0  0
  190.6500  173.4930  142.4710 N   0  0  0  0  0  0  0  0  0  0  0  0
  194.2400  175.1340  145.6990 C   0  0  0  0  0  3  0  0  0  0  0  0
  189.8520  176.1780  145.5810 N   0  0  1  0  0  0  0  0  0  0  0  0
  191.4740  177.5340  148.2780 C   0  0  0  0  0  1  0  0  0  0  0  0
  193.1000  175.3470  142.1220 C   0  0  0  0  0  2  0  0  0  0  0  0
  194.1570  175.2280  144.3680 C   0  0  0  0  0  3  0  0  0  0  0  0
  189.7880  176.1920  147.0490 C   0  0  0  0  0  2  0  0  0  0  0  0
  192.9440  174.8550  143.5440 C   0  0  1  0  0  3  0  0  0  0  0  0
  192.1170  175.9680  146.4650 C   0  0  1  0  0  3  0  0  0  0  0  0
  191.1230  174.0900  141.2040 C   0  0  1  0  0  3  0  0  0  0  0  0
  191.2630  175.0860  148.7230 C   0  0  0  0  0  1  0  0  0  0  0  0
  192.6470  174.2640  141.1690 C   0  0  0  0  0  2  0  0  0  0  0  0
  191.4230  172.4120  139.3270 C   0  0  0  0  0  3  0  0  0  0  0  0
  190.6350  173.3910  139.9720 C   0  0  0  0  0  0  0  0  0  0  0  0
  189.4290  173.7910  139.4040 C   0  0  0  0  0  3  0  0  0  0  0  0
  187.8160  173.6100  137.6600 F   0  0  0  0  0  0  0  0  0  0  0  0
  189.7690  172.2470  137.5680 C   0  0  0  0  0  3  0  0  0  0  0  0
  188.9900  173.2200  138.2020 C   0  0  0  0  0  0  0  0  0  0  0  0
  190.9860  171.8390  138.1300 C   0  0  0  0  0  3  0  0  0  0  0  0
  188.3120  178.2130  145.8660 C   0  0  0  0  0  2  0  0  0  0  0  0
  186.9140  177.5840  145.9480 C   0  0  1  0  0  3  0  0  0  0  0  0
  186.3560  177.2600  144.5620 C   0  0  0  0  0  2  0  0  0  0  0  0
  188.6740  177.1300  143.6020 C   0  0  0  0  0  2  0  0  0  0  0  0
  187.3250  176.4030  143.7480 C   0  0  2  0  0  3  0  0  0  0  0  0
  189.2980  177.4120  144.9790 C   0  0  2  0  0  3  0  0  0  0  0  0
  186.7000  176.0740  142.3880 C   0  0  2  0  0  3  0  0  0  0  0  0
  187.6910  176.2750  141.2580 C   0  0  0  0  0  1  0  0  0  0  0  0
  185.5610  176.8260  142.1580 F   0  0  0  0  0  0  0  0  0  0  0  0
  186.9190  176.4170  146.7880 N   0  0  0  0  0  0  0  0  0  0  0  0
  186.3230  176.4140  147.8230 O   0  0  0  0  0  0  0  0  0  0  0  0
  189.9530  172.2090  142.5180 C   0  0  0  0  0  2  0  0  0  0  0  0
  188.4640  172.4300  142.7450 C   0  0  0  0  0  1  0  0  0  0  0  0
  1  9  1  0  0  0  0
  1 16  1  0  0  0  0
  4  2  2  0  0  0  0
  5  2  1  6  0  0  0
  5  8  1  0  0  0  0
  5 14  1  0  0  0  0
  6 36  1  0  0  0  0
  6  4  1  0  0  0  0
  7  3  1  0  0  0  0
  8 12  1  1  0  0  0
 11  7  2  0  0  0  0
 12  1  1  0  0  0  0
 13 10  1  6  0  0  0
 13  2  1  0  0  0  0
 13 11  1  0  0  0  0
 14  3  1  1  0  0  0
 14  1  1  0  0  0  0
 15 19  1  6  0  0  0
 15  6  1  0  0  0  0
 17 15  1  0  0  0  0
 17 10  1  0  0  0  0
 18 19  1  0  0  0  0
 20 19  2  0  0  0  0
 21 23  1  0  0  0  0
 22 24  1  0  0  0  0
 22 23  2  0  0  0  0
 23 20  1  0  0  0  0
 24 18  2  0  0  0  0
 25 26  1  0  0  0  0
 26 34  1  1  0  0  0
 27 26  1  0  0  0  0
 28 29  1  0  0  0  0
 29 31  1  6  0  0  0
 29 27  1  0  0  0  0
 30 28  1  6  0  0  0
 30  8  1  0  0  0  0
 30 25  1  0  0  0  0
 31 32  1  6  0  0  0
 33 31  1  0  0  0  0
 34 35  2  0  0  0  0
 36 37  1  0  0  0  0
M  END
>  <MODEL>
6

>  <REMARK>
 VINA RESULT:      -6.8      2.679      6.214
  Name = 
  5 active torsions:
  status: ('A' for Active; 'I' for Inactive)
    1  A    between atoms: C_5  and  N_12
    2  A    between atoms: C_6  and  C_31
    3  A    between atoms: C_7  and  N_14
    4  A    between atoms: C_11  and  C_33
    5  A    between atoms: N_20  and  C_36
                            x       y       z     vdW  Elec       q    Type
                         _______ _______ _______ _____ _____    ______ ____

>  <TORSDO>
F 5

$$$$
=
 OpenBabel11052419553D

 37 41  0  0  1  0  0  0  0  0999 V2000
  190.6750  177.4090  144.4910 C   0  0  0  0  0  0  0  0  0  0  0  0
  189.8590  174.6190  142.1550 C   0  0  0  0  0  0  0  0  0  0  0  0
  189.0400  177.3570  142.4560 C   0  0  0  0  0  2  0  0  0  0  0  0
  190.9090  174.0980  141.4980 C   0  0  0  0  0  3  0  0  0  0  0  0
  190.0790  175.2370  143.5390 C   0  0  1  0  0  3  0  0  0  0  0  0
  190.7800  173.3550  140.2760 N   0  0  0  0  0  0  0  0  0  0  0  0
  187.6630  176.8530  142.2880 C   0  0  0  0  0  3  0  0  0  0  0  0
  191.4750  175.1450  143.9940 N   0  0  1  0  0  0  0  0  0  0  0  0
  190.1690  177.6680  145.9100 C   0  0  0  0  0  1  0  0  0  0  0  0
  187.9050  173.2060  141.4060 C   0  0  0  0  0  2  0  0  0  0  0  0
  187.4290  175.5910  141.9120 C   0  0  0  0  0  3  0  0  0  0  0  0
  191.8490  176.4560  144.5450 C   0  0  0  0  0  2  0  0  0  0  0  0
  188.4910  174.5980  141.4940 C   0  0  1  0  0  3  0  0  0  0  0  0
  189.5960  176.6770  143.7100 C   0  0  1  0  0  3  0  0  0  0  0  0
  189.9020  172.1650  140.2830 C   0  0  1  0  0  3  0  0  0  0  0  0
  191.1220  178.7390  143.8660 C   0  0  0  0  0  1  0  0  0  0  0  0
  188.4180  172.5290  140.1550 C   0  0  0  0  0  2  0  0  0  0  0  0
  189.6390  171.0220  138.0350 C   0  0  0  0  0  3  0  0  0  0  0  0
  190.2840  171.1110  139.2890 C   0  0  0  0  0  0  0  0  0  0  0  0
  191.2180  170.1450  139.6550 C   0  0  0  0  0  3  0  0  0  0  0  0
  192.4380  168.1660  139.1430 F   0  0  0  0  0  0  0  0  0  0  0  0
  190.8920  169.0110  137.5390 C   0  0  0  0  0  3  0  0  0  0  0  0
  191.5270  169.0940  138.7830 C   0  0  0  0  0  0  0  0  0  0  0  0
  189.9490  169.9760  137.1620 C   0  0  0  0  0  3  0  0  0  0  0  0
  192.6610  174.1940  146.0640 C   0  0  0  0  0  2  0  0  0  0  0  0
  194.0470  173.8100  145.5280 C   0  0  1  0  0  3  0  0  0  0  0  0
  194.0270  172.4550  144.8220 C   0  0  0  0  0  2  0  0  0  0  0  0
  191.5700  172.6800  144.3470 C   0  0  0  0  0  2  0  0  0  0  0  0
  192.9530  172.3980  143.7350 C   0  0  2  0  0  3  0  0  0  0  0  0
  191.5340  174.0680  145.0090 C   0  0  2  0  0  3  0  0  0  0  0  0
  193.0050  171.0370  143.0350 C   0  0  2  0  0  3  0  0  0  0  0  0
  193.8990  171.0750  141.8110 C   0  0  0  0  0  1  0  0  0  0  0  0
  191.7410  170.5970  142.6840 F   0  0  0  0  0  0  0  0  0  0  0  0
  194.5700  174.8340  144.6640 N   0  0  0  0  0  0  0  0  0  0  0  0
  195.3240  175.6580  145.0880 O   0  0  0  0  0  0  0  0  0  0  0  0
  191.7900  173.5750  139.2430 C   0  0  0  0  0  2  0  0  0  0  0  0
  193.0510  174.1620  139.8610 C   0  0  0  0  0  1  0  0  0  0  0  0
  1 12  1  0  0  0  0
  1  9  1  0  0  0  0
  4  2  2  0  0  0  0
  5  2  1  6  0  0  0
  5 14  1  0  0  0  0
  5  8  1  0  0  0  0
  6 15  1  0  0  0  0
  6  4  1  0  0  0  0
  7  3  1  0  0  0  0
  8 12  1  1  0  0  0
  8 30  1  0  0  0  0
 11  7  2  0  0  0  0
 13 10  1  1  0  0  0
 13 11  1  0  0  0  0
 13  2  1  0  0  0  0
 14  3  1  6  0  0  0
 14  1  1  0  0  0  0
 15 19  1  6  0  0  0
 16  1  1  0  0  0  0
 17 15  1  0  0  0  0
 17 10  1  0  0  0  0
 18 19  1  0  0  0  0
 19 20  2  0  0  0  0
 22 23  2  0  0  0  0
 23 21  1  0  0  0  0
 23 20  1  0  0  0  0
 24 22  1  0  0  0  0
 24 18  2  0  0  0  0
 26 34  1  6  0  0  0
 26 25  1  0  0  0  0
 27 26  1  0  0  0  0
 29 31  1  1  0  0  0
 29 28  1  0  0  0  0
 29 27  1  0  0  0  0
 30 28  1  6  0  0  0
 30 25  1  0  0  0  0
 31 32  1  6  0  0  0
 33 31  1  0  0  0  0
 34 35  2  0  0  0  0
 36 37  1  0  0  0  0
 36  6  1  0  0  0  0
M  END
>  <MODEL>
7

>  <REMARK>
 VINA RESULT:      -6.6      2.982      6.879
  Name = 
  5 active torsions:
  status: ('A' for Active; 'I' for Inactive)
    1  A    between atoms: C_5  and  N_12
    2  A    between atoms: C_6  and  C_31
    3  A    between atoms: C_7  and  N_14
    4  A    between atoms: C_11  and  C_33
    5  A    between atoms: N_20  and  C_36
                            x       y       z     vdW  Elec       q    Type
                         _______ _______ _______ _____ _____    ______ ____

>  <TORSDO>
F 5

$$$$
=
 OpenBabel11052419553D

 37 41  0  0  1  0  0  0  0  0999 V2000
  188.9450  176.3230  145.8450 C   0  0  0  0  0  0  0  0  0  0  0  0
  192.4290  175.0790  145.3820 C   0  0  0  0  0  0  0  0  0  0  0  0
  190.8830  176.0990  147.5780 C   0  0  0  0  0  2  0  0  0  0  0  0
  192.5310  173.8280  144.9030 C   0  0  0  0  0  3  0  0  0  0  0  0
  191.2070  175.9220  145.0080 C   0  0  1  0  0  3  0  0  0  0  0  0
  193.7080  173.0200  145.0610 N   0  0  0  0  0  0  0  0  0  0  0  0
  192.0610  176.9370  147.8800 C   0  0  0  0  0  3  0  0  0  0  0  0
  190.2780  175.2200  144.1070 N   0  0  1  0  0  0  0  0  0  0  0  0
  188.3440  177.6850  145.4950 C   0  0  0  0  0  1  0  0  0  0  0  0
  194.8230  175.8590  145.5680 C   0  0  0  0  0  2  0  0  0  0  0  0
  193.2260  176.7440  147.2520 C   0  0  0  0  0  3  0  0  0  0  0  0
  188.9170  175.4360  144.6190 C   0  0  0  0  0  2  0  0  0  0  0  0
  193.5210  175.6100  146.2960 C   0  0  1  0  0  3  0  0  0  0  0  0
  190.4160  176.5050  146.1780 C   0  0  1  0  0  3  0  0  0  0  0  0
  194.9870  173.5620  144.5550 C   0  0  1  0  0  3  0  0  0  0  0  0
  188.1130  175.6790  146.9640 C   0  0  0  0  0  1  0  0  0  0  0  0
  195.6180  174.5740  145.5180 C   0  0  0  0  0  2  0  0  0  0  0  0
  196.9700  172.0590  145.0460 C   0  0  0  0  0  3  0  0  0  0  0  0
  195.9810  172.5170  144.1470 C   0  0  0  0  0  0  0  0  0  0  0  0
  195.9870  172.0710  142.8280 C   0  0  0  0  0  3  0  0  0  0  0  0
  196.9570  170.7320  141.1140 F   0  0  0  0  0  0  0  0  0  0  0  0
  197.9360  170.7070  143.2860 C   0  0  0  0  0  3  0  0  0  0  0  0
  196.9610  171.1640  142.3930 C   0  0  0  0  0  0  0  0  0  0  0  0
  197.9410  171.1510  144.6150 C   0  0  0  0  0  3  0  0  0  0  0  0
  189.2040  175.8470  141.8600 C   0  0  0  0  0  2  0  0  0  0  0  0
  188.8090  174.4860  141.2700 C   0  0  1  0  0  3  0  0  0  0  0  0
  189.9940  173.7930  140.5980 C   0  0  0  0  0  2  0  0  0  0  0  0
  191.6190  175.0870  142.0110 C   0  0  0  0  0  2  0  0  0  0  0  0
  191.1950  173.6850  141.5390 C   0  0  2  0  0  3  0  0  0  0  0  0
  190.4690  175.7890  142.7530 C   0  0  2  0  0  3  0  0  0  0  0  0
  192.3350  172.9480  140.8300 C   0  0  2  0  0  3  0  0  0  0  0  0
  191.9860  171.4940  140.5790 C   0  0  0  0  0  1  0  0  0  0  0  0
  193.5180  173.0350  141.5430 F   0  0  0  0  0  0  0  0  0  0  0  0
  188.2160  173.6400  142.2700 N   0  0  0  0  0  0  0  0  0  0  0  0
  187.2630  172.9690  142.0090 O   0  0  0  0  0  0  0  0  0  0  0  0
  193.5170  171.5980  145.3430 C   0  0  0  0  0  2  0  0  0  0  0  0
  192.6470  170.9640  144.2680 C   0  0  0  0  0  1  0  0  0  0  0  0
  1 14  1  0  0  0  0
  1 16  1  0  0  0  0
  2 13  1  0  0  0  0
  3  7  1  0  0  0  0
  4  6  1  0  0  0  0
  4  2  2  0  0  0  0
  5  2  1  1  0  0  0
  5 14  1  0  0  0  0
  6 36  1  0  0  0  0
  8 12  1  1  0  0  0
  8  5  1  0  0  0  0
  9  1  1  0  0  0  0
 11  7  2  0  0  0  0
 12  1  1  0  0  0  0
 13 10  1  6  0  0  0
 13 11  1  0  0  0  0
 14  3  1  1  0  0  0
 15 19  1  1  0  0  0
 15  6  1  0  0  0  0
 15 17  1  0  0  0  0
 17 10  1  0  0  0  0
 19 18  2  0  0  0  0
 20 19  1  0  0  0  0
 21 23  1  0  0  0  0
 22 24  2  0  0  0  0
 23 20  2  0  0  0  0
 23 22  1  0  0  0  0
 24 18  1  0  0  0  0
 26 25  1  0  0  0  0
 26 34  1  1  0  0  0
 27 26  1  0  0  0  0
 27 29  1  0  0  0  0
 28 30  1  0  0  0  0
 29 31  1  6  0  0  0
 29 28  1  0  0  0  0
 30 25  1  6  0  0  0
 30  8  1  0  0  0  0
 31 32  1  1  0  0  0
 31 33  1  0  0  0  0
 35 34  2  0  0  0  0
 37 36  1  0  0  0  0
M  END
>  <MODEL>
8

>  <REMARK>
 VINA RESULT:      -6.5      3.111      7.417
  Name = 
  5 active torsions:
  status: ('A' for Active; 'I' for Inactive)
    1  A    between atoms: C_5  and  N_12
    2  A    between atoms: C_6  and  C_31
    3  A    between atoms: C_7  and  N_14
    4  A    between atoms: C_11  and  C_33
    5  A    between atoms: N_20  and  C_36
                            x       y       z     vdW  Elec       q    Type
                         _______ _______ _______ _____ _____    ______ ____

>  <TORSDO>
F 5

$$$$
=
 OpenBabel11052419553D

 37 41  0  0  1  0  0  0  0  0999 V2000
  193.4710  174.3040  137.4700 C   0  0  0  0  0  0  0  0  0  0  0  0
  193.0910  174.2670  141.1790 C   0  0  0  0  0  0  0  0  0  0  0  0
  195.0610  175.2300  139.3220 C   0  0  0  0  0  2  0  0  0  0  0  0
  191.9800  174.8600  141.6460 C   0  0  0  0  0  3  0  0  0  0  0  0
  193.0670  173.6320  139.7860 C   0  0  1  0  0  3  0  0  0  0  0  0
  191.8520  175.3370  142.9950 N   0  0  0  0  0  0  0  0  0  0  0  0
  196.0540  174.5870  140.2050 C   0  0  0  0  0  3  0  0  0  0  0  0
  191.7550  173.7400  139.1280 N   0  0  1  0  0  0  0  0  0  0  0  0
  193.9160  173.1860  136.5270 C   0  0  0  0  0  1  0  0  0  0  0  0
  194.2190  173.3630  143.2500 C   0  0  0  0  0  2  0  0  0  0  0  0
  195.7050  174.1040  141.4020 C   0  0  0  0  0  3  0  0  0  0  0  0
  191.9890  174.1680  137.7420 C   0  0  0  0  0  2  0  0  0  0  0  0
  194.3430  174.2640  142.0410 C   0  0  1  0  0  3  0  0  0  0  0  0
  194.1470  174.1100  138.8170 C   0  0  1  0  0  3  0  0  0  0  0  0
  192.0710  174.3690  144.0910 C   0  0  1  0  0  3  0  0  0  0  0  0
  193.7490  175.6620  136.8070 C   0  0  0  0  0  1  0  0  0  0  0  0
  193.5590  174.1300  144.3740 C   0  0  0  0  0  2  0  0  0  0  0  0
  190.0230  174.1970  145.5770 C   0  0  0  0  0  3  0  0  0  0  0  0
  191.3290  174.6880  145.3530 C   0  0  0  0  0  0  0  0  0  0  0  0
  191.9020  175.5660  146.2680 C   0  0  0  0  0  3  0  0  0  0  0  0
  191.7600  176.8040  148.2980 F   0  0  0  0  0  0  0  0  0  0  0  0
  189.9050  175.4640  147.6360 C   0  0  0  0  0  3  0  0  0  0  0  0
  191.1950  175.9560  147.4130 C   0  0  0  0  0  0  0  0  0  0  0  0
  189.3170  174.5820  146.7190 C   0  0  0  0  0  3  0  0  0  0  0  0
  190.1080  172.0710  138.0790 C   0  0  0  0  0  2  0  0  0  0  0  0
  188.7510  172.7690  138.2440 C   0  0  1  0  0  3  0  0  0  0  0  0
  188.1770  172.5700  139.6470 C   0  0  0  0  0  2  0  0  0  0  0  0
  190.4740  172.1760  140.5860 C   0  0  0  0  0  2  0  0  0  0  0  0
  189.1740  172.9860  140.7300 C   0  0  2  0  0  3  0  0  0  0  0  0
  191.1150  172.4060  139.2070 C   0  0  2  0  0  3  0  0  0  0  0  0
  188.5340  172.8050  142.1100 C   0  0  2  0  0  3  0  0  0  0  0  0
  189.3410  171.8570  142.9760 C   0  0  0  0  0  1  0  0  0  0  0  0
  187.2280  172.3600  142.0110 F   0  0  0  0  0  0  0  0  0  0  0  0
  188.8430  174.1670  137.9180 N   0  0  0  0  0  0  0  0  0  0  0  0
  187.9760  174.7020  137.2960 O   0  0  0  0  0  0  0  0  0  0  0  0
  191.1520  176.6040  143.1990 C   0  0  0  0  0  2  0  0  0  0  0  0
  189.7340  176.5120  142.6560 C   0  0  0  0  0  1  0  0  0  0  0  0
  1 12  1  0  0  0  0
  1 14  1  0  0  0  0
  2  4  2  0  0  0  0
  2 13  1  0  0  0  0
  3  7  1  0  0  0  0
  4  6  1  0  0  0  0
  5  2  1  1  0  0  0
  6 36  1  0  0  0  0
  6 15  1  0  0  0  0
  7 11  2  0  0  0  0
  8 12  1  6  0  0  0
  8 30  1  0  0  0  0
  8  5  1  0  0  0  0
  9  1  1  0  0  0  0
 10 17  1  0  0  0  0
 13 11  1  6  0  0  0
 13 10  1  0  0  0  0
 14  3  1  1  0  0  0
 14  5  1  0  0  0  0
 15 17  1  0  0  0  0
 15 19  1  1  0  0  0
 16  1  1  0  0  0  0
 18 24  1  0  0  0  0
 19 18  2  0  0  0  0
 19 20  1  0  0  0  0
 20 23  2  0  0  0  0
 23 22  1  0  0  0  0
 23 21  1  0  0  0  0
 24 22  2  0  0  0  0
 25 26  1  0  0  0  0
 26 34  1  1  0  0  0
 26 27  1  0  0  0  0
 27 29  1  0  0  0  0
 28 29  1  0  0  0  0
 29 31  1  1  0  0  0
 30 25  1  6  0  0  0
 30 28  1  0  0  0  0
 31 32  1  1  0  0  0
 33 31  1  0  0  0  0
 35 34  2  0  0  0  0
 37 36  1  0  0  0  0
M  END
>  <MODEL>
9

>  <REMARK>
 VINA RESULT:      -6.5      3.224      5.728
  Name = 
  5 active torsions:
  status: ('A' for Active; 'I' for Inactive)
    1  A    between atoms: C_5  and  N_12
    2  A    between atoms: C_6  and  C_31
    3  A    between atoms: C_7  and  N_14
    4  A    between atoms: C_11  and  C_33
    5  A    between atoms: N_20  and  C_36
                            x       y       z     vdW  Elec       q    Type
                         _______ _______ _______ _____ _____    ______ ____

>  <TORSDO>
F 5

$$$$
