=
 OpenBabel11052418113D

 28 32  0  0  1  0  0  0  0  0999 V2000
  189.3320  173.4570  142.4050 N   0  0  0  0  0  0  0  0  0  0  0  0
  187.3350  176.8260  145.6480 C   0  0  0  0  0  3  0  0  0  0  0  0
  187.1190  176.7340  139.5840 F   0  0  0  0  0  0  0  0  0  0  0  0
  186.2220  178.4560  144.2330 C   0  0  0  0  0  0  0  0  0  0  0  0
  187.3900  176.5740  143.2560 C   0  0  0  0  0  0  0  0  0  0  0  0
  186.1760  178.6950  146.6470 C   0  0  0  0  0  0  0  0  0  0  0  0
  186.9920  177.2680  144.3540 C   0  0  0  0  0  0  0  0  0  0  0  0
  186.2310  178.2700  141.7520 C   0  0  0  0  0  2  0  0  0  0  0  0
  185.8240  179.1540  145.3780 C   0  0  0  0  0  3  0  0  0  0  0  0
  188.2150  175.1240  140.9740 C   0  0  0  0  0  0  0  0  0  0  0  0
  188.1500  175.3980  143.3830 C   0  0  0  0  0  3  0  0  0  0  0  0
  185.8580  178.9380  143.0430 C   0  0  0  0  0  3  0  0  0  0  0  0
  189.4260  173.2090  140.0200 C   0  0  0  0  0  3  0  0  0  0  0  0
  187.4560  176.2930  140.8260 C   0  0  0  0  0  0  0  0  0  0  0  0
  188.6180  174.4380  139.8940 C   0  0  0  0  0  3  0  0  0  0  0  0
  185.7460  179.4470  147.8550 C   0  0  0  0  0  1  0  0  0  0  0  0
  186.9320  177.5320  146.7820 C   0  0  0  0  0  3  0  0  0  0  0  0
  187.0430  177.0180  141.9560 C   0  0  0  0  0  0  0  0  0  0  0  0
  189.7610  172.7540  141.2280 C   0  0  0  0  0  3  0  0  0  0  0  0
  188.5600  174.6680  142.2630 C   0  0  0  0  0  0  0  0  0  0  0  0
  189.7110  172.9350  143.7180 C   0  0  0  0  0  2  0  0  0  0  0  0
  190.0040  174.0470  144.7280 C   0  0  2  0  0  3  0  0  0  0  0  0
  191.0590  175.5990  146.8830 C   0  0  0  0  0  0  0  0  0  0  0  0
  191.4720  174.4680  144.6910 C   0  0  0  0  0  2  0  0  0  0  0  0
  189.6210  173.6460  146.1480 C   0  0  0  0  0  2  0  0  0  0  0  0
  189.7690  174.8420  147.0870 C   0  0  0  0  0  2  0  0  0  0  0  0
  191.4430  176.6370  147.8790 C   0  0  0  0  0  1  0  0  0  0  0  0
  191.7850  175.4810  145.7590 C   0  0  0  0  0  3  0  0  0  0  0  0
  1 21  1  0  0  0  0
  2 17  2  0  0  0  0
  3 14  1  0  0  0  0
  4  7  1  0  0  0  0
  4  9  1  0  0  0  0
  5 11  1  0  0  0  0
  5  7  2  0  0  0  0
  6 17  1  0  0  0  0
  6 16  1  0  0  0  0
  7  2  1  0  0  0  0
  8 18  1  0  0  0  0
  8 12  1  0  0  0  0
  9  6  2  0  0  0  0
 10 20  1  0  0  0  0
 12  4  2  0  0  0  0
 13 19  2  0  0  0  0
 14 10  1  0  0  0  0
 14 18  2  0  0  0  0
 15 13  1  0  0  0  0
 15 10  2  0  0  0  0
 18  5  1  0  0  0  0
 19  1  1  0  0  0  0
 20  1  1  0  0  0  0
 20 11  2  0  0  0  0
 22 21  1  6  0  0  0
 22 25  1  0  0  0  0
 23 26  1  0  0  0  0
 23 27  1  0  0  0  0
 24 22  1  0  0  0  0
 24 28  1  0  0  0  0
 25 26  1  0  0  0  0
 28 23  2  0  0  0  0
M  END
>  <MODEL>
1

>  <REMARK>
 VINA RESULT:      -8.8      0.000      0.000
  Name = 
  2 active torsions:
  status: ('A' for Active; 'I' for Inactive)
    1  A    between atoms: N_1  and  C_2
    2  A    between atoms: C_2  and  C_3
                            x       y       z     vdW  Elec       q    Type
                         _______ _______ _______ _____ _____    ______ ____

>  <TORSDO>
F 2

$$$$
=
 OpenBabel11052418113D

 28 32  0  0  1  0  0  0  0  0999 V2000
  190.3250  176.4220  144.5920 N   0  0  0  0  0  0  0  0  0  0  0  0
  185.9550  177.4790  142.2170 C   0  0  0  0  0  2  0  0  0  0  0  0
  187.4520  178.2720  148.0450 F   0  0  0  0  0  0  0  0  0  0  0  0
  184.5260  178.4130  143.9460 C   0  0  0  0  0  0  0  0  0  0  0  0
  186.7770  177.6930  144.4690 C   0  0  0  0  0  0  0  0  0  0  0  0
  183.7120  178.1900  141.6710 C   0  0  0  0  0  0  0  0  0  0  0  0
  185.7770  177.8570  143.5650 C   0  0  0  0  0  0  0  0  0  0  0  0
  185.2990  178.6680  146.2960 C   0  0  0  0  0  3  0  0  0  0  0  0
  183.5110  178.5720  142.9970 C   0  0  0  0  0  3  0  0  0  0  0  0
  188.8640  177.3540  146.3450 C   0  0  0  0  0  0  0  0  0  0  0  0
  188.0140  177.1450  144.0840 C   0  0  0  0  0  3  0  0  0  0  0  0
  184.2820  178.7950  145.2010 C   0  0  0  0  0  3  0  0  0  0  0  0
  191.1490  176.5960  146.8390 C   0  0  0  0  0  3  0  0  0  0  0  0
  187.6390  177.9050  146.7490 C   0  0  0  0  0  0  0  0  0  0  0  0
  189.8540  177.1810  147.2340 C   0  0  0  0  0  3  0  0  0  0  0  0
  182.6240  178.3660  140.6740 C   0  0  0  0  0  1  0  0  0  0  0  0
  184.9330  177.6430  141.2810 C   0  0  0  0  0  3  0  0  0  0  0  0
  186.5990  178.0750  145.8210 C   0  0  0  0  0  0  0  0  0  0  0  0
  191.3580  176.2350  145.5720 C   0  0  0  0  0  3  0  0  0  0  0  0
  189.0560  176.9770  145.0000 C   0  0  0  0  0  0  0  0  0  0  0  0
  190.5800  176.0200  143.2090 C   0  0  0  0  0  2  0  0  0  0  0  0
  190.7190  174.5040  143.0550 C   0  0  2  0  0  3  0  0  0  0  0  0
  190.5420  171.8040  142.1380 C   0  0  0  0  0  0  0  0  0  0  0  0
  191.3590  174.1310  141.7200 C   0  0  0  0  0  2  0  0  0  0  0  0
  189.3800  173.7900  143.2010 C   0  0  0  0  0  2  0  0  0  0  0  0
  189.5940  172.2770  143.2130 C   0  0  0  0  0  2  0  0  0  0  0  0
  190.6590  170.3420  141.8820 C   0  0  0  0  0  1  0  0  0  0  0  0
  191.3940  172.6390  141.5200 C   0  0  0  0  0  3  0  0  0  0  0  0
  1 20  1  0  0  0  0
  1 19  1  0  0  0  0
  2  7  1  0  0  0  0
  4 12  1  0  0  0  0
  5 18  1  0  0  0  0
  6  9  1  0  0  0  0
  7  4  1  0  0  0  0
  7  5  2  0  0  0  0
  9  4  2  0  0  0  0
 10 14  1  0  0  0  0
 10 15  2  0  0  0  0
 11  5  1  0  0  0  0
 11 20  2  0  0  0  0
 12  8  2  0  0  0  0
 13 15  1  0  0  0  0
 14  3  1  0  0  0  0
 16  6  1  0  0  0  0
 17  6  2  0  0  0  0
 17  2  1  0  0  0  0
 18  8  1  0  0  0  0
 18 14  2  0  0  0  0
 19 13  2  0  0  0  0
 20 10  1  0  0  0  0
 21  1  1  0  0  0  0
 22 25  1  0  0  0  0
 22 21  1  6  0  0  0
 23 26  1  0  0  0  0
 24 22  1  0  0  0  0
 25 26  1  0  0  0  0
 27 23  1  0  0  0  0
 28 24  1  0  0  0  0
 28 23  2  0  0  0  0
M  END
>  <MODEL>
2

>  <REMARK>
 VINA RESULT:      -8.7      2.445      5.122
  Name = 
  2 active torsions:
  status: ('A' for Active; 'I' for Inactive)
    1  A    between atoms: N_1  and  C_2
    2  A    between atoms: C_2  and  C_3
                            x       y       z     vdW  Elec       q    Type
                         _______ _______ _______ _____ _____    ______ ____

>  <TORSDO>
F 2

$$$$
=
 OpenBabel11052418113D

 28 32  0  0  1  0  0  0  0  0999 V2000
  185.8480  177.4430  146.3510 N   0  0  0  0  0  0  0  0  0  0  0  0
  188.8570  174.7460  143.2650 C   0  0  0  0  0  3  0  0  0  0  0  0
  184.5080  178.7410  141.8660 F   0  0  0  0  0  0  0  0  0  0  0  0
  188.1900  175.4070  141.0250 C   0  0  0  0  0  0  0  0  0  0  0  0
  187.0950  176.3570  142.9630 C   0  0  0  0  0  0  0  0  0  0  0  0
  189.9640  173.7840  141.3460 C   0  0  0  0  0  0  0  0  0  0  0  0
  188.0260  175.5220  142.4310 C   0  0  0  0  0  0  0  0  0  0  0  0
  186.3790  177.0640  140.6260 C   0  0  0  0  0  2  0  0  0  0  0  0
  189.1550  174.5410  140.4990 C   0  0  0  0  0  3  0  0  0  0  0  0
  185.1640  178.0960  144.0750 C   0  0  0  0  0  0  0  0  0  0  0  0
  186.9400  176.4680  144.3560 C   0  0  0  0  0  3  0  0  0  0  0  0
  187.4420  176.1080  140.1710 C   0  0  0  0  0  3  0  0  0  0  0  0
  184.0660  179.0240  146.0690 C   0  0  0  0  0  3  0  0  0  0  0  0
  185.3050  178.0010  142.6830 C   0  0  0  0  0  0  0  0  0  0  0  0
  184.2420  178.9110  144.6080 C   0  0  0  0  0  3  0  0  0  0  0  0
  190.9860  172.8670  140.7740 C   0  0  0  0  0  1  0  0  0  0  0  0
  189.8160  173.8850  142.7280 C   0  0  0  0  0  3  0  0  0  0  0  0
  186.2630  177.1380  142.1250 C   0  0  0  0  0  0  0  0  0  0  0  0
  184.8400  178.3130  146.8890 C   0  0  0  0  0  3  0  0  0  0  0  0
  185.9930  177.3290  144.9190 C   0  0  0  0  0  0  0  0  0  0  0  0
  186.6860  176.6750  147.2730 C   0  0  0  0  0  2  0  0  0  0  0  0
  188.0590  176.3480  146.6830 C   0  0  2  0  0  3  0  0  0  0  0  0
  190.8350  175.7690  146.3280 C   0  0  0  0  0  0  0  0  0  0  0  0
  188.6280  175.0550  147.2630 C   0  0  0  0  0  2  0  0  0  0  0  0
  189.0550  177.4850  146.8880 C   0  0  0  0  0  2  0  0  0  0  0  0
  190.3510  177.1860  146.1350 C   0  0  0  0  0  2  0  0  0  0  0  0
  192.1990  175.4090  145.8500 C   0  0  0  0  0  1  0  0  0  0  0  0
  190.0250  174.7920  146.7660 C   0  0  0  0  0  3  0  0  0  0  0  0
  1 19  1  0  0  0  0
  1 21  1  0  0  0  0
  3 14  1  0  0  0  0
  4  7  1  0  0  0  0
  5 11  1  0  0  0  0
  6 17  1  0  0  0  0
  7  5  2  0  0  0  0
  7  2  1  0  0  0  0
  8 18  1  0  0  0  0
  9  4  1  0  0  0  0
  9  6  2  0  0  0  0
 10 15  2  0  0  0  0
 10 20  1  0  0  0  0
 11 20  2  0  0  0  0
 12  8  1  0  0  0  0
 12  4  2  0  0  0  0
 13 19  2  0  0  0  0
 14 10  1  0  0  0  0
 15 13  1  0  0  0  0
 16  6  1  0  0  0  0
 17  2  2  0  0  0  0
 18 14  2  0  0  0  0
 18  5  1  0  0  0  0
 20  1  1  0  0  0  0
 22 25  1  0  0  0  0
 22 24  1  0  0  0  0
 22 21  1  1  0  0  0
 23 28  2  0  0  0  0
 26 23  1  0  0  0  0
 26 25  1  0  0  0  0
 27 23  1  0  0  0  0
 28 24  1  0  0  0  0
M  END
>  <MODEL>
3

>  <REMARK>
 VINA RESULT:      -8.6      1.864      5.396
  Name = 
  2 active torsions:
  status: ('A' for Active; 'I' for Inactive)
    1  A    between atoms: N_1  and  C_2
    2  A    between atoms: C_2  and  C_3
                            x       y       z     vdW  Elec       q    Type
                         _______ _______ _______ _____ _____    ______ ____

>  <TORSDO>
F 2

$$$$
=
 OpenBabel11052418113D

 28 32  0  0  1  0  0  0  0  0999 V2000
  187.4020  176.8500  146.6010 N   0  0  0  0  0  0  0  0  0  0  0  0
  188.4030  174.6950  142.1050 C   0  0  0  0  0  3  0  0  0  0  0  0
  185.3250  179.7810  143.3300 F   0  0  0  0  0  0  0  0  0  0  0  0
  187.3710  176.1690  140.4740 C   0  0  0  0  0  0  0  0  0  0  0  0
  187.2280  176.6630  142.8390 C   0  0  0  0  0  0  0  0  0  0  0  0
  188.5580  174.1810  139.7500 C   0  0  0  0  0  0  0  0  0  0  0  0
  187.6570  175.8610  141.8310 C   0  0  0  0  0  0  0  0  0  0  0  0
  186.1400  178.2230  141.1480 C   0  0  0  0  0  2  0  0  0  0  0  0
  187.8230  175.3280  139.4520 C   0  0  0  0  0  3  0  0  0  0  0  0
  186.3420  178.3330  144.9410 C   0  0  0  0  0  0  0  0  0  0  0  0
  187.5180  176.3530  144.1790 C   0  0  0  0  0  3  0  0  0  0  0  0
  186.6720  177.2540  140.1340 C   0  0  0  0  0  3  0  0  0  0  0  0
  186.2060  178.7900  147.3520 C   0  0  0  0  0  3  0  0  0  0  0  0
  186.0450  178.6610  143.6100 C   0  0  0  0  0  0  0  0  0  0  0  0
  185.9150  179.1160  145.9430 C   0  0  0  0  0  3  0  0  0  0  0  0
  189.0330  173.2960  138.6540 C   0  0  0  0  0  1  0  0  0  0  0  0
  188.8470  173.8640  141.0770 C   0  0  0  0  0  3  0  0  0  0  0  0
  186.4830  177.8350  142.5620 C   0  0  0  0  0  0  0  0  0  0  0  0
  186.9160  177.7020  147.6510 C   0  0  0  0  0  3  0  0  0  0  0  0
  187.0910  177.1730  145.2280 C   0  0  0  0  0  0  0  0  0  0  0  0
  188.1810  175.6640  146.9550 C   0  0  0  0  0  2  0  0  0  0  0  0
  189.6530  175.7890  146.5570 C   0  0  2  0  0  3  0  0  0  0  0  0
  192.4700  175.4000  146.2770 C   0  0  0  0  0  0  0  0  0  0  0  0
  190.1640  174.5180  145.8820 C   0  0  0  0  0  2  0  0  0  0  0  0
  190.5400  176.1280  147.7510 C   0  0  0  0  0  2  0  0  0  0  0  0
  191.9650  176.4120  147.2780 C   0  0  0  0  0  2  0  0  0  0  0  0
  193.9140  175.4160  145.9130 C   0  0  0  0  0  1  0  0  0  0  0  0
  191.6390  174.5990  145.5910 C   0  0  0  0  0  3  0  0  0  0  0  0
  1 21  1  0  0  0  0
  1 19  1  0  0  0  0
  3 14  1  0  0  0  0
  4  7  1  0  0  0  0
  5 11  1  0  0  0  0
  6 17  1  0  0  0  0
  7  2  1  0  0  0  0
  7  5  2  0  0  0  0
  8 18  1  0  0  0  0
  9  6  2  0  0  0  0
  9  4  1  0  0  0  0
 10 20  1  0  0  0  0
 10 15  2  0  0  0  0
 11 20  2  0  0  0  0
 12  4  2  0  0  0  0
 12  8  1  0  0  0  0
 13 19  2  0  0  0  0
 14 10  1  0  0  0  0
 15 13  1  0  0  0  0
 16  6  1  0  0  0  0
 17  2  2  0  0  0  0
 18  5  1  0  0  0  0
 18 14  2  0  0  0  0
 20  1  1  0  0  0  0
 22 21  1  1  0  0  0
 22 25  1  0  0  0  0
 23 26  1  0  0  0  0
 24 22  1  0  0  0  0
 26 25  1  0  0  0  0
 27 23  1  0  0  0  0
 28 24  1  0  0  0  0
 28 23  2  0  0  0  0
M  END
>  <MODEL>
4

>  <REMARK>
 VINA RESULT:      -8.6      1.772      5.317
  Name = 
  2 active torsions:
  status: ('A' for Active; 'I' for Inactive)
    1  A    between atoms: N_1  and  C_2
    2  A    between atoms: C_2  and  C_3
                            x       y       z     vdW  Elec       q    Type
                         _______ _______ _______ _____ _____    ______ ____

>  <TORSDO>
F 2

$$$$
=
 OpenBabel11052418113D

 28 32  0  0  1  0  0  0  0  0999 V2000
  190.7330  173.4580  143.2050 N   0  0  0  0  0  0  0  0  0  0  0  0
  187.8230  176.6590  145.8760 C   0  0  0  0  0  3  0  0  0  0  0  0
  187.8160  175.5230  139.9150 F   0  0  0  0  0  0  0  0  0  0  0  0
  186.3600  177.6810  144.2290 C   0  0  0  0  0  0  0  0  0  0  0  0
  188.0120  176.0440  143.5580 C   0  0  0  0  0  0  0  0  0  0  0  0
  186.1820  178.2910  146.5700 C   0  0  0  0  0  0  0  0  0  0  0  0
  187.4140  176.7770  144.5320 C   0  0  0  0  0  0  0  0  0  0  0  0
  186.4900  177.1010  141.8130 C   0  0  0  0  0  2  0  0  0  0  0  0
  185.7590  178.4260  145.2480 C   0  0  0  0  0  3  0  0  0  0  0  0
  189.2580  174.5120  141.5350 C   0  0  0  0  0  0  0  0  0  0  0  0
  189.0520  175.1490  143.8660 C   0  0  0  0  0  3  0  0  0  0  0  0
  185.9170  177.8480  142.9810 C   0  0  0  0  0  3  0  0  0  0  0  0
  190.9590  172.8580  140.8920 C   0  0  0  0  0  3  0  0  0  0  0  0
  188.2210  175.3970  141.2070 C   0  0  0  0  0  0  0  0  0  0  0  0
  189.8590  173.7900  140.5770 C   0  0  0  0  0  3  0  0  0  0  0  0
  185.5340  179.0890  147.6440 C   0  0  0  0  0  1  0  0  0  0  0  0
  187.2150  177.4080  146.8840 C   0  0  0  0  0  3  0  0  0  0  0  0
  187.5980  176.1600  142.2080 C   0  0  0  0  0  0  0  0  0  0  0  0
  191.3670  172.7120  142.1540 C   0  0  0  0  0  3  0  0  0  0  0  0
  189.6730  174.3810  142.8760 C   0  0  0  0  0  0  0  0  0  0  0  0
  191.1980  173.2780  144.5800 C   0  0  0  0  0  2  0  0  0  0  0  0
  192.7040  173.5070  144.7240 C   0  0  2  0  0  3  0  0  0  0  0  0
  195.3850  173.6450  145.7020 C   0  0  0  0  0  0  0  0  0  0  0  0
  193.4410  172.2110  145.0540 C   0  0  0  0  0  2  0  0  0  0  0  0
  193.0240  174.5620  145.7780 C   0  0  0  0  0  2  0  0  0  0  0  0
  194.5180  174.8790  145.7630 C   0  0  0  0  0  2  0  0  0  0  0  0
  196.8510  173.7910  145.9200 C   0  0  0  0  0  1  0  0  0  0  0  0
  194.9060  172.4550  145.3050 C   0  0  0  0  0  3  0  0  0  0  0  0
  1 21  1  0  0  0  0
  2 17  2  0  0  0  0
  3 14  1  0  0  0  0
  4  7  1  0  0  0  0
  4  9  1  0  0  0  0
  5 11  1  0  0  0  0
  5  7  2  0  0  0  0
  6 17  1  0  0  0  0
  6 16  1  0  0  0  0
  7  2  1  0  0  0  0
  8 18  1  0  0  0  0
  8 12  1  0  0  0  0
  9  6  2  0  0  0  0
 10 20  1  0  0  0  0
 12  4  2  0  0  0  0
 13 19  2  0  0  0  0
 14 10  1  0  0  0  0
 14 18  2  0  0  0  0
 15 13  1  0  0  0  0
 15 10  2  0  0  0  0
 18  5  1  0  0  0  0
 19  1  1  0  0  0  0
 20  1  1  0  0  0  0
 20 11  2  0  0  0  0
 22 21  1  1  0  0  0
 22 24  1  0  0  0  0
 22 25  1  0  0  0  0
 23 26  1  0  0  0  0
 23 27  1  0  0  0  0
 24 28  1  0  0  0  0
 26 25  1  0  0  0  0
 28 23  2  0  0  0  0
M  END
>  <MODEL>
5

>  <REMARK>
 VINA RESULT:      -8.4      1.930      2.447
  Name = 
  2 active torsions:
  status: ('A' for Active; 'I' for Inactive)
    1  A    between atoms: N_1  and  C_2
    2  A    between atoms: C_2  and  C_3
                            x       y       z     vdW  Elec       q    Type
                         _______ _______ _______ _____ _____    ______ ____

>  <TORSDO>
F 2

$$$$
=
 OpenBabel11052418113D

 28 32  0  0  1  0  0  0  0  0999 V2000
  186.1480  177.6160  141.2000 N   0  0  0  0  0  0  0  0  0  0  0  0
  189.3410  177.1750  145.1320 C   0  0  0  0  0  2  0  0  0  0  0  0
  183.5010  178.8230  145.0900 F   0  0  0  0  0  0  0  0  0  0  0  0
  188.0100  177.7700  147.0740 C   0  0  0  0  0  0  0  0  0  0  0  0
  187.0340  177.7990  144.8600 C   0  0  0  0  0  0  0  0  0  0  0  0
  190.3390  177.1390  147.3310 C   0  0  0  0  0  0  0  0  0  0  0  0
  188.1040  177.5860  145.6690 C   0  0  0  0  0  0  0  0  0  0  0  0
  185.6190  178.4260  146.8800 C   0  0  0  0  0  3  0  0  0  0  0  0
  189.1260  177.5450  147.8870 C   0  0  0  0  0  3  0  0  0  0  0  0
  184.8080  178.2360  143.1730 C   0  0  0  0  0  0  0  0  0  0  0  0
  187.1330  177.6130  143.4700 C   0  0  0  0  0  3  0  0  0  0  0  0
  186.8740  178.1570  147.6570 C   0  0  0  0  0  3  0  0  0  0  0  0
  183.8580  178.2690  140.9060 C   0  0  0  0  0  3  0  0  0  0  0  0
  184.6880  178.4250  144.5570 C   0  0  0  0  0  0  0  0  0  0  0  0
  183.7570  178.4520  142.3670 C   0  0  0  0  0  3  0  0  0  0  0  0
  191.5160  176.9030  148.2080 C   0  0  0  0  0  1  0  0  0  0  0  0
  190.4470  176.9540  145.9540 C   0  0  0  0  0  3  0  0  0  0  0  0
  185.7900  178.2090  145.4000 C   0  0  0  0  0  0  0  0  0  0  0  0
  185.0090  177.8720  140.3630 C   0  0  0  0  0  3  0  0  0  0  0  0
  186.0380  177.8200  142.6250 C   0  0  0  0  0  0  0  0  0  0  0  0
  187.3990  177.1790  140.5790 C   0  0  0  0  0  2  0  0  0  0  0  0
  187.7960  175.7610  140.9970 C   0  0  2  0  0  3  0  0  0  0  0  0
  189.2010  173.3090  141.4190 C   0  0  0  0  0  0  0  0  0  0  0  0
  189.0450  175.7630  141.8750 C   0  0  0  0  0  2  0  0  0  0  0  0
  188.0160  174.8510  139.7930 C   0  0  0  0  0  2  0  0  0  0  0  0
  188.2390  173.4130  140.2600 C   0  0  0  0  0  2  0  0  0  0  0  0
  189.6910  171.9620  141.8210 C   0  0  0  0  0  1  0  0  0  0  0  0
  189.5000  174.3640  142.1950 C   0  0  0  0  0  3  0  0  0  0  0  0
  1 20  1  0  0  0  0
  2  7  1  0  0  0  0
  2 17  1  0  0  0  0
  4 12  1  0  0  0  0
  4  9  2  0  0  0  0
  5 18  1  0  0  0  0
  5  7  2  0  0  0  0
  6  9  1  0  0  0  0
  6 16  1  0  0  0  0
  7  4  1  0  0  0  0
  8 12  2  0  0  0  0
 10 14  1  0  0  0  0
 11  5  1  0  0  0  0
 13 15  1  0  0  0  0
 14  3  1  0  0  0  0
 14 18  2  0  0  0  0
 15 10  2  0  0  0  0
 17  6  2  0  0  0  0
 18  8  1  0  0  0  0
 19 13  2  0  0  0  0
 19  1  1  0  0  0  0
 20 10  1  0  0  0  0
 20 11  2  0  0  0  0
 21  1  1  0  0  0  0
 22 21  1  6  0  0  0
 22 24  1  0  0  0  0
 23 27  1  0  0  0  0
 23 28  2  0  0  0  0
 24 28  1  0  0  0  0
 25 26  1  0  0  0  0
 25 22  1  0  0  0  0
 26 23  1  0  0  0  0
M  END
>  <MODEL>
6

>  <REMARK>
 VINA RESULT:      -8.3      2.256      5.245
  Name = 
  2 active torsions:
  status: ('A' for Active; 'I' for Inactive)
    1  A    between atoms: N_1  and  C_2
    2  A    between atoms: C_2  and  C_3
                            x       y       z     vdW  Elec       q    Type
                         _______ _______ _______ _____ _____    ______ ____

>  <TORSDO>
F 2

$$$$
=
 OpenBabel11052418113D

 28 32  0  0  1  0  0  0  0  0999 V2000
  186.2990  177.6420  146.4620 N   0  0  0  0  0  0  0  0  0  0  0  0
  189.7160  174.2850  144.7580 C   0  0  0  0  0  2  0  0  0  0  0  0
  190.3710  178.6660  148.9060 F   0  0  0  0  0  0  0  0  0  0  0  0
  191.7460  174.7950  145.9900 C   0  0  0  0  0  0  0  0  0  0  0  0
  189.7300  176.0810  146.3590 C   0  0  0  0  0  0  0  0  0  0  0  0
  191.7170  172.9880  144.3720 C   0  0  0  0  0  0  0  0  0  0  0  0
  190.3810  175.0780  145.7160 C   0  0  0  0  0  0  0  0  0  0  0  0
  191.8450  176.6340  147.6620 C   0  0  0  0  0  3  0  0  0  0  0  0
  192.3970  173.7560  145.3150 C   0  0  0  0  0  3  0  0  0  0  0  0
  188.3670  178.1660  147.6970 C   0  0  0  0  0  0  0  0  0  0  0  0
  188.3780  176.3530  146.0850 C   0  0  0  0  0  3  0  0  0  0  0  0
  192.4430  175.5000  146.8830 C   0  0  0  0  0  3  0  0  0  0  0  0
  186.3040  179.4590  148.0300 C   0  0  0  0  0  3  0  0  0  0  0  0
  189.7150  177.9090  147.9850 C   0  0  0  0  0  0  0  0  0  0  0  0
  187.7200  179.1610  148.3210 C   0  0  0  0  0  3  0  0  0  0  0  0
  192.4210  171.8870  143.6630 C   0  0  0  0  0  1  0  0  0  0  0  0
  190.3770  173.2520  144.0920 C   0  0  0  0  0  3  0  0  0  0  0  0
  190.3970  176.8750  147.3240 C   0  0  0  0  0  0  0  0  0  0  0  0
  185.6390  178.7250  147.1370 C   0  0  0  0  0  3  0  0  0  0  0  0
  187.6900  177.3780  146.7440 C   0  0  0  0  0  0  0  0  0  0  0  0
  185.5470  176.8510  145.4890 C   0  0  0  0  0  2  0  0  0  0  0  0
  185.8500  177.2570  144.0450 C   0  0  2  0  0  3  0  0  0  0  0  0
  185.8150  177.5440  141.2020 C   0  0  0  0  0  0  0  0  0  0  0  0
  184.6430  177.9160  143.3800 C   0  0  0  0  0  2  0  0  0  0  0  0
  186.3160  176.0730  143.2040 C   0  0  0  0  0  2  0  0  0  0  0  0
  186.7700  176.5560  141.8280 C   0  0  0  0  0  2  0  0  0  0  0  0
  186.0060  177.9150  139.7730 C   0  0  0  0  0  1  0  0  0  0  0  0
  184.9050  178.2140  141.9270 C   0  0  0  0  0  3  0  0  0  0  0  0
  1 20  1  0  0  0  0
  1 19  1  0  0  0  0
  2  7  1  0  0  0  0
  4 12  1  0  0  0  0
  5 18  1  0  0  0  0
  6  9  1  0  0  0  0
  7  4  1  0  0  0  0
  7  5  2  0  0  0  0
  9  4  2  0  0  0  0
 10 14  1  0  0  0  0
 10 15  2  0  0  0  0
 11  5  1  0  0  0  0
 11 20  2  0  0  0  0
 12  8  2  0  0  0  0
 13 15  1  0  0  0  0
 14  3  1  0  0  0  0
 16  6  1  0  0  0  0
 17  6  2  0  0  0  0
 17  2  1  0  0  0  0
 18  8  1  0  0  0  0
 18 14  2  0  0  0  0
 19 13  2  0  0  0  0
 20 10  1  0  0  0  0
 21  1  1  0  0  0  0
 22 21  1  1  0  0  0
 23 26  1  0  0  0  0
 23 28  2  0  0  0  0
 24 22  1  0  0  0  0
 25 22  1  0  0  0  0
 26 25  1  0  0  0  0
 27 23  1  0  0  0  0
 28 24  1  0  0  0  0
M  END
>  <MODEL>
7

>  <REMARK>
 VINA RESULT:      -8.1      2.827      7.507
  Name = 
  2 active torsions:
  status: ('A' for Active; 'I' for Inactive)
    1  A    between atoms: N_1  and  C_2
    2  A    between atoms: C_2  and  C_3
                            x       y       z     vdW  Elec       q    Type
                         _______ _______ _______ _____ _____    ______ ____

>  <TORSDO>
F 2

$$$$
=
 OpenBabel11052418113D

 28 32  0  0  1  0  0  0  0  0999 V2000
  187.4270  176.2840  142.8060 N   0  0  0  0  0  0  0  0  0  0  0  0
  192.2180  175.2920  144.1910 C   0  0  0  0  0  2  0  0  0  0  0  0
  187.7620  177.9130  147.3700 F   0  0  0  0  0  0  0  0  0  0  0  0
  192.3760  176.1000  146.4760 C   0  0  0  0  0  0  0  0  0  0  0  0
  190.3040  176.3020  145.2430 C   0  0  0  0  0  0  0  0  0  0  0  0
  194.2970  175.0800  145.4010 C   0  0  0  0  0  0  0  0  0  0  0  0
  191.6020  175.9070  145.3010 C   0  0  0  0  0  0  0  0  0  0  0  0
  190.4460  177.1550  147.6360 C   0  0  0  0  0  3  0  0  0  0  0  0
  193.7120  175.6850  146.5130 C   0  0  0  0  0  3  0  0  0  0  0  0
  187.5990  177.1170  145.1190 C   0  0  0  0  0  0  0  0  0  0  0  0
  189.5420  176.1050  144.0770 C   0  0  0  0  0  3  0  0  0  0  0  0
  191.8650  176.6730  147.5670 C   0  0  0  0  0  3  0  0  0  0  0  0
  185.5180  177.3190  143.8270 C   0  0  0  0  0  3  0  0  0  0  0  0
  188.3410  177.3200  146.2920 C   0  0  0  0  0  0  0  0  0  0  0  0
  186.3190  177.5120  145.0510 C   0  0  0  0  0  3  0  0  0  0  0  0
  195.7180  174.6440  145.4540 C   0  0  0  0  0  1  0  0  0  0  0  0
  193.5510  174.8840  144.2400 C   0  0  0  0  0  3  0  0  0  0  0  0
  189.6850  176.9160  146.3590 C   0  0  0  0  0  0  0  0  0  0  0  0
  186.0630  176.7320  142.7610 C   0  0  0  0  0  3  0  0  0  0  0  0
  188.2020  176.4990  144.0040 C   0  0  0  0  0  0  0  0  0  0  0  0
  188.0000  175.6410  141.6230 C   0  0  0  0  0  2  0  0  0  0  0  0
  188.8750  174.4370  141.9760 C   0  0  2  0  0  3  0  0  0  0  0  0
  190.2330  171.9230  141.9600 C   0  0  0  0  0  0  0  0  0  0  0  0
  189.9210  174.1650  140.8980 C   0  0  0  0  0  2  0  0  0  0  0  0
  188.0470  173.1790  142.2170 C   0  0  0  0  0  2  0  0  0  0  0  0
  188.9430  172.0540  142.7330 C   0  0  0  0  0  2  0  0  0  0  0  0
  191.0890  170.7270  142.1970 C   0  0  0  0  0  1  0  0  0  0  0  0
  190.7080  172.9160  141.1910 C   0  0  0  0  0  3  0  0  0  0  0  0
  1 20  1  0  0  0  0
  2 17  1  0  0  0  0
  2  7  1  0  0  0  0
  4  9  2  0  0  0  0
  4 12  1  0  0  0  0
  5  7  2  0  0  0  0
  5 18  1  0  0  0  0
  6 16  1  0  0  0  0
  6  9  1  0  0  0  0
  7  4  1  0  0  0  0
 10 14  1  0  0  0  0
 11  5  1  0  0  0  0
 12  8  2  0  0  0  0
 13 15  1  0  0  0  0
 14 18  2  0  0  0  0
 14  3  1  0  0  0  0
 15 10  2  0  0  0  0
 17  6  2  0  0  0  0
 18  8  1  0  0  0  0
 19  1  1  0  0  0  0
 19 13  2  0  0  0  0
 20 11  2  0  0  0  0
 20 10  1  0  0  0  0
 21  1  1  0  0  0  0
 22 21  1  6  0  0  0
 22 25  1  0  0  0  0
 23 27  1  0  0  0  0
 23 26  1  0  0  0  0
 24 28  1  0  0  0  0
 24 22  1  0  0  0  0
 25 26  1  0  0  0  0
 28 23  2  0  0  0  0
M  END
>  <MODEL>
8

>  <REMARK>
 VINA RESULT:      -8.0      2.281      6.193
  Name = 
  2 active torsions:
  status: ('A' for Active; 'I' for Inactive)
    1  A    between atoms: N_1  and  C_2
    2  A    between atoms: C_2  and  C_3
                            x       y       z     vdW  Elec       q    Type
                         _______ _______ _______ _____ _____    ______ ____

>  <TORSDO>
F 2

$$$$
=
 OpenBabel11052418113D

 28 32  0  0  1  0  0  0  0  0999 V2000
  187.7230  177.8260  146.5040 N   0  0  0  0  0  0  0  0  0  0  0  0
  187.2210  177.1640  141.4880 C   0  0  0  0  0  3  0  0  0  0  0  0
  183.1290  179.0760  145.5410 F   0  0  0  0  0  0  0  0  0  0  0  0
  184.9260  177.8000  141.0110 C   0  0  0  0  0  0  0  0  0  0  0  0
  185.7810  177.8920  143.2730 C   0  0  0  0  0  0  0  0  0  0  0  0
  186.3900  177.0630  139.2220 C   0  0  0  0  0  0  0  0  0  0  0  0
  185.9730  177.6240  141.9550 C   0  0  0  0  0  0  0  0  0  0  0  0
  183.3730  178.5640  142.7970 C   0  0  0  0  0  2  0  0  0  0  0  0
  185.1460  177.5170  139.6580 C   0  0  0  0  0  3  0  0  0  0  0  0
  185.3900  178.4540  146.0160 C   0  0  0  0  0  0  0  0  0  0  0  0
  186.8230  177.7190  144.2010 C   0  0  0  0  0  3  0  0  0  0  0  0
  183.7180  178.2320  141.3750 C   0  0  0  0  0  3  0  0  0  0  0  0
  186.2920  178.5170  148.3010 C   0  0  0  0  0  3  0  0  0  0  0  0
  184.3400  178.6350  145.1050 C   0  0  0  0  0  0  0  0  0  0  0  0
  185.2060  178.7080  147.3200 C   0  0  0  0  0  3  0  0  0  0  0  0
  186.6100  176.7670  137.7820 C   0  0  0  0  0  1  0  0  0  0  0  0
  187.4270  176.8850  140.1360 C   0  0  0  0  0  3  0  0  0  0  0  0
  184.5280  178.3580  143.7410 C   0  0  0  0  0  0  0  0  0  0  0  0
  187.4890  178.0920  147.8960 C   0  0  0  0  0  3  0  0  0  0  0  0
  186.6440  177.9980  145.5600 C   0  0  0  0  0  0  0  0  0  0  0  0
  189.0460  177.3630  146.0850 C   0  0  0  0  0  2  0  0  0  0  0  0
  189.0160  175.9460  145.5090 C   0  0  2  0  0  3  0  0  0  0  0  0
  189.7260  173.3490  144.5510 C   0  0  0  0  0  0  0  0  0  0  0  0
  189.6010  174.9290  146.4860 C   0  0  0  0  0  2  0  0  0  0  0  0
  189.7470  175.8550  144.1740 C   0  0  0  0  0  2  0  0  0  0  0  0
  189.5420  174.4720  143.5590 C   0  0  0  0  0  2  0  0  0  0  0  0
  189.7900  171.9510  144.0430 C   0  0  0  0  0  1  0  0  0  0  0  0
  189.6740  173.5530  145.8770 C   0  0  0  0  0  3  0  0  0  0  0  0
  1 19  1  0  0  0  0
  2  7  1  0  0  0  0
  4 12  2  0  0  0  0
  4  7  1  0  0  0  0
  5 18  1  0  0  0  0
  5 11  1  0  0  0  0
  6  9  2  0  0  0  0
  6 17  1  0  0  0  0
  7  5  2  0  0  0  0
  8 18  1  0  0  0  0
  9  4  1  0  0  0  0
 10 15  2  0  0  0  0
 11 20  2  0  0  0  0
 12  8  1  0  0  0  0
 14  3  1  0  0  0  0
 14 10  1  0  0  0  0
 15 13  1  0  0  0  0
 16  6  1  0  0  0  0
 17  2  2  0  0  0  0
 18 14  2  0  0  0  0
 19 13  2  0  0  0  0
 20 10  1  0  0  0  0
 20  1  1  0  0  0  0
 21  1  1  0  0  0  0
 22 21  1  1  0  0  0
 22 24  1  0  0  0  0
 23 28  2  0  0  0  0
 25 22  1  0  0  0  0
 26 25  1  0  0  0  0
 26 23  1  0  0  0  0
 27 23  1  0  0  0  0
 28 24  1  0  0  0  0
M  END
>  <MODEL>
9

>  <REMARK>
 VINA RESULT:      -8.0      2.475      5.711
  Name = 
  2 active torsions:
  status: ('A' for Active; 'I' for Inactive)
    1  A    between atoms: N_1  and  C_2
    2  A    between atoms: C_2  and  C_3
                            x       y       z     vdW  Elec       q    Type
                         _______ _______ _______ _____ _____    ______ ____

>  <TORSDO>
F 2

$$$$
