=
 OpenBabel11052419513D

 55 57  0  0  1  0  0  0  0  0999 V2000
  189.6560  177.8890  144.5650 O   0  0  0  0  0  0  0  0  0  0  0  0
  192.2210  173.9050  143.8740 O   0  0  0  0  0  1  0  0  0  0  0  0
  191.2380  175.0280  143.6320 P   0  0  2  0  0  0  0  0  0  0  0  0
  190.8420  175.8750  145.1990 C   0  0  1  0  0  3  0  0  0  0  0  0
  188.3610  175.8600  144.3210 C   0  0  2  0  0  3  0  0  0  0  0  0
  189.7990  174.4060  142.9760 O   0  0  0  0  0  0  0  0  0  0  0  0
  189.3440  177.8180  145.9370 C   0  0  2  0  0  3  0  0  0  0  0  0
  191.9180  176.1460  142.5610 O   0  0  0  0  0  0  0  0  0  0  0  0
  189.4880  176.5900  145.0930 C   0  0  2  0  0  0  0  0  0  0  0  0
  188.9150  175.4990  142.9310 C   0  0  1  0  0  3  0  0  0  0  0  0
  188.0080  178.1660  146.1540 O   0  0  0  0  0  1  0  0  0  0  0  0
  189.6310  174.5570  147.0320 C   0  0  0  0  0  1  0  0  0  0  0  0
  190.9710  174.9330  146.4110 C   0  0  2  0  0  3  0  0  0  0  0  0
  191.9860  175.3700  147.4820 C   0  0  2  0  0  3  0  0  0  0  0  0
  191.5850  177.2040  148.5360 O   0  0  0  0  0  1  0  0  0  0  0  0
  191.3430  175.9100  148.6060 O   0  0  0  0  0  0  0  0  0  0  0  0
  192.9720  176.3920  146.9330 C   0  0  0  0  0  2  0  0  0  0  0  0
  194.2510  175.7550  146.4310 C   0  0  0  0  0  2  0  0  0  0  0  0
  194.6190  176.2790  145.0470 C   0  0  0  0  0  2  0  0  0  0  0  0
  195.9860  175.7640  144.5780 C   0  0  2  0  0  3  0  0  0  0  0  0
  196.5360  176.5800  143.5880 O   0  0  0  0  0  1  0  0  0  0  0  0
  195.9990  174.2910  144.1400 C   0  0  2  0  0  3  0  0  0  0  0  0
  196.3690  173.2470  145.2070 C   0  0  0  0  0  2  0  0  0  0  0  0
  197.5930  171.2070  144.9930 O   0  0  0  0  0  1  0  0  0  0  0  0
  196.3830  171.8140  144.6740 C   0  0  1  0  0  3  0  0  0  0  0  0
  195.4800  170.0440  146.2640 N   0  0  0  0  0  1  0  0  0  0  0  0
  195.2440  171.0290  145.2560 C   0  0  0  0  0  0  0  0  0  0  0  0
  194.0760  171.2030  144.8210 O   0  0  0  0  0  0  0  0  0  0  0  0
  196.6460  174.0510  142.8870 O   0  0  0  0  0  0  0  0  0  0  0  0
  195.9650  173.7760  141.6960 C   0  0  0  0  0  0  0  0  0  0  0  0
  196.4680  172.9880  140.8530 O   0  0  0  0  0  0  0  0  0  0  0  0
  194.7070  174.5030  141.3720 C   0  0  0  0  0  2  0  0  0  0  0  0
  195.0260  175.7370  140.6730 N   0  0  0  0  0  1  0  0  0  0  0  0
  186.3160  176.0150  144.9550 O   0  0  0  0  0  1  0  0  0  0  0  0
  187.2020  176.6370  144.2080 O   0  0  0  0  0  0  0  0  0  0  0  0
  187.8470  175.3770  141.8360 C   0  0  2  0  0  3  0  0  0  0  0  0
  187.9700  174.1330  141.0850 N   0  0  0  0  0  2  0  0  0  0  0  0
  188.0750  174.3340  138.5960 C   0  0  0  0  0  3  0  0  0  0  0  0
  189.9340  173.2930  137.4950 N   0  0  0  0  0  0  0  0  0  0  0  0
  190.0050  173.6270  139.9190 C   0  0  0  0  0  3  0  0  0  0  0  0
  190.8120  173.5090  138.6530 C   0  0  0  0  0  2  0  0  0  0  0  0
  188.6510  173.9350  137.4580 C   0  0  0  0  0  3  0  0  0  0  0  0
  188.7440  174.0800  139.8900 C   0  0  0  0  0  0  0  0  0  0  0  0
  190.4380  172.6730  136.2750 C   0  0  2  0  0  3  0  0  0  0  0  0
  189.6500  173.1490  135.0630 C   0  0  0  0  0  1  0  0  0  0  0  0
  190.3510  171.2250  136.3830 N   0  0  0  0  0  1  0  0  0  0  0  0
  187.8930  176.5630  140.8700 C   0  0  0  0  0  2  0  0  0  0  0  0
  186.2130  177.4690  139.4300 O   0  0  0  0  0  0  0  0  0  0  0  0
  186.5400  177.1400  140.6050 C   0  0  0  0  0  0  0  0  0  0  0  0
  185.6430  177.2660  141.6680 O   0  0  0  0  0  0  0  0  0  0  0  0
  185.0560  178.5070  142.0460 C   0  0  1  0  0  3  0  0  0  0  0  0
  183.6160  178.2690  142.4550 C   0  0  0  0  0  1  0  0  0  0  0  0
  185.8300  179.1400  143.2030 C   0  0  0  0  0  2  0  0  0  0  0  0
  184.7970  179.2340  145.4340 C   0  0  0  0  0  2  0  0  0  0  0  0
  184.8960  179.7410  144.2070 C   0  0  0  0  0  3  0  0  0  0  0  0
  1  7  1  0  0  0  0
  3  8  2  6  0  0  0
  3  2  1  0  0  0  0
  3  4  1  0  0  0  0
  4 13  1  1  0  0  0
  5 35  1  6  0  0  0
  5  9  1  0  0  0  0
  6  3  1  0  0  0  0
  7 11  1  6  0  0  0
  9  1  1  6  0  0  0
  9  4  1  0  0  0  0
  9  7  1  0  0  0  0
 10 36  1  6  0  0  0
 10  6  1  0  0  0  0
 10  5  1  0  0  0  0
 13 12  1  1  0  0  0
 13 14  1  0  0  0  0
 14 17  1  6  0  0  0
 14 16  1  0  0  0  0
 15 16  1  0  0  0  0
 18 17  1  0  0  0  0
 19 18  1  0  0  0  0
 20 21  1  6  0  0  0
 20 19  1  0  0  0  0
 22 20  1  0  0  0  0
 22 23  1  1  0  0  0
 25 24  1  1  0  0  0
 25 23  1  0  0  0  0
 25 27  1  0  0  0  0
 27 26  1  0  0  0  0
 28 27  2  0  0  0  0
 29 22  1  0  0  0  0
 30 29  1  0  0  0  0
 31 30  2  0  0  0  0
 32 30  1  0  0  0  0
 33 32  1  0  0  0  0
 35 34  1  0  0  0  0
 36 47  1  6  0  0  0
 37 36  1  0  0  0  0
 38 43  1  0  0  0  0
 39 41  1  0  0  0  0
 41 40  1  0  0  0  0
 42 39  1  0  0  0  0
 42 38  2  0  0  0  0
 43 40  2  0  0  0  0
 43 37  1  0  0  0  0
 44 45  1  6  0  0  0
 44 46  1  0  0  0  0
 44 39  1  0  0  0  0
 48 49  2  0  0  0  0
 49 47  1  0  0  0  0
 49 50  1  0  0  0  0
 50 51  1  0  0  0  0
 51 52  1  1  0  0  0
 51 53  1  0  0  0  0
 53 55  1  0  0  0  0
 55 54  2  0  0  0  0
M  END
>  <MODEL>
1

>  <REMARK>
 VINA RESULT:      -5.8      0.000      0.000
  Name = 
  25 active torsions:
  status: ('A' for Active; 'I' for Inactive)
    1  A    between atoms: C_1  and  C_30
    2  A    between atoms: C_1  and  C_53
    3  A    between atoms: O_6  and  C_14
    4  A    between atoms: O_6  and  C_53
    5  A    between atoms: C_7  and  C_8
    6  A    between atoms: C_7  and  C_23
    7  A    between atoms: C_7  and  O_43
    8  A    between atoms: C_8  and  C_20
    9  A    between atoms: C_10  and  N_32
   10  A    between atoms: C_11  and  C_29
   11  A    between atoms: C_11  and  C_38
   12  A    between atoms: C_12  and  C_14
   13  A    between atoms: C_17  and  C_23
   14  A    between atoms: C_19  and  O_40
   15  A    between atoms: C_20  and  C_30
   16  A    between atoms: C_27  and  O_31
   17  A    between atoms: C_27  and  C_55
   18  A    between atoms: C_28  and  C_44
   19  A    between atoms: C_28  and  C_49
   20  A    between atoms: O_31  and  C_44
   21  A    between atoms: N_33  and  C_49
   22  A    between atoms: N_33  and  C_52
   23  A    between atoms: C_38  and  C_53
   24  A    between atoms: C_41  and  C_55
   25  A    between atoms: C_45  and  C_49
                            x       y       z     vdW  Elec       q    Type
                         _______ _______ _______ _____ _____    ______ ____

>  <TORSDO>
F 25

$$$$
=
 OpenBabel11052419513D

 55 57  0  0  1  0  0  0  0  0999 V2000
  189.7230  177.7990  144.3900 O   0  0  0  0  0  0  0  0  0  0  0  0
  192.1620  173.7360  143.7080 O   0  0  0  0  0  1  0  0  0  0  0  0
  191.2100  174.8850  143.4660 P   0  0  2  0  0  0  0  0  0  0  0  0
  190.8570  175.7570  145.0300 C   0  0  1  0  0  3  0  0  0  0  0  0
  188.3670  175.8070  144.1800 C   0  0  2  0  0  3  0  0  0  0  0  0
  189.7460  174.2990  142.8320 O   0  0  0  0  0  0  0  0  0  0  0  0
  189.4240  177.7490  145.7660 C   0  0  2  0  0  3  0  0  0  0  0  0
  191.9110  175.9730  142.3780 O   0  0  0  0  0  0  0  0  0  0  0  0
  189.5230  176.5100  144.9320 C   0  0  2  0  0  0  0  0  0  0  0  0
  188.8950  175.4180  142.7870 C   0  0  1  0  0  3  0  0  0  0  0  0
  188.1020  178.1380  145.9950 O   0  0  0  0  0  1  0  0  0  0  0  0
  189.6260  174.4740  146.8750 C   0  0  0  0  0  1  0  0  0  0  0  0
  190.9720  174.8230  146.2490 C   0  0  2  0  0  3  0  0  0  0  0  0
  191.9960  175.2500  147.3150 C   0  0  2  0  0  3  0  0  0  0  0  0
  191.5050  177.0350  148.4140 O   0  0  0  0  0  1  0  0  0  0  0  0
  191.3620  175.7260  148.4720 O   0  0  0  0  0  0  0  0  0  0  0  0
  192.9370  176.3240  146.7860 C   0  0  0  0  0  2  0  0  0  0  0  0
  194.2100  175.7450  146.2030 C   0  0  0  0  0  2  0  0  0  0  0  0
  194.5220  176.3620  144.8440 C   0  0  0  0  0  2  0  0  0  0  0  0
  195.8800  175.9030  144.2990 C   0  0  2  0  0  3  0  0  0  0  0  0
  196.6030  176.9630  143.7480 O   0  0  0  0  0  1  0  0  0  0  0  0
  195.8100  174.7230  143.3150 C   0  0  2  0  0  3  0  0  0  0  0  0
  195.2370  175.0120  141.9170 C   0  0  0  0  0  2  0  0  0  0  0  0
  193.6900  173.7380  140.6180 O   0  0  0  0  0  1  0  0  0  0  0  0
  195.0000  173.7500  141.0880 C   0  0  1  0  0  3  0  0  0  0  0  0
  195.5230  173.9870  138.6090 N   0  0  0  0  0  1  0  0  0  0  0  0
  195.9600  173.6930  139.9370 C   0  0  0  0  0  0  0  0  0  0  0  0
  197.1510  173.3360  140.1320 O   0  0  0  0  0  0  0  0  0  0  0  0
  195.3040  173.5110  143.8790 O   0  0  0  0  0  0  0  0  0  0  0  0
  196.1110  172.4910  144.3940 C   0  0  0  0  0  0  0  0  0  0  0  0
  195.7280  171.2940  144.3310 O   0  0  0  0  0  0  0  0  0  0  0  0
  197.3650  172.8300  145.1220 C   0  0  0  0  0  2  0  0  0  0  0  0
  197.0360  173.3950  146.4200 N   0  0  0  0  0  1  0  0  0  0  0  0
  186.3200  176.0020  144.7960 O   0  0  0  0  0  1  0  0  0  0  0  0
  187.2290  176.6160  144.0720 O   0  0  0  0  0  0  0  0  0  0  0  0
  187.8110  175.3180  141.7050 C   0  0  2  0  0  3  0  0  0  0  0  0
  187.9320  174.0950  140.9180 N   0  0  0  0  0  2  0  0  0  0  0  0
  188.0960  174.3190  138.4330 C   0  0  0  0  0  3  0  0  0  0  0  0
  190.0010  173.3210  137.3720 N   0  0  0  0  0  0  0  0  0  0  0  0
  190.0050  173.6370  139.8000 C   0  0  0  0  0  3  0  0  0  0  0  0
  190.8450  173.5440  138.5540 C   0  0  0  0  0  2  0  0  0  0  0  0
  188.7070  173.9390  137.3070 C   0  0  0  0  0  3  0  0  0  0  0  0
  188.7370  174.0660  139.7420 C   0  0  0  0  0  0  0  0  0  0  0  0
  190.5460  172.7210  136.1600 C   0  0  2  0  0  3  0  0  0  0  0  0
  191.4400  173.7080  135.4230 C   0  0  0  0  0  1  0  0  0  0  0  0
  189.4630  172.2900  135.2900 N   0  0  0  0  0  1  0  0  0  0  0  0
  187.8330  176.5300  140.7720 C   0  0  0  0  0  2  0  0  0  0  0  0
  186.0970  177.4250  139.3920 O   0  0  0  0  0  0  0  0  0  0  0  0
  186.4740  177.1140  140.5570 C   0  0  0  0  0  0  0  0  0  0  0  0
  185.6260  177.2650  141.6570 O   0  0  0  0  0  0  0  0  0  0  0  0
  185.0040  178.5010  141.9930 C   0  0  1  0  0  3  0  0  0  0  0  0
  183.5750  178.2340  142.4210 C   0  0  0  0  0  1  0  0  0  0  0  0
  185.7650  179.2010  143.1190 C   0  0  0  0  0  2  0  0  0  0  0  0
  184.9940  179.2240  145.4550 C   0  0  0  0  0  2  0  0  0  0  0  0
  184.8310  179.6440  144.2020 C   0  0  0  0  0  3  0  0  0  0  0  0
  1  7  1  0  0  0  0
  3  8  2  6  0  0  0
  3  2  1  0  0  0  0
  3  4  1  0  0  0  0
  4 13  1  1  0  0  0
  5 35  1  6  0  0  0
  5  9  1  0  0  0  0
  6  3  1  0  0  0  0
  7 11  1  6  0  0  0
  9  1  1  6  0  0  0
  9  4  1  0  0  0  0
  9  7  1  0  0  0  0
 10 36  1  6  0  0  0
 10  6  1  0  0  0  0
 10  5  1  0  0  0  0
 13 12  1  1  0  0  0
 13 14  1  0  0  0  0
 14 17  1  6  0  0  0
 14 16  1  0  0  0  0
 15 16  1  0  0  0  0
 18 17  1  0  0  0  0
 19 18  1  0  0  0  0
 20 21  1  6  0  0  0
 20 19  1  0  0  0  0
 22 23  1  6  0  0  0
 22 29  1  0  0  0  0
 22 20  1  0  0  0  0
 25 24  1  6  0  0  0
 25 23  1  0  0  0  0
 26 27  1  0  0  0  0
 27 28  2  0  0  0  0
 27 25  1  0  0  0  0
 29 30  1  0  0  0  0
 30 32  1  0  0  0  0
 31 30  2  0  0  0  0
 32 33  1  0  0  0  0
 35 34  1  0  0  0  0
 36 47  1  6  0  0  0
 37 36  1  0  0  0  0
 38 43  1  0  0  0  0
 39 41  1  0  0  0  0
 41 40  1  0  0  0  0
 42 39  1  0  0  0  0
 42 38  2  0  0  0  0
 43 40  2  0  0  0  0
 43 37  1  0  0  0  0
 44 45  1  6  0  0  0
 44 39  1  0  0  0  0
 46 44  1  0  0  0  0
 48 49  2  0  0  0  0
 49 47  1  0  0  0  0
 49 50  1  0  0  0  0
 50 51  1  0  0  0  0
 51 52  1  1  0  0  0
 51 53  1  0  0  0  0
 53 55  1  0  0  0  0
 55 54  2  0  0  0  0
M  END
>  <MODEL>
2

>  <REMARK>
 VINA RESULT:      -5.8      0.967      2.426
  Name = 
  25 active torsions:
  status: ('A' for Active; 'I' for Inactive)
    1  A    between atoms: C_1  and  C_30
    2  A    between atoms: C_1  and  C_53
    3  A    between atoms: O_6  and  C_14
    4  A    between atoms: O_6  and  C_53
    5  A    between atoms: C_7  and  C_8
    6  A    between atoms: C_7  and  C_23
    7  A    between atoms: C_7  and  O_43
    8  A    between atoms: C_8  and  C_20
    9  A    between atoms: C_10  and  N_32
   10  A    between atoms: C_11  and  C_29
   11  A    between atoms: C_11  and  C_38
   12  A    between atoms: C_12  and  C_14
   13  A    between atoms: C_17  and  C_23
   14  A    between atoms: C_19  and  O_40
   15  A    between atoms: C_20  and  C_30
   16  A    between atoms: C_27  and  O_31
   17  A    between atoms: C_27  and  C_55
   18  A    between atoms: C_28  and  C_44
   19  A    between atoms: C_28  and  C_49
   20  A    between atoms: O_31  and  C_44
   21  A    between atoms: N_33  and  C_49
   22  A    between atoms: N_33  and  C_52
   23  A    between atoms: C_38  and  C_53
   24  A    between atoms: C_41  and  C_55
   25  A    between atoms: C_45  and  C_49
                            x       y       z     vdW  Elec       q    Type
                         _______ _______ _______ _____ _____    ______ ____

>  <TORSDO>
F 25

$$$$
=
 OpenBabel11052419513D

 55 57  0  0  1  0  0  0  0  0999 V2000
  192.9940  175.8920  142.3680 O   0  0  0  0  0  0  0  0  0  0  0  0
  194.0380  176.1570  147.0340 O   0  0  0  0  0  1  0  0  0  0  0  0
  194.2130  175.9980  145.5410 P   0  0  2  0  0  0  0  0  0  0  0  0
  192.6070  175.6520  144.7470 C   0  0  1  0  0  3  0  0  0  0  0  0
  193.9410  173.8830  143.3280 C   0  0  2  0  0  3  0  0  0  0  0  0
  195.2650  174.7040  145.2160 O   0  0  0  0  0  0  0  0  0  0  0  0
  191.7640  175.2050  142.3690 C   0  0  2  0  0  3  0  0  0  0  0  0
  194.8470  177.4260  144.8950 O   0  0  0  0  0  0  0  0  0  0  0  0
  192.8170  174.9440  143.4010 C   0  0  2  0  0  0  0  0  0  0  0  0
  195.2380  174.5520  143.8180 C   0  0  1  0  0  3  0  0  0  0  0  0
  191.7440  174.2340  141.3650 O   0  0  0  0  0  1  0  0  0  0  0  0
  190.7830  173.8710  145.0110 C   0  0  0  0  0  1  0  0  0  0  0  0
  191.6370  174.9290  145.7000 C   0  0  2  0  0  3  0  0  0  0  0  0
  190.7850  175.8450  146.5970 C   0  0  2  0  0  3  0  0  0  0  0  0
  191.4350  175.1350  148.5230 O   0  0  0  0  0  1  0  0  0  0  0  0
  190.3630  175.1770  147.7560 O   0  0  0  0  0  0  0  0  0  0  0  0
  189.5650  176.3740  145.8550 C   0  0  0  0  0  2  0  0  0  0  0  0
  189.9020  177.5250  144.9290 C   0  0  0  0  0  2  0  0  0  0  0  0
  188.9070  177.6120  143.7760 C   0  0  0  0  0  2  0  0  0  0  0  0
  187.9240  176.4340  143.7710 C   0  0  2  0  0  3  0  0  0  0  0  0
  188.0500  175.6580  142.6180 O   0  0  0  0  0  1  0  0  0  0  0  0
  186.4550  176.8250  144.0070 C   0  0  2  0  0  3  0  0  0  0  0  0
  185.5410  176.8840  142.7720 C   0  0  0  0  0  2  0  0  0  0  0  0
  185.9640  179.0810  141.9360 O   0  0  0  0  0  1  0  0  0  0  0  0
  184.9780  178.2800  142.5020 C   0  0  1  0  0  3  0  0  0  0  0  0
  183.9680  177.9500  140.1890 N   0  0  0  0  0  1  0  0  0  0  0  0
  183.7930  178.1970  141.5860 C   0  0  0  0  0  0  0  0  0  0  0  0
  182.6350  178.3940  142.0390 O   0  0  0  0  0  0  0  0  0  0  0  0
  186.2720  177.9400  144.8820 O   0  0  0  0  0  0  0  0  0  0  0  0
  185.2750  178.0110  145.8610 C   0  0  0  0  0  0  0  0  0  0  0  0
  184.5130  179.0110  145.9100 O   0  0  0  0  0  0  0  0  0  0  0  0
  185.1920  176.9640  146.9160 C   0  0  0  0  0  2  0  0  0  0  0  0
  186.4620  176.8800  147.6180 N   0  0  0  0  0  1  0  0  0  0  0  0
  193.7820  172.0980  142.1460 O   0  0  0  0  0  1  0  0  0  0  0  0
  194.1050  173.3670  142.0360 O   0  0  0  0  0  0  0  0  0  0  0  0
  196.5230  173.9400  143.2440 C   0  0  2  0  0  3  0  0  0  0  0  0
  197.3120  173.2620  144.2660 N   0  0  0  0  0  2  0  0  0  0  0  0
  196.6420  170.9560  143.5710 C   0  0  0  0  0  3  0  0  0  0  0  0
  195.7520  169.5200  145.2730 N   0  0  0  0  0  0  0  0  0  0  0  0
  196.9260  171.5680  145.9210 C   0  0  0  0  0  3  0  0  0  0  0  0
  196.5640  170.1610  146.3170 C   0  0  0  0  0  2  0  0  0  0  0  0
  196.0150  169.8210  143.8950 C   0  0  0  0  0  3  0  0  0  0  0  0
  197.0260  171.9140  144.6300 C   0  0  0  0  0  0  0  0  0  0  0  0
  194.8800  168.3930  145.5850 C   0  0  2  0  0  3  0  0  0  0  0  0
  193.6560  168.3900  144.6800 C   0  0  0  0  0  1  0  0  0  0  0  0
  194.4650  168.4580  146.9770 N   0  0  0  0  0  1  0  0  0  0  0  0
  197.3860  174.9930  142.5470 C   0  0  0  0  0  2  0  0  0  0  0  0
  196.0040  176.3020  141.1010 O   0  0  0  0  0  0  0  0  0  0  0  0
  196.8550  175.3740  141.2030 C   0  0  0  0  0  0  0  0  0  0  0  0
  197.3470  174.7140  140.0750 O   0  0  0  0  0  0  0  0  0  0  0  0
  196.8210  174.9160  138.7670 C   0  0  1  0  0  3  0  0  0  0  0  0
  197.9410  175.3580  137.8470 C   0  0  0  0  0  1  0  0  0  0  0  0
  196.1840  173.6310  138.2360 C   0  0  0  0  0  2  0  0  0  0  0  0
  196.6020  171.3020  138.9120 C   0  0  0  0  0  2  0  0  0  0  0  0
  196.2510  172.5380  139.2590 C   0  0  0  0  0  3  0  0  0  0  0  0
  1  7  1  0  0  0  0
  3  8  2  6  0  0  0
  3  2  1  0  0  0  0
  4  3  1  0  0  0  0
  4 13  1  1  0  0  0
  5 35  1  6  0  0  0
  5  9  1  0  0  0  0
  5 10  1  0  0  0  0
  6  3  1  0  0  0  0
  7 11  1  6  0  0  0
  7  9  1  0  0  0  0
  9  1  1  6  0  0  0
  9  4  1  0  0  0  0
 10 36  1  1  0  0  0
 10  6  1  0  0  0  0
 13 12  1  6  0  0  0
 13 14  1  0  0  0  0
 14 17  1  6  0  0  0
 14 16  1  0  0  0  0
 16 15  1  0  0  0  0
 18 17  1  0  0  0  0
 19 18  1  0  0  0  0
 20 21  1  6  0  0  0
 20 19  1  0  0  0  0
 20 22  1  0  0  0  0
 22 23  1  6  0  0  0
 22 29  1  0  0  0  0
 25 24  1  6  0  0  0
 25 23  1  0  0  0  0
 26 27  1  0  0  0  0
 27 28  2  0  0  0  0
 27 25  1  0  0  0  0
 29 30  1  0  0  0  0
 30 31  2  0  0  0  0
 30 32  1  0  0  0  0
 32 33  1  0  0  0  0
 35 34  1  0  0  0  0
 36 47  1  1  0  0  0
 36 37  1  0  0  0  0
 37 43  1  0  0  0  0
 38 42  2  0  0  0  0
 38 43  1  0  0  0  0
 39 44  1  0  0  0  0
 39 41  1  0  0  0  0
 40 41  1  0  0  0  0
 42 39  1  0  0  0  0
 43 40  2  0  0  0  0
 44 45  1  6  0  0  0
 44 46  1  0  0  0  0
 48 49  2  0  0  0  0
 49 47  1  0  0  0  0
 50 49  1  0  0  0  0
 51 52  1  6  0  0  0
 51 50  1  0  0  0  0
 53 51  1  0  0  0  0
 53 55  1  0  0  0  0
 54 55  2  0  0  0  0
M  END
>  <MODEL>
3

>  <REMARK>
 VINA RESULT:      -5.7      3.323      9.783
  Name = 
  25 active torsions:
  status: ('A' for Active; 'I' for Inactive)
    1  A    between atoms: C_1  and  C_30
    2  A    between atoms: C_1  and  C_53
    3  A    between atoms: O_6  and  C_14
    4  A    between atoms: O_6  and  C_53
    5  A    between atoms: C_7  and  C_8
    6  A    between atoms: C_7  and  C_23
    7  A    between atoms: C_7  and  O_43
    8  A    between atoms: C_8  and  C_20
    9  A    between atoms: C_10  and  N_32
   10  A    between atoms: C_11  and  C_29
   11  A    between atoms: C_11  and  C_38
   12  A    between atoms: C_12  and  C_14
   13  A    between atoms: C_17  and  C_23
   14  A    between atoms: C_19  and  O_40
   15  A    between atoms: C_20  and  C_30
   16  A    between atoms: C_27  and  O_31
   17  A    between atoms: C_27  and  C_55
   18  A    between atoms: C_28  and  C_44
   19  A    between atoms: C_28  and  C_49
   20  A    between atoms: O_31  and  C_44
   21  A    between atoms: N_33  and  C_49
   22  A    between atoms: N_33  and  C_52
   23  A    between atoms: C_38  and  C_53
   24  A    between atoms: C_41  and  C_55
   25  A    between atoms: C_45  and  C_49
                            x       y       z     vdW  Elec       q    Type
                         _______ _______ _______ _____ _____    ______ ____

>  <TORSDO>
F 25

$$$$
=
 OpenBabel11052419513D

 55 57  0  0  1  0  0  0  0  0999 V2000
  195.3530  175.1290  145.1220 O   0  0  0  0  0  0  0  0  0  0  0  0
  191.1010  172.9610  144.7430 O   0  0  0  0  0  0  0  0  0  0  0  0
  192.5630  173.2780  144.5300 P   0  0  2  0  0  0  0  0  0  0  0  0
  192.9360  174.9700  145.1020 C   0  0  1  0  0  3  0  0  0  0  0  0
  194.3780  175.1540  142.9080 C   0  0  2  0  0  3  0  0  0  0  0  0
  192.9440  173.1700  142.8770 O   0  0  0  0  0  0  0  0  0  0  0  0
  194.9970  176.4900  145.1970 C   0  0  2  0  0  3  0  0  0  0  0  0
  193.5070  172.1830  145.4070 O   0  0  0  0  0  1  0  0  0  0  0  0
  194.1950  175.5050  144.4050 C   0  0  2  0  0  0  0  0  0  0  0  0
  194.2710  173.6240  142.7780 C   0  0  1  0  0  3  0  0  0  0  0  0
  195.8410  177.2630  144.3950 O   0  0  0  0  0  1  0  0  0  0  0  0
  191.8840  177.0210  143.9840 C   0  0  0  0  0  1  0  0  0  0  0  0
  191.7100  175.8970  144.9980 C   0  0  2  0  0  3  0  0  0  0  0  0
  191.1650  176.4240  146.3370 C   0  0  2  0  0  3  0  0  0  0  0  0
  191.3440  175.2700  148.1460 O   0  0  0  0  0  1  0  0  0  0  0  0
  192.0280  176.1140  147.3980 O   0  0  0  0  0  0  0  0  0  0  0  0
  189.7830  175.8590  146.6370 C   0  0  0  0  0  2  0  0  0  0  0  0
  188.7240  176.9380  146.7400 C   0  0  0  0  0  2  0  0  0  0  0  0
  188.3460  177.4690  145.3610 C   0  0  0  0  0  2  0  0  0  0  0  0
  186.8780  177.1900  145.0170 C   0  0  2  0  0  3  0  0  0  0  0  0
  186.2350  176.4730  146.0280 O   0  0  0  0  0  1  0  0  0  0  0  0
  186.6570  176.5200  143.6500 C   0  0  2  0  0  3  0  0  0  0  0  0
  187.8320  175.7190  143.0660 C   0  0  0  0  0  2  0  0  0  0  0  0
  188.0680  176.0340  140.7110 O   0  0  0  0  0  1  0  0  0  0  0  0
  187.5530  175.1660  141.6680 C   0  0  1  0  0  3  0  0  0  0  0  0
  188.5860  173.0620  142.6580 N   0  0  0  0  0  1  0  0  0  0  0  0
  188.1660  173.8060  141.5120 C   0  0  0  0  0  0  0  0  0  0  0  0
  188.3570  173.3330  140.3620 O   0  0  0  0  0  0  0  0  0  0  0  0
  186.0210  177.3540  142.6780 O   0  0  0  0  0  0  0  0  0  0  0  0
  185.2720  178.4930  142.9940 C   0  0  0  0  0  0  0  0  0  0  0  0
  185.8560  179.5510  143.3440 O   0  0  0  0  0  0  0  0  0  0  0  0
  183.7850  178.4190  143.0310 C   0  0  0  0  0  2  0  0  0  0  0  0
  183.2800  178.1310  141.6990 N   0  0  0  0  0  1  0  0  0  0  0  0
  195.2620  176.5370  141.5250 O   0  0  0  0  0  1  0  0  0  0  0  0
  195.5980  175.6130  142.3970 O   0  0  0  0  0  0  0  0  0  0  0  0
  195.0300  173.0360  141.5800 C   0  0  2  0  0  3  0  0  0  0  0  0
  194.1270  172.5480  140.5440 N   0  0  0  0  0  2  0  0  0  0  0  0
  194.2200  174.5560  139.0580 C   0  0  0  0  0  3  0  0  0  0  0  0
  193.5280  174.2590  136.7810 N   0  0  0  0  0  0  0  0  0  0  0  0
  193.9920  172.2920  138.1630 C   0  0  0  0  0  3  0  0  0  0  0  0
  193.9780  172.8600  136.7680 C   0  0  0  0  0  2  0  0  0  0  0  0
  193.8900  175.1030  137.8840 C   0  0  0  0  0  3  0  0  0  0  0  0
  194.1730  173.0870  139.2260 C   0  0  0  0  0  0  0  0  0  0  0  0
  192.9640  174.8790  135.5870 C   0  0  2  0  0  3  0  0  0  0  0  0
  193.8840  175.9700  135.0590 C   0  0  0  0  0  1  0  0  0  0  0  0
  191.6570  175.4390  135.8900 N   0  0  0  0  0  1  0  0  0  0  0  0
  195.9720  171.9100  142.0080 C   0  0  0  0  0  2  0  0  0  0  0  0
  197.6210  173.1230  143.2440 O   0  0  0  0  0  0  0  0  0  0  0  0
  196.7230  172.2340  143.2590 C   0  0  0  0  0  0  0  0  0  0  0  0
  196.3840  171.5670  144.4380 O   0  0  0  0  0  0  0  0  0  0  0  0
  196.4870  170.1550  144.5890 C   0  0  1  0  0  3  0  0  0  0  0  0
  197.9410  169.7490  144.4580 C   0  0  0  0  0  1  0  0  0  0  0  0
  195.9420  169.7160  145.9490 C   0  0  0  0  0  2  0  0  0  0  0  0
  196.9310  168.4880  147.8370 C   0  0  0  0  0  2  0  0  0  0  0  0
  197.0580  169.4300  146.9060 C   0  0  0  0  0  3  0  0  0  0  0  0
  1  7  1  0  0  0  0
  3  2  2  1  0  0  0
  3  4  1  0  0  0  0
  3  8  1  0  0  0  0
  4 13  1  6  0  0  0
  5 35  1  1  0  0  0
  5  9  1  0  0  0  0
  6  3  1  0  0  0  0
  7 11  1  6  0  0  0
  9  4  1  0  0  0  0
  9  1  1  1  0  0  0
  9  7  1  0  0  0  0
 10 36  1  6  0  0  0
 10  6  1  0  0  0  0
 10  5  1  0  0  0  0
 13 12  1  6  0  0  0
 13 14  1  0  0  0  0
 14 17  1  1  0  0  0
 14 16  1  0  0  0  0
 16 15  1  0  0  0  0
 17 18  1  0  0  0  0
 19 18  1  0  0  0  0
 20 19  1  0  0  0  0
 20 21  1  1  0  0  0
 22 23  1  6  0  0  0
 22 20  1  0  0  0  0
 25 24  1  6  0  0  0
 25 23  1  0  0  0  0
 27 25  1  0  0  0  0
 27 26  1  0  0  0  0
 28 27  2  0  0  0  0
 29 30  1  0  0  0  0
 29 22  1  0  0  0  0
 30 32  1  0  0  0  0
 30 31  2  0  0  0  0
 33 32  1  0  0  0  0
 34 35  1  0  0  0  0
 36 47  1  1  0  0  0
 37 36  1  0  0  0  0
 38 43  1  0  0  0  0
 39 42  1  0  0  0  0
 40 43  2  0  0  0  0
 41 39  1  0  0  0  0
 41 40  1  0  0  0  0
 42 38  2  0  0  0  0
 43 37  1  0  0  0  0
 44 45  1  1  0  0  0
 44 46  1  0  0  0  0
 44 39  1  0  0  0  0
 47 49  1  0  0  0  0
 48 49  2  0  0  0  0
 49 50  1  0  0  0  0
 50 51  1  0  0  0  0
 51 52  1  1  0  0  0
 51 53  1  0  0  0  0
 53 55  1  0  0  0  0
 55 54  2  0  0  0  0
M  END
>  <MODEL>
4

>  <REMARK>
 VINA RESULT:      -5.5      2.362      8.676
  Name = 
  25 active torsions:
  status: ('A' for Active; 'I' for Inactive)
    1  A    between atoms: C_1  and  C_30
    2  A    between atoms: C_1  and  C_53
    3  A    between atoms: O_6  and  C_14
    4  A    between atoms: O_6  and  C_53
    5  A    between atoms: C_7  and  C_8
    6  A    between atoms: C_7  and  C_23
    7  A    between atoms: C_7  and  O_43
    8  A    between atoms: C_8  and  C_20
    9  A    between atoms: C_10  and  N_32
   10  A    between atoms: C_11  and  C_29
   11  A    between atoms: C_11  and  C_38
   12  A    between atoms: C_12  and  C_14
   13  A    between atoms: C_17  and  C_23
   14  A    between atoms: C_19  and  O_40
   15  A    between atoms: C_20  and  C_30
   16  A    between atoms: C_27  and  O_31
   17  A    between atoms: C_27  and  C_55
   18  A    between atoms: C_28  and  C_44
   19  A    between atoms: C_28  and  C_49
   20  A    between atoms: O_31  and  C_44
   21  A    between atoms: N_33  and  C_49
   22  A    between atoms: N_33  and  C_52
   23  A    between atoms: C_38  and  C_53
   24  A    between atoms: C_41  and  C_55
   25  A    between atoms: C_45  and  C_49
                            x       y       z     vdW  Elec       q    Type
                         _______ _______ _______ _____ _____    ______ ____

>  <TORSDO>
F 25

$$$$
=
 OpenBabel11052419513D

 55 57  0  0  1  0  0  0  0  0999 V2000
  192.4940  174.5860  141.8940 O   0  0  0  0  0  0  0  0  0  0  0  0
  196.5200  176.7580  143.3090 O   0  0  0  0  0  1  0  0  0  0  0  0
  195.5620  175.9260  142.4870 P   0  0  2  0  0  0  0  0  0  0  0  0
  194.0900  175.4920  143.4740 C   0  0  1  0  0  3  0  0  0  0  0  0
  194.3420  173.1070  142.3910 C   0  0  2  0  0  3  0  0  0  0  0  0
  196.3230  174.4890  141.9910 O   0  0  0  0  0  0  0  0  0  0  0  0
  191.9360  174.1530  143.1130 C   0  0  2  0  0  3  0  0  0  0  0  0
  195.0710  176.8110  141.1320 O   0  0  0  0  0  0  0  0  0  0  0  0
  193.4160  174.2350  142.9050 C   0  0  2  0  0  0  0  0  0  0  0  0
  195.3100  173.7350  141.3720 C   0  0  1  0  0  3  0  0  0  0  0  0
  191.4490  172.8480  142.9920 O   0  0  0  0  0  1  0  0  0  0  0  0
  194.6720  173.9970  145.4730 C   0  0  0  0  0  1  0  0  0  0  0  0
  194.4080  175.4150  144.9790 C   0  0  2  0  0  3  0  0  0  0  0  0
  193.4260  176.1590  145.9010 C   0  0  2  0  0  3  0  0  0  0  0  0
  194.8440  177.7720  146.0520 O   0  0  0  0  0  1  0  0  0  0  0  0
  194.1040  176.9860  146.8090 O   0  0  0  0  0  0  0  0  0  0  0  0
  192.5430  175.1890  146.6750 C   0  0  0  0  0  2  0  0  0  0  0  0
  191.5210  175.8980  147.5400 C   0  0  0  0  0  2  0  0  0  0  0  0
  190.3350  176.3780  146.7080 C   0  0  0  0  0  2  0  0  0  0  0  0
  189.0150  175.7420  147.1620 C   0  0  2  0  0  3  0  0  0  0  0  0
  189.0600  174.3490  147.0920 O   0  0  0  0  0  1  0  0  0  0  0  0
  187.7650  176.2840  146.4490 C   0  0  2  0  0  3  0  0  0  0  0  0
  187.9880  177.3400  145.3540 C   0  0  0  0  0  2  0  0  0  0  0  0
  187.0310  177.9820  143.2620 O   0  0  0  0  0  1  0  0  0  0  0  0
  187.5150  176.8880  143.9720 C   0  0  1  0  0  3  0  0  0  0  0  0
  188.4890  174.9380  142.6580 N   0  0  0  0  0  1  0  0  0  0  0  0
  188.6420  176.2440  143.2190 C   0  0  0  0  0  0  0  0  0  0  0  0
  189.7480  176.8350  143.1200 O   0  0  0  0  0  0  0  0  0  0  0  0
  186.6820  176.6140  147.3220 O   0  0  0  0  0  0  0  0  0  0  0  0
  185.6600  177.5110  146.9940 C   0  0  0  0  0  0  0  0  0  0  0  0
  184.7220  177.1470  146.2400 O   0  0  0  0  0  0  0  0  0  0  0  0
  185.7440  178.9300  147.4410 C   0  0  0  0  0  2  0  0  0  0  0  0
  186.8880  179.0950  148.3210 N   0  0  0  0  0  1  0  0  0  0  0  0
  193.8840  171.0180  142.5830 O   0  0  0  0  0  1  0  0  0  0  0  0
  193.6270  172.0510  141.8120 O   0  0  0  0  0  0  0  0  0  0  0  0
  195.8380  172.7570  140.3130 C   0  0  2  0  0  3  0  0  0  0  0  0
  197.1690  172.2590  140.6410 N   0  0  0  0  0  2  0  0  0  0  0  0
  196.7790  169.8460  141.1670 C   0  0  0  0  0  3  0  0  0  0  0  0
  196.9410  169.1920  143.4680 N   0  0  0  0  0  0  0  0  0  0  0  0
  197.8190  171.3700  142.7720 C   0  0  0  0  0  3  0  0  0  0  0  0
  197.9410  170.2320  143.7510 C   0  0  0  0  0  2  0  0  0  0  0  0
  196.5800  168.9180  142.1070 C   0  0  0  0  0  3  0  0  0  0  0  0
  197.3350  171.1650  141.5390 C   0  0  0  0  0  0  0  0  0  0  0  0
  196.5150  168.2580  144.5030 C   0  0  2  0  0  3  0  0  0  0  0  0
  194.9970  168.1690  144.5600 C   0  0  0  0  0  1  0  0  0  0  0  0
  197.0340  168.6790  145.7950 N   0  0  0  0  0  1  0  0  0  0  0  0
  195.8580  173.3900  138.9210 C   0  0  0  0  0  2  0  0  0  0  0  0
  195.2260  172.7190  136.7150 O   0  0  0  0  0  0  0  0  0  0  0  0
  194.9720  172.6760  137.9520 C   0  0  0  0  0  0  0  0  0  0  0  0
  193.8960  171.9360  138.4450 O   0  0  0  0  0  0  0  0  0  0  0  0
  192.5590  172.1090  137.9860 C   0  0  1  0  0  3  0  0  0  0  0  0
  192.1470  170.8840  137.1940 C   0  0  0  0  0  1  0  0  0  0  0  0
  191.6060  172.3150  139.1640 C   0  0  0  0  0  2  0  0  0  0  0  0
  189.4680  173.5320  139.2280 C   0  0  0  0  0  2  0  0  0  0  0  0
  190.7740  173.5450  138.9700 C   0  0  0  0  0  3  0  0  0  0  0  0
  1  7  1  0  0  0  0
  3  8  2  6  0  0  0
  3  2  1  0  0  0  0
  3  4  1  0  0  0  0
  4 13  1  1  0  0  0
  5 35  1  6  0  0  0
  5  9  1  0  0  0  0
  6  3  1  0  0  0  0
  7 11  1  6  0  0  0
  9  1  1  6  0  0  0
  9  7  1  0  0  0  0
  9  4  1  0  0  0  0
 10 36  1  1  0  0  0
 10  6  1  0  0  0  0
 10  5  1  0  0  0  0
 13 12  1  1  0  0  0
 13 14  1  0  0  0  0
 14 17  1  1  0  0  0
 14 16  1  0  0  0  0
 15 16  1  0  0  0  0
 17 18  1  0  0  0  0
 19 20  1  0  0  0  0
 19 18  1  0  0  0  0
 20 21  1  6  0  0  0
 22 23  1  1  0  0  0
 22 20  1  0  0  0  0
 22 29  1  0  0  0  0
 25 24  1  6  0  0  0
 25 23  1  0  0  0  0
 26 27  1  0  0  0  0
 27 25  1  0  0  0  0
 28 27  2  0  0  0  0
 30 29  1  0  0  0  0
 30 32  1  0  0  0  0
 31 30  2  0  0  0  0
 32 33  1  0  0  0  0
 35 34  1  0  0  0  0
 36 47  1  6  0  0  0
 36 37  1  0  0  0  0
 37 43  1  0  0  0  0
 38 43  1  0  0  0  0
 38 42  2  0  0  0  0
 39 41  1  0  0  0  0
 39 44  1  0  0  0  0
 40 41  1  0  0  0  0
 42 39  1  0  0  0  0
 43 40  2  0  0  0  0
 44 45  1  1  0  0  0
 44 46  1  0  0  0  0
 48 49  2  0  0  0  0
 49 50  1  0  0  0  0
 49 47  1  0  0  0  0
 51 52  1  1  0  0  0
 51 50  1  0  0  0  0
 51 53  1  0  0  0  0
 55 53  1  0  0  0  0
 55 54  2  0  0  0  0
M  END
>  <MODEL>
5

>  <REMARK>
 VINA RESULT:      -5.4      2.720      8.727
  Name = 
  25 active torsions:
  status: ('A' for Active; 'I' for Inactive)
    1  A    between atoms: C_1  and  C_30
    2  A    between atoms: C_1  and  C_53
    3  A    between atoms: O_6  and  C_14
    4  A    between atoms: O_6  and  C_53
    5  A    between atoms: C_7  and  C_8
    6  A    between atoms: C_7  and  C_23
    7  A    between atoms: C_7  and  O_43
    8  A    between atoms: C_8  and  C_20
    9  A    between atoms: C_10  and  N_32
   10  A    between atoms: C_11  and  C_29
   11  A    between atoms: C_11  and  C_38
   12  A    between atoms: C_12  and  C_14
   13  A    between atoms: C_17  and  C_23
   14  A    between atoms: C_19  and  O_40
   15  A    between atoms: C_20  and  C_30
   16  A    between atoms: C_27  and  O_31
   17  A    between atoms: C_27  and  C_55
   18  A    between atoms: C_28  and  C_44
   19  A    between atoms: C_28  and  C_49
   20  A    between atoms: O_31  and  C_44
   21  A    between atoms: N_33  and  C_49
   22  A    between atoms: N_33  and  C_52
   23  A    between atoms: C_38  and  C_53
   24  A    between atoms: C_41  and  C_55
   25  A    between atoms: C_45  and  C_49
                            x       y       z     vdW  Elec       q    Type
                         _______ _______ _______ _____ _____    ______ ____

>  <TORSDO>
F 25

$$$$
=
 OpenBabel11052419513D

 55 57  0  0  1  0  0  0  0  0999 V2000
  188.6190  177.6200  145.7670 O   0  0  0  0  0  0  0  0  0  0  0  0
  192.5770  176.9500  143.1580 O   0  0  0  0  0  0  0  0  0  0  0  0
  191.1430  177.2640  143.5170 P   0  0  2  0  0  0  0  0  0  0  0  0
  190.7550  176.6380  145.1860 C   0  0  1  0  0  3  0  0  0  0  0  0
  188.4800  175.8530  144.1210 C   0  0  2  0  0  3  0  0  0  0  0  0
  190.0920  176.5240  142.4050 O   0  0  0  0  0  0  0  0  0  0  0  0
  188.7100  176.5950  146.7290 C   0  0  2  0  0  3  0  0  0  0  0  0
  190.9130  178.9390  143.4930 O   0  0  0  0  0  1  0  0  0  0  0  0
  189.2420  176.4270  145.3400 C   0  0  2  0  0  0  0  0  0  0  0  0
  188.8010  176.7530  142.9140 C   0  0  1  0  0  3  0  0  0  0  0  0
  187.4680  175.9780  146.9070 O   0  0  0  0  0  1  0  0  0  0  0  0
  190.8450  174.0920  145.4680 C   0  0  0  0  0  1  0  0  0  0  0  0
  191.6080  175.4090  145.5530 C   0  0  2  0  0  3  0  0  0  0  0  0
  192.3950  175.5200  146.8710 C   0  0  2  0  0  3  0  0  0  0  0  0
  191.6830  176.8570  148.4000 O   0  0  0  0  0  1  0  0  0  0  0  0
  191.5340  175.6190  147.9740 O   0  0  0  0  0  0  0  0  0  0  0  0
  193.3320  176.7200  146.8620 C   0  0  0  0  0  2  0  0  0  0  0  0
  194.5400  176.5080  145.9710 C   0  0  0  0  0  2  0  0  0  0  0  0
  194.9710  175.0450  145.9710 C   0  0  0  0  0  2  0  0  0  0  0  0
  196.0350  174.7570  144.9040 C   0  0  2  0  0  3  0  0  0  0  0  0
  196.4460  175.9220  144.2540 O   0  0  0  0  0  1  0  0  0  0  0  0
  195.6440  173.6730  143.8850 C   0  0  2  0  0  3  0  0  0  0  0  0
  194.2910  173.8400  143.1740 C   0  0  0  0  0  2  0  0  0  0  0  0
  195.6300  174.0350  141.2050 O   0  0  0  0  0  1  0  0  0  0  0  0
  194.4150  174.4200  141.7650 C   0  0  1  0  0  3  0  0  0  0  0  0
  193.5190  173.4860  139.5730 N   0  0  0  0  0  1  0  0  0  0  0  0
  193.2800  173.9500  140.9040 C   0  0  0  0  0  0  0  0  0  0  0  0
  192.1000  174.0090  141.3360 O   0  0  0  0  0  0  0  0  0  0  0  0
  195.8730  172.3340  144.3280 O   0  0  0  0  0  0  0  0  0  0  0  0
  194.8590  171.4600  144.7370 C   0  0  0  0  0  0  0  0  0  0  0  0
  194.2190  171.6930  145.7940 O   0  0  0  0  0  0  0  0  0  0  0  0
  194.6190  170.1960  143.9870 C   0  0  0  0  0  2  0  0  0  0  0  0
  195.1170  170.3350  142.6280 N   0  0  0  0  0  1  0  0  0  0  0  0
  186.6570  174.9810  143.3980 O   0  0  0  0  0  1  0  0  0  0  0  0
  187.0990  175.7870  144.3370 O   0  0  0  0  0  0  0  0  0  0  0  0
  187.7130  176.7730  141.8320 C   0  0  2  0  0  3  0  0  0  0  0  0
  188.2310  176.3860  140.5240 N   0  0  0  0  0  2  0  0  0  0  0  0
  188.6170  173.9690  141.0360 C   0  0  0  0  0  3  0  0  0  0  0  0
  188.8350  172.4810  139.1680 N   0  0  0  0  0  0  0  0  0  0  0  0
  187.9310  174.7290  138.8160 C   0  0  0  0  0  3  0  0  0  0  0  0
  187.9390  173.3000  138.3400 C   0  0  0  0  0  2  0  0  0  0  0  0
  188.9430  172.7590  140.5720 C   0  0  0  0  0  3  0  0  0  0  0  0
  188.1840  175.0270  140.0980 C   0  0  0  0  0  0  0  0  0  0  0  0
  189.4000  171.2360  138.6600 C   0  0  2  0  0  3  0  0  0  0  0  0
  190.6260  170.8310  139.4660 C   0  0  0  0  0  1  0  0  0  0  0  0
  189.7600  171.3910  137.2590 N   0  0  0  0  0  1  0  0  0  0  0  0
  187.0450  178.1460  141.7300 C   0  0  0  0  0  2  0  0  0  0  0  0
  184.8600  178.0540  140.7630 O   0  0  0  0  0  0  0  0  0  0  0  0
  185.5550  178.0670  141.8180 C   0  0  0  0  0  0  0  0  0  0  0  0
  184.9610  177.9690  143.0780 O   0  0  0  0  0  0  0  0  0  0  0  0
  185.5010  178.5870  144.2410 C   0  0  1  0  0  3  0  0  0  0  0  0
  185.1290  180.0570  144.2370 C   0  0  0  0  0  1  0  0  0  0  0  0
  184.9670  177.9160  145.5070 C   0  0  0  0  0  2  0  0  0  0  0  0
  185.7410  178.9200  147.6150 C   0  0  0  0  0  2  0  0  0  0  0  0
  184.8500  178.9020  146.6280 C   0  0  0  0  0  3  0  0  0  0  0  0
  1  7  1  0  0  0  0
  3  2  2  6  0  0  0
  3  4  1  0  0  0  0
  4  9  1  0  0  0  0
  4 13  1  6  0  0  0
  5 35  1  1  0  0  0
  5  9  1  0  0  0  0
  6 10  1  0  0  0  0
  6  3  1  0  0  0  0
  7 11  1  6  0  0  0
  8  3  1  0  0  0  0
  9  1  1  6  0  0  0
  9  7  1  0  0  0  0
 10 36  1  6  0  0  0
 10  5  1  0  0  0  0
 13 12  1  1  0  0  0
 13 14  1  0  0  0  0
 14 17  1  6  0  0  0
 14 16  1  0  0  0  0
 16 15  1  0  0  0  0
 18 19  1  0  0  0  0
 18 17  1  0  0  0  0
 20 21  1  6  0  0  0
 20 19  1  0  0  0  0
 22 23  1  1  0  0  0
 22 29  1  0  0  0  0
 22 20  1  0  0  0  0
 25 24  1  6  0  0  0
 25 23  1  0  0  0  0
 26 27  1  0  0  0  0
 27 28  2  0  0  0  0
 27 25  1  0  0  0  0
 29 30  1  0  0  0  0
 30 31  2  0  0  0  0
 32 30  1  0  0  0  0
 33 32  1  0  0  0  0
 34 35  1  0  0  0  0
 36 47  1  6  0  0  0
 37 36  1  0  0  0  0
 39 42  1  0  0  0  0
 40 43  2  0  0  0  0
 41 40  1  0  0  0  0
 41 39  1  0  0  0  0
 42 38  2  0  0  0  0
 43 37  1  0  0  0  0
 43 38  1  0  0  0  0
 44 39  1  0  0  0  0
 44 45  1  1  0  0  0
 46 44  1  0  0  0  0
 47 49  1  0  0  0  0
 48 49  2  0  0  0  0
 49 50  1  0  0  0  0
 50 51  1  0  0  0  0
 51 52  1  1  0  0  0
 51 53  1  0  0  0  0
 53 55  1  0  0  0  0
 55 54  2  0  0  0  0
M  END
>  <MODEL>
6

>  <REMARK>
 VINA RESULT:      -5.4      1.630      2.924
  Name = 
  25 active torsions:
  status: ('A' for Active; 'I' for Inactive)
    1  A    between atoms: C_1  and  C_30
    2  A    between atoms: C_1  and  C_53
    3  A    between atoms: O_6  and  C_14
    4  A    between atoms: O_6  and  C_53
    5  A    between atoms: C_7  and  C_8
    6  A    between atoms: C_7  and  C_23
    7  A    between atoms: C_7  and  O_43
    8  A    between atoms: C_8  and  C_20
    9  A    between atoms: C_10  and  N_32
   10  A    between atoms: C_11  and  C_29
   11  A    between atoms: C_11  and  C_38
   12  A    between atoms: C_12  and  C_14
   13  A    between atoms: C_17  and  C_23
   14  A    between atoms: C_19  and  O_40
   15  A    between atoms: C_20  and  C_30
   16  A    between atoms: C_27  and  O_31
   17  A    between atoms: C_27  and  C_55
   18  A    between atoms: C_28  and  C_44
   19  A    between atoms: C_28  and  C_49
   20  A    between atoms: O_31  and  C_44
   21  A    between atoms: N_33  and  C_49
   22  A    between atoms: N_33  and  C_52
   23  A    between atoms: C_38  and  C_53
   24  A    between atoms: C_41  and  C_55
   25  A    between atoms: C_45  and  C_49
                            x       y       z     vdW  Elec       q    Type
                         _______ _______ _______ _____ _____    ______ ____

>  <TORSDO>
F 25

$$$$
=
 OpenBabel11052419513D

 55 57  0  0  1  0  0  0  0  0999 V2000
  192.8880  176.3440  142.3980 O   0  0  0  0  0  0  0  0  0  0  0  0
  194.9150  175.7010  146.6890 O   0  0  0  0  0  1  0  0  0  0  0  0
  194.7110  175.6800  145.1910 P   0  0  2  0  0  0  0  0  0  0  0  0
  192.9510  175.9460  144.7870 C   0  0  1  0  0  3  0  0  0  0  0  0
  193.3020  174.0390  143.0070 C   0  0  2  0  0  3  0  0  0  0  0  0
  195.1870  174.1740  144.5630 O   0  0  0  0  0  0  0  0  0  0  0  0
  191.5300  176.0750  142.6590 C   0  0  2  0  0  3  0  0  0  0  0  0
  195.6280  176.9110  144.4830 O   0  0  0  0  0  0  0  0  0  0  0  0
  192.6300  175.3780  143.3970 C   0  0  2  0  0  0  0  0  0  0  0  0
  194.8190  174.2110  143.2060 C   0  0  1  0  0  3  0  0  0  0  0  0
  190.9820  175.2870  141.6430 O   0  0  0  0  0  1  0  0  0  0  0  0
  191.1880  174.2320  145.5100 C   0  0  0  0  0  1  0  0  0  0  0  0
  192.0210  175.4460  145.9080 C   0  0  2  0  0  3  0  0  0  0  0  0
  191.1560  176.5260  146.5800 C   0  0  2  0  0  3  0  0  0  0  0  0
  191.2240  177.2880  148.5930 O   0  0  0  0  0  1  0  0  0  0  0  0
  190.8870  176.2060  147.9190 O   0  0  0  0  0  0  0  0  0  0  0  0
  189.8390  176.7270  145.8420 C   0  0  0  0  0  2  0  0  0  0  0  0
  188.6590  176.1400  146.5880 C   0  0  0  0  0  2  0  0  0  0  0  0
  187.3530  176.4060  145.8460 C   0  0  0  0  0  2  0  0  0  0  0  0
  187.3540  177.7700  145.1450 C   0  0  2  0  0  3  0  0  0  0  0  0
  186.5740  178.7040  145.8280 O   0  0  0  0  0  1  0  0  0  0  0  0
  186.9710  177.7250  143.6560 C   0  0  2  0  0  3  0  0  0  0  0  0
  185.9640  178.7760  143.1610 C   0  0  0  0  0  2  0  0  0  0  0  0
  183.6900  179.0230  143.8480 O   0  0  0  0  0  1  0  0  0  0  0  0
  184.5340  178.2450  143.0620 C   0  0  1  0  0  3  0  0  0  0  0  0
  185.0130  178.2980  140.5630 N   0  0  0  0  0  1  0  0  0  0  0  0
  184.0690  178.2600  141.6360 C   0  0  0  0  0  0  0  0  0  0  0  0
  182.8380  178.2880  141.3780 O   0  0  0  0  0  0  0  0  0  0  0  0
  186.6920  176.4150  143.1560 O   0  0  0  0  0  0  0  0  0  0  0  0
  187.4770  175.7570  142.2030 C   0  0  0  0  0  0  0  0  0  0  0  0
  187.8050  176.3490  141.1430 O   0  0  0  0  0  0  0  0  0  0  0  0
  187.8240  174.3210  142.3890 C   0  0  0  0  0  2  0  0  0  0  0  0
  188.1670  173.7340  141.1040 N   0  0  0  0  0  1  0  0  0  0  0  0
  192.2090  172.6280  141.8150 O   0  0  0  0  0  1  0  0  0  0  0  0
  193.0140  173.6600  141.6910 O   0  0  0  0  0  0  0  0  0  0  0  0
  195.6810  173.3070  142.3140 C   0  0  2  0  0  3  0  0  0  0  0  0
  195.8040  171.9580  142.8550 N   0  0  0  0  0  2  0  0  0  0  0  0
  194.9350  170.8280  140.8010 C   0  0  0  0  0  3  0  0  0  0  0  0
  193.1350  169.2710  141.0920 N   0  0  0  0  0  0  0  0  0  0  0  0
  194.4090  170.0160  143.0460 C   0  0  0  0  0  3  0  0  0  0  0  0
  193.5980  168.9020  142.4370 C   0  0  0  0  0  2  0  0  0  0  0  0
  193.9830  170.0680  140.2520 C   0  0  0  0  0  3  0  0  0  0  0  0
  195.0870  170.8740  142.2710 C   0  0  0  0  0  0  0  0  0  0  0  0
  191.9710  168.6270  140.4940 C   0  0  2  0  0  3  0  0  0  0  0  0
  191.4250  169.4580  139.3430 C   0  0  0  0  0  1  0  0  0  0  0  0
  190.9380  168.4380  141.5010 N   0  0  0  0  0  1  0  0  0  0  0  0
  197.0750  173.8970  142.0940 C   0  0  0  0  0  2  0  0  0  0  0  0
  197.1120  175.9040  140.7950 O   0  0  0  0  0  0  0  0  0  0  0  0
  197.1860  174.6430  140.8040 C   0  0  0  0  0  0  0  0  0  0  0  0
  197.4120  173.9230  139.6290 O   0  0  0  0  0  0  0  0  0  0  0  0
  196.6230  174.0850  138.4550 C   0  0  1  0  0  3  0  0  0  0  0  0
  195.1720  174.2660  138.8560 C   0  0  0  0  0  1  0  0  0  0  0  0
  197.0970  175.2940  137.6480 C   0  0  0  0  0  2  0  0  0  0  0  0
  197.9130  173.5790  136.0840 C   0  0  0  0  0  2  0  0  0  0  0  0
  197.6950  174.8660  136.3430 C   0  0  0  0  0  3  0  0  0  0  0  0
  1  7  1  0  0  0  0
  3  8  2  6  0  0  0
  3  2  1  0  0  0  0
  4  3  1  0  0  0  0
  4 13  1  1  0  0  0
  5 35  1  6  0  0  0
  5 10  1  0  0  0  0
  5  9  1  0  0  0  0
  6  3  1  0  0  0  0
  7 11  1  6  0  0  0
  7  9  1  0  0  0  0
  9  1  1  6  0  0  0
  9  4  1  0  0  0  0
 10 36  1  6  0  0  0
 10  6  1  0  0  0  0
 13 12  1  6  0  0  0
 13 14  1  0  0  0  0
 14 17  1  6  0  0  0
 14 16  1  0  0  0  0
 16 15  1  0  0  0  0
 17 18  1  0  0  0  0
 19 18  1  0  0  0  0
 20 21  1  1  0  0  0
 20 19  1  0  0  0  0
 22 23  1  1  0  0  0
 22 20  1  0  0  0  0
 25 23  1  0  0  0  0
 25 24  1  1  0  0  0
 26 27  1  0  0  0  0
 27 25  1  0  0  0  0
 28 27  2  0  0  0  0
 29 22  1  0  0  0  0
 30 32  1  0  0  0  0
 30 29  1  0  0  0  0
 31 30  2  0  0  0  0
 33 32  1  0  0  0  0
 35 34  1  0  0  0  0
 36 47  1  1  0  0  0
 36 37  1  0  0  0  0
 38 43  1  0  0  0  0
 39 41  1  0  0  0  0
 41 40  1  0  0  0  0
 42 38  2  0  0  0  0
 42 39  1  0  0  0  0
 43 37  1  0  0  0  0
 43 40  2  0  0  0  0
 44 45  1  6  0  0  0
 44 39  1  0  0  0  0
 44 46  1  0  0  0  0
 48 49  2  0  0  0  0
 49 47  1  0  0  0  0
 50 49  1  0  0  0  0
 51 52  1  1  0  0  0
 51 50  1  0  0  0  0
 53 51  1  0  0  0  0
 54 55  2  0  0  0  0
 55 53  1  0  0  0  0
M  END
>  <MODEL>
7

>  <REMARK>
 VINA RESULT:      -5.4      2.914      8.885
  Name = 
  25 active torsions:
  status: ('A' for Active; 'I' for Inactive)
    1  A    between atoms: C_1  and  C_30
    2  A    between atoms: C_1  and  C_53
    3  A    between atoms: O_6  and  C_14
    4  A    between atoms: O_6  and  C_53
    5  A    between atoms: C_7  and  C_8
    6  A    between atoms: C_7  and  C_23
    7  A    between atoms: C_7  and  O_43
    8  A    between atoms: C_8  and  C_20
    9  A    between atoms: C_10  and  N_32
   10  A    between atoms: C_11  and  C_29
   11  A    between atoms: C_11  and  C_38
   12  A    between atoms: C_12  and  C_14
   13  A    between atoms: C_17  and  C_23
   14  A    between atoms: C_19  and  O_40
   15  A    between atoms: C_20  and  C_30
   16  A    between atoms: C_27  and  O_31
   17  A    between atoms: C_27  and  C_55
   18  A    between atoms: C_28  and  C_44
   19  A    between atoms: C_28  and  C_49
   20  A    between atoms: O_31  and  C_44
   21  A    between atoms: N_33  and  C_49
   22  A    between atoms: N_33  and  C_52
   23  A    between atoms: C_38  and  C_53
   24  A    between atoms: C_41  and  C_55
   25  A    between atoms: C_45  and  C_49
                            x       y       z     vdW  Elec       q    Type
                         _______ _______ _______ _____ _____    ______ ____

>  <TORSDO>
F 25

$$$$
=
 OpenBabel11052419513D

 55 57  0  0  1  0  0  0  0  0999 V2000
  188.4950  177.9250  146.2260 O   0  0  0  0  0  0  0  0  0  0  0  0
  191.9840  177.3070  143.0040 O   0  0  0  0  0  0  0  0  0  0  0  0
  190.6550  177.6980  143.6090 P   0  0  2  0  0  0  0  0  0  0  0  0
  190.4060  176.8440  145.2020 C   0  0  1  0  0  3  0  0  0  0  0  0
  187.9370  176.4800  144.3670 C   0  0  2  0  0  3  0  0  0  0  0  0
  189.3910  177.2630  142.5590 O   0  0  0  0  0  0  0  0  0  0  0  0
  188.5810  176.7500  146.9980 C   0  0  2  0  0  3  0  0  0  0  0  0
  190.6290  179.3680  143.8730 O   0  0  0  0  0  1  0  0  0  0  0  0
  188.9100  176.7630  145.5370 C   0  0  2  0  0  0  0  0  0  0  0  0
  188.2110  177.5320  143.2770 C   0  0  1  0  0  3  0  0  0  0  0  0
  187.3050  176.2390  147.2560 O   0  0  0  0  0  1  0  0  0  0  0  0
  190.2370  174.2970  144.9730 C   0  0  0  0  0  1  0  0  0  0  0  0
  191.1420  175.4920  145.2520 C   0  0  2  0  0  3  0  0  0  0  0  0
  192.0150  175.2600  146.4980 C   0  0  2  0  0  3  0  0  0  0  0  0
  191.5490  175.8150  148.5250 O   0  0  0  0  0  1  0  0  0  0  0  0
  191.2350  174.9180  147.6120 O   0  0  0  0  0  0  0  0  0  0  0  0
  192.8480  176.4900  146.8330 C   0  0  0  0  0  2  0  0  0  0  0  0
  194.2120  176.4650  146.1750 C   0  0  0  0  0  2  0  0  0  0  0  0
  194.9380  175.1560  146.4660 C   0  0  0  0  0  2  0  0  0  0  0  0
  195.4970  174.5090  145.1930 C   0  0  2  0  0  3  0  0  0  0  0  0
  196.8890  174.5940  145.1360 O   0  0  0  0  0  1  0  0  0  0  0  0
  194.8660  175.0180  143.8860 C   0  0  2  0  0  3  0  0  0  0  0  0
  193.8490  174.0940  143.1950 C   0  0  0  0  0  2  0  0  0  0  0  0
  193.0760  172.3820  144.6700 O   0  0  0  0  0  1  0  0  0  0  0  0
  193.9650  172.6330  143.6300 C   0  0  1  0  0  3  0  0  0  0  0  0
  194.6650  171.4850  141.4690 N   0  0  0  0  0  1  0  0  0  0  0  0
  193.6780  171.7190  142.4760 C   0  0  0  0  0  0  0  0  0  0  0  0
  192.5420  171.1900  142.3630 O   0  0  0  0  0  0  0  0  0  0  0  0
  195.7940  175.6010  142.9680 O   0  0  0  0  0  0  0  0  0  0  0  0
  196.2520  174.9660  141.8090 C   0  0  0  0  0  0  0  0  0  0  0  0
  196.9770  173.9410  141.8990 O   0  0  0  0  0  0  0  0  0  0  0  0
  195.9820  175.5680  140.4740 C   0  0  0  0  0  2  0  0  0  0  0  0
  194.5990  176.0100  140.4110 N   0  0  0  0  0  1  0  0  0  0  0  0
  185.9810  175.7110  143.9300 O   0  0  0  0  0  1  0  0  0  0  0  0
  186.5960  176.5170  144.7670 O   0  0  0  0  0  0  0  0  0  0  0  0
  187.0060  177.8410  142.3780 C   0  0  2  0  0  3  0  0  0  0  0  0
  187.3770  177.9140  140.9690 N   0  0  0  0  0  2  0  0  0  0  0  0
  187.8620  175.4770  140.6930 C   0  0  0  0  0  3  0  0  0  0  0  0
  188.0060  174.6410  138.4500 N   0  0  0  0  0  0  0  0  0  0  0  0
  187.0180  176.8450  138.8510 C   0  0  0  0  0  3  0  0  0  0  0  0
  187.0370  175.6320  137.9600 C   0  0  0  0  0  2  0  0  0  0  0  0
  188.1930  174.4820  139.8640 C   0  0  0  0  0  3  0  0  0  0  0  0
  187.3420  176.7490  140.1480 C   0  0  0  0  0  0  0  0  0  0  0  0
  188.5730  173.6380  137.5560 C   0  0  2  0  0  3  0  0  0  0  0  0
  188.7550  172.3120  138.2790 C   0  0  0  0  0  1  0  0  0  0  0  0
  189.8530  174.1000  137.0420 N   0  0  0  0  0  1  0  0  0  0  0  0
  186.3150  179.1420  142.7910 C   0  0  0  0  0  2  0  0  0  0  0  0
  184.5280  179.4930  144.3400 O   0  0  0  0  0  0  0  0  0  0  0  0
  184.9220  178.9190  143.2860 C   0  0  0  0  0  0  0  0  0  0  0  0
  184.0660  178.1060  142.5410 O   0  0  0  0  0  0  0  0  0  0  0  0
  183.2710  178.5940  141.4650 C   0  0  1  0  0  3  0  0  0  0  0  0
  183.7130  177.9220  140.1800 C   0  0  0  0  0  1  0  0  0  0  0  0
  181.7890  178.3170  141.7180 C   0  0  0  0  0  2  0  0  0  0  0  0
  179.7490  179.1790  140.6480 C   0  0  0  0  0  2  0  0  0  0  0  0
  180.9670  178.6590  140.5150 C   0  0  0  0  0  3  0  0  0  0  0  0
  1  7  1  0  0  0  0
  3  2  2  6  0  0  0
  3  8  1  0  0  0  0
  3  4  1  0  0  0  0
  4 13  1  6  0  0  0
  4  9  1  0  0  0  0
  5 35  1  1  0  0  0
  5  9  1  0  0  0  0
  6 10  1  0  0  0  0
  6  3  1  0  0  0  0
  7 11  1  6  0  0  0
  9  1  1  6  0  0  0
  9  7  1  0  0  0  0
 10 36  1  6  0  0  0
 10  5  1  0  0  0  0
 13 12  1  1  0  0  0
 13 14  1  0  0  0  0
 14 17  1  1  0  0  0
 14 16  1  0  0  0  0
 16 15  1  0  0  0  0
 18 19  1  0  0  0  0
 18 17  1  0  0  0  0
 20 21  1  6  0  0  0
 20 19  1  0  0  0  0
 22 23  1  6  0  0  0
 22 20  1  0  0  0  0
 23 25  1  0  0  0  0
 25 24  1  1  0  0  0
 26 27  1  0  0  0  0
 27 25  1  0  0  0  0
 28 27  2  0  0  0  0
 29 22  1  0  0  0  0
 30 31  2  0  0  0  0
 30 29  1  0  0  0  0
 32 30  1  0  0  0  0
 33 32  1  0  0  0  0
 34 35  1  0  0  0  0
 36 47  1  1  0  0  0
 37 36  1  0  0  0  0
 39 42  1  0  0  0  0
 40 43  2  0  0  0  0
 41 39  1  0  0  0  0
 41 40  1  0  0  0  0
 42 38  2  0  0  0  0
 43 38  1  0  0  0  0
 43 37  1  0  0  0  0
 44 45  1  1  0  0  0
 44 39  1  0  0  0  0
 46 44  1  0  0  0  0
 47 49  1  0  0  0  0
 49 48  2  0  0  0  0
 50 49  1  0  0  0  0
 51 52  1  6  0  0  0
 51 53  1  0  0  0  0
 51 50  1  0  0  0  0
 55 54  2  0  0  0  0
 55 53  1  0  0  0  0
M  END
>  <MODEL>
8

>  <REMARK>
 VINA RESULT:      -5.2      1.935      2.920
  Name = 
  25 active torsions:
  status: ('A' for Active; 'I' for Inactive)
    1  A    between atoms: C_1  and  C_30
    2  A    between atoms: C_1  and  C_53
    3  A    between atoms: O_6  and  C_14
    4  A    between atoms: O_6  and  C_53
    5  A    between atoms: C_7  and  C_8
    6  A    between atoms: C_7  and  C_23
    7  A    between atoms: C_7  and  O_43
    8  A    between atoms: C_8  and  C_20
    9  A    between atoms: C_10  and  N_32
   10  A    between atoms: C_11  and  C_29
   11  A    between atoms: C_11  and  C_38
   12  A    between atoms: C_12  and  C_14
   13  A    between atoms: C_17  and  C_23
   14  A    between atoms: C_19  and  O_40
   15  A    between atoms: C_20  and  C_30
   16  A    between atoms: C_27  and  O_31
   17  A    between atoms: C_27  and  C_55
   18  A    between atoms: C_28  and  C_44
   19  A    between atoms: C_28  and  C_49
   20  A    between atoms: O_31  and  C_44
   21  A    between atoms: N_33  and  C_49
   22  A    between atoms: N_33  and  C_52
   23  A    between atoms: C_38  and  C_53
   24  A    between atoms: C_41  and  C_55
   25  A    between atoms: C_45  and  C_49
                            x       y       z     vdW  Elec       q    Type
                         _______ _______ _______ _____ _____    ______ ____

>  <TORSDO>
F 25

$$$$
=
 OpenBabel11052419513D

 55 57  0  0  1  0  0  0  0  0999 V2000
  190.9350  174.5260  142.8600 O   0  0  0  0  0  0  0  0  0  0  0  0
  195.4340  176.1230  143.2290 O   0  0  0  0  0  1  0  0  0  0  0  0
  194.2230  175.3790  142.7140 P   0  0  2  0  0  0  0  0  0  0  0  0
  192.9240  175.3180  143.9930 C   0  0  1  0  0  3  0  0  0  0  0  0
  192.6070  172.8180  143.2340 C   0  0  2  0  0  3  0  0  0  0  0  0
  194.6530  173.7870  142.3030 O   0  0  0  0  0  0  0  0  0  0  0  0
  190.5670  174.3350  144.2060 C   0  0  2  0  0  3  0  0  0  0  0  0
  193.6140  176.1760  141.3530 O   0  0  0  0  0  0  0  0  0  0  0  0
  191.9750  174.1390  143.7350 C   0  0  2  0  0  0  0  0  0  0  0  0
  193.4400  173.1520  141.9830 C   0  0  1  0  0  3  0  0  0  0  0  0
  189.8800  173.1280  144.3600 O   0  0  0  0  0  1  0  0  0  0  0  0
  193.5180  174.0010  146.1100 C   0  0  0  0  0  1  0  0  0  0  0  0
  193.5140  175.3580  145.4150 C   0  0  2  0  0  3  0  0  0  0  0  0
  192.9540  176.4590  146.3330 C   0  0  2  0  0  3  0  0  0  0  0  0
  194.7980  177.5130  145.9870 O   0  0  0  0  0  1  0  0  0  0  0  0
  193.9830  177.1710  146.9650 O   0  0  0  0  0  0  0  0  0  0  0  0
  192.0230  175.8830  147.3920 C   0  0  0  0  0  2  0  0  0  0  0  0
  190.8440  176.7880  147.6830 C   0  0  0  0  0  2  0  0  0  0  0  0
  190.0040  177.0170  146.4310 C   0  0  0  0  0  2  0  0  0  0  0  0
  188.5000  176.9120  146.7160 C   0  0  2  0  0  3  0  0  0  0  0  0
  188.0920  175.5850  146.8630 O   0  0  0  0  0  1  0  0  0  0  0  0
  187.6040  177.6490  145.7080 C   0  0  2  0  0  3  0  0  0  0  0  0
  186.1470  177.1710  145.5870 C   0  0  0  0  0  2  0  0  0  0  0  0
  185.5640  179.1690  146.7570 O   0  0  0  0  0  1  0  0  0  0  0  0
  185.1250  178.2920  145.7710 C   0  0  1  0  0  3  0  0  0  0  0  0
  184.1630  178.4430  143.4200 N   0  0  0  0  0  1  0  0  0  0  0  0
  184.9200  179.0290  144.4800 C   0  0  0  0  0  0  0  0  0  0  0  0
  185.4580  180.1540  144.3080 O   0  0  0  0  0  0  0  0  0  0  0  0
  188.2130  177.8870  144.4370 O   0  0  0  0  0  0  0  0  0  0  0  0
  187.8930  177.1820  143.2720 C   0  0  0  0  0  0  0  0  0  0  0  0
  187.8730  175.9240  143.2840 O   0  0  0  0  0  0  0  0  0  0  0  0
  187.6930  177.9140  141.9900 C   0  0  0  0  0  2  0  0  0  0  0  0
  187.0760  177.0280  141.0170 N   0  0  0  0  0  1  0  0  0  0  0  0
  191.9850  170.8150  143.6920 O   0  0  0  0  0  1  0  0  0  0  0  0
  191.6460  171.8420  142.9450 O   0  0  0  0  0  0  0  0  0  0  0  0
  193.6010  171.9850  140.9990 C   0  0  2  0  0  3  0  0  0  0  0  0
  194.9270  171.3820  141.0770 N   0  0  0  0  0  2  0  0  0  0  0  0
  196.7610  172.5820  139.8730 C   0  0  0  0  0  3  0  0  0  0  0  0
  197.0560  172.0710  137.5490 N   0  0  0  0  0  0  0  0  0  0  0  0
  195.6830  170.5960  138.9400 C   0  0  0  0  0  3  0  0  0  0  0  0
  196.5810  170.6930  137.7350 C   0  0  0  0  0  2  0  0  0  0  0  0
  197.3310  172.8800  138.7020 C   0  0  0  0  0  3  0  0  0  0  0  0
  195.8200  171.4450  139.9680 C   0  0  0  0  0  0  0  0  0  0  0  0
  197.5110  172.5410  136.2450 C   0  0  2  0  0  3  0  0  0  0  0  0
  196.4140  173.3250  135.5410 C   0  0  0  0  0  1  0  0  0  0  0  0
  197.9140  171.4090  135.4250 N   0  0  0  0  0  1  0  0  0  0  0  0
  193.3210  172.4190  139.5590 C   0  0  0  0  0  2  0  0  0  0  0  0
  191.2120  171.3220  139.8100 O   0  0  0  0  0  0  0  0  0  0  0  0
  192.0510  171.8420  139.0220 C   0  0  0  0  0  0  0  0  0  0  0  0
  191.8010  171.9280  137.6510 O   0  0  0  0  0  0  0  0  0  0  0  0
  192.7080  172.5300  136.7330 C   0  0  1  0  0  3  0  0  0  0  0  0
  193.0120  171.5450  135.6220 C   0  0  0  0  0  1  0  0  0  0  0  0
  192.1130  173.8110  136.1480 C   0  0  0  0  0  2  0  0  0  0  0  0
  192.7010  176.1940  135.9840 C   0  0  0  0  0  2  0  0  0  0  0  0
  193.0820  174.9480  136.2520 C   0  0  0  0  0  3  0  0  0  0  0  0
  1  7  1  0  0  0  0
  3  8  2  6  0  0  0
  3  2  1  0  0  0  0
  3  4  1  0  0  0  0
  4 13  1  1  0  0  0
  5 35  1  6  0  0  0
  5  9  1  0  0  0  0
  6  3  1  0  0  0  0
  7 11  1  6  0  0  0
  9  1  1  6  0  0  0
  9  4  1  0  0  0  0
  9  7  1  0  0  0  0
 10 36  1  1  0  0  0
 10  6  1  0  0  0  0
 10  5  1  0  0  0  0
 13 12  1  1  0  0  0
 13 14  1  0  0  0  0
 14 16  1  0  0  0  0
 14 17  1  1  0  0  0
 15 16  1  0  0  0  0
 17 18  1  0  0  0  0
 19 20  1  0  0  0  0
 19 18  1  0  0  0  0
 20 21  1  6  0  0  0
 22 23  1  6  0  0  0
 22 20  1  0  0  0  0
 23 25  1  0  0  0  0
 25 24  1  1  0  0  0
 26 27  1  0  0  0  0
 27 25  1  0  0  0  0
 28 27  2  0  0  0  0
 29 22  1  0  0  0  0
 30 31  2  0  0  0  0
 30 29  1  0  0  0  0
 32 30  1  0  0  0  0
 33 32  1  0  0  0  0
 35 34  1  0  0  0  0
 36 47  1  6  0  0  0
 36 37  1  0  0  0  0
 38 43  1  0  0  0  0
 39 41  1  0  0  0  0
 39 42  1  0  0  0  0
 40 43  2  0  0  0  0
 41 40  1  0  0  0  0
 42 38  2  0  0  0  0
 43 37  1  0  0  0  0
 44 45  1  6  0  0  0
 44 39  1  0  0  0  0
 46 44  1  0  0  0  0
 49 47  1  0  0  0  0
 49 48  2  0  0  0  0
 50 49  1  0  0  0  0
 51 52  1  6  0  0  0
 51 50  1  0  0  0  0
 53 55  1  0  0  0  0
 53 51  1  0  0  0  0
 54 55  2  0  0  0  0
M  END
>  <MODEL>
9

>  <REMARK>
 VINA RESULT:      -5.2      3.180      8.131
  Name = 
  25 active torsions:
  status: ('A' for Active; 'I' for Inactive)
    1  A    between atoms: C_1  and  C_30
    2  A    between atoms: C_1  and  C_53
    3  A    between atoms: O_6  and  C_14
    4  A    between atoms: O_6  and  C_53
    5  A    between atoms: C_7  and  C_8
    6  A    between atoms: C_7  and  C_23
    7  A    between atoms: C_7  and  O_43
    8  A    between atoms: C_8  and  C_20
    9  A    between atoms: C_10  and  N_32
   10  A    between atoms: C_11  and  C_29
   11  A    between atoms: C_11  and  C_38
   12  A    between atoms: C_12  and  C_14
   13  A    between atoms: C_17  and  C_23
   14  A    between atoms: C_19  and  O_40
   15  A    between atoms: C_20  and  C_30
   16  A    between atoms: C_27  and  O_31
   17  A    between atoms: C_27  and  C_55
   18  A    between atoms: C_28  and  C_44
   19  A    between atoms: C_28  and  C_49
   20  A    between atoms: O_31  and  C_44
   21  A    between atoms: N_33  and  C_49
   22  A    between atoms: N_33  and  C_52
   23  A    between atoms: C_38  and  C_53
   24  A    between atoms: C_41  and  C_55
   25  A    between atoms: C_45  and  C_49
                            x       y       z     vdW  Elec       q    Type
                         _______ _______ _______ _____ _____    ______ ____

>  <TORSDO>
F 25

$$$$
