=
 OpenBabel11052419173D

 32 36  0  0  1  0  0  0  0  0999 V2000
  190.4530  176.5280  144.2530 O   0  0  0  0  0  0  0  0  0  0  0  0
  188.1540  177.1390  144.2540 C   0  0  0  0  0  0  0  0  0  0  0  0
  191.5050  175.7180  144.7870 C   0  0  2  0  0  3  0  0  0  0  0  0
  189.2410  176.7270  144.9280 C   0  0  0  0  0  0  0  0  0  0  0  0
  186.8870  177.3160  144.9350 N   0  0  0  0  0  0  0  0  0  0  0  0
  185.7790  177.6730  139.8760 C   0  0  0  0  0  2  0  0  0  0  0  0
  188.2720  177.4690  142.7910 C   0  0  0  0  0  2  0  0  0  0  0  0
  184.5070  177.8180  142.0200 C   0  0  0  0  0  2  0  0  0  0  0  0
  185.8130  177.9480  142.8000 C   0  0  1  0  0  3  0  0  0  0  0  0
  189.1990  176.5430  146.4290 C   0  0  1  0  0  3  0  0  0  0  0  0
  185.6430  177.2810  144.1570 C   0  0  0  0  0  2  0  0  0  0  0  0
  187.7970  176.2320  146.9320 C   0  0  0  0  0  2  0  0  0  0  0  0
  190.1850  175.4750  146.8780 C   0  0  0  0  0  2  0  0  0  0  0  0
  186.9580  177.2570  142.0500 C   0  0  1  0  0  3  0  0  0  0  0  0
  186.8580  177.3080  146.4100 C   0  0  2  0  0  3  0  0  0  0  0  0
  191.5610  175.7870  146.3110 C   0  0  0  0  0  2  0  0  0  0  0  0
  184.6630  178.3990  140.6200 C   0  0  0  0  0  2  0  0  0  0  0  0
  187.0930  177.8200  140.6370 C   0  0  0  0  0  2  0  0  0  0  0  0
  185.4660  177.0960  146.9960 C   0  0  0  0  0  2  0  0  0  0  0  0
  184.8670  178.4260  147.4110 C   0  0  0  0  0  1  0  0  0  0  0  0
  192.8480  176.1090  144.1800 C   0  0  1  0  0  3  0  0  0  0  0  0
  193.5100  177.1700  145.0380 C   0  0  0  0  0  1  0  0  0  0  0  0
  193.6880  174.9930  144.0840 O   0  0  0  0  0  0  0  0  0  0  0  0
  196.1200  175.1540  143.7300 C   0  0  2  0  0  0  0  0  0  0  0  0
  197.1830  173.4610  146.6070 O   0  0  0  0  0  0  0  0  0  0  0  0
  195.7780  174.3240  142.5000 C   0  0  0  0  0  1  0  0  0  0  0  0
  195.1570  174.5900  145.9400 C   0  0  0  0  0  2  0  0  0  0  0  0
  197.0610  174.4440  144.5150 O   0  0  0  0  0  0  0  0  0  0  0  0
  194.8990  175.3900  144.6620 C   0  0  2  0  0  3  0  0  0  0  0  0
  196.5390  174.1130  145.7460 C   0  0  0  0  0  0  0  0  0  0  0  0
  196.7120  176.4820  143.2760 C   0  0  0  0  0  2  0  0  0  0  0  0
  196.1790  176.8700  142.0440 O   0  0  0  0  0  1  0  0  0  0  0  0
  1  3  1  0  0  0  0
  1  4  1  0  0  0  0
  2  4  2  0  0  0  0
  2  5  1  0  0  0  0
  3 21  1  6  0  0  0
  3 16  1  0  0  0  0
  4 10  1  0  0  0  0
  5 15  1  0  0  0  0
  6 17  1  0  0  0  0
  6 18  1  0  0  0  0
  7  2  1  0  0  0  0
  9  8  1  6  0  0  0
  9 11  1  0  0  0  0
 10 13  1  6  0  0  0
 10 12  1  0  0  0  0
 11  5  1  0  0  0  0
 14 18  1  6  0  0  0
 14  7  1  0  0  0  0
 14  9  1  0  0  0  0
 15 12  1  0  0  0  0
 15 19  1  6  0  0  0
 16 13  1  0  0  0  0
 17  8  1  0  0  0  0
 19 20  1  0  0  0  0
 21 22  1  1  0  0  0
 23 21  1  0  0  0  0
 24 26  1  6  0  0  0
 24 28  1  0  0  0  0
 24 29  1  0  0  0  0
 28 30  1  0  0  0  0
 29 23  1  6  0  0  0
 29 27  1  0  0  0  0
 30 27  1  0  0  0  0
 30 25  2  0  0  0  0
 31 24  1  0  0  0  0
 32 31  1  0  0  0  0
M  END
>  <MODEL>
1

>  <REMARK>
 VINA RESULT:      -8.4      0.000      0.000
  Name = 
  5 active torsions:
  status: ('A' for Active; 'I' for Inactive)
    1  A    between atoms: C_3  and  C_22
    2  A    between atoms: C_4  and  C_24
    3  A    between atoms: C_13  and  C_29
    4  A    between atoms: O_16  and  C_20
    5  A    between atoms: O_16  and  C_24
                            x       y       z     vdW  Elec       q    Type
                         _______ _______ _______ _____ _____    ______ ____

>  <TORSDO>
F 5

$$$$
=
 OpenBabel11052419173D

 32 36  0  0  1  0  0  0  0  0999 V2000
  189.9650  175.3640  144.0330 O   0  0  0  0  0  0  0  0  0  0  0  0
  187.9690  176.6580  144.0730 C   0  0  0  0  0  0  0  0  0  0  0  0
  190.7600  174.3220  144.6070 C   0  0  2  0  0  3  0  0  0  0  0  0
  188.9300  175.9950  144.7370 C   0  0  0  0  0  0  0  0  0  0  0  0
  186.8760  177.2850  144.7880 N   0  0  0  0  0  0  0  0  0  0  0  0
  185.5180  177.4760  139.7810 C   0  0  0  0  0  2  0  0  0  0  0  0
  188.0610  176.7910  142.5770 C   0  0  0  0  0  2  0  0  0  0  0  0
  184.5310  178.2180  141.9520 C   0  0  0  0  0  2  0  0  0  0  0  0
  185.8740  178.0090  142.6480 C   0  0  1  0  0  3  0  0  0  0  0  0
  188.9580  175.9790  146.2500 C   0  0  1  0  0  3  0  0  0  0  0  0
  185.6210  177.5640  144.0800 C   0  0  0  0  0  2  0  0  0  0  0  0
  187.5740  176.1710  146.8530 C   0  0  0  0  0  2  0  0  0  0  0  0
  189.6050  174.7070  146.7740 C   0  0  0  0  0  2  0  0  0  0  0  0
  186.6890  176.9270  141.9300 C   0  0  1  0  0  3  0  0  0  0  0  0
  186.9680  177.4300  146.2540 C   0  0  2  0  0  3  0  0  0  0  0  0
  190.9600  174.5180  146.1080 C   0  0  0  0  0  2  0  0  0  0  0  0
  184.7400  178.5820  140.4870 C   0  0  0  0  0  2  0  0  0  0  0  0
  186.8720  177.2800  140.4560 C   0  0  0  0  0  2  0  0  0  0  0  0
  185.6300  177.7200  146.9270 C   0  0  0  0  0  2  0  0  0  0  0  0
  185.6220  179.1310  147.4830 C   0  0  0  0  0  1  0  0  0  0  0  0
  192.1040  174.2150  143.8950 C   0  0  1  0  0  3  0  0  0  0  0  0
  191.8830  174.0450  142.4040 C   0  0  0  0  0  1  0  0  0  0  0  0
  192.8760  175.3590  144.1270 O   0  0  0  0  0  0  0  0  0  0  0  0
  195.0990  175.0050  145.1280 C   0  0  2  0  0  0  0  0  0  0  0  0
  196.9780  177.0170  142.9620 O   0  0  0  0  0  0  0  0  0  0  0  0
  194.4290  175.6740  146.3210 C   0  0  0  0  0  1  0  0  0  0  0  0
  194.8270  175.9290  142.8480 C   0  0  0  0  0  2  0  0  0  0  0  0
  196.2390  175.7610  144.7590 O   0  0  0  0  0  0  0  0  0  0  0  0
  194.1960  174.9750  143.8640 C   0  0  2  0  0  3  0  0  0  0  0  0
  196.1010  176.2910  143.4960 C   0  0  0  0  0  0  0  0  0  0  0  0
  195.5120  173.5940  145.5260 C   0  0  0  0  0  2  0  0  0  0  0  0
  196.8240  173.5750  146.0050 O   0  0  0  0  0  1  0  0  0  0  0  0
  1  3  1  0  0  0  0
  1  4  1  0  0  0  0
  2  4  2  0  0  0  0
  2  5  1  0  0  0  0
  3 21  1  6  0  0  0
  3 16  1  0  0  0  0
  4 10  1  0  0  0  0
  5 15  1  0  0  0  0
  6 18  1  0  0  0  0
  6 17  1  0  0  0  0
  7  2  1  0  0  0  0
  9  8  1  6  0  0  0
  9 11  1  0  0  0  0
 10 13  1  6  0  0  0
 10 12  1  0  0  0  0
 11  5  1  0  0  0  0
 14 18  1  6  0  0  0
 14  7  1  0  0  0  0
 14  9  1  0  0  0  0
 15 12  1  0  0  0  0
 15 19  1  1  0  0  0
 16 13  1  0  0  0  0
 17  8  1  0  0  0  0
 19 20  1  0  0  0  0
 21 22  1  6  0  0  0
 21 23  1  0  0  0  0
 24 31  1  0  0  0  0
 24 26  1  1  0  0  0
 25 30  2  0  0  0  0
 27 30  1  0  0  0  0
 27 29  1  0  0  0  0
 28 24  1  0  0  0  0
 29 23  1  1  0  0  0
 29 24  1  0  0  0  0
 30 28  1  0  0  0  0
 31 32  1  0  0  0  0
M  END
>  <MODEL>
2

>  <REMARK>
 VINA RESULT:      -8.4      1.077      2.168
  Name = 
  5 active torsions:
  status: ('A' for Active; 'I' for Inactive)
    1  A    between atoms: C_3  and  C_22
    2  A    between atoms: C_4  and  C_24
    3  A    between atoms: C_13  and  C_29
    4  A    between atoms: O_16  and  C_20
    5  A    between atoms: O_16  and  C_24
                            x       y       z     vdW  Elec       q    Type
                         _______ _______ _______ _____ _____    ______ ____

>  <TORSDO>
F 5

$$$$
=
 OpenBabel11052419173D

 32 36  0  0  1  0  0  0  0  0999 V2000
  191.0220  176.8940  144.6830 O   0  0  0  0  0  0  0  0  0  0  0  0
  188.6860  177.3290  144.5770 C   0  0  0  0  0  0  0  0  0  0  0  0
  192.1090  176.1830  145.2850 C   0  0  2  0  0  3  0  0  0  0  0  0
  189.7730  177.0230  145.3050 C   0  0  0  0  0  0  0  0  0  0  0  0
  187.3840  177.4320  145.2040 N   0  0  0  0  0  0  0  0  0  0  0  0
  186.4540  177.5370  140.0980 C   0  0  0  0  0  2  0  0  0  0  0  0
  188.8370  177.6190  143.1090 C   0  0  0  0  0  2  0  0  0  0  0  0
  185.0900  177.6570  142.1870 C   0  0  0  0  0  2  0  0  0  0  0  0
  186.3510  177.9100  143.0090 C   0  0  1  0  0  3  0  0  0  0  0  0
  189.6860  176.8860  146.8090 C   0  0  1  0  0  3  0  0  0  0  0  0
  186.1780  177.2780  144.3820 C   0  0  0  0  0  2  0  0  0  0  0  0
  188.2910  176.4870  147.2710 C   0  0  0  0  0  2  0  0  0  0  0  0
  190.7290  175.9110  147.3330 C   0  0  0  0  0  2  0  0  0  0  0  0
  187.5730  177.2830  142.3270 C   0  0  1  0  0  3  0  0  0  0  0  0
  187.2970  177.4710  146.6770 C   0  0  2  0  0  3  0  0  0  0  0  0
  192.1000  176.3070  146.8060 C   0  0  0  0  0  2  0  0  0  0  0  0
  185.2580  178.2010  140.7730 C   0  0  0  0  0  2  0  0  0  0  0  0
  187.7220  177.8080  140.9010 C   0  0  0  0  0  2  0  0  0  0  0  0
  185.9020  177.1750  147.2180 C   0  0  0  0  0  2  0  0  0  0  0  0
  185.1980  178.4670  147.5810 C   0  0  0  0  0  1  0  0  0  0  0  0
  193.4430  176.6550  144.7140 C   0  0  1  0  0  3  0  0  0  0  0  0
  194.3920  177.0010  145.8460 C   0  0  0  0  0  1  0  0  0  0  0  0
  194.0130  175.6590  143.9120 O   0  0  0  0  0  0  0  0  0  0  0  0
  192.8150  174.6070  142.0340 C   0  0  2  0  0  0  0  0  0  0  0  0
  195.0700  175.3880  139.4690 O   0  0  0  0  0  0  0  0  0  0  0  0
  193.0760  173.3500  142.8550 C   0  0  0  0  0  1  0  0  0  0  0  0
  194.6120  176.2700  141.6680 C   0  0  0  0  0  2  0  0  0  0  0  0
  193.3890  174.4430  140.7500 O   0  0  0  0  0  0  0  0  0  0  0  0
  193.4920  175.8720  142.6310 C   0  0  2  0  0  3  0  0  0  0  0  0
  194.3980  175.3540  140.5320 C   0  0  0  0  0  0  0  0  0  0  0  0
  191.3100  174.8100  141.9140 C   0  0  0  0  0  2  0  0  0  0  0  0
  190.6270  174.0480  142.8650 O   0  0  0  0  0  1  0  0  0  0  0  0
  1  3  1  0  0  0  0
  1  4  1  0  0  0  0
  2  5  1  0  0  0  0
  2  4  2  0  0  0  0
  3 21  1  6  0  0  0
  3 16  1  0  0  0  0
  4 10  1  0  0  0  0
  5 15  1  0  0  0  0
  6 17  1  0  0  0  0
  6 18  1  0  0  0  0
  7  2  1  0  0  0  0
  9  8  1  6  0  0  0
  9 11  1  0  0  0  0
 10 12  1  6  0  0  0
 10 13  1  0  0  0  0
 11  5  1  0  0  0  0
 14 18  1  6  0  0  0
 14  9  1  0  0  0  0
 14  7  1  0  0  0  0
 15 19  1  6  0  0  0
 15 12  1  0  0  0  0
 16 13  1  0  0  0  0
 17  8  1  0  0  0  0
 19 20  1  0  0  0  0
 21 22  1  1  0  0  0
 23 21  1  0  0  0  0
 24 29  1  0  0  0  0
 24 26  1  1  0  0  0
 25 30  2  0  0  0  0
 27 29  1  0  0  0  0
 28 24  1  0  0  0  0
 29 23  1  1  0  0  0
 30 28  1  0  0  0  0
 30 27  1  0  0  0  0
 31 24  1  0  0  0  0
 31 32  1  0  0  0  0
M  END
>  <MODEL>
3

>  <REMARK>
 VINA RESULT:      -8.2      1.748      2.827
  Name = 
  5 active torsions:
  status: ('A' for Active; 'I' for Inactive)
    1  A    between atoms: C_3  and  C_22
    2  A    between atoms: C_4  and  C_24
    3  A    between atoms: C_13  and  C_29
    4  A    between atoms: O_16  and  C_20
    5  A    between atoms: O_16  and  C_24
                            x       y       z     vdW  Elec       q    Type
                         _______ _______ _______ _____ _____    ______ ____

>  <TORSDO>
F 5

$$$$
=
 OpenBabel11052419173D

 32 36  0  0  1  0  0  0  0  0999 V2000
  190.5730  176.1830  144.5600 O   0  0  0  0  0  0  0  0  0  0  0  0
  188.3370  176.9920  144.4640 C   0  0  0  0  0  0  0  0  0  0  0  0
  191.5340  175.3080  145.1590 C   0  0  2  0  0  3  0  0  0  0  0  0
  189.3650  176.5160  145.1880 C   0  0  0  0  0  0  0  0  0  0  0  0
  187.0730  177.3070  145.0970 N   0  0  0  0  0  0  0  0  0  0  0  0
  186.1410  177.5410  139.9960 C   0  0  0  0  0  2  0  0  0  0  0  0
  188.5250  177.2470  142.9940 C   0  0  0  0  0  2  0  0  0  0  0  0
  184.8280  177.8890  142.0920 C   0  0  0  0  0  2  0  0  0  0  0  0
  186.1190  177.9370  142.9060 C   0  0  1  0  0  3  0  0  0  0  0  0
  189.2660  176.4010  146.6930 C   0  0  1  0  0  3  0  0  0  0  0  0
  185.8530  177.3470  144.2830 C   0  0  0  0  0  2  0  0  0  0  0  0
  187.8280  176.2350  147.1640 C   0  0  0  0  0  2  0  0  0  0  0  0
  190.1400  175.2710  147.2160 C   0  0  0  0  0  2  0  0  0  0  0  0
  187.2190  177.1180  142.2210 C   0  0  1  0  0  3  0  0  0  0  0  0
  187.0030  177.3660  146.5700 C   0  0  2  0  0  3  0  0  0  0  0  0
  191.5540  175.4380  146.6800 C   0  0  0  0  0  2  0  0  0  0  0  0
  185.0730  178.3930  140.6740 C   0  0  0  0  0  2  0  0  0  0  0  0
  187.4420  177.6050  140.7910 C   0  0  0  0  0  2  0  0  0  0  0  0
  185.5820  177.3010  147.1210 C   0  0  0  0  0  2  0  0  0  0  0  0
  185.1600  178.6640  147.6340 C   0  0  0  0  0  1  0  0  0  0  0  0
  192.9230  175.5540  144.5790 C   0  0  1  0  0  3  0  0  0  0  0  0
  193.5080  176.8230  145.1690 C   0  0  0  0  0  1  0  0  0  0  0  0
  193.7690  174.4740  144.8570 O   0  0  0  0  0  0  0  0  0  0  0  0
  193.6320  172.0760  144.3130 C   0  0  2  0  0  0  0  0  0  0  0  0
  195.8950  172.0110  141.6400 O   0  0  0  0  0  0  0  0  0  0  0  0
  194.1910  171.9450  145.7240 C   0  0  0  0  0  1  0  0  0  0  0  0
  194.5830  173.7210  142.7260 C   0  0  0  0  0  2  0  0  0  0  0  0
  194.5170  171.4390  143.4090 O   0  0  0  0  0  0  0  0  0  0  0  0
  193.5390  173.5500  143.8310 C   0  0  2  0  0  3  0  0  0  0  0  0
  195.0630  172.3410  142.5240 C   0  0  0  0  0  0  0  0  0  0  0  0
  192.2630  171.4080  144.2650 C   0  0  0  0  0  2  0  0  0  0  0  0
  192.1880  170.5020  143.2050 O   0  0  0  0  0  1  0  0  0  0  0  0
  1  3  1  0  0  0  0
  1  4  1  0  0  0  0
  2  5  1  0  0  0  0
  2  4  2  0  0  0  0
  3 21  1  6  0  0  0
  3 16  1  0  0  0  0
  4 10  1  0  0  0  0
  5 15  1  0  0  0  0
  6 17  1  0  0  0  0
  6 18  1  0  0  0  0
  7  2  1  0  0  0  0
  9  8  1  6  0  0  0
  9 11  1  0  0  0  0
 10 12  1  6  0  0  0
 10 13  1  0  0  0  0
 11  5  1  0  0  0  0
 14 18  1  6  0  0  0
 14  9  1  0  0  0  0
 14  7  1  0  0  0  0
 15 19  1  6  0  0  0
 15 12  1  0  0  0  0
 16 13  1  0  0  0  0
 17  8  1  0  0  0  0
 19 20  1  0  0  0  0
 21 23  1  0  0  0  0
 21 22  1  1  0  0  0
 24 26  1  1  0  0  0
 25 30  2  0  0  0  0
 27 29  1  0  0  0  0
 28 24  1  0  0  0  0
 29 24  1  0  0  0  0
 29 23  1  1  0  0  0
 30 27  1  0  0  0  0
 30 28  1  0  0  0  0
 31 24  1  0  0  0  0
 32 31  1  0  0  0  0
M  END
>  <MODEL>
4

>  <REMARK>
 VINA RESULT:      -7.8      1.834      2.630
  Name = 
  5 active torsions:
  status: ('A' for Active; 'I' for Inactive)
    1  A    between atoms: C_3  and  C_22
    2  A    between atoms: C_4  and  C_24
    3  A    between atoms: C_13  and  C_29
    4  A    between atoms: O_16  and  C_20
    5  A    between atoms: O_16  and  C_24
                            x       y       z     vdW  Elec       q    Type
                         _______ _______ _______ _____ _____    ______ ____

>  <TORSDO>
F 5

$$$$
=
 OpenBabel11052419173D

 32 36  0  0  1  0  0  0  0  0999 V2000
  189.8760  174.6220  144.3470 O   0  0  0  0  0  0  0  0  0  0  0  0
  188.0020  176.0710  144.1220 C   0  0  0  0  0  0  0  0  0  0  0  0
  191.0940  174.1030  143.8040 C   0  0  2  0  0  3  0  0  0  0  0  0
  188.9120  175.2620  143.5550 C   0  0  0  0  0  0  0  0  0  0  0  0
  187.0230  176.7630  143.3090 N   0  0  0  0  0  0  0  0  0  0  0  0
  186.6180  178.8780  148.0330 C   0  0  0  0  0  2  0  0  0  0  0  0
  187.9720  176.2150  145.6190 C   0  0  0  0  0  2  0  0  0  0  0  0
  185.5010  179.1720  145.8180 C   0  0  0  0  0  2  0  0  0  0  0  0
  186.1050  177.8600  145.3260 C   0  0  1  0  0  3  0  0  0  0  0  0
  188.8700  174.9660  142.0710 C   0  0  1  0  0  3  0  0  0  0  0  0
  186.3820  177.9750  143.8340 C   0  0  0  0  0  2  0  0  0  0  0  0
  188.2120  176.0870  141.2800 C   0  0  0  0  0  2  0  0  0  0  0  0
  190.2600  174.6670  141.5320 C   0  0  0  0  0  2  0  0  0  0  0  0
  187.4250  177.5690  146.0520 C   0  0  1  0  0  3  0  0  0  0  0  0
  186.8510  176.3670  141.8980 C   0  0  2  0  0  3  0  0  0  0  0  0
  190.9080  173.5830  142.3800 C   0  0  0  0  0  2  0  0  0  0  0  0
  185.2890  179.1290  147.3270 C   0  0  0  0  0  2  0  0  0  0  0  0
  187.2150  177.5550  147.5640 C   0  0  0  0  0  2  0  0  0  0  0  0
  186.1130  177.4010  141.0540 C   0  0  0  0  0  2  0  0  0  0  0  0
  186.5770  177.3250  139.6130 C   0  0  0  0  0  1  0  0  0  0  0  0
  191.6640  173.0130  144.7050 C   0  0  1  0  0  3  0  0  0  0  0  0
  191.6610  171.6860  143.9710 C   0  0  0  0  0  1  0  0  0  0  0  0
  192.9710  173.3310  145.0950 O   0  0  0  0  0  0  0  0  0  0  0  0
  194.4940  175.0600  144.2230 C   0  0  2  0  0  0  0  0  0  0  0  0
  194.4190  177.2530  146.9540 O   0  0  0  0  0  0  0  0  0  0  0  0
  195.4830  173.9020  144.2650 C   0  0  0  0  0  1  0  0  0  0  0  0
  192.9810  175.4970  146.1330 C   0  0  0  0  0  2  0  0  0  0  0  0
  194.9940  176.1190  145.0190 O   0  0  0  0  0  0  0  0  0  0  0  0
  193.1110  174.6990  144.8340 C   0  0  2  0  0  3  0  0  0  0  0  0
  194.1690  176.3700  146.0940 C   0  0  0  0  0  0  0  0  0  0  0  0
  194.3380  175.5190  142.7780 C   0  0  0  0  0  2  0  0  0  0  0  0
  193.2980  176.4440  142.6590 O   0  0  0  0  0  1  0  0  0  0  0  0
  2  7  1  0  0  0  0
  3  1  1  0  0  0  0
  3 21  1  1  0  0  0
  4  2  2  0  0  0  0
  4  1  1  0  0  0  0
  5 11  1  0  0  0  0
  5  2  1  0  0  0  0
  8 17  1  0  0  0  0
  9 11  1  6  0  0  0
  9  8  1  0  0  0  0
  9 14  1  0  0  0  0
 10 12  1  6  0  0  0
 10  4  1  0  0  0  0
 12 15  1  0  0  0  0
 13 10  1  0  0  0  0
 13 16  1  0  0  0  0
 14  7  1  6  0  0  0
 14 18  1  0  0  0  0
 15 19  1  6  0  0  0
 15  5  1  0  0  0  0
 16  3  1  0  0  0  0
 17  6  1  0  0  0  0
 18  6  1  0  0  0  0
 20 19  1  0  0  0  0
 21 22  1  6  0  0  0
 21 23  1  0  0  0  0
 24 26  1  1  0  0  0
 24 29  1  0  0  0  0
 24 28  1  0  0  0  0
 28 30  1  0  0  0  0
 29 23  1  1  0  0  0
 29 27  1  0  0  0  0
 30 27  1  0  0  0  0
 30 25  2  0  0  0  0
 31 24  1  0  0  0  0
 32 31  1  0  0  0  0
M  END
>  <MODEL>
5

>  <REMARK>
 VINA RESULT:      -7.7      2.031      4.246
  Name = 
  5 active torsions:
  status: ('A' for Active; 'I' for Inactive)
    1  A    between atoms: C_3  and  C_22
    2  A    between atoms: C_4  and  C_24
    3  A    between atoms: C_13  and  C_29
    4  A    between atoms: O_16  and  C_20
    5  A    between atoms: O_16  and  C_24
                            x       y       z     vdW  Elec       q    Type
                         _______ _______ _______ _____ _____    ______ ____

>  <TORSDO>
F 5

$$$$
=
 OpenBabel11052419173D

 32 36  0  0  1  0  0  0  0  0999 V2000
  189.6660  175.7750  144.9260 O   0  0  0  0  0  0  0  0  0  0  0  0
  191.4230  174.4150  144.0760 C   0  0  0  0  0  0  0  0  0  0  0  0
  189.2570  176.8790  145.7390 C   0  0  2  0  0  3  0  0  0  0  0  0
  190.9130  175.1530  145.0760 C   0  0  0  0  0  0  0  0  0  0  0  0
  192.7260  173.7950  144.2080 N   0  0  0  0  0  0  0  0  0  0  0  0
  191.4470  173.2390  139.2070 C   0  0  0  0  0  2  0  0  0  0  0  0
  190.6080  174.1910  142.8320 C   0  0  0  0  0  2  0  0  0  0  0  0
  193.3740  172.6000  140.6630 C   0  0  0  0  0  2  0  0  0  0  0  0
  192.5460  172.9010  141.9100 C   0  0  1  0  0  3  0  0  0  0  0  0
  191.6320  175.2650  146.4030 C   0  0  1  0  0  3  0  0  0  0  0  0
  193.4710  173.4270  142.9980 C   0  0  0  0  0  2  0  0  0  0  0  0
  193.1340  175.0610  146.2620 C   0  0  0  0  0  2  0  0  0  0  0  0
  191.3270  176.5910  147.0820 C   0  0  0  0  0  2  0  0  0  0  0  0
  191.4840  173.9650  141.6070 C   0  0  1  0  0  3  0  0  0  0  0  0
  193.3670  173.7460  145.5360 C   0  0  2  0  0  3  0  0  0  0  0  0
  189.8200  176.7860  147.1550 C   0  0  0  0  0  2  0  0  0  0  0  0
  192.4710  172.1520  139.5190 C   0  0  0  0  0  2  0  0  0  0  0  0
  190.6000  173.5260  140.4420 C   0  0  0  0  0  2  0  0  0  0  0  0
  194.8630  173.4500  145.4860 C   0  0  0  0  0  2  0  0  0  0  0  0
  195.6520  174.6960  145.8390 C   0  0  0  0  0  1  0  0  0  0  0  0
  187.7360  176.9900  145.7710 C   0  0  1  0  0  3  0  0  0  0  0  0
  187.2850  177.4770  147.1360 C   0  0  0  0  0  1  0  0  0  0  0  0
  187.2870  177.8770  144.7850 O   0  0  0  0  0  0  0  0  0  0  0  0
  186.8230  177.1070  142.4920 C   0  0  2  0  0  0  0  0  0  0  0  0
  183.5190  178.2360  142.2160 O   0  0  0  0  0  0  0  0  0  0  0  0
  187.9420  178.0880  142.1680 C   0  0  0  0  0  1  0  0  0  0  0  0
  185.0050  177.7360  144.0500 C   0  0  0  0  0  2  0  0  0  0  0  0
  185.6620  177.4820  141.7730 O   0  0  0  0  0  0  0  0  0  0  0  0
  186.4090  177.1320  143.9900 C   0  0  2  0  0  3  0  0  0  0  0  0
  184.6420  177.8450  142.6250 C   0  0  0  0  0  0  0  0  0  0  0  0
  187.2650  175.7070  142.0810 C   0  0  0  0  0  2  0  0  0  0  0  0
  187.9170  175.7340  140.8460 O   0  0  0  0  0  1  0  0  0  0  0  0
  1  4  1  0  0  0  0
  1  3  1  0  0  0  0
  2  5  1  0  0  0  0
  2  4  2  0  0  0  0
  3 21  1  1  0  0  0
  3 16  1  0  0  0  0
  4 10  1  0  0  0  0
  5 15  1  0  0  0  0
  6 17  1  0  0  0  0
  6 18  1  0  0  0  0
  7  2  1  0  0  0  0
  9  8  1  6  0  0  0
  9 11  1  0  0  0  0
 10 12  1  6  0  0  0
 10 13  1  0  0  0  0
 11  5  1  0  0  0  0
 13 16  1  0  0  0  0
 14 18  1  6  0  0  0
 14  9  1  0  0  0  0
 14  7  1  0  0  0  0
 15 19  1  6  0  0  0
 15 12  1  0  0  0  0
 17  8  1  0  0  0  0
 19 20  1  0  0  0  0
 21 22  1  1  0  0  0
 23 21  1  0  0  0  0
 24 26  1  6  0  0  0
 24 29  1  0  0  0  0
 25 30  2  0  0  0  0
 28 24  1  0  0  0  0
 28 30  1  0  0  0  0
 29 27  1  0  0  0  0
 29 23  1  1  0  0  0
 30 27  1  0  0  0  0
 31 24  1  0  0  0  0
 32 31  1  0  0  0  0
M  END
>  <MODEL>
6

>  <REMARK>
 VINA RESULT:      -7.7      3.153      8.083
  Name = 
  5 active torsions:
  status: ('A' for Active; 'I' for Inactive)
    1  A    between atoms: C_3  and  C_22
    2  A    between atoms: C_4  and  C_24
    3  A    between atoms: C_13  and  C_29
    4  A    between atoms: O_16  and  C_20
    5  A    between atoms: O_16  and  C_24
                            x       y       z     vdW  Elec       q    Type
                         _______ _______ _______ _____ _____    ______ ____

>  <TORSDO>
F 5

$$$$
=
 OpenBabel11052419173D

 32 36  0  0  1  0  0  0  0  0999 V2000
  188.2830  174.1140  141.3130 O   0  0  0  0  0  0  0  0  0  0  0  0
  187.9620  175.6300  143.1190 C   0  0  0  0  0  0  0  0  0  0  0  0
  188.6320  172.8010  140.8640 C   0  0  2  0  0  3  0  0  0  0  0  0
  188.6250  174.5890  142.5870 C   0  0  0  0  0  0  0  0  0  0  0  0
  188.2840  176.1080  144.4480 N   0  0  0  0  0  0  0  0  0  0  0  0
  183.8910  178.5490  143.1480 C   0  0  0  0  0  2  0  0  0  0  0  0
  186.9130  176.3350  142.3020 C   0  0  0  0  0  2  0  0  0  0  0  0
  185.4320  178.5230  145.1130 C   0  0  0  0  0  2  0  0  0  0  0  0
  186.4950  177.8060  144.2860 C   0  0  1  0  0  3  0  0  0  0  0  0
  189.7940  173.9610  143.3130 C   0  0  1  0  0  3  0  0  0  0  0  0
  187.2830  176.8770  145.1970 C   0  0  0  0  0  2  0  0  0  0  0  0
  189.7030  174.1480  144.8210 C   0  0  0  0  0  2  0  0  0  0  0  0
  189.9330  172.4890  142.9580 C   0  0  0  0  0  2  0  0  0  0  0  0
  185.8420  176.9730  143.1760 C   0  0  1  0  0  3  0  0  0  0  0  0
  189.5180  175.6310  145.1030 C   0  0  2  0  0  3  0  0  0  0  0  0
  189.9650  172.3350  141.4440 C   0  0  0  0  0  2  0  0  0  0  0  0
  184.5630  179.4010  144.2200 C   0  0  0  0  0  2  0  0  0  0  0  0
  184.9490  177.8490  142.3010 C   0  0  0  0  0  2  0  0  0  0  0  0
  189.5460  175.8690  146.6090 C   0  0  0  0  0  2  0  0  0  0  0  0
  189.1690  174.5980  147.3450 C   0  0  0  0  0  1  0  0  0  0  0  0
  188.6580  172.7420  139.3400 C   0  0  1  0  0  3  0  0  0  0  0  0
  188.3090  174.1020  138.7670 C   0  0  0  0  0  1  0  0  0  0  0  0
  189.9230  172.3510  138.8860 O   0  0  0  0  0  0  0  0  0  0  0  0
  190.8710  170.1720  138.2370 C   0  0  2  0  0  0  0  0  0  0  0  0
  190.6390  170.5130  134.7580 O   0  0  0  0  0  0  0  0  0  0  0  0
  192.1010  170.7450  138.9290 C   0  0  0  0  0  1  0  0  0  0  0  0
  189.5590  171.5490  136.6510 C   0  0  0  0  0  2  0  0  0  0  0  0
  191.2070  169.8460  136.9000 O   0  0  0  0  0  0  0  0  0  0  0  0
  189.7030  171.1920  138.1320 C   0  0  2  0  0  3  0  0  0  0  0  0
  190.4940  170.6100  136.0030 C   0  0  0  0  0  0  0  0  0  0  0  0
  190.4250  168.9220  138.9850 C   0  0  0  0  0  2  0  0  0  0  0  0
  190.6810  169.0420  140.3530 O   0  0  0  0  0  1  0  0  0  0  0  0
  1  4  1  0  0  0  0
  2  5  1  0  0  0  0
  3 21  1  6  0  0  0
  3  1  1  0  0  0  0
  3 16  1  0  0  0  0
  4  2  2  0  0  0  0
  4 10  1  0  0  0  0
  5 15  1  0  0  0  0
  5 11  1  0  0  0  0
  6 17  1  0  0  0  0
  7  2  1  0  0  0  0
  7 14  1  0  0  0  0
  9  8  1  1  0  0  0
  9 11  1  0  0  0  0
 10 13  1  1  0  0  0
 10 12  1  0  0  0  0
 12 15  1  0  0  0  0
 14 18  1  6  0  0  0
 14  9  1  0  0  0  0
 15 19  1  1  0  0  0
 16 13  1  0  0  0  0
 17  8  1  0  0  0  0
 18  6  1  0  0  0  0
 19 20  1  0  0  0  0
 21 22  1  6  0  0  0
 23 21  1  0  0  0  0
 24 26  1  1  0  0  0
 24 31  1  0  0  0  0
 25 30  2  0  0  0  0
 27 29  1  0  0  0  0
 28 24  1  0  0  0  0
 29 24  1  0  0  0  0
 29 23  1  1  0  0  0
 30 27  1  0  0  0  0
 30 28  1  0  0  0  0
 31 32  1  0  0  0  0
M  END
>  <MODEL>
7

>  <REMARK>
 VINA RESULT:      -7.7      5.180      6.741
  Name = 
  5 active torsions:
  status: ('A' for Active; 'I' for Inactive)
    1  A    between atoms: C_3  and  C_22
    2  A    between atoms: C_4  and  C_24
    3  A    between atoms: C_13  and  C_29
    4  A    between atoms: O_16  and  C_20
    5  A    between atoms: O_16  and  C_24
                            x       y       z     vdW  Elec       q    Type
                         _______ _______ _______ _____ _____    ______ ____

>  <TORSDO>
F 5

$$$$
=
 OpenBabel11052419173D

 32 36  0  0  1  0  0  0  0  0999 V2000
  190.5480  176.6700  145.3470 O   0  0  0  0  0  0  0  0  0  0  0  0
  188.3690  177.2610  144.5960 C   0  0  0  0  0  0  0  0  0  0  0  0
  191.9670  176.7980  145.2100 C   0  0  2  0  0  3  0  0  0  0  0  0
  189.6590  177.0110  144.3180 C   0  0  0  0  0  0  0  0  0  0  0  0
  187.4490  177.6460  143.5450 N   0  0  0  0  0  0  0  0  0  0  0  0
  184.8750  178.4610  147.9790 C   0  0  0  0  0  2  0  0  0  0  0  0
  187.8690  177.0870  146.0040 C   0  0  0  0  0  2  0  0  0  0  0  0
  184.3980  178.7070  145.5390 C   0  0  0  0  0  2  0  0  0  0  0  0
  185.6290  177.8690  145.2020 C   0  0  1  0  0  3  0  0  0  0  0  0
  190.1600  177.0170  142.8900 C   0  0  1  0  0  3  0  0  0  0  0  0
  186.2230  178.3720  143.8950 C   0  0  0  0  0  2  0  0  0  0  0  0
  189.3200  177.9110  141.9890 C   0  0  0  0  0  2  0  0  0  0  0  0
  191.6280  177.4100  142.8260 C   0  0  0  0  0  2  0  0  0  0  0  0
  186.6850  177.9960  146.3070 C   0  0  1  0  0  3  0  0  0  0  0  0
  187.8650  177.4970  142.1370 C   0  0  2  0  0  3  0  0  0  0  0  0
  192.4280  176.5350  143.7790 C   0  0  0  0  0  2  0  0  0  0  0  0
  183.8220  178.2900  146.8880 C   0  0  0  0  0  2  0  0  0  0  0  0
  186.0970  177.6060  147.6610 C   0  0  0  0  0  2  0  0  0  0  0  0
  187.0080  178.2910  141.1560 C   0  0  0  0  0  2  0  0  0  0  0  0
  186.6900  177.4440  139.9390 C   0  0  0  0  0  1  0  0  0  0  0  0
  192.6880  175.8750  146.1870 C   0  0  1  0  0  3  0  0  0  0  0  0
  191.9030  175.7840  147.4820 C   0  0  0  0  0  1  0  0  0  0  0  0
  192.8350  174.5960  145.6370 O   0  0  0  0  0  0  0  0  0  0  0  0
  194.4800  173.2130  144.4330 C   0  0  2  0  0  0  0  0  0  0  0  0
  197.2460  173.7580  146.5130 O   0  0  0  0  0  0  0  0  0  0  0  0
  193.5070  172.1060  144.8170 C   0  0  0  0  0  1  0  0  0  0  0  0
  195.1710  174.9160  146.0920 C   0  0  0  0  0  2  0  0  0  0  0  0
  195.7580  172.9030  144.9600 O   0  0  0  0  0  0  0  0  0  0  0  0
  194.1030  174.5910  145.0460 C   0  0  2  0  0  3  0  0  0  0  0  0
  196.1540  173.8360  145.8930 C   0  0  0  0  0  0  0  0  0  0  0  0
  194.5470  173.3020  142.9140 C   0  0  0  0  0  2  0  0  0  0  0  0
  195.6080  174.1160  142.5090 O   0  0  0  0  0  1  0  0  0  0  0  0
  2  7  1  0  0  0  0
  3  1  1  0  0  0  0
  3 21  1  1  0  0  0
  4  2  2  0  0  0  0
  4  1  1  0  0  0  0
  5 11  1  0  0  0  0
  5  2  1  0  0  0  0
  8 17  1  0  0  0  0
  9 11  1  6  0  0  0
  9  8  1  0  0  0  0
  9 14  1  0  0  0  0
 10 12  1  6  0  0  0
 10  4  1  0  0  0  0
 12 15  1  0  0  0  0
 13 10  1  0  0  0  0
 13 16  1  0  0  0  0
 14  7  1  6  0  0  0
 14 18  1  0  0  0  0
 15 19  1  6  0  0  0
 15  5  1  0  0  0  0
 16  3  1  0  0  0  0
 17  6  1  0  0  0  0
 18  6  1  0  0  0  0
 20 19  1  0  0  0  0
 21 22  1  1  0  0  0
 23 21  1  0  0  0  0
 24 26  1  1  0  0  0
 24 28  1  0  0  0  0
 24 29  1  0  0  0  0
 28 30  1  0  0  0  0
 29 23  1  1  0  0  0
 29 27  1  0  0  0  0
 30 27  1  0  0  0  0
 30 25  2  0  0  0  0
 31 24  1  0  0  0  0
 32 31  1  0  0  0  0
M  END
>  <MODEL>
8

>  <REMARK>
 VINA RESULT:      -7.4      1.549      3.846
  Name = 
  5 active torsions:
  status: ('A' for Active; 'I' for Inactive)
    1  A    between atoms: C_3  and  C_22
    2  A    between atoms: C_4  and  C_24
    3  A    between atoms: C_13  and  C_29
    4  A    between atoms: O_16  and  C_20
    5  A    between atoms: O_16  and  C_24
                            x       y       z     vdW  Elec       q    Type
                         _______ _______ _______ _____ _____    ______ ____

>  <TORSDO>
F 5

$$$$
=
 OpenBabel11052419173D

 32 36  0  0  1  0  0  0  0  0999 V2000
  188.6300  174.1270  141.5000 O   0  0  0  0  0  0  0  0  0  0  0  0
  188.3910  175.4260  143.4790 C   0  0  0  0  0  0  0  0  0  0  0  0
  188.8010  172.8430  140.8910 C   0  0  2  0  0  3  0  0  0  0  0  0
  188.9220  174.3650  142.8500 C   0  0  0  0  0  0  0  0  0  0  0  0
  188.6590  175.6630  144.8820 N   0  0  0  0  0  0  0  0  0  0  0  0
  184.8660  178.9810  143.6410 C   0  0  0  0  0  2  0  0  0  0  0  0
  187.5530  176.4040  142.7000 C   0  0  0  0  0  2  0  0  0  0  0  0
  186.1890  178.4310  145.6860 C   0  0  0  0  0  2  0  0  0  0  0  0
  187.1940  177.6530  144.8410 C   0  0  1  0  0  3  0  0  0  0  0  0
  189.8990  173.4530  143.5590 C   0  0  1  0  0  3  0  0  0  0  0  0
  187.7310  176.4900  145.6610 C   0  0  0  0  0  2  0  0  0  0  0  0
  189.6980  173.4540  145.0680 C   0  0  0  0  0  2  0  0  0  0  0  0
  189.8300  172.0380  143.0050 C   0  0  0  0  0  2  0  0  0  0  0  0
  186.5220  177.0990  143.5790 C   0  0  1  0  0  3  0  0  0  0  0  0
  189.7310  174.8960  145.5470 C   0  0  2  0  0  3  0  0  0  0  0  0
  189.9790  172.0800  141.4920 C   0  0  0  0  0  2  0  0  0  0  0  0
  185.5630  179.5560  144.8700 C   0  0  0  0  0  2  0  0  0  0  0  0
  185.8700  178.2240  142.7780 C   0  0  0  0  0  2  0  0  0  0  0  0
  189.6540  174.9270  147.0700 C   0  0  0  0  0  2  0  0  0  0  0  0
  190.9120  175.5510  147.6430 C   0  0  0  0  0  1  0  0  0  0  0  0
  188.9610  172.9800  139.3810 C   0  0  1  0  0  3  0  0  0  0  0  0
  188.1950  174.1940  138.8910 C   0  0  0  0  0  1  0  0  0  0  0  0
  190.3130  173.1080  139.0400 O   0  0  0  0  0  0  0  0  0  0  0  0
  191.2240  171.4770  137.4340 C   0  0  2  0  0  0  0  0  0  0  0  0
  192.8320  173.7130  135.2690 O   0  0  0  0  0  0  0  0  0  0  0  0
  191.9830  171.0110  138.6700 C   0  0  0  0  0  1  0  0  0  0  0  0
  191.0550  173.8870  136.8930 C   0  0  0  0  0  2  0  0  0  0  0  0
  192.1580  171.8260  136.4280 O   0  0  0  0  0  0  0  0  0  0  0  0
  190.3870  172.7620  137.6860 C   0  0  2  0  0  3  0  0  0  0  0  0
  192.0850  173.1670  136.1210 C   0  0  0  0  0  0  0  0  0  0  0  0
  190.3310  170.3420  136.9500 C   0  0  0  0  0  2  0  0  0  0  0  0
  189.6840  169.7250  138.0230 O   0  0  0  0  0  1  0  0  0  0  0  0
  1  4  1  0  0  0  0
  2  5  1  0  0  0  0
  3 21  1  6  0  0  0
  3 16  1  0  0  0  0
  3  1  1  0  0  0  0
  4  2  2  0  0  0  0
  4 10  1  0  0  0  0
  5 15  1  0  0  0  0
  5 11  1  0  0  0  0
  6 17  1  0  0  0  0
  7  2  1  0  0  0  0
  9 11  1  1  0  0  0
  9  8  1  0  0  0  0
 10 13  1  6  0  0  0
 10 12  1  0  0  0  0
 12 15  1  0  0  0  0
 14  7  1  6  0  0  0
 14  9  1  0  0  0  0
 15 19  1  1  0  0  0
 16 13  1  0  0  0  0
 17  8  1  0  0  0  0
 18 14  1  0  0  0  0
 18  6  1  0  0  0  0
 19 20  1  0  0  0  0
 21 22  1  1  0  0  0
 23 21  1  0  0  0  0
 24 29  1  0  0  0  0
 24 26  1  1  0  0  0
 25 30  2  0  0  0  0
 27 29  1  0  0  0  0
 28 24  1  0  0  0  0
 29 23  1  1  0  0  0
 30 28  1  0  0  0  0
 30 27  1  0  0  0  0
 31 24  1  0  0  0  0
 31 32  1  0  0  0  0
M  END
>  <MODEL>
9

>  <REMARK>
 VINA RESULT:      -7.4      4.886      6.534
  Name = 
  5 active torsions:
  status: ('A' for Active; 'I' for Inactive)
    1  A    between atoms: C_3  and  C_22
    2  A    between atoms: C_4  and  C_24
    3  A    between atoms: C_13  and  C_29
    4  A    between atoms: O_16  and  C_20
    5  A    between atoms: O_16  and  C_24
                            x       y       z     vdW  Elec       q    Type
                         _______ _______ _______ _____ _____    ______ ____

>  <TORSDO>
F 5

$$$$
