=
 OpenBabel11052417113D

 30 32  0  0  1  0  0  0  0  0999 V2000
  186.0770  178.9660  144.9680 C   0  0  0  0  0  0  0  0  0  0  0  0
  185.5600  179.3470  146.1660 N   0  0  0  0  0  0  0  0  0  0  0  0
  185.3920  179.6570  143.5030 Cl  0  0  0  0  0  0  0  0  0  0  0  0
  187.6410  177.5050  146.1310 C   0  0  0  0  0  0  0  0  0  0  0  0
  186.0260  178.8510  147.3380 C   0  0  0  0  0  3  0  0  0  0  0  0
  187.1330  178.0350  144.9170 C   0  0  0  0  0  0  0  0  0  0  0  0
  187.0670  177.9260  147.3400 C   0  0  0  0  0  3  0  0  0  0  0  0
  190.2820  173.9590  145.4950 C   0  0  0  0  0  3  0  0  0  0  0  0
  191.0380  174.8950  144.9270 C   0  0  0  0  0  3  0  0  0  0  0  0
  189.5120  174.2040  146.7470 C   0  0  0  0  0  2  0  0  0  0  0  0
  190.1380  176.9900  145.9060 C   0  0  0  0  0  3  0  0  0  0  0  0
  188.4800  175.2610  146.5430 C   0  0  0  0  0  3  0  0  0  0  0  0
  191.1640  176.2950  145.3950 C   0  0  0  0  0  0  0  0  0  0  0  0
  188.7550  176.5210  146.1750 C   0  0  0  0  0  0  0  0  0  0  0  0
  193.7880  175.9450  146.6840 O   0  0  0  0  0  1  0  0  0  0  0  0
  193.6550  176.7750  145.7460 C   0  0  0  0  0  0  0  0  0  0  0  0
  192.3760  177.0220  145.1510 N   0  0  0  0  0  2  0  0  0  0  0  0
  194.7620  177.4820  145.2990 O   0  0  0  0  0  0  0  0  0  0  0  0
  187.6400  177.5720  143.5850 C   0  0  0  0  0  2  0  0  0  0  0  0
  186.5930  176.2310  142.9510 S   0  0  0  0  0  0  0  0  0  0  0  0
  188.0290  175.1270  142.7580 C   0  0  0  0  0  2  0  0  0  0  0  0
  188.6810  175.2210  141.3670 C   0  0  2  0  0  3  0  0  0  0  0  0
  187.7990  175.7260  140.4080 O   0  0  0  0  0  1  0  0  0  0  0  0
  189.3060  172.1730  139.2180 C   0  0  0  0  0  2  0  0  0  0  0  0
  189.3200  173.9850  140.8950 N   0  0  0  0  0  0  0  0  0  0  0  0
  189.9350  171.6630  141.6020 C   0  0  2  0  0  3  0  0  0  0  0  0
  189.4910  173.0700  142.0330 C   0  0  0  0  0  2  0  0  0  0  0  0
  188.5310  173.3390  139.8430 C   0  0  0  0  0  2  0  0  0  0  0  0
  191.0490  171.1790  142.5050 C   0  0  0  0  0  1  0  0  0  0  0  0
  190.3940  171.6290  140.1460 C   0  0  0  0  0  2  0  0  0  0  0  0
  1  2  1  0  0  0  0
  2  5  2  0  0  0  0
  3  1  1  0  0  0  0
  4 14  1  0  0  0  0
  4  7  2  0  0  0  0
  5  7  1  0  0  0  0
  6  1  2  0  0  0  0
  6  4  1  0  0  0  0
  8 10  1  0  0  0  0
  9 13  1  0  0  0  0
  9  8  2  0  0  0  0
 11 14  1  0  0  0  0
 12 10  1  0  0  0  0
 13 11  2  0  0  0  0
 14 12  2  0  0  0  0
 16 15  1  0  0  0  0
 17 13  1  0  0  0  0
 17 16  1  0  0  0  0
 18 16  2  0  0  0  0
 19  6  1  0  0  0  0
 20 19  1  0  0  0  0
 21 20  1  0  0  0  0
 22 23  1  6  0  0  0
 22 21  1  0  0  0  0
 24 28  1  0  0  0  0
 24 30  1  0  0  0  0
 25 22  1  0  0  0  0
 25 27  1  0  0  0  0
 26 27  1  0  0  0  0
 26 29  1  1  0  0  0
 28 25  1  0  0  0  0
 30 26  1  0  0  0  0
M  END
>  <MODEL>
1

>  <REMARK>
 VINA RESULT:      -7.0      0.000      0.000
  Name = 
  7 active torsions:
  status: ('A' for Active; 'I' for Inactive)
    1  A    between atoms: S_1  and  C_4
    2  A    between atoms: S_1  and  C_5
    3  A    between atoms: C_4  and  C_27
    4  A    between atoms: C_5  and  C_22
    5  A    between atoms: N_8  and  C_27
    6  A    between atoms: N_16  and  C_25
    7  A    between atoms: C_19  and  C_29
                            x       y       z     vdW  Elec       q    Type
                         _______ _______ _______ _____ _____    ______ ____

>  <TORSDO>
F 7

$$$$
=
 OpenBabel11052417113D

 30 32  0  0  1  0  0  0  0  0999 V2000
  185.8850  177.9520  140.9010 C   0  0  0  0  0  0  0  0  0  0  0  0
  184.5470  178.0080  140.6740 N   0  0  0  0  0  0  0  0  0  0  0  0
  186.9610  177.7910  139.5180 Cl  0  0  0  0  0  0  0  0  0  0  0  0
  185.4690  178.1370  143.2930 C   0  0  0  0  0  0  0  0  0  0  0  0
  183.6530  178.1200  141.6870 C   0  0  0  0  0  3  0  0  0  0  0  0
  186.3840  178.0160  142.2160 C   0  0  0  0  0  0  0  0  0  0  0  0
  184.0960  178.1840  143.0060 C   0  0  0  0  0  3  0  0  0  0  0  0
  185.5910  178.3510  147.7530 C   0  0  0  0  0  3  0  0  0  0  0  0
  186.1330  177.1480  147.5800 C   0  0  0  0  0  3  0  0  0  0  0  0
  185.9000  179.5030  146.8610 C   0  0  0  0  0  2  0  0  0  0  0  0
  186.8880  177.2250  145.2180 C   0  0  0  0  0  3  0  0  0  0  0  0
  185.4550  179.2320  145.4630 C   0  0  0  0  0  3  0  0  0  0  0  0
  187.0350  176.7660  146.4690 C   0  0  0  0  0  0  0  0  0  0  0  0
  185.9030  178.2150  144.7130 C   0  0  0  0  0  0  0  0  0  0  0  0
  189.9010  177.0680  147.0730 O   0  0  0  0  0  0  0  0  0  0  0  0
  189.3850  175.9200  147.0310 C   0  0  0  0  0  0  0  0  0  0  0  0
  188.0130  175.7360  146.6660 N   0  0  0  0  0  2  0  0  0  0  0  0
  190.1680  174.8100  147.3190 O   0  0  0  0  0  1  0  0  0  0  0  0
  187.8580  177.8780  142.4510 C   0  0  0  0  0  2  0  0  0  0  0  0
  188.3800  176.1660  142.1490 S   0  0  0  0  0  0  0  0  0  0  0  0
  189.8530  176.3710  143.1990 C   0  0  0  0  0  2  0  0  0  0  0  0
  191.1140  175.7140  142.6080 C   0  0  2  0  0  3  0  0  0  0  0  0
  190.7990  174.6880  141.7130 O   0  0  0  0  0  1  0  0  0  0  0  0
  192.8050  173.4520  145.1230 C   0  0  0  0  0  2  0  0  0  0  0  0
  192.1010  175.2620  143.5990 N   0  0  0  0  0  0  0  0  0  0  0  0
  193.1280  175.8550  145.8040 C   0  0  2  0  0  3  0  0  0  0  0  0
  192.2920  176.3210  144.6010 C   0  0  0  0  0  2  0  0  0  0  0  0
  191.6780  174.0200  144.2520 C   0  0  0  0  0  2  0  0  0  0  0  0
  194.1570  176.9090  146.1520 C   0  0  0  0  0  1  0  0  0  0  0  0
  193.8200  174.5200  145.5370 C   0  0  0  0  0  2  0  0  0  0  0  0
  1  6  1  0  0  0  0
  2  1  2  0  0  0  0
  2  5  1  0  0  0  0
  3  1  1  0  0  0  0
  4 14  1  0  0  0  0
  5  7  2  0  0  0  0
  6 19  1  0  0  0  0
  6  4  2  0  0  0  0
  7  4  1  0  0  0  0
  9  8  2  0  0  0  0
 10  8  1  0  0  0  0
 11 13  2  0  0  0  0
 12 10  1  0  0  0  0
 13 17  1  0  0  0  0
 13  9  1  0  0  0  0
 14 11  1  0  0  0  0
 14 12  2  0  0  0  0
 16 15  2  0  0  0  0
 16 18  1  0  0  0  0
 17 16  1  0  0  0  0
 20 19  1  0  0  0  0
 20 21  1  0  0  0  0
 22 23  1  1  0  0  0
 22 21  1  0  0  0  0
 22 25  1  0  0  0  0
 24 30  1  0  0  0  0
 25 28  1  0  0  0  0
 25 27  1  0  0  0  0
 26 29  1  6  0  0  0
 27 26  1  0  0  0  0
 28 24  1  0  0  0  0
 30 26  1  0  0  0  0
M  END
>  <MODEL>
2

>  <REMARK>
 VINA RESULT:      -7.0      2.955      4.982
  Name = 
  7 active torsions:
  status: ('A' for Active; 'I' for Inactive)
    1  A    between atoms: S_1  and  C_4
    2  A    between atoms: S_1  and  C_5
    3  A    between atoms: C_4  and  C_27
    4  A    between atoms: C_5  and  C_22
    5  A    between atoms: N_8  and  C_27
    6  A    between atoms: N_16  and  C_25
    7  A    between atoms: C_19  and  C_29
                            x       y       z     vdW  Elec       q    Type
                         _______ _______ _______ _____ _____    ______ ____

>  <TORSDO>
F 7

$$$$
=
 OpenBabel11052417113D

 30 32  0  0  1  0  0  0  0  0999 V2000
  189.4830  172.8390  141.3500 C   0  0  0  0  0  0  0  0  0  0  0  0
  189.9020  171.5680  141.5810 N   0  0  0  0  0  0  0  0  0  0  0  0
  188.7870  173.2180  139.7800 Cl  0  0  0  0  0  0  0  0  0  0  0  0
  190.1910  173.4600  143.5960 C   0  0  0  0  0  0  0  0  0  0  0  0
  190.4590  171.2000  142.7610 C   0  0  0  0  0  3  0  0  0  0  0  0
  189.6140  173.8210  142.3520 C   0  0  0  0  0  0  0  0  0  0  0  0
  190.6140  172.1350  143.7820 C   0  0  0  0  0  3  0  0  0  0  0  0
  190.7010  175.3630  147.6060 C   0  0  0  0  0  3  0  0  0  0  0  0
  191.8910  175.6450  147.0800 C   0  0  0  0  0  3  0  0  0  0  0  0
  189.4410  175.4280  146.8130 C   0  0  0  0  0  2  0  0  0  0  0  0
  191.4810  175.4060  144.6440 C   0  0  0  0  0  3  0  0  0  0  0  0
  189.4580  174.4370  145.6980 C   0  0  0  0  0  3  0  0  0  0  0  0
  192.1420  175.9810  145.6590 C   0  0  0  0  0  0  0  0  0  0  0  0
  190.3660  174.4270  144.7120 C   0  0  0  0  0  0  0  0  0  0  0  0
  195.0190  175.4380  145.9710 O   0  0  0  0  0  1  0  0  0  0  0  0
  194.6370  176.4990  145.4110 C   0  0  0  0  0  0  0  0  0  0  0  0
  193.2460  176.8270  145.3120 N   0  0  0  0  0  2  0  0  0  0  0  0
  195.5820  177.3800  144.9030 O   0  0  0  0  0  0  0  0  0  0  0  0
  189.2140  175.2340  142.0530 C   0  0  0  0  0  2  0  0  0  0  0  0
  187.4550  175.4770  142.4300 S   0  0  0  0  0  0  0  0  0  0  0  0
  187.5670  177.2590  142.0740 C   0  0  0  0  0  2  0  0  0  0  0  0
  187.6990  178.1220  143.3420 C   0  0  2  0  0  3  0  0  0  0  0  0
  188.8850  177.8620  144.0320 O   0  0  0  0  0  1  0  0  0  0  0  0
  184.4210  179.1360  144.9320 C   0  0  0  0  0  2  0  0  0  0  0  0
  186.5420  178.0750  144.2480 N   0  0  0  0  0  0  0  0  0  0  0  0
  185.9040  178.0770  146.6690 C   0  0  2  0  0  3  0  0  0  0  0  0
  187.0210  177.9040  145.6280 C   0  0  0  0  0  2  0  0  0  0  0  0
  185.7270  179.2880  144.1440 C   0  0  0  0  0  2  0  0  0  0  0  0
  185.9960  176.9770  147.7050 C   0  0  0  0  0  1  0  0  0  0  0  0
  184.5190  178.0720  146.0280 C   0  0  0  0  0  2  0  0  0  0  0  0
  1  2  2  0  0  0  0
  1  6  1  0  0  0  0
  2  5  1  0  0  0  0
  3  1  1  0  0  0  0
  4  7  1  0  0  0  0
  4 14  1  0  0  0  0
  5  7  2  0  0  0  0
  6  4  2  0  0  0  0
  9  8  2  0  0  0  0
 10  8  1  0  0  0  0
 11 14  1  0  0  0  0
 11 13  2  0  0  0  0
 12 10  1  0  0  0  0
 13  9  1  0  0  0  0
 14 12  2  0  0  0  0
 16 15  1  0  0  0  0
 17 16  1  0  0  0  0
 17 13  1  0  0  0  0
 18 16  2  0  0  0  0
 19  6  1  0  0  0  0
 19 20  1  0  0  0  0
 21 20  1  0  0  0  0
 21 22  1  0  0  0  0
 22 23  1  1  0  0  0
 22 25  1  0  0  0  0
 24 30  1  0  0  0  0
 25 27  1  0  0  0  0
 26 29  1  1  0  0  0
 27 26  1  0  0  0  0
 28 25  1  0  0  0  0
 28 24  1  0  0  0  0
 30 26  1  0  0  0  0
M  END
>  <MODEL>
3

>  <REMARK>
 VINA RESULT:      -7.0      2.158      5.941
  Name = 
  7 active torsions:
  status: ('A' for Active; 'I' for Inactive)
    1  A    between atoms: S_1  and  C_4
    2  A    between atoms: S_1  and  C_5
    3  A    between atoms: C_4  and  C_27
    4  A    between atoms: C_5  and  C_22
    5  A    between atoms: N_8  and  C_27
    6  A    between atoms: N_16  and  C_25
    7  A    between atoms: C_19  and  C_29
                            x       y       z     vdW  Elec       q    Type
                         _______ _______ _______ _____ _____    ______ ____

>  <TORSDO>
F 7

$$$$
=
 OpenBabel11052417113D

 30 32  0  0  1  0  0  0  0  0999 V2000
  190.7400  176.3280  145.7740 C   0  0  0  0  0  0  0  0  0  0  0  0
  190.8760  175.3770  146.7350 N   0  0  0  0  0  0  0  0  0  0  0  0
  192.1900  176.9260  144.9770 Cl  0  0  0  0  0  0  0  0  0  0  0  0
  188.3300  176.3060  146.1190 C   0  0  0  0  0  0  0  0  0  0  0  0
  189.8080  174.8750  147.4020 C   0  0  0  0  0  3  0  0  0  0  0  0
  189.4630  176.8190  145.4380 C   0  0  0  0  0  0  0  0  0  0  0  0
  188.5250  175.3290  147.1080 C   0  0  0  0  0  3  0  0  0  0  0  0
  184.5350  178.6470  145.8390 C   0  0  0  0  0  3  0  0  0  0  0  0
  184.8740  178.6290  144.5520 C   0  0  0  0  0  3  0  0  0  0  0  0
  184.7150  177.4650  146.7290 C   0  0  0  0  0  2  0  0  0  0  0  0
  186.4530  176.7190  144.4290 C   0  0  0  0  0  3  0  0  0  0  0  0
  186.1570  177.1070  146.8590 C   0  0  0  0  0  3  0  0  0  0  0  0
  185.5260  177.4980  143.8520 C   0  0  0  0  0  0  0  0  0  0  0  0
  186.9430  176.7600  145.8300 C   0  0  0  0  0  0  0  0  0  0  0  0
  187.0170  178.6670  141.5980 O   0  0  0  0  0  1  0  0  0  0  0  0
  186.0980  177.8330  141.3790 C   0  0  0  0  0  0  0  0  0  0  0  0
  185.3060  177.3050  142.4490 N   0  0  0  0  0  2  0  0  0  0  0  0
  185.8320  177.4390  140.0760 O   0  0  0  0  0  0  0  0  0  0  0  0
  189.3400  177.9190  144.4290 C   0  0  0  0  0  2  0  0  0  0  0  0
  190.2060  177.4620  142.9000 S   0  0  0  0  0  0  0  0  0  0  0  0
  189.1450  176.0000  142.6700 C   0  0  0  0  0  2  0  0  0  0  0  0
  189.8290  174.8750  141.8730 C   0  0  2  0  0  3  0  0  0  0  0  0
  189.0420  174.4360  140.8050 O   0  0  0  0  0  1  0  0  0  0  0  0
  189.8340  172.2320  144.5760 C   0  0  0  0  0  2  0  0  0  0  0  0
  190.3010  173.7410  142.6790 N   0  0  0  0  0  0  0  0  0  0  0  0
  192.1980  172.9710  144.1210 C   0  0  2  0  0  3  0  0  0  0  0  0
  191.6930  173.9870  143.0830 C   0  0  0  0  0  2  0  0  0  0  0  0
  189.4600  173.5360  143.8630 C   0  0  0  0  0  2  0  0  0  0  0  0
  193.5850  172.4980  143.7410 C   0  0  0  0  0  1  0  0  0  0  0  0
  191.2590  171.7740  144.2530 C   0  0  0  0  0  2  0  0  0  0  0  0
  1  2  1  0  0  0  0
  2  5  2  0  0  0  0
  3  1  1  0  0  0  0
  4  7  2  0  0  0  0
  6  1  2  0  0  0  0
  6  4  1  0  0  0  0
  7  5  1  0  0  0  0
  8 10  1  0  0  0  0
  9  8  2  0  0  0  0
 10 12  1  0  0  0  0
 11 14  1  0  0  0  0
 13 11  2  0  0  0  0
 13  9  1  0  0  0  0
 14  4  1  0  0  0  0
 14 12  2  0  0  0  0
 16 15  1  0  0  0  0
 16 17  1  0  0  0  0
 17 13  1  0  0  0  0
 18 16  2  0  0  0  0
 19  6  1  0  0  0  0
 20 19  1  0  0  0  0
 21 20  1  0  0  0  0
 22 23  1  6  0  0  0
 22 21  1  0  0  0  0
 22 25  1  0  0  0  0
 25 27  1  0  0  0  0
 25 28  1  0  0  0  0
 26 29  1  6  0  0  0
 26 30  1  0  0  0  0
 27 26  1  0  0  0  0
 28 24  1  0  0  0  0
 30 24  1  0  0  0  0
M  END
>  <MODEL>
4

>  <REMARK>
 VINA RESULT:      -6.9      3.224      5.247
  Name = 
  7 active torsions:
  status: ('A' for Active; 'I' for Inactive)
    1  A    between atoms: S_1  and  C_4
    2  A    between atoms: S_1  and  C_5
    3  A    between atoms: C_4  and  C_27
    4  A    between atoms: C_5  and  C_22
    5  A    between atoms: N_8  and  C_27
    6  A    between atoms: N_16  and  C_25
    7  A    between atoms: C_19  and  C_29
                            x       y       z     vdW  Elec       q    Type
                         _______ _______ _______ _____ _____    ______ ____

>  <TORSDO>
F 7

$$$$
=
 OpenBabel11052417113D

 30 32  0  0  1  0  0  0  0  0999 V2000
  186.1140  178.4560  146.8870 C   0  0  0  0  0  0  0  0  0  0  0  0
  184.8230  178.8340  147.0750 N   0  0  0  0  0  0  0  0  0  0  0  0
  187.2240  178.5620  148.2470 Cl  0  0  0  0  0  0  0  0  0  0  0  0
  185.6040  177.9430  144.5620 C   0  0  0  0  0  0  0  0  0  0  0  0
  183.9110  178.7920  146.0730 C   0  0  0  0  0  3  0  0  0  0  0  0
  186.5420  177.9990  145.6250 C   0  0  0  0  0  0  0  0  0  0  0  0
  184.2840  178.3500  144.8070 C   0  0  0  0  0  3  0  0  0  0  0  0
  187.3950  177.4870  140.4940 C   0  0  0  0  0  3  0  0  0  0  0  0
  187.9120  176.4100  141.0800 C   0  0  0  0  0  3  0  0  0  0  0  0
  185.9940  177.9330  140.7370 C   0  0  0  0  0  2  0  0  0  0  0  0
  186.4010  176.0640  143.0170 C   0  0  0  0  0  3  0  0  0  0  0  0
  185.7920  178.3100  142.1660 C   0  0  0  0  0  3  0  0  0  0  0  0
  187.2230  175.5640  142.0830 C   0  0  0  0  0  0  0  0  0  0  0  0
  185.9630  177.4710  143.1970 C   0  0  0  0  0  0  0  0  0  0  0  0
  189.7330  174.3670  143.0510 O   0  0  0  0  0  1  0  0  0  0  0  0
  188.7620  173.6270  142.7390 C   0  0  0  0  0  0  0  0  0  0  0  0
  187.5570  174.1750  142.1940 N   0  0  0  0  0  2  0  0  0  0  0  0
  188.8730  172.2530  142.9010 O   0  0  0  0  0  0  0  0  0  0  0  0
  187.9860  177.6580  145.4170 C   0  0  0  0  0  2  0  0  0  0  0  0
  188.3400  176.0090  146.0910 S   0  0  0  0  0  0  0  0  0  0  0  0
  190.1360  176.2720  145.9390 C   0  0  0  0  0  2  0  0  0  0  0  0
  190.9670  175.2040  146.6710 C   0  0  2  0  0  3  0  0  0  0  0  0
  190.6310  175.1150  148.0240 O   0  0  0  0  0  1  0  0  0  0  0  0
  194.3070  176.8000  145.8990 C   0  0  0  0  0  2  0  0  0  0  0  0
  192.4220  175.3230  146.4980 N   0  0  0  0  0  0  0  0  0  0  0  0
  194.3650  174.3710  145.2380 C   0  0  2  0  0  3  0  0  0  0  0  0
  192.8990  174.2070  145.6680 C   0  0  0  0  0  2  0  0  0  0  0  0
  192.7870  176.6020  145.8810 C   0  0  0  0  0  2  0  0  0  0  0  0
  195.1020  173.0620  145.4210 C   0  0  0  0  0  1  0  0  0  0  0  0
  195.0690  175.4780  146.0190 C   0  0  0  0  0  2  0  0  0  0  0  0
  1  2  1  0  0  0  0
  1  3  1  0  0  0  0
  4  7  2  0  0  0  0
  4  6  1  0  0  0  0
  5  2  2  0  0  0  0
  6  1  2  0  0  0  0
  7  5  1  0  0  0  0
  8 10  1  0  0  0  0
  8  9  2  0  0  0  0
  9 13  1  0  0  0  0
 10 12  1  0  0  0  0
 11 14  1  0  0  0  0
 12 14  2  0  0  0  0
 13 17  1  0  0  0  0
 13 11  2  0  0  0  0
 14  4  1  0  0  0  0
 16 18  2  0  0  0  0
 16 15  1  0  0  0  0
 17 16  1  0  0  0  0
 19  6  1  0  0  0  0
 19 20  1  0  0  0  0
 21 20  1  0  0  0  0
 21 22  1  0  0  0  0
 22 23  1  1  0  0  0
 24 30  1  0  0  0  0
 25 22  1  0  0  0  0
 26 29  1  1  0  0  0
 26 27  1  0  0  0  0
 26 30  1  0  0  0  0
 27 25  1  0  0  0  0
 28 24  1  0  0  0  0
 28 25  1  0  0  0  0
M  END
>  <MODEL>
5

>  <REMARK>
 VINA RESULT:      -6.8      2.526      5.713
  Name = 
  7 active torsions:
  status: ('A' for Active; 'I' for Inactive)
    1  A    between atoms: S_1  and  C_4
    2  A    between atoms: S_1  and  C_5
    3  A    between atoms: C_4  and  C_27
    4  A    between atoms: C_5  and  C_22
    5  A    between atoms: N_8  and  C_27
    6  A    between atoms: N_16  and  C_25
    7  A    between atoms: C_19  and  C_29
                            x       y       z     vdW  Elec       q    Type
                         _______ _______ _______ _____ _____    ______ ____

>  <TORSDO>
F 7

$$$$
=
 OpenBabel11052417113D

 30 32  0  0  1  0  0  0  0  0999 V2000
  190.6240  176.0190  146.4350 C   0  0  0  0  0  0  0  0  0  0  0  0
  190.2770  175.0590  147.3320 N   0  0  0  0  0  0  0  0  0  0  0  0
  192.3330  176.2880  146.1160 Cl  0  0  0  0  0  0  0  0  0  0  0  0
  188.2660  176.5220  146.0930 C   0  0  0  0  0  0  0  0  0  0  0  0
  188.9830  174.8000  147.6410 C   0  0  0  0  0  3  0  0  0  0  0  0
  189.6280  176.7770  145.7900 C   0  0  0  0  0  0  0  0  0  0  0  0
  187.9620  175.5240  147.0310 C   0  0  0  0  0  3  0  0  0  0  0  0
  185.5480  179.7110  144.5420 C   0  0  0  0  0  3  0  0  0  0  0  0
  185.9480  179.1870  143.3860 C   0  0  0  0  0  3  0  0  0  0  0  0
  185.2450  178.8740  145.7370 C   0  0  0  0  0  2  0  0  0  0  0  0
  186.7710  176.9450  144.0590 C   0  0  0  0  0  3  0  0  0  0  0  0
  186.4610  178.1470  146.2040 C   0  0  0  0  0  3  0  0  0  0  0  0
  186.2140  177.7500  143.1420 C   0  0  0  0  0  0  0  0  0  0  0  0
  187.1470  177.2690  145.4580 C   0  0  0  0  0  0  0  0  0  0  0  0
  187.8960  178.1630  140.7610 O   0  0  0  0  0  1  0  0  0  0  0  0
  186.9190  177.3700  140.7110 C   0  0  0  0  0  0  0  0  0  0  0  0
  186.0380  177.2050  141.8280 N   0  0  0  0  0  2  0  0  0  0  0  0
  186.6750  176.6620  139.5420 O   0  0  0  0  0  0  0  0  0  0  0  0
  190.0310  177.8810  144.8600 C   0  0  0  0  0  2  0  0  0  0  0  0
  190.1060  177.2630  143.1540 S   0  0  0  0  0  0  0  0  0  0  0  0
  191.9110  177.4950  143.0900 C   0  0  0  0  0  2  0  0  0  0  0  0
  192.6570  176.2790  142.5100 C   0  0  2  0  0  3  0  0  0  0  0  0
  192.1180  175.0710  142.9600 O   0  0  0  0  0  1  0  0  0  0  0  0
  196.3150  176.5700  141.5970 C   0  0  0  0  0  2  0  0  0  0  0  0
  194.1150  176.3040  142.6870 N   0  0  0  0  0  0  0  0  0  0  0  0
  196.0500  174.9320  143.4910 C   0  0  2  0  0  3  0  0  0  0  0  0
  194.5240  175.1190  143.4550 C   0  0  0  0  0  2  0  0  0  0  0  0
  194.8130  176.3340  141.3980 C   0  0  0  0  0  2  0  0  0  0  0  0
  196.4910  174.5960  144.8990 C   0  0  0  0  0  1  0  0  0  0  0  0
  196.7890  176.1730  142.9970 C   0  0  0  0  0  2  0  0  0  0  0  0
  1  2  1  0  0  0  0
  2  5  2  0  0  0  0
  3  1  1  0  0  0  0
  4  7  2  0  0  0  0
  6  4  1  0  0  0  0
  6  1  2  0  0  0  0
  7  5  1  0  0  0  0
  8 10  1  0  0  0  0
  9  8  2  0  0  0  0
 10 12  1  0  0  0  0
 11 14  1  0  0  0  0
 13  9  1  0  0  0  0
 13 11  2  0  0  0  0
 14  4  1  0  0  0  0
 14 12  2  0  0  0  0
 16 15  1  0  0  0  0
 16 17  1  0  0  0  0
 17 13  1  0  0  0  0
 18 16  2  0  0  0  0
 19  6  1  0  0  0  0
 20 19  1  0  0  0  0
 21 20  1  0  0  0  0
 22 25  1  0  0  0  0
 22 23  1  1  0  0  0
 22 21  1  0  0  0  0
 24 30  1  0  0  0  0
 25 27  1  0  0  0  0
 26 29  1  1  0  0  0
 27 26  1  0  0  0  0
 28 24  1  0  0  0  0
 28 25  1  0  0  0  0
 30 26  1  0  0  0  0
M  END
>  <MODEL>
6

>  <REMARK>
 VINA RESULT:      -6.7      3.574      6.128
  Name = 
  7 active torsions:
  status: ('A' for Active; 'I' for Inactive)
    1  A    between atoms: S_1  and  C_4
    2  A    between atoms: S_1  and  C_5
    3  A    between atoms: C_4  and  C_27
    4  A    between atoms: C_5  and  C_22
    5  A    between atoms: N_8  and  C_27
    6  A    between atoms: N_16  and  C_25
    7  A    between atoms: C_19  and  C_29
                            x       y       z     vdW  Elec       q    Type
                         _______ _______ _______ _____ _____    ______ ____

>  <TORSDO>
F 7

$$$$
=
 OpenBabel11052417113D

 30 32  0  0  1  0  0  0  0  0999 V2000
  189.7650  172.5000  141.2310 C   0  0  0  0  0  0  0  0  0  0  0  0
  190.1190  171.1910  141.3170 N   0  0  0  0  0  0  0  0  0  0  0  0
  188.9250  173.0460  139.7850 Cl  0  0  0  0  0  0  0  0  0  0  0  0
  190.7620  172.8940  143.4170 C   0  0  0  0  0  0  0  0  0  0  0  0
  190.7780  170.6970  142.3930 C   0  0  0  0  0  3  0  0  0  0  0  0
  190.0760  173.3880  142.2790 C   0  0  0  0  0  0  0  0  0  0  0  0
  191.1110  171.5350  143.4540 C   0  0  0  0  0  3  0  0  0  0  0  0
  192.3980  176.1260  146.0320 C   0  0  0  0  0  3  0  0  0  0  0  0
  191.0980  176.3770  146.1660 C   0  0  0  0  0  3  0  0  0  0  0  0
  192.9440  174.7400  145.9890 C   0  0  0  0  0  2  0  0  0  0  0  0
  190.0550  174.2320  145.4810 C   0  0  0  0  0  3  0  0  0  0  0  0
  192.4260  173.9970  144.8030 C   0  0  0  0  0  3  0  0  0  0  0  0
  190.0270  175.3540  146.2150 C   0  0  0  0  0  0  0  0  0  0  0  0
  191.1280  173.7550  144.5730 C   0  0  0  0  0  0  0  0  0  0  0  0
  187.7830  177.0900  145.4310 O   0  0  0  0  0  0  0  0  0  0  0  0
  187.7140  176.4160  146.4930 C   0  0  0  0  0  0  0  0  0  0  0  0
  188.8190  175.6210  146.9390 N   0  0  0  0  0  2  0  0  0  0  0  0
  186.5580  176.4640  147.2580 O   0  0  0  0  0  1  0  0  0  0  0  0
  189.7430  174.8420  142.1330 C   0  0  0  0  0  2  0  0  0  0  0  0
  187.9720  175.1100  142.4340 S   0  0  0  0  0  0  0  0  0  0  0  0
  187.8150  176.1260  140.9310 C   0  0  0  0  0  2  0  0  0  0  0  0
  187.5040  177.6040  141.2300 C   0  0  2  0  0  3  0  0  0  0  0  0
  188.5640  178.2410  141.8790 O   0  0  0  0  0  1  0  0  0  0  0  0
  183.8190  178.2980  141.7250 C   0  0  0  0  0  2  0  0  0  0  0  0
  186.2360  177.8410  141.9360 N   0  0  0  0  0  0  0  0  0  0  0  0
  185.1320  179.3550  143.5960 C   0  0  2  0  0  3  0  0  0  0  0  0
  186.4460  178.8710  142.9640 C   0  0  0  0  0  2  0  0  0  0  0  0
  185.1770  178.2590  141.0130 C   0  0  0  0  0  2  0  0  0  0  0  0
  185.2860  179.4340  145.1000 C   0  0  0  0  0  1  0  0  0  0  0  0
  183.9580  178.4450  143.2420 C   0  0  0  0  0  2  0  0  0  0  0  0
  1  2  2  0  0  0  0
  1  6  1  0  0  0  0
  2  5  1  0  0  0  0
  3  1  1  0  0  0  0
  4  7  1  0  0  0  0
  4 14  1  0  0  0  0
  5  7  2  0  0  0  0
  6  4  2  0  0  0  0
  8  9  2  0  0  0  0
  9 13  1  0  0  0  0
 10  8  1  0  0  0  0
 11 13  2  0  0  0  0
 12 10  1  0  0  0  0
 13 17  1  0  0  0  0
 14 12  2  0  0  0  0
 14 11  1  0  0  0  0
 15 16  2  0  0  0  0
 16 17  1  0  0  0  0
 16 18  1  0  0  0  0
 19  6  1  0  0  0  0
 19 20  1  0  0  0  0
 21 22  1  0  0  0  0
 21 20  1  0  0  0  0
 22 23  1  1  0  0  0
 22 25  1  0  0  0  0
 24 30  1  0  0  0  0
 25 27  1  0  0  0  0
 26 29  1  1  0  0  0
 27 26  1  0  0  0  0
 28 24  1  0  0  0  0
 28 25  1  0  0  0  0
 30 26  1  0  0  0  0
M  END
>  <MODEL>
7

>  <REMARK>
 VINA RESULT:      -6.7      3.055      6.477
  Name = 
  7 active torsions:
  status: ('A' for Active; 'I' for Inactive)
    1  A    between atoms: S_1  and  C_4
    2  A    between atoms: S_1  and  C_5
    3  A    between atoms: C_4  and  C_27
    4  A    between atoms: C_5  and  C_22
    5  A    between atoms: N_8  and  C_27
    6  A    between atoms: N_16  and  C_25
    7  A    between atoms: C_19  and  C_29
                            x       y       z     vdW  Elec       q    Type
                         _______ _______ _______ _____ _____    ______ ____

>  <TORSDO>
F 7

$$$$
=
 OpenBabel11052417113D

 30 32  0  0  1  0  0  0  0  0999 V2000
  185.2400  178.2910  143.2460 C   0  0  0  0  0  0  0  0  0  0  0  0
  184.9240  179.4390  143.9010 N   0  0  0  0  0  0  0  0  0  0  0  0
  184.3840  177.9140  141.7570 Cl  0  0  0  0  0  0  0  0  0  0  0  0
  186.8790  177.7800  144.9740 C   0  0  0  0  0  0  0  0  0  0  0  0
  185.5310  179.7930  145.0600 C   0  0  0  0  0  3  0  0  0  0  0  0
  186.2270  177.4290  143.7640 C   0  0  0  0  0  0  0  0  0  0  0  0
  186.5120  178.9740  145.6140 C   0  0  0  0  0  3  0  0  0  0  0  0
  189.3190  174.3590  146.4900 C   0  0  0  0  0  3  0  0  0  0  0  0
  190.1310  174.7940  145.5290 C   0  0  0  0  0  3  0  0  0  0  0  0
  188.5550  175.2870  147.3720 C   0  0  0  0  0  2  0  0  0  0  0  0
  189.3440  177.1190  145.1620 C   0  0  0  0  0  3  0  0  0  0  0  0
  187.5870  176.1010  146.5820 C   0  0  0  0  0  3  0  0  0  0  0  0
  190.3330  176.2130  145.1550 C   0  0  0  0  0  0  0  0  0  0  0  0
  187.9350  176.9360  145.5930 C   0  0  0  0  0  0  0  0  0  0  0  0
  192.9550  176.3760  146.4860 O   0  0  0  0  0  1  0  0  0  0  0  0
  192.8570  176.6280  145.2560 C   0  0  0  0  0  0  0  0  0  0  0  0
  191.5860  176.6310  144.5970 N   0  0  0  0  0  2  0  0  0  0  0  0
  194.0000  176.9350  144.5310 O   0  0  0  0  0  0  0  0  0  0  0  0
  186.5090  176.1330  143.0680 C   0  0  0  0  0  2  0  0  0  0  0  0
  187.8100  176.3630  141.8230 S   0  0  0  0  0  0  0  0  0  0  0  0
  187.9810  174.5650  141.5890 C   0  0  0  0  0  2  0  0  0  0  0  0
  189.0300  174.1910  140.5260 C   0  0  2  0  0  3  0  0  0  0  0  0
  188.4440  173.6350  139.3860 O   0  0  0  0  0  1  0  0  0  0  0  0
  190.7920  171.1940  142.0130 C   0  0  0  0  0  2  0  0  0  0  0  0
  190.1350  173.3530  141.0120 N   0  0  0  0  0  0  0  0  0  0  0  0
  192.0190  173.2960  142.6600 C   0  0  2  0  0  3  0  0  0  0  0  0
  190.9750  174.1470  141.9200 C   0  0  0  0  0  2  0  0  0  0  0  0
  189.6400  172.1560  141.7000 C   0  0  0  0  0  2  0  0  0  0  0  0
  193.3610  173.9950  142.6350 C   0  0  0  0  0  1  0  0  0  0  0  0
  192.1490  171.8990  142.0560 C   0  0  0  0  0  2  0  0  0  0  0  0
  1  6  2  0  0  0  0
  1  2  1  0  0  0  0
  2  5  2  0  0  0  0
  3  1  1  0  0  0  0
  4 14  1  0  0  0  0
  4  7  2  0  0  0  0
  5  7  1  0  0  0  0
  6  4  1  0  0  0  0
  8 10  1  0  0  0  0
  9  8  2  0  0  0  0
 11 14  1  0  0  0  0
 12 10  1  0  0  0  0
 13 11  2  0  0  0  0
 13  9  1  0  0  0  0
 14 12  2  0  0  0  0
 16 15  1  0  0  0  0
 17 13  1  0  0  0  0
 17 16  1  0  0  0  0
 18 16  2  0  0  0  0
 19  6  1  0  0  0  0
 20 19  1  0  0  0  0
 21 20  1  0  0  0  0
 22 23  1  6  0  0  0
 22 25  1  0  0  0  0
 22 21  1  0  0  0  0
 24 30  1  0  0  0  0
 25 28  1  0  0  0  0
 25 27  1  0  0  0  0
 26 29  1  6  0  0  0
 27 26  1  0  0  0  0
 28 24  1  0  0  0  0
 30 26  1  0  0  0  0
M  END
>  <MODEL>
8

>  <REMARK>
 VINA RESULT:      -6.7      1.516      1.935
  Name = 
  7 active torsions:
  status: ('A' for Active; 'I' for Inactive)
    1  A    between atoms: S_1  and  C_4
    2  A    between atoms: S_1  and  C_5
    3  A    between atoms: C_4  and  C_27
    4  A    between atoms: C_5  and  C_22
    5  A    between atoms: N_8  and  C_27
    6  A    between atoms: N_16  and  C_25
    7  A    between atoms: C_19  and  C_29
                            x       y       z     vdW  Elec       q    Type
                         _______ _______ _______ _____ _____    ______ ____

>  <TORSDO>
F 7

$$$$
=
 OpenBabel11052417113D

 30 32  0  0  1  0  0  0  0  0999 V2000
  194.8940  176.4910  144.7460 C   0  0  0  0  0  0  0  0  0  0  0  0
  196.0100  176.1520  144.0500 N   0  0  0  0  0  0  0  0  0  0  0  0
  194.9640  177.8910  145.8100 Cl  0  0  0  0  0  0  0  0  0  0  0  0
  193.7220  174.6040  143.7490 C   0  0  0  0  0  0  0  0  0  0  0  0
  196.0380  175.0810  143.2190 C   0  0  0  0  0  3  0  0  0  0  0  0
  193.7180  175.7270  144.6150 C   0  0  0  0  0  0  0  0  0  0  0  0
  194.9020  174.2930  143.0570 C   0  0  0  0  0  3  0  0  0  0  0  0
  189.9780  172.2300  144.3020 C   0  0  0  0  0  3  0  0  0  0  0  0
  189.5100  173.1900  143.5080 C   0  0  0  0  0  3  0  0  0  0  0  0
  191.3250  171.6200  144.1100 C   0  0  0  0  0  2  0  0  0  0  0  0
  191.5730  174.0850  142.4590 C   0  0  0  0  0  3  0  0  0  0  0  0
  192.4030  172.6360  144.2900 C   0  0  0  0  0  3  0  0  0  0  0  0
  190.2580  173.8270  142.3990 C   0  0  0  0  0  0  0  0  0  0  0  0
  192.5270  173.7420  143.5440 C   0  0  0  0  0  0  0  0  0  0  0  0
  189.3570  172.4000  139.9870 O   0  0  0  0  0  1  0  0  0  0  0  0
  189.0620  173.6140  140.1460 C   0  0  0  0  0  0  0  0  0  0  0  0
  189.5490  174.3540  141.2710 N   0  0  0  0  0  2  0  0  0  0  0  0
  188.2720  174.2530  139.2010 O   0  0  0  0  0  0  0  0  0  0  0  0
  192.5200  176.0730  145.4470 C   0  0  0  0  0  2  0  0  0  0  0  0
  191.4360  177.2100  144.5370 S   0  0  0  0  0  0  0  0  0  0  0  0
  190.1150  177.0320  145.7790 C   0  0  0  0  0  2  0  0  0  0  0  0
  188.7450  176.7010  145.1600 C   0  0  2  0  0  3  0  0  0  0  0  0
  188.7870  176.7010  143.7640 O   0  0  0  0  0  1  0  0  0  0  0  0
  185.7100  177.6600  147.2010 C   0  0  0  0  0  2  0  0  0  0  0  0
  187.6280  177.5180  145.6530 N   0  0  0  0  0  0  0  0  0  0  0  0
  185.5510  178.7080  144.9170 C   0  0  2  0  0  3  0  0  0  0  0  0
  186.8710  178.0370  144.5040 C   0  0  0  0  0  2  0  0  0  0  0  0
  186.7440  176.7470  146.5320 C   0  0  0  0  0  2  0  0  0  0  0  0
  185.3850  180.0140  144.1700 C   0  0  0  0  0  1  0  0  0  0  0  0
  185.4830  178.9580  146.4220 C   0  0  0  0  0  2  0  0  0  0  0  0
  1  3  1  0  0  0  0
  2  1  2  0  0  0  0
  4  6  2  0  0  0  0
  5  2  1  0  0  0  0
  6  1  1  0  0  0  0
  6 19  1  0  0  0  0
  7  5  2  0  0  0  0
  7  4  1  0  0  0  0
  9  8  2  0  0  0  0
 10 12  1  0  0  0  0
 10  8  1  0  0  0  0
 11 14  1  0  0  0  0
 13 11  2  0  0  0  0
 13  9  1  0  0  0  0
 14  4  1  0  0  0  0
 14 12  2  0  0  0  0
 15 16  1  0  0  0  0
 16 17  1  0  0  0  0
 17 13  1  0  0  0  0
 18 16  2  0  0  0  0
 20 19  1  0  0  0  0
 20 21  1  0  0  0  0
 22 23  1  6  0  0  0
 22 25  1  0  0  0  0
 22 21  1  0  0  0  0
 25 28  1  0  0  0  0
 26 29  1  6  0  0  0
 26 30  1  0  0  0  0
 27 26  1  0  0  0  0
 27 25  1  0  0  0  0
 28 24  1  0  0  0  0
 30 24  1  0  0  0  0
M  END
>  <MODEL>
9

>  <REMARK>
 VINA RESULT:      -6.5      3.108      7.461
  Name = 
  7 active torsions:
  status: ('A' for Active; 'I' for Inactive)
    1  A    between atoms: S_1  and  C_4
    2  A    between atoms: S_1  and  C_5
    3  A    between atoms: C_4  and  C_27
    4  A    between atoms: C_5  and  C_22
    5  A    between atoms: N_8  and  C_27
    6  A    between atoms: N_16  and  C_25
    7  A    between atoms: C_19  and  C_29
                            x       y       z     vdW  Elec       q    Type
                         _______ _______ _______ _____ _____    ______ ____

>  <TORSDO>
F 7

$$$$
