=
 OpenBabel11052419323D

 55 59  0  0  1  0  0  0  0  0999 V2000
  196.3330  173.7300  140.2570 C   0  0  0  0  0  3  0  0  0  0  0  0
  193.6320  176.2650  145.7900 C   0  0  0  0  0  2  0  0  0  0  0  0
  192.5340  173.1520  144.8490 O   0  0  0  0  0  0  0  0  0  0  0  0
  190.5110  170.8120  142.7160 C   0  0  0  0  0  3  0  0  0  0  0  0
  190.6380  169.9130  141.6550 C   0  0  0  0  0  3  0  0  0  0  0  0
  192.9140  171.1610  142.7230 C   0  0  0  0  0  0  0  0  0  0  0  0
  193.0290  170.2590  141.6520 C   0  0  0  0  0  3  0  0  0  0  0  0
  190.3050  172.5760  144.8720 O   0  0  0  0  0  0  0  0  0  0  0  0
  191.8980  169.6390  141.1220 C   0  0  0  0  0  3  0  0  0  0  0  0
  191.6380  171.4470  143.2590 C   0  0  0  0  0  0  0  0  0  0  0  0
  197.4440  173.0180  142.3070 C   0  0  0  0  0  2  0  0  0  0  0  0
  196.2570  175.9310  141.4750 C   0  0  0  0  0  2  0  0  0  0  0  0
  196.1900  172.8240  143.1600 C   0  0  0  0  0  2  0  0  0  0  0  0
  196.1590  176.3090  144.5710 O   0  0  0  0  0  1  0  0  0  0  0  0
  194.0510  171.7760  143.2600 O   0  0  0  0  0  0  0  0  0  0  0  0
  193.7420  174.7780  146.1210 C   0  0  0  0  0  2  0  0  0  0  0  0
  192.4130  174.0750  145.9210 C   0  0  0  0  0  2  0  0  0  0  0  0
  193.7750  176.5880  144.2970 C   0  0  1  0  0  3  0  0  0  0  0  0
  197.1740  172.9750  140.8830 N   0  0  0  0  0  0  0  0  0  0  0  0
  191.4510  172.4110  144.3690 C   0  0  0  0  0  0  0  0  0  0  0  0
  195.4550  174.7530  140.9240 C   0  0  1  0  0  3  0  0  0  0  0  0
  195.0960  176.0830  143.6950 C   0  0  1  0  0  3  0  0  0  0  0  0
  195.3650  171.6160  142.7430 C   0  0  2  0  0  3  0  0  0  0  0  0
  195.3880  176.7940  142.3800 C   0  0  0  0  0  2  0  0  0  0  0  0
  195.9760  170.3520  143.2540 C   0  0  0  0  0  0  0  0  0  0  0  0
  196.5330  168.8250  144.7990 C   0  0  0  0  0  0  0  0  0  0  0  0
  196.6050  169.4450  142.4020 C   0  0  0  0  0  3  0  0  0  0  0  0
  197.1170  168.1660  143.3700 S   0  0  0  0  0  0  0  0  0  0  0  0
  195.9280  170.0080  144.5710 N   0  0  0  0  0  0  0  0  0  0  0  0
  196.5900  168.1670  146.1390 C   0  0  0  0  0  3  0  0  0  0  0  0
  195.4230  168.6330  146.9890 C   0  0  0  0  0  2  0  0  0  0  0  0
  196.8000  169.2110  147.2210 C   0  0  0  0  0  2  0  0  0  0  0  0
  194.3270  175.1950  139.9910 C   0  0  0  0  0  2  0  0  0  0  0  0
  192.0720  172.0210  138.5880 C   0  0  0  0  0  1  0  0  0  0  0  0
  192.8680  173.1440  139.0830 C   0  0  0  0  0  0  0  0  0  0  0  0
  193.5250  174.0690  139.4910 C   0  0  0  0  0  0  0  0  0  0  0  0
  192.5660  176.0730  143.5240 C   0  0  0  0  0  2  0  0  0  0  0  0
  192.0060  177.1390  142.6060 C   0  0  0  0  0  2  0  0  0  0  0  0
  190.8450  177.8290  143.2960 C   0  0  0  0  0  2  0  0  0  0  0  0
  190.0300  176.8160  144.0870 C   0  0  2  0  0  3  0  0  0  0  0  0
  189.2800  174.8880  142.5860 C   0  0  0  0  0  1  0  0  0  0  0  0
  188.8950  176.2020  143.2530 C   0  0  2  0  0  3  0  0  0  0  0  0
  188.3610  177.1990  142.2330 C   0  0  0  0  0  2  0  0  0  0  0  0
  186.5690  178.7010  142.4200 C   0  0  1  0  0  3  0  0  0  0  0  0
  186.9120  177.2750  142.3120 N   0  0  0  0  0  0  0  0  0  0  0  0
  186.4680  178.0260  141.1310 C   0  0  0  0  0  2  0  0  0  0  0  0
  185.1870  178.8310  143.0330 C   0  0  0  0  0  2  0  0  0  0  0  0
  185.2120  179.7830  144.2180 C   0  0  0  0  0  2  0  0  0  0  0  0
  183.7820  178.8720  145.8960 O   0  0  0  0  0  0  0  0  0  0  0  0
  186.0280  178.6020  146.2570 O   0  0  0  0  0  1  0  0  0  0  0  0
  184.9600  179.0520  145.4930 C   0  0  0  0  0  0  0  0  0  0  0  0
  189.6340  177.3210  145.4830 C   0  0  0  0  0  2  0  0  0  0  0  0
  187.8490  175.9460  146.5530 O   0  0  0  0  0  0  0  0  0  0  0  0
  190.0480  175.5940  147.0880 O   0  0  0  0  0  1  0  0  0  0  0  0
  189.1990  176.2380  146.4180 C   0  0  0  0  0  0  0  0  0  0  0  0
  1 19  2  0  0  0  0
  1 21  1  0  0  0  0
  2 16  1  0  0  0  0
  3 17  1  0  0  0  0
  4 10  1  0  0  0  0
  5  4  2  0  0  0  0
  6 10  2  0  0  0  0
  6 15  1  0  0  0  0
  7  6  1  0  0  0  0
  9  7  2  0  0  0  0
  9  5  1  0  0  0  0
 10 20  1  0  0  0  0
 11 13  1  0  0  0  0
 12 24  1  0  0  0  0
 17 16  1  0  0  0  0
 18 37  1  6  0  0  0
 18  2  1  0  0  0  0
 19 11  1  0  0  0  0
 20  3  1  0  0  0  0
 20  8  2  0  0  0  0
 21 33  1  6  0  0  0
 21 12  1  0  0  0  0
 22 18  1  0  0  0  0
 22 14  1  1  0  0  0
 23 13  1  0  0  0  0
 23 25  1  1  0  0  0
 23 15  1  0  0  0  0
 24 22  1  0  0  0  0
 25 29  1  0  0  0  0
 26 30  1  0  0  0  0
 27 25  2  0  0  0  0
 27 28  1  0  0  0  0
 28 26  1  0  0  0  0
 29 26  2  0  0  0  0
 30 31  1  0  0  0  0
 30 32  1  0  0  0  0
 31 32  1  0  0  0  0
 34 35  1  0  0  0  0
 35 36  3  0  0  0  0
 36 33  1  0  0  0  0
 38 39  1  0  0  0  0
 38 37  1  0  0  0  0
 40 39  1  6  0  0  0
 40 52  1  0  0  0  0
 42 41  1  6  0  0  0
 42 40  1  0  0  0  0
 43 45  1  0  0  0  0
 43 42  1  0  0  0  0
 44 47  1  1  0  0  0
 45 44  1  0  0  0  0
 46 45  1  0  0  0  0
 46 44  1  0  0  0  0
 47 48  1  0  0  0  0
 48 51  1  0  0  0  0
 51 49  2  0  0  0  0
 51 50  1  0  0  0  0
 52 55  1  0  0  0  0
 55 53  2  0  0  0  0
 55 54  1  0  0  0  0
M  END
>  <MODEL>
1

>  <REMARK>
 VINA RESULT:      -6.6      0.000      0.000
  Name = 
  16 active torsions:
  status: ('A' for Active; 'I' for Inactive)
    1  A    between atoms: C_3  and  C_14
    2  A    between atoms: C_6  and  C_14
    3  A    between atoms: C_6  and  C_38
    4  A    between atoms: C_7  and  N_21
    5  A    between atoms: C_7  and  C_46
    6  A    between atoms: C_8  and  C_20
    7  A    between atoms: C_8  and  C_22
    8  A    between atoms: C_10  and  C_32
    9  A    between atoms: C_12  and  C_20
   10  A    between atoms: C_12  and  C_42
   11  A    between atoms: C_12  and  C_46
   12  A    between atoms: C_13  and  C_52
   13  A    between atoms: C_22  and  C_43
   14  A    between atoms: C_27  and  C_49
   15  A    between atoms: C_27  and  C_55
   16  A    between atoms: C_42  and  C_50
                            x       y       z     vdW  Elec       q    Type
                         _______ _______ _______ _____ _____    ______ ____

>  <TORSDO>
F 16

$$$$
=
 OpenBabel11052419323D

 55 59  0  0  1  0  0  0  0  0999 V2000
  196.5820  174.8250  142.1410 C   0  0  0  0  0  3  0  0  0  0  0  0
  192.0670  176.0510  146.8790 C   0  0  0  0  0  2  0  0  0  0  0  0
  191.5550  173.2380  144.9800 O   0  0  0  0  0  0  0  0  0  0  0  0
  190.5000  171.4520  141.8470 C   0  0  0  0  0  3  0  0  0  0  0  0
  191.0260  170.8170  140.7210 C   0  0  0  0  0  3  0  0  0  0  0  0
  192.7410  171.7790  142.7230 C   0  0  0  0  0  0  0  0  0  0  0  0
  193.2590  171.1440  141.5830 C   0  0  0  0  0  3  0  0  0  0  0  0
  189.4840  172.6820  144.1400 O   0  0  0  0  0  0  0  0  0  0  0  0
  192.4060  170.6650  140.5880 C   0  0  0  0  0  3  0  0  0  0  0  0
  191.3430  171.9430  142.8560 C   0  0  0  0  0  0  0  0  0  0  0  0
  197.0190  173.6620  144.2380 C   0  0  0  0  0  2  0  0  0  0  0  0
  195.9610  176.6930  143.7090 C   0  0  0  0  0  2  0  0  0  0  0  0
  195.5750  173.2850  144.5650 C   0  0  0  0  0  2  0  0  0  0  0  0
  194.8420  176.3600  146.6030 O   0  0  0  0  0  1  0  0  0  0  0  0
  193.5970  172.2520  143.7250 O   0  0  0  0  0  0  0  0  0  0  0  0
  192.1700  174.5280  146.8990 C   0  0  0  0  0  2  0  0  0  0  0  0
  191.0300  173.8940  146.1240 C   0  0  0  0  0  2  0  0  0  0  0  0
  192.6620  176.7040  145.6240 C   0  0  1  0  0  3  0  0  0  0  0  0
  197.2270  173.9440  142.8310 N   0  0  0  0  0  0  0  0  0  0  0  0
  190.7400  172.6300  144.0210 C   0  0  0  0  0  0  0  0  0  0  0  0
  195.4660  175.6740  142.6840 C   0  0  1  0  0  3  0  0  0  0  0  0
  194.1380  176.3430  145.3980 C   0  0  1  0  0  3  0  0  0  0  0  0
  195.0160  172.2070  143.6500 C   0  0  2  0  0  3  0  0  0  0  0  0
  194.7890  177.3320  144.4400 C   0  0  0  0  0  2  0  0  0  0  0  0
  195.5160  170.8570  144.0490 C   0  0  0  0  0  0  0  0  0  0  0  0
  195.7320  169.0620  145.3750 C   0  0  0  0  0  0  0  0  0  0  0  0
  196.3430  170.1050  143.2130 C   0  0  0  0  0  3  0  0  0  0  0  0
  196.6430  168.6600  144.0240 S   0  0  0  0  0  0  0  0  0  0  0  0
  195.1720  170.2800  145.2330 N   0  0  0  0  0  0  0  0  0  0  0  0
  195.4900  168.1700  146.5490 C   0  0  0  0  0  3  0  0  0  0  0  0
  194.7610  168.9380  147.6350 C   0  0  0  0  0  2  0  0  0  0  0  0
  196.2460  168.6890  147.7590 C   0  0  0  0  0  2  0  0  0  0  0  0
  194.6720  176.3220  141.5490 C   0  0  0  0  0  2  0  0  0  0  0  0
  193.0170  173.5520  138.9560 C   0  0  0  0  0  1  0  0  0  0  0  0
  193.6020  174.5300  139.8740 C   0  0  0  0  0  0  0  0  0  0  0  0
  194.0830  175.3370  140.6300 C   0  0  0  0  0  0  0  0  0  0  0  0
  191.8060  176.3830  144.4030 C   0  0  0  0  0  2  0  0  0  0  0  0
  190.6280  177.3280  144.2940 C   0  0  0  0  0  2  0  0  0  0  0  0
  189.3870  176.5350  143.9350 C   0  0  0  0  0  2  0  0  0  0  0  0
  189.0800  176.6880  142.4520 C   0  0  2  0  0  3  0  0  0  0  0  0
  187.4050  177.6470  140.7760 C   0  0  0  0  0  1  0  0  0  0  0  0
  187.6400  177.1600  142.2000 C   0  0  2  0  0  3  0  0  0  0  0  0
  187.2210  178.2140  143.2160 C   0  0  0  0  0  2  0  0  0  0  0  0
  185.6890  178.6230  144.9440 C   0  0  1  0  0  3  0  0  0  0  0  0
  185.8390  178.0100  143.6150 N   0  0  0  0  0  0  0  0  0  0  0  0
  185.2440  179.3450  143.7570 C   0  0  0  0  0  2  0  0  0  0  0  0
  184.4890  178.0050  145.6390 C   0  0  0  0  0  2  0  0  0  0  0  0
  184.4730  178.3770  147.1130 C   0  0  0  0  0  2  0  0  0  0  0  0
  186.4720  178.9490  148.2820 O   0  0  0  0  0  1  0  0  0  0  0  0
  186.2330  176.7330  147.7560 O   0  0  0  0  0  0  0  0  0  0  0  0
  185.7730  178.0420  147.7610 C   0  0  0  0  0  0  0  0  0  0  0  0
  189.5450  175.4870  141.6140 C   0  0  0  0  0  2  0  0  0  0  0  0
  188.0230  174.5210  139.8900 O   0  0  0  0  0  0  0  0  0  0  0  0
  187.8810  173.8290  142.0690 O   0  0  0  0  0  1  0  0  0  0  0  0
  188.4400  174.5630  141.2130 C   0  0  0  0  0  0  0  0  0  0  0  0
  1 21  1  0  0  0  0
  1 19  2  0  0  0  0
  2 16  1  0  0  0  0
  3 17  1  0  0  0  0
  4 10  1  0  0  0  0
  5  4  2  0  0  0  0
  6 10  2  0  0  0  0
  6 15  1  0  0  0  0
  7  6  1  0  0  0  0
  9  5  1  0  0  0  0
  9  7  2  0  0  0  0
 10 20  1  0  0  0  0
 11 13  1  0  0  0  0
 12 24  1  0  0  0  0
 17 16  1  0  0  0  0
 18 37  1  6  0  0  0
 18  2  1  0  0  0  0
 19 11  1  0  0  0  0
 20  8  2  0  0  0  0
 20  3  1  0  0  0  0
 21 33  1  6  0  0  0
 21 12  1  0  0  0  0
 22 18  1  0  0  0  0
 22 14  1  1  0  0  0
 23 15  1  0  0  0  0
 23 25  1  1  0  0  0
 23 13  1  0  0  0  0
 24 22  1  0  0  0  0
 25 29  1  0  0  0  0
 26 30  1  0  0  0  0
 27 28  1  0  0  0  0
 27 25  2  0  0  0  0
 28 26  1  0  0  0  0
 29 26  2  0  0  0  0
 30 31  1  0  0  0  0
 30 32  1  0  0  0  0
 31 32  1  0  0  0  0
 34 35  1  0  0  0  0
 35 36  3  0  0  0  0
 36 33  1  0  0  0  0
 38 37  1  0  0  0  0
 39 38  1  0  0  0  0
 40 52  1  6  0  0  0
 40 39  1  0  0  0  0
 42 41  1  6  0  0  0
 42 40  1  0  0  0  0
 42 43  1  0  0  0  0
 43 45  1  0  0  0  0
 44 47  1  1  0  0  0
 45 46  1  0  0  0  0
 45 44  1  0  0  0  0
 46 44  1  0  0  0  0
 47 48  1  0  0  0  0
 48 51  1  0  0  0  0
 50 51  2  0  0  0  0
 51 49  1  0  0  0  0
 53 55  2  0  0  0  0
 55 52  1  0  0  0  0
 55 54  1  0  0  0  0
M  END
>  <MODEL>
2

>  <REMARK>
 VINA RESULT:      -6.6      1.568      2.391
  Name = 
  16 active torsions:
  status: ('A' for Active; 'I' for Inactive)
    1  A    between atoms: C_3  and  C_14
    2  A    between atoms: C_6  and  C_14
    3  A    between atoms: C_6  and  C_38
    4  A    between atoms: C_7  and  N_21
    5  A    between atoms: C_7  and  C_46
    6  A    between atoms: C_8  and  C_20
    7  A    between atoms: C_8  and  C_22
    8  A    between atoms: C_10  and  C_32
    9  A    between atoms: C_12  and  C_20
   10  A    between atoms: C_12  and  C_42
   11  A    between atoms: C_12  and  C_46
   12  A    between atoms: C_13  and  C_52
   13  A    between atoms: C_22  and  C_43
   14  A    between atoms: C_27  and  C_49
   15  A    between atoms: C_27  and  C_55
   16  A    between atoms: C_42  and  C_50
                            x       y       z     vdW  Elec       q    Type
                         _______ _______ _______ _____ _____    ______ ____

>  <TORSDO>
F 16

$$$$
=
 OpenBabel11052419323D

 55 59  0  0  1  0  0  0  0  0999 V2000
  196.8210  175.4800  143.6940 C   0  0  0  0  0  3  0  0  0  0  0  0
  190.4840  174.1800  145.2740 C   0  0  0  0  0  2  0  0  0  0  0  0
  191.9570  172.0520  143.0200 O   0  0  0  0  0  0  0  0  0  0  0  0
  193.2290  171.1410  139.6030 C   0  0  0  0  0  3  0  0  0  0  0  0
  194.4140  171.0150  138.8760 C   0  0  0  0  0  3  0  0  0  0  0  0
  194.5020  171.6540  141.6070 C   0  0  0  0  0  0  0  0  0  0  0  0
  195.6870  171.5290  140.8640 C   0  0  0  0  0  3  0  0  0  0  0  0
  190.8840  171.3530  141.1070 O   0  0  0  0  0  0  0  0  0  0  0  0
  195.6430  171.2120  139.5060 C   0  0  0  0  0  3  0  0  0  0  0  0
  193.2550  171.4640  140.9690 C   0  0  0  0  0  0  0  0  0  0  0  0
  196.5710  173.8470  145.4870 C   0  0  0  0  0  2  0  0  0  0  0  0
  194.9200  176.5920  144.9130 C   0  0  0  0  0  2  0  0  0  0  0  0
  195.3800  173.0870  144.9040 C   0  0  0  0  0  2  0  0  0  0  0  0
  192.7460  175.1470  146.6240 O   0  0  0  0  0  1  0  0  0  0  0  0
  194.5480  171.9650  142.9710 O   0  0  0  0  0  0  0  0  0  0  0  0
  191.0850  172.7850  145.1240 C   0  0  0  0  0  2  0  0  0  0  0  0
  190.7580  172.1930  143.7660 C   0  0  0  0  0  2  0  0  0  0  0  0
  191.3390  175.3010  144.6670 C   0  0  1  0  0  3  0  0  0  0  0  0
  197.3150  174.5880  144.4880 N   0  0  0  0  0  0  0  0  0  0  0  0
  191.9710  171.6110  141.6940 C   0  0  0  0  0  0  0  0  0  0  0  0
  195.3660  175.8580  143.6490 C   0  0  1  0  0  3  0  0  0  0  0  0
  192.7620  175.3530  145.2430 C   0  0  1  0  0  3  0  0  0  0  0  0
  195.7430  172.2520  143.6850 C   0  0  2  0  0  3  0  0  0  0  0  0
  193.4030  176.7050  144.9600 C   0  0  0  0  0  2  0  0  0  0  0  0
  196.4230  170.9850  144.0910 C   0  0  0  0  0  0  0  0  0  0  0  0
  196.7860  169.1680  145.3550 C   0  0  0  0  0  0  0  0  0  0  0  0
  197.4730  170.4470  143.3470 C   0  0  0  0  0  3  0  0  0  0  0  0
  197.9220  169.0240  144.1280 S   0  0  0  0  0  0  0  0  0  0  0  0
  196.0390  170.2780  145.1890 N   0  0  0  0  0  0  0  0  0  0  0  0
  196.5600  168.1700  146.4430 C   0  0  0  0  0  3  0  0  0  0  0  0
  195.4220  168.6330  147.3340 C   0  0  0  0  0  2  0  0  0  0  0  0
  196.8510  168.8010  147.7940 C   0  0  0  0  0  2  0  0  0  0  0  0
  195.0450  176.6400  142.3740 C   0  0  0  0  0  2  0  0  0  0  0  0
  196.2960  174.6970  138.9400 C   0  0  0  0  0  1  0  0  0  0  0  0
  195.8530  175.3820  140.1550 C   0  0  0  0  0  0  0  0  0  0  0  0
  195.4880  175.9480  141.1550 C   0  0  0  0  0  0  0  0  0  0  0  0
  191.3460  175.1980  143.1460 C   0  0  0  0  0  2  0  0  0  0  0  0
  190.5920  176.3490  142.5130 C   0  0  0  0  0  2  0  0  0  0  0  0
  189.1210  176.2320  142.8610 C   0  0  0  0  0  2  0  0  0  0  0  0
  188.3310  175.7780  141.6420 C   0  0  2  0  0  3  0  0  0  0  0  0
  186.9170  177.0380  139.9270 C   0  0  0  0  0  1  0  0  0  0  0  0
  187.0940  176.6520  141.3890 C   0  0  2  0  0  3  0  0  0  0  0  0
  187.1000  177.8850  142.2850 C   0  0  0  0  0  2  0  0  0  0  0  0
  186.2400  178.8230  144.2540 C   0  0  1  0  0  3  0  0  0  0  0  0
  185.9510  177.8690  143.1730 N   0  0  0  0  0  0  0  0  0  0  0  0
  185.3820  179.2230  143.1440 C   0  0  0  0  0  2  0  0  0  0  0  0
  185.3810  178.4790  145.4580 C   0  0  0  0  0  2  0  0  0  0  0  0
  186.0760  178.8880  146.7470 C   0  0  0  0  0  2  0  0  0  0  0  0
  188.0750  177.7300  147.3420 O   0  0  0  0  0  0  0  0  0  0  0  0
  186.1190  176.6540  147.8530 O   0  0  0  0  0  1  0  0  0  0  0  0
  186.8170  177.7370  147.3390 C   0  0  0  0  0  0  0  0  0  0  0  0
  188.0920  174.2590  141.6110 C   0  0  0  0  0  2  0  0  0  0  0  0
  189.6620  174.0940  139.6810 O   0  0  0  0  0  0  0  0  0  0  0  0
  187.9400  172.6000  139.8940 O   0  0  0  0  0  1  0  0  0  0  0  0
  188.5540  173.5990  140.3520 C   0  0  0  0  0  0  0  0  0  0  0  0
  1 19  2  0  0  0  0
  3 17  1  0  0  0  0
  4 10  1  0  0  0  0
  5  9  1  0  0  0  0
  5  4  2  0  0  0  0
  6 15  1  0  0  0  0
  7  6  1  0  0  0  0
  8 20  2  0  0  0  0
  9  7  2  0  0  0  0
 10  6  2  0  0  0  0
 10 20  1  0  0  0  0
 12 24  1  0  0  0  0
 13 11  1  0  0  0  0
 15 23  1  0  0  0  0
 16  2  1  0  0  0  0
 17 16  1  0  0  0  0
 18 37  1  6  0  0  0
 18 22  1  0  0  0  0
 18  2  1  0  0  0  0
 19 11  1  0  0  0  0
 20  3  1  0  0  0  0
 21 33  1  6  0  0  0
 21  1  1  0  0  0  0
 21 12  1  0  0  0  0
 22 14  1  1  0  0  0
 23 25  1  1  0  0  0
 23 13  1  0  0  0  0
 24 22  1  0  0  0  0
 25 29  1  0  0  0  0
 26 30  1  0  0  0  0
 27 25  2  0  0  0  0
 27 28  1  0  0  0  0
 28 26  1  0  0  0  0
 29 26  2  0  0  0  0
 30 31  1  0  0  0  0
 30 32  1  0  0  0  0
 31 32  1  0  0  0  0
 34 35  1  0  0  0  0
 35 36  3  0  0  0  0
 36 33  1  0  0  0  0
 38 39  1  0  0  0  0
 38 37  1  0  0  0  0
 40 52  1  1  0  0  0
 40 39  1  0  0  0  0
 42 41  1  6  0  0  0
 42 40  1  0  0  0  0
 42 43  1  0  0  0  0
 43 45  1  0  0  0  0
 44 47  1  1  0  0  0
 45 44  1  0  0  0  0
 46 45  1  0  0  0  0
 46 44  1  0  0  0  0
 47 48  1  0  0  0  0
 48 51  1  0  0  0  0
 51 49  2  0  0  0  0
 51 50  1  0  0  0  0
 53 55  2  0  0  0  0
 54 55  1  0  0  0  0
 55 52  1  0  0  0  0
M  END
>  <MODEL>
3

>  <REMARK>
 VINA RESULT:      -6.5      1.991      3.378
  Name = 
  16 active torsions:
  status: ('A' for Active; 'I' for Inactive)
    1  A    between atoms: C_3  and  C_14
    2  A    between atoms: C_6  and  C_14
    3  A    between atoms: C_6  and  C_38
    4  A    between atoms: C_7  and  N_21
    5  A    between atoms: C_7  and  C_46
    6  A    between atoms: C_8  and  C_20
    7  A    between atoms: C_8  and  C_22
    8  A    between atoms: C_10  and  C_32
    9  A    between atoms: C_12  and  C_20
   10  A    between atoms: C_12  and  C_42
   11  A    between atoms: C_12  and  C_46
   12  A    between atoms: C_13  and  C_52
   13  A    between atoms: C_22  and  C_43
   14  A    between atoms: C_27  and  C_49
   15  A    between atoms: C_27  and  C_55
   16  A    between atoms: C_42  and  C_50
                            x       y       z     vdW  Elec       q    Type
                         _______ _______ _______ _____ _____    ______ ____

>  <TORSDO>
F 16

$$$$
=
 OpenBabel11052419323D

 55 59  0  0  1  0  0  0  0  0999 V2000
  195.9990  174.6430  143.3570 C   0  0  0  0  0  3  0  0  0  0  0  0
  190.1730  175.9120  146.3220 C   0  0  0  0  0  2  0  0  0  0  0  0
  190.2320  173.2450  144.1620 O   0  0  0  0  0  0  0  0  0  0  0  0
  190.2590  171.7020  140.7360 C   0  0  0  0  0  3  0  0  0  0  0  0
  191.1170  171.0950  139.8170 C   0  0  0  0  0  3  0  0  0  0  0  0
  192.0660  171.8330  142.3530 C   0  0  0  0  0  0  0  0  0  0  0  0
  192.9210  171.2260  141.4190 C   0  0  0  0  0  3  0  0  0  0  0  0
  188.5620  172.8740  142.6210 O   0  0  0  0  0  0  0  0  0  0  0  0
  192.4490  170.8590  140.1580 C   0  0  0  0  0  3  0  0  0  0  0  0
  190.7180  172.0820  142.0070 C   0  0  0  0  0  0  0  0  0  0  0  0
  195.6250  173.3430  145.3850 C   0  0  0  0  0  2  0  0  0  0  0  0
  194.9530  176.4620  144.7470 C   0  0  0  0  0  2  0  0  0  0  0  0
  194.1420  173.0460  145.1650 C   0  0  0  0  0  2  0  0  0  0  0  0
  192.8810  176.0490  147.0440 O   0  0  0  0  0  1  0  0  0  0  0  0
  192.5390  172.1930  143.6210 O   0  0  0  0  0  0  0  0  0  0  0  0
  190.1960  174.3870  146.2650 C   0  0  0  0  0  2  0  0  0  0  0  0
  189.3710  173.8730  145.1000 C   0  0  0  0  0  2  0  0  0  0  0  0
  191.1970  176.5900  145.4000 C   0  0  1  0  0  3  0  0  0  0  0  0
  196.3230  173.6850  144.1610 N   0  0  0  0  0  0  0  0  0  0  0  0
  189.7770  172.7450  142.9400 C   0  0  0  0  0  0  0  0  0  0  0  0
  194.8020  175.5340  143.5420 C   0  0  1  0  0  3  0  0  0  0  0  0
  192.6420  176.1440  145.6720 C   0  0  1  0  0  3  0  0  0  0  0  0
  193.8910  172.0580  144.0360 C   0  0  2  0  0  3  0  0  0  0  0  0
  193.6280  177.1370  145.0730 C   0  0  0  0  0  2  0  0  0  0  0  0
  194.1610  170.6580  144.4840 C   0  0  0  0  0  0  0  0  0  0  0  0
  195.4190  168.9340  145.1720 C   0  0  0  0  0  0  0  0  0  0  0  0
  193.1330  169.7290  144.6430 C   0  0  0  0  0  3  0  0  0  0  0  0
  193.8620  168.3090  145.1790 S   0  0  0  0  0  0  0  0  0  0  0  0
  195.4170  170.2250  144.7840 N   0  0  0  0  0  0  0  0  0  0  0  0
  196.6450  168.2030  145.6150 C   0  0  0  0  0  3  0  0  0  0  0  0
  196.7450  168.2400  147.1280 C   0  0  0  0  0  2  0  0  0  0  0  0
  197.6040  169.1630  146.2950 C   0  0  0  0  0  2  0  0  0  0  0  0
  194.4820  176.2930  142.2530 C   0  0  0  0  0  2  0  0  0  0  0  0
  194.1460  173.8060  138.9620 C   0  0  0  0  0  1  0  0  0  0  0  0
  194.2670  174.6850  140.1250 C   0  0  0  0  0  0  0  0  0  0  0  0
  194.3650  175.4090  141.0850 C   0  0  0  0  0  0  0  0  0  0  0  0
  190.8070  176.3920  143.9400 C   0  0  0  0  0  2  0  0  0  0  0  0
  189.5940  177.2240  143.5770 C   0  0  0  0  0  2  0  0  0  0  0  0
  188.5930  176.3500  142.8480 C   0  0  0  0  0  2  0  0  0  0  0  0
  187.1740  176.7880  143.1850 C   0  0  2  0  0  3  0  0  0  0  0  0
  187.1050  177.4510  140.7180 C   0  0  0  0  0  1  0  0  0  0  0  0
  186.3110  176.9840  141.9300 C   0  0  2  0  0  3  0  0  0  0  0  0
  185.1390  177.9160  142.2100 C   0  0  0  0  0  2  0  0  0  0  0  0
  182.9590  178.5670  141.6410 C   0  0  1  0  0  3  0  0  0  0  0  0
  184.0090  177.5750  141.3630 N   0  0  0  0  0  0  0  0  0  0  0  0
  183.8030  178.7160  140.4610 C   0  0  0  0  0  2  0  0  0  0  0  0
  181.6160  177.9900  141.2310 C   0  0  0  0  0  2  0  0  0  0  0  0
  180.5900  179.0980  141.0460 C   0  0  0  0  0  2  0  0  0  0  0  0
  178.4360  179.6360  141.9170 O   0  0  0  0  0  0  0  0  0  0  0  0
  179.0790  177.4500  142.1490 O   0  0  0  0  0  1  0  0  0  0  0  0
  179.3040  178.7480  141.7150 C   0  0  0  0  0  0  0  0  0  0  0  0
  187.1260  177.9290  144.2140 C   0  0  0  0  0  2  0  0  0  0  0  0
  185.5200  176.5800  145.5640 O   0  0  0  0  0  0  0  0  0  0  0  0
  186.9170  178.0740  146.5930 O   0  0  0  0  0  1  0  0  0  0  0  0
  186.5240  177.5370  145.5250 C   0  0  0  0  0  0  0  0  0  0  0  0
  1 21  1  0  0  0  0
  1 19  2  0  0  0  0
  3 17  1  0  0  0  0
  4 10  1  0  0  0  0
  5  9  1  0  0  0  0
  5  4  2  0  0  0  0
  6 15  1  0  0  0  0
  7  6  1  0  0  0  0
  8 20  2  0  0  0  0
  9  7  2  0  0  0  0
 10  6  2  0  0  0  0
 10 20  1  0  0  0  0
 12 24  1  0  0  0  0
 13 11  1  0  0  0  0
 15 23  1  0  0  0  0
 16  2  1  0  0  0  0
 17 16  1  0  0  0  0
 18 37  1  6  0  0  0
 18 22  1  0  0  0  0
 18  2  1  0  0  0  0
 19 11  1  0  0  0  0
 20  3  1  0  0  0  0
 21 33  1  6  0  0  0
 21 12  1  0  0  0  0
 22 14  1  1  0  0  0
 23 25  1  1  0  0  0
 23 13  1  0  0  0  0
 24 22  1  0  0  0  0
 25 27  2  0  0  0  0
 25 29  1  0  0  0  0
 26 28  1  0  0  0  0
 26 30  1  0  0  0  0
 27 28  1  0  0  0  0
 29 26  2  0  0  0  0
 30 32  1  0  0  0  0
 30 31  1  0  0  0  0
 32 31  1  0  0  0  0
 34 35  1  0  0  0  0
 35 36  3  0  0  0  0
 36 33  1  0  0  0  0
 38 37  1  0  0  0  0
 39 38  1  0  0  0  0
 40 39  1  6  0  0  0
 40 52  1  0  0  0  0
 42 41  1  6  0  0  0
 42 43  1  0  0  0  0
 42 40  1  0  0  0  0
 44 47  1  6  0  0  0
 45 44  1  0  0  0  0
 45 43  1  0  0  0  0
 46 45  1  0  0  0  0
 46 44  1  0  0  0  0
 48 47  1  0  0  0  0
 48 51  1  0  0  0  0
 51 49  2  0  0  0  0
 51 50  1  0  0  0  0
 52 55  1  0  0  0  0
 55 53  2  0  0  0  0
 55 54  1  0  0  0  0
M  END
>  <MODEL>
4

>  <REMARK>
 VINA RESULT:      -6.2      2.439      3.284
  Name = 
  16 active torsions:
  status: ('A' for Active; 'I' for Inactive)
    1  A    between atoms: C_3  and  C_14
    2  A    between atoms: C_6  and  C_14
    3  A    between atoms: C_6  and  C_38
    4  A    between atoms: C_7  and  N_21
    5  A    between atoms: C_7  and  C_46
    6  A    between atoms: C_8  and  C_20
    7  A    between atoms: C_8  and  C_22
    8  A    between atoms: C_10  and  C_32
    9  A    between atoms: C_12  and  C_20
   10  A    between atoms: C_12  and  C_42
   11  A    between atoms: C_12  and  C_46
   12  A    between atoms: C_13  and  C_52
   13  A    between atoms: C_22  and  C_43
   14  A    between atoms: C_27  and  C_49
   15  A    between atoms: C_27  and  C_55
   16  A    between atoms: C_42  and  C_50
                            x       y       z     vdW  Elec       q    Type
                         _______ _______ _______ _____ _____    ______ ____

>  <TORSDO>
F 16

$$$$
=
 OpenBabel11052419323D

 55 59  0  0  1  0  0  0  0  0999 V2000
  194.7730  175.1060  139.8940 C   0  0  0  0  0  3  0  0  0  0  0  0
  196.9290  173.2490  145.9140 C   0  0  0  0  0  2  0  0  0  0  0  0
  195.3440  170.8380  144.0550 O   0  0  0  0  0  0  0  0  0  0  0  0
  192.2980  169.1880  142.5980 C   0  0  0  0  0  3  0  0  0  0  0  0
  191.5920  169.0600  141.4010 C   0  0  0  0  0  3  0  0  0  0  0  0
  194.0070  170.4880  141.4630 C   0  0  0  0  0  0  0  0  0  0  0  0
  193.2840  170.3570  140.2660 C   0  0  0  0  0  3  0  0  0  0  0  0
  193.7690  169.4240  144.9620 O   0  0  0  0  0  0  0  0  0  0  0  0
  192.0840  169.6470  140.2350 C   0  0  0  0  0  3  0  0  0  0  0  0
  193.5060  169.9030  142.6480 C   0  0  0  0  0  0  0  0  0  0  0  0
  196.9770  174.0640  139.8700 C   0  0  0  0  0  2  0  0  0  0  0  0
  195.6880  176.1800  141.9780 C   0  0  0  0  0  2  0  0  0  0  0  0
  196.6940  172.9690  140.8970 C   0  0  0  0  0  2  0  0  0  0  0  0
  197.8380  174.9530  143.8790 O   0  0  0  0  0  1  0  0  0  0  0  0
  195.2150  171.1950  141.4910 O   0  0  0  0  0  0  0  0  0  0  0  0
  197.1730  172.0000  145.0700 C   0  0  0  0  0  2  0  0  0  0  0  0
  196.0640  170.9830  145.2690 C   0  0  0  0  0  2  0  0  0  0  0  0
  195.9830  174.2700  145.2670 C   0  0  1  0  0  3  0  0  0  0  0  0
  195.7730  174.5920  139.2570 N   0  0  0  0  0  0  0  0  0  0  0  0
  194.2080  170.0320  143.9460 C   0  0  0  0  0  0  0  0  0  0  0  0
  194.6790  175.1940  141.3920 C   0  0  1  0  0  3  0  0  0  0  0  0
  196.4580  174.7390  143.8830 C   0  0  1  0  0  3  0  0  0  0  0  0
  195.7620  171.8850  140.3750 C   0  0  2  0  0  3  0  0  0  0  0  0
  195.7630  176.0350  143.4920 C   0  0  0  0  0  2  0  0  0  0  0  0
  196.4950  170.9360  139.4840 C   0  0  0  0  0  0  0  0  0  0  0  0
  197.1940  170.0850  137.5310 C   0  0  0  0  0  0  0  0  0  0  0  0
  197.2850  169.9080  140.0000 C   0  0  0  0  0  3  0  0  0  0  0  0
  197.9410  169.1080  138.6720 S   0  0  0  0  0  0  0  0  0  0  0  0
  196.4520  171.0400  138.1270 N   0  0  0  0  0  0  0  0  0  0  0  0
  197.3790  169.9810  136.0510 C   0  0  0  0  0  3  0  0  0  0  0  0
  196.9470  171.2760  135.3890 C   0  0  0  0  0  2  0  0  0  0  0  0
  196.0340  170.0730  135.3530 C   0  0  0  0  0  2  0  0  0  0  0  0
  193.2450  175.4910  141.8320 C   0  0  0  0  0  2  0  0  0  0  0  0
  190.5040  172.7910  140.3060 C   0  0  0  0  0  1  0  0  0  0  0  0
  191.4740  173.7440  140.8460 C   0  0  0  0  0  0  0  0  0  0  0  0
  192.2720  174.5310  141.2920 C   0  0  0  0  0  0  0  0  0  0  0  0
  194.5610  173.7210  145.2230 C   0  0  0  0  0  2  0  0  0  0  0  0
  193.5840  174.6720  145.8820 C   0  0  0  0  0  2  0  0  0  0  0  0
  192.3800  174.8510  144.9790 C   0  0  0  0  0  2  0  0  0  0  0  0
  191.5340  176.0210  145.4630 C   0  0  2  0  0  3  0  0  0  0  0  0
  192.1710  177.9490  143.9120 C   0  0  0  0  0  1  0  0  0  0  0  0
  191.1010  176.9430  144.3130 C   0  0  2  0  0  3  0  0  0  0  0  0
  189.7850  177.6400  144.6340 C   0  0  0  0  0  2  0  0  0  0  0  0
  187.6750  177.3810  145.6230 C   0  0  1  0  0  3  0  0  0  0  0  0
  188.7540  176.6610  144.9310 N   0  0  0  0  0  0  0  0  0  0  0  0
  187.5520  177.0850  144.2000 C   0  0  0  0  0  2  0  0  0  0  0  0
  186.8500  176.3860  146.4200 C   0  0  0  0  0  2  0  0  0  0  0  0
  186.2550  177.0480  147.6530 C   0  0  0  0  0  2  0  0  0  0  0  0
  184.3240  177.8980  146.5410 O   0  0  0  0  0  0  0  0  0  0  0  0
  185.5690  179.4450  147.6820 O   0  0  0  0  0  1  0  0  0  0  0  0
  185.3200  178.1440  147.2680 C   0  0  0  0  0  0  0  0  0  0  0  0
  192.1270  176.7230  146.6950 C   0  0  0  0  0  2  0  0  0  0  0  0
  190.3550  175.5850  148.0310 O   0  0  0  0  0  0  0  0  0  0  0  0
  191.3920  177.4560  148.8510 O   0  0  0  0  0  1  0  0  0  0  0  0
  191.2790  176.6150  147.9210 C   0  0  0  0  0  0  0  0  0  0  0  0
  1 21  1  0  0  0  0
  3 17  1  0  0  0  0
  4 10  1  0  0  0  0
  5  4  2  0  0  0  0
  6 15  1  0  0  0  0
  6 10  2  0  0  0  0
  7  6  1  0  0  0  0
  9  7  2  0  0  0  0
  9  5  1  0  0  0  0
 10 20  1  0  0  0  0
 11 13  1  0  0  0  0
 12 24  1  0  0  0  0
 16 17  1  0  0  0  0
 16  2  1  0  0  0  0
 18 37  1  6  0  0  0
 18  2  1  0  0  0  0
 19 11  1  0  0  0  0
 19  1  2  0  0  0  0
 20  3  1  0  0  0  0
 20  8  2  0  0  0  0
 21 33  1  6  0  0  0
 21 12  1  0  0  0  0
 22 14  1  1  0  0  0
 22 18  1  0  0  0  0
 23 25  1  6  0  0  0
 23 13  1  0  0  0  0
 23 15  1  0  0  0  0
 24 22  1  0  0  0  0
 25 27  2  0  0  0  0
 26 29  2  0  0  0  0
 26 28  1  0  0  0  0
 28 27  1  0  0  0  0
 29 25  1  0  0  0  0
 30 26  1  0  0  0  0
 31 30  1  0  0  0  0
 32 31  1  0  0  0  0
 32 30  1  0  0  0  0
 34 35  1  0  0  0  0
 35 36  3  0  0  0  0
 36 33  1  0  0  0  0
 37 38  1  0  0  0  0
 39 38  1  0  0  0  0
 40 39  1  6  0  0  0
 40 52  1  0  0  0  0
 42 41  1  1  0  0  0
 42 43  1  0  0  0  0
 42 40  1  0  0  0  0
 43 45  1  0  0  0  0
 44 47  1  1  0  0  0
 45 44  1  0  0  0  0
 46 45  1  0  0  0  0
 46 44  1  0  0  0  0
 47 48  1  0  0  0  0
 49 51  2  0  0  0  0
 51 48  1  0  0  0  0
 51 50  1  0  0  0  0
 52 55  1  0  0  0  0
 55 53  2  0  0  0  0
 55 54  1  0  0  0  0
M  END
>  <MODEL>
5

>  <REMARK>
 VINA RESULT:      -6.1      2.473      4.152
  Name = 
  16 active torsions:
  status: ('A' for Active; 'I' for Inactive)
    1  A    between atoms: C_3  and  C_14
    2  A    between atoms: C_6  and  C_14
    3  A    between atoms: C_6  and  C_38
    4  A    between atoms: C_7  and  N_21
    5  A    between atoms: C_7  and  C_46
    6  A    between atoms: C_8  and  C_20
    7  A    between atoms: C_8  and  C_22
    8  A    between atoms: C_10  and  C_32
    9  A    between atoms: C_12  and  C_20
   10  A    between atoms: C_12  and  C_42
   11  A    between atoms: C_12  and  C_46
   12  A    between atoms: C_13  and  C_52
   13  A    between atoms: C_22  and  C_43
   14  A    between atoms: C_27  and  C_49
   15  A    between atoms: C_27  and  C_55
   16  A    between atoms: C_42  and  C_50
                            x       y       z     vdW  Elec       q    Type
                         _______ _______ _______ _____ _____    ______ ____

>  <TORSDO>
F 16

$$$$
=
 OpenBabel11052419323D

 55 59  0  0  1  0  0  0  0  0999 V2000
  195.6500  176.1970  141.2000 C   0  0  0  0  0  3  0  0  0  0  0  0
  194.3820  171.6580  145.9040 C   0  0  0  0  0  2  0  0  0  0  0  0
  193.2730  170.9220  142.7400 O   0  0  0  0  0  0  0  0  0  0  0  0
  190.9050  171.2870  139.8450 C   0  0  0  0  0  3  0  0  0  0  0  0
  190.8000  171.8850  138.5880 C   0  0  0  0  0  3  0  0  0  0  0  0
  193.1940  172.0750  140.0390 C   0  0  0  0  0  0  0  0  0  0  0  0
  193.0740  172.6770  138.7760 C   0  0  0  0  0  3  0  0  0  0  0  0
  191.1740  170.0630  142.3420 O   0  0  0  0  0  0  0  0  0  0  0  0
  191.8840  172.5820  138.0550 C   0  0  0  0  0  3  0  0  0  0  0  0
  192.0940  171.3760  140.5860 C   0  0  0  0  0  0  0  0  0  0  0  0
  197.3150  174.4200  141.3250 C   0  0  0  0  0  2  0  0  0  0  0  0
  195.7640  176.0040  143.7070 C   0  0  0  0  0  2  0  0  0  0  0  0
  196.3530  173.2570  141.5610 C   0  0  0  0  0  2  0  0  0  0  0  0
  196.4790  173.4270  145.3150 O   0  0  0  0  0  1  0  0  0  0  0  0
  194.3920  172.1640  140.7590 O   0  0  0  0  0  0  0  0  0  0  0  0
  194.6730  170.7970  144.6760 C   0  0  0  0  0  2  0  0  0  0  0  0
  193.3860  170.3270  144.0230 C   0  0  0  0  0  2  0  0  0  0  0  0
  194.0970  173.1320  145.5840 C   0  0  1  0  0  3  0  0  0  0  0  0
  196.6760  175.5730  140.7210 N   0  0  0  0  0  0  0  0  0  0  0  0
  192.1500  170.7460  141.9260 C   0  0  0  0  0  0  0  0  0  0  0  0
  194.9210  175.7900  142.4500 C   0  0  1  0  0  3  0  0  0  0  0  0
  195.2360  173.8120  144.8090 C   0  0  1  0  0  3  0  0  0  0  0  0
  195.5260  172.9080  140.3330 C   0  0  2  0  0  3  0  0  0  0  0  0
  195.1180  175.3260  144.9070 C   0  0  0  0  0  2  0  0  0  0  0  0
  196.3310  172.1160  139.3560 C   0  0  0  0  0  0  0  0  0  0  0  0
  197.2740  171.6560  137.3740 C   0  0  0  0  0  0  0  0  0  0  0  0
  196.9670  170.9300  139.7220 C   0  0  0  0  0  3  0  0  0  0  0  0
  197.7750  170.3850  138.3480 S   0  0  0  0  0  0  0  0  0  0  0  0
  196.5070  172.5210  138.0680 N   0  0  0  0  0  0  0  0  0  0  0  0
  197.6810  171.8660  135.9510 C   0  0  0  0  0  3  0  0  0  0  0  0
  197.3840  173.2960  135.5390 C   0  0  0  0  0  2  0  0  0  0  0  0
  196.4620  172.1810  135.1030 C   0  0  0  0  0  2  0  0  0  0  0  0
  193.5570  176.4780  142.5340 C   0  0  0  0  0  2  0  0  0  0  0  0
  190.4640  174.0840  141.1810 C   0  0  0  0  0  1  0  0  0  0  0  0
  191.5580  174.9310  141.6580 C   0  0  0  0  0  0  0  0  0  0  0  0
  192.4590  175.6280  142.0520 C   0  0  0  0  0  0  0  0  0  0  0  0
  192.7600  173.2690  144.8640 C   0  0  0  0  0  2  0  0  0  0  0  0
  192.0290  174.5220  145.2970 C   0  0  0  0  0  2  0  0  0  0  0  0
  190.5460  174.3480  145.0350 C   0  0  0  0  0  2  0  0  0  0  0  0
  189.8310  175.6860  145.1670 C   0  0  2  0  0  3  0  0  0  0  0  0
  189.0720  174.5480  147.3250 C   0  0  0  0  0  1  0  0  0  0  0  0
  188.8920  175.7290  146.3810 C   0  0  2  0  0  3  0  0  0  0  0  0
  187.4390  175.8680  145.9470 C   0  0  0  0  0  2  0  0  0  0  0  0
  186.0950  177.6710  145.2800 C   0  0  1  0  0  3  0  0  0  0  0  0
  186.8990  177.1410  146.3920 N   0  0  0  0  0  0  0  0  0  0  0  0
  185.4370  176.9980  146.3930 C   0  0  0  0  0  2  0  0  0  0  0  0
  185.9560  179.1740  145.4440 C   0  0  0  0  0  2  0  0  0  0  0  0
  185.3370  179.7940  144.2010 C   0  0  0  0  0  2  0  0  0  0  0  0
  186.2420  178.5350  142.3890 O   0  0  0  0  0  0  0  0  0  0  0  0
  184.0250  178.1720  142.8360 O   0  0  0  0  0  1  0  0  0  0  0  0
  185.2370  178.7930  143.1010 C   0  0  0  0  0  0  0  0  0  0  0  0
  189.2300  176.1800  143.8410 C   0  0  0  0  0  2  0  0  0  0  0  0
  190.2820  178.3770  144.3780 O   0  0  0  0  0  1  0  0  0  0  0  0
  189.5350  177.9470  142.2560 O   0  0  0  0  0  0  0  0  0  0  0  0
  189.6890  177.5450  143.4390 C   0  0  0  0  0  0  0  0  0  0  0  0
  1 21  1  0  0  0  0
  3 17  1  0  0  0  0
  4 10  1  0  0  0  0
  5  4  2  0  0  0  0
  6 10  2  0  0  0  0
  6 15  1  0  0  0  0
  7  6  1  0  0  0  0
  9  5  1  0  0  0  0
  9  7  2  0  0  0  0
 10 20  1  0  0  0  0
 11 13  1  0  0  0  0
 12 24  1  0  0  0  0
 16  2  1  0  0  0  0
 17 16  1  0  0  0  0
 18 37  1  6  0  0  0
 18  2  1  0  0  0  0
 19  1  2  0  0  0  0
 19 11  1  0  0  0  0
 20  8  2  0  0  0  0
 20  3  1  0  0  0  0
 21 33  1  1  0  0  0
 21 12  1  0  0  0  0
 22 24  1  0  0  0  0
 22 14  1  1  0  0  0
 22 18  1  0  0  0  0
 23 25  1  6  0  0  0
 23 15  1  0  0  0  0
 23 13  1  0  0  0  0
 25 27  2  0  0  0  0
 26 29  2  0  0  0  0
 26 28  1  0  0  0  0
 28 27  1  0  0  0  0
 29 25  1  0  0  0  0
 30 26  1  0  0  0  0
 31 30  1  0  0  0  0
 32 31  1  0  0  0  0
 32 30  1  0  0  0  0
 34 35  1  0  0  0  0
 35 36  3  0  0  0  0
 36 33  1  0  0  0  0
 37 38  1  0  0  0  0
 39 40  1  0  0  0  0
 39 38  1  0  0  0  0
 40 52  1  6  0  0  0
 40 42  1  0  0  0  0
 42 41  1  6  0  0  0
 43 42  1  0  0  0  0
 43 45  1  0  0  0  0
 44 47  1  1  0  0  0
 44 45  1  0  0  0  0
 44 46  1  0  0  0  0
 45 46  1  0  0  0  0
 48 47  1  0  0  0  0
 49 51  2  0  0  0  0
 50 51  1  0  0  0  0
 51 48  1  0  0  0  0
 54 55  2  0  0  0  0
 55 52  1  0  0  0  0
 55 53  1  0  0  0  0
M  END
>  <MODEL>
6

>  <REMARK>
 VINA RESULT:      -6.1      2.515      4.558
  Name = 
  16 active torsions:
  status: ('A' for Active; 'I' for Inactive)
    1  A    between atoms: C_3  and  C_14
    2  A    between atoms: C_6  and  C_14
    3  A    between atoms: C_6  and  C_38
    4  A    between atoms: C_7  and  N_21
    5  A    between atoms: C_7  and  C_46
    6  A    between atoms: C_8  and  C_20
    7  A    between atoms: C_8  and  C_22
    8  A    between atoms: C_10  and  C_32
    9  A    between atoms: C_12  and  C_20
   10  A    between atoms: C_12  and  C_42
   11  A    between atoms: C_12  and  C_46
   12  A    between atoms: C_13  and  C_52
   13  A    between atoms: C_22  and  C_43
   14  A    between atoms: C_27  and  C_49
   15  A    between atoms: C_27  and  C_55
   16  A    between atoms: C_42  and  C_50
                            x       y       z     vdW  Elec       q    Type
                         _______ _______ _______ _____ _____    ______ ____

>  <TORSDO>
F 16

$$$$
=
 OpenBabel11052419323D

 55 59  0  0  1  0  0  0  0  0999 V2000
  195.7110  173.9960  142.3850 C   0  0  0  0  0  3  0  0  0  0  0  0
  189.3880  171.9670  141.8950 C   0  0  0  0  0  2  0  0  0  0  0  0
  190.9370  172.8440  138.9600 O   0  0  0  0  0  0  0  0  0  0  0  0
  192.2700  175.3370  136.4840 C   0  0  0  0  0  3  0  0  0  0  0  0
  193.4660  175.9030  136.0390 C   0  0  0  0  0  3  0  0  0  0  0  0
  193.5070  173.8660  137.9700 C   0  0  0  0  0  0  0  0  0  0  0  0
  194.7030  174.4480  137.5180 C   0  0  0  0  0  3  0  0  0  0  0  0
  189.9030  174.1420  137.3640 O   0  0  0  0  0  0  0  0  0  0  0  0
  194.6820  175.4600  136.5580 C   0  0  0  0  0  3  0  0  0  0  0  0
  192.2720  174.3200  137.4520 C   0  0  0  0  0  0  0  0  0  0  0  0
  195.4780  171.6240  141.8720 C   0  0  0  0  0  2  0  0  0  0  0  0
  193.7710  173.5010  143.9100 C   0  0  0  0  0  2  0  0  0  0  0  0
  194.3120  171.7430  140.8910 C   0  0  0  0  0  2  0  0  0  0  0  0
  191.6110  171.2920  143.4680 O   0  0  0  0  0  1  0  0  0  0  0  0
  193.5290  172.8450  138.9270 O   0  0  0  0  0  0  0  0  0  0  0  0
  190.0240  171.3940  140.6300 C   0  0  0  0  0  2  0  0  0  0  0  0
  189.7260  172.2690  139.4270 C   0  0  0  0  0  2  0  0  0  0  0  0
  190.2240  173.0580  142.5790 C   0  0  1  0  0  3  0  0  0  0  0  0
  196.2170  172.8620  142.0280 N   0  0  0  0  0  0  0  0  0  0  0  0
  190.9770  173.7660  137.9110 C   0  0  0  0  0  0  0  0  0  0  0  0
  194.2490  174.2240  142.6510 C   0  0  1  0  0  3  0  0  0  0  0  0
  191.6390  172.5890  142.9510 C   0  0  1  0  0  3  0  0  0  0  0  0
  194.7090  172.3750  139.5660 C   0  0  2  0  0  3  0  0  0  0  0  0
  192.2510  173.5150  143.9920 C   0  0  0  0  0  2  0  0  0  0  0  0
  195.4130  171.3870  138.6940 C   0  0  0  0  0  0  0  0  0  0  0  0
  195.5970  169.5790  137.3800 C   0  0  0  0  0  0  0  0  0  0  0  0
  196.7680  171.5140  138.3890 C   0  0  0  0  0  3  0  0  0  0  0  0
  197.1450  170.2260  137.3720 S   0  0  0  0  0  0  0  0  0  0  0  0
  194.7670  170.3290  138.1320 N   0  0  0  0  0  0  0  0  0  0  0  0
  195.1570  168.3840  136.5990 C   0  0  0  0  0  3  0  0  0  0  0  0
  196.0940  168.1660  135.4250 C   0  0  0  0  0  2  0  0  0  0  0  0
  194.7420  168.8020  135.2000 C   0  0  0  0  0  2  0  0  0  0  0  0
  193.9250  175.7190  142.6750 C   0  0  0  0  0  2  0  0  0  0  0  0
  194.5900  177.4510  146.3740 C   0  0  0  0  0  1  0  0  0  0  0  0
  194.3560  176.8370  145.0670 C   0  0  0  0  0  0  0  0  0  0  0  0
  194.1640  176.3330  143.9890 C   0  0  0  0  0  0  0  0  0  0  0  0
  190.2510  174.3200  141.7240 C   0  0  0  0  0  2  0  0  0  0  0  0
  188.8500  174.8070  141.4180 C   0  0  0  0  0  2  0  0  0  0  0  0
  188.2890  175.5050  142.6400 C   0  0  0  0  0  2  0  0  0  0  0  0
  188.6660  176.9800  142.6190 C   0  0  2  0  0  3  0  0  0  0  0  0
  191.0070  177.7070  143.3410 C   0  0  0  0  0  1  0  0  0  0  0  0
  189.5910  177.3630  143.7830 C   0  0  2  0  0  3  0  0  0  0  0  0
  189.5990  176.2820  144.8570 C   0  0  0  0  0  2  0  0  0  0  0  0
  187.6190  176.0860  146.0980 C   0  0  1  0  0  3  0  0  0  0  0  0
  188.9280  176.7560  146.0550 N   0  0  0  0  0  0  0  0  0  0  0  0
  188.7200  175.5800  146.9100 C   0  0  0  0  0  2  0  0  0  0  0  0
  186.6780  176.8970  146.9700 C   0  0  0  0  0  2  0  0  0  0  0  0
  185.3170  177.0370  146.3060 C   0  0  0  0  0  2  0  0  0  0  0  0
  186.0790  179.0750  145.3290 O   0  0  0  0  0  0  0  0  0  0  0  0
  183.8610  179.0190  145.8940 O   0  0  0  0  0  1  0  0  0  0  0  0
  185.1120  178.4260  145.8040 C   0  0  0  0  0  0  0  0  0  0  0  0
  187.4600  177.9060  142.3920 C   0  0  0  0  0  2  0  0  0  0  0  0
  185.1970  177.1790  141.6370 O   0  0  0  0  0  1  0  0  0  0  0  0
  186.9360  177.2570  140.1490 O   0  0  0  0  0  0  0  0  0  0  0  0
  186.5250  177.4330  141.3260 C   0  0  0  0  0  0  0  0  0  0  0  0
  1 21  1  0  0  0  0
  2 18  1  0  0  0  0
  3 17  1  0  0  0  0
  4 10  1  0  0  0  0
  5  4  2  0  0  0  0
  5  9  1  0  0  0  0
  6 15  1  0  0  0  0
  7  6  1  0  0  0  0
  8 20  2  0  0  0  0
  9  7  2  0  0  0  0
 10 20  1  0  0  0  0
 10  6  2  0  0  0  0
 11 19  1  0  0  0  0
 12 24  1  0  0  0  0
 13 11  1  0  0  0  0
 15 23  1  0  0  0  0
 16  2  1  0  0  0  0
 17 16  1  0  0  0  0
 18 37  1  6  0  0  0
 18 22  1  0  0  0  0
 19  1  2  0  0  0  0
 20  3  1  0  0  0  0
 21 33  1  1  0  0  0
 21 12  1  0  0  0  0
 22 14  1  1  0  0  0
 22 24  1  0  0  0  0
 23 25  1  6  0  0  0
 23 13  1  0  0  0  0
 26 29  2  0  0  0  0
 27 25  2  0  0  0  0
 28 26  1  0  0  0  0
 28 27  1  0  0  0  0
 29 25  1  0  0  0  0
 30 26  1  0  0  0  0
 31 30  1  0  0  0  0
 32 31  1  0  0  0  0
 32 30  1  0  0  0  0
 33 36  1  0  0  0  0
 35 34  1  0  0  0  0
 36 35  3  0  0  0  0
 38 37  1  0  0  0  0
 38 39  1  0  0  0  0
 40 52  1  1  0  0  0
 40 39  1  0  0  0  0
 40 42  1  0  0  0  0
 42 41  1  6  0  0  0
 42 43  1  0  0  0  0
 43 45  1  0  0  0  0
 44 46  1  0  0  0  0
 44 47  1  1  0  0  0
 45 44  1  0  0  0  0
 45 46  1  0  0  0  0
 48 47  1  0  0  0  0
 49 51  2  0  0  0  0
 51 50  1  0  0  0  0
 51 48  1  0  0  0  0
 54 55  2  0  0  0  0
 55 53  1  0  0  0  0
 55 52  1  0  0  0  0
M  END
>  <MODEL>
7

>  <REMARK>
 VINA RESULT:      -6.1      3.080      5.861
  Name = 
  16 active torsions:
  status: ('A' for Active; 'I' for Inactive)
    1  A    between atoms: C_3  and  C_14
    2  A    between atoms: C_6  and  C_14
    3  A    between atoms: C_6  and  C_38
    4  A    between atoms: C_7  and  N_21
    5  A    between atoms: C_7  and  C_46
    6  A    between atoms: C_8  and  C_20
    7  A    between atoms: C_8  and  C_22
    8  A    between atoms: C_10  and  C_32
    9  A    between atoms: C_12  and  C_20
   10  A    between atoms: C_12  and  C_42
   11  A    between atoms: C_12  and  C_46
   12  A    between atoms: C_13  and  C_52
   13  A    between atoms: C_22  and  C_43
   14  A    between atoms: C_27  and  C_49
   15  A    between atoms: C_27  and  C_55
   16  A    between atoms: C_42  and  C_50
                            x       y       z     vdW  Elec       q    Type
                         _______ _______ _______ _____ _____    ______ ____

>  <TORSDO>
F 16

$$$$
=
 OpenBabel11052419323D

 55 59  0  0  1  0  0  0  0  0999 V2000
  190.3470  174.0630  140.5250 C   0  0  0  0  0  3  0  0  0  0  0  0
  193.0640  168.6490  143.2910 C   0  0  0  0  0  2  0  0  0  0  0  0
  193.7620  171.6470  144.8090 O   0  0  0  0  0  0  0  0  0  0  0  0
  195.5510  174.9420  145.0640 C   0  0  0  0  0  3  0  0  0  0  0  0
  195.3580  176.3100  144.8600 C   0  0  0  0  0  3  0  0  0  0  0  0
  193.2250  174.5200  144.5100 C   0  0  0  0  0  0  0  0  0  0  0  0
  193.0440  175.8970  144.3020 C   0  0  0  0  0  3  0  0  0  0  0  0
  195.8830  172.2050  145.5120 O   0  0  0  0  0  0  0  0  0  0  0  0
  194.1050  176.7870  144.4760 C   0  0  0  0  0  3  0  0  0  0  0  0
  194.4960  174.0330  144.8890 C   0  0  0  0  0  0  0  0  0  0  0  0
  189.0330  173.1310  142.3550 C   0  0  0  0  0  2  0  0  0  0  0  0
  190.6650  171.6280  139.9740 C   0  0  0  0  0  2  0  0  0  0  0  0
  190.1970  172.7830  143.2830 C   0  0  0  0  0  2  0  0  0  0  0  0
  190.6410  169.2700  142.0190 O   0  0  0  0  0  1  0  0  0  0  0  0
  192.1580  173.6290  144.3430 O   0  0  0  0  0  0  0  0  0  0  0  0
  192.7260  169.5130  144.5040 C   0  0  0  0  0  2  0  0  0  0  0  0
  193.9510  170.2540  145.0040 C   0  0  0  0  0  2  0  0  0  0  0  0
  193.0510  169.4080  141.9570 C   0  0  1  0  0  3  0  0  0  0  0  0
  189.3740  174.1410  141.3720 N   0  0  0  0  0  0  0  0  0  0  0  0
  194.7550  172.5880  145.0940 C   0  0  0  0  0  0  0  0  0  0  0  0
  191.3210  172.9200  140.4590 C   0  0  1  0  0  3  0  0  0  0  0  0
  191.7090  170.0980  141.6680 C   0  0  1  0  0  3  0  0  0  0  0  0
  190.8650  174.0080  143.8880 C   0  0  2  0  0  3  0  0  0  0  0  0
  191.5940  170.4410  140.1890 C   0  0  0  0  0  2  0  0  0  0  0  0
  190.0550  174.5530  145.0190 C   0  0  0  0  0  0  0  0  0  0  0  0
  188.6900  176.0030  146.0490 C   0  0  0  0  0  0  0  0  0  0  0  0
  189.9570  173.8840  146.2390 C   0  0  0  0  0  3  0  0  0  0  0  0
  188.9400  174.8150  147.2060 S   0  0  0  0  0  0  0  0  0  0  0  0
  189.3510  175.7130  144.9100 N   0  0  0  0  0  0  0  0  0  0  0  0
  187.7910  177.1870  146.2070 C   0  0  0  0  0  3  0  0  0  0  0  0
  186.5360  176.7800  146.9560 C   0  0  0  0  0  2  0  0  0  0  0  0
  186.4920  176.9570  145.4560 C   0  0  0  0  0  2  0  0  0  0  0  0
  192.5510  173.2980  139.6320 C   0  0  0  0  0  2  0  0  0  0  0  0
  194.7340  176.3870  141.3140 C   0  0  0  0  0  1  0  0  0  0  0  0
  193.9610  175.2950  140.7200 C   0  0  0  0  0  0  0  0  0  0  0  0
  193.3260  174.3950  140.2310 C   0  0  0  0  0  0  0  0  0  0  0  0
  194.2170  170.3890  141.8940 C   0  0  0  0  0  2  0  0  0  0  0  0
  194.8670  170.3840  140.5260 C   0  0  0  0  0  2  0  0  0  0  0  0
  195.8000  171.5730  140.4150 C   0  0  0  0  0  2  0  0  0  0  0  0
  195.8530  172.0630  138.9750 C   0  0  2  0  0  3  0  0  0  0  0  0
  196.7620  170.3540  137.3060 C   0  0  0  0  0  1  0  0  0  0  0  0
  195.5270  170.9500  137.9680 C   0  0  2  0  0  3  0  0  0  0  0  0
  194.5230  171.4280  136.9260 C   0  0  0  0  0  2  0  0  0  0  0  0
  192.3710  171.2100  136.0220 C   0  0  1  0  0  3  0  0  0  0  0  0
  193.2370  170.7850  137.1320 N   0  0  0  0  0  0  0  0  0  0  0  0
  193.0210  169.9050  135.9750 C   0  0  0  0  0  2  0  0  0  0  0  0
  190.9200  171.0380  136.4350 C   0  0  0  0  0  2  0  0  0  0  0  0
  190.0480  172.1040  135.7900 C   0  0  0  0  0  2  0  0  0  0  0  0
  190.4870  174.1560  136.9230 O   0  0  0  0  0  0  0  0  0  0  0  0
  188.5610  173.0800  137.5370 O   0  0  0  0  0  1  0  0  0  0  0  0
  189.7120  173.1770  136.7680 C   0  0  0  0  0  0  0  0  0  0  0  0
  197.1090  172.8930  138.6680 C   0  0  0  0  0  2  0  0  0  0  0  0
  196.5240  174.2690  136.6710 O   0  0  0  0  0  0  0  0  0  0  0  0
  196.8530  175.2720  138.7030 O   0  0  0  0  0  1  0  0  0  0  0  0
  196.8220  174.2120  138.0250 C   0  0  0  0  0  0  0  0  0  0  0  0
  1 19  2  0  0  0  0
  2 16  1  0  0  0  0
  3 17  1  0  0  0  0
  3 20  1  0  0  0  0
  5  4  2  0  0  0  0
  6 10  2  0  0  0  0
  7  9  2  0  0  0  0
  7  6  1  0  0  0  0
  9  5  1  0  0  0  0
 10  4  1  0  0  0  0
 10 20  1  0  0  0  0
 11 13  1  0  0  0  0
 12 24  1  0  0  0  0
 12 21  1  0  0  0  0
 13 23  1  0  0  0  0
 15  6  1  0  0  0  0
 16 17  1  0  0  0  0
 18 37  1  1  0  0  0
 18  2  1  0  0  0  0
 19 11  1  0  0  0  0
 20  8  2  0  0  0  0
 21 33  1  6  0  0  0
 21  1  1  0  0  0  0
 22 18  1  0  0  0  0
 22 14  1  6  0  0  0
 23 15  1  0  0  0  0
 23 25  1  1  0  0  0
 24 22  1  0  0  0  0
 25 27  2  0  0  0  0
 26 30  1  0  0  0  0
 26 28  1  0  0  0  0
 27 28  1  0  0  0  0
 29 25  1  0  0  0  0
 29 26  2  0  0  0  0
 30 31  1  0  0  0  0
 32 30  1  0  0  0  0
 32 31  1  0  0  0  0
 33 36  1  0  0  0  0
 35 34  1  0  0  0  0
 36 35  3  0  0  0  0
 38 37  1  0  0  0  0
 39 38  1  0  0  0  0
 40 52  1  6  0  0  0
 40 39  1  0  0  0  0
 42 41  1  6  0  0  0
 42 40  1  0  0  0  0
 43 45  1  0  0  0  0
 43 42  1  0  0  0  0
 44 47  1  1  0  0  0
 44 45  1  0  0  0  0
 46 44  1  0  0  0  0
 46 45  1  0  0  0  0
 48 47  1  0  0  0  0
 48 51  1  0  0  0  0
 51 49  2  0  0  0  0
 51 50  1  0  0  0  0
 53 55  2  0  0  0  0
 55 52  1  0  0  0  0
 55 54  1  0  0  0  0
M  END
>  <MODEL>
8

>  <REMARK>
 VINA RESULT:      -6.0      3.566      8.658
  Name = 
  16 active torsions:
  status: ('A' for Active; 'I' for Inactive)
    1  A    between atoms: C_3  and  C_14
    2  A    between atoms: C_6  and  C_14
    3  A    between atoms: C_6  and  C_38
    4  A    between atoms: C_7  and  N_21
    5  A    between atoms: C_7  and  C_46
    6  A    between atoms: C_8  and  C_20
    7  A    between atoms: C_8  and  C_22
    8  A    between atoms: C_10  and  C_32
    9  A    between atoms: C_12  and  C_20
   10  A    between atoms: C_12  and  C_42
   11  A    between atoms: C_12  and  C_46
   12  A    between atoms: C_13  and  C_52
   13  A    between atoms: C_22  and  C_43
   14  A    between atoms: C_27  and  C_49
   15  A    between atoms: C_27  and  C_55
   16  A    between atoms: C_42  and  C_50
                            x       y       z     vdW  Elec       q    Type
                         _______ _______ _______ _____ _____    ______ ____

>  <TORSDO>
F 16

$$$$
=
 OpenBabel11052419323D

 55 59  0  0  1  0  0  0  0  0999 V2000
  196.0180  169.8240  142.9350 C   0  0  0  0  0  3  0  0  0  0  0  0
  189.8890  172.2210  141.9230 C   0  0  0  0  0  2  0  0  0  0  0  0
  192.4700  174.4640  141.6200 O   0  0  0  0  0  0  0  0  0  0  0  0
  195.1280  176.7280  143.0100 C   0  0  0  0  0  3  0  0  0  0  0  0
  196.5070  176.7970  143.2140 C   0  0  0  0  0  3  0  0  0  0  0  0
  195.3940  174.6020  141.8650 C   0  0  0  0  0  0  0  0  0  0  0  0
  196.7790  174.6810  142.0800 C   0  0  0  0  0  3  0  0  0  0  0  0
  192.3790  176.5740  142.5370 O   0  0  0  0  0  0  0  0  0  0  0  0
  197.3320  175.7730  142.7510 C   0  0  0  0  0  3  0  0  0  0  0  0
  194.5540  175.6350  142.3410 C   0  0  0  0  0  0  0  0  0  0  0  0
  195.3520  169.8580  140.5900 C   0  0  0  0  0  2  0  0  0  0  0  0
  193.6330  169.0800  143.2410 C   0  0  0  0  0  2  0  0  0  0  0  0
  194.6360  171.2080  140.6020 C   0  0  0  0  0  2  0  0  0  0  0  0
  191.2320  169.8170  141.3880 O   0  0  0  0  0  1  0  0  0  0  0  0
  194.8410  173.5110  141.1850 O   0  0  0  0  0  0  0  0  0  0  0  0
  190.7240  172.9930  140.9030 C   0  0  0  0  0  2  0  0  0  0  0  0
  191.0680  174.3790  141.4170 C   0  0  0  0  0  2  0  0  0  0  0  0
  190.7150  171.5260  143.0140 C   0  0  1  0  0  3  0  0  0  0  0  0
  196.2980  169.7060  141.6790 N   0  0  0  0  0  0  0  0  0  0  0  0
  193.0830  175.5930  142.1700 C   0  0  0  0  0  0  0  0  0  0  0  0
  194.6610  170.1880  143.4690 C   0  0  1  0  0  3  0  0  0  0  0  0
  191.7620  170.5530  142.4500 C   0  0  1  0  0  3  0  0  0  0  0  0
  195.5870  172.3870  140.7380 C   0  0  2  0  0  3  0  0  0  0  0  0
  192.2260  169.5860  143.5300 C   0  0  0  0  0  2  0  0  0  0  0  0
  196.2510  172.6890  139.4340 C   0  0  0  0  0  0  0  0  0  0  0  0
  196.3990  172.8670  137.2030 C   0  0  0  0  0  0  0  0  0  0  0  0
  197.5550  173.1800  139.3710 C   0  0  0  0  0  3  0  0  0  0  0  0
  197.8960  173.4060  137.7380 S   0  0  0  0  0  0  0  0  0  0  0  0
  195.6110  172.5250  138.2430 N   0  0  0  0  0  0  0  0  0  0  0  0
  195.9490  172.8430  135.7780 C   0  0  0  0  0  3  0  0  0  0  0  0
  196.5850  173.9920  135.0200 C   0  0  0  0  0  2  0  0  0  0  0  0
  195.1450  174.0920  135.4660 C   0  0  0  0  0  2  0  0  0  0  0  0
  194.7480  170.6150  144.9350 C   0  0  0  0  0  2  0  0  0  0  0  0
  194.2140  174.6860  145.4600 C   0  0  0  0  0  1  0  0  0  0  0  0
  194.4050  173.2470  145.2740 C   0  0  0  0  0  0  0  0  0  0  0  0
  194.5600  172.0610  145.1200 C   0  0  0  0  0  0  0  0  0  0  0  0
  191.3430  172.5600  143.9420 C   0  0  0  0  0  2  0  0  0  0  0  0
  190.3840  172.9680  145.0400 C   0  0  0  0  0  2  0  0  0  0  0  0
  190.3850  174.4790  145.1650 C   0  0  0  0  0  2  0  0  0  0  0  0
  189.2110  174.9340  146.0200 C   0  0  2  0  0  3  0  0  0  0  0  0
  189.2950  177.2980  145.0560 C   0  0  0  0  0  1  0  0  0  0  0  0
  188.4290  176.0870  145.3740 C   0  0  2  0  0  3  0  0  0  0  0  0
  187.2260  176.4790  146.2220 C   0  0  0  0  0  2  0  0  0  0  0  0
  185.4860  177.9890  145.7860 C   0  0  1  0  0  3  0  0  0  0  0  0
  186.9290  177.8910  146.0540 N   0  0  0  0  0  0  0  0  0  0  0  0
  185.9940  178.2520  147.1270 C   0  0  0  0  0  2  0  0  0  0  0  0
  185.2040  179.3060  145.0850 C   0  0  0  0  0  2  0  0  0  0  0  0
  185.7080  179.2700  143.6510 C   0  0  0  0  0  2  0  0  0  0  0  0
  185.4460  177.4160  142.1740 O   0  0  0  0  0  0  0  0  0  0  0  0
  183.5160  178.5130  142.7370 O   0  0  0  0  0  1  0  0  0  0  0  0
  184.8900  178.3390  142.8230 C   0  0  0  0  0  0  0  0  0  0  0  0
  189.5830  175.1260  147.4990 C   0  0  0  0  0  2  0  0  0  0  0  0
  191.0850  177.0550  147.9980 O   0  0  0  0  0  1  0  0  0  0  0  0
  191.9680  174.9750  147.6240 O   0  0  0  0  0  0  0  0  0  0  0  0
  190.9450  175.7040  147.7110 C   0  0  0  0  0  0  0  0  0  0  0  0
  1 21  1  0  0  0  0
  2 18  1  0  0  0  0
  3 20  1  0  0  0  0
  4  5  1  0  0  0  0
  6  7  2  0  0  0  0
  6 10  1  0  0  0  0
  7  9  1  0  0  0  0
  9  5  2  0  0  0  0
 10  4  2  0  0  0  0
 11 13  1  0  0  0  0
 11 19  1  0  0  0  0
 12 21  1  0  0  0  0
 12 24  1  0  0  0  0
 13 23  1  0  0  0  0
 15  6  1  0  0  0  0
 16 17  1  0  0  0  0
 16  2  1  0  0  0  0
 17  3  1  0  0  0  0
 18 37  1  6  0  0  0
 19  1  2  0  0  0  0
 20 10  1  0  0  0  0
 20  8  2  0  0  0  0
 21 33  1  1  0  0  0
 22 14  1  6  0  0  0
 22 18  1  0  0  0  0
 22 24  1  0  0  0  0
 23 25  1  6  0  0  0
 23 15  1  0  0  0  0
 26 28  1  0  0  0  0
 26 29  2  0  0  0  0
 27 25  2  0  0  0  0
 28 27  1  0  0  0  0
 29 25  1  0  0  0  0
 30 26  1  0  0  0  0
 31 32  1  0  0  0  0
 31 30  1  0  0  0  0
 32 30  1  0  0  0  0
 33 36  1  0  0  0  0
 35 34  1  0  0  0  0
 36 35  3  0  0  0  0
 37 38  1  0  0  0  0
 38 39  1  0  0  0  0
 40 39  1  6  0  0  0
 40 52  1  0  0  0  0
 42 41  1  1  0  0  0
 42 40  1  0  0  0  0
 42 43  1  0  0  0  0
 44 47  1  6  0  0  0
 44 45  1  0  0  0  0
 44 46  1  0  0  0  0
 45 43  1  0  0  0  0
 45 46  1  0  0  0  0
 48 47  1  0  0  0  0
 49 51  2  0  0  0  0
 50 51  1  0  0  0  0
 51 48  1  0  0  0  0
 52 55  1  0  0  0  0
 54 55  2  0  0  0  0
 55 53  1  0  0  0  0
M  END
>  <MODEL>
9

>  <REMARK>
 VINA RESULT:      -6.0      2.561      5.955
  Name = 
  16 active torsions:
  status: ('A' for Active; 'I' for Inactive)
    1  A    between atoms: C_3  and  C_14
    2  A    between atoms: C_6  and  C_14
    3  A    between atoms: C_6  and  C_38
    4  A    between atoms: C_7  and  N_21
    5  A    between atoms: C_7  and  C_46
    6  A    between atoms: C_8  and  C_20
    7  A    between atoms: C_8  and  C_22
    8  A    between atoms: C_10  and  C_32
    9  A    between atoms: C_12  and  C_20
   10  A    between atoms: C_12  and  C_42
   11  A    between atoms: C_12  and  C_46
   12  A    between atoms: C_13  and  C_52
   13  A    between atoms: C_22  and  C_43
   14  A    between atoms: C_27  and  C_49
   15  A    between atoms: C_27  and  C_55
   16  A    between atoms: C_42  and  C_50
                            x       y       z     vdW  Elec       q    Type
                         _______ _______ _______ _____ _____    ______ ____

>  <TORSDO>
F 16

$$$$
