=
 OpenBabel11052417413D

 31 35  0  0  1  0  0  0  0  0999 V2000
  185.0310  177.9190  146.7650 C   0  0  2  0  0  3  0  0  0  0  0  0
  188.1680  177.3940  144.6380 N   0  0  0  0  0  0  0  0  0  0  0  0
  189.1190  176.7060  145.4910 C   0  0  0  0  0  0  0  0  0  0  0  0
  189.3400  175.0330  147.4120 C   0  0  0  0  0  3  0  0  0  0  0  0
  186.7310  177.4650  144.9890 C   0  0  1  0  0  3  0  0  0  0  0  0
  184.1910  178.7180  145.7670 C   0  0  0  0  0  2  0  0  0  0  0  0
  188.6480  175.8680  146.4250 C   0  0  0  0  0  3  0  0  0  0  0  0
  187.6760  178.3430  142.2870 C   0  0  1  0  0  3  0  0  0  0  0  0
  184.8330  178.4230  148.0490 O   0  0  0  0  0  1  0  0  0  0  0  0
  190.8970  177.5390  144.0790 C   0  0  0  0  0  3  0  0  0  0  0  0
  190.6280  175.0050  147.7270 C   0  0  0  0  0  3  0  0  0  0  0  0
  186.2380  177.9560  142.6090 C   0  0  0  0  0  2  0  0  0  0  0  0
  188.6380  177.8640  143.3510 C   0  0  0  0  0  0  0  0  0  0  0  0
  186.5150  177.9990  146.4090 C   0  0  0  0  0  2  0  0  0  0  0  0
  191.7170  175.7980  147.1590 C   0  0  0  0  0  3  0  0  0  0  0  0
  185.9390  178.3580  144.0330 C   0  0  1  0  0  3  0  0  0  0  0  0
  184.4520  178.2430  144.3370 C   0  0  0  0  0  2  0  0  0  0  0  0
  189.9150  177.9580  143.1260 N   0  0  0  0  0  0  0  0  0  0  0  0
  190.5630  176.9220  145.2130 C   0  0  0  0  0  0  0  0  0  0  0  0
  191.6870  176.5970  146.0990 C   0  0  0  0  0  3  0  0  0  0  0  0
  188.0610  177.7910  140.9180 C   0  0  0  0  0  2  0  0  0  0  0  0
  186.5090  176.9340  139.3350 O   0  0  0  0  0  1  0  0  0  0  0  0
  187.1660  176.6270  140.5260 C   0  0  1  0  0  3  0  0  0  0  0  0
  187.9670  175.4230  140.3430 N   0  0  0  0  0  2  0  0  0  0  0  0
  190.9780  174.3290  142.2820 C   0  0  0  0  0  0  0  0  0  0  0  0
  188.9760  173.7140  143.4960 C   0  0  0  0  0  3  0  0  0  0  0  0
  192.3620  174.3570  142.1810 O   0  0  0  0  0  1  0  0  0  0  0  0
  190.1920  174.8880  141.2700 C   0  0  0  0  0  3  0  0  0  0  0  0
  188.1900  174.2730  142.4840 C   0  0  0  0  0  3  0  0  0  0  0  0
  188.7930  174.8630  141.3680 C   0  0  0  0  0  0  0  0  0  0  0  0
  190.3700  173.7430  143.3950 C   0  0  0  0  0  3  0  0  0  0  0  0
  1  9  1  1  0  0  0
  2  5  1  0  0  0  0
  2  3  1  0  0  0  0
  3  7  2  0  0  0  0
  4 11  2  0  0  0  0
  5 14  1  1  0  0  0
  6  1  1  0  0  0  0
  7  4  1  0  0  0  0
  8 21  1  6  0  0  0
  8 12  1  0  0  0  0
  8 13  1  0  0  0  0
 10 19  2  0  0  0  0
 13  2  1  0  0  0  0
 14  1  1  0  0  0  0
 15 11  1  0  0  0  0
 16 12  1  6  0  0  0
 16 17  1  0  0  0  0
 16  5  1  0  0  0  0
 17  6  1  0  0  0  0
 18 13  2  0  0  0  0
 18 10  1  0  0  0  0
 19  3  1  0  0  0  0
 19 20  1  0  0  0  0
 20 15  2  0  0  0  0
 23 22  1  6  0  0  0
 23 21  1  0  0  0  0
 24 23  1  0  0  0  0
 24 30  1  0  0  0  0
 25 31  1  0  0  0  0
 27 25  1  0  0  0  0
 28 30  1  0  0  0  0
 28 25  2  0  0  0  0
 29 26  1  0  0  0  0
 30 29  2  0  0  0  0
 31 26  2  0  0  0  0
M  END
>  <MODEL>
1

>  <REMARK>
 VINA RESULT:      -7.9      0.000      0.000
  Name = 
  4 active torsions:
  status: ('A' for Active; 'I' for Inactive)
    1  A    between atoms: N_3  and  C_9
    2  A    between atoms: N_3  and  C_22
    3  A    between atoms: C_9  and  C_23
    4  A    between atoms: C_15  and  C_23
                            x       y       z     vdW  Elec       q    Type
                         _______ _______ _______ _____ _____    ______ ____

>  <TORSDO>
F 4

$$$$
=
 OpenBabel11052417413D

 31 35  0  0  1  0  0  0  0  0999 V2000
  186.0740  177.5490  143.2490 C   0  0  2  0  0  3  0  0  0  0  0  0
  188.7420  175.0310  144.3380 N   0  0  0  0  0  0  0  0  0  0  0  0
  189.1180  174.3040  143.1400 C   0  0  0  0  0  0  0  0  0  0  0  0
  189.3930  174.4970  140.6060 C   0  0  0  0  0  3  0  0  0  0  0  0
  187.9940  176.3070  144.2600 C   0  0  1  0  0  3  0  0  0  0  0  0
  185.7330  178.1480  144.6150 C   0  0  0  0  0  2  0  0  0  0  0  0
  189.0690  174.9440  141.9640 C   0  0  0  0  0  3  0  0  0  0  0  0
  189.1600  175.3890  146.8620 C   0  0  1  0  0  3  0  0  0  0  0  0
  184.9110  177.4260  142.4910 O   0  0  0  0  0  1  0  0  0  0  0  0
  189.8900  172.4980  144.5510 C   0  0  0  0  0  3  0  0  0  0  0  0
  189.6850  173.2770  140.1750 C   0  0  0  0  0  3  0  0  0  0  0  0
  188.7740  176.8310  146.5550 C   0  0  0  0  0  2  0  0  0  0  0  0
  189.2640  174.5570  145.6030 C   0  0  0  0  0  0  0  0  0  0  0  0
  186.7270  176.1760  143.4080 C   0  0  0  0  0  2  0  0  0  0  0  0
  189.7800  172.0410  140.9500 C   0  0  0  0  0  3  0  0  0  0  0  0
  187.5750  176.8240  145.6380 C   0  0  1  0  0  3  0  0  0  0  0  0
  186.9760  178.2170  145.5020 C   0  0  0  0  0  2  0  0  0  0  0  0
  189.7610  173.3590  145.6870 N   0  0  0  0  0  0  0  0  0  0  0  0
  189.6100  172.9120  143.3150 C   0  0  0  0  0  0  0  0  0  0  0  0
  189.7550  171.8930  142.2690 C   0  0  0  0  0  3  0  0  0  0  0  0
  190.4700  175.3640  147.6410 C   0  0  0  0  0  2  0  0  0  0  0  0
  191.5480  177.1880  148.7180 O   0  0  0  0  0  1  0  0  0  0  0  0
  191.2380  176.6640  147.4630 C   0  0  1  0  0  3  0  0  0  0  0  0
  192.4670  176.4190  146.7210 N   0  0  0  0  0  2  0  0  0  0  0  0
  192.9630  174.5680  143.5030 C   0  0  0  0  0  0  0  0  0  0  0  0
  192.1030  176.7810  143.0310 C   0  0  0  0  0  3  0  0  0  0  0  0
  193.4010  173.3280  143.0590 O   0  0  0  0  0  1  0  0  0  0  0  0
  192.9390  174.8510  144.8720 C   0  0  0  0  0  3  0  0  0  0  0  0
  192.0790  177.0650  144.4000 C   0  0  0  0  0  3  0  0  0  0  0  0
  192.4950  176.1020  145.3270 C   0  0  0  0  0  0  0  0  0  0  0  0
  192.5440  175.5330  142.5830 C   0  0  0  0  0  3  0  0  0  0  0  0
  1  9  1  6  0  0  0
  1 14  1  0  0  0  0
  1  6  1  0  0  0  0
  2 13  1  0  0  0  0
  3 19  1  0  0  0  0
  3  2  1  0  0  0  0
  4  7  1  0  0  0  0
  5 14  1  6  0  0  0
  5  2  1  0  0  0  0
  5 16  1  0  0  0  0
  6 17  1  0  0  0  0
  7  3  2  0  0  0  0
  8 21  1  6  0  0  0
 10 18  1  0  0  0  0
 11  4  2  0  0  0  0
 11 15  1  0  0  0  0
 12  8  1  0  0  0  0
 13 18  2  0  0  0  0
 13  8  1  0  0  0  0
 15 20  2  0  0  0  0
 16 17  1  6  0  0  0
 16 12  1  0  0  0  0
 19 10  2  0  0  0  0
 20 19  1  0  0  0  0
 23 21  1  0  0  0  0
 23 22  1  1  0  0  0
 24 23  1  0  0  0  0
 25 28  1  0  0  0  0
 26 29  2  0  0  0  0
 27 25  1  0  0  0  0
 28 30  2  0  0  0  0
 29 30  1  0  0  0  0
 30 24  1  0  0  0  0
 31 26  1  0  0  0  0
 31 25  2  0  0  0  0
M  END
>  <MODEL>
2

>  <REMARK>
 VINA RESULT:      -7.4      2.355      5.332
  Name = 
  4 active torsions:
  status: ('A' for Active; 'I' for Inactive)
    1  A    between atoms: N_3  and  C_9
    2  A    between atoms: N_3  and  C_22
    3  A    between atoms: C_9  and  C_23
    4  A    between atoms: C_15  and  C_23
                            x       y       z     vdW  Elec       q    Type
                         _______ _______ _______ _____ _____    ______ ____

>  <TORSDO>
F 4

$$$$
=
 OpenBabel11052417413D

 31 35  0  0  1  0  0  0  0  0999 V2000
  190.4270  172.2340  141.3210 C   0  0  2  0  0  3  0  0  0  0  0  0
  190.0660  175.5370  143.2180 N   0  0  0  0  0  0  0  0  0  0  0  0
  191.2330  175.6360  144.0760 C   0  0  0  0  0  0  0  0  0  0  0  0
  193.7080  175.0320  144.2740 C   0  0  0  0  0  3  0  0  0  0  0  0
  190.0180  174.5770  142.0920 C   0  0  1  0  0  3  0  0  0  0  0  0
  189.1020  172.2470  140.5550 C   0  0  0  0  0  2  0  0  0  0  0  0
  192.3800  175.0880  143.6550 C   0  0  0  0  0  3  0  0  0  0  0  0
  187.9010  176.6750  142.3860 C   0  0  1  0  0  3  0  0  0  0  0  0
  190.7140  170.9340  141.7330 O   0  0  0  0  0  1  0  0  0  0  0  0
  189.9900  177.1520  145.4920 C   0  0  0  0  0  3  0  0  0  0  0  0
  194.0770  175.3950  145.4950 C   0  0  0  0  0  3  0  0  0  0  0  0
  188.2100  175.9450  141.0860 C   0  0  0  0  0  2  0  0  0  0  0  0
  189.0180  176.5230  143.3940 C   0  0  0  0  0  0  0  0  0  0  0  0
  190.3550  173.1520  142.5420 C   0  0  0  0  0  2  0  0  0  0  0  0
  193.2530  175.9690  146.5580 C   0  0  0  0  0  3  0  0  0  0  0  0
  188.6460  174.5380  141.4160 C   0  0  1  0  0  3  0  0  0  0  0  0
  188.7170  173.6740  140.1640 C   0  0  0  0  0  2  0  0  0  0  0  0
  188.9820  177.2380  144.4790 N   0  0  0  0  0  0  0  0  0  0  0  0
  191.0880  176.4130  145.3340 C   0  0  0  0  0  0  0  0  0  0  0  0
  192.0000  176.4020  146.4840 C   0  0  0  0  0  3  0  0  0  0  0  0
  187.6300  178.1470  142.0950 C   0  0  0  0  0  2  0  0  0  0  0  0
  185.6660  178.3120  140.7660 O   0  0  0  0  0  1  0  0  0  0  0  0
  186.1370  178.4340  142.0730 C   0  0  1  0  0  3  0  0  0  0  0  0
  185.4350  177.4900  142.9340 N   0  0  0  0  0  2  0  0  0  0  0  0
  185.4740  177.2830  146.6720 C   0  0  0  0  0  0  0  0  0  0  0  0
  183.9060  178.9920  145.9800 C   0  0  0  0  0  3  0  0  0  0  0  0
  186.1020  176.5640  147.6810 O   0  0  0  0  0  1  0  0  0  0  0  0
  185.7780  177.0200  145.3340 C   0  0  0  0  0  3  0  0  0  0  0  0
  184.2090  178.7290  144.6410 C   0  0  0  0  0  3  0  0  0  0  0  0
  185.1470  177.7440  144.3110 C   0  0  0  0  0  0  0  0  0  0  0  0
  184.5390  178.2700  146.9950 C   0  0  0  0  0  3  0  0  0  0  0  0
  1  9  1  1  0  0  0
  1 14  1  0  0  0  0
  2 13  1  0  0  0  0
  2  3  1  0  0  0  0
  3 19  1  0  0  0  0
  4 11  2  0  0  0  0
  5 14  1  1  0  0  0
  5  2  1  0  0  0  0
  6  1  1  0  0  0  0
  7  3  2  0  0  0  0
  7  4  1  0  0  0  0
  8 21  1  6  0  0  0
  8 13  1  0  0  0  0
 11 15  1  0  0  0  0
 12 16  1  0  0  0  0
 12  8  1  0  0  0  0
 13 18  2  0  0  0  0
 16 17  1  6  0  0  0
 16  5  1  0  0  0  0
 17  6  1  0  0  0  0
 18 10  1  0  0  0  0
 19 10  2  0  0  0  0
 19 20  1  0  0  0  0
 20 15  2  0  0  0  0
 23 22  1  6  0  0  0
 23 21  1  0  0  0  0
 23 24  1  0  0  0  0
 24 30  1  0  0  0  0
 25 31  1  0  0  0  0
 25 27  1  0  0  0  0
 26 31  2  0  0  0  0
 28 25  2  0  0  0  0
 29 26  1  0  0  0  0
 30 29  2  0  0  0  0
 30 28  1  0  0  0  0
M  END
>  <MODEL>
3

>  <REMARK>
 VINA RESULT:      -7.2      1.790      5.656
  Name = 
  4 active torsions:
  status: ('A' for Active; 'I' for Inactive)
    1  A    between atoms: N_3  and  C_9
    2  A    between atoms: N_3  and  C_22
    3  A    between atoms: C_9  and  C_23
    4  A    between atoms: C_15  and  C_23
                            x       y       z     vdW  Elec       q    Type
                         _______ _______ _______ _____ _____    ______ ____

>  <TORSDO>
F 4

$$$$
=
 OpenBabel11052417413D

 31 35  0  0  1  0  0  0  0  0999 V2000
  190.2500  172.0570  141.4340 C   0  0  2  0  0  3  0  0  0  0  0  0
  190.5550  175.6090  142.8240 N   0  0  0  0  0  0  0  0  0  0  0  0
  189.2290  176.1910  142.7280 C   0  0  0  0  0  0  0  0  0  0  0  0
  186.7300  175.6640  142.8150 C   0  0  0  0  0  3  0  0  0  0  0  0
  190.7640  174.1470  142.7050 C   0  0  1  0  0  3  0  0  0  0  0  0
  191.7190  171.6340  141.5210 C   0  0  0  0  0  2  0  0  0  0  0  0
  188.1680  175.3830  142.8520 C   0  0  0  0  0  3  0  0  0  0  0  0
  192.9990  175.9300  143.5970 C   0  0  1  0  0  3  0  0  0  0  0  0
  189.6870  171.5430  140.2670 O   0  0  0  0  0  1  0  0  0  0  0  0
  190.2540  178.3810  142.7650 C   0  0  0  0  0  3  0  0  0  0  0  0
  186.1060  176.7920  142.5030 C   0  0  0  0  0  3  0  0  0  0  0  0
  192.9450  174.4300  143.8520 C   0  0  0  0  0  2  0  0  0  0  0  0
  191.6460  176.4820  143.2060 C   0  0  0  0  0  0  0  0  0  0  0  0
  190.1250  173.5810  141.4340 C   0  0  0  0  0  2  0  0  0  0  0  0
  186.6930  178.0760  142.1220 C   0  0  0  0  0  3  0  0  0  0  0  0
  192.2460  173.7680  142.6890 C   0  0  1  0  0  3  0  0  0  0  0  0
  192.3880  172.2530  142.7480 C   0  0  0  0  0  2  0  0  0  0  0  0
  191.4950  177.7710  143.1360 N   0  0  0  0  0  0  0  0  0  0  0  0
  189.1440  177.6670  142.5780 C   0  0  0  0  0  0  0  0  0  0  0  0
  187.9690  178.4420  142.1610 C   0  0  0  0  0  3  0  0  0  0  0  0
  193.5400  176.6410  144.8320 C   0  0  0  0  0  2  0  0  0  0  0  0
  194.5370  175.6760  146.7610 O   0  0  0  0  0  1  0  0  0  0  0  0
  193.3260  175.8040  146.0830 C   0  0  1  0  0  3  0  0  0  0  0  0
  192.3480  176.4470  146.9510 N   0  0  0  0  0  2  0  0  0  0  0  0
  188.6910  176.9020  146.2860 C   0  0  0  0  0  0  0  0  0  0  0  0
  189.0620  174.7190  147.2630 C   0  0  0  0  0  3  0  0  0  0  0  0
  187.8260  177.8570  145.7690 O   0  0  0  0  0  1  0  0  0  0  0  0
  190.0620  177.1640  146.3500 C   0  0  0  0  0  3  0  0  0  0  0  0
  190.4350  174.9800  147.3270 C   0  0  0  0  0  3  0  0  0  0  0  0
  190.9410  176.2020  146.8700 C   0  0  0  0  0  0  0  0  0  0  0  0
  188.1910  175.6800  146.7420 C   0  0  0  0  0  3  0  0  0  0  0  0
  1  9  1  6  0  0  0
  1 14  1  0  0  0  0
  1  6  1  0  0  0  0
  2 13  1  0  0  0  0
  3  2  1  0  0  0  0
  3  7  2  0  0  0  0
  4  7  1  0  0  0  0
  5 14  1  6  0  0  0
  5  2  1  0  0  0  0
  6 17  1  0  0  0  0
  8 12  1  0  0  0  0
  8 21  1  1  0  0  0
 10 18  1  0  0  0  0
 11  4  2  0  0  0  0
 13  8  1  0  0  0  0
 15 20  2  0  0  0  0
 15 11  1  0  0  0  0
 16  5  1  0  0  0  0
 16 17  1  1  0  0  0
 16 12  1  0  0  0  0
 18 13  2  0  0  0  0
 19  3  1  0  0  0  0
 19 10  2  0  0  0  0
 20 19  1  0  0  0  0
 21 23  1  0  0  0  0
 23 22  1  1  0  0  0
 23 24  1  0  0  0  0
 25 28  2  0  0  0  0
 25 31  1  0  0  0  0
 26 29  1  0  0  0  0
 27 25  1  0  0  0  0
 28 30  1  0  0  0  0
 30 24  1  0  0  0  0
 30 29  2  0  0  0  0
 31 26  2  0  0  0  0
M  END
>  <MODEL>
4

>  <REMARK>
 VINA RESULT:      -7.1      2.442      6.788
  Name = 
  4 active torsions:
  status: ('A' for Active; 'I' for Inactive)
    1  A    between atoms: N_3  and  C_9
    2  A    between atoms: N_3  and  C_22
    3  A    between atoms: C_9  and  C_23
    4  A    between atoms: C_15  and  C_23
                            x       y       z     vdW  Elec       q    Type
                         _______ _______ _______ _____ _____    ______ ____

>  <TORSDO>
F 4

$$$$
=
 OpenBabel11052417413D

 31 35  0  0  1  0  0  0  0  0999 V2000
  186.3510  177.1370  140.9690 C   0  0  2  0  0  3  0  0  0  0  0  0
  187.6950  176.3790  144.4700 N   0  0  0  0  0  0  0  0  0  0  0  0
  186.8320  177.0930  145.3930 C   0  0  0  0  0  0  0  0  0  0  0  0
  184.4420  177.9160  145.7710 C   0  0  0  0  0  3  0  0  0  0  0  0
  187.2940  176.1500  143.0630 C   0  0  1  0  0  3  0  0  0  0  0  0
  187.4060  176.4020  140.1390 C   0  0  0  0  0  2  0  0  0  0  0  0
  185.5460  177.2630  145.0610 C   0  0  0  0  0  3  0  0  0  0  0  0
  189.6970  174.7690  144.1990 C   0  0  1  0  0  3  0  0  0  0  0  0
  185.9980  178.3230  140.3280 O   0  0  0  0  0  1  0  0  0  0  0  0
  188.6220  177.0330  147.0190 C   0  0  0  0  0  3  0  0  0  0  0  0
  184.4750  178.6400  146.8820 C   0  0  0  0  0  3  0  0  0  0  0  0
  188.9430  174.3000  142.9610 C   0  0  0  0  0  2  0  0  0  0  0  0
  188.8850  175.7540  145.0110 C   0  0  0  0  0  0  0  0  0  0  0  0
  186.8850  177.4520  142.3660 C   0  0  0  0  0  2  0  0  0  0  0  0
  185.6310  178.9740  147.7120 C   0  0  0  0  0  3  0  0  0  0  0  0
  188.4100  175.5110  142.2340 C   0  0  1  0  0  3  0  0  0  0  0  0
  187.8760  175.1380  140.8580 C   0  0  0  0  0  2  0  0  0  0  0  0
  189.3190  176.1010  146.1860 N   0  0  0  0  0  0  0  0  0  0  0  0
  187.4250  177.5190  146.6880 C   0  0  0  0  0  0  0  0  0  0  0  0
  186.8670  178.4950  147.6310 C   0  0  0  0  0  3  0  0  0  0  0  0
  190.0930  173.5640  145.0450 C   0  0  0  0  0  2  0  0  0  0  0  0
  191.7310  172.0290  144.2620 O   0  0  0  0  0  1  0  0  0  0  0  0
  191.5760  173.2590  144.9010 C   0  0  1  0  0  3  0  0  0  0  0  0
  192.2250  174.3010  144.1150 N   0  0  0  0  0  2  0  0  0  0  0  0
  195.1750  176.5720  144.5120 C   0  0  0  0  0  0  0  0  0  0  0  0
  193.8160  176.6670  146.5130 C   0  0  0  0  0  3  0  0  0  0  0  0
  196.2940  176.9800  143.7980 O   0  0  0  0  0  1  0  0  0  0  0  0
  194.2830  175.6560  143.9490 C   0  0  0  0  0  3  0  0  0  0  0  0
  192.9220  175.7500  145.9500 C   0  0  0  0  0  3  0  0  0  0  0  0
  193.1500  175.2420  144.6660 C   0  0  0  0  0  0  0  0  0  0  0  0
  194.9410  177.0780  145.7940 C   0  0  0  0  0  3  0  0  0  0  0  0
  1  9  1  6  0  0  0
  1 14  1  0  0  0  0
  2 13  1  0  0  0  0
  2  3  1  0  0  0  0
  3 19  1  0  0  0  0
  4 11  2  0  0  0  0
  5 14  1  6  0  0  0
  5  2  1  0  0  0  0
  6 17  1  0  0  0  0
  6  1  1  0  0  0  0
  7  3  2  0  0  0  0
  7  4  1  0  0  0  0
  8 13  1  0  0  0  0
  8 21  1  1  0  0  0
 11 15  1  0  0  0  0
 12  8  1  0  0  0  0
 13 18  2  0  0  0  0
 16 17  1  6  0  0  0
 16 12  1  0  0  0  0
 16  5  1  0  0  0  0
 18 10  1  0  0  0  0
 19 10  2  0  0  0  0
 19 20  1  0  0  0  0
 20 15  2  0  0  0  0
 23 22  1  6  0  0  0
 23 21  1  0  0  0  0
 24 30  1  0  0  0  0
 24 23  1  0  0  0  0
 25 31  1  0  0  0  0
 27 25  1  0  0  0  0
 28 25  2  0  0  0  0
 28 30  1  0  0  0  0
 29 26  1  0  0  0  0
 30 29  2  0  0  0  0
 31 26  2  0  0  0  0
M  END
>  <MODEL>
5

>  <REMARK>
 VINA RESULT:      -7.1      2.325      5.419
  Name = 
  4 active torsions:
  status: ('A' for Active; 'I' for Inactive)
    1  A    between atoms: N_3  and  C_9
    2  A    between atoms: N_3  and  C_22
    3  A    between atoms: C_9  and  C_23
    4  A    between atoms: C_15  and  C_23
                            x       y       z     vdW  Elec       q    Type
                         _______ _______ _______ _____ _____    ______ ____

>  <TORSDO>
F 4

$$$$
=
 OpenBabel11052417413D

 31 35  0  0  1  0  0  0  0  0999 V2000
  192.6550  175.5410  146.3400 C   0  0  2  0  0  3  0  0  0  0  0  0
  189.3740  175.1860  144.4030 N   0  0  0  0  0  0  0  0  0  0  0  0
  189.5790  174.0980  143.4650 C   0  0  0  0  0  0  0  0  0  0  0  0
  190.7960  171.8780  143.1080 C   0  0  0  0  0  3  0  0  0  0  0  0
  190.2880  175.3950  145.5500 C   0  0  1  0  0  3  0  0  0  0  0  0
  192.3030  176.7590  147.1950 C   0  0  0  0  0  2  0  0  0  0  0  0
  190.4010  173.1000  143.8160 C   0  0  0  0  0  3  0  0  0  0  0  0
  187.7200  176.9240  145.3600 C   0  0  1  0  0  3  0  0  0  0  0  0
  193.9870  175.6240  145.9370 O   0  0  0  0  0  1  0  0  0  0  0  0
  187.8000  175.0140  142.1070 C   0  0  0  0  0  3  0  0  0  0  0  0
  190.5420  171.5190  141.8570 C   0  0  0  0  0  3  0  0  0  0  0  0
  188.5010  176.7180  146.6510 C   0  0  0  0  0  2  0  0  0  0  0  0
  188.1550  175.9590  144.2800 C   0  0  0  0  0  0  0  0  0  0  0  0
  191.7530  175.4650  145.1080 C   0  0  0  0  0  2  0  0  0  0  0  0
  189.7800  172.2440  140.8420 C   0  0  0  0  0  3  0  0  0  0  0  0
  189.9740  176.6790  146.3210 C   0  0  1  0  0  3  0  0  0  0  0  0
  190.8240  176.7390  147.5830 C   0  0  0  0  0  2  0  0  0  0  0  0
  187.4570  175.8900  143.1850 N   0  0  0  0  0  0  0  0  0  0  0  0
  188.7940  174.1310  142.2040 C   0  0  0  0  0  0  0  0  0  0  0  0
  189.0410  173.3380  140.9940 C   0  0  0  0  0  3  0  0  0  0  0  0
  186.2260  176.7910  145.6380 C   0  0  0  0  0  2  0  0  0  0  0  0
  185.9030  178.8920  146.6990 O   0  0  0  0  0  1  0  0  0  0  0  0
  185.5360  178.1440  145.5810 C   0  0  1  0  0  3  0  0  0  0  0  0
  185.9300  178.8540  144.3700 N   0  0  0  0  0  2  0  0  0  0  0  0
  183.3550  178.2970  141.7090 C   0  0  0  0  0  0  0  0  0  0  0  0
  185.5570  178.3030  140.7050 C   0  0  0  0  0  3  0  0  0  0  0  0
  181.9760  178.1840  141.5850 O   0  0  0  0  0  1  0  0  0  0  0  0
  183.9270  178.5170  142.9650 C   0  0  0  0  0  3  0  0  0  0  0  0
  186.1300  178.5240  141.9610 C   0  0  0  0  0  3  0  0  0  0  0  0
  185.3190  178.6340  143.0960 C   0  0  0  0  0  0  0  0  0  0  0  0
  184.1700  178.1900  140.5790 C   0  0  0  0  0  3  0  0  0  0  0  0
  1  9  1  6  0  0  0
  1  6  1  0  0  0  0
  2  5  1  0  0  0  0
  3  7  2  0  0  0  0
  3  2  1  0  0  0  0
  4  7  1  0  0  0  0
  5 14  1  6  0  0  0
  5 16  1  0  0  0  0
  6 17  1  0  0  0  0
  8 21  1  1  0  0  0
  8 12  1  0  0  0  0
 10 19  2  0  0  0  0
 10 18  1  0  0  0  0
 11  4  2  0  0  0  0
 13  2  1  0  0  0  0
 13  8  1  0  0  0  0
 14  1  1  0  0  0  0
 15 20  2  0  0  0  0
 15 11  1  0  0  0  0
 16 12  1  1  0  0  0
 16 17  1  0  0  0  0
 18 13  2  0  0  0  0
 19  3  1  0  0  0  0
 20 19  1  0  0  0  0
 23 21  1  0  0  0  0
 23 22  1  1  0  0  0
 24 23  1  0  0  0  0
 25 28  1  0  0  0  0
 26 29  2  0  0  0  0
 27 25  1  0  0  0  0
 28 30  2  0  0  0  0
 29 30  1  0  0  0  0
 30 24  1  0  0  0  0
 31 26  1  0  0  0  0
 31 25  2  0  0  0  0
M  END
>  <MODEL>
6

>  <REMARK>
 VINA RESULT:      -7.0      2.083      6.280
  Name = 
  4 active torsions:
  status: ('A' for Active; 'I' for Inactive)
    1  A    between atoms: N_3  and  C_9
    2  A    between atoms: N_3  and  C_22
    3  A    between atoms: C_9  and  C_23
    4  A    between atoms: C_15  and  C_23
                            x       y       z     vdW  Elec       q    Type
                         _______ _______ _______ _____ _____    ______ ____

>  <TORSDO>
F 4

$$$$
=
 OpenBabel11052417413D

 31 35  0  0  1  0  0  0  0  0999 V2000
  186.7410  177.6450  147.1460 C   0  0  2  0  0  3  0  0  0  0  0  0
  189.2950  176.6220  144.4870 N   0  0  0  0  0  0  0  0  0  0  0  0
  190.5690  176.5160  145.1750 C   0  0  0  0  0  0  0  0  0  0  0  0
  191.6700  175.9260  147.4050 C   0  0  0  0  0  3  0  0  0  0  0  0
  188.0180  176.6610  145.2350 C   0  0  1  0  0  3  0  0  0  0  0  0
  185.5080  177.7980  146.2530 C   0  0  0  0  0  2  0  0  0  0  0  0
  190.5690  176.1340  146.4590 C   0  0  0  0  0  3  0  0  0  0  0  0
  188.0220  176.3440  142.2570 C   0  0  1  0  0  3  0  0  0  0  0  0
  186.7370  178.6430  148.1190 O   0  0  0  0  0  1  0  0  0  0  0  0
  191.6760  176.8430  143.0510 C   0  0  0  0  0  3  0  0  0  0  0  0
  192.9580  176.2050  147.2630 C   0  0  0  0  0  3  0  0  0  0  0  0
  186.8540  175.9650  143.1590 C   0  0  0  0  0  2  0  0  0  0  0  0
  189.3020  176.5190  143.0420 C   0  0  0  0  0  0  0  0  0  0  0  0
  188.0230  177.7430  146.3190 C   0  0  0  0  0  2  0  0  0  0  0  0
  193.6370  176.7890  146.1070 C   0  0  0  0  0  3  0  0  0  0  0  0
  186.8160  176.9220  144.3250 C   0  0  1  0  0  3  0  0  0  0  0  0
  185.5270  176.7690  145.1220 C   0  0  0  0  0  2  0  0  0  0  0  0
  190.4190  176.6620  142.3910 N   0  0  0  0  0  0  0  0  0  0  0  0
  191.7960  176.7650  144.3760 C   0  0  0  0  0  0  0  0  0  0  0  0
  193.1470  177.0160  144.8940 C   0  0  0  0  0  3  0  0  0  0  0  0
  188.1920  175.2900  141.1680 C   0  0  0  0  0  2  0  0  0  0  0  0
  187.4350  173.0400  141.2720 O   0  0  0  0  0  1  0  0  0  0  0  0
  188.4040  173.9100  141.7690 C   0  0  1  0  0  3  0  0  0  0  0  0
  189.7290  173.4140  141.4210 N   0  0  0  0  0  2  0  0  0  0  0  0
  193.1810  173.3630  142.8700 C   0  0  0  0  0  0  0  0  0  0  0  0
  191.5650  173.0220  144.6390 C   0  0  0  0  0  3  0  0  0  0  0  0
  194.5000  173.4870  142.4530 O   0  0  0  0  0  1  0  0  0  0  0  0
  192.1430  173.4540  141.9390 C   0  0  0  0  0  3  0  0  0  0  0  0
  190.5260  173.1130  143.7080 C   0  0  0  0  0  3  0  0  0  0  0  0
  190.8090  173.3310  142.3550 C   0  0  0  0  0  0  0  0  0  0  0  0
  192.8920  173.1480  144.2200 C   0  0  0  0  0  3  0  0  0  0  0  0
  1  9  1  1  0  0  0
  2  3  1  0  0  0  0
  2  5  1  0  0  0  0
  3  7  2  0  0  0  0
  5 14  1  1  0  0  0
  6  1  1  0  0  0  0
  7  4  1  0  0  0  0
  8 21  1  6  0  0  0
  8 13  1  0  0  0  0
  8 12  1  0  0  0  0
 10 19  2  0  0  0  0
 11  4  2  0  0  0  0
 13  2  1  0  0  0  0
 14  1  1  0  0  0  0
 15 11  1  0  0  0  0
 16 12  1  6  0  0  0
 16 17  1  0  0  0  0
 16  5  1  0  0  0  0
 17  6  1  0  0  0  0
 18 13  2  0  0  0  0
 18 10  1  0  0  0  0
 19 20  1  0  0  0  0
 19  3  1  0  0  0  0
 20 15  2  0  0  0  0
 21 23  1  0  0  0  0
 23 22  1  6  0  0  0
 24 23  1  0  0  0  0
 24 30  1  0  0  0  0
 25 31  1  0  0  0  0
 27 25  1  0  0  0  0
 28 30  1  0  0  0  0
 28 25  2  0  0  0  0
 29 26  1  0  0  0  0
 30 29  2  0  0  0  0
 31 26  2  0  0  0  0
M  END
>  <MODEL>
7

>  <REMARK>
 VINA RESULT:      -6.9      1.765      2.302
  Name = 
  4 active torsions:
  status: ('A' for Active; 'I' for Inactive)
    1  A    between atoms: N_3  and  C_9
    2  A    between atoms: N_3  and  C_22
    3  A    between atoms: C_9  and  C_23
    4  A    between atoms: C_15  and  C_23
                            x       y       z     vdW  Elec       q    Type
                         _______ _______ _______ _____ _____    ______ ____

>  <TORSDO>
F 4

$$$$
=
 OpenBabel11052417413D

 31 35  0  0  1  0  0  0  0  0999 V2000
  185.8230  177.5430  141.0740 C   0  0  2  0  0  3  0  0  0  0  0  0
  187.7340  176.8010  144.3040 N   0  0  0  0  0  0  0  0  0  0  0  0
  186.8960  177.2850  145.3860 C   0  0  0  0  0  0  0  0  0  0  0  0
  184.4740  177.6400  146.1230 C   0  0  0  0  0  3  0  0  0  0  0  0
  187.1920  176.6000  142.9410 C   0  0  1  0  0  3  0  0  0  0  0  0
  186.8640  177.0660  140.0600 C   0  0  0  0  0  2  0  0  0  0  0  0
  185.5660  177.2450  145.2280 C   0  0  0  0  0  3  0  0  0  0  0  0
  189.9230  175.5950  143.6490 C   0  0  1  0  0  3  0  0  0  0  0  0
  185.1920  178.6880  140.5900 O   0  0  0  0  0  1  0  0  0  0  0  0
  188.8720  177.4350  146.7710 C   0  0  0  0  0  3  0  0  0  0  0  0
  184.5350  178.2820  147.2820 C   0  0  0  0  0  3  0  0  0  0  0  0
  189.0990  175.0850  142.4740 C   0  0  0  0  0  2  0  0  0  0  0  0
  189.0740  176.3620  144.6390 C   0  0  0  0  0  0  0  0  0  0  0  0
  186.4800  177.8520  142.4190 C   0  0  0  0  0  2  0  0  0  0  0  0
  185.7190  178.7590  147.9930 C   0  0  0  0  0  3  0  0  0  0  0  0
  188.2770  176.2280  141.9290 C   0  0  1  0  0  3  0  0  0  0  0  0
  187.6330  175.8600  140.6000 C   0  0  0  0  0  2  0  0  0  0  0  0
  189.5970  176.7000  145.7790 N   0  0  0  0  0  0  0  0  0  0  0  0
  187.5780  177.7200  146.6320 C   0  0  0  0  0  0  0  0  0  0  0  0
  186.9960  178.5150  147.7210 C   0  0  0  0  0  3  0  0  0  0  0  0
  190.6270  174.4260  144.3280 C   0  0  0  0  0  2  0  0  0  0  0  0
  192.4650  175.7730  143.6530 O   0  0  0  0  0  1  0  0  0  0  0  0
  192.1330  174.5090  144.1380 C   0  0  1  0  0  3  0  0  0  0  0  0
  192.8090  174.2830  145.4100 N   0  0  0  0  0  2  0  0  0  0  0  0
  195.5840  171.7710  145.5040 C   0  0  0  0  0  0  0  0  0  0  0  0
  196.4920  173.9830  145.8780 C   0  0  0  0  0  3  0  0  0  0  0  0
  195.7690  170.4010  145.3750 O   0  0  0  0  0  1  0  0  0  0  0  0
  194.3030  172.3170  145.3890 C   0  0  0  0  0  3  0  0  0  0  0  0
  195.2100  174.5300  145.7630 C   0  0  0  0  0  3  0  0  0  0  0  0
  194.1100  173.7010  145.5170 C   0  0  0  0  0  0  0  0  0  0  0  0
  196.6790  172.6040  145.7470 C   0  0  0  0  0  3  0  0  0  0  0  0
  1  9  1  6  0  0  0
  1 14  1  0  0  0  0
  2 13  1  0  0  0  0
  2  3  1  0  0  0  0
  3 19  1  0  0  0  0
  4 11  2  0  0  0  0
  5 14  1  6  0  0  0
  5  2  1  0  0  0  0
  6 17  1  0  0  0  0
  6  1  1  0  0  0  0
  7  3  2  0  0  0  0
  7  4  1  0  0  0  0
  8 21  1  1  0  0  0
  8 13  1  0  0  0  0
 11 15  1  0  0  0  0
 12  8  1  0  0  0  0
 13 18  2  0  0  0  0
 16 17  1  6  0  0  0
 16 12  1  0  0  0  0
 16  5  1  0  0  0  0
 18 10  1  0  0  0  0
 19 10  2  0  0  0  0
 19 20  1  0  0  0  0
 20 15  2  0  0  0  0
 23 22  1  1  0  0  0
 23 21  1  0  0  0  0
 23 24  1  0  0  0  0
 24 30  1  0  0  0  0
 25 31  1  0  0  0  0
 27 25  1  0  0  0  0
 28 25  2  0  0  0  0
 28 30  1  0  0  0  0
 29 26  1  0  0  0  0
 30 29  2  0  0  0  0
 31 26  2  0  0  0  0
M  END
>  <MODEL>
8

>  <REMARK>
 VINA RESULT:      -6.7      2.899      5.523
  Name = 
  4 active torsions:
  status: ('A' for Active; 'I' for Inactive)
    1  A    between atoms: N_3  and  C_9
    2  A    between atoms: N_3  and  C_22
    3  A    between atoms: C_9  and  C_23
    4  A    between atoms: C_15  and  C_23
                            x       y       z     vdW  Elec       q    Type
                         _______ _______ _______ _____ _____    ______ ____

>  <TORSDO>
F 4

$$$$
=
 OpenBabel11052417413D

 31 35  0  0  1  0  0  0  0  0999 V2000
  194.9790  176.0120  144.3310 C   0  0  2  0  0  3  0  0  0  0  0  0
  191.2880  175.1070  143.8870 N   0  0  0  0  0  0  0  0  0  0  0  0
  191.2190  174.2800  142.6960 C   0  0  0  0  0  0  0  0  0  0  0  0
  192.4910  172.5560  141.3010 C   0  0  0  0  0  3  0  0  0  0  0  0
  192.5760  175.3660  144.5710 C   0  0  1  0  0  3  0  0  0  0  0  0
  194.8590  176.9370  145.5450 C   0  0  0  0  0  2  0  0  0  0  0  0
  192.2660  173.4960  142.4040 C   0  0  0  0  0  3  0  0  0  0  0  0
  189.9910  176.1590  145.8580 C   0  0  1  0  0  3  0  0  0  0  0  0
  195.9420  176.5140  143.4570 O   0  0  0  0  0  1  0  0  0  0  0  0
  188.8900  174.8910  142.4790 C   0  0  0  0  0  3  0  0  0  0  0  0
  191.7560  172.3480  140.2170 C   0  0  0  0  0  3  0  0  0  0  0  0
  191.3000  175.9640  146.6120 C   0  0  0  0  0  2  0  0  0  0  0  0
  190.0380  175.5330  144.4820 C   0  0  0  0  0  0  0  0  0  0  0  0
  193.6400  175.8960  143.6040 C   0  0  0  0  0  2  0  0  0  0  0  0
  190.5030  172.9960  139.8340 C   0  0  0  0  0  3  0  0  0  0  0  0
  192.4400  176.3760  145.7110 C   0  0  1  0  0  3  0  0  0  0  0  0
  193.7500  176.4580  146.4820 C   0  0  0  0  0  2  0  0  0  0  0  0
  188.9380  175.4570  143.7930 N   0  0  0  0  0  0  0  0  0  0  0  0
  189.9500  174.3040  141.9240 C   0  0  0  0  0  0  0  0  0  0  0  0
  189.7440  173.8120  140.5570 C   0  0  0  0  0  3  0  0  0  0  0  0
  188.8390  175.5860  146.6760 C   0  0  0  0  0  2  0  0  0  0  0  0
  188.3240  177.9070  146.6630 O   0  0  0  0  0  1  0  0  0  0  0  0
  187.9810  176.6960  147.2630 C   0  0  1  0  0  3  0  0  0  0  0  0
  186.5710  176.4160  147.0230 N   0  0  0  0  0  2  0  0  0  0  0  0
  185.0670  177.7320  143.8570 C   0  0  0  0  0  0  0  0  0  0  0  0
  184.0670  178.8620  145.7490 C   0  0  0  0  0  3  0  0  0  0  0  0
  185.1690  177.5440  142.4840 O   0  0  0  0  0  1  0  0  0  0  0  0
  185.8630  176.9810  144.7250 C   0  0  0  0  0  3  0  0  0  0  0  0
  184.8630  178.1110  146.6190 C   0  0  0  0  0  3  0  0  0  0  0  0
  185.7630  177.1670  146.1130 C   0  0  0  0  0  0  0  0  0  0  0  0
  184.1690  178.6720  144.3680 C   0  0  0  0  0  3  0  0  0  0  0  0
  1  9  1  6  0  0  0
  1  6  1  0  0  0  0
  2 13  1  0  0  0  0
  2  5  1  0  0  0  0
  3  2  1  0  0  0  0
  4  7  1  0  0  0  0
  5 14  1  6  0  0  0
  5 16  1  0  0  0  0
  6 17  1  0  0  0  0
  7  3  2  0  0  0  0
  8 12  1  0  0  0  0
  8 21  1  1  0  0  0
 10 18  1  0  0  0  0
 11  4  2  0  0  0  0
 13  8  1  0  0  0  0
 14  1  1  0  0  0  0
 15 11  1  0  0  0  0
 15 20  2  0  0  0  0
 16 17  1  1  0  0  0
 16 12  1  0  0  0  0
 18 13  2  0  0  0  0
 19 10  2  0  0  0  0
 19  3  1  0  0  0  0
 20 19  1  0  0  0  0
 21 23  1  0  0  0  0
 23 22  1  6  0  0  0
 24 23  1  0  0  0  0
 25 31  2  0  0  0  0
 25 28  1  0  0  0  0
 26 29  2  0  0  0  0
 27 25  1  0  0  0  0
 28 30  2  0  0  0  0
 30 29  1  0  0  0  0
 30 24  1  0  0  0  0
 31 26  1  0  0  0  0
M  END
>  <MODEL>
9

>  <REMARK>
 VINA RESULT:      -6.7      2.219      7.100
  Name = 
  4 active torsions:
  status: ('A' for Active; 'I' for Inactive)
    1  A    between atoms: N_3  and  C_9
    2  A    between atoms: N_3  and  C_22
    3  A    between atoms: C_9  and  C_23
    4  A    between atoms: C_15  and  C_23
                            x       y       z     vdW  Elec       q    Type
                         _______ _______ _______ _____ _____    ______ ____

>  <TORSDO>
F 4

$$$$
