=
 OpenBabel11052420043D

 37 40  0  0  1  0  0  0  0  0999 V2000
  193.4520  176.0120  142.5560 C   0  0  0  0  0  2  0  0  0  0  0  0
  192.6500  174.9040  146.4740 C   0  0  0  0  0  2  0  0  0  0  0  0
  190.4630  173.7130  140.6590 C   0  0  0  0  0  3  0  0  0  0  0  0
  192.4720  175.2980  143.5060 C   0  0  1  0  0  0  0  0  0  0  0  0
  191.4920  174.3370  141.3690 C   0  0  0  0  0  0  0  0  0  0  0  0
  192.0590  176.2900  144.5400 N   0  0  0  0  0  0  0  0  0  0  0  0
  192.7530  174.5560  140.7290 N   0  0  0  0  0  0  0  0  0  0  0  0
  191.3010  174.7090  142.7160 C   0  0  0  0  0  0  0  0  0  0  0  0
  189.0510  173.7850  142.6200 C   0  0  0  0  0  3  0  0  0  0  0  0
  193.6950  175.2740  141.2610 C   0  0  0  0  0  0  0  0  0  0  0  0
  190.0790  174.3990  143.3370 C   0  0  0  0  0  3  0  0  0  0  0  0
  191.5280  175.6290  145.7290 C   0  0  0  0  0  2  0  0  0  0  0  0
  193.2300  174.1120  144.1500 C   0  0  0  0  0  2  0  0  0  0  0  0
  189.2330  173.4430  141.2780 C   0  0  0  0  0  0  0  0  0  0  0  0
  193.7880  174.3900  145.5580 C   0  0  1  0  0  0  0  0  0  0  0  0
  188.1830  172.8310  140.5880 O   0  0  0  0  0  0  0  0  0  0  0  0
  188.1840  172.6720  139.1750 C   0  0  0  0  0  1  0  0  0  0  0  0
  195.5230  174.3060  139.9180 C   0  0  0  0  0  1  0  0  0  0  0  0
  194.9090  175.4000  140.5840 O   0  0  0  0  0  0  0  0  0  0  0  0
  194.8900  175.4640  145.4600 C   0  0  0  0  0  2  0  0  0  0  0  0
  196.1740  174.8660  145.1290 N   0  0  0  0  0  2  0  0  0  0  0  0
  197.4450  175.6020  142.9780 C   0  0  0  0  0  3  0  0  0  0  0  0
  196.8570  175.2620  143.9740 C   0  0  0  0  0  0  0  0  0  0  0  0
  194.3050  173.1620  146.0460 O   0  0  0  0  0  0  0  0  0  0  0  0
  193.8590  172.0900  145.2490 C   0  0  0  0  0  2  0  0  0  0  0  0
  194.8990  170.9900  145.2570 C   0  0  0  0  0  2  0  0  0  0  0  0
  197.0860  171.0450  145.5230 C   0  0  0  0  0  1  0  0  0  0  0  0
  196.0700  171.4530  144.6610 O   0  0  0  0  0  0  0  0  0  0  0  0
  191.0540  177.2330  144.0510 C   0  0  0  0  0  2  0  0  0  0  0  0
  190.1130  177.6180  145.1780 C   0  0  0  0  0  2  0  0  0  0  0  0
  188.3760  177.6740  143.3790 C   0  0  0  0  0  3  0  0  0  0  0  0
  188.7030  177.4820  144.7260 C   0  0  0  0  0  0  0  0  0  0  0  0
  187.6960  177.1960  145.6550 C   0  0  0  0  0  3  0  0  0  0  0  0
  185.1090  176.7310  146.3980 Cl  0  0  0  0  0  0  0  0  0  0  0  0
  186.0410  177.2760  143.8880 C   0  0  0  0  0  3  0  0  0  0  0  0
  186.3670  177.0900  145.2360 C   0  0  0  0  0  0  0  0  0  0  0  0
  187.0460  177.5680  142.9590 C   0  0  0  0  0  3  0  0  0  0  0  0
  3 14  2  0  0  0  0
  3  5  1  0  0  0  0
  4  1  1  6  0  0  0
  4 13  1  0  0  0  0
  4  6  1  0  0  0  0
  5  8  2  0  0  0  0
  6 12  1  0  0  0  0
  7 10  2  0  0  0  0
  7  5  1  0  0  0  0
  8 11  1  0  0  0  0
  8  4  1  0  0  0  0
  9 11  2  0  0  0  0
 10  1  1  0  0  0  0
 12  2  1  0  0  0  0
 13 15  1  0  0  0  0
 14  9  1  0  0  0  0
 15 20  1  6  0  0  0
 15 24  1  0  0  0  0
 15  2  1  0  0  0  0
 16 14  1  0  0  0  0
 17 16  1  0  0  0  0
 18 19  1  0  0  0  0
 19 10  1  0  0  0  0
 21 20  1  0  0  0  0
 22 23  3  0  0  0  0
 23 21  1  0  0  0  0
 25 26  1  0  0  0  0
 25 24  1  0  0  0  0
 28 26  1  0  0  0  0
 28 27  1  0  0  0  0
 29  6  1  0  0  0  0
 29 30  1  0  0  0  0
 31 32  1  0  0  0  0
 32 30  1  0  0  0  0
 32 33  2  0  0  0  0
 35 36  2  0  0  0  0
 36 33  1  0  0  0  0
 36 34  1  0  0  0  0
 37 31  2  0  0  0  0
 37 35  1  0  0  0  0
M  END
>  <MODEL>
1

>  <REMARK>
 VINA RESULT:      -6.1      0.000      0.000
  Name = 
  12 active torsions:
  status: ('A' for Active; 'I' for Inactive)
    1  A    between atoms: C_1  and  N_5
    2  A    between atoms: C_1  and  C_36
    3  A    between atoms: O_3  and  C_32
    4  A    between atoms: N_5  and  C_23
    5  A    between atoms: C_6  and  C_31
    6  A    between atoms: N_14  and  C_37
    7  A    between atoms: C_17  and  C_26
    8  A    between atoms: C_17  and  O_33
    9  A    between atoms: C_24  and  O_28
   10  A    between atoms: C_26  and  O_34
   11  A    between atoms: C_31  and  C_37
   12  A    between atoms: O_33  and  C_36
                            x       y       z     vdW  Elec       q    Type
                         _______ _______ _______ _____ _____    ______ ____

>  <TORSDO>
F 12

$$$$
=
 OpenBabel11052420043D

 37 40  0  0  1  0  0  0  0  0999 V2000
  193.4320  176.0690  142.5470 C   0  0  0  0  0  2  0  0  0  0  0  0
  192.6420  175.0260  146.4850 C   0  0  0  0  0  2  0  0  0  0  0  0
  190.4750  173.6960  140.6930 C   0  0  0  0  0  3  0  0  0  0  0  0
  192.4610  175.3610  143.5100 C   0  0  1  0  0  0  0  0  0  0  0  0
  191.4950  174.3470  141.3910 C   0  0  0  0  0  0  0  0  0  0  0  0
  192.0340  176.3670  144.5250 N   0  0  0  0  0  0  0  0  0  0  0  0
  192.7530  174.5700  140.7480 N   0  0  0  0  0  0  0  0  0  0  0  0
  191.2990  174.7410  142.7310 C   0  0  0  0  0  0  0  0  0  0  0  0
  189.0610  173.7850  142.6520 C   0  0  0  0  0  3  0  0  0  0  0  0
  193.6850  175.3110  141.2670 C   0  0  0  0  0  0  0  0  0  0  0  0
  190.0810  174.4270  143.3570 C   0  0  0  0  0  3  0  0  0  0  0  0
  191.5110  175.7220  145.7260 C   0  0  0  0  0  2  0  0  0  0  0  0
  193.2340  174.1980  144.1760 C   0  0  0  0  0  2  0  0  0  0  0  0
  189.2490  173.4200  141.3170 C   0  0  0  0  0  0  0  0  0  0  0  0
  193.7870  174.5100  145.5790 C   0  0  1  0  0  0  0  0  0  0  0  0
  188.2070  172.7810  140.6380 O   0  0  0  0  0  0  0  0  0  0  0  0
  188.1710  172.6670  139.2210 C   0  0  0  0  0  1  0  0  0  0  0  0
  195.2100  174.6660  139.4380 C   0  0  0  0  0  1  0  0  0  0  0  0
  194.8980  175.4410  140.5870 O   0  0  0  0  0  0  0  0  0  0  0  0
  194.8760  175.5960  145.4610 C   0  0  0  0  0  2  0  0  0  0  0  0
  196.0950  175.0540  144.8840 N   0  0  0  0  0  2  0  0  0  0  0  0
  197.3170  176.3320  142.9710 C   0  0  0  0  0  3  0  0  0  0  0  0
  196.7510  175.7400  143.8560 C   0  0  0  0  0  0  0  0  0  0  0  0
  194.3210  173.2980  146.0910 O   0  0  0  0  0  0  0  0  0  0  0  0
  193.8990  172.2070  145.3070 C   0  0  0  0  0  2  0  0  0  0  0  0
  194.7220  170.9860  145.6590 C   0  0  0  0  0  2  0  0  0  0  0  0
  196.7150  170.1840  146.1510 C   0  0  0  0  0  1  0  0  0  0  0  0
  196.0730  171.3260  145.6740 O   0  0  0  0  0  0  0  0  0  0  0  0
  191.0170  177.2860  144.0180 C   0  0  0  0  0  2  0  0  0  0  0  0
  190.0330  177.6300  145.1220 C   0  0  0  0  0  2  0  0  0  0  0  0
  187.6280  177.0440  145.4830 C   0  0  0  0  0  3  0  0  0  0  0  0
  188.6410  177.4780  144.6210 C   0  0  0  0  0  0  0  0  0  0  0  0
  188.3490  177.7380  143.2770 C   0  0  0  0  0  3  0  0  0  0  0  0
  186.6840  177.8990  141.1180 Cl  0  0  0  0  0  0  0  0  0  0  0  0
  186.0330  177.1450  143.6630 C   0  0  0  0  0  3  0  0  0  0  0  0
  187.0460  177.5740  142.7990 C   0  0  0  0  0  0  0  0  0  0  0  0
  186.3240  176.8800  145.0060 C   0  0  0  0  0  3  0  0  0  0  0  0
  3 14  2  0  0  0  0
  3  5  1  0  0  0  0
  4  1  1  6  0  0  0
  4 13  1  0  0  0  0
  4  6  1  0  0  0  0
  5  8  2  0  0  0  0
  6 12  1  0  0  0  0
  7 10  2  0  0  0  0
  7  5  1  0  0  0  0
  8 11  1  0  0  0  0
  8  4  1  0  0  0  0
  9 11  2  0  0  0  0
 10  1  1  0  0  0  0
 12  2  1  0  0  0  0
 13 15  1  0  0  0  0
 14  9  1  0  0  0  0
 15 20  1  6  0  0  0
 15 24  1  0  0  0  0
 15  2  1  0  0  0  0
 16 14  1  0  0  0  0
 17 16  1  0  0  0  0
 18 19  1  0  0  0  0
 19 10  1  0  0  0  0
 21 20  1  0  0  0  0
 22 23  3  0  0  0  0
 23 21  1  0  0  0  0
 25 26  1  0  0  0  0
 25 24  1  0  0  0  0
 26 28  1  0  0  0  0
 28 27  1  0  0  0  0
 29  6  1  0  0  0  0
 29 30  1  0  0  0  0
 32 30  1  0  0  0  0
 32 31  2  0  0  0  0
 33 32  1  0  0  0  0
 34 36  1  0  0  0  0
 35 37  2  0  0  0  0
 36 33  2  0  0  0  0
 36 35  1  0  0  0  0
 37 31  1  0  0  0  0
M  END
>  <MODEL>
2

>  <REMARK>
 VINA RESULT:      -6.0      0.987      1.267
  Name = 
  12 active torsions:
  status: ('A' for Active; 'I' for Inactive)
    1  A    between atoms: C_1  and  N_5
    2  A    between atoms: C_1  and  C_36
    3  A    between atoms: O_3  and  C_32
    4  A    between atoms: N_5  and  C_23
    5  A    between atoms: C_6  and  C_31
    6  A    between atoms: N_14  and  C_37
    7  A    between atoms: C_17  and  C_26
    8  A    between atoms: C_17  and  O_33
    9  A    between atoms: C_24  and  O_28
   10  A    between atoms: C_26  and  O_34
   11  A    between atoms: C_31  and  C_37
   12  A    between atoms: O_33  and  C_36
                            x       y       z     vdW  Elec       q    Type
                         _______ _______ _______ _____ _____    ______ ____

>  <TORSDO>
F 12

$$$$
=
 OpenBabel11052420043D

 37 40  0  0  1  0  0  0  0  0999 V2000
  189.2930  173.9330  142.8670 C   0  0  0  0  0  2  0  0  0  0  0  0
  189.5520  177.5530  144.8800 C   0  0  0  0  0  2  0  0  0  0  0  0
  192.7640  174.3160  140.4950 C   0  0  0  0  0  3  0  0  0  0  0  0
  190.1710  175.1580  143.1830 C   0  0  1  0  0  0  0  0  0  0  0  0
  191.5770  174.3410  141.2310 C   0  0  0  0  0  0  0  0  0  0  0  0
  190.3110  175.2310  144.6650 N   0  0  0  0  0  0  0  0  0  0  0  0
  190.4210  173.6680  140.7210 N   0  0  0  0  0  0  0  0  0  0  0  0
  191.5070  175.0590  142.4430 C   0  0  0  0  0  0  0  0  0  0  0  0
  193.8230  175.7430  142.1330 C   0  0  0  0  0  3  0  0  0  0  0  0
  189.3390  173.5040  141.4200 C   0  0  0  0  0  0  0  0  0  0  0  0
  192.6360  175.7790  142.8680 C   0  0  0  0  0  3  0  0  0  0  0  0
  190.7040  176.5700  145.0980 C   0  0  0  0  0  2  0  0  0  0  0  0
  189.4400  176.4070  142.6340 C   0  0  0  0  0  2  0  0  0  0  0  0
  193.8970  175.0090  140.9470 C   0  0  0  0  0  0  0  0  0  0  0  0
  188.6350  177.1970  143.6840 C   0  0  1  0  0  0  0  0  0  0  0  0
  195.1000  174.9900  140.2370 O   0  0  0  0  0  0  0  0  0  0  0  0
  196.1940  175.8380  140.5580 C   0  0  0  0  0  1  0  0  0  0  0  0
  188.2580  172.4430  139.4740 C   0  0  0  0  0  1  0  0  0  0  0  0
  188.2450  172.8710  140.8280 O   0  0  0  0  0  0  0  0  0  0  0  0
  187.4630  176.3260  144.1790 C   0  0  0  0  0  2  0  0  0  0  0  0
  187.2120  176.5420  145.5950 N   0  0  0  0  0  2  0  0  0  0  0  0
  184.8520  177.2840  146.4080 C   0  0  0  0  0  3  0  0  0  0  0  0
  185.9450  176.9410  146.0310 C   0  0  0  0  0  0  0  0  0  0  0  0
  188.1690  178.3750  143.0440 O   0  0  0  0  0  0  0  0  0  0  0  0
  186.7930  178.2680  142.7640 C   0  0  0  0  0  2  0  0  0  0  0  0
  186.5850  178.2360  141.2640 C   0  0  0  0  0  2  0  0  0  0  0  0
  184.6160  178.0310  142.2310 C   0  0  0  0  0  1  0  0  0  0  0  0
  185.2210  178.1880  140.9850 O   0  0  0  0  0  0  0  0  0  0  0  0
  191.2840  174.2750  145.1900 C   0  0  0  0  0  2  0  0  0  0  0  0
  192.2690  174.9850  146.1010 C   0  0  0  0  0  2  0  0  0  0  0  0
  194.7610  175.1980  146.0300 C   0  0  0  0  0  3  0  0  0  0  0  0
  193.6220  174.3890  145.9420 C   0  0  0  0  0  0  0  0  0  0  0  0
  193.7570  173.0240  145.6700 C   0  0  0  0  0  3  0  0  0  0  0  0
  195.1930  170.7570  145.1570 Cl  0  0  0  0  0  0  0  0  0  0  0  0
  196.1650  173.2740  145.5910 C   0  0  0  0  0  3  0  0  0  0  0  0
  195.0270  172.4660  145.4980 C   0  0  0  0  0  0  0  0  0  0  0  0
  196.0320  174.6410  145.8580 C   0  0  0  0  0  3  0  0  0  0  0  0
  1  4  1  0  0  0  0
  2 12  1  0  0  0  0
  3 14  2  0  0  0  0
  3  5  1  0  0  0  0
  4 13  1  6  0  0  0
  4  6  1  0  0  0  0
  5  8  2  0  0  0  0
  6 12  1  0  0  0  0
  6 29  1  0  0  0  0
  7  5  1  0  0  0  0
  7 10  2  0  0  0  0
  8 11  1  0  0  0  0
  8  4  1  0  0  0  0
  9 11  2  0  0  0  0
 10  1  1  0  0  0  0
 13 15  1  0  0  0  0
 14  9  1  0  0  0  0
 15 20  1  1  0  0  0
 15  2  1  0  0  0  0
 16 17  1  0  0  0  0
 16 14  1  0  0  0  0
 18 19  1  0  0  0  0
 19 10  1  0  0  0  0
 20 21  1  0  0  0  0
 21 23  1  0  0  0  0
 23 22  3  0  0  0  0
 24 15  1  0  0  0  0
 25 24  1  0  0  0  0
 26 25  1  0  0  0  0
 28 26  1  0  0  0  0
 28 27  1  0  0  0  0
 29 30  1  0  0  0  0
 32 31  1  0  0  0  0
 32 30  1  0  0  0  0
 33 32  2  0  0  0  0
 34 36  1  0  0  0  0
 35 37  1  0  0  0  0
 36 35  2  0  0  0  0
 36 33  1  0  0  0  0
 37 31  2  0  0  0  0
M  END
>  <MODEL>
3

>  <REMARK>
 VINA RESULT:      -5.9      2.847      7.712
  Name = 
  12 active torsions:
  status: ('A' for Active; 'I' for Inactive)
    1  A    between atoms: C_1  and  N_5
    2  A    between atoms: C_1  and  C_36
    3  A    between atoms: O_3  and  C_32
    4  A    between atoms: N_5  and  C_23
    5  A    between atoms: C_6  and  C_31
    6  A    between atoms: N_14  and  C_37
    7  A    between atoms: C_17  and  C_26
    8  A    between atoms: C_17  and  O_33
    9  A    between atoms: C_24  and  O_28
   10  A    between atoms: C_26  and  O_34
   11  A    between atoms: C_31  and  C_37
   12  A    between atoms: O_33  and  C_36
                            x       y       z     vdW  Elec       q    Type
                         _______ _______ _______ _____ _____    ______ ____

>  <TORSDO>
F 12

$$$$
=
 OpenBabel11052420043D

 37 40  0  0  1  0  0  0  0  0999 V2000
  189.4170  176.9010  142.3900 C   0  0  0  0  0  2  0  0  0  0  0  0
  190.9140  173.3000  143.8100 C   0  0  0  0  0  2  0  0  0  0  0  0
  186.4100  177.4870  145.2940 C   0  0  0  0  0  3  0  0  0  0  0  0
  189.4200  175.8880  143.5500 C   0  0  1  0  0  0  0  0  0  0  0  0
  187.3470  177.1400  144.3180 C   0  0  0  0  0  0  0  0  0  0  0  0
  190.8320  175.7430  144.0060 N   0  0  0  0  0  0  0  0  0  0  0  0
  187.1440  177.5670  142.9670 N   0  0  0  0  0  0  0  0  0  0  0  0
  188.4600  176.3410  144.6530 C   0  0  0  0  0  0  0  0  0  0  0  0
  187.6460  176.2240  146.9440 C   0  0  0  0  0  3  0  0  0  0  0  0
  188.0470  177.4310  142.0440 C   0  0  0  0  0  0  0  0  0  0  0  0
  188.5800  175.8670  145.9700 C   0  0  0  0  0  3  0  0  0  0  0  0
  191.0260  174.5020  144.7510 C   0  0  0  0  0  2  0  0  0  0  0  0
  188.8770  174.5480  142.9970 C   0  0  0  0  0  2  0  0  0  0  0  0
  186.5600  177.0390  146.6150 C   0  0  0  0  0  0  0  0  0  0  0  0
  189.9600  173.5230  142.6110 C   0  0  1  0  0  0  0  0  0  0  0  0
  185.6440  177.3810  147.6140 O   0  0  0  0  0  0  0  0  0  0  0  0
  184.6640  178.3950  147.4410 C   0  0  0  0  0  1  0  0  0  0  0  0
  186.5010  177.5480  140.1260 C   0  0  0  0  0  1  0  0  0  0  0  0
  187.7460  177.8400  140.7440 O   0  0  0  0  0  0  0  0  0  0  0  0
  190.7630  174.0670  141.4120 C   0  0  0  0  0  2  0  0  0  0  0  0
  190.0540  173.8430  140.1620 N   0  0  0  0  0  2  0  0  0  0  0  0
  191.2790  172.7510  138.1390 C   0  0  0  0  0  3  0  0  0  0  0  0
  190.7120  173.2570  139.0760 C   0  0  0  0  0  0  0  0  0  0  0  0
  189.2870  172.3190  142.2770 O   0  0  0  0  0  0  0  0  0  0  0  0
  190.0380  171.2050  142.6990 C   0  0  0  0  0  2  0  0  0  0  0  0
  190.5070  170.4250  141.4890 C   0  0  0  0  0  2  0  0  0  0  0  0
  192.6580  170.8860  141.3640 C   0  0  0  0  0  1  0  0  0  0  0  0
  191.7660  169.8850  141.7440 O   0  0  0  0  0  0  0  0  0  0  0  0
  191.2720  176.8550  144.8460 C   0  0  0  0  0  2  0  0  0  0  0  0
  192.5720  177.4270  144.3090 C   0  0  0  0  0  2  0  0  0  0  0  0
  193.9790  176.1920  145.9690 C   0  0  0  0  0  3  0  0  0  0  0  0
  193.6980  176.5120  144.6350 C   0  0  0  0  0  0  0  0  0  0  0  0
  194.5000  175.9960  143.6110 C   0  0  0  0  0  3  0  0  0  0  0  0
  196.5730  174.5100  142.6340 Cl  0  0  0  0  0  0  0  0  0  0  0  0
  195.8490  174.8310  145.2500 C   0  0  0  0  0  3  0  0  0  0  0  0
  195.5720  175.1540  143.9170 C   0  0  0  0  0  0  0  0  0  0  0  0
  195.0530  175.3500  146.2760 C   0  0  0  0  0  3  0  0  0  0  0  0
  2 12  1  0  0  0  0
  3 14  1  0  0  0  0
  4  1  1  6  0  0  0
  4  6  1  0  0  0  0
  4  8  1  0  0  0  0
  5  8  1  0  0  0  0
  5  3  2  0  0  0  0
  6 12  1  0  0  0  0
  6 29  1  0  0  0  0
  7  5  1  0  0  0  0
  8 11  2  0  0  0  0
 10  1  1  0  0  0  0
 10  7  2  0  0  0  0
 11  9  1  0  0  0  0
 13  4  1  0  0  0  0
 14  9  2  0  0  0  0
 14 16  1  0  0  0  0
 15 20  1  6  0  0  0
 15 13  1  0  0  0  0
 15  2  1  0  0  0  0
 17 16  1  0  0  0  0
 18 19  1  0  0  0  0
 19 10  1  0  0  0  0
 21 20  1  0  0  0  0
 22 23  3  0  0  0  0
 23 21  1  0  0  0  0
 24 15  1  0  0  0  0
 24 25  1  0  0  0  0
 26 28  1  0  0  0  0
 26 25  1  0  0  0  0
 27 28  1  0  0  0  0
 30 32  1  0  0  0  0
 30 29  1  0  0  0  0
 31 37  1  0  0  0  0
 32 31  2  0  0  0  0
 33 36  2  0  0  0  0
 33 32  1  0  0  0  0
 34 36  1  0  0  0  0
 35 37  2  0  0  0  0
 36 35  1  0  0  0  0
M  END
>  <MODEL>
4

>  <REMARK>
 VINA RESULT:      -5.8      3.384      6.666
  Name = 
  12 active torsions:
  status: ('A' for Active; 'I' for Inactive)
    1  A    between atoms: C_1  and  N_5
    2  A    between atoms: C_1  and  C_36
    3  A    between atoms: O_3  and  C_32
    4  A    between atoms: N_5  and  C_23
    5  A    between atoms: C_6  and  C_31
    6  A    between atoms: N_14  and  C_37
    7  A    between atoms: C_17  and  C_26
    8  A    between atoms: C_17  and  O_33
    9  A    between atoms: C_24  and  O_28
   10  A    between atoms: C_26  and  O_34
   11  A    between atoms: C_31  and  C_37
   12  A    between atoms: O_33  and  C_36
                            x       y       z     vdW  Elec       q    Type
                         _______ _______ _______ _____ _____    ______ ____

>  <TORSDO>
F 12

$$$$
=
 OpenBabel11052420043D

 37 40  0  0  1  0  0  0  0  0999 V2000
  192.1740  173.2640  144.4180 C   0  0  0  0  0  2  0  0  0  0  0  0
  194.7990  176.0550  142.8220 C   0  0  0  0  0  2  0  0  0  0  0  0
  195.0180  170.3870  145.6230 C   0  0  0  0  0  3  0  0  0  0  0  0
  193.6460  173.6950  144.2700 C   0  0  1  0  0  0  0  0  0  0  0  0
  194.1550  171.3420  145.0800 C   0  0  0  0  0  0  0  0  0  0  0  0
  193.7580  175.0780  144.8150 N   0  0  0  0  0  0  0  0  0  0  0  0
  192.8670  170.9340  144.6060 N   0  0  0  0  0  0  0  0  0  0  0  0
  194.5660  172.6850  144.9600 C   0  0  0  0  0  0  0  0  0  0  0  0
  196.7250  172.0760  145.9060 C   0  0  0  0  0  3  0  0  0  0  0  0
  191.9510  171.7820  144.2470 C   0  0  0  0  0  0  0  0  0  0  0  0
  195.8690  173.0310  145.3550 C   0  0  0  0  0  3  0  0  0  0  0  0
  194.9520  175.7530  144.3130 C   0  0  0  0  0  2  0  0  0  0  0  0
  193.9880  173.6660  142.7610 C   0  0  0  0  0  2  0  0  0  0  0  0
  196.3040  170.7510  146.0480 C   0  0  0  0  0  0  0  0  0  0  0  0
  193.9200  175.0340  142.0570 C   0  0  1  0  0  0  0  0  0  0  0  0
  197.1840  169.8190  146.6070 O   0  0  0  0  0  0  0  0  0  0  0  0
  196.7360  168.6380  147.2600 C   0  0  0  0  0  1  0  0  0  0  0  0
  190.5460  170.9690  142.3900 C   0  0  0  0  0  1  0  0  0  0  0  0
  190.7370  171.2940  143.7590 O   0  0  0  0  0  0  0  0  0  0  0  0
  192.4580  175.5230  142.0480 C   0  0  0  0  0  2  0  0  0  0  0  0
  191.5940  174.5770  141.3610 N   0  0  0  0  0  2  0  0  0  0  0  0
  189.0620  174.4470  141.9570 C   0  0  0  0  0  3  0  0  0  0  0  0
  190.2340  174.5060  141.6810 C   0  0  0  0  0  0  0  0  0  0  0  0
  194.4090  174.8430  140.7380 O   0  0  0  0  0  0  0  0  0  0  0  0
  195.5500  175.6390  140.5180 C   0  0  0  0  0  2  0  0  0  0  0  0
  196.1130  175.3430  139.1440 C   0  0  0  0  0  2  0  0  0  0  0  0
  197.9410  175.0470  137.9500 C   0  0  0  0  0  1  0  0  0  0  0  0
  197.4600  175.0040  139.2580 O   0  0  0  0  0  0  0  0  0  0  0  0
  193.7920  175.1110  146.2760 C   0  0  0  0  0  2  0  0  0  0  0  0
  193.0300  176.3210  146.7860 C   0  0  0  0  0  2  0  0  0  0  0  0
  190.9040  175.1870  147.4600 C   0  0  0  0  0  3  0  0  0  0  0  0
  191.5680  176.0980  146.6300 C   0  0  0  0  0  0  0  0  0  0  0  0
  190.8600  176.7740  145.6310 C   0  0  0  0  0  3  0  0  0  0  0  0
  188.6070  177.3970  144.2170 Cl  0  0  0  0  0  0  0  0  0  0  0  0
  188.8260  175.6420  146.3010 C   0  0  0  0  0  3  0  0  0  0  0  0
  189.4900  176.5490  145.4680 C   0  0  0  0  0  0  0  0  0  0  0  0
  189.5330  174.9610  147.2970 C   0  0  0  0  0  3  0  0  0  0  0  0
  2 12  1  0  0  0  0
  3 14  1  0  0  0  0
  4 13  1  6  0  0  0
  4  1  1  0  0  0  0
  4  6  1  0  0  0  0
  4  8  1  0  0  0  0
  5  3  2  0  0  0  0
  6 29  1  0  0  0  0
  7  5  1  0  0  0  0
  8  5  1  0  0  0  0
  8 11  2  0  0  0  0
  9 14  2  0  0  0  0
 10  1  1  0  0  0  0
 10  7  2  0  0  0  0
 11  9  1  0  0  0  0
 12  6  1  0  0  0  0
 14 16  1  0  0  0  0
 15 20  1  6  0  0  0
 15 13  1  0  0  0  0
 15  2  1  0  0  0  0
 16 17  1  0  0  0  0
 18 19  1  0  0  0  0
 19 10  1  0  0  0  0
 21 23  1  0  0  0  0
 21 20  1  0  0  0  0
 23 22  3  0  0  0  0
 24 15  1  0  0  0  0
 25 24  1  0  0  0  0
 26 28  1  0  0  0  0
 26 25  1  0  0  0  0
 27 28  1  0  0  0  0
 29 30  1  0  0  0  0
 32 30  1  0  0  0  0
 32 31  2  0  0  0  0
 33 32  1  0  0  0  0
 34 36  1  0  0  0  0
 35 37  2  0  0  0  0
 36 33  2  0  0  0  0
 36 35  1  0  0  0  0
 37 31  1  0  0  0  0
M  END
>  <MODEL>
5

>  <REMARK>
 VINA RESULT:      -5.5      2.196      6.076
  Name = 
  12 active torsions:
  status: ('A' for Active; 'I' for Inactive)
    1  A    between atoms: C_1  and  N_5
    2  A    between atoms: C_1  and  C_36
    3  A    between atoms: O_3  and  C_32
    4  A    between atoms: N_5  and  C_23
    5  A    between atoms: C_6  and  C_31
    6  A    between atoms: N_14  and  C_37
    7  A    between atoms: C_17  and  C_26
    8  A    between atoms: C_17  and  O_33
    9  A    between atoms: C_24  and  O_28
   10  A    between atoms: C_26  and  O_34
   11  A    between atoms: C_31  and  C_37
   12  A    between atoms: O_33  and  C_36
                            x       y       z     vdW  Elec       q    Type
                         _______ _______ _______ _____ _____    ______ ____

>  <TORSDO>
F 12

$$$$
=
 OpenBabel11052420043D

 37 40  0  0  1  0  0  0  0  0999 V2000
  189.3070  176.2330  143.3440 C   0  0  0  0  0  2  0  0  0  0  0  0
  188.3090  175.4710  147.3000 C   0  0  0  0  0  2  0  0  0  0  0  0
  193.4070  177.0580  143.9080 C   0  0  0  0  0  3  0  0  0  0  0  0
  189.8350  175.9850  144.7690 C   0  0  1  0  0  0  0  0  0  0  0  0
  192.0220  176.8890  143.8460 C   0  0  0  0  0  0  0  0  0  0  0  0
  189.3080  174.6630  145.2120 N   0  0  0  0  0  0  0  0  0  0  0  0
  191.2750  177.5810  142.8400 N   0  0  0  0  0  0  0  0  0  0  0  0
  191.3630  176.0770  144.7920 C   0  0  0  0  0  0  0  0  0  0  0  0
  193.5030  175.6490  145.8700 C   0  0  0  0  0  3  0  0  0  0  0  0
  190.0180  177.3450  142.6120 C   0  0  0  0  0  0  0  0  0  0  0  0
  192.1180  175.4840  145.8180 C   0  0  0  0  0  3  0  0  0  0  0  0
  189.3410  174.5360  146.6660 C   0  0  0  0  0  2  0  0  0  0  0  0
  189.2970  177.1240  145.6690 C   0  0  0  0  0  2  0  0  0  0  0  0
  194.1570  176.4310  144.9150 C   0  0  0  0  0  0  0  0  0  0  0  0
  188.0440  176.7630  146.4870 C   0  0  1  0  0  0  0  0  0  0  0  0
  195.5450  176.5740  144.9920 O   0  0  0  0  0  0  0  0  0  0  0  0
  196.3600  176.7900  143.8480 C   0  0  0  0  0  1  0  0  0  0  0  0
  188.0260  177.8160  141.2380 C   0  0  0  0  0  1  0  0  0  0  0  0
  189.3590  178.0970  141.6390 O   0  0  0  0  0  0  0  0  0  0  0  0
  186.8640  176.5270  145.5230 C   0  0  0  0  0  2  0  0  0  0  0  0
  186.7770  177.5880  144.5330 N   0  0  0  0  0  2  0  0  0  0  0  0
  184.6440  177.8310  143.0580 C   0  0  0  0  0  3  0  0  0  0  0  0
  185.6320  177.7180  143.7400 C   0  0  0  0  0  0  0  0  0  0  0  0
  187.7890  177.8560  147.3560 O   0  0  0  0  0  0  0  0  0  0  0  0
  186.4360  177.8690  147.7450 C   0  0  0  0  0  2  0  0  0  0  0  0
  185.8960  179.2800  147.6440 C   0  0  0  0  0  2  0  0  0  0  0  0
  184.0780  178.2920  146.8880 C   0  0  0  0  0  1  0  0  0  0  0  0
  184.9520  179.3440  146.6220 O   0  0  0  0  0  0  0  0  0  0  0  0
  190.0430  173.5380  144.6360 C   0  0  0  0  0  2  0  0  0  0  0  0
  189.0920  172.6320  143.8760 C   0  0  0  0  0  2  0  0  0  0  0  0
  188.0770  172.8210  141.5970 C   0  0  0  0  0  3  0  0  0  0  0  0
  189.2100  172.8890  142.4150 C   0  0  0  0  0  0  0  0  0  0  0  0
  190.4610  173.1670  141.8540 C   0  0  0  0  0  3  0  0  0  0  0  0
  192.1430  173.7350  139.7780 Cl  0  0  0  0  0  0  0  0  0  0  0  0
  189.4440  173.3240  139.6610 C   0  0  0  0  0  3  0  0  0  0  0  0
  190.5770  173.3870  140.4780 C   0  0  0  0  0  0  0  0  0  0  0  0
  188.1930  173.0400  140.2200 C   0  0  0  0  0  3  0  0  0  0  0  0
  3 14  1  0  0  0  0
  4  1  1  6  0  0  0
  4  8  1  0  0  0  0
  4  6  1  0  0  0  0
  4 13  1  0  0  0  0
  5  3  2  0  0  0  0
  5  8  1  0  0  0  0
  6 12  1  0  0  0  0
  7  5  1  0  0  0  0
  8 11  2  0  0  0  0
 10  7  2  0  0  0  0
 10  1  1  0  0  0  0
 11  9  1  0  0  0  0
 12  2  1  0  0  0  0
 13 15  1  0  0  0  0
 14 16  1  0  0  0  0
 14  9  2  0  0  0  0
 15 20  1  6  0  0  0
 15  2  1  0  0  0  0
 15 24  1  0  0  0  0
 17 16  1  0  0  0  0
 18 19  1  0  0  0  0
 19 10  1  0  0  0  0
 21 20  1  0  0  0  0
 22 23  3  0  0  0  0
 23 21  1  0  0  0  0
 24 25  1  0  0  0  0
 26 25  1  0  0  0  0
 28 27  1  0  0  0  0
 28 26  1  0  0  0  0
 29  6  1  0  0  0  0
 30 29  1  0  0  0  0
 31 32  1  0  0  0  0
 32 30  1  0  0  0  0
 33 32  2  0  0  0  0
 34 36  1  0  0  0  0
 35 37  1  0  0  0  0
 35 36  2  0  0  0  0
 36 33  1  0  0  0  0
 37 31  2  0  0  0  0
M  END
>  <MODEL>
6

>  <REMARK>
 VINA RESULT:      -5.4      3.414      7.654
  Name = 
  12 active torsions:
  status: ('A' for Active; 'I' for Inactive)
    1  A    between atoms: C_1  and  N_5
    2  A    between atoms: C_1  and  C_36
    3  A    between atoms: O_3  and  C_32
    4  A    between atoms: N_5  and  C_23
    5  A    between atoms: C_6  and  C_31
    6  A    between atoms: N_14  and  C_37
    7  A    between atoms: C_17  and  C_26
    8  A    between atoms: C_17  and  O_33
    9  A    between atoms: C_24  and  O_28
   10  A    between atoms: C_26  and  O_34
   11  A    between atoms: C_31  and  C_37
   12  A    between atoms: O_33  and  C_36
                            x       y       z     vdW  Elec       q    Type
                         _______ _______ _______ _____ _____    ______ ____

>  <TORSDO>
F 12

$$$$
=
 OpenBabel11052420043D

 37 40  0  0  1  0  0  0  0  0999 V2000
  190.3380  174.3800  145.2020 C   0  0  0  0  0  2  0  0  0  0  0  0
  192.9790  175.0390  142.0690 C   0  0  0  0  0  2  0  0  0  0  0  0
  187.6540  177.5360  144.3970 C   0  0  0  0  0  3  0  0  0  0  0  0
  190.5960  175.1410  143.8880 C   0  0  1  0  0  0  0  0  0  0  0  0
  188.6620  176.6020  144.6470 C   0  0  0  0  0  0  0  0  0  0  0  0
  190.8350  174.1220  142.8270 N   0  0  0  0  0  0  0  0  0  0  0  0
  188.9360  176.2100  145.9950 N   0  0  0  0  0  0  0  0  0  0  0  0
  189.4300  176.0850  143.5840 C   0  0  0  0  0  0  0  0  0  0  0  0
  188.1760  177.4850  142.0370 C   0  0  0  0  0  3  0  0  0  0  0  0
  189.7350  175.2310  146.2930 C   0  0  0  0  0  0  0  0  0  0  0  0
  189.1910  176.5590  142.2830 C   0  0  0  0  0  3  0  0  0  0  0  0
  191.5380  174.6970  141.6840 C   0  0  0  0  0  2  0  0  0  0  0  0
  191.8510  176.0220  144.1000 C   0  0  0  0  0  2  0  0  0  0  0  0
  187.3980  177.9750  143.0890 C   0  0  0  0  0  0  0  0  0  0  0  0
  193.1610  175.4210  143.5580 C   0  0  1  0  0  0  0  0  0  0  0  0
  186.3870  178.8990  142.8090 O   0  0  0  0  0  0  0  0  0  0  0  0
  185.5640  179.4650  143.8210 C   0  0  0  0  0  1  0  0  0  0  0  0
  191.1920  175.2920  148.2820 C   0  0  0  0  0  1  0  0  0  0  0  0
  189.9760  174.9440  147.6380 O   0  0  0  0  0  0  0  0  0  0  0  0
  193.5100  174.1580  144.3720 C   0  0  0  0  0  2  0  0  0  0  0  0
  194.2420  174.5000  145.5810 N   0  0  0  0  0  2  0  0  0  0  0  0
  196.6820  173.6530  145.9180 C   0  0  0  0  0  3  0  0  0  0  0  0
  195.5520  174.0460  145.7620 C   0  0  0  0  0  0  0  0  0  0  0  0
  194.1610  176.4180  143.6990 O   0  0  0  0  0  0  0  0  0  0  0  0
  195.0870  176.3370  142.6410 C   0  0  0  0  0  2  0  0  0  0  0  0
  196.4860  176.5570  143.1780 C   0  0  0  0  0  2  0  0  0  0  0  0
  196.7640  175.6620  141.1840 C   0  0  0  0  0  1  0  0  0  0  0  0
  197.3960  175.8290  142.4140 O   0  0  0  0  0  0  0  0  0  0  0  0
  189.6000  173.5070  142.3440 C   0  0  0  0  0  2  0  0  0  0  0  0
  189.9200  172.2380  141.5730 C   0  0  0  0  0  2  0  0  0  0  0  0
  190.0630  171.5310  139.1770 C   0  0  0  0  0  3  0  0  0  0  0  0
  189.5660  172.4170  140.1390 C   0  0  0  0  0  0  0  0  0  0  0  0
  188.7630  173.4930  139.7470 C   0  0  0  0  0  3  0  0  0  0  0  0
  187.4420  175.0230  137.9090 Cl  0  0  0  0  0  0  0  0  0  0  0  0
  188.9410  172.7870  137.4370 C   0  0  0  0  0  3  0  0  0  0  0  0
  188.4480  173.6770  138.3970 C   0  0  0  0  0  0  0  0  0  0  0  0
  189.7490  171.7140  137.8270 C   0  0  0  0  0  3  0  0  0  0  0  0
  1 10  1  0  0  0  0
  2 15  1  0  0  0  0
  3  5  1  0  0  0  0
  4 13  1  1  0  0  0
  4  1  1  0  0  0  0
  5  7  1  0  0  0  0
  6  4  1  0  0  0  0
  7 10  2  0  0  0  0
  8  4  1  0  0  0  0
  8  5  2  0  0  0  0
  9 11  2  0  0  0  0
  9 14  1  0  0  0  0
 10 19  1  0  0  0  0
 11  8  1  0  0  0  0
 12  2  1  0  0  0  0
 12  6  1  0  0  0  0
 14  3  2  0  0  0  0
 15 24  1  0  0  0  0
 15 13  1  0  0  0  0
 15 20  1  1  0  0  0
 16 14  1  0  0  0  0
 16 17  1  0  0  0  0
 19 18  1  0  0  0  0
 20 21  1  0  0  0  0
 21 23  1  0  0  0  0
 23 22  3  0  0  0  0
 25 26  1  0  0  0  0
 25 24  1  0  0  0  0
 27 28  1  0  0  0  0
 28 26  1  0  0  0  0
 29  6  1  0  0  0  0
 30 29  1  0  0  0  0
 31 32  1  0  0  0  0
 32 30  1  0  0  0  0
 33 32  2  0  0  0  0
 34 36  1  0  0  0  0
 35 37  1  0  0  0  0
 35 36  2  0  0  0  0
 36 33  1  0  0  0  0
 37 31  2  0  0  0  0
M  END
>  <MODEL>
7

>  <REMARK>
 VINA RESULT:      -5.4      2.697      5.782
  Name = 
  12 active torsions:
  status: ('A' for Active; 'I' for Inactive)
    1  A    between atoms: C_1  and  N_5
    2  A    between atoms: C_1  and  C_36
    3  A    between atoms: O_3  and  C_32
    4  A    between atoms: N_5  and  C_23
    5  A    between atoms: C_6  and  C_31
    6  A    between atoms: N_14  and  C_37
    7  A    between atoms: C_17  and  C_26
    8  A    between atoms: C_17  and  O_33
    9  A    between atoms: C_24  and  O_28
   10  A    between atoms: C_26  and  O_34
   11  A    between atoms: C_31  and  C_37
   12  A    between atoms: O_33  and  C_36
                            x       y       z     vdW  Elec       q    Type
                         _______ _______ _______ _____ _____    ______ ____

>  <TORSDO>
F 12

$$$$
=
 OpenBabel11052420043D

 37 40  0  0  1  0  0  0  0  0999 V2000
  191.8780  174.6860  143.4840 C   0  0  0  0  0  2  0  0  0  0  0  0
  190.0690  171.7030  141.2380 C   0  0  0  0  0  2  0  0  0  0  0  0
  189.2310  177.8360  142.5420 C   0  0  0  0  0  3  0  0  0  0  0  0
  190.6390  174.2780  142.6650 C   0  0  1  0  0  0  0  0  0  0  0  0
  190.1130  176.7630  142.6920 C   0  0  0  0  0  0  0  0  0  0  0  0
  190.0840  173.0440  143.2900 N   0  0  0  0  0  0  0  0  0  0  0  0
  191.5050  177.0230  142.8990 N   0  0  0  0  0  0  0  0  0  0  0  0
  189.6420  175.4370  142.5990 C   0  0  0  0  0  0  0  0  0  0  0  0
  187.4050  176.2960  142.1670 C   0  0  0  0  0  3  0  0  0  0  0  0
  192.3540  176.0930  143.2140 C   0  0  0  0  0  0  0  0  0  0  0  0
  188.2850  175.2210  142.3080 C   0  0  0  0  0  3  0  0  0  0  0  0
  189.2270  172.3150  142.3590 C   0  0  0  0  0  2  0  0  0  0  0  0
  191.1110  174.0010  141.2180 C   0  0  0  0  0  2  0  0  0  0  0  0
  187.8700  177.6070  142.2890 C   0  0  0  0  0  0  0  0  0  0  0  0
  191.3400  172.5140  140.8870 C   0  0  1  0  0  0  0  0  0  0  0  0
  186.9630  178.6620  142.1460 O   0  0  0  0  0  0  0  0  0  0  0  0
  185.8910  178.8810  143.0530 C   0  0  0  0  0  1  0  0  0  0  0  0
  194.3750  176.3510  144.6050 C   0  0  0  0  0  1  0  0  0  0  0  0
  193.7010  176.4310  143.3570 O   0  0  0  0  0  0  0  0  0  0  0  0
  192.5280  171.9900  141.7210 C   0  0  0  0  0  2  0  0  0  0  0  0
  192.4070  170.5620  141.9630 N   0  0  0  0  0  2  0  0  0  0  0  0
  193.0650  169.5660  144.2780 C   0  0  0  0  0  3  0  0  0  0  0  0
  192.7610  170.0270  143.2060 C   0  0  0  0  0  0  0  0  0  0  0  0
  191.6140  172.4380  139.4960 O   0  0  0  0  0  0  0  0  0  0  0  0
  190.5240  171.8640  138.8130 C   0  0  0  0  0  2  0  0  0  0  0  0
  190.0300  172.8270  137.7540 C   0  0  0  0  0  2  0  0  0  0  0  0
  188.4390  173.9880  138.7400 C   0  0  0  0  0  1  0  0  0  0  0  0
  188.6450  172.9430  137.8420 O   0  0  0  0  0  0  0  0  0  0  0  0
  189.3140  173.3200  144.5020 C   0  0  0  0  0  2  0  0  0  0  0  0
  190.2540  173.5460  145.6720 C   0  0  0  0  0  2  0  0  0  0  0  0
  191.0690  175.5160  146.9810 C   0  0  0  0  0  3  0  0  0  0  0  0
  190.0620  174.9170  146.2150 C   0  0  0  0  0  0  0  0  0  0  0  0
  188.8610  175.5970  145.9890 C   0  0  0  0  0  3  0  0  0  0  0  0
  187.1650  177.7250  146.2320 Cl  0  0  0  0  0  0  0  0  0  0  0  0
  189.6780  177.4770  147.2780 C   0  0  0  0  0  3  0  0  0  0  0  0
  188.6690  176.8760  146.5170 C   0  0  0  0  0  0  0  0  0  0  0  0
  190.8780  176.7970  147.5100 C   0  0  0  0  0  3  0  0  0  0  0  0
  2 12  1  0  0  0  0
  3  5  1  0  0  0  0
  4 13  1  6  0  0  0
  4  6  1  0  0  0  0
  4  1  1  0  0  0  0
  5  7  1  0  0  0  0
  6 29  1  0  0  0  0
  7 10  2  0  0  0  0
  8  4  1  0  0  0  0
  8  5  2  0  0  0  0
  9 14  1  0  0  0  0
  9 11  2  0  0  0  0
 10 19  1  0  0  0  0
 10  1  1  0  0  0  0
 11  8  1  0  0  0  0
 12  6  1  0  0  0  0
 14  3  2  0  0  0  0
 15 13  1  0  0  0  0
 15  2  1  0  0  0  0
 15 20  1  1  0  0  0
 16 14  1  0  0  0  0
 16 17  1  0  0  0  0
 19 18  1  0  0  0  0
 20 21  1  0  0  0  0
 21 23  1  0  0  0  0
 23 22  3  0  0  0  0
 24 15  1  0  0  0  0
 25 24  1  0  0  0  0
 26 28  1  0  0  0  0
 26 25  1  0  0  0  0
 28 27  1  0  0  0  0
 29 30  1  0  0  0  0
 30 32  1  0  0  0  0
 31 37  1  0  0  0  0
 32 31  2  0  0  0  0
 33 32  1  0  0  0  0
 33 36  2  0  0  0  0
 34 36  1  0  0  0  0
 35 37  2  0  0  0  0
 36 35  1  0  0  0  0
M  END
>  <MODEL>
8

>  <REMARK>
 VINA RESULT:      -5.4      2.604      5.475
  Name = 
  12 active torsions:
  status: ('A' for Active; 'I' for Inactive)
    1  A    between atoms: C_1  and  N_5
    2  A    between atoms: C_1  and  C_36
    3  A    between atoms: O_3  and  C_32
    4  A    between atoms: N_5  and  C_23
    5  A    between atoms: C_6  and  C_31
    6  A    between atoms: N_14  and  C_37
    7  A    between atoms: C_17  and  C_26
    8  A    between atoms: C_17  and  O_33
    9  A    between atoms: C_24  and  O_28
   10  A    between atoms: C_26  and  O_34
   11  A    between atoms: C_31  and  C_37
   12  A    between atoms: O_33  and  C_36
                            x       y       z     vdW  Elec       q    Type
                         _______ _______ _______ _____ _____    ______ ____

>  <TORSDO>
F 12

$$$$
=
 OpenBabel11052420043D

 37 40  0  0  1  0  0  0  0  0999 V2000
  193.7220  175.4990  141.9880 C   0  0  0  0  0  2  0  0  0  0  0  0
  193.3120  173.3050  145.4870 C   0  0  0  0  0  2  0  0  0  0  0  0
  191.2430  173.1450  139.5110 C   0  0  0  0  0  3  0  0  0  0  0  0
  192.9530  174.3750  142.7080 C   0  0  1  0  0  0  0  0  0  0  0  0
  192.1350  173.7830  140.3770 C   0  0  0  0  0  0  0  0  0  0  0  0
  192.3680  174.9630  143.9470 N   0  0  0  0  0  0  0  0  0  0  0  0
  193.2960  174.4250  139.8410 N   0  0  0  0  0  0  0  0  0  0  0  0
  191.9130  173.7580  141.7700 C   0  0  0  0  0  0  0  0  0  0  0  0
  189.9170  172.4160  141.3960 C   0  0  0  0  0  3  0  0  0  0  0  0
  194.0760  175.1780  140.5560 C   0  0  0  0  0  0  0  0  0  0  0  0
  190.8090  173.0440  142.2660 C   0  0  0  0  0  3  0  0  0  0  0  0
  192.0340  173.9280  144.9220 C   0  0  0  0  0  2  0  0  0  0  0  0
  193.9720  173.2620  143.0520 C   0  0  0  0  0  2  0  0  0  0  0  0
  190.1240  172.4660  140.0160 C   0  0  0  0  0  0  0  0  0  0  0  0
  194.5030  173.2970  144.4980 C   0  0  1  0  0  0  0  0  0  0  0  0
  189.2100  171.8300  139.1710 O   0  0  0  0  0  0  0  0  0  0  0  0
  189.6050  170.8820  138.1880 C   0  0  0  0  0  1  0  0  0  0  0  0
  196.3830  176.0360  140.6980 C   0  0  0  0  0  1  0  0  0  0  0  0
  195.2090  175.7310  139.9590 O   0  0  0  0  0  0  0  0  0  0  0  0
  195.3410  174.5760  144.6950 C   0  0  0  0  0  2  0  0  0  0  0  0
  195.3170  175.0090  146.0830 N   0  0  0  0  0  2  0  0  0  0  0  0
  194.0680  177.1940  146.7520 C   0  0  0  0  0  3  0  0  0  0  0  0
  194.6460  176.1820  146.4420 C   0  0  0  0  0  0  0  0  0  0  0  0
  195.2920  172.1310  144.6750 O   0  0  0  0  0  0  0  0  0  0  0  0
  194.6300  171.2140  145.5140 C   0  0  0  0  0  2  0  0  0  0  0  0
  194.8110  169.8120  144.9700 C   0  0  0  0  0  2  0  0  0  0  0  0
  192.8870  169.3680  143.9920 C   0  0  0  0  0  1  0  0  0  0  0  0
  194.2070  169.7180  143.7180 O   0  0  0  0  0  0  0  0  0  0  0  0
  191.1670  175.7540  143.6860 C   0  0  0  0  0  2  0  0  0  0  0  0
  191.0220  176.8380  144.7390 C   0  0  0  0  0  2  0  0  0  0  0  0
  189.2050  176.1080  146.2960 C   0  0  0  0  0  3  0  0  0  0  0  0
  189.6130  176.8950  145.2130 C   0  0  0  0  0  0  0  0  0  0  0  0
  188.6870  177.7110  144.5550 C   0  0  0  0  0  3  0  0  0  0  0  0
  186.2000  178.7700  144.1600 Cl  0  0  0  0  0  0  0  0  0  0  0  0
  186.9500  176.9660  146.0710 C   0  0  0  0  0  3  0  0  0  0  0  0
  187.3570  177.7490  144.9850 C   0  0  0  0  0  0  0  0  0  0  0  0
  187.8740  176.1450  146.7260 C   0  0  0  0  0  3  0  0  0  0  0  0
  3 14  2  0  0  0  0
  3  5  1  0  0  0  0
  4  1  1  6  0  0  0
  4 13  1  0  0  0  0
  4  6  1  0  0  0  0
  5  8  2  0  0  0  0
  6 12  1  0  0  0  0
  7  5  1  0  0  0  0
  7 10  2  0  0  0  0
  8 11  1  0  0  0  0
  8  4  1  0  0  0  0
  9 11  2  0  0  0  0
 10  1  1  0  0  0  0
 12  2  1  0  0  0  0
 13 15  1  0  0  0  0
 14  9  1  0  0  0  0
 15 24  1  0  0  0  0
 15 20  1  1  0  0  0
 15  2  1  0  0  0  0
 16 14  1  0  0  0  0
 17 16  1  0  0  0  0
 19 10  1  0  0  0  0
 19 18  1  0  0  0  0
 20 21  1  0  0  0  0
 21 23  1  0  0  0  0
 23 22  3  0  0  0  0
 24 25  1  0  0  0  0
 26 25  1  0  0  0  0
 28 27  1  0  0  0  0
 28 26  1  0  0  0  0
 29  6  1  0  0  0  0
 29 30  1  0  0  0  0
 30 32  1  0  0  0  0
 31 37  1  0  0  0  0
 32 31  2  0  0  0  0
 33 36  2  0  0  0  0
 33 32  1  0  0  0  0
 34 36  1  0  0  0  0
 35 37  2  0  0  0  0
 36 35  1  0  0  0  0
M  END
>  <MODEL>
9

>  <REMARK>
 VINA RESULT:      -5.2      1.569      2.241
  Name = 
  12 active torsions:
  status: ('A' for Active; 'I' for Inactive)
    1  A    between atoms: C_1  and  N_5
    2  A    between atoms: C_1  and  C_36
    3  A    between atoms: O_3  and  C_32
    4  A    between atoms: N_5  and  C_23
    5  A    between atoms: C_6  and  C_31
    6  A    between atoms: N_14  and  C_37
    7  A    between atoms: C_17  and  C_26
    8  A    between atoms: C_17  and  O_33
    9  A    between atoms: C_24  and  O_28
   10  A    between atoms: C_26  and  O_34
   11  A    between atoms: C_31  and  C_37
   12  A    between atoms: O_33  and  C_36
                            x       y       z     vdW  Elec       q    Type
                         _______ _______ _______ _____ _____    ______ ____

>  <TORSDO>
F 12

$$$$
