=
 OpenBabel11052418273D

 27 29  0  0  1  0  0  0  0  0999 V2000
  189.5810  174.6840  147.0660 C   0  0  0  0  0  1  0  0  0  0  0  0
  190.0170  175.2590  145.7060 C   0  0  2  0  0  0  0  0  0  0  0  0
  189.4200  173.4190  142.3860 C   0  0  0  0  0  3  0  0  0  0  0  0
  189.3240  172.0930  142.8110 C   0  0  0  0  0  3  0  0  0  0  0  0
  189.8090  174.1440  144.6850 C   0  0  0  0  0  0  0  0  0  0  0  0
  189.7060  175.7210  142.8620 F   0  0  0  0  0  0  0  0  0  0  0  0
  189.4510  171.7850  144.1650 C   0  0  0  0  0  3  0  0  0  0  0  0
  189.6830  172.8010  145.0930 C   0  0  0  0  0  3  0  0  0  0  0  0
  189.6530  174.4410  143.3110 C   0  0  0  0  0  0  0  0  0  0  0  0
  194.1870  176.4720  145.6590 C   0  0  0  0  0  3  0  0  0  0  0  0
  191.4850  175.6970  145.7310 C   0  0  0  0  0  0  0  0  0  0  0  0
  191.8910  176.8090  144.9740 C   0  0  0  0  0  3  0  0  0  0  0  0
  193.2330  177.1970  144.9440 C   0  0  0  0  0  3  0  0  0  0  0  0
  193.8010  175.3540  146.4030 C   0  0  0  0  0  3  0  0  0  0  0  0
  192.4590  174.9650  146.4330 C   0  0  0  0  0  3  0  0  0  0  0  0
  189.1860  176.3510  145.3360 O   0  0  0  0  0  0  0  0  0  0  0  0
  188.0630  176.4310  146.1850 C   0  0  0  0  0  2  0  0  0  0  0  0
  185.7750  177.2480  143.2960 C   0  0  0  0  0  3  0  0  0  0  0  0
  183.6810  178.3710  143.1950 F   0  0  0  0  0  0  0  0  0  0  0  0
  184.7510  178.1080  145.3160 C   0  0  0  0  0  0  0  0  0  0  0  0
  183.6980  178.7740  145.9360 O   0  0  0  0  0  1  0  0  0  0  0  0
  185.8340  177.6280  146.0740 C   0  0  0  0  0  0  0  0  0  0  0  0
  184.7240  177.9150  143.9300 C   0  0  0  0  0  0  0  0  0  0  0  0
  186.8980  176.9710  145.4240 C   0  0  0  0  0  0  0  0  0  0  0  0
  186.8570  176.7770  144.0400 C   0  0  0  0  0  3  0  0  0  0  0  0
  186.3910  179.1120  147.8310 O   0  0  0  0  0  1  0  0  0  0  0  0
  185.8600  177.8520  147.5540 C   0  0  0  0  0  2  0  0  0  0  0  0
  2 11  1  0  0  0  0
  2  1  1  1  0  0  0
  3  4  2  0  0  0  0
  3  9  1  0  0  0  0
  4  7  1  0  0  0  0
  5  8  1  0  0  0  0
  5  2  1  0  0  0  0
  6  9  1  0  0  0  0
  7  8  2  0  0  0  0
  9  5  2  0  0  0  0
 10 14  1  0  0  0  0
 11 15  1  0  0  0  0
 12 11  2  0  0  0  0
 13 12  1  0  0  0  0
 13 10  2  0  0  0  0
 14 15  2  0  0  0  0
 16  2  1  0  0  0  0
 16 17  1  0  0  0  0
 18 23  2  0  0  0  0
 18 25  1  0  0  0  0
 19 23  1  0  0  0  0
 20 21  1  0  0  0  0
 20 22  2  0  0  0  0
 22 27  1  0  0  0  0
 23 20  1  0  0  0  0
 24 22  1  0  0  0  0
 24 17  1  0  0  0  0
 25 24  2  0  0  0  0
 27 26  1  0  0  0  0
M  END
>  <MODEL>
1

>  <REMARK>
 VINA RESULT:      -7.4      0.000      0.000
  Name = 
  6 active torsions:
  status: ('A' for Active; 'I' for Inactive)
    1  A    between atoms: O_2  and  C_6
    2  A    between atoms: O_2  and  C_15
    3  A    between atoms: C_6  and  C_17
    4  A    between atoms: C_9  and  C_15
    5  A    between atoms: C_14  and  C_19
    6  A    between atoms: C_15  and  C_18
                            x       y       z     vdW  Elec       q    Type
                         _______ _______ _______ _____ _____    ______ ____

>  <TORSDO>
F 6

$$$$
=
 OpenBabel11052418273D

 27 29  0  0  1  0  0  0  0  0999 V2000
  189.1310  177.2790  143.1630 C   0  0  0  0  0  1  0  0  0  0  0  0
  189.1600  176.5830  144.5350 C   0  0  2  0  0  0  0  0  0  0  0  0
  189.8810  172.8380  145.0020 C   0  0  0  0  0  3  0  0  0  0  0  0
  189.6850  172.3490  143.7110 C   0  0  0  0  0  3  0  0  0  0  0  0
  189.3100  175.0900  144.2530 C   0  0  0  0  0  0  0  0  0  0  0  0
  189.9370  174.6390  146.5400 F   0  0  0  0  0  0  0  0  0  0  0  0
  189.3200  173.2200  142.6840 C   0  0  0  0  0  3  0  0  0  0  0  0
  189.1430  174.5780  142.9520 C   0  0  0  0  0  3  0  0  0  0  0  0
  189.7040  174.1980  145.2770 C   0  0  0  0  0  0  0  0  0  0  0  0
  185.5010  177.4530  146.7080 C   0  0  0  0  0  3  0  0  0  0  0  0
  187.8760  176.8540  145.3250 C   0  0  0  0  0  0  0  0  0  0  0  0
  186.6320  176.7890  144.6740 C   0  0  0  0  0  3  0  0  0  0  0  0
  185.4520  177.0800  145.3640 C   0  0  0  0  0  3  0  0  0  0  0  0
  186.7320  177.5400  147.3640 C   0  0  0  0  0  3  0  0  0  0  0  0
  187.9120  177.2490  146.6750 C   0  0  0  0  0  3  0  0  0  0  0  0
  190.2930  177.0020  145.2840 O   0  0  0  0  0  0  0  0  0  0  0  0
  191.3490  177.3660  144.4250 C   0  0  0  0  0  2  0  0  0  0  0  0
  194.0250  175.8810  146.6350 C   0  0  0  0  0  3  0  0  0  0  0  0
  196.0100  174.6720  146.1350 F   0  0  0  0  0  0  0  0  0  0  0  0
  194.6230  175.4130  144.3350 C   0  0  0  0  0  0  0  0  0  0  0  0
  195.5010  174.8460  143.4170 O   0  0  0  0  0  1  0  0  0  0  0  0
  193.4660  176.0790  143.8940 C   0  0  0  0  0  0  0  0  0  0  0  0
  194.8980  175.3150  145.7040 C   0  0  0  0  0  0  0  0  0  0  0  0
  192.5980  176.6620  144.8400 C   0  0  0  0  0  0  0  0  0  0  0  0
  192.8790  176.5500  146.2050 C   0  0  0  0  0  3  0  0  0  0  0  0
  192.5070  175.0560  141.9880 O   0  0  0  0  0  1  0  0  0  0  0  0
  193.1880  176.1910  142.4270 C   0  0  0  0  0  2  0  0  0  0  0  0
  2  1  1  6  0  0  0
  2 16  1  0  0  0  0
  2 11  1  0  0  0  0
  3  9  1  0  0  0  0
  4  3  2  0  0  0  0
  5  2  1  0  0  0  0
  5  9  2  0  0  0  0
  7  8  2  0  0  0  0
  7  4  1  0  0  0  0
  8  5  1  0  0  0  0
  9  6  1  0  0  0  0
 10 14  1  0  0  0  0
 11 15  1  0  0  0  0
 12 11  2  0  0  0  0
 12 13  1  0  0  0  0
 13 10  2  0  0  0  0
 15 14  2  0  0  0  0
 17 24  1  0  0  0  0
 17 16  1  0  0  0  0
 20 23  1  0  0  0  0
 21 20  1  0  0  0  0
 22 20  2  0  0  0  0
 22 24  1  0  0  0  0
 23 19  1  0  0  0  0
 23 18  2  0  0  0  0
 24 25  2  0  0  0  0
 25 18  1  0  0  0  0
 26 27  1  0  0  0  0
 27 22  1  0  0  0  0
M  END
>  <MODEL>
2

>  <REMARK>
 VINA RESULT:      -7.3      2.589      6.915
  Name = 
  6 active torsions:
  status: ('A' for Active; 'I' for Inactive)
    1  A    between atoms: O_2  and  C_6
    2  A    between atoms: O_2  and  C_15
    3  A    between atoms: C_6  and  C_17
    4  A    between atoms: C_9  and  C_15
    5  A    between atoms: C_14  and  C_19
    6  A    between atoms: C_15  and  C_18
                            x       y       z     vdW  Elec       q    Type
                         _______ _______ _______ _____ _____    ______ ____

>  <TORSDO>
F 6

$$$$
=
 OpenBabel11052418273D

 27 29  0  0  1  0  0  0  0  0999 V2000
  189.1130  175.2980  146.3020 C   0  0  0  0  0  1  0  0  0  0  0  0
  189.7870  175.6370  144.9610 C   0  0  2  0  0  0  0  0  0  0  0  0
  189.4110  172.1860  143.3130 C   0  0  0  0  0  3  0  0  0  0  0  0
  188.7210  172.5050  142.1430 C   0  0  0  0  0  3  0  0  0  0  0  0
  189.3830  174.5320  143.9880 C   0  0  0  0  0  0  0  0  0  0  0  0
  190.4500  172.8410  145.3390 F   0  0  0  0  0  0  0  0  0  0  0  0
  188.3740  173.8300  141.8790 C   0  0  0  0  0  3  0  0  0  0  0  0
  188.7080  174.8340  142.7890 C   0  0  0  0  0  3  0  0  0  0  0  0
  189.7490  173.1880  144.2290 C   0  0  0  0  0  0  0  0  0  0  0  0
  194.0970  175.9140  145.4230 C   0  0  0  0  0  3  0  0  0  0  0  0
  191.3110  175.6980  145.1020 C   0  0  0  0  0  0  0  0  0  0  0  0
  191.8970  175.5740  146.3730 C   0  0  0  0  0  3  0  0  0  0  0  0
  193.2820  175.6740  146.5310 C   0  0  0  0  0  3  0  0  0  0  0  0
  193.5270  176.0570  144.1550 C   0  0  0  0  0  3  0  0  0  0  0  0
  192.1420  175.9570  143.9970 C   0  0  0  0  0  3  0  0  0  0  0  0
  189.2930  176.8700  144.4510 O   0  0  0  0  0  0  0  0  0  0  0  0
  188.5630  177.5580  145.4400 C   0  0  0  0  0  2  0  0  0  0  0  0
  185.7630  178.2310  142.9990 C   0  0  0  0  0  3  0  0  0  0  0  0
  183.4710  178.7770  143.3190 F   0  0  0  0  0  0  0  0  0  0  0  0
  184.8600  178.4470  145.2360 C   0  0  0  0  0  0  0  0  0  0  0  0
  183.7780  178.7060  146.0720 O   0  0  0  0  0  1  0  0  0  0  0  0
  186.1210  178.1420  145.7790 C   0  0  0  0  0  0  0  0  0  0  0  0
  184.6850  178.4880  143.8480 C   0  0  0  0  0  0  0  0  0  0  0  0
  187.2080  177.9000  144.9140 C   0  0  0  0  0  0  0  0  0  0  0  0
  187.0190  177.9360  143.5300 C   0  0  0  0  0  3  0  0  0  0  0  0
  186.0740  176.8250  147.7440 O   0  0  0  0  0  1  0  0  0  0  0  0
  186.3020  178.1150  147.2650 C   0  0  0  0  0  2  0  0  0  0  0  0
  2 11  1  0  0  0  0
  2  1  1  1  0  0  0
  3  9  1  0  0  0  0
  4  3  2  0  0  0  0
  5  9  2  0  0  0  0
  5  2  1  0  0  0  0
  7  4  1  0  0  0  0
  7  8  2  0  0  0  0
  8  5  1  0  0  0  0
  9  6  1  0  0  0  0
 10 13  1  0  0  0  0
 11 12  1  0  0  0  0
 12 13  2  0  0  0  0
 14 10  2  0  0  0  0
 15 14  1  0  0  0  0
 15 11  2  0  0  0  0
 16  2  1  0  0  0  0
 16 17  1  0  0  0  0
 18 25  2  0  0  0  0
 18 23  1  0  0  0  0
 19 23  1  0  0  0  0
 20 22  1  0  0  0  0
 20 21  1  0  0  0  0
 22 27  1  0  0  0  0
 23 20  2  0  0  0  0
 24 17  1  0  0  0  0
 24 22  2  0  0  0  0
 25 24  1  0  0  0  0
 27 26  1  0  0  0  0
M  END
>  <MODEL>
3

>  <REMARK>
 VINA RESULT:      -7.2      1.245      1.723
  Name = 
  6 active torsions:
  status: ('A' for Active; 'I' for Inactive)
    1  A    between atoms: O_2  and  C_6
    2  A    between atoms: O_2  and  C_15
    3  A    between atoms: C_6  and  C_17
    4  A    between atoms: C_9  and  C_15
    5  A    between atoms: C_14  and  C_19
    6  A    between atoms: C_15  and  C_18
                            x       y       z     vdW  Elec       q    Type
                         _______ _______ _______ _____ _____    ______ ____

>  <TORSDO>
F 6

$$$$
=
 OpenBabel11052418273D

 27 29  0  0  1  0  0  0  0  0999 V2000
  190.6080  176.8450  142.9480 C   0  0  0  0  0  1  0  0  0  0  0  0
  190.4670  176.0440  144.2550 C   0  0  2  0  0  0  0  0  0  0  0  0
  194.2280  175.5330  144.8540 C   0  0  0  0  0  3  0  0  0  0  0  0
  194.3710  175.9890  146.1640 C   0  0  0  0  0  3  0  0  0  0  0  0
  191.8450  176.0570  144.9130 C   0  0  0  0  0  0  0  0  0  0  0  0
  192.8750  175.0730  142.9650 F   0  0  0  0  0  0  0  0  0  0  0  0
  193.2590  176.4620  146.8620 C   0  0  0  0  0  3  0  0  0  0  0  0
  192.0080  176.4890  146.2440 C   0  0  0  0  0  3  0  0  0  0  0  0
  192.9770  175.5560  144.2300 C   0  0  0  0  0  0  0  0  0  0  0  0
  189.3010  171.9290  143.4970 C   0  0  0  0  0  3  0  0  0  0  0  0
  190.0160  174.6060  143.9810 C   0  0  0  0  0  0  0  0  0  0  0  0
  190.0540  173.6560  145.0160 C   0  0  0  0  0  3  0  0  0  0  0  0
  189.6930  172.3280  144.7770 C   0  0  0  0  0  3  0  0  0  0  0  0
  189.2740  172.8590  142.4540 C   0  0  0  0  0  3  0  0  0  0  0  0
  189.6360  174.1870  142.6930 C   0  0  0  0  0  3  0  0  0  0  0  0
  189.5550  176.6840  145.1380 O   0  0  0  0  0  0  0  0  0  0  0  0
  188.6380  177.4740  144.4170 C   0  0  0  0  0  2  0  0  0  0  0  0
  186.3920  177.6750  147.4440 C   0  0  0  0  0  3  0  0  0  0  0  0
  184.1670  178.4660  147.7240 F   0  0  0  0  0  0  0  0  0  0  0  0
  185.1610  178.5530  145.5510 C   0  0  0  0  0  0  0  0  0  0  0  0
  183.9960  179.1100  145.0340 O   0  0  0  0  0  1  0  0  0  0  0  0
  186.2670  178.3140  144.7170 C   0  0  0  0  0  0  0  0  0  0  0  0
  185.2280  178.2340  146.9130 C   0  0  0  0  0  0  0  0  0  0  0  0
  187.4330  177.7340  145.2570 C   0  0  0  0  0  0  0  0  0  0  0  0
  187.4900  177.4280  146.6200 C   0  0  0  0  0  3  0  0  0  0  0  0
  185.6100  177.5780  142.5660 O   0  0  0  0  0  1  0  0  0  0  0  0
  186.1810  178.6450  143.2590 C   0  0  0  0  0  2  0  0  0  0  0  0
  2  1  1  6  0  0  0
  2  5  1  0  0  0  0
  2 16  1  0  0  0  0
  3  4  1  0  0  0  0
  4  7  2  0  0  0  0
  5  8  2  0  0  0  0
  6  9  1  0  0  0  0
  8  7  1  0  0  0  0
  9  3  2  0  0  0  0
  9  5  1  0  0  0  0
 10 13  1  0  0  0  0
 11  2  1  0  0  0  0
 11 12  1  0  0  0  0
 13 12  2  0  0  0  0
 14 15  1  0  0  0  0
 14 10  2  0  0  0  0
 15 11  2  0  0  0  0
 17 16  1  0  0  0  0
 17 24  1  0  0  0  0
 20 23  2  0  0  0  0
 21 20  1  0  0  0  0
 22 24  2  0  0  0  0
 22 20  1  0  0  0  0
 23 18  1  0  0  0  0
 23 19  1  0  0  0  0
 24 25  1  0  0  0  0
 25 18  2  0  0  0  0
 26 27  1  0  0  0  0
 27 22  1  0  0  0  0
M  END
>  <MODEL>
4

>  <REMARK>
 VINA RESULT:      -7.2      1.738      4.267
  Name = 
  6 active torsions:
  status: ('A' for Active; 'I' for Inactive)
    1  A    between atoms: O_2  and  C_6
    2  A    between atoms: O_2  and  C_15
    3  A    between atoms: C_6  and  C_17
    4  A    between atoms: C_9  and  C_15
    5  A    between atoms: C_14  and  C_19
    6  A    between atoms: C_15  and  C_18
                            x       y       z     vdW  Elec       q    Type
                         _______ _______ _______ _____ _____    ______ ____

>  <TORSDO>
F 6

$$$$
=
 OpenBabel11052418273D

 27 29  0  0  1  0  0  0  0  0999 V2000
  190.3350  177.3740  142.7970 C   0  0  0  0  0  1  0  0  0  0  0  0
  190.0010  176.1340  143.6460 C   0  0  2  0  0  0  0  0  0  0  0  0
  192.1140  174.9190  146.6170 C   0  0  0  0  0  3  0  0  0  0  0  0
  193.2420  175.7330  146.5130 C   0  0  0  0  0  3  0  0  0  0  0  0
  191.1550  175.9690  144.6330 C   0  0  0  0  0  0  0  0  0  0  0  0
  189.9770  174.2480  145.8470 F   0  0  0  0  0  0  0  0  0  0  0  0
  193.3290  176.6760  145.4890 C   0  0  0  0  0  3  0  0  0  0  0  0
  192.2920  176.7970  144.5630 C   0  0  0  0  0  3  0  0  0  0  0  0
  191.0710  175.0360  145.6920 C   0  0  0  0  0  0  0  0  0  0  0  0
  189.5750  172.5220  141.2730 C   0  0  0  0  0  3  0  0  0  0  0  0
  189.8570  174.8840  142.7740 C   0  0  0  0  0  0  0  0  0  0  0  0
  188.6230  174.2130  142.7180 C   0  0  0  0  0  3  0  0  0  0  0  0
  188.4820  173.0430  141.9670 C   0  0  0  0  0  3  0  0  0  0  0  0
  190.8130  173.1680  141.3320 C   0  0  0  0  0  3  0  0  0  0  0  0
  190.9540  174.3380  142.0840 C   0  0  0  0  0  3  0  0  0  0  0  0
  188.8120  176.3480  144.3970 O   0  0  0  0  0  0  0  0  0  0  0  0
  188.6270  177.7220  144.6520 C   0  0  0  0  0  2  0  0  0  0  0  0
  185.4300  178.6210  142.8580 C   0  0  0  0  0  3  0  0  0  0  0  0
  183.2280  179.0410  143.6490 F   0  0  0  0  0  0  0  0  0  0  0  0
  184.9400  178.5030  145.2280 C   0  0  0  0  0  0  0  0  0  0  0  0
  184.0220  178.6100  146.2680 O   0  0  0  0  0  1  0  0  0  0  0  0
  186.2800  178.1710  145.4920 C   0  0  0  0  0  0  0  0  0  0  0  0
  184.5190  178.7250  143.9110 C   0  0  0  0  0  0  0  0  0  0  0  0
  187.1980  178.0840  144.4250 C   0  0  0  0  0  0  0  0  0  0  0  0
  186.7640  178.3000  143.1140 C   0  0  0  0  0  3  0  0  0  0  0  0
  186.5550  176.6090  147.2480 O   0  0  0  0  0  1  0  0  0  0  0  0
  186.7240  177.9500  146.9050 C   0  0  0  0  0  2  0  0  0  0  0  0
  2  1  1  6  0  0  0
  2 16  1  0  0  0  0
  2  5  1  0  0  0  0
  4  3  1  0  0  0  0
  5  9  1  0  0  0  0
  7  4  2  0  0  0  0
  8  5  2  0  0  0  0
  8  7  1  0  0  0  0
  9  6  1  0  0  0  0
  9  3  2  0  0  0  0
 10 14  2  0  0  0  0
 10 13  1  0  0  0  0
 11  2  1  0  0  0  0
 12 11  1  0  0  0  0
 13 12  2  0  0  0  0
 14 15  1  0  0  0  0
 15 11  2  0  0  0  0
 16 17  1  0  0  0  0
 18 25  2  0  0  0  0
 18 23  1  0  0  0  0
 19 23  1  0  0  0  0
 20 22  1  0  0  0  0
 20 21  1  0  0  0  0
 22 27  1  0  0  0  0
 23 20  2  0  0  0  0
 24 17  1  0  0  0  0
 24 22  2  0  0  0  0
 25 24  1  0  0  0  0
 27 26  1  0  0  0  0
M  END
>  <MODEL>
5

>  <REMARK>
 VINA RESULT:      -7.1      1.534      3.911
  Name = 
  6 active torsions:
  status: ('A' for Active; 'I' for Inactive)
    1  A    between atoms: O_2  and  C_6
    2  A    between atoms: O_2  and  C_15
    3  A    between atoms: C_6  and  C_17
    4  A    between atoms: C_9  and  C_15
    5  A    between atoms: C_14  and  C_19
    6  A    between atoms: C_15  and  C_18
                            x       y       z     vdW  Elec       q    Type
                         _______ _______ _______ _____ _____    ______ ____

>  <TORSDO>
F 6

$$$$
=
 OpenBabel11052418273D

 27 29  0  0  1  0  0  0  0  0999 V2000
  189.8810  175.6790  147.0880 C   0  0  0  0  0  1  0  0  0  0  0  0
  189.4840  175.9810  145.6310 C   0  0  2  0  0  0  0  0  0  0  0  0
  186.5310  178.3050  144.8300 C   0  0  0  0  0  3  0  0  0  0  0  0
  185.6460  178.0070  145.8670 C   0  0  0  0  0  3  0  0  0  0  0  0
  188.1220  176.6670  145.6940 C   0  0  0  0  0  0  0  0  0  0  0  0
  188.6090  177.9930  143.7370 F   0  0  0  0  0  0  0  0  0  0  0  0
  185.9950  177.0570  146.8280 C   0  0  0  0  0  3  0  0  0  0  0  0
  187.2240  176.4010  146.7460 C   0  0  0  0  0  3  0  0  0  0  0  0
  187.7630  177.6500  144.7430 C   0  0  0  0  0  0  0  0  0  0  0  0
  189.3720  172.3340  143.2760 C   0  0  0  0  0  3  0  0  0  0  0  0
  189.4020  174.6980  144.7990 C   0  0  0  0  0  0  0  0  0  0  0  0
  189.7670  173.4700  145.3760 C   0  0  0  0  0  3  0  0  0  0  0  0
  189.7460  172.2940  144.6210 C   0  0  0  0  0  3  0  0  0  0  0  0
  189.0230  173.5500  142.6830 C   0  0  0  0  0  3  0  0  0  0  0  0
  189.0440  174.7260  143.4380 C   0  0  0  0  0  3  0  0  0  0  0  0
  190.4040  176.8900  145.0400 O   0  0  0  0  0  0  0  0  0  0  0  0
  191.6700  176.7820  145.6510 C   0  0  0  0  0  2  0  0  0  0  0  0
  193.2480  176.1590  142.2780 C   0  0  0  0  0  3  0  0  0  0  0  0
  195.4680  175.5970  141.6420 F   0  0  0  0  0  0  0  0  0  0  0  0
  194.9690  175.8860  143.9620 C   0  0  0  0  0  0  0  0  0  0  0  0
  196.2910  175.6030  144.2880 O   0  0  0  0  0  1  0  0  0  0  0  0
  194.0350  176.1810  144.9700 C   0  0  0  0  0  0  0  0  0  0  0  0
  194.5720  175.8770  142.6190 C   0  0  0  0  0  0  0  0  0  0  0  0
  192.6960  176.4490  144.6190 C   0  0  0  0  0  0  0  0  0  0  0  0
  192.3140  176.4450  143.2750 C   0  0  0  0  0  3  0  0  0  0  0  0
  194.6340  177.4840  146.8530 O   0  0  0  0  0  1  0  0  0  0  0  0
  194.4650  176.1740  146.4050 C   0  0  0  0  0  2  0  0  0  0  0  0
  2  5  1  0  0  0  0
  2  1  1  1  0  0  0
  3  4  1  0  0  0  0
  4  7  2  0  0  0  0
  5  8  2  0  0  0  0
  6  9  1  0  0  0  0
  8  7  1  0  0  0  0
  9  3  2  0  0  0  0
  9  5  1  0  0  0  0
 10 13  1  0  0  0  0
 11 12  1  0  0  0  0
 11  2  1  0  0  0  0
 13 12  2  0  0  0  0
 14 10  2  0  0  0  0
 14 15  1  0  0  0  0
 15 11  2  0  0  0  0
 16  2  1  0  0  0  0
 16 17  1  0  0  0  0
 18 23  2  0  0  0  0
 18 25  1  0  0  0  0
 19 23  1  0  0  0  0
 20 21  1  0  0  0  0
 20 22  2  0  0  0  0
 22 27  1  0  0  0  0
 23 20  1  0  0  0  0
 24 22  1  0  0  0  0
 24 17  1  0  0  0  0
 25 24  2  0  0  0  0
 27 26  1  0  0  0  0
M  END
>  <MODEL>
6

>  <REMARK>
 VINA RESULT:      -7.0      2.485      6.825
  Name = 
  6 active torsions:
  status: ('A' for Active; 'I' for Inactive)
    1  A    between atoms: O_2  and  C_6
    2  A    between atoms: O_2  and  C_15
    3  A    between atoms: C_6  and  C_17
    4  A    between atoms: C_9  and  C_15
    5  A    between atoms: C_14  and  C_19
    6  A    between atoms: C_15  and  C_18
                            x       y       z     vdW  Elec       q    Type
                         _______ _______ _______ _____ _____    ______ ____

>  <TORSDO>
F 6

$$$$
=
 OpenBabel11052418273D

 27 29  0  0  1  0  0  0  0  0999 V2000
  189.2430  177.8350  147.2710 C   0  0  0  0  0  1  0  0  0  0  0  0
  188.3810  177.0410  146.2740 C   0  0  2  0  0  0  0  0  0  0  0  0
  189.1640  176.6940  142.5280 C   0  0  0  0  0  3  0  0  0  0  0  0
  190.2620  177.5420  142.3880 C   0  0  0  0  0  3  0  0  0  0  0  0
  189.0200  177.2440  144.9020 C   0  0  0  0  0  0  0  0  0  0  0  0
  187.5020  175.6750  143.8730 F   0  0  0  0  0  0  0  0  0  0  0  0
  190.7560  178.2300  143.4970 C   0  0  0  0  0  3  0  0  0  0  0  0
  190.1450  178.0750  144.7420 C   0  0  0  0  0  3  0  0  0  0  0  0
  188.5470  176.5350  143.7730 C   0  0  0  0  0  0  0  0  0  0  0  0
  184.2420  178.3530  146.1960 C   0  0  0  0  0  3  0  0  0  0  0  0
  186.9320  177.5370  146.2710 C   0  0  0  0  0  0  0  0  0  0  0  0
  185.9360  176.7800  146.9110 C   0  0  0  0  0  3  0  0  0  0  0  0
  184.6000  177.1890  146.8790 C   0  0  0  0  0  3  0  0  0  0  0  0
  185.2180  179.1070  145.5390 C   0  0  0  0  0  3  0  0  0  0  0  0
  186.5540  178.6980  145.5710 C   0  0  0  0  0  3  0  0  0  0  0  0
  188.4220  175.6520  146.5730 O   0  0  0  0  0  0  0  0  0  0  0  0
  189.7020  175.2810  147.0330 C   0  0  0  0  0  2  0  0  0  0  0  0
  190.2720  172.5110  144.5320 C   0  0  0  0  0  3  0  0  0  0  0  0
  192.1080  172.0100  143.1070 F   0  0  0  0  0  0  0  0  0  0  0  0
  192.2440  173.9190  144.5390 C   0  0  0  0  0  0  0  0  0  0  0  0
  193.5160  174.2010  144.0510 O   0  0  0  0  0  1  0  0  0  0  0  0
  191.6570  174.7430  145.5150 C   0  0  0  0  0  0  0  0  0  0  0  0
  191.5490  172.8060  144.0500 C   0  0  0  0  0  0  0  0  0  0  0  0
  190.3740  174.4290  146.0080 C   0  0  0  0  0  0  0  0  0  0  0  0
  189.6870  173.3210  145.5060 C   0  0  0  0  0  3  0  0  0  0  0  0
  193.4320  175.4880  146.8920 O   0  0  0  0  0  1  0  0  0  0  0  0
  192.4140  175.9230  146.0420 C   0  0  0  0  0  2  0  0  0  0  0  0
  2 16  1  0  0  0  0
  2  1  1  1  0  0  0
  3  9  1  0  0  0  0
  4  3  2  0  0  0  0
  4  7  1  0  0  0  0
  5  2  1  0  0  0  0
  7  8  2  0  0  0  0
  8  5  1  0  0  0  0
  9  6  1  0  0  0  0
  9  5  2  0  0  0  0
 10 13  1  0  0  0  0
 11  2  1  0  0  0  0
 11 12  1  0  0  0  0
 13 12  2  0  0  0  0
 14 15  1  0  0  0  0
 14 10  2  0  0  0  0
 15 11  2  0  0  0  0
 16 17  1  0  0  0  0
 18 25  1  0  0  0  0
 19 23  1  0  0  0  0
 20 22  2  0  0  0  0
 21 20  1  0  0  0  0
 22 24  1  0  0  0  0
 22 27  1  0  0  0  0
 23 18  2  0  0  0  0
 23 20  1  0  0  0  0
 24 17  1  0  0  0  0
 25 24  2  0  0  0  0
 27 26  1  0  0  0  0
M  END
>  <MODEL>
7

>  <REMARK>
 VINA RESULT:      -7.0      2.240      6.558
  Name = 
  6 active torsions:
  status: ('A' for Active; 'I' for Inactive)
    1  A    between atoms: O_2  and  C_6
    2  A    between atoms: O_2  and  C_15
    3  A    between atoms: C_6  and  C_17
    4  A    between atoms: C_9  and  C_15
    5  A    between atoms: C_14  and  C_19
    6  A    between atoms: C_15  and  C_18
                            x       y       z     vdW  Elec       q    Type
                         _______ _______ _______ _____ _____    ______ ____

>  <TORSDO>
F 6

$$$$
=
 OpenBabel11052418273D

 27 29  0  0  1  0  0  0  0  0999 V2000
  189.5360  177.8910  143.2840 C   0  0  0  0  0  1  0  0  0  0  0  0
  188.5670  176.9620  144.0390 C   0  0  2  0  0  0  0  0  0  0  0  0
  185.5180  179.2620  143.6190 C   0  0  0  0  0  3  0  0  0  0  0  0
  185.1050  179.4290  144.9410 C   0  0  0  0  0  3  0  0  0  0  0  0
  187.3310  177.8010  144.3520 C   0  0  0  0  0  0  0  0  0  0  0  0
  187.0150  178.3530  142.0250 F   0  0  0  0  0  0  0  0  0  0  0  0
  185.8050  178.8030  145.9730 C   0  0  0  0  0  3  0  0  0  0  0  0
  186.9110  178.0040  145.6820 C   0  0  0  0  0  3  0  0  0  0  0  0
  186.6260  178.4620  143.3210 C   0  0  0  0  0  0  0  0  0  0  0  0
  190.4580  175.4340  147.6380 C   0  0  0  0  0  3  0  0  0  0  0  0
  189.1970  176.4290  145.3290 C   0  0  0  0  0  0  0  0  0  0  0  0
  190.2310  177.1520  145.9480 C   0  0  0  0  0  3  0  0  0  0  0  0
  190.8530  176.6600  147.0990 C   0  0  0  0  0  3  0  0  0  0  0  0
  189.4430  174.6960  147.0230 C   0  0  0  0  0  3  0  0  0  0  0  0
  188.8210  175.1870  145.8720 C   0  0  0  0  0  3  0  0  0  0  0  0
  188.1630  175.8810  143.2090 O   0  0  0  0  0  0  0  0  0  0  0  0
  189.1220  175.6410  142.2040 C   0  0  0  0  0  2  0  0  0  0  0  0
  189.4480  171.9180  142.7380 C   0  0  0  0  0  3  0  0  0  0  0  0
  191.3460  170.5030  142.9490 F   0  0  0  0  0  0  0  0  0  0  0  0
  191.6820  172.8470  142.6200 C   0  0  0  0  0  0  0  0  0  0  0  0
  193.0600  172.6600  142.6550 O   0  0  0  0  0  1  0  0  0  0  0  0
  191.1430  174.1310  142.4310 C   0  0  0  0  0  0  0  0  0  0  0  0
  190.8320  171.7440  142.7710 C   0  0  0  0  0  0  0  0  0  0  0  0
  189.7430  174.3010  142.4150 C   0  0  0  0  0  0  0  0  0  0  0  0
  188.9050  173.1920  142.5590 C   0  0  0  0  0  3  0  0  0  0  0  0
  192.4090  175.7920  143.5450 O   0  0  0  0  0  1  0  0  0  0  0  0
  192.0590  175.3070  142.2840 C   0  0  0  0  0  2  0  0  0  0  0  0
  2  1  1  6  0  0  0
  2  5  1  0  0  0  0
  2 11  1  0  0  0  0
  3  4  1  0  0  0  0
  4  7  2  0  0  0  0
  5  8  2  0  0  0  0
  6  9  1  0  0  0  0
  8  7  1  0  0  0  0
  9  3  2  0  0  0  0
  9  5  1  0  0  0  0
 11 15  2  0  0  0  0
 11 12  1  0  0  0  0
 12 13  2  0  0  0  0
 13 10  1  0  0  0  0
 14 10  2  0  0  0  0
 15 14  1  0  0  0  0
 16  2  1  0  0  0  0
 17 24  1  0  0  0  0
 17 16  1  0  0  0  0
 18 23  1  0  0  0  0
 20 21  1  0  0  0  0
 20 23  2  0  0  0  0
 22 20  1  0  0  0  0
 23 19  1  0  0  0  0
 24 22  2  0  0  0  0
 24 25  1  0  0  0  0
 25 18  2  0  0  0  0
 27 22  1  0  0  0  0
 27 26  1  0  0  0  0
M  END
>  <MODEL>
8

>  <REMARK>
 VINA RESULT:      -6.9      2.592      6.412
  Name = 
  6 active torsions:
  status: ('A' for Active; 'I' for Inactive)
    1  A    between atoms: O_2  and  C_6
    2  A    between atoms: O_2  and  C_15
    3  A    between atoms: C_6  and  C_17
    4  A    between atoms: C_9  and  C_15
    5  A    between atoms: C_14  and  C_19
    6  A    between atoms: C_15  and  C_18
                            x       y       z     vdW  Elec       q    Type
                         _______ _______ _______ _____ _____    ______ ____

>  <TORSDO>
F 6

$$$$
=
 OpenBabel11052418273D

 27 29  0  0  1  0  0  0  0  0999 V2000
  187.9900  178.6660  143.2530 C   0  0  0  0  0  1  0  0  0  0  0  0
  186.8920  177.6360  143.5770 C   0  0  2  0  0  0  0  0  0  0  0  0
  185.1920  177.9160  140.1420 C   0  0  0  0  0  3  0  0  0  0  0  0
  183.8720  178.1920  140.5010 C   0  0  0  0  0  3  0  0  0  0  0  0
  185.8250  177.7970  142.4970 C   0  0  0  0  0  0  0  0  0  0  0  0
  187.4460  177.4930  140.7350 F   0  0  0  0  0  0  0  0  0  0  0  0
  183.5230  178.2890  141.8490 C   0  0  0  0  0  3  0  0  0  0  0  0
  184.4920  178.1010  142.8350 C   0  0  0  0  0  3  0  0  0  0  0  0
  186.1670  177.7270  141.1270 C   0  0  0  0  0  0  0  0  0  0  0  0
  185.0850  178.2920  147.4710 C   0  0  0  0  0  3  0  0  0  0  0  0
  186.2930  177.8790  144.9650 C   0  0  0  0  0  0  0  0  0  0  0  0
  185.7760  176.7970  145.6980 C   0  0  0  0  0  3  0  0  0  0  0  0
  185.1820  177.0020  146.9460 C   0  0  0  0  0  3  0  0  0  0  0  0
  185.5780  179.3800  146.7460 C   0  0  0  0  0  3  0  0  0  0  0  0
  186.1730  179.1750  145.4980 C   0  0  0  0  0  3  0  0  0  0  0  0
  187.4060  176.3130  143.4890 O   0  0  0  0  0  0  0  0  0  0  0  0
  188.8100  176.3340  143.3670 C   0  0  0  0  0  2  0  0  0  0  0  0
  189.3250  174.8270  146.7900 C   0  0  0  0  0  3  0  0  0  0  0  0
  191.0820  175.0480  148.3760 F   0  0  0  0  0  0  0  0  0  0  0  0
  191.2320  176.2420  146.3100 C   0  0  0  0  0  0  0  0  0  0  0  0
  192.4560  176.7760  146.7010 O   0  0  0  0  0  1  0  0  0  0  0  0
  190.6800  176.5680  145.0590 C   0  0  0  0  0  0  0  0  0  0  0  0
  190.5530  175.3700  147.1700 C   0  0  0  0  0  0  0  0  0  0  0  0
  189.4320  176.0290  144.6890 C   0  0  0  0  0  0  0  0  0  0  0  0
  188.7670  175.1540  145.5530 C   0  0  0  0  0  3  0  0  0  0  0  0
  192.3310  176.8080  143.3800 O   0  0  0  0  0  1  0  0  0  0  0  0
  191.4070  177.5120  144.1510 C   0  0  0  0  0  2  0  0  0  0  0  0
  2  1  1  6  0  0  0
  2 11  1  0  0  0  0
  3  4  2  0  0  0  0
  3  9  1  0  0  0  0
  4  7  1  0  0  0  0
  5  8  1  0  0  0  0
  5  2  1  0  0  0  0
  6  9  1  0  0  0  0
  7  8  2  0  0  0  0
  9  5  2  0  0  0  0
 11 15  2  0  0  0  0
 11 12  1  0  0  0  0
 12 13  2  0  0  0  0
 13 10  1  0  0  0  0
 14 10  2  0  0  0  0
 15 14  1  0  0  0  0
 16  2  1  0  0  0  0
 17 16  1  0  0  0  0
 17 24  1  0  0  0  0
 18 23  1  0  0  0  0
 20 21  1  0  0  0  0
 20 23  2  0  0  0  0
 22 20  1  0  0  0  0
 23 19  1  0  0  0  0
 24 22  2  0  0  0  0
 24 25  1  0  0  0  0
 25 18  2  0  0  0  0
 26 27  1  0  0  0  0
 27 22  1  0  0  0  0
M  END
>  <MODEL>
9

>  <REMARK>
 VINA RESULT:      -6.9      2.634      6.717
  Name = 
  6 active torsions:
  status: ('A' for Active; 'I' for Inactive)
    1  A    between atoms: O_2  and  C_6
    2  A    between atoms: O_2  and  C_15
    3  A    between atoms: C_6  and  C_17
    4  A    between atoms: C_9  and  C_15
    5  A    between atoms: C_14  and  C_19
    6  A    between atoms: C_15  and  C_18
                            x       y       z     vdW  Elec       q    Type
                         _______ _______ _______ _____ _____    ______ ____

>  <TORSDO>
F 6

$$$$
