=
 OpenBabel11052417243D

 25 28  0  0  1  0  0  0  0  0999 V2000
  185.9010  177.5570  143.8630 C   0  0  0  0  0  0  0  0  0  0  0  0
  186.7300  176.9240  142.9160 C   0  0  0  0  0  0  0  0  0  0  0  0
  184.4930  178.4090  142.0850 C   0  0  0  0  0  3  0  0  0  0  0  0
  186.0200  177.5720  145.2660 C   0  0  0  0  0  0  0  0  0  0  0  0
  189.5780  174.5690  142.5080 C   0  0  0  0  0  0  0  0  0  0  0  0
  185.9210  177.8270  148.0490 C   0  0  0  0  0  3  0  0  0  0  0  0
  185.2990  177.7960  141.1760 N   0  0  0  0  0  0  0  0  0  0  0  0
  185.0100  178.3080  145.8840 C   0  0  0  0  0  0  0  0  0  0  0  0
  184.9380  178.4510  147.2680 C   0  0  0  0  0  3  0  0  0  0  0  0
  187.2150  176.4120  140.5020 C   0  0  0  0  0  0  0  0  0  0  0  0
  186.8410  176.6390  138.8030 Cl  0  0  0  0  0  0  0  0  0  0  0  0
  190.5580  173.7570  142.7930 C   0  0  0  0  0  3  0  0  0  0  0  0
  187.9670  176.1700  143.3400 C   0  0  0  0  0  2  0  0  0  0  0  0
  186.9470  177.0790  147.4420 C   0  0  0  0  0  3  0  0  0  0  0  0
  184.7980  178.2860  143.4320 C   0  0  0  0  0  0  0  0  0  0  0  0
  183.9600  178.9510  144.7350 S   0  0  0  0  0  0  0  0  0  0  0  0
  188.2330  175.6180  140.8280 C   0  0  0  0  0  3  0  0  0  0  0  0
  187.0010  176.9480  146.0450 C   0  0  0  0  0  3  0  0  0  0  0  0
  188.5980  175.3820  142.2300 C   0  0  0  0  0  0  0  0  0  0  0  0
  186.3960  177.0660  141.5440 C   0  0  0  0  0  0  0  0  0  0  0  0
  190.6250  173.0710  144.1180 C   0  0  2  0  0  3  0  0  0  0  0  0
  189.4890  172.0720  144.2730 C   0  0  0  0  0  1  0  0  0  0  0  0
  190.5910  174.0720  145.2260 C   0  0  0  0  0  0  0  0  0  0  0  0
  189.4610  174.1720  146.0260 O   0  0  0  0  0  1  0  0  0  0  0  0
  191.5780  174.8250  145.4440 O   0  0  0  0  0  0  0  0  0  0  0  0
  1  4  1  0  0  0  0
  2 13  1  0  0  0  0
  2  1  1  0  0  0  0
  3 15  1  0  0  0  0
  4  8  2  0  0  0  0
  4 18  1  0  0  0  0
  5 12  2  0  0  0  0
  7 20  1  0  0  0  0
  7  3  2  0  0  0  0
  8  9  1  0  0  0  0
  9  6  2  0  0  0  0
 10 17  2  0  0  0  0
 10 20  1  0  0  0  0
 11 10  1  0  0  0  0
 12 21  1  0  0  0  0
 14  6  1  0  0  0  0
 15  1  2  0  0  0  0
 15 16  1  0  0  0  0
 16  8  1  0  0  0  0
 17 19  1  0  0  0  0
 18 14  2  0  0  0  0
 19  5  2  0  0  0  0
 19 13  1  0  0  0  0
 20  2  2  0  0  0  0
 21 22  1  1  0  0  0
 21 23  1  0  0  0  0
 23 25  2  0  0  0  0
 23 24  1  0  0  0  0
M  END
>  <MODEL>
1

>  <REMARK>
 VINA RESULT:      -7.5      0.000      0.000
  Name = 
  2 active torsions:
  status: ('A' for Active; 'I' for Inactive)
    1  A    between atoms: C_2  and  C_21
    2  A    between atoms: C_15  and  C_21
                            x       y       z     vdW  Elec       q    Type
                         _______ _______ _______ _____ _____    ______ ____

>  <TORSDO>
F 2

$$$$
=
 OpenBabel11052417243D

 25 28  0  0  1  0  0  0  0  0999 V2000
  186.4730  177.7830  143.7090 C   0  0  0  0  0  0  0  0  0  0  0  0
  185.8040  177.7620  142.4690 C   0  0  0  0  0  0  0  0  0  0  0  0
  188.5890  177.4010  142.5910 C   0  0  0  0  0  3  0  0  0  0  0  0
  185.9340  177.9660  144.9970 C   0  0  0  0  0  0  0  0  0  0  0  0
  182.5320  178.3580  140.8070 C   0  0  0  0  0  0  0  0  0  0  0  0
  185.2450  178.2950  147.6860 C   0  0  0  0  0  3  0  0  0  0  0  0
  187.9350  177.3800  141.3980 N   0  0  0  0  0  0  0  0  0  0  0  0
  186.9050  177.9250  145.9970 C   0  0  0  0  0  0  0  0  0  0  0  0
  186.5890  178.0860  147.3430 C   0  0  0  0  0  3  0  0  0  0  0  0
  185.9420  177.5370  139.9680 C   0  0  0  0  0  0  0  0  0  0  0  0
  186.8910  177.2150  138.5280 Cl  0  0  0  0  0  0  0  0  0  0  0  0
  181.2710  178.6420  140.6310 C   0  0  0  0  0  3  0  0  0  0  0  0
  184.3030  177.8980  142.3890 C   0  0  0  0  0  2  0  0  0  0  0  0
  184.2530  178.3400  146.6900 C   0  0  0  0  0  3  0  0  0  0  0  0
  187.8520  177.6040  143.7480 C   0  0  0  0  0  0  0  0  0  0  0  0
  188.4300  177.6650  145.3310 S   0  0  0  0  0  0  0  0  0  0  0  0
  184.6430  177.7940  139.8280 C   0  0  0  0  0  3  0  0  0  0  0  0
  184.5940  178.1760  145.3370 C   0  0  0  0  0  3  0  0  0  0  0  0
  183.7910  178.0760  140.9900 C   0  0  0  0  0  0  0  0  0  0  0  0
  186.5810  177.5520  141.3000 C   0  0  0  0  0  0  0  0  0  0  0  0
  180.5150  179.4380  141.6440 C   0  0  2  0  0  3  0  0  0  0  0  0
  181.1210  179.2740  143.0290 C   0  0  0  0  0  1  0  0  0  0  0  0
  179.0770  179.0370  141.6550 C   0  0  0  0  0  0  0  0  0  0  0  0
  178.7240  177.7600  142.0670 O   0  0  0  0  0  1  0  0  0  0  0  0
  178.1800  179.8470  141.2960 O   0  0  0  0  0  0  0  0  0  0  0  0
  1 15  2  0  0  0  0
  1  4  1  0  0  0  0
  2  1  1  0  0  0  0
  3 15  1  0  0  0  0
  4 18  2  0  0  0  0
  4  8  1  0  0  0  0
  5 19  2  0  0  0  0
  7  3  2  0  0  0  0
  8  9  2  0  0  0  0
  9  6  1  0  0  0  0
 10 20  1  0  0  0  0
 11 10  1  0  0  0  0
 12  5  2  0  0  0  0
 12 21  1  0  0  0  0
 13  2  1  0  0  0  0
 14  6  2  0  0  0  0
 15 16  1  0  0  0  0
 16  8  1  0  0  0  0
 17 10  2  0  0  0  0
 17 19  1  0  0  0  0
 18 14  1  0  0  0  0
 19 13  1  0  0  0  0
 20  7  1  0  0  0  0
 20  2  2  0  0  0  0
 21 23  1  0  0  0  0
 21 22  1  1  0  0  0
 23 24  1  0  0  0  0
 25 23  2  0  0  0  0
M  END
>  <MODEL>
2

>  <REMARK>
 VINA RESULT:      -7.5      4.415      6.769
  Name = 
  2 active torsions:
  status: ('A' for Active; 'I' for Inactive)
    1  A    between atoms: C_2  and  C_21
    2  A    between atoms: C_15  and  C_21
                            x       y       z     vdW  Elec       q    Type
                         _______ _______ _______ _____ _____    ______ ____

>  <TORSDO>
F 2

$$$$
=
 OpenBabel11052417243D

 25 28  0  0  1  0  0  0  0  0999 V2000
  190.4920  175.7360  144.2270 C   0  0  0  0  0  0  0  0  0  0  0  0
  189.3410  175.7700  143.4140 C   0  0  0  0  0  0  0  0  0  0  0  0
  191.7300  174.6400  142.4550 C   0  0  0  0  0  3  0  0  0  0  0  0
  190.6540  176.2080  145.5430 C   0  0  0  0  0  0  0  0  0  0  0  0
  185.8760  177.0910  143.1620 C   0  0  0  0  0  0  0  0  0  0  0  0
  191.3580  177.0190  148.1250 C   0  0  0  0  0  3  0  0  0  0  0  0
  190.6140  174.6760  141.6770 N   0  0  0  0  0  0  0  0  0  0  0  0
  191.9430  176.0020  146.0340 C   0  0  0  0  0  0  0  0  0  0  0  0
  192.3190  176.3960  147.3160 C   0  0  0  0  0  3  0  0  0  0  0  0
  188.2690  175.2380  141.2030 C   0  0  0  0  0  0  0  0  0  0  0  0
  188.3640  174.4980  139.6150 Cl  0  0  0  0  0  0  0  0  0  0  0  0
  184.7630  177.7030  143.4630 C   0  0  0  0  0  3  0  0  0  0  0  0
  188.0350  176.3210  143.9320 C   0  0  0  0  0  2  0  0  0  0  0  0
  190.0530  177.2350  147.6450 C   0  0  0  0  0  3  0  0  0  0  0  0
  191.6650  175.1750  143.7330 C   0  0  0  0  0  0  0  0  0  0  0  0
  192.9020  175.2430  144.8770 S   0  0  0  0  0  0  0  0  0  0  0  0
  187.1350  175.8390  141.5560 C   0  0  0  0  0  3  0  0  0  0  0  0
  189.6950  176.8300  146.3490 C   0  0  0  0  0  3  0  0  0  0  0  0
  186.9890  176.4820  142.8680 C   0  0  0  0  0  0  0  0  0  0  0  0
  189.4350  175.2170  142.1110 C   0  0  0  0  0  0  0  0  0  0  0  0
  184.7390  178.7910  144.4860 C   0  0  2  0  0  3  0  0  0  0  0  0
  185.6590  179.9350  144.0880 C   0  0  0  0  0  1  0  0  0  0  0  0
  185.1240  178.2550  145.8260 C   0  0  0  0  0  0  0  0  0  0  0  0
  186.4020  178.4870  146.3140 O   0  0  0  0  0  0  0  0  0  0  0  0
  184.3010  177.5990  146.5180 O   0  0  0  0  0  1  0  0  0  0  0  0
  1  4  1  0  0  0  0
  2 13  1  0  0  0  0
  2  1  1  0  0  0  0
  3 15  1  0  0  0  0
  4  8  2  0  0  0  0
  4 18  1  0  0  0  0
  5 12  2  0  0  0  0
  7 20  1  0  0  0  0
  7  3  2  0  0  0  0
  8  9  1  0  0  0  0
  9  6  2  0  0  0  0
 10 17  2  0  0  0  0
 10 20  1  0  0  0  0
 11 10  1  0  0  0  0
 12 21  1  0  0  0  0
 14  6  1  0  0  0  0
 15  1  2  0  0  0  0
 15 16  1  0  0  0  0
 16  8  1  0  0  0  0
 17 19  1  0  0  0  0
 18 14  2  0  0  0  0
 19  5  2  0  0  0  0
 19 13  1  0  0  0  0
 20  2  2  0  0  0  0
 21 22  1  6  0  0  0
 21 23  1  0  0  0  0
 23 24  2  0  0  0  0
 23 25  1  0  0  0  0
M  END
>  <MODEL>
3

>  <REMARK>
 VINA RESULT:      -7.3      3.383      5.841
  Name = 
  2 active torsions:
  status: ('A' for Active; 'I' for Inactive)
    1  A    between atoms: C_2  and  C_21
    2  A    between atoms: C_15  and  C_21
                            x       y       z     vdW  Elec       q    Type
                         _______ _______ _______ _____ _____    ______ ____

>  <TORSDO>
F 2

$$$$
=
 OpenBabel11052417243D

 25 28  0  0  1  0  0  0  0  0999 V2000
  188.5800  175.6960  144.3940 C   0  0  0  0  0  0  0  0  0  0  0  0
  187.6010  176.6340  144.7760 C   0  0  0  0  0  0  0  0  0  0  0  0
  189.4530  175.6610  146.6550 C   0  0  0  0  0  3  0  0  0  0  0  0
  188.8040  175.1230  143.1270 C   0  0  0  0  0  0  0  0  0  0  0  0
  184.5520  178.4310  143.6400 C   0  0  0  0  0  0  0  0  0  0  0  0
  189.5480  173.7830  140.7890 C   0  0  0  0  0  3  0  0  0  0  0  0
  188.5050  176.5680  147.0160 N   0  0  0  0  0  0  0  0  0  0  0  0
  189.8720  174.2270  143.1230 C   0  0  0  0  0  0  0  0  0  0  0  0
  190.2630  173.5470  141.9720 C   0  0  0  0  0  3  0  0  0  0  0  0
  186.5760  178.0320  146.5980 C   0  0  0  0  0  0  0  0  0  0  0  0
  186.5980  178.6130  148.2540 Cl  0  0  0  0  0  0  0  0  0  0  0  0
  183.5740  178.8450  142.8820 C   0  0  0  0  0  3  0  0  0  0  0  0
  186.6350  177.2090  143.7700 C   0  0  0  0  0  2  0  0  0  0  0  0
  188.4660  174.6840  140.7770 C   0  0  0  0  0  3  0  0  0  0  0  0
  189.4870  175.2250  145.3390 C   0  0  0  0  0  0  0  0  0  0  0  0
  190.5600  174.1190  144.6550 S   0  0  0  0  0  0  0  0  0  0  0  0
  185.6120  178.4630  145.7870 C   0  0  0  0  0  3  0  0  0  0  0  0
  188.0890  175.3590  141.9490 C   0  0  0  0  0  3  0  0  0  0  0  0
  185.5320  178.0140  144.3910 C   0  0  0  0  0  0  0  0  0  0  0  0
  187.5890  177.0630  146.1290 C   0  0  0  0  0  0  0  0  0  0  0  0
  183.1310  178.0490  141.6980 C   0  0  2  0  0  3  0  0  0  0  0  0
  184.0460  178.2900  140.5070 C   0  0  0  0  0  1  0  0  0  0  0  0
  181.7190  178.3820  141.3450 C   0  0  0  0  0  0  0  0  0  0  0  0
  181.1840  177.9190  140.1510 O   0  0  0  0  0  0  0  0  0  0  0  0
  181.0070  179.0750  142.1210 O   0  0  0  0  0  1  0  0  0  0  0  0
  1  2  2  0  0  0  0
  1 15  1  0  0  0  0
  2 20  1  0  0  0  0
  3  7  1  0  0  0  0
  4  1  1  0  0  0  0
  5 19  2  0  0  0  0
  6  9  1  0  0  0  0
  8  4  1  0  0  0  0
  8 16  1  0  0  0  0
  9  8  2  0  0  0  0
 10 11  1  0  0  0  0
 12  5  2  0  0  0  0
 13 19  1  0  0  0  0
 13  2  1  0  0  0  0
 14  6  2  0  0  0  0
 14 18  1  0  0  0  0
 15  3  2  0  0  0  0
 16 15  1  0  0  0  0
 17 10  2  0  0  0  0
 18  4  2  0  0  0  0
 19 17  1  0  0  0  0
 20 10  1  0  0  0  0
 20  7  2  0  0  0  0
 21 22  1  6  0  0  0
 21 12  1  0  0  0  0
 23 21  1  0  0  0  0
 23 25  1  0  0  0  0
 24 23  2  0  0  0  0
M  END
>  <MODEL>
4

>  <REMARK>
 VINA RESULT:      -7.2      4.449      7.465
  Name = 
  2 active torsions:
  status: ('A' for Active; 'I' for Inactive)
    1  A    between atoms: C_2  and  C_21
    2  A    between atoms: C_15  and  C_21
                            x       y       z     vdW  Elec       q    Type
                         _______ _______ _______ _____ _____    ______ ____

>  <TORSDO>
F 2

$$$$
=
 OpenBabel11052417243D

 25 28  0  0  1  0  0  0  0  0999 V2000
  185.7820  177.5460  143.0610 C   0  0  0  0  0  0  0  0  0  0  0  0
  186.0630  177.3410  144.4260 C   0  0  0  0  0  0  0  0  0  0  0  0
  183.9650  179.0410  143.6450 C   0  0  0  0  0  3  0  0  0  0  0  0
  186.4250  176.9950  141.9370 C   0  0  0  0  0  0  0  0  0  0  0  0
  188.4760  175.8040  146.8010 C   0  0  0  0  0  0  0  0  0  0  0  0
  187.4410  176.1160  139.4850 C   0  0  0  0  0  3  0  0  0  0  0  0
  184.2430  178.8360  144.9610 N   0  0  0  0  0  0  0  0  0  0  0  0
  185.8690  177.4270  140.7330 C   0  0  0  0  0  0  0  0  0  0  0  0
  186.3560  177.0040  139.4980 C   0  0  0  0  0  3  0  0  0  0  0  0
  185.5110  177.8570  146.8250 C   0  0  0  0  0  0  0  0  0  0  0  0
  184.4750  178.6400  148.0040 Cl  0  0  0  0  0  0  0  0  0  0  0  0
  189.5010  175.1420  147.2630 C   0  0  0  0  0  3  0  0  0  0  0  0
  187.1490  176.3880  144.8650 C   0  0  0  0  0  2  0  0  0  0  0  0
  188.0150  175.6710  140.6900 C   0  0  0  0  0  3  0  0  0  0  0  0
  184.7400  178.3930  142.6950 C   0  0  0  0  0  0  0  0  0  0  0  0
  184.5890  178.4820  141.0180 S   0  0  0  0  0  0  0  0  0  0  0  0
  186.5450  177.1420  147.2640 C   0  0  0  0  0  3  0  0  0  0  0  0
  187.5080  176.1100  141.9240 C   0  0  0  0  0  3  0  0  0  0  0  0
  187.4550  176.4640  146.3320 C   0  0  0  0  0  0  0  0  0  0  0  0
  185.2560  178.0160  145.3780 C   0  0  0  0  0  0  0  0  0  0  0  0
  190.7100  174.9100  146.4170 C   0  0  2  0  0  3  0  0  0  0  0  0
  191.4840  176.2020  146.2070 C   0  0  0  0  0  1  0  0  0  0  0  0
  190.3210  174.3180  145.1020 C   0  0  0  0  0  0  0  0  0  0  0  0
  190.3860  175.0960  143.9550 O   0  0  0  0  0  0  0  0  0  0  0  0
  189.9380  173.1200  145.0240 O   0  0  0  0  0  1  0  0  0  0  0  0
  1  2  2  0  0  0  0
  2 13  1  0  0  0  0
  2 20  1  0  0  0  0
  3  7  1  0  0  0  0
  4  1  1  0  0  0  0
  5 12  2  0  0  0  0
  6  9  2  0  0  0  0
  6 14  1  0  0  0  0
  7 20  2  0  0  0  0
  8 16  1  0  0  0  0
  8  4  2  0  0  0  0
  9  8  1  0  0  0  0
 10 17  2  0  0  0  0
 10 11  1  0  0  0  0
 13 19  1  0  0  0  0
 14 18  2  0  0  0  0
 15  1  1  0  0  0  0
 15  3  2  0  0  0  0
 16 15  1  0  0  0  0
 18  4  1  0  0  0  0
 19  5  2  0  0  0  0
 19 17  1  0  0  0  0
 20 10  1  0  0  0  0
 21 22  1  6  0  0  0
 21 12  1  0  0  0  0
 23 21  1  0  0  0  0
 24 23  2  0  0  0  0
 25 23  1  0  0  0  0
M  END
>  <MODEL>
5

>  <REMARK>
 VINA RESULT:      -7.2      2.571      4.908
  Name = 
  2 active torsions:
  status: ('A' for Active; 'I' for Inactive)
    1  A    between atoms: C_2  and  C_21
    2  A    between atoms: C_15  and  C_21
                            x       y       z     vdW  Elec       q    Type
                         _______ _______ _______ _____ _____    ______ ____

>  <TORSDO>
F 2

$$$$
=
 OpenBabel11052417243D

 25 28  0  0  1  0  0  0  0  0999 V2000
  185.7910  177.9620  143.4810 C   0  0  0  0  0  0  0  0  0  0  0  0
  186.6170  177.7900  144.6090 C   0  0  0  0  0  0  0  0  0  0  0  0
  184.0080  178.7980  144.8950 C   0  0  0  0  0  3  0  0  0  0  0  0
  186.0770  177.6880  142.1300 C   0  0  0  0  0  0  0  0  0  0  0  0
  190.0700  176.9600  145.7090 C   0  0  0  0  0  0  0  0  0  0  0  0
  186.2730  177.2790  139.3710 C   0  0  0  0  0  3  0  0  0  0  0  0
  184.8120  178.6270  145.9790 N   0  0  0  0  0  0  0  0  0  0  0  0
  185.0100  177.9840  141.2830 C   0  0  0  0  0  0  0  0  0  0  0  0
  185.0810  177.7890  139.9060 C   0  0  0  0  0  3  0  0  0  0  0  0
  186.9080  177.9990  147.0980 C   0  0  0  0  0  0  0  0  0  0  0  0
  186.2330  178.3700  148.6750 Cl  0  0  0  0  0  0  0  0  0  0  0  0
  191.3300  176.6240  145.6710 C   0  0  0  0  0  3  0  0  0  0  0  0
  188.0000  177.1980  144.4820 C   0  0  0  0  0  2  0  0  0  0  0  0
  187.3600  176.9760  140.2120 C   0  0  0  0  0  3  0  0  0  0  0  0
  184.5030  178.4640  143.6430 C   0  0  0  0  0  0  0  0  0  0  0  0
  183.7040  178.5810  142.1630 S   0  0  0  0  0  0  0  0  0  0  0  0
  188.1820  177.6170  147.0270 C   0  0  0  0  0  3  0  0  0  0  0  0
  187.2670  177.1800  141.5980 C   0  0  0  0  0  3  0  0  0  0  0  0
  188.8110  177.2950  145.7400 C   0  0  0  0  0  0  0  0  0  0  0  0
  186.0860  178.1390  145.8780 C   0  0  0  0  0  0  0  0  0  0  0  0
  192.1380  176.8150  144.4290 C   0  0  2  0  0  3  0  0  0  0  0  0
  191.6810  175.8670  143.3310 C   0  0  0  0  0  1  0  0  0  0  0  0
  193.5900  176.6170  144.7160 C   0  0  0  0  0  0  0  0  0  0  0  0
  194.0590  176.7680  146.0140 O   0  0  0  0  0  1  0  0  0  0  0  0
  194.3920  176.3110  143.7940 O   0  0  0  0  0  0  0  0  0  0  0  0
  1 15  1  0  0  0  0
  1  2  2  0  0  0  0
  2 20  1  0  0  0  0
  3  7  1  0  0  0  0
  4  1  1  0  0  0  0
  5 19  2  0  0  0  0
  6  9  2  0  0  0  0
  6 14  1  0  0  0  0
  8  4  2  0  0  0  0
  8 16  1  0  0  0  0
  9  8  1  0  0  0  0
 10 11  1  0  0  0  0
 12  5  2  0  0  0  0
 13  2  1  0  0  0  0
 13 19  1  0  0  0  0
 14 18  2  0  0  0  0
 15  3  2  0  0  0  0
 16 15  1  0  0  0  0
 17 10  2  0  0  0  0
 18  4  1  0  0  0  0
 19 17  1  0  0  0  0
 20  7  2  0  0  0  0
 20 10  1  0  0  0  0
 21 22  1  6  0  0  0
 21 23  1  0  0  0  0
 21 12  1  0  0  0  0
 23 24  1  0  0  0  0
 25 23  2  0  0  0  0
M  END
>  <MODEL>
6

>  <REMARK>
 VINA RESULT:      -7.0      3.130      5.024
  Name = 
  2 active torsions:
  status: ('A' for Active; 'I' for Inactive)
    1  A    between atoms: C_2  and  C_21
    2  A    between atoms: C_15  and  C_21
                            x       y       z     vdW  Elec       q    Type
                         _______ _______ _______ _____ _____    ______ ____

>  <TORSDO>
F 2

$$$$
=
 OpenBabel11052417243D

 25 28  0  0  1  0  0  0  0  0999 V2000
  191.6990  175.0470  143.4400 C   0  0  0  0  0  0  0  0  0  0  0  0
  190.3490  175.1010  143.0430 C   0  0  0  0  0  0  0  0  0  0  0  0
  192.2940  174.0090  141.3320 C   0  0  0  0  0  3  0  0  0  0  0  0
  192.2790  175.4800  144.6470 C   0  0  0  0  0  0  0  0  0  0  0  0
  186.9950  176.4160  143.9590 C   0  0  0  0  0  0  0  0  0  0  0  0
  193.7820  176.2160  146.8880 C   0  0  0  0  0  3  0  0  0  0  0  0
  190.9870  174.0640  140.9570 N   0  0  0  0  0  0  0  0  0  0  0  0
  193.6570  175.2640  144.6910 C   0  0  0  0  0  0  0  0  0  0  0  0
  194.4280  175.6220  145.7940 C   0  0  0  0  0  3  0  0  0  0  0  0
  188.6180  174.6310  141.2800 C   0  0  0  0  0  0  0  0  0  0  0  0
  188.1920  173.9390  139.7250 Cl  0  0  0  0  0  0  0  0  0  0  0  0
  186.0420  177.0150  144.6200 C   0  0  0  0  0  3  0  0  0  0  0  0
  189.2820  175.6320  143.9700 C   0  0  0  0  0  2  0  0  0  0  0  0
  192.3940  176.4420  146.8600 C   0  0  0  0  0  3  0  0  0  0  0  0
  192.6470  174.5050  142.5780 C   0  0  0  0  0  0  0  0  0  0  0  0
  194.1870  174.5440  143.2640 S   0  0  0  0  0  0  0  0  0  0  0  0
  187.6620  175.2180  141.9970 C   0  0  0  0  0  3  0  0  0  0  0  0
  191.6350  176.0750  145.7370 C   0  0  0  0  0  3  0  0  0  0  0  0
  187.9500  175.8200  143.3050 C   0  0  0  0  0  0  0  0  0  0  0  0
  190.0140  174.5870  141.7630 C   0  0  0  0  0  0  0  0  0  0  0  0
  186.3550  178.0720  145.6290 C   0  0  2  0  0  3  0  0  0  0  0  0
  187.3020  177.5440  146.6950 C   0  0  0  0  0  1  0  0  0  0  0  0
  185.0990  178.5820  146.2550 C   0  0  0  0  0  0  0  0  0  0  0  0
  185.0060  178.6610  147.6380 O   0  0  0  0  0  1  0  0  0  0  0  0
  184.1250  178.9450  145.5420 O   0  0  0  0  0  0  0  0  0  0  0  0
  1  4  1  0  0  0  0
  2  1  1  0  0  0  0
  2 13  1  0  0  0  0
  3 15  1  0  0  0  0
  4  8  2  0  0  0  0
  4 18  1  0  0  0  0
  5 12  2  0  0  0  0
  7  3  2  0  0  0  0
  7 20  1  0  0  0  0
  8  9  1  0  0  0  0
  9  6  2  0  0  0  0
 10 20  1  0  0  0  0
 10 17  2  0  0  0  0
 11 10  1  0  0  0  0
 12 21  1  0  0  0  0
 14  6  1  0  0  0  0
 15 16  1  0  0  0  0
 15  1  2  0  0  0  0
 16  8  1  0  0  0  0
 17 19  1  0  0  0  0
 18 14  2  0  0  0  0
 19  5  2  0  0  0  0
 19 13  1  0  0  0  0
 20  2  2  0  0  0  0
 21 23  1  0  0  0  0
 21 22  1  1  0  0  0
 23 24  1  0  0  0  0
 25 23  2  0  0  0  0
M  END
>  <MODEL>
7

>  <REMARK>
 VINA RESULT:      -6.9      3.840      6.557
  Name = 
  2 active torsions:
  status: ('A' for Active; 'I' for Inactive)
    1  A    between atoms: C_2  and  C_21
    2  A    between atoms: C_15  and  C_21
                            x       y       z     vdW  Elec       q    Type
                         _______ _______ _______ _____ _____    ______ ____

>  <TORSDO>
F 2

$$$$
=
 OpenBabel11052417243D

 25 28  0  0  1  0  0  0  0  0999 V2000
  191.2140  174.3430  144.2070 C   0  0  0  0  0  0  0  0  0  0  0  0
  190.6390  175.3480  145.0080 C   0  0  0  0  0  0  0  0  0  0  0  0
  193.0000  174.0560  145.8200 C   0  0  0  0  0  3  0  0  0  0  0  0
  190.7690  173.8420  142.9680 C   0  0  0  0  0  0  0  0  0  0  0  0
  187.6570  177.5310  145.4160 C   0  0  0  0  0  0  0  0  0  0  0  0
  190.2050  172.6020  140.5260 C   0  0  0  0  0  3  0  0  0  0  0  0
  192.4390  175.0290  146.5880 N   0  0  0  0  0  0  0  0  0  0  0  0
  191.5990  172.8420  142.4620 C   0  0  0  0  0  0  0  0  0  0  0  0
  191.3410  172.2090  141.2490 C   0  0  0  0  0  3  0  0  0  0  0  0
  190.7290  176.7120  147.1190 C   0  0  0  0  0  0  0  0  0  0  0  0
  191.5670  177.1680  148.5910 Cl  0  0  0  0  0  0  0  0  0  0  0  0
  186.5030  178.0970  145.1940 C   0  0  0  0  0  3  0  0  0  0  0  0
  189.4030  176.0910  144.5620 C   0  0  0  0  0  2  0  0  0  0  0  0
  189.3570  173.6090  141.0230 C   0  0  0  0  0  3  0  0  0  0  0  0
  192.3820  173.7140  144.6260 C   0  0  0  0  0  0  0  0  0  0  0  0
  192.8840  172.5540  143.5110 S   0  0  0  0  0  0  0  0  0  0  0  0
  189.5650  177.2980  146.8440 C   0  0  0  0  0  3  0  0  0  0  0  0
  189.6360  174.2340  142.2490 C   0  0  0  0  0  3  0  0  0  0  0  0
  188.8090  176.9610  145.6310 C   0  0  0  0  0  0  0  0  0  0  0  0
  191.2910  175.6790  146.2240 C   0  0  0  0  0  0  0  0  0  0  0  0
  185.4780  177.4380  144.3300 C   0  0  2  0  0  3  0  0  0  0  0  0
  186.1250  176.7890  143.1160 C   0  0  0  0  0  1  0  0  0  0  0  0
  184.4450  178.4270  143.9010 C   0  0  0  0  0  0  0  0  0  0  0  0
  183.7870  178.2500  142.6910 O   0  0  0  0  0  0  0  0  0  0  0  0
  184.1620  179.4180  144.6260 O   0  0  0  0  0  1  0  0  0  0  0  0
  1 15  1  0  0  0  0
  1  2  2  0  0  0  0
  2 20  1  0  0  0  0
  3  7  1  0  0  0  0
  4  1  1  0  0  0  0
  5 19  2  0  0  0  0
  6 14  2  0  0  0  0
  6  9  1  0  0  0  0
  8  4  1  0  0  0  0
  8 16  1  0  0  0  0
  9  8  2  0  0  0  0
 10 11  1  0  0  0  0
 12  5  2  0  0  0  0
 13  2  1  0  0  0  0
 13 19  1  0  0  0  0
 14 18  1  0  0  0  0
 15  3  2  0  0  0  0
 16 15  1  0  0  0  0
 17 10  2  0  0  0  0
 18  4  2  0  0  0  0
 19 17  1  0  0  0  0
 20  7  2  0  0  0  0
 20 10  1  0  0  0  0
 21 22  1  6  0  0  0
 21 12  1  0  0  0  0
 23 21  1  0  0  0  0
 23 25  1  0  0  0  0
 24 23  2  0  0  0  0
M  END
>  <MODEL>
8

>  <REMARK>
 VINA RESULT:      -6.7      4.579      7.765
  Name = 
  2 active torsions:
  status: ('A' for Active; 'I' for Inactive)
    1  A    between atoms: C_2  and  C_21
    2  A    between atoms: C_15  and  C_21
                            x       y       z     vdW  Elec       q    Type
                         _______ _______ _______ _____ _____    ______ ____

>  <TORSDO>
F 2

$$$$
=
 OpenBabel11052417243D

 25 28  0  0  1  0  0  0  0  0999 V2000
  187.0920  176.4780  141.2160 C   0  0  0  0  0  0  0  0  0  0  0  0
  186.9790  176.9000  142.5560 C   0  0  0  0  0  0  0  0  0  0  0  0
  185.6130  178.2650  140.5130 C   0  0  0  0  0  3  0  0  0  0  0  0
  187.8310  175.4010  140.6920 C   0  0  0  0  0  0  0  0  0  0  0  0
  188.2980  176.3830  145.9930 C   0  0  0  0  0  0  0  0  0  0  0  0
  189.1570  173.3770  139.2910 C   0  0  0  0  0  3  0  0  0  0  0  0
  185.5080  178.6650  141.8090 N   0  0  0  0  0  0  0  0  0  0  0  0
  187.7030  175.2830  139.3080 C   0  0  0  0  0  0  0  0  0  0  0  0
  188.3530  174.2850  138.5870 C   0  0  0  0  0  3  0  0  0  0  0  0
  186.0110  178.5280  144.2110 C   0  0  0  0  0  0  0  0  0  0  0  0
  184.9470  179.8780  144.5590 Cl  0  0  0  0  0  0  0  0  0  0  0  0
  188.9870  175.9020  146.9910 C   0  0  0  0  0  3  0  0  0  0  0  0
  187.6590  176.1460  143.6720 C   0  0  0  0  0  2  0  0  0  0  0  0
  189.2980  173.4820  140.6870 C   0  0  0  0  0  3  0  0  0  0  0  0
  186.4100  177.1680  140.2190 C   0  0  0  0  0  0  0  0  0  0  0  0
  186.6910  176.4850  138.7040 S   0  0  0  0  0  0  0  0  0  0  0  0
  186.7020  177.9890  145.2130 C   0  0  0  0  0  3  0  0  0  0  0  0
  188.6330  174.4970  141.3950 C   0  0  0  0  0  3  0  0  0  0  0  0
  187.6130  176.8590  144.9920 C   0  0  0  0  0  0  0  0  0  0  0  0
  186.1570  178.0240  142.8290 C   0  0  0  0  0  0  0  0  0  0  0  0
  190.2680  175.1710  146.7570 C   0  0  2  0  0  3  0  0  0  0  0  0
  191.1910  175.2910  147.9600 C   0  0  0  0  0  1  0  0  0  0  0  0
  190.9450  175.6860  145.5290 C   0  0  0  0  0  0  0  0  0  0  0  0
  190.8990  174.9430  144.3580 O   0  0  0  0  0  0  0  0  0  0  0  0
  191.5560  176.7890  145.5450 O   0  0  0  0  0  1  0  0  0  0  0  0
  1  2  2  0  0  0  0
  2 20  1  0  0  0  0
  2 13  1  0  0  0  0
  3  7  1  0  0  0  0
  4  1  1  0  0  0  0
  4 18  1  0  0  0  0
  5 12  2  0  0  0  0
  6 14  1  0  0  0  0
  7 20  2  0  0  0  0
  8  4  2  0  0  0  0
  9  6  2  0  0  0  0
  9  8  1  0  0  0  0
 10 11  1  0  0  0  0
 10 17  2  0  0  0  0
 13 19  1  0  0  0  0
 14 18  2  0  0  0  0
 15  3  2  0  0  0  0
 15  1  1  0  0  0  0
 16  8  1  0  0  0  0
 16 15  1  0  0  0  0
 19 17  1  0  0  0  0
 19  5  2  0  0  0  0
 20 10  1  0  0  0  0
 21 12  1  0  0  0  0
 21 22  1  1  0  0  0
 23 25  1  0  0  0  0
 23 21  1  0  0  0  0
 24 23  2  0  0  0  0
M  END
>  <MODEL>
9

>  <REMARK>
 VINA RESULT:      -6.6      2.659      5.189
  Name = 
  2 active torsions:
  status: ('A' for Active; 'I' for Inactive)
    1  A    between atoms: C_2  and  C_21
    2  A    between atoms: C_15  and  C_21
                            x       y       z     vdW  Elec       q    Type
                         _______ _______ _______ _____ _____    ______ ____

>  <TORSDO>
F 2

$$$$
