=
 OpenBabel11052417583D

 31 34  0  0  1  0  0  0  0  0999 V2000
  190.0460  177.1660  147.9340 C   0  0  1  0  0  3  0  0  0  0  0  0
  187.6640  176.3530  145.0330 C   0  0  0  0  0  0  0  0  0  0  0  0
  186.4810  177.1290  145.0020 C   0  0  0  0  0  0  0  0  0  0  0  0
  184.8060  178.4790  146.1380 C   0  0  0  0  0  3  0  0  0  0  0  0
  188.4170  176.1720  146.3340 C   0  0  2  0  0  3  0  0  0  0  0  0
  190.9570  176.1280  147.6690 O   0  0  0  0  0  0  0  0  0  0  0  0
  185.9720  177.7120  146.1730 C   0  0  0  0  0  3  0  0  0  0  0  0
  189.3380  174.8380  143.8220 C   0  0  1  0  0  3  0  0  0  0  0  0
  190.7460  178.3210  148.2810 O   0  0  0  0  0  1  0  0  0  0  0  0
  186.2840  176.7340  142.6090 C   0  0  0  0  0  3  0  0  0  0  0  0
  184.1320  178.6720  144.9330 C   0  0  0  0  0  3  0  0  0  0  0  0
  190.2060  174.9570  145.0730 C   0  0  0  0  0  2  0  0  0  0  0  0
  188.1540  175.7800  143.8320 C   0  0  0  0  0  0  0  0  0  0  0  0
  189.1990  177.4400  146.6930 C   0  0  0  0  0  2  0  0  0  0  0  0
  183.8530  178.3380  142.4900 C   0  0  0  0  0  1  0  0  0  0  0  0
  189.3350  174.9400  146.3200 C   0  0  1  0  0  3  0  0  0  0  0  0
  190.2080  174.9390  147.5800 C   0  0  0  0  0  2  0  0  0  0  0  0
  187.4420  175.9640  142.6410 C   0  0  0  0  0  3  0  0  0  0  0  0
  185.7910  177.3250  143.7780 C   0  0  0  0  0  0  0  0  0  0  0  0
  184.6140  178.1020  143.7520 C   0  0  0  0  0  0  0  0  0  0  0  0
  191.7230  174.3390  141.0820 O   0  0  0  0  0  0  0  0  0  0  0  0
  190.9410  174.0360  142.0230 C   0  0  0  0  0  0  0  0  0  0  0  0
  190.1680  175.0650  142.6440 N   0  0  0  0  0  2  0  0  0  0  0  0
  190.0990  171.7210  141.5070 C   0  0  0  0  0  1  0  0  0  0  0  0
  190.8540  172.6130  142.4990 C   0  0  1  0  0  3  0  0  0  0  0  0
  192.3850  170.7470  142.3670 C   0  0  0  0  0  1  0  0  0  0  0  0
  192.1760  172.0930  142.8910 N   0  0  0  0  0  0  0  0  0  0  0  0
  192.2520  172.0080  144.3450 C   0  0  0  0  0  2  0  0  0  0  0  0
  193.6330  172.4120  144.8320 C   0  0  2  0  0  3  0  0  0  0  0  0
  194.1480  171.4040  145.6450 O   0  0  0  0  0  1  0  0  0  0  0  0
  193.5490  173.6990  145.6290 C   0  0  0  0  0  1  0  0  0  0  0  0
  1  9  1  6  0  0  0
  2  5  1  0  0  0  0
  3  2  1  0  0  0  0
  3  7  1  0  0  0  0
  4  7  2  0  0  0  0
  5 14  1  6  0  0  0
  6  1  1  0  0  0  0
  8 23  1  6  0  0  0
  8 13  1  0  0  0  0
  8 12  1  0  0  0  0
 10 18  2  0  0  0  0
 10 19  1  0  0  0  0
 11  4  1  0  0  0  0
 13  2  2  0  0  0  0
 14  1  1  0  0  0  0
 15 20  1  0  0  0  0
 16 12  1  6  0  0  0
 16  5  1  0  0  0  0
 16 17  1  0  0  0  0
 17  6  1  0  0  0  0
 18 13  1  0  0  0  0
 19  3  2  0  0  0  0
 20 19  1  0  0  0  0
 20 11  2  0  0  0  0
 21 22  2  0  0  0  0
 22 25  1  0  0  0  0
 22 23  1  0  0  0  0
 25 24  1  6  0  0  0
 25 27  1  0  0  0  0
 26 27  1  0  0  0  0
 27 28  1  0  0  0  0
 28 29  1  0  0  0  0
 29 31  1  1  0  0  0
 29 30  1  0  0  0  0
M  END
>  <MODEL>
1

>  <REMARK>
 VINA RESULT:      -7.3      0.000      0.000
  Name = 
  5 active torsions:
  status: ('A' for Active; 'I' for Inactive)
    1  A    between atoms: C_1  and  C_24
    2  A    between atoms: C_9  and  C_22
    3  A    between atoms: C_15  and  N_23
    4  A    between atoms: N_19  and  C_22
    5  A    between atoms: N_19  and  C_24
                            x       y       z     vdW  Elec       q    Type
                         _______ _______ _______ _____ _____    ______ ____

>  <TORSDO>
F 5

$$$$
=
 OpenBabel11052417583D

 31 34  0  0  1  0  0  0  0  0999 V2000
  190.8810  177.3970  148.8270 C   0  0  1  0  0  3  0  0  0  0  0  0
  188.9200  176.9970  145.5490 C   0  0  0  0  0  0  0  0  0  0  0  0
  187.6460  177.6150  145.5420 C   0  0  0  0  0  0  0  0  0  0  0  0
  185.6980  178.4600  146.7290 C   0  0  0  0  0  3  0  0  0  0  0  0
  189.5670  176.6120  146.8640 C   0  0  2  0  0  3  0  0  0  0  0  0
  191.9520  176.5630  148.4580 O   0  0  0  0  0  0  0  0  0  0  0  0
  186.9520  177.8480  146.7400 C   0  0  0  0  0  3  0  0  0  0  0  0
  190.8980  176.0100  144.2540 C   0  0  1  0  0  3  0  0  0  0  0  0
  191.3750  178.5150  149.4980 O   0  0  0  0  0  1  0  0  0  0  0  0
  187.7300  177.7600  143.1150 C   0  0  0  0  0  3  0  0  0  0  0  0
  185.1180  178.8440  145.5200 C   0  0  0  0  0  3  0  0  0  0  0  0
  191.6190  175.9390  145.5980 C   0  0  0  0  0  2  0  0  0  0  0  0
  189.5950  176.7780  144.3230 C   0  0  0  0  0  0  0  0  0  0  0  0
  190.1230  177.8470  147.5800 C   0  0  0  0  0  2  0  0  0  0  0  0
  185.1180  179.0500  143.0480 C   0  0  0  0  0  1  0  0  0  0  0  0
  190.6480  175.5330  146.6960 C   0  0  1  0  0  3  0  0  0  0  0  0
  191.3910  175.3460  148.0240 C   0  0  0  0  0  2  0  0  0  0  0  0
  188.9780  177.1450  143.1210 C   0  0  0  0  0  3  0  0  0  0  0  0
  187.0520  178.0040  144.3140 C   0  0  0  0  0  0  0  0  0  0  0  0
  185.7840  178.6210  144.3130 C   0  0  0  0  0  0  0  0  0  0  0  0
  193.6720  176.4950  141.9070 O   0  0  0  0  0  0  0  0  0  0  0  0
  192.8740  175.8800  142.6650 C   0  0  0  0  0  0  0  0  0  0  0  0
  191.7920  176.5980  143.2640 N   0  0  0  0  0  2  0  0  0  0  0  0
  192.6020  173.5330  141.7990 C   0  0  0  0  0  1  0  0  0  0  0  0
  193.0830  174.4200  142.9520 C   0  0  1  0  0  3  0  0  0  0  0  0
  195.0740  173.1030  142.5660 C   0  0  0  0  0  1  0  0  0  0  0  0
  194.4650  174.1480  143.3840 N   0  0  0  0  0  0  0  0  0  0  0  0
  194.4570  173.6690  144.7620 C   0  0  0  0  0  2  0  0  0  0  0  0
  195.3420  174.5420  145.6360 C   0  0  2  0  0  3  0  0  0  0  0  0
  195.6460  175.7180  144.9520 O   0  0  0  0  0  1  0  0  0  0  0  0
  196.6280  173.8130  145.9670 C   0  0  0  0  0  1  0  0  0  0  0  0
  1  9  1  6  0  0  0
  2  5  1  0  0  0  0
  3  2  1  0  0  0  0
  3  7  1  0  0  0  0
  4  7  2  0  0  0  0
  5 14  1  6  0  0  0
  6  1  1  0  0  0  0
  8 23  1  6  0  0  0
  8 13  1  0  0  0  0
  8 12  1  0  0  0  0
 10 18  2  0  0  0  0
 10 19  1  0  0  0  0
 11  4  1  0  0  0  0
 13  2  2  0  0  0  0
 14  1  1  0  0  0  0
 15 20  1  0  0  0  0
 16 12  1  6  0  0  0
 16  5  1  0  0  0  0
 16 17  1  0  0  0  0
 17  6  1  0  0  0  0
 18 13  1  0  0  0  0
 19  3  2  0  0  0  0
 20 19  1  0  0  0  0
 20 11  2  0  0  0  0
 21 22  2  0  0  0  0
 22 25  1  0  0  0  0
 22 23  1  0  0  0  0
 25 24  1  6  0  0  0
 25 27  1  0  0  0  0
 26 27  1  0  0  0  0
 27 28  1  0  0  0  0
 28 29  1  0  0  0  0
 29 31  1  6  0  0  0
 30 29  1  0  0  0  0
M  END
>  <MODEL>
2

>  <REMARK>
 VINA RESULT:      -7.2      1.978      2.235
  Name = 
  5 active torsions:
  status: ('A' for Active; 'I' for Inactive)
    1  A    between atoms: C_1  and  C_24
    2  A    between atoms: C_9  and  C_22
    3  A    between atoms: C_15  and  N_23
    4  A    between atoms: N_19  and  C_22
    5  A    between atoms: N_19  and  C_24
                            x       y       z     vdW  Elec       q    Type
                         _______ _______ _______ _____ _____    ______ ____

>  <TORSDO>
F 5

$$$$
=
 OpenBabel11052417583D

 31 34  0  0  1  0  0  0  0  0999 V2000
  190.0950  177.1560  148.0080 C   0  0  1  0  0  3  0  0  0  0  0  0
  187.6260  176.4520  145.1500 C   0  0  0  0  0  0  0  0  0  0  0  0
  186.4450  177.2310  145.1820 C   0  0  0  0  0  0  0  0  0  0  0  0
  184.8090  178.5430  146.4140 C   0  0  0  0  0  3  0  0  0  0  0  0
  188.4170  176.2230  146.4220 C   0  0  2  0  0  3  0  0  0  0  0  0
  190.9940  176.1260  147.6790 O   0  0  0  0  0  0  0  0  0  0  0  0
  185.9720  177.7730  146.3870 C   0  0  0  0  0  3  0  0  0  0  0  0
  189.2600  174.9770  143.8380 C   0  0  1  0  0  3  0  0  0  0  0  0
  190.8080  178.2960  148.3750 O   0  0  0  0  0  1  0  0  0  0  0  0
  186.1770  176.9220  142.7840 C   0  0  0  0  0  3  0  0  0  0  0  0
  184.1010  178.7810  145.2360 C   0  0  0  0  0  3  0  0  0  0  0  0
  190.1640  175.0490  145.0660 C   0  0  0  0  0  2  0  0  0  0  0  0
  188.0790  175.9210  143.9160 C   0  0  0  0  0  0  0  0  0  0  0  0
  189.2120  177.4760  146.8030 C   0  0  0  0  0  2  0  0  0  0  0  0
  183.7490  178.5350  142.7930 C   0  0  0  0  0  1  0  0  0  0  0  0
  189.3300  174.9900  146.3370 C   0  0  1  0  0  3  0  0  0  0  0  0
  190.2390  174.9430  147.5700 C   0  0  0  0  0  2  0  0  0  0  0  0
  187.3330  176.1490  142.7540 C   0  0  0  0  0  3  0  0  0  0  0  0
  185.7210  177.4720  143.9860 C   0  0  0  0  0  0  0  0  0  0  0  0
  184.5460  178.2520  144.0230 C   0  0  0  0  0  0  0  0  0  0  0  0
  191.0970  174.5360  140.6960 O   0  0  0  0  0  0  0  0  0  0  0  0
  190.3030  174.2630  141.6360 C   0  0  0  0  0  0  0  0  0  0  0  0
  190.0550  175.2440  142.6450 N   0  0  0  0  0  2  0  0  0  0  0  0
  188.2780  172.8980  141.0250 C   0  0  0  0  0  1  0  0  0  0  0  0
  189.6540  172.9090  141.7010 C   0  0  1  0  0  3  0  0  0  0  0  0
  190.0650  171.2400  140.0010 C   0  0  0  0  0  1  0  0  0  0  0  0
  190.5640  171.8510  141.2300 N   0  0  0  0  0  0  0  0  0  0  0  0
  190.6450  170.7970  142.2360 C   0  0  0  0  0  2  0  0  0  0  0  0
  191.9980  170.8220  142.9260 C   0  0  2  0  0  3  0  0  0  0  0  0
  192.4320  169.5130  143.1330 O   0  0  0  0  0  1  0  0  0  0  0  0
  191.8870  171.5250  144.2640 C   0  0  0  0  0  1  0  0  0  0  0  0
  1  9  1  6  0  0  0
  2  3  1  0  0  0  0
  2  5  1  0  0  0  0
  3  7  1  0  0  0  0
  5 14  1  6  0  0  0
  6  1  1  0  0  0  0
  7  4  2  0  0  0  0
  8 23  1  6  0  0  0
  8 13  1  0  0  0  0
  8 12  1  0  0  0  0
 10 19  1  0  0  0  0
 11  4  1  0  0  0  0
 13  2  2  0  0  0  0
 14  1  1  0  0  0  0
 15 20  1  0  0  0  0
 16 12  1  6  0  0  0
 16  5  1  0  0  0  0
 16 17  1  0  0  0  0
 17  6  1  0  0  0  0
 18 10  2  0  0  0  0
 18 13  1  0  0  0  0
 19 20  1  0  0  0  0
 19  3  2  0  0  0  0
 20 11  2  0  0  0  0
 21 22  2  0  0  0  0
 22 25  1  0  0  0  0
 22 23  1  0  0  0  0
 25 24  1  6  0  0  0
 26 27  1  0  0  0  0
 27 25  1  0  0  0  0
 27 28  1  0  0  0  0
 28 29  1  0  0  0  0
 29 30  1  0  0  0  0
 29 31  1  1  0  0  0
M  END
>  <MODEL>
3

>  <REMARK>
 VINA RESULT:      -7.1      1.115      1.452
  Name = 
  5 active torsions:
  status: ('A' for Active; 'I' for Inactive)
    1  A    between atoms: C_1  and  C_24
    2  A    between atoms: C_9  and  C_22
    3  A    between atoms: C_15  and  N_23
    4  A    between atoms: N_19  and  C_22
    5  A    between atoms: N_19  and  C_24
                            x       y       z     vdW  Elec       q    Type
                         _______ _______ _______ _____ _____    ______ ____

>  <TORSDO>
F 5

$$$$
=
 OpenBabel11052417583D

 31 34  0  0  1  0  0  0  0  0999 V2000
  188.5950  173.5330  141.1310 C   0  0  1  0  0  3  0  0  0  0  0  0
  188.1830  176.4940  143.5420 C   0  0  0  0  0  0  0  0  0  0  0  0
  186.9020  177.0960  143.5280 C   0  0  0  0  0  0  0  0  0  0  0  0
  184.8120  177.5960  142.3880 C   0  0  0  0  0  3  0  0  0  0  0  0
  188.6640  175.7090  142.3390 C   0  0  2  0  0  3  0  0  0  0  0  0
  189.9700  173.3490  141.3610 O   0  0  0  0  0  0  0  0  0  0  0  0
  186.0760  177.0040  142.3970 C   0  0  0  0  0  3  0  0  0  0  0  0
  190.4170  176.0920  144.7310 C   0  0  1  0  0  3  0  0  0  0  0  0
  187.9670  172.2900  141.0510 O   0  0  0  0  0  1  0  0  0  0  0  0
  187.2630  177.9160  145.7900 C   0  0  0  0  0  3  0  0  0  0  0  0
  184.3580  178.2910  143.5090 C   0  0  0  0  0  3  0  0  0  0  0  0
  190.7070  175.0680  143.6360 C   0  0  0  0  0  2  0  0  0  0  0  0
  188.9920  176.6030  144.7000 C   0  0  0  0  0  0  0  0  0  0  0  0
  187.9820  174.3380  142.2750 C   0  0  0  0  0  2  0  0  0  0  0  0
  184.6260  179.1570  145.8180 C   0  0  0  0  0  1  0  0  0  0  0  0
  190.1940  175.5710  142.2950 C   0  0  1  0  0  3  0  0  0  0  0  0
  190.5870  174.6010  141.1760 C   0  0  0  0  0  2  0  0  0  0  0  0
  188.5250  177.3310  145.8010 C   0  0  0  0  0  3  0  0  0  0  0  0
  186.4390  177.8060  144.6650 C   0  0  0  0  0  0  0  0  0  0  0  0
  185.1600  178.4010  144.6470 C   0  0  0  0  0  0  0  0  0  0  0  0
  192.2480  174.8670  147.6610 O   0  0  0  0  0  0  0  0  0  0  0  0
  192.0410  175.5000  146.5910 C   0  0  0  0  0  0  0  0  0  0  0  0
  190.7270  175.5030  146.0290 N   0  0  0  0  0  2  0  0  0  0  0  0
  193.9960  177.0560  146.8870 C   0  0  0  0  0  1  0  0  0  0  0  0
  193.1740  176.2120  145.9070 C   0  0  1  0  0  3  0  0  0  0  0  0
  195.1900  174.8830  145.7940 C   0  0  0  0  0  1  0  0  0  0  0  0
  193.9780  175.2870  145.0890 N   0  0  0  0  0  0  0  0  0  0  0  0
  194.3930  175.9600  143.8630 C   0  0  0  0  0  2  0  0  0  0  0  0
  195.9010  175.8810  143.6960 C   0  0  2  0  0  3  0  0  0  0  0  0
  196.4390  177.1650  143.7680 O   0  0  0  0  0  1  0  0  0  0  0  0
  196.2460  175.2720  142.3520 C   0  0  0  0  0  1  0  0  0  0  0  0
  1  9  1  1  0  0  0
  1  6  1  0  0  0  0
  1 14  1  0  0  0  0
  2 13  1  0  0  0  0
  3  2  2  0  0  0  0
  3 19  1  0  0  0  0
  4  7  2  0  0  0  0
  4 11  1  0  0  0  0
  5 14  1  1  0  0  0
  5  2  1  0  0  0  0
  7  3  1  0  0  0  0
  8 23  1  1  0  0  0
 10 18  1  0  0  0  0
 11 20  2  0  0  0  0
 12  8  1  0  0  0  0
 13  8  1  0  0  0  0
 13 18  2  0  0  0  0
 16 17  1  6  0  0  0
 16  5  1  0  0  0  0
 16 12  1  0  0  0  0
 17  6  1  0  0  0  0
 19 10  2  0  0  0  0
 20 19  1  0  0  0  0
 20 15  1  0  0  0  0
 22 21  2  0  0  0  0
 23 22  1  0  0  0  0
 25 22  1  0  0  0  0
 25 24  1  1  0  0  0
 27 26  1  0  0  0  0
 27 25  1  0  0  0  0
 28 27  1  0  0  0  0
 29 31  1  6  0  0  0
 29 30  1  0  0  0  0
 29 28  1  0  0  0  0
M  END
>  <MODEL>
4

>  <REMARK>
 VINA RESULT:      -7.0      2.504      4.873
  Name = 
  5 active torsions:
  status: ('A' for Active; 'I' for Inactive)
    1  A    between atoms: C_1  and  C_24
    2  A    between atoms: C_9  and  C_22
    3  A    between atoms: C_15  and  N_23
    4  A    between atoms: N_19  and  C_22
    5  A    between atoms: N_19  and  C_24
                            x       y       z     vdW  Elec       q    Type
                         _______ _______ _______ _____ _____    ______ ____

>  <TORSDO>
F 5

$$$$
=
 OpenBabel11052417583D

 31 34  0  0  1  0  0  0  0  0999 V2000
  190.4820  171.1520  141.9700 C   0  0  1  0  0  3  0  0  0  0  0  0
  192.5050  172.9820  144.6730 C   0  0  0  0  0  0  0  0  0  0  0  0
  193.7750  172.4200  144.9450 C   0  0  0  0  0  0  0  0  0  0  0  0
  195.2870  170.5130  144.9540 C   0  0  0  0  0  3  0  0  0  0  0  0
  191.4140  172.1270  144.0620 C   0  0  2  0  0  3  0  0  0  0  0  0
  189.3130  171.9190  142.1200 O   0  0  0  0  0  0  0  0  0  0  0  0
  194.0330  171.0640  144.6870 C   0  0  0  0  0  3  0  0  0  0  0  0
  190.9090  174.9820  144.7930 C   0  0  1  0  0  3  0  0  0  0  0  0
  190.7150  170.9210  140.6150 O   0  0  0  0  0  1  0  0  0  0  0  0
  194.5540  174.5740  145.7640 C   0  0  0  0  0  3  0  0  0  0  0  0
  196.3010  171.3100  145.4850 C   0  0  0  0  0  3  0  0  0  0  0  0
  189.9740  174.1690  143.9020 C   0  0  0  0  0  2  0  0  0  0  0  0
  192.2780  174.3550  144.9430 C   0  0  0  0  0  0  0  0  0  0  0  0
  191.6710  171.8990  142.5690 C   0  0  0  0  0  2  0  0  0  0  0  0
  197.1910  173.4680  146.3250 C   0  0  0  0  0  1  0  0  0  0  0  0
  190.0090  172.7020  144.3020 C   0  0  1  0  0  3  0  0  0  0  0  0
  188.9850  171.9020  143.4890 C   0  0  0  0  0  2  0  0  0  0  0  0
  193.3030  175.1250  145.5040 C   0  0  0  0  0  3  0  0  0  0  0  0
  194.8080  173.2260  145.4880 C   0  0  0  0  0  0  0  0  0  0  0  0
  196.0720  172.6610  145.7550 C   0  0  0  0  0  0  0  0  0  0  0  0
  190.1670  178.4730  143.9540 O   0  0  0  0  0  0  0  0  0  0  0  0
  190.0680  177.3650  144.5470 C   0  0  0  0  0  0  0  0  0  0  0  0
  191.0170  176.3360  144.2610 N   0  0  0  0  0  2  0  0  0  0  0  0
  189.3040  177.5890  146.9350 C   0  0  0  0  0  1  0  0  0  0  0  0
  188.9440  177.1310  145.5180 C   0  0  1  0  0  3  0  0  0  0  0  0
  186.7340  177.9140  146.1060 C   0  0  0  0  0  1  0  0  0  0  0  0
  187.6720  177.6770  145.0130 N   0  0  0  0  0  0  0  0  0  0  0  0
  187.0530  176.7110  144.1120 C   0  0  0  0  0  2  0  0  0  0  0  0
  186.8860  177.3070  142.7250 C   0  0  2  0  0  3  0  0  0  0  0  0
  185.5340  177.3070  142.3840 O   0  0  0  0  0  1  0  0  0  0  0  0
  187.6540  176.4860  141.7090 C   0  0  0  0  0  1  0  0  0  0  0  0
  1  9  1  6  0  0  0
  1  6  1  0  0  0  0
  1 14  1  0  0  0  0
  2 13  2  0  0  0  0
  2  3  1  0  0  0  0
  3 19  1  0  0  0  0
  4 11  2  0  0  0  0
  5 14  1  6  0  0  0
  5 16  1  0  0  0  0
  5  2  1  0  0  0  0
  6 17  1  0  0  0  0
  7  3  2  0  0  0  0
  7  4  1  0  0  0  0
  8 23  1  6  0  0  0
  8 13  1  0  0  0  0
 11 20  1  0  0  0  0
 12 16  1  0  0  0  0
 12  8  1  0  0  0  0
 13 18  1  0  0  0  0
 16 17  1  6  0  0  0
 18 10  2  0  0  0  0
 19 20  2  0  0  0  0
 19 10  1  0  0  0  0
 20 15  1  0  0  0  0
 21 22  2  0  0  0  0
 22 25  1  0  0  0  0
 23 22  1  0  0  0  0
 25 24  1  1  0  0  0
 27 25  1  0  0  0  0
 27 26  1  0  0  0  0
 28 27  1  0  0  0  0
 29 31  1  6  0  0  0
 29 28  1  0  0  0  0
 30 29  1  0  0  0  0
M  END
>  <MODEL>
5

>  <REMARK>
 VINA RESULT:      -6.9      2.464      8.412
  Name = 
  5 active torsions:
  status: ('A' for Active; 'I' for Inactive)
    1  A    between atoms: C_1  and  C_24
    2  A    between atoms: C_9  and  C_22
    3  A    between atoms: C_15  and  N_23
    4  A    between atoms: N_19  and  C_22
    5  A    between atoms: N_19  and  C_24
                            x       y       z     vdW  Elec       q    Type
                         _______ _______ _______ _____ _____    ______ ____

>  <TORSDO>
F 5

$$$$
=
 OpenBabel11052417583D

 31 34  0  0  1  0  0  0  0  0999 V2000
  185.8050  178.6400  147.2130 C   0  0  1  0  0  3  0  0  0  0  0  0
  187.0540  177.1000  143.9240 C   0  0  0  0  0  0  0  0  0  0  0  0
  186.2430  177.3710  142.7960 C   0  0  0  0  0  0  0  0  0  0  0  0
  184.0830  177.9410  141.8330 C   0  0  0  0  0  3  0  0  0  0  0  0
  186.4630  177.1670  145.3170 C   0  0  2  0  0  3  0  0  0  0  0  0
  186.7740  178.0350  148.0330 O   0  0  0  0  0  0  0  0  0  0  0  0
  184.8800  177.6720  142.9460 C   0  0  0  0  0  3  0  0  0  0  0  0
  189.3160  176.3810  144.8900 C   0  0  1  0  0  3  0  0  0  0  0  0
  185.6090  179.9590  147.6200 O   0  0  0  0  0  1  0  0  0  0  0  0
  188.1570  177.0250  141.3350 C   0  0  0  0  0  3  0  0  0  0  0  0
  184.6370  177.9120  140.5530 C   0  0  0  0  0  3  0  0  0  0  0  0
  188.7500  176.7690  146.2540 C   0  0  0  0  0  2  0  0  0  0  0  0
  188.4280  176.8030  143.7390 C   0  0  0  0  0  0  0  0  0  0  0  0
  186.2730  178.6210  145.7600 C   0  0  0  0  0  2  0  0  0  0  0  0
  186.5320  177.5940  138.9830 C   0  0  0  0  0  1  0  0  0  0  0  0
  187.2830  176.3750  146.3470 C   0  0  1  0  0  3  0  0  0  0  0  0
  186.7440  176.6560  147.7530 C   0  0  0  0  0  2  0  0  0  0  0  0
  188.9530  176.7510  142.4420 C   0  0  0  0  0  3  0  0  0  0  0  0
  186.8030  177.3400  141.4940 C   0  0  0  0  0  0  0  0  0  0  0  0
  185.9900  177.6130  140.3740 C   0  0  0  0  0  0  0  0  0  0  0  0
  192.9090  176.7410  144.2560 O   0  0  0  0  0  0  0  0  0  0  0  0
  191.7640  176.2150  144.2360 C   0  0  0  0  0  0  0  0  0  0  0  0
  190.6510  176.9510  144.7480 N   0  0  0  0  0  2  0  0  0  0  0  0
  192.3050  174.6180  142.3670 C   0  0  0  0  0  1  0  0  0  0  0  0
  191.5880  174.8190  143.7060 C   0  0  1  0  0  3  0  0  0  0  0  0
  193.3660  173.6350  144.8360 C   0  0  0  0  0  1  0  0  0  0  0  0
  191.9220  173.8090  144.7260 N   0  0  0  0  0  0  0  0  0  0  0  0
  191.3590  172.5210  144.3340 C   0  0  0  0  0  2  0  0  0  0  0  0
  189.8420  172.5930  144.2880 C   0  0  2  0  0  3  0  0  0  0  0  0
  189.3160  171.9170  145.3880 O   0  0  0  0  0  1  0  0  0  0  0  0
  189.3280  171.9490  143.0160 C   0  0  0  0  0  1  0  0  0  0  0  0
  1  9  1  1  0  0  0
  1  6  1  0  0  0  0
  2  5  1  0  0  0  0
  3  7  1  0  0  0  0
  3  2  2  0  0  0  0
  4  7  2  0  0  0  0
  5 14  1  1  0  0  0
  5 16  1  0  0  0  0
  8 23  1  6  0  0  0
  8 12  1  0  0  0  0
 10 19  2  0  0  0  0
 10 18  1  0  0  0  0
 11  4  1  0  0  0  0
 13  2  1  0  0  0  0
 13  8  1  0  0  0  0
 14  1  1  0  0  0  0
 15 20  1  0  0  0  0
 16 12  1  1  0  0  0
 16 17  1  0  0  0  0
 17  6  1  0  0  0  0
 18 13  2  0  0  0  0
 19  3  1  0  0  0  0
 20 11  2  0  0  0  0
 20 19  1  0  0  0  0
 22 21  2  0  0  0  0
 22 23  1  0  0  0  0
 25 24  1  6  0  0  0
 25 22  1  0  0  0  0
 25 27  1  0  0  0  0
 27 26  1  0  0  0  0
 28 27  1  0  0  0  0
 29 31  1  6  0  0  0
 29 28  1  0  0  0  0
 29 30  1  0  0  0  0
M  END
>  <MODEL>
6

>  <REMARK>
 VINA RESULT:      -6.9      2.330      3.466
  Name = 
  5 active torsions:
  status: ('A' for Active; 'I' for Inactive)
    1  A    between atoms: C_1  and  C_24
    2  A    between atoms: C_9  and  C_22
    3  A    between atoms: C_15  and  N_23
    4  A    between atoms: N_19  and  C_22
    5  A    between atoms: N_19  and  C_24
                            x       y       z     vdW  Elec       q    Type
                         _______ _______ _______ _____ _____    ______ ____

>  <TORSDO>
F 5

$$$$
=
 OpenBabel11052417583D

 31 34  0  0  1  0  0  0  0  0999 V2000
  190.5230  177.3820  148.5250 C   0  0  1  0  0  3  0  0  0  0  0  0
  188.3220  176.4070  145.5330 C   0  0  0  0  0  0  0  0  0  0  0  0
  187.0520  177.0310  145.5020 C   0  0  0  0  0  0  0  0  0  0  0  0
  185.1990  178.1130  146.6490 C   0  0  0  0  0  3  0  0  0  0  0  0
  189.0650  176.2640  146.8450 C   0  0  2  0  0  3  0  0  0  0  0  0
  191.5610  176.4770  148.2420 O   0  0  0  0  0  0  0  0  0  0  0  0
  186.4500  177.4950  146.6830 C   0  0  0  0  0  3  0  0  0  0  0  0
  190.1970  175.1650  144.3050 C   0  0  1  0  0  3  0  0  0  0  0  0
  191.0660  178.5980  148.9380 O   0  0  0  0  0  1  0  0  0  0  0  0
  186.9550  176.7190  143.0920 C   0  0  0  0  0  3  0  0  0  0  0  0
  184.5310  178.2730  145.4350 C   0  0  0  0  0  3  0  0  0  0  0  0
  191.0160  175.3360  145.5820 C   0  0  0  0  0  2  0  0  0  0  0  0
  188.9040  175.9520  144.3230 C   0  0  0  0  0  0  0  0  0  0  0  0
  189.6740  177.6030  147.2750 C   0  0  0  0  0  2  0  0  0  0  0  0
  184.3470  178.0140  142.9740 C   0  0  0  0  0  1  0  0  0  0  0  0
  190.1290  175.1570  146.8050 C   0  0  1  0  0  3  0  0  0  0  0  0
  190.9680  175.2100  148.0860 C   0  0  0  0  0  2  0  0  0  0  0  0
  188.2000  176.0980  143.1220 C   0  0  0  0  0  3  0  0  0  0  0  0
  186.3690  177.1930  144.2700 C   0  0  0  0  0  0  0  0  0  0  0  0
  185.1050  177.8190  144.2450 C   0  0  0  0  0  0  0  0  0  0  0  0
  192.3570  174.9920  141.3480 O   0  0  0  0  0  0  0  0  0  0  0  0
  191.5630  174.5940  142.2420 C   0  0  0  0  0  0  0  0  0  0  0  0
  191.0160  175.5440  143.1590 N   0  0  0  0  0  2  0  0  0  0  0  0
  191.7790  172.5130  143.6410 C   0  0  0  0  0  1  0  0  0  0  0  0
  191.2270  173.1330  142.3530 C   0  0  1  0  0  3  0  0  0  0  0  0
  189.2710  171.9240  143.0980 C   0  0  0  0  0  1  0  0  0  0  0  0
  189.7890  172.8930  142.1370 N   0  0  0  0  0  0  0  0  0  0  0  0
  189.5860  172.3320  140.8060 C   0  0  0  0  0  2  0  0  0  0  0  0
  188.3760  172.9660  140.1390 C   0  0  2  0  0  3  0  0  0  0  0  0
  188.2660  172.4860  138.8350 O   0  0  0  0  0  1  0  0  0  0  0  0
  188.5320  174.4730  140.1030 C   0  0  0  0  0  1  0  0  0  0  0  0
  1  9  1  6  0  0  0
  2  5  1  0  0  0  0
  3  2  1  0  0  0  0
  3  7  1  0  0  0  0
  4  7  2  0  0  0  0
  5 14  1  6  0  0  0
  6  1  1  0  0  0  0
  8 23  1  6  0  0  0
  8 13  1  0  0  0  0
  8 12  1  0  0  0  0
 10 18  2  0  0  0  0
 10 19  1  0  0  0  0
 11  4  1  0  0  0  0
 13  2  2  0  0  0  0
 14  1  1  0  0  0  0
 15 20  1  0  0  0  0
 16 12  1  6  0  0  0
 16  5  1  0  0  0  0
 16 17  1  0  0  0  0
 17  6  1  0  0  0  0
 18 13  1  0  0  0  0
 19  3  2  0  0  0  0
 20 19  1  0  0  0  0
 20 11  2  0  0  0  0
 21 22  2  0  0  0  0
 22 25  1  0  0  0  0
 22 23  1  0  0  0  0
 25 24  1  1  0  0  0
 27 25  1  0  0  0  0
 27 26  1  0  0  0  0
 28 27  1  0  0  0  0
 29 31  1  6  0  0  0
 29 28  1  0  0  0  0
 30 29  1  0  0  0  0
M  END
>  <MODEL>
7

>  <REMARK>
 VINA RESULT:      -6.8      1.593      2.853
  Name = 
  5 active torsions:
  status: ('A' for Active; 'I' for Inactive)
    1  A    between atoms: C_1  and  C_24
    2  A    between atoms: C_9  and  C_22
    3  A    between atoms: C_15  and  N_23
    4  A    between atoms: N_19  and  C_22
    5  A    between atoms: N_19  and  C_24
                            x       y       z     vdW  Elec       q    Type
                         _______ _______ _______ _____ _____    ______ ____

>  <TORSDO>
F 5

$$$$
=
 OpenBabel11052417583D

 31 34  0  0  1  0  0  0  0  0999 V2000
  186.4440  177.4900  145.0620 C   0  0  1  0  0  3  0  0  0  0  0  0
  189.6680  175.7970  143.8420 C   0  0  0  0  0  0  0  0  0  0  0  0
  190.6800  175.6710  144.8240 C   0  0  0  0  0  0  0  0  0  0  0  0
  191.7260  176.4150  146.8900 C   0  0  0  0  0  3  0  0  0  0  0  0
  188.6000  176.8610  143.9870 C   0  0  2  0  0  3  0  0  0  0  0  0
  185.8150  177.5280  143.8050 O   0  0  0  0  0  0  0  0  0  0  0  0
  190.7290  176.5440  145.9230 C   0  0  0  0  0  3  0  0  0  0  0  0
  188.6680  175.0610  141.6010 C   0  0  1  0  0  3  0  0  0  0  0  0
  185.5100  177.1440  146.0370 O   0  0  0  0  0  1  0  0  0  0  0  0
  191.6300  173.7930  143.6050 C   0  0  0  0  0  3  0  0  0  0  0  0
  192.6900  175.4140  146.7720 C   0  0  0  0  0  3  0  0  0  0  0  0
  187.4630  175.9260  141.9620 C   0  0  0  0  0  2  0  0  0  0  0  0
  189.6450  174.8990  142.7460 C   0  0  0  0  0  0  0  0  0  0  0  0
  187.5690  176.4580  145.0470 C   0  0  0  0  0  2  0  0  0  0  0  0
  193.7230  173.4810  145.6090 C   0  0  0  0  0  1  0  0  0  0  0  0
  187.9200  177.2030  142.6520 C   0  0  1  0  0  3  0  0  0  0  0  0
  186.7240  178.1260  142.9110 C   0  0  0  0  0  2  0  0  0  0  0  0
  190.6410  173.9220  142.6350 C   0  0  0  0  0  3  0  0  0  0  0  0
  191.6630  174.6560  144.7050 C   0  0  0  0  0  0  0  0  0  0  0  0
  192.6670  174.5330  145.6880 C   0  0  0  0  0  0  0  0  0  0  0  0
  187.7840  172.2420  139.4300 O   0  0  0  0  0  0  0  0  0  0  0  0
  188.3200  173.3280  139.7780 C   0  0  0  0  0  0  0  0  0  0  0  0
  188.1990  173.7610  141.1340 N   0  0  0  0  0  2  0  0  0  0  0  0
  190.4790  173.6680  138.5290 C   0  0  0  0  0  1  0  0  0  0  0  0
  189.0480  174.1650  138.7630 C   0  0  1  0  0  3  0  0  0  0  0  0
  189.1280  174.4900  136.3690 C   0  0  0  0  0  1  0  0  0  0  0  0
  188.2580  174.3260  137.5300 N   0  0  0  0  0  0  0  0  0  0  0  0
  187.4420  175.5310  137.6320 C   0  0  0  0  0  2  0  0  0  0  0  0
  187.0610  176.0350  136.2500 C   0  0  2  0  0  3  0  0  0  0  0  0
  187.5410  177.3340  136.0860 O   0  0  0  0  0  1  0  0  0  0  0  0
  185.5530  176.0410  136.0950 C   0  0  0  0  0  1  0  0  0  0  0  0
  1  9  1  1  0  0  0
  2  5  1  0  0  0  0
  2  3  1  0  0  0  0
  3  7  1  0  0  0  0
  5 14  1  1  0  0  0
  6  1  1  0  0  0  0
  7  4  2  0  0  0  0
  8 23  1  1  0  0  0
  8 12  1  0  0  0  0
  8 13  1  0  0  0  0
 10 19  1  0  0  0  0
 11  4  1  0  0  0  0
 13  2  2  0  0  0  0
 14  1  1  0  0  0  0
 15 20  1  0  0  0  0
 16 12  1  1  0  0  0
 16 17  1  0  0  0  0
 16  5  1  0  0  0  0
 17  6  1  0  0  0  0
 18 13  1  0  0  0  0
 18 10  2  0  0  0  0
 19  3  2  0  0  0  0
 19 20  1  0  0  0  0
 20 11  2  0  0  0  0
 21 22  2  0  0  0  0
 22 23  1  0  0  0  0
 25 24  1  6  0  0  0
 25 22  1  0  0  0  0
 26 27  1  0  0  0  0
 27 28  1  0  0  0  0
 27 25  1  0  0  0  0
 29 31  1  1  0  0  0
 29 28  1  0  0  0  0
 30 29  1  0  0  0  0
M  END
>  <MODEL>
8

>  <REMARK>
 VINA RESULT:      -6.7      3.601      6.782
  Name = 
  5 active torsions:
  status: ('A' for Active; 'I' for Inactive)
    1  A    between atoms: C_1  and  C_24
    2  A    between atoms: C_9  and  C_22
    3  A    between atoms: C_15  and  N_23
    4  A    between atoms: N_19  and  C_22
    5  A    between atoms: N_19  and  C_24
                            x       y       z     vdW  Elec       q    Type
                         _______ _______ _______ _____ _____    ______ ____

>  <TORSDO>
F 5

$$$$
=
 OpenBabel11052417583D

 31 34  0  0  1  0  0  0  0  0999 V2000
  191.7950  176.2510  145.3430 C   0  0  1  0  0  3  0  0  0  0  0  0
  188.0270  176.2610  144.6010 C   0  0  0  0  0  0  0  0  0  0  0  0
  187.2600  177.1070  145.4380 C   0  0  0  0  0  0  0  0  0  0  0  0
  186.9570  178.2910  147.5410 C   0  0  0  0  0  3  0  0  0  0  0  0
  189.3720  175.7480  145.0720 C   0  0  2  0  0  3  0  0  0  0  0  0
  192.1200  175.2340  144.4280 O   0  0  0  0  0  0  0  0  0  0  0  0
  187.7140  177.4550  146.7200 C   0  0  0  0  0  3  0  0  0  0  0  0
  188.2510  174.9330  142.4220 C   0  0  1  0  0  3  0  0  0  0  0  0
  192.7670  177.2490  145.2930 O   0  0  0  0  0  1  0  0  0  0  0  0
  185.5480  177.2590  143.7160 C   0  0  0  0  0  3  0  0  0  0  0  0
  185.7340  178.7900  147.0930 C   0  0  0  0  0  3  0  0  0  0  0  0
  189.7100  174.7140  142.8170 C   0  0  0  0  0  2  0  0  0  0  0  0
  187.5410  175.9310  143.3110 C   0  0  0  0  0  0  0  0  0  0  0  0
  190.4340  176.8480  144.9910 C   0  0  0  0  0  2  0  0  0  0  0  0
  183.9400  179.0180  145.3940 C   0  0  0  0  0  1  0  0  0  0  0  0
  189.8200  174.4860  144.3170 C   0  0  1  0  0  3  0  0  0  0  0  0
  191.2650  174.1490  144.7010 C   0  0  0  0  0  2  0  0  0  0  0  0
  186.2970  176.4210  142.8970 C   0  0  0  0  0  3  0  0  0  0  0  0
  186.0140  177.6140  144.9860 C   0  0  0  0  0  0  0  0  0  0  0  0
  185.2560  178.4590  145.8230 C   0  0  0  0  0  0  0  0  0  0  0  0
  188.5070  174.9380  138.7650 O   0  0  0  0  0  0  0  0  0  0  0  0
  188.4610  174.4700  139.9340 C   0  0  0  0  0  0  0  0  0  0  0  0
  188.1940  175.3520  141.0260 N   0  0  0  0  0  2  0  0  0  0  0  0
  188.1910  172.1410  139.0190 C   0  0  0  0  0  1  0  0  0  0  0  0
  188.7170  173.0070  140.1690 C   0  0  1  0  0  3  0  0  0  0  0  0
  191.0240  173.3570  139.5350 C   0  0  0  0  0  1  0  0  0  0  0  0
  190.1260  172.7550  140.5170 N   0  0  0  0  0  0  0  0  0  0  0  0
  190.3770  171.3180  140.5090 C   0  0  0  0  0  2  0  0  0  0  0  0
  190.6740  170.8210  141.9150 C   0  0  2  0  0  3  0  0  0  0  0  0
  189.6930  171.2930  142.7860 O   0  0  0  0  0  1  0  0  0  0  0  0
  192.0280  171.3270  142.3700 C   0  0  0  0  0  1  0  0  0  0  0  0
  1  9  1  6  0  0  0
  2  5  1  0  0  0  0
  2  3  1  0  0  0  0
  3  7  1  0  0  0  0
  5 14  1  6  0  0  0
  6 17  1  0  0  0  0
  6  1  1  0  0  0  0
  7  4  2  0  0  0  0
  8 23  1  6  0  0  0
  8 12  1  0  0  0  0
  8 13  1  0  0  0  0
 10 19  1  0  0  0  0
 11  4  1  0  0  0  0
 13  2  2  0  0  0  0
 14  1  1  0  0  0  0
 15 20  1  0  0  0  0
 16 12  1  6  0  0  0
 16 17  1  0  0  0  0
 16  5  1  0  0  0  0
 18 13  1  0  0  0  0
 18 10  2  0  0  0  0
 19  3  2  0  0  0  0
 19 20  1  0  0  0  0
 20 11  2  0  0  0  0
 21 22  2  0  0  0  0
 22 25  1  0  0  0  0
 22 23  1  0  0  0  0
 25 24  1  6  0  0  0
 25 27  1  0  0  0  0
 26 27  1  0  0  0  0
 28 27  1  0  0  0  0
 28 29  1  0  0  0  0
 29 31  1  1  0  0  0
 29 30  1  0  0  0  0
M  END
>  <MODEL>
9

>  <REMARK>
 VINA RESULT:      -6.7      2.082      2.960
  Name = 
  5 active torsions:
  status: ('A' for Active; 'I' for Inactive)
    1  A    between atoms: C_1  and  C_24
    2  A    between atoms: C_9  and  C_22
    3  A    between atoms: C_15  and  N_23
    4  A    between atoms: N_19  and  C_22
    5  A    between atoms: N_19  and  C_24
                            x       y       z     vdW  Elec       q    Type
                         _______ _______ _______ _____ _____    ______ ____

>  <TORSDO>
F 5

$$$$
