=
 OpenBabel11052421053D

 43 47  0  0  1  0  0  0  0  0999 V2000
  190.6360  175.5850  147.0510 C   0  0  0  0  0  0  0  0  0  0  0  0
  189.1580  176.8330  142.4410 C   0  0  0  0  0  0  0  0  0  0  0  0
  190.5450  176.6170  144.8040 C   0  0  0  0  0  0  0  0  0  0  0  0
  189.7500  174.4560  146.5810 C   0  0  0  0  0  2  0  0  0  0  0  0
  190.8450  175.7320  148.3060 N   0  0  0  0  0  2  0  0  0  0  0  0
  189.8180  175.5140  144.3180 C   0  0  0  0  0  0  0  0  0  0  0  0
  191.3220  176.5060  146.0800 C   0  0  0  0  0  2  0  0  0  0  0  0
  189.8390  174.2180  145.0700 C   0  0  0  0  0  2  0  0  0  0  0  0
  188.3120  174.6730  142.3770 C   0  0  0  0  0  2  0  0  0  0  0  0
  189.1320  175.6570  143.1130 C   0  0  0  0  0  0  0  0  0  0  0  0
  189.8640  177.9040  142.8920 N   0  0  0  0  0  0  0  0  0  0  0  0
  188.3430  176.7560  141.2160 C   0  0  1  0  0  3  0  0  0  0  0  0
  187.8130  175.3710  141.1710 N   0  0  0  0  0  0  0  0  0  0  0  0
  190.5610  177.8130  144.0620 C   0  0  0  0  0  3  0  0  0  0  0  0
  187.5740  175.0030  138.7100 C   0  0  0  0  0  1  0  0  0  0  0  0
  188.3300  174.6530  139.9930 C   0  0  2  0  0  3  0  0  0  0  0  0
  188.2670  173.1390  140.2120 C   0  0  0  0  0  2  0  0  0  0  0  0
  189.3660  172.4160  139.4400 C   0  0  0  0  0  2  0  0  0  0  0  0
  190.6210  173.1470  139.5480 N   0  0  0  0  0  0  0  0  0  0  0  0
  191.1890  173.2730  138.2160 C   0  0  0  0  0  1  0  0  0  0  0  0
  191.6000  172.4760  140.4240 C   0  0  0  0  0  2  0  0  0  0  0  0
  191.5240  172.7800  141.9380 C   0  0  2  0  0  3  0  0  0  0  0  0
  193.1890  174.6090  142.5050 C   0  0  0  0  0  0  0  0  0  0  0  0
  192.8030  173.2320  142.4720 N   0  0  0  0  0  2  0  0  0  0  0  0
  192.4450  175.4860  141.9850 O   0  0  0  0  0  0  0  0  0  0  0  0
  194.4520  174.9900  143.1520 C   0  0  0  0  0  0  0  0  0  0  0  0
  196.4800  176.4030  143.3130 C   0  0  0  0  0  2  0  0  0  0  0  0
  196.1460  174.6040  144.9940 C   0  0  0  0  0  2  0  0  0  0  0  0
  197.1450  175.2270  144.0220 C   0  0  0  0  0  2  0  0  0  0  0  0
  194.9230  174.2410  144.2820 N   0  0  0  0  0  2  0  0  0  0  0  0
  195.1990  175.9830  142.6510 C   0  0  0  0  0  3  0  0  0  0  0  0
  190.9970  171.5910  142.7370 C   0  0  0  0  0  2  0  0  0  0  0  0
  192.4820  170.1140  143.8910 O   0  0  0  0  0  1  0  0  0  0  0  0
  191.8310  171.3430  143.9840 C   0  0  0  0  0  2  0  0  0  0  0  0
  187.1830  177.7370  141.3180 C   0  0  0  0  0  2  0  0  0  0  0  0
  186.1140  177.1550  142.0540 O   0  0  0  0  0  0  0  0  0  0  0  0
  185.0690  179.1990  144.9780 C   0  0  0  0  0  3  0  0  0  0  0  0
  185.5970  176.9510  145.7020 C   0  0  0  0  0  3  0  0  0  0  0  0
  185.1800  178.2520  145.9990 C   0  0  0  0  0  0  0  0  0  0  0  0
  185.3770  178.8460  143.6630 C   0  0  0  0  0  3  0  0  0  0  0  0
  185.8000  177.5410  143.3600 C   0  0  0  0  0  0  0  0  0  0  0  0
  184.8560  178.6280  147.4000 C   0  0  0  0  0  1  0  0  0  0  0  0
  185.9080  176.5970  144.3860 C   0  0  0  0  0  3  0  0  0  0  0  0
  1  5  2  0  0  0  0
  2 11  2  0  0  0  0
  2 10  1  0  0  0  0
  3  7  1  0  0  0  0
  4  1  1  0  0  0  0
  6  3  1  0  0  0  0
  6  8  1  0  0  0  0
  7  1  1  0  0  0  0
  8  4  1  0  0  0  0
  9 10  1  0  0  0  0
 10  6  2  0  0  0  0
 11 14  1  0  0  0  0
 12 35  1  1  0  0  0
 12  2  1  0  0  0  0
 13 12  1  0  0  0  0
 13  9  1  0  0  0  0
 14  3  2  0  0  0  0
 16 15  1  6  0  0  0
 16 17  1  0  0  0  0
 16 13  1  0  0  0  0
 18 19  1  0  0  0  0
 18 17  1  0  0  0  0
 19 21  1  0  0  0  0
 20 19  1  0  0  0  0
 22 21  1  6  0  0  0
 22 24  1  0  0  0  0
 22 32  1  0  0  0  0
 23 26  1  0  0  0  0
 24 23  1  0  0  0  0
 25 23  2  0  0  0  0
 26 30  1  0  0  0  0
 27 29  1  0  0  0  0
 29 28  1  0  0  0  0
 30 28  1  0  0  0  0
 31 26  2  0  0  0  0
 31 27  1  0  0  0  0
 32 34  1  0  0  0  0
 33 34  1  0  0  0  0
 35 36  1  0  0  0  0
 36 41  1  0  0  0  0
 37 39  1  0  0  0  0
 38 39  2  0  0  0  0
 39 42  1  0  0  0  0
 40 37  2  0  0  0  0
 41 40  1  0  0  0  0
 41 43  2  0  0  0  0
 43 38  1  0  0  0  0
M  END
>  <MODEL>
1

>  <REMARK>
 VINA RESULT:      -6.8      0.000      0.000
  Name = 
  13 active torsions:
  status: ('A' for Active; 'I' for Inactive)
    1  A    between atoms: C_1  and  O_28
    2  A    between atoms: C_1  and  C_34
    3  A    between atoms: C_2  and  C_6
    4  A    between atoms: C_2  and  C_13
    5  A    between atoms: C_3  and  C_4
    6  A    between atoms: C_3  and  N_12
    7  A    between atoms: C_4  and  C_15
    8  A    between atoms: C_4  and  N_22
    9  A    between atoms: C_6  and  N_12
   10  A    between atoms: C_11  and  C_14
   11  A    between atoms: C_13  and  N_38
   12  A    between atoms: C_15  and  C_42
   13  A    between atoms: O_28  and  C_35
                            x       y       z     vdW  Elec       q    Type
                         _______ _______ _______ _____ _____    ______ ____

>  <TORSDO>
F 13

$$$$
=
 OpenBabel11052421053D

 43 47  0  0  1  0  0  0  0  0999 V2000
  184.8970  178.5610  145.5090 C   0  0  0  0  0  0  0  0  0  0  0  0
  189.1910  176.0520  145.0060 C   0  0  0  0  0  0  0  0  0  0  0  0
  187.1510  177.8750  144.7520 C   0  0  0  0  0  0  0  0  0  0  0  0
  185.0890  177.8070  146.8020 C   0  0  0  0  0  2  0  0  0  0  0  0
  183.7260  178.9750  145.1960 N   0  0  0  0  0  2  0  0  0  0  0  0
  187.3920  177.2670  145.9990 C   0  0  0  0  0  0  0  0  0  0  0  0
  186.0550  178.8870  144.6060 C   0  0  0  0  0  2  0  0  0  0  0  0
  186.5630  177.6480  147.1870 C   0  0  0  0  0  2  0  0  0  0  0  0
  188.9160  175.5870  147.2630 C   0  0  0  0  0  2  0  0  0  0  0  0
  188.4400  176.3520  146.0930 C   0  0  0  0  0  0  0  0  0  0  0  0
  188.9780  176.6380  143.7980 N   0  0  0  0  0  0  0  0  0  0  0  0
  190.2150  175.0450  145.3380 C   0  0  1  0  0  3  0  0  0  0  0  0
  190.0450  174.7590  146.7830 N   0  0  0  0  0  0  0  0  0  0  0  0
  187.9700  177.5480  143.6550 C   0  0  0  0  0  3  0  0  0  0  0  0
  191.1110  176.5470  148.1670 C   0  0  0  0  0  1  0  0  0  0  0  0
  191.2440  175.1580  147.5390 C   0  0  2  0  0  3  0  0  0  0  0  0
  192.4840  175.1340  146.6420 C   0  0  0  0  0  2  0  0  0  0  0  0
  193.3220  176.3960  146.8110 C   0  0  0  0  0  2  0  0  0  0  0  0
  194.6530  176.1950  146.2530 N   0  0  0  0  0  0  0  0  0  0  0  0
  194.9460  177.3070  145.3640 C   0  0  0  0  0  1  0  0  0  0  0  0
  194.7730  174.9340  145.4990 C   0  0  0  0  0  2  0  0  0  0  0  0
  195.8000  174.8910  144.3440 C   0  0  2  0  0  3  0  0  0  0  0  0
  194.6340  174.8930  142.0910 C   0  0  0  0  0  0  0  0  0  0  0  0
  195.2750  174.2060  143.1690 N   0  0  0  0  0  2  0  0  0  0  0  0
  194.4280  176.1350  142.1670 O   0  0  0  0  0  0  0  0  0  0  0  0
  194.2250  174.1410  140.8960 C   0  0  0  0  0  0  0  0  0  0  0  0
  193.8320  172.0160  139.6850 C   0  0  0  0  0  2  0  0  0  0  0  0
  193.3860  174.1580  138.5070 C   0  0  0  0  0  2  0  0  0  0  0  0
  194.0730  172.7990  138.3980 C   0  0  0  0  0  2  0  0  0  0  0  0
  193.8480  174.8500  139.7070 N   0  0  0  0  0  2  0  0  0  0  0  0
  194.2700  172.8020  140.8880 C   0  0  0  0  0  3  0  0  0  0  0  0
  197.1280  174.2750  144.7780 C   0  0  0  0  0  2  0  0  0  0  0  0
  197.2050  172.1340  145.8410 O   0  0  0  0  0  1  0  0  0  0  0  0
  196.9830  173.4920  146.0730 C   0  0  0  0  0  2  0  0  0  0  0  0
  189.9540  173.7760  144.5370 C   0  0  0  0  0  2  0  0  0  0  0  0
  190.9760  173.5940  143.5660 O   0  0  0  0  0  0  0  0  0  0  0  0
  190.4800  171.2280  140.7410 C   0  0  0  0  0  3  0  0  0  0  0  0
  190.1690  173.5000  139.9650 C   0  0  0  0  0  3  0  0  0  0  0  0
  190.1950  172.1260  139.7090 C   0  0  0  0  0  0  0  0  0  0  0  0
  190.7420  171.7050  142.0270 C   0  0  0  0  0  3  0  0  0  0  0  0
  190.7200  173.0850  142.2890 C   0  0  0  0  0  0  0  0  0  0  0  0
  189.9210  171.6200  138.3380 C   0  0  0  0  0  1  0  0  0  0  0  0
  190.4330  173.9790  141.2520 C   0  0  0  0  0  3  0  0  0  0  0  0
  1  4  1  0  0  0  0
  2 12  1  0  0  0  0
  2 10  1  0  0  0  0
  3  6  1  0  0  0  0
  4  8  1  0  0  0  0
  5  1  2  0  0  0  0
  6 10  2  0  0  0  0
  6  8  1  0  0  0  0
  7  3  1  0  0  0  0
  7  1  1  0  0  0  0
 10  9  1  0  0  0  0
 11  2  2  0  0  0  0
 12 35  1  6  0  0  0
 12 13  1  0  0  0  0
 13  9  1  0  0  0  0
 13 16  1  0  0  0  0
 14 11  1  0  0  0  0
 14  3  2  0  0  0  0
 16 15  1  6  0  0  0
 17 18  1  0  0  0  0
 17 16  1  0  0  0  0
 19 18  1  0  0  0  0
 20 19  1  0  0  0  0
 21 19  1  0  0  0  0
 22 32  1  1  0  0  0
 22 21  1  0  0  0  0
 23 25  2  0  0  0  0
 23 24  1  0  0  0  0
 24 22  1  0  0  0  0
 26 23  1  0  0  0  0
 27 31  1  0  0  0  0
 28 30  1  0  0  0  0
 29 28  1  0  0  0  0
 29 27  1  0  0  0  0
 30 26  1  0  0  0  0
 31 26  2  0  0  0  0
 32 34  1  0  0  0  0
 33 34  1  0  0  0  0
 36 35  1  0  0  0  0
 37 40  1  0  0  0  0
 38 43  2  0  0  0  0
 39 38  1  0  0  0  0
 39 37  2  0  0  0  0
 40 41  2  0  0  0  0
 41 36  1  0  0  0  0
 42 39  1  0  0  0  0
 43 41  1  0  0  0  0
M  END
>  <MODEL>
2

>  <REMARK>
 VINA RESULT:      -6.6      2.219      6.594
  Name = 
  13 active torsions:
  status: ('A' for Active; 'I' for Inactive)
    1  A    between atoms: C_1  and  O_28
    2  A    between atoms: C_1  and  C_34
    3  A    between atoms: C_2  and  C_6
    4  A    between atoms: C_2  and  C_13
    5  A    between atoms: C_3  and  C_4
    6  A    between atoms: C_3  and  N_12
    7  A    between atoms: C_4  and  C_15
    8  A    between atoms: C_4  and  N_22
    9  A    between atoms: C_6  and  N_12
   10  A    between atoms: C_11  and  C_14
   11  A    between atoms: C_13  and  N_38
   12  A    between atoms: C_15  and  C_42
   13  A    between atoms: O_28  and  C_35
                            x       y       z     vdW  Elec       q    Type
                         _______ _______ _______ _____ _____    ______ ____

>  <TORSDO>
F 13

$$$$
=
 OpenBabel11052421053D

 43 47  0  0  1  0  0  0  0  0999 V2000
  190.8480  176.0620  147.1470 C   0  0  0  0  0  0  0  0  0  0  0  0
  189.0730  176.5690  142.5010 C   0  0  0  0  0  0  0  0  0  0  0  0
  190.4840  176.8770  144.8390 C   0  0  0  0  0  0  0  0  0  0  0  0
  190.2740  174.7160  146.7750 C   0  0  0  0  0  2  0  0  0  0  0  0
  191.0200  176.3450  148.3850 N   0  0  0  0  0  2  0  0  0  0  0  0
  190.0570  175.5950  144.4460 C   0  0  0  0  0  0  0  0  0  0  0  0
  191.2720  177.0560  146.1020 C   0  0  0  0  0  2  0  0  0  0  0  0
  190.4100  174.4030  145.2820 C   0  0  0  0  0  2  0  0  0  0  0  0
  188.8010  174.2670  142.6020 C   0  0  0  0  0  2  0  0  0  0  0  0
  189.3500  175.4750  143.2500 C   0  0  0  0  0  0  0  0  0  0  0  0
  189.4870  177.8120  142.8630 N   0  0  0  0  0  0  0  0  0  0  0  0
  188.2950  176.2020  141.3050 C   0  0  1  0  0  3  0  0  0  0  0  0
  188.1340  174.7290  141.3640 N   0  0  0  0  0  0  0  0  0  0  0  0
  190.1920  177.9830  144.0190 C   0  0  0  0  0  3  0  0  0  0  0  0
  188.0400  172.8720  139.6940 C   0  0  0  0  0  1  0  0  0  0  0  0
  188.8090  174.0830  140.2250 C   0  0  2  0  0  3  0  0  0  0  0  0
  190.2240  173.6460  140.6100 C   0  0  0  0  0  2  0  0  0  0  0  0
  191.0380  173.2410  139.3860 C   0  0  0  0  0  2  0  0  0  0  0  0
  191.7480  171.9950  139.6440 N   0  0  0  0  0  0  0  0  0  0  0  0
  191.0810  170.9310  138.9110 C   0  0  0  0  0  1  0  0  0  0  0  0
  191.7840  171.6420  141.0750 C   0  0  0  0  0  2  0  0  0  0  0  0
  193.1730  171.4360  141.7220 C   0  0  2  0  0  3  0  0  0  0  0  0
  193.5800  172.8700  143.7750 C   0  0  0  0  0  0  0  0  0  0  0  0
  193.6650  172.6490  142.3640 N   0  0  0  0  0  2  0  0  0  0  0  0
  192.9880  172.0340  144.5110 O   0  0  0  0  0  0  0  0  0  0  0  0
  194.1910  174.0750  144.3550 C   0  0  0  0  0  0  0  0  0  0  0  0
  194.6030  175.6130  146.2520 C   0  0  0  0  0  2  0  0  0  0  0  0
  195.6390  176.1300  144.0540 C   0  0  0  0  0  2  0  0  0  0  0  0
  194.8280  176.7060  145.2120 C   0  0  0  0  0  2  0  0  0  0  0  0
  194.9690  174.9460  143.5220 N   0  0  0  0  0  2  0  0  0  0  0  0
  193.9670  174.4000  145.6350 C   0  0  0  0  0  3  0  0  0  0  0  0
  194.1980  170.9020  140.7240 C   0  0  0  0  0  2  0  0  0  0  0  0
  195.0040  172.4600  139.0990 O   0  0  0  0  0  1  0  0  0  0  0  0
  195.2400  171.9530  140.3770 C   0  0  0  0  0  2  0  0  0  0  0  0
  186.9260  176.8640  141.3690 C   0  0  0  0  0  2  0  0  0  0  0  0
  186.2080  176.3920  142.5020 O   0  0  0  0  0  0  0  0  0  0  0  0
  185.8090  179.2060  144.8980 C   0  0  0  0  0  3  0  0  0  0  0  0
  186.1370  177.1390  146.1150 C   0  0  0  0  0  3  0  0  0  0  0  0
  185.9280  178.5220  146.1100 C   0  0  0  0  0  0  0  0  0  0  0  0
  185.9010  178.5080  143.6920 C   0  0  0  0  0  3  0  0  0  0  0  0
  186.1140  177.1190  143.6910 C   0  0  0  0  0  0  0  0  0  0  0  0
  185.8350  179.2640  147.3950 C   0  0  0  0  0  1  0  0  0  0  0  0
  186.2310  176.4400  144.9080 C   0  0  0  0  0  3  0  0  0  0  0  0
  1  5  2  0  0  0  0
  2 11  2  0  0  0  0
  2 10  1  0  0  0  0
  3  7  1  0  0  0  0
  4  1  1  0  0  0  0
  6  3  1  0  0  0  0
  6  8  1  0  0  0  0
  7  1  1  0  0  0  0
  8  4  1  0  0  0  0
  9 10  1  0  0  0  0
 10  6  2  0  0  0  0
 11 14  1  0  0  0  0
 12 13  1  0  0  0  0
 12 35  1  1  0  0  0
 12  2  1  0  0  0  0
 13  9  1  0  0  0  0
 14  3  2  0  0  0  0
 16 15  1  1  0  0  0
 16 17  1  0  0  0  0
 16 13  1  0  0  0  0
 18 19  1  0  0  0  0
 18 17  1  0  0  0  0
 19 21  1  0  0  0  0
 20 19  1  0  0  0  0
 21 22  1  0  0  0  0
 22 32  1  6  0  0  0
 22 24  1  0  0  0  0
 23 26  1  0  0  0  0
 23 25  2  0  0  0  0
 24 23  1  0  0  0  0
 26 31  2  0  0  0  0
 28 29  1  0  0  0  0
 29 27  1  0  0  0  0
 30 28  1  0  0  0  0
 30 26  1  0  0  0  0
 31 27  1  0  0  0  0
 33 34  1  0  0  0  0
 34 32  1  0  0  0  0
 35 36  1  0  0  0  0
 36 41  1  0  0  0  0
 37 39  1  0  0  0  0
 39 38  2  0  0  0  0
 39 42  1  0  0  0  0
 40 37  2  0  0  0  0
 41 40  1  0  0  0  0
 41 43  2  0  0  0  0
 43 38  1  0  0  0  0
M  END
>  <MODEL>
3

>  <REMARK>
 VINA RESULT:      -6.6      1.576      2.038
  Name = 
  13 active torsions:
  status: ('A' for Active; 'I' for Inactive)
    1  A    between atoms: C_1  and  O_28
    2  A    between atoms: C_1  and  C_34
    3  A    between atoms: C_2  and  C_6
    4  A    between atoms: C_2  and  C_13
    5  A    between atoms: C_3  and  C_4
    6  A    between atoms: C_3  and  N_12
    7  A    between atoms: C_4  and  C_15
    8  A    between atoms: C_4  and  N_22
    9  A    between atoms: C_6  and  N_12
   10  A    between atoms: C_11  and  C_14
   11  A    between atoms: C_13  and  N_38
   12  A    between atoms: C_15  and  C_42
   13  A    between atoms: O_28  and  C_35
                            x       y       z     vdW  Elec       q    Type
                         _______ _______ _______ _____ _____    ______ ____

>  <TORSDO>
F 13

$$$$
=
 OpenBabel11052421053D

 43 47  0  0  1  0  0  0  0  0999 V2000
  184.9170  178.6480  145.0410 C   0  0  0  0  0  0  0  0  0  0  0  0
  189.1170  175.9690  144.6150 C   0  0  0  0  0  0  0  0  0  0  0  0
  187.1040  177.8040  144.2480 C   0  0  0  0  0  0  0  0  0  0  0  0
  185.1740  178.0610  146.4080 C   0  0  0  0  0  2  0  0  0  0  0  0
  183.7380  179.0520  144.7480 N   0  0  0  0  0  2  0  0  0  0  0  0
  187.4100  177.3540  145.5470 C   0  0  0  0  0  0  0  0  0  0  0  0
  186.0230  178.8200  144.0360 C   0  0  0  0  0  2  0  0  0  0  0  0
  186.6650  177.9100  146.7220 C   0  0  0  0  0  2  0  0  0  0  0  0
  188.9740  175.8070  146.9260 C   0  0  0  0  0  2  0  0  0  0  0  0
  188.4420  176.4290  145.6960 C   0  0  0  0  0  0  0  0  0  0  0  0
  188.8400  176.4010  143.3560 N   0  0  0  0  0  0  0  0  0  0  0  0
  190.1370  174.9840  145.0140 C   0  0  1  0  0  3  0  0  0  0  0  0
  190.0520  174.8910  146.4920 N   0  0  0  0  0  0  0  0  0  0  0  0
  187.8460  177.3140  143.1560 C   0  0  0  0  0  3  0  0  0  0  0  0
  191.1050  176.5750  148.0100 C   0  0  0  0  0  1  0  0  0  0  0  0
  191.3050  175.3490  147.1170 C   0  0  2  0  0  3  0  0  0  0  0  0
  192.3550  175.6750  146.0510 C   0  0  0  0  0  2  0  0  0  0  0  0
  193.5950  174.8000  146.2020 C   0  0  0  0  0  2  0  0  0  0  0  0
  194.6220  175.2150  145.2550 N   0  0  0  0  0  0  0  0  0  0  0  0
  194.2320  176.4990  144.6960 C   0  0  0  0  0  1  0  0  0  0  0  0
  194.8090  174.2510  144.1560 C   0  0  0  0  0  2  0  0  0  0  0  0
  194.8130  174.8090  142.7140 C   0  0  2  0  0  3  0  0  0  0  0  0
  192.5320  174.5360  141.6370 C   0  0  0  0  0  0  0  0  0  0  0  0
  193.8780  174.1000  141.8480 N   0  0  0  0  0  2  0  0  0  0  0  0
  192.0810  175.5280  142.2730 O   0  0  0  0  0  0  0  0  0  0  0  0
  191.6850  173.8220  140.6700 C   0  0  0  0  0  0  0  0  0  0  0  0
  191.3820  172.2560  138.7750 C   0  0  0  0  0  2  0  0  0  0  0  0
  189.3730  173.3410  139.7560 C   0  0  0  0  0  2  0  0  0  0  0  0
  190.1010  173.0210  138.4530 C   0  0  0  0  0  2  0  0  0  0  0  0
  190.2690  174.0570  140.6610 N   0  0  0  0  0  2  0  0  0  0  0  0
  192.2330  173.0130  139.7550 C   0  0  0  0  0  3  0  0  0  0  0  0
  196.2130  174.8150  142.1030 C   0  0  0  0  0  2  0  0  0  0  0  0
  196.1370  177.0590  141.2830 O   0  0  0  0  0  1  0  0  0  0  0  0
  196.2890  175.7290  140.8910 C   0  0  0  0  0  2  0  0  0  0  0  0
  189.8000  173.6310  144.4030 C   0  0  0  0  0  2  0  0  0  0  0  0
  190.8830  172.7290  144.5860 O   0  0  0  0  0  0  0  0  0  0  0  0
  190.6290  170.2590  141.8190 C   0  0  0  0  0  3  0  0  0  0  0  0
  192.8930  170.2930  142.6750 C   0  0  0  0  0  3  0  0  0  0  0  0
  191.9430  169.7850  141.7830 C   0  0  0  0  0  0  0  0  0  0  0  0
  190.2650  171.2370  142.7470 C   0  0  0  0  0  3  0  0  0  0  0  0
  191.2150  171.7480  143.6470 C   0  0  0  0  0  0  0  0  0  0  0  0
  192.3300  168.7410  140.8000 C   0  0  0  0  0  1  0  0  0  0  0  0
  192.5290  171.2710  143.6060 C   0  0  0  0  0  3  0  0  0  0  0  0
  1  4  1  0  0  0  0
  2 12  1  0  0  0  0
  2 10  1  0  0  0  0
  3  6  1  0  0  0  0
  4  8  1  0  0  0  0
  5  1  2  0  0  0  0
  6 10  2  0  0  0  0
  6  8  1  0  0  0  0
  7  3  1  0  0  0  0
  7  1  1  0  0  0  0
 10  9  1  0  0  0  0
 11  2  2  0  0  0  0
 12 35  1  6  0  0  0
 12 13  1  0  0  0  0
 13  9  1  0  0  0  0
 13 16  1  0  0  0  0
 14 11  1  0  0  0  0
 14  3  2  0  0  0  0
 16 15  1  6  0  0  0
 17 18  1  0  0  0  0
 17 16  1  0  0  0  0
 19 18  1  0  0  0  0
 20 19  1  0  0  0  0
 21 19  1  0  0  0  0
 22 32  1  6  0  0  0
 22 21  1  0  0  0  0
 23 24  1  0  0  0  0
 23 25  2  0  0  0  0
 24 22  1  0  0  0  0
 26 23  1  0  0  0  0
 27 31  1  0  0  0  0
 28 30  1  0  0  0  0
 29 27  1  0  0  0  0
 29 28  1  0  0  0  0
 30 26  1  0  0  0  0
 31 26  2  0  0  0  0
 34 33  1  0  0  0  0
 34 32  1  0  0  0  0
 35 36  1  0  0  0  0
 37 40  1  0  0  0  0
 38 43  2  0  0  0  0
 39 37  2  0  0  0  0
 39 38  1  0  0  0  0
 40 41  2  0  0  0  0
 41 36  1  0  0  0  0
 42 39  1  0  0  0  0
 43 41  1  0  0  0  0
M  END
>  <MODEL>
4

>  <REMARK>
 VINA RESULT:      -6.5      1.970      7.004
  Name = 
  13 active torsions:
  status: ('A' for Active; 'I' for Inactive)
    1  A    between atoms: C_1  and  O_28
    2  A    between atoms: C_1  and  C_34
    3  A    between atoms: C_2  and  C_6
    4  A    between atoms: C_2  and  C_13
    5  A    between atoms: C_3  and  C_4
    6  A    between atoms: C_3  and  N_12
    7  A    between atoms: C_4  and  C_15
    8  A    between atoms: C_4  and  N_22
    9  A    between atoms: C_6  and  N_12
   10  A    between atoms: C_11  and  C_14
   11  A    between atoms: C_13  and  N_38
   12  A    between atoms: C_15  and  C_42
   13  A    between atoms: O_28  and  C_35
                            x       y       z     vdW  Elec       q    Type
                         _______ _______ _______ _____ _____    ______ ____

>  <TORSDO>
F 13

$$$$
=
 OpenBabel11052421053D

 43 47  0  0  1  0  0  0  0  0999 V2000
  187.2880  177.8020  141.9960 C   0  0  0  0  0  0  0  0  0  0  0  0
  191.9250  176.1310  142.8290 C   0  0  0  0  0  0  0  0  0  0  0  0
  189.4600  177.3190  143.0790 C   0  0  0  0  0  0  0  0  0  0  0  0
  187.4780  176.6280  141.0650 C   0  0  0  0  0  2  0  0  0  0  0  0
  186.3650  178.6540  141.7440 N   0  0  0  0  0  2  0  0  0  0  0  0
  189.5970  176.1540  142.3000 C   0  0  0  0  0  0  0  0  0  0  0  0
  188.1170  177.9640  143.2400 C   0  0  0  0  0  2  0  0  0  0  0  0
  188.3930  175.5470  141.6480 C   0  0  0  0  0  2  0  0  0  0  0  0
  191.2840  174.3610  141.4720 C   0  0  0  0  0  2  0  0  0  0  0  0
  190.8620  175.5740  142.2010 C   0  0  0  0  0  0  0  0  0  0  0  0
  191.8070  177.2490  143.5930 N   0  0  0  0  0  0  0  0  0  0  0  0
  193.1540  175.3640  142.5580 C   0  0  1  0  0  3  0  0  0  0  0  0
  192.7390  174.2270  141.7020 N   0  0  0  0  0  0  0  0  0  0  0  0
  190.5890  177.8510  143.7300 C   0  0  0  0  0  3  0  0  0  0  0  0
  192.1590  171.7960  141.7810 C   0  0  0  0  0  1  0  0  0  0  0  0
  192.9660  172.9440  142.3900 C   0  0  2  0  0  3  0  0  0  0  0  0
  192.6240  173.0600  143.8770 C   0  0  0  0  0  2  0  0  0  0  0  0
  191.5930  172.0180  144.2980 C   0  0  0  0  0  2  0  0  0  0  0  0
  190.4350  172.6680  144.8960 N   0  0  0  0  0  0  0  0  0  0  0  0
  189.3150  172.5340  143.9800 C   0  0  0  0  0  1  0  0  0  0  0  0
  190.6610  174.0990  145.1710 C   0  0  0  0  0  2  0  0  0  0  0  0
  189.9930  174.6950  146.4310 C   0  0  2  0  0  3  0  0  0  0  0  0
  187.8210  175.8900  146.9760 C   0  0  0  0  0  0  0  0  0  0  0  0
  188.9160  175.6200  146.0960 N   0  0  0  0  0  2  0  0  0  0  0  0
  187.7120  175.2560  148.0610 O   0  0  0  0  0  0  0  0  0  0  0  0
  186.8320  176.9120  146.6050 C   0  0  0  0  0  0  0  0  0  0  0  0
  185.7290  179.1030  146.9450 C   0  0  0  0  0  2  0  0  0  0  0  0
  184.9620  177.6630  145.0710 C   0  0  0  0  0  2  0  0  0  0  0  0
  184.5040  178.5020  146.2610 C   0  0  0  0  0  2  0  0  0  0  0  0
  185.9330  176.6650  145.5140 N   0  0  0  0  0  2  0  0  0  0  0  0
  186.7170  178.0370  147.3230 C   0  0  0  0  0  3  0  0  0  0  0  0
  191.0060  175.3620  147.3590 C   0  0  0  0  0  2  0  0  0  0  0  0
  193.0240  176.5410  146.8540 O   0  0  0  0  0  1  0  0  0  0  0  0
  192.4150  175.2880  146.7910 C   0  0  0  0  0  2  0  0  0  0  0  0
  194.1390  176.2390  141.7950 C   0  0  0  0  0  2  0  0  0  0  0  0
  195.4050  176.2290  142.4420 O   0  0  0  0  0  0  0  0  0  0  0  0
  195.9910  174.4310  145.6420 C   0  0  0  0  0  3  0  0  0  0  0  0
  196.6770  173.0360  143.7870 C   0  0  0  0  0  3  0  0  0  0  0  0
  196.5230  173.2310  145.1630 C   0  0  0  0  0  0  0  0  0  0  0  0
  195.6170  175.4340  144.7470 C   0  0  0  0  0  3  0  0  0  0  0  0
  195.7720  175.2440  143.3640 C   0  0  0  0  0  0  0  0  0  0  0  0
  196.9280  172.1640  146.1150 C   0  0  0  0  0  1  0  0  0  0  0  0
  196.3040  174.0420  142.8890 C   0  0  0  0  0  3  0  0  0  0  0  0
  1  7  1  0  0  0  0
  2 11  1  0  0  0  0
  3  7  1  0  0  0  0
  3 14  1  0  0  0  0
  4  8  1  0  0  0  0
  4  1  1  0  0  0  0
  5  1  2  0  0  0  0
  6  3  2  0  0  0  0
  8  6  1  0  0  0  0
  9 13  1  0  0  0  0
  9 10  1  0  0  0  0
 10  6  1  0  0  0  0
 10  2  2  0  0  0  0
 11 14  2  0  0  0  0
 12 35  1  6  0  0  0
 12  2  1  0  0  0  0
 13 16  1  0  0  0  0
 13 12  1  0  0  0  0
 16 15  1  6  0  0  0
 16 17  1  0  0  0  0
 17 18  1  0  0  0  0
 18 19  1  0  0  0  0
 19 21  1  0  0  0  0
 20 19  1  0  0  0  0
 22 21  1  6  0  0  0
 22 32  1  0  0  0  0
 23 25  2  0  0  0  0
 24 22  1  0  0  0  0
 24 23  1  0  0  0  0
 26 23  1  0  0  0  0
 26 31  2  0  0  0  0
 27 31  1  0  0  0  0
 28 30  1  0  0  0  0
 28 29  1  0  0  0  0
 29 27  1  0  0  0  0
 30 26  1  0  0  0  0
 34 33  1  0  0  0  0
 34 32  1  0  0  0  0
 35 36  1  0  0  0  0
 36 41  1  0  0  0  0
 38 39  2  0  0  0  0
 39 37  1  0  0  0  0
 39 42  1  0  0  0  0
 40 37  2  0  0  0  0
 41 40  1  0  0  0  0
 43 41  2  0  0  0  0
 43 38  1  0  0  0  0
M  END
>  <MODEL>
5

>  <REMARK>
 VINA RESULT:      -6.5      2.352      7.766
  Name = 
  13 active torsions:
  status: ('A' for Active; 'I' for Inactive)
    1  A    between atoms: C_1  and  O_28
    2  A    between atoms: C_1  and  C_34
    3  A    between atoms: C_2  and  C_6
    4  A    between atoms: C_2  and  C_13
    5  A    between atoms: C_3  and  C_4
    6  A    between atoms: C_3  and  N_12
    7  A    between atoms: C_4  and  C_15
    8  A    between atoms: C_4  and  N_22
    9  A    between atoms: C_6  and  N_12
   10  A    between atoms: C_11  and  C_14
   11  A    between atoms: C_13  and  N_38
   12  A    between atoms: C_15  and  C_42
   13  A    between atoms: O_28  and  C_35
                            x       y       z     vdW  Elec       q    Type
                         _______ _______ _______ _____ _____    ______ ____

>  <TORSDO>
F 13

$$$$
=
 OpenBabel11052421053D

 43 47  0  0  1  0  0  0  0  0999 V2000
  184.8350  178.5730  145.6740 C   0  0  0  0  0  0  0  0  0  0  0  0
  188.9780  176.0370  144.4950 C   0  0  0  0  0  0  0  0  0  0  0  0
  186.9940  177.9310  144.6490 C   0  0  0  0  0  0  0  0  0  0  0  0
  185.1020  177.6520  146.8400 C   0  0  0  0  0  2  0  0  0  0  0  0
  183.6590  179.0550  145.5170 N   0  0  0  0  0  2  0  0  0  0  0  0
  187.3110  177.1600  145.7830 C   0  0  0  0  0  0  0  0  0  0  0  0
  185.9280  178.9820  144.7260 C   0  0  0  0  0  2  0  0  0  0  0  0
  186.5950  177.4060  147.0760 C   0  0  0  0  0  2  0  0  0  0  0  0
  188.8670  175.2900  146.6900 C   0  0  0  0  0  2  0  0  0  0  0  0
  188.3280  176.2130  145.6710 C   0  0  0  0  0  0  0  0  0  0  0  0
  188.6900  176.7810  143.3950 N   0  0  0  0  0  0  0  0  0  0  0  0
  189.9860  174.9680  144.6090 C   0  0  1  0  0  3  0  0  0  0  0  0
  189.9230  174.5010  146.0150 N   0  0  0  0  0  0  0  0  0  0  0  0
  187.7100  177.7280  143.4540 C   0  0  0  0  0  3  0  0  0  0  0  0
  190.9960  175.5070  148.0370 C   0  0  0  0  0  1  0  0  0  0  0  0
  191.1930  174.7670  146.7120 C   0  0  2  0  0  3  0  0  0  0  0  0
  192.1390  175.5790  145.8240 C   0  0  0  0  0  2  0  0  0  0  0  0
  193.0070  176.5240  146.6470 C   0  0  0  0  0  2  0  0  0  0  0  0
  194.4140  176.3150  146.3360 N   0  0  0  0  0  0  0  0  0  0  0  0
  194.9530  177.5580  145.8090 C   0  0  0  0  0  1  0  0  0  0  0  0
  194.6290  175.2420  145.3470 C   0  0  0  0  0  2  0  0  0  0  0  0
  196.0900  174.9100  144.9640 C   0  0  2  0  0  3  0  0  0  0  0  0
  196.2390  175.4400  142.4870 C   0  0  0  0  0  0  0  0  0  0  0  0
  196.2120  174.5050  143.5690 N   0  0  0  0  0  2  0  0  0  0  0  0
  196.0710  176.6700  142.7110 O   0  0  0  0  0  0  0  0  0  0  0  0
  196.4680  174.9560  141.1180 C   0  0  0  0  0  0  0  0  0  0  0  0
  197.8660  174.7450  139.0850 C   0  0  0  0  0  2  0  0  0  0  0  0
  195.6210  173.6800  139.1020 C   0  0  0  0  0  2  0  0  0  0  0  0
  196.5650  174.5780  138.3050 C   0  0  0  0  0  2  0  0  0  0  0  0
  195.4320  174.2270  140.4430 N   0  0  0  0  0  2  0  0  0  0  0  0
  197.6040  175.2510  140.4750 C   0  0  0  0  0  3  0  0  0  0  0  0
  196.7000  173.8570  145.8860 C   0  0  0  0  0  2  0  0  0  0  0  0
  197.1190  171.5160  145.6350 O   0  0  0  0  0  1  0  0  0  0  0  0
  197.4120  172.7700  145.0980 C   0  0  0  0  0  2  0  0  0  0  0  0
  189.6150  173.8220  143.6780 C   0  0  0  0  0  2  0  0  0  0  0  0
  190.5310  173.7590  142.5920 O   0  0  0  0  0  0  0  0  0  0  0  0
  188.4350  174.1370  139.5440 C   0  0  0  0  0  3  0  0  0  0  0  0
  190.6480  173.3760  138.9230 C   0  0  0  0  0  3  0  0  0  0  0  0
  189.3500  173.7520  138.5610 C   0  0  0  0  0  0  0  0  0  0  0  0
  188.8160  174.1420  140.8880 C   0  0  0  0  0  3  0  0  0  0  0  0
  190.1180  173.7620  141.2570 C   0  0  0  0  0  0  0  0  0  0  0  0
  188.9450  173.7410  137.1320 C   0  0  0  0  0  1  0  0  0  0  0  0
  191.0300  173.3800  140.2680 C   0  0  0  0  0  3  0  0  0  0  0  0
  1  4  1  0  0  0  0
  2 12  1  0  0  0  0
  2 10  1  0  0  0  0
  3  7  1  0  0  0  0
  3  6  1  0  0  0  0
  4  8  1  0  0  0  0
  5  1  2  0  0  0  0
  6  8  1  0  0  0  0
  7  1  1  0  0  0  0
 10  6  2  0  0  0  0
 10  9  1  0  0  0  0
 11 14  1  0  0  0  0
 11  2  2  0  0  0  0
 12 35  1  6  0  0  0
 12 13  1  0  0  0  0
 13  9  1  0  0  0  0
 13 16  1  0  0  0  0
 14  3  2  0  0  0  0
 16 15  1  1  0  0  0
 17 18  1  0  0  0  0
 17 16  1  0  0  0  0
 19 18  1  0  0  0  0
 20 19  1  0  0  0  0
 21 19  1  0  0  0  0
 22 21  1  1  0  0  0
 22 32  1  0  0  0  0
 23 25  2  0  0  0  0
 23 24  1  0  0  0  0
 24 22  1  0  0  0  0
 26 23  1  0  0  0  0
 27 31  1  0  0  0  0
 28 30  1  0  0  0  0
 29 27  1  0  0  0  0
 29 28  1  0  0  0  0
 30 26  1  0  0  0  0
 31 26  2  0  0  0  0
 34 33  1  0  0  0  0
 34 32  1  0  0  0  0
 36 35  1  0  0  0  0
 37 40  1  0  0  0  0
 38 43  2  0  0  0  0
 39 38  1  0  0  0  0
 39 37  2  0  0  0  0
 40 41  2  0  0  0  0
 41 36  1  0  0  0  0
 42 39  1  0  0  0  0
 43 41  1  0  0  0  0
M  END
>  <MODEL>
6

>  <REMARK>
 VINA RESULT:      -6.4      2.528      6.289
  Name = 
  13 active torsions:
  status: ('A' for Active; 'I' for Inactive)
    1  A    between atoms: C_1  and  O_28
    2  A    between atoms: C_1  and  C_34
    3  A    between atoms: C_2  and  C_6
    4  A    between atoms: C_2  and  C_13
    5  A    between atoms: C_3  and  C_4
    6  A    between atoms: C_3  and  N_12
    7  A    between atoms: C_4  and  C_15
    8  A    between atoms: C_4  and  N_22
    9  A    between atoms: C_6  and  N_12
   10  A    between atoms: C_11  and  C_14
   11  A    between atoms: C_13  and  N_38
   12  A    between atoms: C_15  and  C_42
   13  A    between atoms: O_28  and  C_35
                            x       y       z     vdW  Elec       q    Type
                         _______ _______ _______ _____ _____    ______ ____

>  <TORSDO>
F 13

$$$$
=
 OpenBabel11052421053D

 43 47  0  0  1  0  0  0  0  0999 V2000
  184.7480  178.6740  144.8580 C   0  0  0  0  0  0  0  0  0  0  0  0
  189.0300  176.1090  144.5950 C   0  0  0  0  0  0  0  0  0  0  0  0
  187.0230  177.9470  144.2140 C   0  0  0  0  0  0  0  0  0  0  0  0
  184.8760  177.9470  146.1760 C   0  0  0  0  0  2  0  0  0  0  0  0
  183.5950  179.0930  144.4880 N   0  0  0  0  0  2  0  0  0  0  0  0
  187.2050  177.3650  145.4830 C   0  0  0  0  0  0  0  0  0  0  0  0
  185.9460  178.9660  143.9990 C   0  0  0  0  0  2  0  0  0  0  0  0
  186.3300  177.7820  146.6260 C   0  0  0  0  0  2  0  0  0  0  0  0
  188.6540  175.6980  146.8470 C   0  0  0  0  0  2  0  0  0  0  0  0
  188.2370  176.4420  145.6410 C   0  0  0  0  0  0  0  0  0  0  0  0
  188.8740  176.6700  143.3660 N   0  0  0  0  0  0  0  0  0  0  0  0
  190.0270  175.0990  144.9920 C   0  0  1  0  0  3  0  0  0  0  0  0
  189.7930  174.8480  146.4350 N   0  0  0  0  0  0  0  0  0  0  0  0
  187.8840  177.5870  143.1600 C   0  0  0  0  0  3  0  0  0  0  0  0
  190.8320  176.6660  147.8000 C   0  0  0  0  0  1  0  0  0  0  0  0
  190.9640  175.2510  147.2320 C   0  0  2  0  0  3  0  0  0  0  0  0
  192.2440  175.1680  146.3960 C   0  0  0  0  0  2  0  0  0  0  0  0
  193.2210  176.2820  146.7550 C   0  0  0  0  0  2  0  0  0  0  0  0
  194.1650  176.4940  145.6670 N   0  0  0  0  0  0  0  0  0  0  0  0
  193.4190  176.5440  144.4210 C   0  0  0  0  0  1  0  0  0  0  0  0
  195.1810  175.4290  145.5740 C   0  0  0  0  0  2  0  0  0  0  0  0
  195.6450  175.0100  144.1600 C   0  0  2  0  0  3  0  0  0  0  0  0
  194.6680  173.2140  142.6570 C   0  0  0  0  0  0  0  0  0  0  0  0
  195.3180  173.6200  143.8640 N   0  0  0  0  0  2  0  0  0  0  0  0
  194.2760  174.0810  141.8290 O   0  0  0  0  0  0  0  0  0  0  0  0
  194.4660  171.7830  142.3910 C   0  0  0  0  0  0  0  0  0  0  0  0
  193.7090  169.5240  143.0690 C   0  0  0  0  0  2  0  0  0  0  0  0
  194.6840  169.8230  140.8030 C   0  0  0  0  0  2  0  0  0  0  0  0
  194.7230  168.9730  142.0710 C   0  0  0  0  0  2  0  0  0  0  0  0
  194.9010  171.2270  141.1420 N   0  0  0  0  0  2  0  0  0  0  0  0
  193.9460  170.9840  143.3320 C   0  0  0  0  0  3  0  0  0  0  0  0
  197.1340  175.2710  143.9430 C   0  0  0  0  0  2  0  0  0  0  0  0
  196.2140  176.7390  142.2960 O   0  0  0  0  0  1  0  0  0  0  0  0
  197.3640  176.4700  143.0370 C   0  0  0  0  0  2  0  0  0  0  0  0
  189.7860  173.8150  144.2090 C   0  0  0  0  0  2  0  0  0  0  0  0
  190.5220  173.8400  142.9930 O   0  0  0  0  0  0  0  0  0  0  0  0
  190.5040  170.3160  141.8070 C   0  0  0  0  0  3  0  0  0  0  0  0
  191.3860  171.7560  140.0720 C   0  0  0  0  0  3  0  0  0  0  0  0
  191.0340  170.4800  140.5250 C   0  0  0  0  0  0  0  0  0  0  0  0
  190.3300  171.4260  142.6370 C   0  0  0  0  0  3  0  0  0  0  0  0
  190.6860  172.7090  142.1880 C   0  0  0  0  0  0  0  0  0  0  0  0
  191.2240  169.3000  139.6420 C   0  0  0  0  0  1  0  0  0  0  0  0
  191.2140  172.8670  140.9030 C   0  0  0  0  0  3  0  0  0  0  0  0
  1  4  1  0  0  0  0
  2 12  1  0  0  0  0
  2 10  1  0  0  0  0
  3  6  1  0  0  0  0
  4  8  1  0  0  0  0
  5  1  2  0  0  0  0
  6 10  2  0  0  0  0
  6  8  1  0  0  0  0
  7  3  1  0  0  0  0
  7  1  1  0  0  0  0
 10  9  1  0  0  0  0
 11  2  2  0  0  0  0
 12 35  1  6  0  0  0
 12 13  1  0  0  0  0
 13  9  1  0  0  0  0
 13 16  1  0  0  0  0
 14 11  1  0  0  0  0
 14  3  2  0  0  0  0
 16 15  1  6  0  0  0
 17 18  1  0  0  0  0
 17 16  1  0  0  0  0
 19 18  1  0  0  0  0
 20 19  1  0  0  0  0
 21 19  1  0  0  0  0
 22 32  1  1  0  0  0
 22 21  1  0  0  0  0
 23 24  1  0  0  0  0
 24 22  1  0  0  0  0
 25 23  2  0  0  0  0
 26 23  1  0  0  0  0
 26 31  2  0  0  0  0
 27 31  1  0  0  0  0
 28 30  1  0  0  0  0
 28 29  1  0  0  0  0
 29 27  1  0  0  0  0
 30 26  1  0  0  0  0
 33 34  1  0  0  0  0
 34 32  1  0  0  0  0
 36 35  1  0  0  0  0
 37 40  1  0  0  0  0
 38 39  1  0  0  0  0
 38 43  2  0  0  0  0
 39 37  2  0  0  0  0
 41 40  2  0  0  0  0
 41 36  1  0  0  0  0
 42 39  1  0  0  0  0
 43 41  1  0  0  0  0
M  END
>  <MODEL>
7

>  <REMARK>
 VINA RESULT:      -6.4      2.276      6.822
  Name = 
  13 active torsions:
  status: ('A' for Active; 'I' for Inactive)
    1  A    between atoms: C_1  and  O_28
    2  A    between atoms: C_1  and  C_34
    3  A    between atoms: C_2  and  C_6
    4  A    between atoms: C_2  and  C_13
    5  A    between atoms: C_3  and  C_4
    6  A    between atoms: C_3  and  N_12
    7  A    between atoms: C_4  and  C_15
    8  A    between atoms: C_4  and  N_22
    9  A    between atoms: C_6  and  N_12
   10  A    between atoms: C_11  and  C_14
   11  A    between atoms: C_13  and  N_38
   12  A    between atoms: C_15  and  C_42
   13  A    between atoms: O_28  and  C_35
                            x       y       z     vdW  Elec       q    Type
                         _______ _______ _______ _____ _____    ______ ____

>  <TORSDO>
F 13

$$$$
=
 OpenBabel11052421053D

 43 47  0  0  1  0  0  0  0  0999 V2000
  184.7810  178.1830  145.4960 C   0  0  0  0  0  0  0  0  0  0  0  0
  189.0370  175.7450  144.5300 C   0  0  0  0  0  0  0  0  0  0  0  0
  186.7270  176.6680  145.6980 C   0  0  0  0  0  0  0  0  0  0  0  0
  184.9360  178.2010  143.9940 C   0  0  0  0  0  2  0  0  0  0  0  0
  184.0100  179.0410  146.0530 N   0  0  0  0  0  2  0  0  0  0  0  0
  186.8120  176.5790  144.2950 C   0  0  0  0  0  0  0  0  0  0  0  0
  185.4650  177.1500  146.3470 C   0  0  0  0  0  2  0  0  0  0  0  0
  185.6310  176.9480  143.4520 C   0  0  0  0  0  2  0  0  0  0  0  0
  188.3500  175.8940  142.3180 C   0  0  0  0  0  2  0  0  0  0  0  0
  187.9970  176.0990  143.7370 C   0  0  0  0  0  0  0  0  0  0  0  0
  188.9660  175.8150  145.8860 N   0  0  0  0  0  0  0  0  0  0  0  0
  190.1840  175.2980  143.7200 C   0  0  1  0  0  3  0  0  0  0  0  0
  189.7390  175.3810  142.3080 N   0  0  0  0  0  0  0  0  0  0  0  0
  187.8250  176.2680  146.4820 C   0  0  0  0  0  3  0  0  0  0  0  0
  188.4660  173.8090  140.8400 C   0  0  0  0  0  1  0  0  0  0  0  0
  189.7180  174.0460  141.6870 C   0  0  2  0  0  3  0  0  0  0  0  0
  189.8140  172.9510  142.7520 C   0  0  0  0  0  2  0  0  0  0  0  0
  190.0080  171.5750  142.1250 C   0  0  0  0  0  2  0  0  0  0  0  0
  191.2100  171.5620  141.3020 N   0  0  0  0  0  0  0  0  0  0  0  0
  190.8270  171.2210  139.9420 C   0  0  0  0  0  1  0  0  0  0  0  0
  192.2150  170.5910  141.7740 C   0  0  0  0  0  2  0  0  0  0  0  0
  193.5490  171.1560  142.3160 C   0  0  2  0  0  3  0  0  0  0  0  0
  195.1310  170.0110  143.9360 C   0  0  0  0  0  0  0  0  0  0  0  0
  193.8750  170.6240  143.6340 N   0  0  0  0  0  2  0  0  0  0  0  0
  195.9850  169.8370  143.0240 O   0  0  0  0  0  0  0  0  0  0  0  0
  195.4180  169.5930  145.3160 C   0  0  0  0  0  0  0  0  0  0  0  0
  196.9820  169.2040  147.1960 C   0  0  0  0  0  2  0  0  0  0  0  0
  194.5710  168.7110  147.5330 C   0  0  0  0  0  2  0  0  0  0  0  0
  195.9870  168.1660  147.7050 C   0  0  0  0  0  2  0  0  0  0  0  0
  194.3540  169.0950  146.1400 N   0  0  0  0  0  2  0  0  0  0  0  0
  196.6730  169.6050  145.7820 C   0  0  0  0  0  3  0  0  0  0  0  0
  193.5620  172.6830  142.3340 C   0  0  0  0  0  2  0  0  0  0  0  0
  194.9180  174.6250  142.0090 O   0  0  0  0  0  1  0  0  0  0  0  0
  194.9560  173.2320  142.0790 C   0  0  0  0  0  2  0  0  0  0  0  0
  191.3560  176.2450  143.9380 C   0  0  0  0  0  2  0  0  0  0  0  0
  191.9440  176.0090  145.2110 O   0  0  0  0  0  0  0  0  0  0  0  0
  194.3750  173.2520  145.7670 C   0  0  0  0  0  3  0  0  0  0  0  0
  195.5660  175.3310  145.4260 C   0  0  0  0  0  3  0  0  0  0  0  0
  195.5780  173.9550  145.6740 C   0  0  0  0  0  0  0  0  0  0  0  0
  193.1610  173.9240  145.6160 C   0  0  0  0  0  3  0  0  0  0  0  0
  193.1430  175.3070  145.3690 C   0  0  0  0  0  0  0  0  0  0  0  0
  196.8720  173.2420  145.8400 C   0  0  0  0  0  1  0  0  0  0  0  0
  194.3500  176.0060  145.2760 C   0  0  0  0  0  3  0  0  0  0  0  0
  1  5  2  0  0  0  0
  1  7  1  0  0  0  0
  2 11  1  0  0  0  0
  3  7  1  0  0  0  0
  3 14  1  0  0  0  0
  4  1  1  0  0  0  0
  6  3  2  0  0  0  0
  8  4  1  0  0  0  0
  8  6  1  0  0  0  0
  9 10  1  0  0  0  0
 10  6  1  0  0  0  0
 10  2  2  0  0  0  0
 11 14  2  0  0  0  0
 12 35  1  6  0  0  0
 12  2  1  0  0  0  0
 13  9  1  0  0  0  0
 13 12  1  0  0  0  0
 16 15  1  1  0  0  0
 16 13  1  0  0  0  0
 16 17  1  0  0  0  0
 18 17  1  0  0  0  0
 19 21  1  0  0  0  0
 19 18  1  0  0  0  0
 20 19  1  0  0  0  0
 22 21  1  1  0  0  0
 22 32  1  0  0  0  0
 22 24  1  0  0  0  0
 23 26  1  0  0  0  0
 24 23  1  0  0  0  0
 25 23  2  0  0  0  0
 26 31  2  0  0  0  0
 26 30  1  0  0  0  0
 27 29  1  0  0  0  0
 28 29  1  0  0  0  0
 30 28  1  0  0  0  0
 31 27  1  0  0  0  0
 33 34  1  0  0  0  0
 34 32  1  0  0  0  0
 35 36  1  0  0  0  0
 36 41  1  0  0  0  0
 38 39  2  0  0  0  0
 39 37  1  0  0  0  0
 39 42  1  0  0  0  0
 40 37  2  0  0  0  0
 41 40  1  0  0  0  0
 43 41  2  0  0  0  0
 43 38  1  0  0  0  0
M  END
>  <MODEL>
8

>  <REMARK>
 VINA RESULT:      -6.3      2.935      6.103
  Name = 
  13 active torsions:
  status: ('A' for Active; 'I' for Inactive)
    1  A    between atoms: C_1  and  O_28
    2  A    between atoms: C_1  and  C_34
    3  A    between atoms: C_2  and  C_6
    4  A    between atoms: C_2  and  C_13
    5  A    between atoms: C_3  and  C_4
    6  A    between atoms: C_3  and  N_12
    7  A    between atoms: C_4  and  C_15
    8  A    between atoms: C_4  and  N_22
    9  A    between atoms: C_6  and  N_12
   10  A    between atoms: C_11  and  C_14
   11  A    between atoms: C_13  and  N_38
   12  A    between atoms: C_15  and  C_42
   13  A    between atoms: O_28  and  C_35
                            x       y       z     vdW  Elec       q    Type
                         _______ _______ _______ _____ _____    ______ ____

>  <TORSDO>
F 13

$$$$
=
 OpenBabel11052421053D

 43 47  0  0  1  0  0  0  0  0999 V2000
  185.4320  178.2610  146.8590 C   0  0  0  0  0  0  0  0  0  0  0  0
  190.0830  176.5330  146.2490 C   0  0  0  0  0  0  0  0  0  0  0  0
  187.7870  177.6320  147.2850 C   0  0  0  0  0  0  0  0  0  0  0  0
  185.3570  177.2620  145.7290 C   0  0  0  0  0  2  0  0  0  0  0  0
  184.5000  179.1320  146.9830 N   0  0  0  0  0  2  0  0  0  0  0  0
  187.6980  176.6150  146.3150 C   0  0  0  0  0  0  0  0  0  0  0  0
  186.5410  178.2240  147.8720 C   0  0  0  0  0  2  0  0  0  0  0  0
  186.3540  176.1110  145.8850 C   0  0  0  0  0  2  0  0  0  0  0  0
  189.0810  175.0070  144.8170 C   0  0  0  0  0  2  0  0  0  0  0  0
  188.8830  176.0760  145.8170 C   0  0  0  0  0  0  0  0  0  0  0  0
  190.1850  177.5070  147.1930 N   0  0  0  0  0  0  0  0  0  0  0  0
  191.1870  175.8380  145.5650 C   0  0  1  0  0  3  0  0  0  0  0  0
  190.5450  174.8540  144.6600 N   0  0  0  0  0  0  0  0  0  0  0  0
  189.0550  178.0620  147.7200 C   0  0  0  0  0  3  0  0  0  0  0  0
  192.3880  173.1830  144.8980 C   0  0  0  0  0  1  0  0  0  0  0  0
  190.8950  173.4780  145.0510 C   0  0  2  0  0  3  0  0  0  0  0  0
  190.0990  172.4620  144.2290 C   0  0  0  0  0  2  0  0  0  0  0  0
  190.9490  171.8500  143.1200 C   0  0  0  0  0  2  0  0  0  0  0  0
  190.4400  172.2520  141.8150 N   0  0  0  0  0  0  0  0  0  0  0  0
  191.4490  173.0730  141.1670 C   0  0  0  0  0  1  0  0  0  0  0  0
  189.1830  173.0190  141.9030 C   0  0  0  0  0  2  0  0  0  0  0  0
  188.7550  173.8280  140.6560 C   0  0  2  0  0  3  0  0  0  0  0  0
  188.1700  176.1670  141.4450 C   0  0  0  0  0  0  0  0  0  0  0  0
  187.7880  174.8680  140.9830 N   0  0  0  0  0  2  0  0  0  0  0  0
  189.3840  176.4280  141.6650 O   0  0  0  0  0  0  0  0  0  0  0  0
  187.1370  177.1920  141.6550 C   0  0  0  0  0  0  0  0  0  0  0  0
  186.1580  179.0690  142.9390 C   0  0  0  0  0  2  0  0  0  0  0  0
  184.9950  178.3000  140.8820 C   0  0  0  0  0  2  0  0  0  0  0  0
  184.8090  178.6610  142.3540 C   0  0  0  0  0  2  0  0  0  0  0  0
  186.0250  177.2730  140.7510 N   0  0  0  0  0  2  0  0  0  0  0  0
  187.1900  178.0000  142.7220 C   0  0  0  0  0  3  0  0  0  0  0  0
  188.2230  172.9290  139.5430 C   0  0  0  0  0  2  0  0  0  0  0  0
  188.2330  174.5040  137.7440 O   0  0  0  0  0  1  0  0  0  0  0  0
  188.8030  173.3120  138.1910 C   0  0  0  0  0  2  0  0  0  0  0  0
  191.9820  176.8400  144.7400 C   0  0  0  0  0  2  0  0  0  0  0  0
  193.2880  176.9910  145.2800 O   0  0  0  0  0  0  0  0  0  0  0  0
  195.8450  175.0530  143.4010 C   0  0  0  0  0  3  0  0  0  0  0  0
  195.9810  174.5120  145.7570 C   0  0  0  0  0  3  0  0  0  0  0  0
  196.4370  174.3390  144.4460 C   0  0  0  0  0  0  0  0  0  0  0  0
  194.7970  175.9370  143.6670 C   0  0  0  0  0  3  0  0  0  0  0  0
  194.3340  176.1120  144.9810 C   0  0  0  0  0  0  0  0  0  0  0  0
  197.5490  173.3940  144.1650 C   0  0  0  0  0  1  0  0  0  0  0  0
  194.9300  175.3960  146.0230 C   0  0  0  0  0  3  0  0  0  0  0  0
  1  5  2  0  0  0  0
  1  7  1  0  0  0  0
  2 11  1  0  0  0  0
  3 14  1  0  0  0  0
  3  7  1  0  0  0  0
  4  8  1  0  0  0  0
  4  1  1  0  0  0  0
  6  3  2  0  0  0  0
  8  6  1  0  0  0  0
  9 10  1  0  0  0  0
 10  2  2  0  0  0  0
 10  6  1  0  0  0  0
 11 14  2  0  0  0  0
 12 35  1  6  0  0  0
 12  2  1  0  0  0  0
 13  9  1  0  0  0  0
 13 16  1  0  0  0  0
 13 12  1  0  0  0  0
 16 15  1  6  0  0  0
 17 16  1  0  0  0  0
 18 17  1  0  0  0  0
 19 21  1  0  0  0  0
 19 18  1  0  0  0  0
 20 19  1  0  0  0  0
 22 32  1  6  0  0  0
 22 24  1  0  0  0  0
 22 21  1  0  0  0  0
 23 26  1  0  0  0  0
 23 25  2  0  0  0  0
 24 23  1  0  0  0  0
 26 31  2  0  0  0  0
 28 29  1  0  0  0  0
 29 27  1  0  0  0  0
 30 28  1  0  0  0  0
 30 26  1  0  0  0  0
 31 27  1  0  0  0  0
 33 34  1  0  0  0  0
 34 32  1  0  0  0  0
 35 36  1  0  0  0  0
 37 40  2  0  0  0  0
 37 39  1  0  0  0  0
 38 43  1  0  0  0  0
 39 38  2  0  0  0  0
 40 41  1  0  0  0  0
 41 36  1  0  0  0  0
 41 43  2  0  0  0  0
 42 39  1  0  0  0  0
M  END
>  <MODEL>
9

>  <REMARK>
 VINA RESULT:      -6.3      2.228      7.301
  Name = 
  13 active torsions:
  status: ('A' for Active; 'I' for Inactive)
    1  A    between atoms: C_1  and  O_28
    2  A    between atoms: C_1  and  C_34
    3  A    between atoms: C_2  and  C_6
    4  A    between atoms: C_2  and  C_13
    5  A    between atoms: C_3  and  C_4
    6  A    between atoms: C_3  and  N_12
    7  A    between atoms: C_4  and  C_15
    8  A    between atoms: C_4  and  N_22
    9  A    between atoms: C_6  and  N_12
   10  A    between atoms: C_11  and  C_14
   11  A    between atoms: C_13  and  N_38
   12  A    between atoms: C_15  and  C_42
   13  A    between atoms: O_28  and  C_35
                            x       y       z     vdW  Elec       q    Type
                         _______ _______ _______ _____ _____    ______ ____

>  <TORSDO>
F 13

$$$$
