=
 OpenBabel11052417523D

 31 33  0  0  1  0  0  0  0  0999 V2000
  185.9320  178.1310  145.7470 C   0  0  0  0  0  0  0  0  0  0  0  0
  188.3380  177.1250  145.6150 C   0  0  0  0  0  0  0  0  0  0  0  0
  184.9420  177.5740  146.7030 C   0  0  0  0  0  1  0  0  0  0  0  0
  187.1320  177.6270  145.6830 C   0  0  0  0  0  0  0  0  0  0  0  0
  188.9090  176.7480  144.2960 C   0  0  0  0  0  0  0  0  0  0  0  0
  189.8890  177.3960  143.8350 O   0  0  0  0  0  0  0  0  0  0  0  0
  188.3780  175.6100  143.4700 C   0  0  2  0  0  3  0  0  0  0  0  0
  188.9880  173.4630  142.3180 C   0  0  0  0  0  2  0  0  0  0  0  0
  189.3410  174.4170  143.4460 C   0  0  0  0  0  2  0  0  0  0  0  0
  189.0560  174.2420  141.0140 C   0  0  0  0  0  2  0  0  0  0  0  0
  188.1450  175.3680  141.0360 N   0  0  0  0  0  0  0  0  0  0  0  0
  187.8770  176.0500  142.1050 C   0  0  0  0  0  0  0  0  0  0  0  0
  185.6500  176.7560  142.5290 O   0  0  0  0  0  1  0  0  0  0  0  0
  186.7200  177.6490  140.5990 C   0  0  0  0  0  1  0  0  0  0  0  0
  186.8840  177.1700  142.0280 C   0  0  2  0  0  3  0  0  0  0  0  0
  185.5750  179.2370  144.9040 C   0  0  0  0  0  0  0  0  0  0  0  0
  185.2750  180.1630  144.1930 C   0  0  0  0  0  3  0  0  0  0  0  0
  189.0320  176.8100  146.9040 C   0  0  0  0  0  2  0  0  0  0  0  0
  189.3870  175.3330  147.0170 C   0  0  0  0  0  2  0  0  0  0  0  0
  190.8440  175.1480  147.4030 C   0  0  0  0  0  2  0  0  0  0  0  0
  191.6720  174.7800  146.1850 C   0  0  0  0  0  2  0  0  0  0  0  0
  195.3110  176.0840  142.5890 C   0  0  1  0  0  3  0  0  0  0  0  0
  192.9160  175.6980  143.3190 C   0  0  0  0  0  2  0  0  0  0  0  0
  194.6130  176.8090  146.3080 C   0  0  0  0  0  2  0  0  0  0  0  0
  193.1910  176.6370  146.8150 C   0  0  0  0  0  2  0  0  0  0  0  0
  196.3670  175.5270  141.8690 O   0  0  0  0  0  1  0  0  0  0  0  0
  192.4180  175.9970  145.6630 C   0  0  1  0  0  3  0  0  0  0  0  0
  194.0320  175.2570  142.3610 C   0  0  0  0  0  2  0  0  0  0  0  0
  194.4450  176.6030  144.8300 C   0  0  2  0  0  3  0  0  0  0  0  0
  193.4170  175.5930  144.6840 N   0  0  2  0  0  0  0  0  0  0  0  0
  195.6880  176.1680  144.0740 C   0  0  0  0  0  2  0  0  0  0  0  0
  1  3  1  0  0  0  0
  2  4  2  0  0  0  0
  2 18  1  0  0  0  0
  4  1  2  0  0  0  0
  5  2  1  0  0  0  0
  6  5  2  0  0  0  0
  7  5  1  6  0  0  0
  8  9  1  0  0  0  0
  9  7  1  0  0  0  0
 10 11  1  0  0  0  0
 10  8  1  0  0  0  0
 11 12  2  0  0  0  0
 12  7  1  0  0  0  0
 15 14  1  6  0  0  0
 15 12  1  0  0  0  0
 15 13  1  0  0  0  0
 16  1  1  0  0  0  0
 17 16  3  0  0  0  0
 18 19  1  0  0  0  0
 19 20  1  0  0  0  0
 21 20  1  0  0  0  0
 22 26  1  6  0  0  0
 22 31  1  0  0  0  0
 24 25  1  0  0  0  0
 27 21  1  1  0  0  0
 27 25  1  0  0  0  0
 28 22  1  0  0  0  0
 28 23  1  0  0  0  0
 29 31  1  1  0  0  0
 29 24  1  0  0  0  0
 30 23  1  6  0  0  0
 30 29  1  0  0  0  0
 30 27  1  0  0  0  0
M  END
>  <MODEL>
1

>  <REMARK>
 VINA RESULT:      -7.3      0.000      0.000
  Name = 
  9 active torsions:
  status: ('A' for Active; 'I' for Inactive)
    1  A    between atoms: C_2  and  C_13
    2  A    between atoms: C_4  and  C_5
    3  A    between atoms: C_4  and  C_12
    4  A    between atoms: C_9  and  C_23
    5  A    between atoms: C_12  and  C_27
    6  A    between atoms: C_15  and  C_20
    7  A    between atoms: C_15  and  C_23
    8  A    between atoms: C_20  and  C_27
    9  A    between atoms: C_30  and  C_31
                            x       y       z     vdW  Elec       q    Type
                         _______ _______ _______ _____ _____    ______ ____

>  <TORSDO>
F 9

$$$$
=
 OpenBabel11052417523D

 31 33  0  0  1  0  0  0  0  0999 V2000
  193.9670  175.7980  146.3450 C   0  0  0  0  0  0  0  0  0  0  0  0
  191.5130  174.9080  146.2890 C   0  0  0  0  0  0  0  0  0  0  0  0
  194.2420  177.2070  146.7280 C   0  0  0  0  0  1  0  0  0  0  0  0
  192.7420  175.3560  146.3180 C   0  0  0  0  0  0  0  0  0  0  0  0
  191.0180  174.1820  145.0910 C   0  0  0  0  0  0  0  0  0  0  0  0
  190.1160  173.3100  145.2220 O   0  0  0  0  0  0  0  0  0  0  0  0
  191.5400  174.4400  143.7050 C   0  0  2  0  0  3  0  0  0  0  0  0
  193.5500  174.2510  142.2110 C   0  0  0  0  0  2  0  0  0  0  0  0
  192.8460  173.6850  143.4310 C   0  0  0  0  0  2  0  0  0  0  0  0
  193.8200  175.7250  142.4740 C   0  0  0  0  0  2  0  0  0  0  0  0
  192.5850  176.4380  142.7310 N   0  0  0  0  0  0  0  0  0  0  0  0
  191.5730  175.9160  143.3460 C   0  0  0  0  0  0  0  0  0  0  0  0
  189.5750  176.7200  142.3460 O   0  0  0  0  0  1  0  0  0  0  0  0
  190.6590  178.1560  143.9030 C   0  0  0  0  0  1  0  0  0  0  0  0
  190.3250  176.7280  143.5210 C   0  0  2  0  0  3  0  0  0  0  0  0
  195.0530  174.9160  146.0230 C   0  0  0  0  0  0  0  0  0  0  0  0
  195.9680  174.1790  145.7510 C   0  0  0  0  0  3  0  0  0  0  0  0
  190.6090  175.2890  147.4210 C   0  0  0  0  0  2  0  0  0  0  0  0
  189.8170  176.5550  147.1200 C   0  0  0  0  0  2  0  0  0  0  0  0
  188.3600  176.2360  146.8400 C   0  0  0  0  0  2  0  0  0  0  0  0
  187.5450  177.5140  146.7540 C   0  0  0  0  0  2  0  0  0  0  0  0
  184.6450  177.8410  142.3540 C   0  0  1  0  0  3  0  0  0  0  0  0
  186.2240  176.6200  143.9140 C   0  0  0  0  0  2  0  0  0  0  0  0
  184.2520  178.7330  146.0810 C   0  0  0  0  0  2  0  0  0  0  0  0
  185.1380  178.0160  147.0850 C   0  0  0  0  0  2  0  0  0  0  0  0
  184.5790  178.5460  141.1540 O   0  0  0  0  0  1  0  0  0  0  0  0
  186.1410  177.2170  146.2530 C   0  0  1  0  0  3  0  0  0  0  0  0
  186.0380  177.2010  142.5050 C   0  0  0  0  0  2  0  0  0  0  0  0
  184.5780  178.0120  144.8050 C   0  0  2  0  0  3  0  0  0  0  0  0
  185.9870  177.6840  144.8830 N   0  0  2  0  0  0  0  0  0  0  0  0
  184.3100  178.7770  143.5210 C   0  0  0  0  0  2  0  0  0  0  0  0
  1  3  1  0  0  0  0
  2  4  2  0  0  0  0
  2 18  1  0  0  0  0
  4  1  2  0  0  0  0
  5  6  2  0  0  0  0
  5  2  1  0  0  0  0
  7  5  1  1  0  0  0
  8 10  1  0  0  0  0
  8  9  1  0  0  0  0
  9  7  1  0  0  0  0
 10 11  1  0  0  0  0
 11 12  2  0  0  0  0
 12 15  1  0  0  0  0
 12  7  1  0  0  0  0
 13 15  1  0  0  0  0
 15 14  1  6  0  0  0
 16  1  1  0  0  0  0
 17 16  3  0  0  0  0
 19 18  1  0  0  0  0
 20 19  1  0  0  0  0
 21 20  1  0  0  0  0
 22 26  1  6  0  0  0
 22 28  1  0  0  0  0
 22 31  1  0  0  0  0
 24 25  1  0  0  0  0
 27 21  1  1  0  0  0
 27 25  1  0  0  0  0
 28 23  1  0  0  0  0
 29 31  1  6  0  0  0
 29 30  1  0  0  0  0
 29 24  1  0  0  0  0
 30 23  1  6  0  0  0
 30 27  1  0  0  0  0
M  END
>  <MODEL>
2

>  <REMARK>
 VINA RESULT:      -7.2      2.275      7.192
  Name = 
  9 active torsions:
  status: ('A' for Active; 'I' for Inactive)
    1  A    between atoms: C_2  and  C_13
    2  A    between atoms: C_4  and  C_5
    3  A    between atoms: C_4  and  C_12
    4  A    between atoms: C_9  and  C_23
    5  A    between atoms: C_12  and  C_27
    6  A    between atoms: C_15  and  C_20
    7  A    between atoms: C_15  and  C_23
    8  A    between atoms: C_20  and  C_27
    9  A    between atoms: C_30  and  C_31
                            x       y       z     vdW  Elec       q    Type
                         _______ _______ _______ _____ _____    ______ ____

>  <TORSDO>
F 9

$$$$
=
 OpenBabel11052417523D

 31 33  0  0  1  0  0  0  0  0999 V2000
  189.6720  174.3040  144.7120 C   0  0  0  0  0  0  0  0  0  0  0  0
  190.3290  176.8030  144.3290 C   0  0  0  0  0  0  0  0  0  0  0  0
  189.5630  173.7650  146.0920 C   0  0  0  0  0  1  0  0  0  0  0  0
  190.0010  175.5510  144.5240 C   0  0  0  0  0  0  0  0  0  0  0  0
  191.4180  177.1420  143.3760 C   0  0  0  0  0  0  0  0  0  0  0  0
  191.4070  178.2610  142.7950 O   0  0  0  0  0  0  0  0  0  0  0  0
  192.5550  176.2080  143.0670 C   0  0  2  0  0  3  0  0  0  0  0  0
  193.1680  174.0190  141.9990 C   0  0  0  0  0  2  0  0  0  0  0  0
  192.1730  175.1670  142.0080 C   0  0  0  0  0  2  0  0  0  0  0  0
  193.1770  173.4030  143.3890 C   0  0  0  0  0  2  0  0  0  0  0  0
  193.5400  174.3870  144.3890 N   0  0  0  0  0  0  0  0  0  0  0  0
  193.2120  175.6380  144.3120 C   0  0  0  0  0  0  0  0  0  0  0  0
  195.0670  176.5630  145.4690 O   0  0  0  0  0  1  0  0  0  0  0  0
  193.0730  176.2200  146.7210 C   0  0  0  0  0  1  0  0  0  0  0  0
  193.6760  176.5830  145.3790 C   0  0  2  0  0  3  0  0  0  0  0  0
  189.3990  173.4580  143.5850 C   0  0  0  0  0  0  0  0  0  0  0  0
  189.1640  172.7470  142.6410 C   0  0  0  0  0  3  0  0  0  0  0  0
  189.6860  177.8330  145.2040 C   0  0  0  0  0  2  0  0  0  0  0  0
  189.3460  177.2820  146.5830 C   0  0  0  0  0  2  0  0  0  0  0  0
  187.9380  177.6720  146.9980 C   0  0  0  0  0  2  0  0  0  0  0  0
  186.9520  176.5820  146.6160 C   0  0  0  0  0  2  0  0  0  0  0  0
  186.4550  177.5170  141.4430 C   0  0  1  0  0  3  0  0  0  0  0  0
  186.2640  176.0250  143.4810 C   0  0  0  0  0  2  0  0  0  0  0  0
  185.7170  179.3650  144.7430 C   0  0  0  0  0  2  0  0  0  0  0  0
  185.5520  178.5360  146.0050 C   0  0  0  0  0  2  0  0  0  0  0  0
  187.2280  177.7770  140.3140 O   0  0  0  0  0  1  0  0  0  0  0  0
  185.9390  177.1100  145.6140 C   0  0  1  0  0  3  0  0  0  0  0  0
  186.9320  176.2140  142.1120 C   0  0  0  0  0  2  0  0  0  0  0  0
  185.8210  178.3050  143.6840 C   0  0  2  0  0  3  0  0  0  0  0  0
  186.5400  177.2050  144.2920 N   0  0  2  0  0  0  0  0  0  0  0  0
  186.5210  178.7150  142.4000 C   0  0  0  0  0  2  0  0  0  0  0  0
  1  3  1  0  0  0  0
  2  4  2  0  0  0  0
  2 18  1  0  0  0  0
  4  1  2  0  0  0  0
  5  2  1  0  0  0  0
  6  5  2  0  0  0  0
  7  5  1  1  0  0  0
  7 12  1  0  0  0  0
  8  9  1  0  0  0  0
  8 10  1  0  0  0  0
  9  7  1  0  0  0  0
 10 11  1  0  0  0  0
 12 11  2  0  0  0  0
 12 15  1  0  0  0  0
 15 13  1  0  0  0  0
 15 14  1  1  0  0  0
 16  1  1  0  0  0  0
 17 16  3  0  0  0  0
 18 19  1  0  0  0  0
 19 20  1  0  0  0  0
 21 20  1  0  0  0  0
 22 26  1  6  0  0  0
 22 28  1  0  0  0  0
 22 31  1  0  0  0  0
 24 25  1  0  0  0  0
 27 25  1  0  0  0  0
 27 21  1  1  0  0  0
 28 23  1  0  0  0  0
 29 31  1  6  0  0  0
 29 30  1  0  0  0  0
 29 24  1  0  0  0  0
 30 23  1  6  0  0  0
 30 27  1  0  0  0  0
M  END
>  <MODEL>
3

>  <REMARK>
 VINA RESULT:      -7.1      1.816      6.556
  Name = 
  9 active torsions:
  status: ('A' for Active; 'I' for Inactive)
    1  A    between atoms: C_2  and  C_13
    2  A    between atoms: C_4  and  C_5
    3  A    between atoms: C_4  and  C_12
    4  A    between atoms: C_9  and  C_23
    5  A    between atoms: C_12  and  C_27
    6  A    between atoms: C_15  and  C_20
    7  A    between atoms: C_15  and  C_23
    8  A    between atoms: C_20  and  C_27
    9  A    between atoms: C_30  and  C_31
                            x       y       z     vdW  Elec       q    Type
                         _______ _______ _______ _____ _____    ______ ____

>  <TORSDO>
F 9

$$$$
=
 OpenBabel11052417523D

 31 33  0  0  1  0  0  0  0  0999 V2000
  190.0080  173.1460  144.6180 C   0  0  0  0  0  0  0  0  0  0  0  0
  189.7600  175.1230  146.3060 C   0  0  0  0  0  0  0  0  0  0  0  0
  189.4530  171.8080  144.9480 C   0  0  0  0  0  1  0  0  0  0  0  0
  189.8840  174.1310  145.4630 C   0  0  0  0  0  0  0  0  0  0  0  0
  190.9510  175.9290  146.6790 C   0  0  0  0  0  0  0  0  0  0  0  0
  191.3970  175.8700  147.8580 O   0  0  0  0  0  0  0  0  0  0  0  0
  191.6720  176.8220  145.7080 C   0  0  2  0  0  3  0  0  0  0  0  0
  191.4290  178.1550  143.5920 C   0  0  0  0  0  2  0  0  0  0  0  0
  190.7010  177.5810  144.7950 C   0  0  0  0  0  2  0  0  0  0  0  0
  192.0810  176.9970  142.8510 C   0  0  0  0  0  2  0  0  0  0  0  0
  192.9990  176.2820  143.7130 N   0  0  0  0  0  0  0  0  0  0  0  0
  192.8070  176.1200  144.9840 C   0  0  0  0  0  0  0  0  0  0  0  0
  195.1150  175.8870  145.4930 O   0  0  0  0  0  1  0  0  0  0  0  0
  193.7930  173.9090  145.5330 C   0  0  0  0  0  1  0  0  0  0  0  0
  193.8430  175.4010  145.7940 C   0  0  2  0  0  3  0  0  0  0  0  0
  190.6660  173.3610  143.3600 C   0  0  0  0  0  0  0  0  0  0  0  0
  191.2230  173.5410  142.3070 C   0  0  0  0  0  3  0  0  0  0  0  0
  188.4350  175.2990  146.9810 C   0  0  0  0  0  2  0  0  0  0  0  0
  188.0600  176.7680  147.1320 C   0  0  0  0  0  2  0  0  0  0  0  0
  186.5710  176.9310  147.3780 C   0  0  0  0  0  2  0  0  0  0  0  0
  186.0380  178.1360  146.6230 C   0  0  0  0  0  2  0  0  0  0  0  0
  186.2850  177.2510  141.4240 C   0  0  1  0  0  3  0  0  0  0  0  0
  186.4880  176.5090  143.8370 C   0  0  0  0  0  2  0  0  0  0  0  0
  183.9430  179.0730  143.8820 C   0  0  0  0  0  2  0  0  0  0  0  0
  183.9790  178.6590  145.3430 C   0  0  0  0  0  2  0  0  0  0  0  0
  187.0220  177.6190  140.2990 O   0  0  0  0  0  1  0  0  0  0  0  0
  185.1560  177.6910  145.4680 C   0  0  1  0  0  3  0  0  0  0  0  0
  187.2310  176.7000  142.5080 C   0  0  0  0  0  2  0  0  0  0  0  0
  184.8420  178.0520  143.2450 C   0  0  2  0  0  3  0  0  0  0  0  0
  185.8860  177.7830  144.2130 N   0  0  2  0  0  0  0  0  0  0  0  0
  185.4720  178.4520  141.9230 C   0  0  0  0  0  2  0  0  0  0  0  0
  1  3  1  0  0  0  0
  1  4  2  0  0  0  0
  2  5  1  0  0  0  0
  2 18  1  0  0  0  0
  4  2  2  0  0  0  0
  5  6  2  0  0  0  0
  7  5  1  6  0  0  0
  8  9  1  0  0  0  0
  9  7  1  0  0  0  0
 10  8  1  0  0  0  0
 10 11  1  0  0  0  0
 11 12  2  0  0  0  0
 12  7  1  0  0  0  0
 12 15  1  0  0  0  0
 13 15  1  0  0  0  0
 15 14  1  6  0  0  0
 16  1  1  0  0  0  0
 17 16  3  0  0  0  0
 18 19  1  0  0  0  0
 19 20  1  0  0  0  0
 21 20  1  0  0  0  0
 22 26  1  6  0  0  0
 22 31  1  0  0  0  0
 22 28  1  0  0  0  0
 24 25  1  0  0  0  0
 25 27  1  0  0  0  0
 27 21  1  1  0  0  0
 28 23  1  0  0  0  0
 29 31  1  6  0  0  0
 29 24  1  0  0  0  0
 29 30  1  0  0  0  0
 30 23  1  6  0  0  0
 30 27  1  0  0  0  0
M  END
>  <MODEL>
4

>  <REMARK>
 VINA RESULT:      -7.1      2.161      7.151
  Name = 
  9 active torsions:
  status: ('A' for Active; 'I' for Inactive)
    1  A    between atoms: C_2  and  C_13
    2  A    between atoms: C_4  and  C_5
    3  A    between atoms: C_4  and  C_12
    4  A    between atoms: C_9  and  C_23
    5  A    between atoms: C_12  and  C_27
    6  A    between atoms: C_15  and  C_20
    7  A    between atoms: C_15  and  C_23
    8  A    between atoms: C_20  and  C_27
    9  A    between atoms: C_30  and  C_31
                            x       y       z     vdW  Elec       q    Type
                         _______ _______ _______ _____ _____    ______ ____

>  <TORSDO>
F 9

$$$$
=
 OpenBabel11052417523D

 31 33  0  0  1  0  0  0  0  0999 V2000
  190.0270  173.2060  144.1360 C   0  0  0  0  0  0  0  0  0  0  0  0
  189.3720  175.0790  145.8330 C   0  0  0  0  0  0  0  0  0  0  0  0
  191.2930  172.4490  144.3120 C   0  0  0  0  0  1  0  0  0  0  0  0
  189.7030  174.1400  144.9840 C   0  0  0  0  0  0  0  0  0  0  0  0
  188.9650  176.4180  145.3330 C   0  0  0  0  0  0  0  0  0  0  0  0
  189.6600  177.4280  145.6300 O   0  0  0  0  0  0  0  0  0  0  0  0
  187.7520  176.6370  144.4730 C   0  0  2  0  0  3  0  0  0  0  0  0
  186.9150  177.6960  142.3550 C   0  0  0  0  0  2  0  0  0  0  0  0
  188.1250  177.1120  143.0640 C   0  0  0  0  0  2  0  0  0  0  0  0
  186.3960  178.8500  143.1990 C   0  0  0  0  0  2  0  0  0  0  0  0
  186.0420  178.4000  144.5300 N   0  0  0  0  0  0  0  0  0  0  0  0
  186.6770  177.4620  145.1590 C   0  0  0  0  0  0  0  0  0  0  0  0
  184.8430  176.7330  146.4780 O   0  0  0  0  0  1  0  0  0  0  0  0
  186.4480  178.1340  147.5380 C   0  0  0  0  0  1  0  0  0  0  0  0
  186.2020  177.0410  146.5170 C   0  0  2  0  0  3  0  0  0  0  0  0
  189.1500  172.8960  143.0420 C   0  0  0  0  0  0  0  0  0  0  0  0
  188.4100  172.6350  142.1280 C   0  0  0  0  0  3  0  0  0  0  0  0
  189.5720  174.7990  147.2900 C   0  0  0  0  0  2  0  0  0  0  0  0
  190.7780  175.5380  147.8560 C   0  0  0  0  0  2  0  0  0  0  0  0
  192.0350  175.2230  147.0650 C   0  0  0  0  0  2  0  0  0  0  0  0
  192.9270  176.4490  146.9790 C   0  0  0  0  0  2  0  0  0  0  0  0
  192.6640  175.1180  141.8760 C   0  0  1  0  0  3  0  0  0  0  0  0
  192.4670  176.7860  143.7720 C   0  0  0  0  0  2  0  0  0  0  0  0
  195.0170  174.4700  144.8580 C   0  0  0  0  0  2  0  0  0  0  0  0
  194.9850  175.4480  146.0200 C   0  0  0  0  0  2  0  0  0  0  0  0
  191.9260  174.3200  141.0050 O   0  0  0  0  0  1  0  0  0  0  0  0
  193.8060  176.3800  145.7410 C   0  0  1  0  0  3  0  0  0  0  0  0
  191.7210  176.0650  142.6410 C   0  0  0  0  0  2  0  0  0  0  0  0
  194.1150  175.1380  143.8610 C   0  0  2  0  0  3  0  0  0  0  0  0
  193.0730  175.7800  144.6360 N   0  0  2  0  0  0  0  0  0  0  0  0
  193.4820  174.2290  142.8220 C   0  0  0  0  0  2  0  0  0  0  0  0
  1  3  1  0  0  0  0
  1  4  2  0  0  0  0
  2 18  1  0  0  0  0
  4  2  2  0  0  0  0
  5  6  2  0  0  0  0
  5  2  1  0  0  0  0
  7 12  1  0  0  0  0
  7  5  1  1  0  0  0
  8  9  1  0  0  0  0
  8 10  1  0  0  0  0
  9  7  1  0  0  0  0
 10 11  1  0  0  0  0
 11 12  2  0  0  0  0
 12 15  1  0  0  0  0
 13 15  1  0  0  0  0
 15 14  1  1  0  0  0
 16  1  1  0  0  0  0
 17 16  3  0  0  0  0
 18 19  1  0  0  0  0
 20 19  1  0  0  0  0
 21 20  1  0  0  0  0
 22 26  1  6  0  0  0
 22 28  1  0  0  0  0
 22 31  1  0  0  0  0
 24 25  1  0  0  0  0
 27 25  1  0  0  0  0
 27 21  1  1  0  0  0
 28 23  1  0  0  0  0
 29 31  1  6  0  0  0
 29 30  1  0  0  0  0
 29 24  1  0  0  0  0
 30 23  1  6  0  0  0
 30 27  1  0  0  0  0
M  END
>  <MODEL>
5

>  <REMARK>
 VINA RESULT:      -7.1      1.940      4.186
  Name = 
  9 active torsions:
  status: ('A' for Active; 'I' for Inactive)
    1  A    between atoms: C_2  and  C_13
    2  A    between atoms: C_4  and  C_5
    3  A    between atoms: C_4  and  C_12
    4  A    between atoms: C_9  and  C_23
    5  A    between atoms: C_12  and  C_27
    6  A    between atoms: C_15  and  C_20
    7  A    between atoms: C_15  and  C_23
    8  A    between atoms: C_20  and  C_27
    9  A    between atoms: C_30  and  C_31
                            x       y       z     vdW  Elec       q    Type
                         _______ _______ _______ _____ _____    ______ ____

>  <TORSDO>
F 9

$$$$
=
 OpenBabel11052417523D

 31 33  0  0  1  0  0  0  0  0999 V2000
  189.3220  173.3340  142.9700 C   0  0  0  0  0  0  0  0  0  0  0  0
  189.7770  175.1310  144.8090 C   0  0  0  0  0  0  0  0  0  0  0  0
  189.0810  171.9190  143.3530 C   0  0  0  0  0  1  0  0  0  0  0  0
  189.5490  174.2280  143.8900 C   0  0  0  0  0  0  0  0  0  0  0  0
  190.9460  176.0390  144.6790 C   0  0  0  0  0  0  0  0  0  0  0  0
  190.8020  177.1590  144.1150 O   0  0  0  0  0  0  0  0  0  0  0  0
  192.3130  175.6940  145.2000 C   0  0  2  0  0  3  0  0  0  0  0  0
  194.2750  176.5500  146.5130 C   0  0  0  0  0  2  0  0  0  0  0  0
  192.7780  176.6680  146.2880 C   0  0  0  0  0  2  0  0  0  0  0  0
  194.9660  176.8430  145.1900 C   0  0  0  0  0  2  0  0  0  0  0  0
  194.5290  175.9210  144.1620 N   0  0  0  0  0  0  0  0  0  0  0  0
  193.3250  175.4460  144.0940 C   0  0  0  0  0  0  0  0  0  0  0  0
  194.0000  173.5120  142.8940 O   0  0  0  0  0  1  0  0  0  0  0  0
  192.7870  175.1660  141.6870 C   0  0  0  0  0  1  0  0  0  0  0  0
  192.9870  174.4620  143.0150 C   0  0  2  0  0  3  0  0  0  0  0  0
  189.2860  173.7210  141.5880 C   0  0  0  0  0  0  0  0  0  0  0  0
  189.2520  174.0490  140.4290 C   0  0  0  0  0  3  0  0  0  0  0  0
  188.9250  175.0990  146.0390 C   0  0  0  0  0  2  0  0  0  0  0  0
  189.0870  176.3570  146.8820 C   0  0  0  0  0  2  0  0  0  0  0  0
  188.0050  177.3740  146.5640 C   0  0  0  0  0  2  0  0  0  0  0  0
  186.6310  176.7840  146.8260 C   0  0  0  0  0  2  0  0  0  0  0  0
  186.3330  177.6180  141.6210 C   0  0  1  0  0  3  0  0  0  0  0  0
  186.1140  176.1490  143.6730 C   0  0  0  0  0  2  0  0  0  0  0  0
  185.3630  179.4810  144.8510 C   0  0  0  0  0  2  0  0  0  0  0  0
  185.1760  178.6640  146.1180 C   0  0  0  0  0  2  0  0  0  0  0  0
  187.1460  177.8950  140.5230 O   0  0  0  0  0  1  0  0  0  0  0  0
  185.6420  177.2510  145.7700 C   0  0  1  0  0  3  0  0  0  0  0  0
  186.8350  176.3480  142.3330 C   0  0  0  0  0  2  0  0  0  0  0  0
  185.5620  178.4110  143.8160 C   0  0  2  0  0  3  0  0  0  0  0  0
  186.2990  177.3530  144.4760 N   0  0  2  0  0  0  0  0  0  0  0  0
  186.3030  178.8320  142.5590 C   0  0  0  0  0  2  0  0  0  0  0  0
  1  3  1  0  0  0  0
  1  4  2  0  0  0  0
  2 18  1  0  0  0  0
  4  2  2  0  0  0  0
  5  2  1  0  0  0  0
  6  5  2  0  0  0  0
  7  5  1  6  0  0  0
  7  9  1  0  0  0  0
  9  8  1  0  0  0  0
 10  8  1  0  0  0  0
 11 10  1  0  0  0  0
 12 11  2  0  0  0  0
 12  7  1  0  0  0  0
 13 15  1  0  0  0  0
 15 14  1  6  0  0  0
 15 12  1  0  0  0  0
 16  1  1  0  0  0  0
 17 16  3  0  0  0  0
 18 19  1  0  0  0  0
 20 21  1  0  0  0  0
 20 19  1  0  0  0  0
 22 26  1  6  0  0  0
 22 28  1  0  0  0  0
 22 31  1  0  0  0  0
 24 25  1  0  0  0  0
 27 25  1  0  0  0  0
 27 21  1  1  0  0  0
 28 23  1  0  0  0  0
 29 31  1  6  0  0  0
 29 30  1  0  0  0  0
 29 24  1  0  0  0  0
 30 23  1  6  0  0  0
 30 27  1  0  0  0  0
M  END
>  <MODEL>
6

>  <REMARK>
 VINA RESULT:      -7.0      1.596      6.817
  Name = 
  9 active torsions:
  status: ('A' for Active; 'I' for Inactive)
    1  A    between atoms: C_2  and  C_13
    2  A    between atoms: C_4  and  C_5
    3  A    between atoms: C_4  and  C_12
    4  A    between atoms: C_9  and  C_23
    5  A    between atoms: C_12  and  C_27
    6  A    between atoms: C_15  and  C_20
    7  A    between atoms: C_15  and  C_23
    8  A    between atoms: C_20  and  C_27
    9  A    between atoms: C_30  and  C_31
                            x       y       z     vdW  Elec       q    Type
                         _______ _______ _______ _____ _____    ______ ____

>  <TORSDO>
F 9

$$$$
=
 OpenBabel11052417523D

 31 33  0  0  1  0  0  0  0  0999 V2000
  188.9420  174.7520  141.8600 C   0  0  0  0  0  0  0  0  0  0  0  0
  190.8150  174.7460  143.6790 C   0  0  0  0  0  0  0  0  0  0  0  0
  188.5980  173.5000  141.1380 C   0  0  0  0  0  1  0  0  0  0  0  0
  189.8780  174.7460  142.7670 C   0  0  0  0  0  0  0  0  0  0  0  0
  191.8930  175.7670  143.6330 C   0  0  0  0  0  0  0  0  0  0  0  0
  191.8090  176.7220  142.8120 O   0  0  0  0  0  0  0  0  0  0  0  0
  193.0980  175.7280  144.5310 C   0  0  2  0  0  3  0  0  0  0  0  0
  194.2070  176.8110  146.5080 C   0  0  0  0  0  2  0  0  0  0  0  0
  192.8820  176.5350  145.8170 C   0  0  0  0  0  2  0  0  0  0  0  0
  195.0900  177.5710  145.5310 C   0  0  0  0  0  2  0  0  0  0  0  0
  195.2940  176.8070  144.3170 N   0  0  0  0  0  0  0  0  0  0  0  0
  194.3950  176.0310  143.8010 C   0  0  0  0  0  0  0  0  0  0  0  0
  195.8550  174.4630  142.7780 O   0  0  0  0  0  1  0  0  0  0  0  0
  194.9630  176.1760  141.3890 C   0  0  0  0  0  1  0  0  0  0  0  0
  194.7250  175.2500  142.5650 C   0  0  2  0  0  3  0  0  0  0  0  0
  188.2320  175.9670  141.5720 C   0  0  0  0  0  0  0  0  0  0  0  0
  187.6390  176.9880  141.3340 C   0  0  0  0  0  3  0  0  0  0  0  0
  190.8400  173.6040  144.6480 C   0  0  0  0  0  2  0  0  0  0  0  0
  189.6900  173.6740  145.6440 C   0  0  0  0  0  2  0  0  0  0  0  0
  189.9010  174.7930  146.6480 C   0  0  0  0  0  2  0  0  0  0  0  0
  188.5680  175.2800  147.1860 C   0  0  0  0  0  2  0  0  0  0  0  0
  184.9240  178.6490  145.3840 C   0  0  1  0  0  3  0  0  0  0  0  0
  186.0780  177.3790  147.2470 C   0  0  0  0  0  2  0  0  0  0  0  0
  188.6580  177.9210  144.7780 C   0  0  0  0  0  2  0  0  0  0  0  0
  189.4310  177.1950  145.8660 C   0  0  0  0  0  2  0  0  0  0  0  0
  183.7780  178.6780  144.5910 O   0  0  0  0  0  1  0  0  0  0  0  0
  188.3850  176.7600  146.8930 C   0  0  1  0  0  3  0  0  0  0  0  0
  184.7540  177.6060  146.5050 C   0  0  0  0  0  2  0  0  0  0  0  0
  187.3310  178.1560  145.4400 C   0  0  2  0  0  3  0  0  0  0  0  0
  187.0910  176.9940  146.2710 N   0  0  2  0  0  0  0  0  0  0  0  0
  186.1500  178.3610  144.5080 C   0  0  0  0  0  2  0  0  0  0  0  0
  1  4  2  0  0  0  0
  2 18  1  0  0  0  0
  3  1  1  0  0  0  0
  4  2  2  0  0  0  0
  5  2  1  0  0  0  0
  6  5  2  0  0  0  0
  7  5  1  6  0  0  0
  7  9  1  0  0  0  0
  9  8  1  0  0  0  0
 10  8  1  0  0  0  0
 11 10  1  0  0  0  0
 12 11  2  0  0  0  0
 12  7  1  0  0  0  0
 15 14  1  6  0  0  0
 15 13  1  0  0  0  0
 15 12  1  0  0  0  0
 16  1  1  0  0  0  0
 17 16  3  0  0  0  0
 18 19  1  0  0  0  0
 19 20  1  0  0  0  0
 20 21  1  0  0  0  0
 22 26  1  6  0  0  0
 22 28  1  0  0  0  0
 24 29  1  0  0  0  0
 24 25  1  0  0  0  0
 25 27  1  0  0  0  0
 27 21  1  6  0  0  0
 28 23  1  0  0  0  0
 29 31  1  6  0  0  0
 29 30  1  0  0  0  0
 30 27  1  0  0  0  0
 30 23  1  1  0  0  0
 31 22  1  0  0  0  0
M  END
>  <MODEL>
7

>  <REMARK>
 VINA RESULT:      -7.0      1.690      6.965
  Name = 
  9 active torsions:
  status: ('A' for Active; 'I' for Inactive)
    1  A    between atoms: C_2  and  C_13
    2  A    between atoms: C_4  and  C_5
    3  A    between atoms: C_4  and  C_12
    4  A    between atoms: C_9  and  C_23
    5  A    between atoms: C_12  and  C_27
    6  A    between atoms: C_15  and  C_20
    7  A    between atoms: C_15  and  C_23
    8  A    between atoms: C_20  and  C_27
    9  A    between atoms: C_30  and  C_31
                            x       y       z     vdW  Elec       q    Type
                         _______ _______ _______ _____ _____    ______ ____

>  <TORSDO>
F 9

$$$$
=
 OpenBabel11052417523D

 31 33  0  0  1  0  0  0  0  0999 V2000
  190.8200  176.1760  147.0820 C   0  0  0  0  0  0  0  0  0  0  0  0
  191.8300  176.2150  144.6750 C   0  0  0  0  0  0  0  0  0  0  0  0
  191.3520  177.0850  148.1300 C   0  0  0  0  0  1  0  0  0  0  0  0
  191.3260  176.1970  145.8820 C   0  0  0  0  0  0  0  0  0  0  0  0
  192.2420  174.9430  144.0260 C   0  0  0  0  0  0  0  0  0  0  0  0
  192.4660  174.9230  142.7850 O   0  0  0  0  0  0  0  0  0  0  0  0
  192.4150  173.6560  144.7840 C   0  0  2  0  0  3  0  0  0  0  0  0
  194.0280  171.8100  145.3320 C   0  0  0  0  0  2  0  0  0  0  0  0
  193.8920  173.2680  144.9280 C   0  0  0  0  0  2  0  0  0  0  0  0
  193.3460  170.9680  144.2650 C   0  0  0  0  0  2  0  0  0  0  0  0
  191.9510  171.3340  144.1300 N   0  0  0  0  0  0  0  0  0  0  0  0
  191.5120  172.5430  144.2820 C   0  0  0  0  0  0  0  0  0  0  0  0
  189.3390  172.0590  145.1090 O   0  0  0  0  0  1  0  0  0  0  0  0
  189.5410  172.4700  142.7740 C   0  0  0  0  0  1  0  0  0  0  0  0
  190.0410  172.8070  144.1650 C   0  0  2  0  0  3  0  0  0  0  0  0
  189.7350  175.2850  147.3860 C   0  0  0  0  0  0  0  0  0  0  0  0
  188.8220  174.5400  147.6380 C   0  0  0  0  0  3  0  0  0  0  0  0
  192.1120  177.5510  144.0600 C   0  0  0  0  0  2  0  0  0  0  0  0
  190.8350  178.2890  143.6830 C   0  0  0  0  0  2  0  0  0  0  0  0
  190.1120  177.5900  142.5460 C   0  0  0  0  0  2  0  0  0  0  0  0
  188.8000  178.2910  142.2410 C   0  0  0  0  0  2  0  0  0  0  0  0
  185.0710  178.1900  145.9770 C   0  0  1  0  0  3  0  0  0  0  0  0
  185.9410  178.8580  143.6940 C   0  0  0  0  0  2  0  0  0  0  0  0
  187.5890  175.7260  144.4170 C   0  0  0  0  0  2  0  0  0  0  0  0
  188.1290  176.0370  143.0320 C   0  0  0  0  0  2  0  0  0  0  0  0
  184.8160  178.6660  147.2620 O   0  0  0  0  0  1  0  0  0  0  0  0
  187.6260  177.4420  142.7000 C   0  0  1  0  0  3  0  0  0  0  0  0
  185.4260  179.3660  145.0470 C   0  0  0  0  0  2  0  0  0  0  0  0
  186.5490  176.7950  144.5950 C   0  0  2  0  0  3  0  0  0  0  0  0
  187.0740  177.9730  143.9370 N   0  0  2  0  0  0  0  0  0  0  0  0
  186.1860  177.1380  146.0290 C   0  0  0  0  0  2  0  0  0  0  0  0
  1 16  1  0  0  0  0
  1  3  1  0  0  0  0
  2  4  2  0  0  0  0
  4  1  2  0  0  0  0
  5  2  1  0  0  0  0
  6  5  2  0  0  0  0
  7  5  1  6  0  0  0
  7  9  1  0  0  0  0
  9  8  1  0  0  0  0
 10  8  1  0  0  0  0
 11 10  1  0  0  0  0
 11 12  2  0  0  0  0
 12  7  1  0  0  0  0
 15 14  1  6  0  0  0
 15 12  1  0  0  0  0
 15 13  1  0  0  0  0
 16 17  3  0  0  0  0
 18  2  1  0  0  0  0
 19 18  1  0  0  0  0
 20 19  1  0  0  0  0
 21 20  1  0  0  0  0
 22 31  1  0  0  0  0
 22 26  1  1  0  0  0
 23 28  1  0  0  0  0
 25 24  1  0  0  0  0
 27 21  1  1  0  0  0
 27 25  1  0  0  0  0
 27 30  1  0  0  0  0
 28 22  1  0  0  0  0
 29 24  1  1  0  0  0
 29 31  1  0  0  0  0
 30 23  1  6  0  0  0
 30 29  1  0  0  0  0
M  END
>  <MODEL>
8

>  <REMARK>
 VINA RESULT:      -6.9      2.616      6.786
  Name = 
  9 active torsions:
  status: ('A' for Active; 'I' for Inactive)
    1  A    between atoms: C_2  and  C_13
    2  A    between atoms: C_4  and  C_5
    3  A    between atoms: C_4  and  C_12
    4  A    between atoms: C_9  and  C_23
    5  A    between atoms: C_12  and  C_27
    6  A    between atoms: C_15  and  C_20
    7  A    between atoms: C_15  and  C_23
    8  A    between atoms: C_20  and  C_27
    9  A    between atoms: C_30  and  C_31
                            x       y       z     vdW  Elec       q    Type
                         _______ _______ _______ _____ _____    ______ ____

>  <TORSDO>
F 9

$$$$
=
 OpenBabel11052417523D

 31 33  0  0  1  0  0  0  0  0999 V2000
  188.6620  174.2600  142.2070 C   0  0  0  0  0  0  0  0  0  0  0  0
  190.8150  174.5850  143.6490 C   0  0  0  0  0  0  0  0  0  0  0  0
  188.1740  172.8920  141.8930 C   0  0  0  0  0  1  0  0  0  0  0  0
  189.7370  174.4190  142.9270 C   0  0  0  0  0  0  0  0  0  0  0  0
  191.8910  175.4920  143.1740 C   0  0  0  0  0  0  0  0  0  0  0  0
  191.5850  176.6030  142.6590 O   0  0  0  0  0  0  0  0  0  0  0  0
  193.3530  175.1550  143.2810 C   0  0  2  0  0  3  0  0  0  0  0  0
  195.0410  173.3060  143.0920 C   0  0  0  0  0  2  0  0  0  0  0  0
  193.6800  173.8020  142.6380 C   0  0  0  0  0  2  0  0  0  0  0  0
  195.0110  173.1930  144.6090 C   0  0  0  0  0  2  0  0  0  0  0  0
  194.7030  174.4720  145.2160 N   0  0  0  0  0  0  0  0  0  0  0  0
  193.9050  175.3420  144.6840 C   0  0  0  0  0  0  0  0  0  0  0  0
  194.8900  177.3580  145.4600 O   0  0  0  0  0  1  0  0  0  0  0  0
  193.1190  176.4480  146.7630 C   0  0  0  0  0  1  0  0  0  0  0  0
  193.6890  176.6560  145.3740 C   0  0  2  0  0  3  0  0  0  0  0  0
  187.9400  175.4070  141.7350 C   0  0  0  0  0  0  0  0  0  0  0  0
  187.3310  176.3700  141.3420 C   0  0  0  0  0  3  0  0  0  0  0  0
  190.9780  173.7200  144.8610 C   0  0  0  0  0  2  0  0  0  0  0  0
  189.7350  173.7280  145.7410 C   0  0  0  0  0  2  0  0  0  0  0  0
  189.8200  174.8130  146.8000 C   0  0  0  0  0  2  0  0  0  0  0  0
  188.4350  175.3460  147.1250 C   0  0  0  0  0  2  0  0  0  0  0  0
  184.9530  178.7040  145.0110 C   0  0  1  0  0  3  0  0  0  0  0  0
  186.0330  177.5400  146.9850 C   0  0  0  0  0  2  0  0  0  0  0  0
  188.6620  177.7830  144.5200 C   0  0  0  0  0  2  0  0  0  0  0  0
  189.3910  177.1150  145.6730 C   0  0  0  0  0  2  0  0  0  0  0  0
  183.8200  178.7160  144.2000 O   0  0  0  0  0  1  0  0  0  0  0  0
  188.3170  176.8040  146.7150 C   0  0  1  0  0  3  0  0  0  0  0  0
  184.7280  177.7600  146.2070 C   0  0  0  0  0  2  0  0  0  0  0  0
  187.3380  178.1220  145.1420 C   0  0  2  0  0  3  0  0  0  0  0  0
  187.0400  177.0390  146.0570 N   0  0  2  0  0  0  0  0  0  0  0  0
  186.1770  178.3000  144.1790 C   0  0  0  0  0  2  0  0  0  0  0  0
  1  4  2  0  0  0  0
  2 18  1  0  0  0  0
  3  1  1  0  0  0  0
  4  2  2  0  0  0  0
  5  2  1  0  0  0  0
  6  5  2  0  0  0  0
  7  5  1  1  0  0  0
  7 12  1  0  0  0  0
  8 10  1  0  0  0  0
  9  8  1  0  0  0  0
  9  7  1  0  0  0  0
 10 11  1  0  0  0  0
 12 11  2  0  0  0  0
 12 15  1  0  0  0  0
 15 13  1  0  0  0  0
 15 14  1  1  0  0  0
 16  1  1  0  0  0  0
 17 16  3  0  0  0  0
 18 19  1  0  0  0  0
 19 20  1  0  0  0  0
 20 21  1  0  0  0  0
 22 26  1  6  0  0  0
 22 28  1  0  0  0  0
 24 29  1  0  0  0  0
 24 25  1  0  0  0  0
 25 27  1  0  0  0  0
 27 21  1  6  0  0  0
 28 23  1  0  0  0  0
 29 31  1  6  0  0  0
 29 30  1  0  0  0  0
 30 27  1  0  0  0  0
 30 23  1  1  0  0  0
 31 22  1  0  0  0  0
M  END
>  <MODEL>
9

>  <REMARK>
 VINA RESULT:      -6.9      1.885      6.817
  Name = 
  9 active torsions:
  status: ('A' for Active; 'I' for Inactive)
    1  A    between atoms: C_2  and  C_13
    2  A    between atoms: C_4  and  C_5
    3  A    between atoms: C_4  and  C_12
    4  A    between atoms: C_9  and  C_23
    5  A    between atoms: C_12  and  C_27
    6  A    between atoms: C_15  and  C_20
    7  A    between atoms: C_15  and  C_23
    8  A    between atoms: C_20  and  C_27
    9  A    between atoms: C_30  and  C_31
                            x       y       z     vdW  Elec       q    Type
                         _______ _______ _______ _____ _____    ______ ____

>  <TORSDO>
F 9

$$$$
