=
 OpenBabel11052418393D

 34 38  0  0  1  0  0  0  0  0999 V2000
  189.0830  173.6820  141.1320 C   0  0  0  0  0  0  0  0  0  0  0  0
  191.5310  173.8780  140.9290 C   0  0  0  0  0  0  0  0  0  0  0  0
  190.2910  175.3990  142.4120 C   0  0  0  0  0  0  0  0  0  0  0  0
  191.0580  178.3860  143.3960 C   0  0  0  0  0  2  0  0  0  0  0  0
  191.5990  172.8330  140.0150 O   0  0  0  0  0  1  0  0  0  0  0  0
  192.7210  175.5410  142.2030 C   0  0  0  0  0  3  0  0  0  0  0  0
  190.3010  174.3070  141.4860 C   0  0  0  0  0  0  0  0  0  0  0  0
  191.6230  177.0540  143.8750 C   0  0  1  0  0  3  0  0  0  0  0  0
  189.0280  175.8740  142.8810 C   0  0  0  0  0  0  0  0  0  0  0  0
  187.8910  174.1690  141.6670 C   0  0  0  0  0  3  0  0  0  0  0  0
  192.7180  174.5080  141.2800 C   0  0  0  0  0  3  0  0  0  0  0  0
  189.5590  178.3190  143.0980 C   0  0  0  0  0  2  0  0  0  0  0  0
  188.8910  177.1100  143.7540 C   0  0  1  0  0  3  0  0  0  0  0  0
  191.5360  175.9820  142.8050 C   0  0  0  0  0  0  0  0  0  0  0  0
  187.8910  175.2330  142.5000 N   0  0  0  0  0  0  0  0  0  0  0  0
  185.5890  177.0990  145.6630 C   0  0  0  0  0  0  0  0  0  0  0  0
  184.8680  178.0660  144.9530 C   0  0  0  0  0  3  0  0  0  0  0  0
  187.4840  177.4210  144.1790 C   0  0  0  0  0  0  0  0  0  0  0  0
  185.4550  178.7120  143.8610 C   0  0  0  0  0  3  0  0  0  0  0  0
  186.8940  176.7780  145.2800 C   0  0  0  0  0  3  0  0  0  0  0  0
  186.7610  178.3910  143.4760 C   0  0  0  0  0  3  0  0  0  0  0  0
  185.0210  176.4750  146.7230 F   0  0  0  0  0  0  0  0  0  0  0  0
  188.2720  172.5570  139.0730 C   0  0  0  0  0  1  0  0  0  0  0  0
  189.0600  172.5880  140.2570 O   0  0  0  0  0  0  0  0  0  0  0  0
  193.0080  177.2460  144.4850 C   0  0  0  0  0  2  0  0  0  0  0  0
  193.0580  176.6100  145.7890 N   0  0  0  0  0  2  0  0  0  0  0  0
  191.6840  176.3750  146.1950 C   0  0  0  0  0  2  0  0  0  0  0  0
  189.1890  174.9350  147.2570 O   0  0  0  0  0  0  0  0  0  0  0  0
  191.5210  174.9440  146.6850 C   0  0  1  0  0  3  0  0  0  0  0  0
  190.0930  174.4870  146.5030 C   0  0  0  0  0  0  0  0  0  0  0  0
  190.6590  172.9500  144.7650 C   0  0  0  0  0  3  0  0  0  0  0  0
  192.0900  173.1650  145.0320 C   0  0  0  0  0  3  0  0  0  0  0  0
  192.4860  174.0660  145.9350 C   0  0  0  0  0  3  0  0  0  0  0  0
  189.7500  173.5630  145.4630 N   0  0  0  0  0  0  0  0  0  0  0  0
  1  7  2  0  0  0  0
  1 10  1  0  0  0  0
  2 11  2  0  0  0  0
  2  7  1  0  0  0  0
  3 14  1  0  0  0  0
  3  9  2  0  0  0  0
  4  8  1  0  0  0  0
  5  2  1  0  0  0  0
  6 14  2  0  0  0  0
  7  3  1  0  0  0  0
  8 25  1  6  0  0  0
  9 13  1  0  0  0  0
 10 15  2  0  0  0  0
 11  6  1  0  0  0  0
 12  4  1  0  0  0  0
 12 13  1  0  0  0  0
 13 18  1  6  0  0  0
 14  8  1  0  0  0  0
 15  9  1  0  0  0  0
 16 22  1  0  0  0  0
 17 16  2  0  0  0  0
 18 20  2  0  0  0  0
 19 17  1  0  0  0  0
 20 16  1  0  0  0  0
 21 19  2  0  0  0  0
 21 18  1  0  0  0  0
 23 24  1  0  0  0  0
 24  1  1  0  0  0  0
 25 26  1  0  0  0  0
 26 27  1  0  0  0  0
 29 27  1  6  0  0  0
 30 29  1  0  0  0  0
 30 28  2  0  0  0  0
 31 32  1  0  0  0  0
 31 34  2  0  0  0  0
 32 33  2  0  0  0  0
 33 29  1  0  0  0  0
 34 30  1  0  0  0  0
M  END
>  <MODEL>
1

>  <REMARK>
 VINA RESULT:      -7.4      0.000      0.000
  Name = 
  6 active torsions:
  status: ('A' for Active; 'I' for Inactive)
    1  A    between atoms: C_1  and  O_19
    2  A    between atoms: C_3  and  C_13
    3  A    between atoms: C_3  and  N_17
    4  A    between atoms: C_12  and  C_28
    5  A    between atoms: N_17  and  C_29
    6  A    between atoms: C_18  and  C_29
                            x       y       z     vdW  Elec       q    Type
                         _______ _______ _______ _____ _____    ______ ____

>  <TORSDO>
F 6

$$$$
=
 OpenBabel11052418393D

 34 38  0  0  1  0  0  0  0  0999 V2000
  188.5940  174.3130  141.1590 C   0  0  0  0  0  0  0  0  0  0  0  0
  190.9900  173.7650  141.3420 C   0  0  0  0  0  0  0  0  0  0  0  0
  189.8870  175.0750  143.1060 C   0  0  0  0  0  0  0  0  0  0  0  0
  191.1620  177.2070  145.1820 C   0  0  0  0  0  2  0  0  0  0  0  0
  190.9880  173.0840  140.1300 O   0  0  0  0  0  1  0  0  0  0  0  0
  192.2520  174.4850  143.2630 C   0  0  0  0  0  3  0  0  0  0  0  0
  189.8210  174.3750  141.8590 C   0  0  0  0  0  0  0  0  0  0  0  0
  191.2380  175.6850  145.2170 C   0  0  1  0  0  3  0  0  0  0  0  0
  188.7190  175.7640  143.5560 C   0  0  0  0  0  0  0  0  0  0  0  0
  187.4810  174.9710  141.6820 C   0  0  0  0  0  3  0  0  0  0  0  0
  192.1890  173.8410  142.0380 C   0  0  0  0  0  3  0  0  0  0  0  0
  189.8040  177.7200  144.6980 C   0  0  0  0  0  2  0  0  0  0  0  0
  188.7150  176.6500  144.7900 C   0  0  1  0  0  3  0  0  0  0  0  0
  191.1180  175.0780  143.8320 C   0  0  0  0  0  0  0  0  0  0  0  0
  187.5700  175.6710  142.8340 N   0  0  0  0  0  0  0  0  0  0  0  0
  185.6820  178.9640  144.8230 C   0  0  0  0  0  0  0  0  0  0  0  0
  184.8630  178.3140  145.7530 C   0  0  0  0  0  3  0  0  0  0  0  0
  187.3780  177.2520  145.1220 C   0  0  0  0  0  0  0  0  0  0  0  0
  185.2970  177.1350  146.3630 C   0  0  0  0  0  3  0  0  0  0  0  0
  186.9360  178.4350  144.5060 C   0  0  0  0  0  3  0  0  0  0  0  0
  186.5520  176.6040  146.0470 C   0  0  0  0  0  3  0  0  0  0  0  0
  185.2590  180.1060  144.2290 F   0  0  0  0  0  0  0  0  0  0  0  0
  188.1670  174.2280  138.7150 C   0  0  0  0  0  1  0  0  0  0  0  0
  188.4860  173.6070  139.9530 O   0  0  0  0  0  0  0  0  0  0  0  0
  192.4510  175.2270  146.0210 C   0  0  0  0  0  2  0  0  0  0  0  0
  193.4190  176.3060  146.1000 N   0  0  0  0  0  2  0  0  0  0  0  0
  194.7130  175.6930  146.3410 C   0  0  0  0  0  2  0  0  0  0  0  0
  195.3590  176.2330  143.3900 O   0  0  0  0  0  0  0  0  0  0  0  0
  195.0460  174.7160  145.2240 C   0  0  1  0  0  3  0  0  0  0  0  0
  195.8860  175.3950  144.1670 C   0  0  0  0  0  0  0  0  0  0  0  0
  197.8430  174.1430  144.7210 C   0  0  0  0  0  3  0  0  0  0  0  0
  197.0480  173.2790  145.6070 C   0  0  0  0  0  3  0  0  0  0  0  0
  195.7530  173.5280  145.8190 C   0  0  0  0  0  3  0  0  0  0  0  0
  197.2860  175.1100  144.0560 N   0  0  0  0  0  0  0  0  0  0  0  0
  1 10  2  0  0  0  0
  1  7  1  0  0  0  0
  2  7  2  0  0  0  0
  2 11  1  0  0  0  0
  3  9  1  0  0  0  0
  3 14  2  0  0  0  0
  4  8  1  0  0  0  0
  5  2  1  0  0  0  0
  6 14  1  0  0  0  0
  7  3  1  0  0  0  0
  8 25  1  6  0  0  0
  9 13  1  0  0  0  0
 10 15  1  0  0  0  0
 11  6  2  0  0  0  0
 12 13  1  0  0  0  0
 12  4  1  0  0  0  0
 13 18  1  6  0  0  0
 14  8  1  0  0  0  0
 15  9  2  0  0  0  0
 16 17  1  0  0  0  0
 17 19  2  0  0  0  0
 18 21  2  0  0  0  0
 20 16  2  0  0  0  0
 20 18  1  0  0  0  0
 21 19  1  0  0  0  0
 22 16  1  0  0  0  0
 23 24  1  0  0  0  0
 24  1  1  0  0  0  0
 25 26  1  0  0  0  0
 26 27  1  0  0  0  0
 28 30  2  0  0  0  0
 29 33  1  0  0  0  0
 29 27  1  1  0  0  0
 30 29  1  0  0  0  0
 31 32  1  0  0  0  0
 32 33  2  0  0  0  0
 34 30  1  0  0  0  0
 34 31  2  0  0  0  0
M  END
>  <MODEL>
2

>  <REMARK>
 VINA RESULT:      -7.3      2.409      3.211
  Name = 
  6 active torsions:
  status: ('A' for Active; 'I' for Inactive)
    1  A    between atoms: C_1  and  O_19
    2  A    between atoms: C_3  and  C_13
    3  A    between atoms: C_3  and  N_17
    4  A    between atoms: C_12  and  C_28
    5  A    between atoms: N_17  and  C_29
    6  A    between atoms: C_18  and  C_29
                            x       y       z     vdW  Elec       q    Type
                         _______ _______ _______ _____ _____    ______ ____

>  <TORSDO>
F 6

$$$$
=
 OpenBabel11052418393D

 34 38  0  0  1  0  0  0  0  0999 V2000
  187.0510  177.5930  142.7160 C   0  0  0  0  0  0  0  0  0  0  0  0
  186.4120  177.5900  145.0960 C   0  0  0  0  0  0  0  0  0  0  0  0
  188.3550  176.2860  144.3400 C   0  0  0  0  0  0  0  0  0  0  0  0
  189.6860  173.6400  145.6460 C   0  0  0  0  0  2  0  0  0  0  0  0
  185.3310  178.4340  144.8680 O   0  0  0  0  0  1  0  0  0  0  0  0
  187.7040  176.3340  146.6930 C   0  0  0  0  0  3  0  0  0  0  0  0
  187.2660  177.1680  144.0470 C   0  0  0  0  0  0  0  0  0  0  0  0
  189.8010  175.0880  146.1080 C   0  0  1  0  0  3  0  0  0  0  0  0
  189.1390  175.7980  143.2500 C   0  0  0  0  0  0  0  0  0  0  0  0
  187.8870  177.1130  141.7080 C   0  0  0  0  0  3  0  0  0  0  0  0
  186.6310  177.1570  146.3970 C   0  0  0  0  0  3  0  0  0  0  0  0
  189.6800  173.5050  144.1210 C   0  0  0  0  0  2  0  0  0  0  0  0
  190.2270  174.7540  143.4270 C   0  0  1  0  0  3  0  0  0  0  0  0
  188.5940  175.9120  145.6980 C   0  0  0  0  0  0  0  0  0  0  0  0
  188.8800  176.2410  141.9900 N   0  0  0  0  0  0  0  0  0  0  0  0
  192.8980  174.6060  140.7070 C   0  0  0  0  0  0  0  0  0  0  0  0
  192.3240  173.6860  139.8220 C   0  0  0  0  0  3  0  0  0  0  0  0
  190.9690  174.4020  142.1680 C   0  0  0  0  0  0  0  0  0  0  0  0
  191.0780  173.1230  140.1100 C   0  0  0  0  0  3  0  0  0  0  0  0
  192.2240  174.9630  141.8780 C   0  0  0  0  0  3  0  0  0  0  0  0
  190.4030  173.4790  141.2820 C   0  0  0  0  0  3  0  0  0  0  0  0
  194.1070  175.1490  140.4290 F   0  0  0  0  0  0  0  0  0  0  0  0
  185.1410  178.2970  141.2950 C   0  0  0  0  0  1  0  0  0  0  0  0
  186.0160  178.4830  142.4000 O   0  0  0  0  0  0  0  0  0  0  0  0
  190.1530  175.1510  147.5910 C   0  0  0  0  0  2  0  0  0  0  0  0
  191.2040  176.1290  147.8010 N   0  0  0  0  0  2  0  0  0  0  0  0
  191.8890  176.2890  146.5300 C   0  0  0  0  0  2  0  0  0  0  0  0
  193.1780  173.6230  145.7220 O   0  0  0  0  0  0  0  0  0  0  0  0
  193.3340  175.8300  146.6530 C   0  0  1  0  0  3  0  0  0  0  0  0
  193.6440  174.7860  145.6060 C   0  0  0  0  0  0  0  0  0  0  0  0
  195.0800  176.2450  144.3770 C   0  0  0  0  0  3  0  0  0  0  0  0
  195.0180  177.2340  145.4640 C   0  0  0  0  0  3  0  0  0  0  0  0
  194.2330  177.0310  146.5250 C   0  0  0  0  0  3  0  0  0  0  0  0
  194.4460  175.1150  144.4650 N   0  0  0  0  0  0  0  0  0  0  0  0
  1  7  1  0  0  0  0
  2 11  1  0  0  0  0
  3 14  2  0  0  0  0
  4  8  1  0  0  0  0
  5  2  1  0  0  0  0
  7  3  1  0  0  0  0
  7  2  2  0  0  0  0
  8 25  1  1  0  0  0
  9 13  1  0  0  0  0
  9  3  1  0  0  0  0
 10 15  1  0  0  0  0
 10  1  2  0  0  0  0
 11  6  2  0  0  0  0
 12  4  1  0  0  0  0
 13 18  1  6  0  0  0
 13 12  1  0  0  0  0
 14  8  1  0  0  0  0
 14  6  1  0  0  0  0
 15  9  2  0  0  0  0
 16 20  1  0  0  0  0
 17 19  1  0  0  0  0
 17 16  2  0  0  0  0
 19 21  2  0  0  0  0
 20 18  2  0  0  0  0
 21 18  1  0  0  0  0
 22 16  1  0  0  0  0
 23 24  1  0  0  0  0
 24  1  1  0  0  0  0
 25 26  1  0  0  0  0
 27 26  1  0  0  0  0
 29 27  1  6  0  0  0
 30 28  2  0  0  0  0
 30 29  1  0  0  0  0
 31 34  2  0  0  0  0
 31 32  1  0  0  0  0
 32 33  2  0  0  0  0
 33 29  1  0  0  0  0
 34 30  1  0  0  0  0
M  END
>  <MODEL>
3

>  <REMARK>
 VINA RESULT:      -7.2      3.101      5.886
  Name = 
  6 active torsions:
  status: ('A' for Active; 'I' for Inactive)
    1  A    between atoms: C_1  and  O_19
    2  A    between atoms: C_3  and  C_13
    3  A    between atoms: C_3  and  N_17
    4  A    between atoms: C_12  and  C_28
    5  A    between atoms: N_17  and  C_29
    6  A    between atoms: C_18  and  C_29
                            x       y       z     vdW  Elec       q    Type
                         _______ _______ _______ _____ _____    ______ ____

>  <TORSDO>
F 6

$$$$
=
 OpenBabel11052418393D

 34 38  0  0  1  0  0  0  0  0999 V2000
  186.6500  176.9760  142.2760 C   0  0  0  0  0  0  0  0  0  0  0  0
  186.1280  177.3360  144.6570 C   0  0  0  0  0  0  0  0  0  0  0  0
  188.1180  176.0420  144.0140 C   0  0  0  0  0  0  0  0  0  0  0  0
  189.6910  173.7390  145.6570 C   0  0  0  0  0  2  0  0  0  0  0  0
  184.9820  178.0630  144.3580 O   0  0  0  0  0  1  0  0  0  0  0  0
  187.5800  176.4470  146.3610 C   0  0  0  0  0  3  0  0  0  0  0  0
  186.9570  176.7950  143.6440 C   0  0  0  0  0  0  0  0  0  0  0  0
  189.7270  175.2490  145.8670 C   0  0  1  0  0  3  0  0  0  0  0  0
  188.8810  175.4260  142.9750 C   0  0  0  0  0  0  0  0  0  0  0  0
  187.4670  176.3840  141.3140 C   0  0  0  0  0  3  0  0  0  0  0  0
  186.4390  177.1420  145.9970 C   0  0  0  0  0  3  0  0  0  0  0  0
  189.6200  173.3500  144.1790 C   0  0  0  0  0  2  0  0  0  0  0  0
  190.0460  174.4940  143.2570 C   0  0  1  0  0  3  0  0  0  0  0  0
  188.4480  175.9180  145.3980 C   0  0  0  0  0  0  0  0  0  0  0  0
  188.5300  175.6330  141.6770 N   0  0  0  0  0  0  0  0  0  0  0  0
  190.8950  172.4600  140.1440 C   0  0  0  0  0  0  0  0  0  0  0  0
  192.0780  173.0850  139.7330 C   0  0  0  0  0  3  0  0  0  0  0  0
  190.7480  173.9810  142.0310 C   0  0  0  0  0  0  0  0  0  0  0  0
  192.5920  174.1580  140.4660 C   0  0  0  0  0  3  0  0  0  0  0  0
  190.2300  172.9060  141.2890 C   0  0  0  0  0  3  0  0  0  0  0  0
  191.9270  174.6060  141.6120 C   0  0  0  0  0  3  0  0  0  0  0  0
  190.3960  171.4220  139.4310 F   0  0  0  0  0  0  0  0  0  0  0  0
  185.1960  177.9540  140.5170 C   0  0  0  0  0  1  0  0  0  0  0  0
  185.5420  177.7360  141.8790 O   0  0  0  0  0  0  0  0  0  0  0  0
  190.1450  175.5820  147.2950 C   0  0  0  0  0  2  0  0  0  0  0  0
  191.3870  176.3330  147.2770 N   0  0  0  0  0  2  0  0  0  0  0  0
  192.4630  175.3620  147.1710 C   0  0  0  0  0  2  0  0  0  0  0  0
  194.5660  177.3200  146.0920 O   0  0  0  0  0  0  0  0  0  0  0  0
  193.1040  175.4400  145.7940 C   0  0  1  0  0  3  0  0  0  0  0  0
  194.4680  176.0830  145.8860 C   0  0  0  0  0  0  0  0  0  0  0  0
  195.6140  174.0460  145.3930 C   0  0  0  0  0  3  0  0  0  0  0  0
  194.3360  173.3990  145.0590 C   0  0  0  0  0  3  0  0  0  0  0  0
  193.1810  174.0500  145.2200 C   0  0  0  0  0  3  0  0  0  0  0  0
  195.6560  175.2910  145.7630 N   0  0  0  0  0  0  0  0  0  0  0  0
  1  7  1  0  0  0  0
  2 11  1  0  0  0  0
  3 14  2  0  0  0  0
  4  8  1  0  0  0  0
  5  2  1  0  0  0  0
  7  3  1  0  0  0  0
  7  2  2  0  0  0  0
  8 25  1  1  0  0  0
  9 13  1  0  0  0  0
  9  3  1  0  0  0  0
 10 15  1  0  0  0  0
 10  1  2  0  0  0  0
 11  6  2  0  0  0  0
 12  4  1  0  0  0  0
 13 18  1  6  0  0  0
 13 12  1  0  0  0  0
 14  8  1  0  0  0  0
 14  6  1  0  0  0  0
 15  9  2  0  0  0  0
 16 20  1  0  0  0  0
 17 16  2  0  0  0  0
 17 19  1  0  0  0  0
 19 21  2  0  0  0  0
 20 18  2  0  0  0  0
 21 18  1  0  0  0  0
 22 16  1  0  0  0  0
 23 24  1  0  0  0  0
 24  1  1  0  0  0  0
 26 25  1  0  0  0  0
 27 26  1  0  0  0  0
 29 30  1  0  0  0  0
 29 27  1  1  0  0  0
 30 28  2  0  0  0  0
 31 34  2  0  0  0  0
 32 33  2  0  0  0  0
 32 31  1  0  0  0  0
 33 29  1  0  0  0  0
 34 30  1  0  0  0  0
M  END
>  <MODEL>
4

>  <REMARK>
 VINA RESULT:      -7.0      3.209      5.770
  Name = 
  6 active torsions:
  status: ('A' for Active; 'I' for Inactive)
    1  A    between atoms: C_1  and  O_19
    2  A    between atoms: C_3  and  C_13
    3  A    between atoms: C_3  and  N_17
    4  A    between atoms: C_12  and  C_28
    5  A    between atoms: N_17  and  C_29
    6  A    between atoms: C_18  and  C_29
                            x       y       z     vdW  Elec       q    Type
                         _______ _______ _______ _____ _____    ______ ____

>  <TORSDO>
F 6

$$$$
=
 OpenBabel11052418393D

 34 38  0  0  1  0  0  0  0  0999 V2000
  187.0790  178.0150  147.0390 C   0  0  0  0  0  0  0  0  0  0  0  0
  185.4760  178.3340  145.1950 C   0  0  0  0  0  0  0  0  0  0  0  0
  187.7090  177.4100  144.7400 C   0  0  0  0  0  0  0  0  0  0  0  0
  189.4500  177.4940  142.0120 C   0  0  0  0  0  2  0  0  0  0  0  0
  184.5070  178.8500  146.0480 O   0  0  0  0  0  1  0  0  0  0  0  0
  186.0800  177.7150  142.9470 C   0  0  0  0  0  3  0  0  0  0  0  0
  186.7450  177.9200  145.6680 C   0  0  0  0  0  0  0  0  0  0  0  0
  188.2510  176.6140  142.3470 C   0  0  1  0  0  3  0  0  0  0  0  0
  189.0140  177.0920  145.2280 C   0  0  0  0  0  0  0  0  0  0  0  0
  188.3580  177.6420  147.4520 C   0  0  0  0  0  3  0  0  0  0  0  0
  185.1660  178.2430  143.8440 C   0  0  0  0  0  3  0  0  0  0  0  0
  190.3750  177.7150  143.2120 C   0  0  0  0  0  2  0  0  0  0  0  0
  190.1520  176.6770  144.3130 C   0  0  1  0  0  3  0  0  0  0  0  0
  187.3360  177.2650  143.3680 C   0  0  0  0  0  0  0  0  0  0  0  0
  189.2750  177.2100  146.5580 N   0  0  0  0  0  0  0  0  0  0  0  0
  193.7430  176.8400  145.5910 C   0  0  0  0  0  0  0  0  0  0  0  0
  193.7910  175.6940  146.3940 C   0  0  0  0  0  3  0  0  0  0  0  0
  191.4350  176.3430  145.0220 C   0  0  0  0  0  0  0  0  0  0  0  0
  192.6640  174.8770  146.5140 C   0  0  0  0  0  3  0  0  0  0  0  0
  192.5680  177.1660  144.9080 C   0  0  0  0  0  3  0  0  0  0  0  0
  191.4870  175.2020  145.8310 C   0  0  0  0  0  3  0  0  0  0  0  0
  194.8350  177.6330  145.4780 F   0  0  0  0  0  0  0  0  0  0  0  0
  186.3230  179.6790  148.7190 C   0  0  0  0  0  1  0  0  0  0  0  0
  186.1490  178.4770  147.9790 O   0  0  0  0  0  0  0  0  0  0  0  0
  187.5620  176.1380  141.0730 C   0  0  0  0  0  2  0  0  0  0  0  0
  188.1960  174.9200  140.6010 N   0  0  0  0  0  2  0  0  0  0  0  0
  188.0180  173.9240  141.6430 C   0  0  0  0  0  2  0  0  0  0  0  0
  189.0370  172.1060  139.3890 O   0  0  0  0  0  0  0  0  0  0  0  0
  189.1810  172.9430  141.6340 C   0  0  1  0  0  3  0  0  0  0  0  0
  189.7050  172.7630  140.2290 C   0  0  0  0  0  0  0  0  0  0  0  0
  191.7500  173.9050  140.6950 C   0  0  0  0  0  3  0  0  0  0  0  0
  191.4220  173.9210  142.1300 C   0  0  0  0  0  3  0  0  0  0  0  0
  190.2490  173.4550  142.5650 C   0  0  0  0  0  3  0  0  0  0  0  0
  190.9490  173.3560  139.8330 N   0  0  0  0  0  0  0  0  0  0  0  0
  1 10  1  0  0  0  0
  1 24  1  0  0  0  0
  2  7  1  0  0  0  0
  2  5  1  0  0  0  0
  3  9  2  0  0  0  0
  3  7  1  0  0  0  0
  4  8  1  0  0  0  0
  4 12  1  0  0  0  0
  6 14  2  0  0  0  0
  6 11  1  0  0  0  0
  7  1  2  0  0  0  0
  8 25  1  6  0  0  0
  8 14  1  0  0  0  0
  9 15  1  0  0  0  0
 11  2  2  0  0  0  0
 12 13  1  0  0  0  0
 13 18  1  1  0  0  0
 13  9  1  0  0  0  0
 14  3  1  0  0  0  0
 15 10  2  0  0  0  0
 16 17  1  0  0  0  0
 17 19  2  0  0  0  0
 18 21  2  0  0  0  0
 20 18  1  0  0  0  0
 20 16  2  0  0  0  0
 21 19  1  0  0  0  0
 22 16  1  0  0  0  0
 24 23  1  0  0  0  0
 26 25  1  0  0  0  0
 26 27  1  0  0  0  0
 28 30  2  0  0  0  0
 29 27  1  6  0  0  0
 29 33  1  0  0  0  0
 30 29  1  0  0  0  0
 31 32  1  0  0  0  0
 32 33  2  0  0  0  0
 34 30  1  0  0  0  0
 34 31  2  0  0  0  0
M  END
>  <MODEL>
5

>  <REMARK>
 VINA RESULT:      -6.7      2.778      6.828
  Name = 
  6 active torsions:
  status: ('A' for Active; 'I' for Inactive)
    1  A    between atoms: C_1  and  O_19
    2  A    between atoms: C_3  and  C_13
    3  A    between atoms: C_3  and  N_17
    4  A    between atoms: C_12  and  C_28
    5  A    between atoms: N_17  and  C_29
    6  A    between atoms: C_18  and  C_29
                            x       y       z     vdW  Elec       q    Type
                         _______ _______ _______ _____ _____    ______ ____

>  <TORSDO>
F 6

$$$$
=
 OpenBabel11052418393D

 34 38  0  0  1  0  0  0  0  0999 V2000
  192.3330  172.8160  140.2770 C   0  0  0  0  0  0  0  0  0  0  0  0
  190.0660  172.9030  139.3150 C   0  0  0  0  0  0  0  0  0  0  0  0
  190.5880  174.1700  141.3570 C   0  0  0  0  0  0  0  0  0  0  0  0
  188.6160  175.1330  143.7370 C   0  0  0  0  0  2  0  0  0  0  0  0
  190.4080  172.0410  138.2790 O   0  0  0  0  0  1  0  0  0  0  0  0
  188.3620  174.2510  140.3540 C   0  0  0  0  0  3  0  0  0  0  0  0
  191.0020  173.2910  140.3050 C   0  0  0  0  0  0  0  0  0  0  0  0
  188.7800  175.7240  142.3410 C   0  0  1  0  0  3  0  0  0  0  0  0
  191.5230  174.4670  142.3950 C   0  0  0  0  0  0  0  0  0  0  0  0
  193.2070  173.1850  141.2990 C   0  0  0  0  0  3  0  0  0  0  0  0
  188.7600  173.3720  139.3610 C   0  0  0  0  0  3  0  0  0  0  0  0
  189.9420  174.6590  144.3360 C   0  0  0  0  0  2  0  0  0  0  0  0
  191.1510  175.2720  143.6270 C   0  0  1  0  0  3  0  0  0  0  0  0
  189.2570  174.6890  141.3390 C   0  0  0  0  0  0  0  0  0  0  0  0
  192.7890  173.9740  142.3140 N   0  0  0  0  0  0  0  0  0  0  0  0
  194.0780  176.9030  145.4500 C   0  0  0  0  0  0  0  0  0  0  0  0
  194.3670  175.9290  146.4130 C   0  0  0  0  0  3  0  0  0  0  0  0
  192.2850  175.5140  144.5830 C   0  0  0  0  0  0  0  0  0  0  0  0
  193.6150  174.7530  146.4640 C   0  0  0  0  0  3  0  0  0  0  0  0
  193.0390  176.6980  144.5380 C   0  0  0  0  0  3  0  0  0  0  0  0
  192.5750  174.5460  145.5520 C   0  0  0  0  0  3  0  0  0  0  0  0
  194.8060  178.0450  145.4030 F   0  0  0  0  0  0  0  0  0  0  0  0
  193.4110  170.7290  139.4730 C   0  0  0  0  0  1  0  0  0  0  0  0
  192.7810  171.9830  139.2430 O   0  0  0  0  0  0  0  0  0  0  0  0
  187.5250  176.4890  141.9320 C   0  0  0  0  0  2  0  0  0  0  0  0
  186.4130  176.0850  142.7730 N   0  0  0  0  0  2  0  0  0  0  0  0
  185.6510  177.2860  143.0670 C   0  0  0  0  0  2  0  0  0  0  0  0
  185.5480  180.2000  144.0280 O   0  0  0  0  0  0  0  0  0  0  0  0
  186.1190  177.8950  144.3800 C   0  0  1  0  0  3  0  0  0  0  0  0
  185.3350  179.1480  144.6860 C   0  0  0  0  0  0  0  0  0  0  0  0
  184.1800  178.1440  146.5200 C   0  0  0  0  0  3  0  0  0  0  0  0
  185.0600  176.9680  146.4390 C   0  0  0  0  0  3  0  0  0  0  0  0
  185.9710  176.8640  145.4680 C   0  0  0  0  0  3  0  0  0  0  0  0
  184.3290  179.1470  145.7080 N   0  0  0  0  0  0  0  0  0  0  0  0
  1  7  2  0  0  0  0
  1 10  1  0  0  0  0
  2 11  2  0  0  0  0
  2  7  1  0  0  0  0
  3  9  2  0  0  0  0
  4 12  1  0  0  0  0
  5  2  1  0  0  0  0
  6 14  2  0  0  0  0
  7  3  1  0  0  0  0
  8 25  1  6  0  0  0
  8  4  1  0  0  0  0
  9 13  1  0  0  0  0
 10 15  2  0  0  0  0
 11  6  1  0  0  0  0
 13 12  1  0  0  0  0
 13 18  1  1  0  0  0
 14  3  1  0  0  0  0
 14  8  1  0  0  0  0
 15  9  1  0  0  0  0
 16 17  1  0  0  0  0
 17 19  2  0  0  0  0
 18 21  2  0  0  0  0
 20 18  1  0  0  0  0
 20 16  2  0  0  0  0
 21 19  1  0  0  0  0
 22 16  1  0  0  0  0
 24 23  1  0  0  0  0
 24  1  1  0  0  0  0
 25 26  1  0  0  0  0
 26 27  1  0  0  0  0
 28 30  2  0  0  0  0
 29 27  1  6  0  0  0
 29 30  1  0  0  0  0
 29 33  1  0  0  0  0
 30 34  1  0  0  0  0
 32 31  1  0  0  0  0
 33 32  2  0  0  0  0
 34 31  2  0  0  0  0
M  END
>  <MODEL>
6

>  <REMARK>
 VINA RESULT:      -6.7      2.892      6.059
  Name = 
  6 active torsions:
  status: ('A' for Active; 'I' for Inactive)
    1  A    between atoms: C_1  and  O_19
    2  A    between atoms: C_3  and  C_13
    3  A    between atoms: C_3  and  N_17
    4  A    between atoms: C_12  and  C_28
    5  A    between atoms: N_17  and  C_29
    6  A    between atoms: C_18  and  C_29
                            x       y       z     vdW  Elec       q    Type
                         _______ _______ _______ _____ _____    ______ ____

>  <TORSDO>
F 6

$$$$
=
 OpenBabel11052418393D

 34 38  0  0  1  0  0  0  0  0999 V2000
  194.0510  173.7030  144.0370 C   0  0  0  0  0  0  0  0  0  0  0  0
  194.2740  175.2740  145.9220 C   0  0  0  0  0  0  0  0  0  0  0  0
  192.1350  175.0830  144.7230 C   0  0  0  0  0  0  0  0  0  0  0  0
  189.7680  177.2650  144.3860 C   0  0  0  0  0  2  0  0  0  0  0  0
  195.6050  174.9310  146.1280 O   0  0  0  0  0  1  0  0  0  0  0  0
  192.3910  176.6070  146.6150 C   0  0  0  0  0  3  0  0  0  0  0  0
  193.4980  174.6790  144.8970 C   0  0  0  0  0  0  0  0  0  0  0  0
  190.1050  176.4100  145.6020 C   0  0  1  0  0  3  0  0  0  0  0  0
  191.4060  174.5400  143.6210 C   0  0  0  0  0  0  0  0  0  0  0  0
  193.2650  173.1800  143.0110 C   0  0  0  0  0  3  0  0  0  0  0  0
  193.7190  176.2380  146.7530 C   0  0  0  0  0  3  0  0  0  0  0  0
  189.9600  176.5160  143.0650 C   0  0  0  0  0  2  0  0  0  0  0  0
  190.0050  175.0000  143.2600 C   0  0  1  0  0  3  0  0  0  0  0  0
  191.5730  176.0270  145.6370 C   0  0  0  0  0  0  0  0  0  0  0  0
  191.9960  173.6070  142.8260 N   0  0  0  0  0  0  0  0  0  0  0  0
  189.2780  173.7740  139.7220 C   0  0  0  0  0  0  0  0  0  0  0  0
  188.2320  172.8760  139.9610 C   0  0  0  0  0  3  0  0  0  0  0  0
  189.3900  174.2770  142.0950 C   0  0  0  0  0  0  0  0  0  0  0  0
  187.7680  172.6760  141.2640 C   0  0  0  0  0  3  0  0  0  0  0  0
  189.8580  174.4720  140.7850 C   0  0  0  0  0  3  0  0  0  0  0  0
  188.3470  173.3730  142.3290 C   0  0  0  0  0  3  0  0  0  0  0  0
  189.7290  173.9660  138.4590 F   0  0  0  0  0  0  0  0  0  0  0  0
  196.2860  173.1290  143.1220 C   0  0  0  0  0  1  0  0  0  0  0  0
  195.3700  173.2590  144.2010 O   0  0  0  0  0  0  0  0  0  0  0  0
  189.5760  177.0580  146.8770 C   0  0  0  0  0  2  0  0  0  0  0  0
  188.2670  177.6330  146.6230 N   0  0  0  0  0  2  0  0  0  0  0  0
  187.2910  176.5910  146.8860 C   0  0  0  0  0  2  0  0  0  0  0  0
  185.0900  178.5900  147.6480 O   0  0  0  0  0  0  0  0  0  0  0  0
  185.9810  176.9100  146.1830 C   0  0  1  0  0  3  0  0  0  0  0  0
  185.5420  178.3190  146.5050 C   0  0  0  0  0  0  0  0  0  0  0  0
  185.9650  179.1060  144.2900 C   0  0  0  0  0  3  0  0  0  0  0  0
  186.1870  177.7250  143.8340 C   0  0  0  0  0  3  0  0  0  0  0  0
  186.1690  176.7100  144.7030 C   0  0  0  0  0  3  0  0  0  0  0  0
  185.6580  179.3600  145.5270 N   0  0  0  0  0  0  0  0  0  0  0  0
  1 24  1  0  0  0  0
  1  7  1  0  0  0  0
  2  5  1  0  0  0  0
  2 11  1  0  0  0  0
  3  7  1  0  0  0  0
  3 14  2  0  0  0  0
  4  8  1  0  0  0  0
  6 11  2  0  0  0  0
  7  2  2  0  0  0  0
  8 14  1  0  0  0  0
  8 25  1  1  0  0  0
  9  3  1  0  0  0  0
 10  1  2  0  0  0  0
 12 13  1  0  0  0  0
 12  4  1  0  0  0  0
 13 18  1  6  0  0  0
 13  9  1  0  0  0  0
 14  6  1  0  0  0  0
 15 10  1  0  0  0  0
 15  9  2  0  0  0  0
 16 17  2  0  0  0  0
 16 20  1  0  0  0  0
 17 19  1  0  0  0  0
 18 21  1  0  0  0  0
 19 21  2  0  0  0  0
 20 18  2  0  0  0  0
 22 16  1  0  0  0  0
 23 24  1  0  0  0  0
 26 25  1  0  0  0  0
 26 27  1  0  0  0  0
 29 30  1  0  0  0  0
 29 27  1  1  0  0  0
 30 28  2  0  0  0  0
 31 34  2  0  0  0  0
 32 31  1  0  0  0  0
 32 33  2  0  0  0  0
 33 29  1  0  0  0  0
 34 30  1  0  0  0  0
M  END
>  <MODEL>
7

>  <REMARK>
 VINA RESULT:      -6.7      3.158      5.846
  Name = 
  6 active torsions:
  status: ('A' for Active; 'I' for Inactive)
    1  A    between atoms: C_1  and  O_19
    2  A    between atoms: C_3  and  C_13
    3  A    between atoms: C_3  and  N_17
    4  A    between atoms: C_12  and  C_28
    5  A    between atoms: N_17  and  C_29
    6  A    between atoms: C_18  and  C_29
                            x       y       z     vdW  Elec       q    Type
                         _______ _______ _______ _____ _____    ______ ____

>  <TORSDO>
F 6

$$$$
=
 OpenBabel11052418393D

 34 38  0  0  1  0  0  0  0  0999 V2000
  189.2590  173.5620  141.2050 C   0  0  0  0  0  0  0  0  0  0  0  0
  191.6610  173.8040  140.7120 C   0  0  0  0  0  0  0  0  0  0  0  0
  190.6280  175.1450  142.4950 C   0  0  0  0  0  0  0  0  0  0  0  0
  191.5250  178.0180  143.6880 C   0  0  0  0  0  2  0  0  0  0  0  0
  191.6070  172.8640  139.6900 O   0  0  0  0  0  1  0  0  0  0  0  0
  193.0100  175.3340  141.9930 C   0  0  0  0  0  3  0  0  0  0  0  0
  190.5140  174.1580  141.4650 C   0  0  0  0  0  0  0  0  0  0  0  0
  192.1420  176.6480  143.9440 C   0  0  1  0  0  3  0  0  0  0  0  0
  189.4370  175.5540  143.1720 C   0  0  0  0  0  0  0  0  0  0  0  0
  188.1470  173.9760  141.9380 C   0  0  0  0  0  3  0  0  0  0  0  0
  192.8850  174.4060  140.9730 C   0  0  0  0  0  3  0  0  0  0  0  0
  189.9990  177.9680  143.5790 C   0  0  0  0  0  2  0  0  0  0  0  0
  189.4180  176.6880  144.1820 C   0  0  1  0  0  3  0  0  0  0  0  0
  191.9140  175.6960  142.7850 C   0  0  0  0  0  0  0  0  0  0  0  0
  188.2580  174.9450  142.8730 N   0  0  0  0  0  0  0  0  0  0  0  0
  186.5570  176.7940  146.7040 C   0  0  0  0  0  0  0  0  0  0  0  0
  185.5750  177.4600  145.9620 C   0  0  0  0  0  3  0  0  0  0  0  0
  188.0780  176.9380  144.8160 C   0  0  0  0  0  0  0  0  0  0  0  0
  185.8430  177.8670  144.6530 C   0  0  0  0  0  3  0  0  0  0  0  0
  187.8070  176.5350  146.1340 C   0  0  0  0  0  3  0  0  0  0  0  0
  187.0930  177.6080  144.0820 C   0  0  0  0  0  3  0  0  0  0  0  0
  186.2970  176.4020  147.9740 F   0  0  0  0  0  0  0  0  0  0  0  0
  188.1970  172.6620  139.1500 C   0  0  0  0  0  1  0  0  0  0  0  0
  189.1190  172.5680  140.2280 O   0  0  0  0  0  0  0  0  0  0  0  0
  193.5940  176.7890  144.3880 C   0  0  0  0  0  2  0  0  0  0  0  0
  193.7470  176.2590  145.7310 N   0  0  0  0  0  2  0  0  0  0  0  0
  193.1370  174.9410  145.7340 C   0  0  0  0  0  2  0  0  0  0  0  0
  193.0910  172.0440  144.7190 O   0  0  0  0  0  0  0  0  0  0  0  0
  194.2110  173.8660  145.8090 C   0  0  1  0  0  3  0  0  0  0  0  0
  194.0380  172.8720  144.6850 C   0  0  0  0  0  0  0  0  0  0  0  0
  196.0120  173.5970  143.5540 C   0  0  0  0  0  3  0  0  0  0  0  0
  196.3790  174.4280  144.7120 C   0  0  0  0  0  3  0  0  0  0  0  0
  195.5610  174.5310  145.7620 C   0  0  0  0  0  3  0  0  0  0  0  0
  194.9310  172.8770  143.5650 N   0  0  0  0  0  0  0  0  0  0  0  0
  1  7  2  0  0  0  0
  1 10  1  0  0  0  0
  2 11  2  0  0  0  0
  2  7  1  0  0  0  0
  3 14  1  0  0  0  0
  3  9  2  0  0  0  0
  4  8  1  0  0  0  0
  5  2  1  0  0  0  0
  6 14  2  0  0  0  0
  7  3  1  0  0  0  0
  8 25  1  6  0  0  0
  9 13  1  0  0  0  0
 10 15  2  0  0  0  0
 11  6  1  0  0  0  0
 12  4  1  0  0  0  0
 12 13  1  0  0  0  0
 13 18  1  6  0  0  0
 14  8  1  0  0  0  0
 15  9  1  0  0  0  0
 16 22  1  0  0  0  0
 17 16  2  0  0  0  0
 18 20  2  0  0  0  0
 19 17  1  0  0  0  0
 20 16  1  0  0  0  0
 21 19  2  0  0  0  0
 21 18  1  0  0  0  0
 23 24  1  0  0  0  0
 24  1  1  0  0  0  0
 25 26  1  0  0  0  0
 26 27  1  0  0  0  0
 29 27  1  6  0  0  0
 30 28  2  0  0  0  0
 30 29  1  0  0  0  0
 31 34  2  0  0  0  0
 31 32  1  0  0  0  0
 32 33  2  0  0  0  0
 33 29  1  0  0  0  0
 34 30  1  0  0  0  0
M  END
>  <MODEL>
8

>  <REMARK>
 VINA RESULT:      -6.5      1.824      2.261
  Name = 
  6 active torsions:
  status: ('A' for Active; 'I' for Inactive)
    1  A    between atoms: C_1  and  O_19
    2  A    between atoms: C_3  and  C_13
    3  A    between atoms: C_3  and  N_17
    4  A    between atoms: C_12  and  C_28
    5  A    between atoms: N_17  and  C_29
    6  A    between atoms: C_18  and  C_29
                            x       y       z     vdW  Elec       q    Type
                         _______ _______ _______ _____ _____    ______ ____

>  <TORSDO>
F 6

$$$$
=
 OpenBabel11052418393D

 34 38  0  0  1  0  0  0  0  0999 V2000
  185.9000  177.1380  144.3090 C   0  0  0  0  0  0  0  0  0  0  0  0
  187.0180  177.8190  146.3970 C   0  0  0  0  0  0  0  0  0  0  0  0
  188.2190  176.4460  144.7480 C   0  0  0  0  0  0  0  0  0  0  0  0
  190.6750  174.3850  145.1890 C   0  0  0  0  0  2  0  0  0  0  0  0
  185.8930  178.5000  146.8470 O   0  0  0  0  0  1  0  0  0  0  0  0
  189.2990  177.1670  146.8160 C   0  0  0  0  0  3  0  0  0  0  0  0
  187.0350  177.1440  145.1520 C   0  0  0  0  0  0  0  0  0  0  0  0
  190.7060  175.9090  145.1660 C   0  0  1  0  0  3  0  0  0  0  0  0
  188.1760  175.6930  143.5340 C   0  0  0  0  0  0  0  0  0  0  0  0
  185.9460  176.4190  143.1150 C   0  0  0  0  0  3  0  0  0  0  0  0
  188.1390  177.8080  147.2180 C   0  0  0  0  0  3  0  0  0  0  0  0
  189.6970  173.7980  144.1680 C   0  0  0  0  0  2  0  0  0  0  0  0
  189.3220  174.8060  143.0810 C   0  0  1  0  0  3  0  0  0  0  0  0
  189.3770  176.5100  145.5820 C   0  0  0  0  0  0  0  0  0  0  0  0
  187.0510  175.7230  142.7690 N   0  0  0  0  0  0  0  0  0  0  0  0
  188.3880  174.1760  139.4360 C   0  0  0  0  0  0  0  0  0  0  0  0
  188.7480  172.8300  139.2990 C   0  0  0  0  0  3  0  0  0  0  0  0
  189.1030  174.1290  141.7560 C   0  0  0  0  0  0  0  0  0  0  0  0
  189.2870  172.1370  140.3850 C   0  0  0  0  0  3  0  0  0  0  0  0
  188.5660  174.8260  140.6600 C   0  0  0  0  0  3  0  0  0  0  0  0
  189.4660  172.7860  141.6110 C   0  0  0  0  0  3  0  0  0  0  0  0
  187.8680  174.8480  138.3810 F   0  0  0  0  0  0  0  0  0  0  0  0
  184.1080  178.7770  143.7940 C   0  0  0  0  0  1  0  0  0  0  0  0
  184.7380  177.8400  144.6580 O   0  0  0  0  0  0  0  0  0  0  0  0
  191.9190  176.4320  145.9280 C   0  0  0  0  0  2  0  0  0  0  0  0
  192.8090  177.1230  145.0120 N   0  0  0  0  0  2  0  0  0  0  0  0
  194.1340  176.5610  145.2090 C   0  0  0  0  0  2  0  0  0  0  0  0
  196.5050  174.6890  144.6640 O   0  0  0  0  0  0  0  0  0  0  0  0
  194.6880  176.0520  143.8870 C   0  0  1  0  0  3  0  0  0  0  0  0
  195.3880  174.7280  144.0860 C   0  0  0  0  0  0  0  0  0  0  0  0
  193.7110  173.5060  142.9030 C   0  0  0  0  0  3  0  0  0  0  0  0
  193.0890  174.7670  142.4680 C   0  0  0  0  0  3  0  0  0  0  0  0
  193.5550  175.9410  142.9010 C   0  0  0  0  0  3  0  0  0  0  0  0
  194.7790  173.5090  143.6420 N   0  0  0  0  0  0  0  0  0  0  0  0
  1 24  1  0  0  0  0
  1  7  1  0  0  0  0
  2  5  1  0  0  0  0
  2 11  1  0  0  0  0
  3  7  1  0  0  0  0
  3 14  2  0  0  0  0
  6 11  2  0  0  0  0
  7  2  2  0  0  0  0
  8  4  1  0  0  0  0
  8 14  1  0  0  0  0
  8 25  1  1  0  0  0
  9  3  1  0  0  0  0
 10  1  2  0  0  0  0
 12  4  1  0  0  0  0
 13 18  1  6  0  0  0
 13  9  1  0  0  0  0
 13 12  1  0  0  0  0
 14  6  1  0  0  0  0
 15 10  1  0  0  0  0
 15  9  2  0  0  0  0
 16 20  1  0  0  0  0
 17 16  2  0  0  0  0
 17 19  1  0  0  0  0
 19 21  2  0  0  0  0
 20 18  2  0  0  0  0
 21 18  1  0  0  0  0
 22 16  1  0  0  0  0
 23 24  1  0  0  0  0
 26 27  1  0  0  0  0
 26 25  1  0  0  0  0
 29 30  1  0  0  0  0
 29 27  1  1  0  0  0
 30 28  2  0  0  0  0
 31 34  2  0  0  0  0
 32 33  2  0  0  0  0
 32 31  1  0  0  0  0
 33 29  1  0  0  0  0
 34 30  1  0  0  0  0
M  END
>  <MODEL>
9

>  <REMARK>
 VINA RESULT:      -6.5      3.016      5.780
  Name = 
  6 active torsions:
  status: ('A' for Active; 'I' for Inactive)
    1  A    between atoms: C_1  and  O_19
    2  A    between atoms: C_3  and  C_13
    3  A    between atoms: C_3  and  N_17
    4  A    between atoms: C_12  and  C_28
    5  A    between atoms: N_17  and  C_29
    6  A    between atoms: C_18  and  C_29
                            x       y       z     vdW  Elec       q    Type
                         _______ _______ _______ _____ _____    ______ ____

>  <TORSDO>
F 6

$$$$
