=
 OpenBabel11052418203D

 27 32  0  0  1  0  0  0  0  0999 V2000
  191.1790  176.6270  143.5750 C   0  0  0  0  0  2  0  0  0  0  0  0
  188.7950  176.0850  143.1520 C   0  0  0  0  0  0  0  0  0  0  0  0
  188.9840  176.9590  145.4910 N   0  0  0  0  0  2  0  0  0  0  0  0
  184.9170  177.6660  143.1450 N   0  0  0  0  0  2  0  0  0  0  0  0
  184.6200  179.7910  144.2930 C   0  0  0  0  0  1  0  0  0  0  0  0
  188.0000  175.8990  142.0000 C   0  0  0  0  0  3  0  0  0  0  0  0
  186.1580  178.0300  145.1830 C   0  0  1  0  0  3  0  0  0  0  0  0
  191.4800  175.3230  147.7730 C   0  0  0  0  0  2  0  0  0  0  0  0
  185.8980  177.1660  146.4040 C   0  0  0  0  0  1  0  0  0  0  0  0
  192.6900  175.1190  146.8370 C   0  0  2  0  0  3  0  0  0  0  0  0
  186.9470  177.2710  144.1710 C   0  0  0  0  0  0  0  0  0  0  0  0
  190.1710  175.6620  143.1360 N   0  0  0  0  0  0  0  0  0  0  0  0
  184.8200  178.2980  144.4600 C   0  0  2  0  0  3  0  0  0  0  0  0
  186.1990  177.0840  143.0430 C   0  0  0  0  0  0  0  0  0  0  0  0
  191.3880  176.5830  145.0880 C   0  0  2  0  0  3  0  0  0  0  0  0
  188.2550  176.7800  144.2690 C   0  0  0  0  0  0  0  0  0  0  0  0
  190.4420  176.3480  147.3300 C   0  0  0  0  0  2  0  0  0  0  0  0
  186.6910  176.3950  141.9400 C   0  0  0  0  0  3  0  0  0  0  0  0
  193.4020  176.4160  146.5130 C   0  0  0  0  0  2  0  0  0  0  0  0
  192.6060  175.7150  145.4200 C   0  0  1  0  0  3  0  0  0  0  0  0
  190.1430  176.1570  145.8630 C   0  0  1  0  0  3  0  0  0  0  0  0
  191.2930  171.7600  141.8600 C   0  0  0  0  0  3  0  0  0  0  0  0
  190.5640  174.3390  142.7100 C   0  0  0  0  0  0  0  0  0  0  0  0
  191.3750  174.1620  141.5760 C   0  0  0  0  0  3  0  0  0  0  0  0
  191.7390  172.8810  141.1550 C   0  0  0  0  0  3  0  0  0  0  0  0
  190.4820  171.9220  142.9860 C   0  0  0  0  0  3  0  0  0  0  0  0
  190.1180  173.2040  143.4060 C   0  0  0  0  0  3  0  0  0  0  0  0
  2 16  1  0  0  0  0
  3 21  1  0  0  0  0
  4 13  1  0  0  0  0
  6  2  2  0  0  0  0
  7  9  1  1  0  0  0
 10 19  1  1  0  0  0
 10  8  1  0  0  0  0
 11 16  2  0  0  0  0
 11  7  1  0  0  0  0
 12  2  1  0  0  0  0
 12  1  1  0  0  0  0
 13  5  1  6  0  0  0
 13  7  1  0  0  0  0
 14  4  1  0  0  0  0
 14 11  1  0  0  0  0
 15  1  1  6  0  0  0
 15 20  1  0  0  0  0
 15 21  1  0  0  0  0
 16  3  1  0  0  0  0
 17  8  1  0  0  0  0
 18  6  1  0  0  0  0
 18 14  2  0  0  0  0
 20 19  1  1  0  0  0
 20 10  1  0  0  0  0
 21 17  1  1  0  0  0
 22 26  1  0  0  0  0
 23 12  1  0  0  0  0
 23 27  1  0  0  0  0
 24 23  2  0  0  0  0
 25 24  1  0  0  0  0
 25 22  2  0  0  0  0
 26 27  2  0  0  0  0
M  END
>  <MODEL>
1

>  <REMARK>
 VINA RESULT:      -8.2      0.000      0.000
  Name = 
  1 active torsions:
  status: ('A' for Active; 'I' for Inactive)
    1  A    between atoms: C_9  and  N_15
                            x       y       z     vdW  Elec       q    Type
                         _______ _______ _______ _____ _____    ______ ____

>  <TORSDO>
F 1

$$$$
=
 OpenBabel11052418203D

 27 32  0  0  1  0  0  0  0  0999 V2000
  190.3870  173.5510  144.9990 C   0  0  0  0  0  2  0  0  0  0  0  0
  189.8280  175.8850  145.6300 C   0  0  0  0  0  0  0  0  0  0  0  0
  188.3790  175.2410  143.6910 N   0  0  0  0  0  2  0  0  0  0  0  0
  186.7040  178.4170  146.7990 N   0  0  0  0  0  2  0  0  0  0  0  0
  184.4480  177.5720  146.4500 C   0  0  0  0  0  1  0  0  0  0  0  0
  190.0090  176.6800  146.7820 C   0  0  0  0  0  3  0  0  0  0  0  0
  186.2760  177.1320  144.8000 C   0  0  1  0  0  3  0  0  0  0  0  0
  190.0670  173.8930  140.6180 C   0  0  0  0  0  2  0  0  0  0  0  0
  186.4040  177.7780  143.4320 C   0  0  0  0  0  1  0  0  0  0  0  0
  191.1470  172.9690  141.2200 C   0  0  2  0  0  3  0  0  0  0  0  0
  187.6260  176.8560  145.3700 C   0  0  0  0  0  0  0  0  0  0  0  0
  190.8330  174.9170  145.2750 N   0  0  0  0  0  0  0  0  0  0  0  0
  185.6800  178.1580  145.7880 C   0  0  2  0  0  3  0  0  0  0  0  0
  187.8210  177.6110  146.4910 C   0  0  0  0  0  0  0  0  0  0  0  0
  189.9790  173.3710  143.5370 C   0  0  2  0  0  3  0  0  0  0  0  0
  188.6110  175.9780  144.9000 C   0  0  0  0  0  0  0  0  0  0  0  0
  188.9080  174.2710  141.5330 C   0  0  0  0  0  2  0  0  0  0  0  0
  189.0060  177.5550  147.2180 C   0  0  0  0  0  3  0  0  0  0  0  0
  190.5680  171.7020  141.8110 C   0  0  0  0  0  2  0  0  0  0  0  0
  191.1390  172.7600  142.7450 C   0  0  1  0  0  3  0  0  0  0  0  0
  189.4440  174.6470  142.8920 C   0  0  1  0  0  3  0  0  0  0  0  0
  194.9510  175.9610  145.0310 C   0  0  0  0  0  3  0  0  0  0  0  0
  192.2330  175.2580  145.1880 C   0  0  0  0  0  0  0  0  0  0  0  0
  193.1210  174.9200  146.2230 C   0  0  0  0  0  3  0  0  0  0  0  0
  194.4720  175.2670  146.1440 C   0  0  0  0  0  3  0  0  0  0  0  0
  194.0780  176.3090  143.9970 C   0  0  0  0  0  3  0  0  0  0  0  0
  192.7270  175.9610  144.0760 C   0  0  0  0  0  3  0  0  0  0  0  0
  1 12  1  0  0  0  0
  2  6  1  0  0  0  0
  3 16  1  0  0  0  0
  6 18  2  0  0  0  0
  7  9  1  6  0  0  0
  7 11  1  0  0  0  0
  7 13  1  0  0  0  0
  8 17  1  0  0  0  0
 10  8  1  1  0  0  0
 10 19  1  0  0  0  0
 10 20  1  0  0  0  0
 11 14  2  0  0  0  0
 12  2  1  0  0  0  0
 13  5  1  1  0  0  0
 13  4  1  0  0  0  0
 14  4  1  0  0  0  0
 14 18  1  0  0  0  0
 15  1  1  1  0  0  0
 16 11  1  0  0  0  0
 16  2  2  0  0  0  0
 20 19  1  6  0  0  0
 20 15  1  0  0  0  0
 21 17  1  6  0  0  0
 21 15  1  0  0  0  0
 21  3  1  0  0  0  0
 22 25  1  0  0  0  0
 23 12  1  0  0  0  0
 23 24  1  0  0  0  0
 25 24  2  0  0  0  0
 26 27  1  0  0  0  0
 26 22  2  0  0  0  0
 27 23  2  0  0  0  0
M  END
>  <MODEL>
2

>  <REMARK>
 VINA RESULT:      -7.6      1.622      4.490
  Name = 
  1 active torsions:
  status: ('A' for Active; 'I' for Inactive)
    1  A    between atoms: C_9  and  N_15
                            x       y       z     vdW  Elec       q    Type
                         _______ _______ _______ _____ _____    ______ ____

>  <TORSDO>
F 1

$$$$
=
 OpenBabel11052418203D

 27 32  0  0  1  0  0  0  0  0999 V2000
  189.3390  173.9380  144.4860 C   0  0  0  0  0  2  0  0  0  0  0  0
  188.7250  176.3310  144.2570 C   0  0  0  0  0  0  0  0  0  0  0  0
  188.2840  175.2070  142.0630 N   0  0  0  0  0  2  0  0  0  0  0  0
  185.6040  178.9410  143.2600 N   0  0  0  0  0  2  0  0  0  0  0  0
  183.7050  177.9530  142.1020 C   0  0  0  0  0  1  0  0  0  0  0  0
  188.4140  177.3740  145.1550 C   0  0  0  0  0  3  0  0  0  0  0  0
  186.0490  177.2180  141.6270 C   0  0  1  0  0  3  0  0  0  0  0  0
  191.0900  173.2590  140.5000 C   0  0  0  0  0  2  0  0  0  0  0  0
  186.8370  177.5400  140.3690 C   0  0  0  0  0  1  0  0  0  0  0  0
  191.7040  172.5400  141.7200 C   0  0  2  0  0  3  0  0  0  0  0  0
  186.9630  177.1310  142.8010 C   0  0  0  0  0  0  0  0  0  0  0  0
  189.7070  175.3470  144.6300 N   0  0  0  0  0  0  0  0  0  0  0  0
  185.1420  178.4190  141.9740 C   0  0  2  0  0  3  0  0  0  0  0  0
  186.6770  178.1290  143.6890 C   0  0  0  0  0  0  0  0  0  0  0  0
  189.6360  173.4140  143.0810 C   0  0  2  0  0  3  0  0  0  0  0  0
  187.9880  176.2090  143.0460 C   0  0  0  0  0  0  0  0  0  0  0  0
  189.6710  173.7910  140.6670 C   0  0  0  0  0  2  0  0  0  0  0  0
  187.3890  178.2870  144.8740 C   0  0  0  0  0  3  0  0  0  0  0  0
  190.8280  171.4190  142.2380 C   0  0  0  0  0  2  0  0  0  0  0  0
  190.9820  172.6830  143.0720 C   0  0  1  0  0  3  0  0  0  0  0  0
  189.5500  174.4880  141.9990 C   0  0  1  0  0  3  0  0  0  0  0  0
  193.5670  176.3880  146.0890 C   0  0  0  0  0  3  0  0  0  0  0  0
  191.0120  175.7130  145.1280 C   0  0  0  0  0  0  0  0  0  0  0  0
  191.9030  176.4520  144.3320 C   0  0  0  0  0  3  0  0  0  0  0  0
  193.1720  176.7900  144.8100 C   0  0  0  0  0  3  0  0  0  0  0  0
  192.6930  175.6470  146.8880 C   0  0  0  0  0  3  0  0  0  0  0  0
  191.4230  175.3100  146.4090 C   0  0  0  0  0  3  0  0  0  0  0  0
  1 12  1  0  0  0  0
  2 12  1  0  0  0  0
  2  6  1  0  0  0  0
  3 16  1  0  0  0  0
  4 14  1  0  0  0  0
  7  9  1  6  0  0  0
  7 13  1  0  0  0  0
  7 11  1  0  0  0  0
  8 17  1  0  0  0  0
 10  8  1  6  0  0  0
 10 19  1  0  0  0  0
 10 20  1  0  0  0  0
 11 16  1  0  0  0  0
 11 14  2  0  0  0  0
 12 23  1  0  0  0  0
 13  5  1  1  0  0  0
 13  4  1  0  0  0  0
 14 18  1  0  0  0  0
 15  1  1  1  0  0  0
 16  2  2  0  0  0  0
 18  6  2  0  0  0  0
 20 19  1  6  0  0  0
 20 15  1  0  0  0  0
 21 17  1  6  0  0  0
 21  3  1  0  0  0  0
 21 15  1  0  0  0  0
 22 26  1  0  0  0  0
 23 27  1  0  0  0  0
 24 25  1  0  0  0  0
 24 23  2  0  0  0  0
 25 22  2  0  0  0  0
 27 26  2  0  0  0  0
M  END
>  <MODEL>
3

>  <REMARK>
 VINA RESULT:      -7.5      1.346      4.387
  Name = 
  1 active torsions:
  status: ('A' for Active; 'I' for Inactive)
    1  A    between atoms: C_9  and  N_15
                            x       y       z     vdW  Elec       q    Type
                         _______ _______ _______ _____ _____    ______ ____

>  <TORSDO>
F 1

$$$$
=
 OpenBabel11052418203D

 27 32  0  0  1  0  0  0  0  0999 V2000
  189.8540  177.4110  143.4520 C   0  0  0  0  0  2  0  0  0  0  0  0
  190.7160  175.1600  142.8600 C   0  0  0  0  0  0  0  0  0  0  0  0
  188.4470  175.4150  141.8290 N   0  0  0  0  0  2  0  0  0  0  0  0
  191.6090  172.6160  139.6560 N   0  0  0  0  0  2  0  0  0  0  0  0
  190.6840  173.2440  137.4940 C   0  0  0  0  0  1  0  0  0  0  0  0
  191.9900  174.5550  142.8240 C   0  0  0  0  0  3  0  0  0  0  0  0
  189.3890  173.5650  139.6110 C   0  0  1  0  0  3  0  0  0  0  0  0
  185.6070  176.4160  144.0740 C   0  0  0  0  0  2  0  0  0  0  0  0
  188.1930  172.7370  140.0480 C   0  0  0  0  0  1  0  0  0  0  0  0
  186.2630  177.4890  144.9680 C   0  0  2  0  0  3  0  0  0  0  0  0
  190.1700  174.0130  140.7990 C   0  0  0  0  0  0  0  0  0  0  0  0
  190.4250  176.1340  143.8800 N   0  0  0  0  0  0  0  0  0  0  0  0
  190.3840  172.6550  138.8580 C   0  0  2  0  0  3  0  0  0  0  0  0
  191.4110  173.4440  140.7820 C   0  0  0  0  0  0  0  0  0  0  0  0
  188.3300  177.3490  143.3540 C   0  0  2  0  0  3  0  0  0  0  0  0
  189.7780  174.8790  141.8280 C   0  0  0  0  0  0  0  0  0  0  0  0
  186.3160  176.0960  142.7630 C   0  0  0  0  0  2  0  0  0  0  0  0
  192.3460  173.6860  141.7850 C   0  0  0  0  0  3  0  0  0  0  0  0
  186.5200  178.7860  144.2310 C   0  0  0  0  0  2  0  0  0  0  0  0
  187.7030  177.9170  144.6310 C   0  0  1  0  0  3  0  0  0  0  0  0
  187.7970  175.9580  143.0150 C   0  0  1  0  0  3  0  0  0  0  0  0
  191.1540  175.4260  148.0130 C   0  0  0  0  0  3  0  0  0  0  0  0
  190.6770  175.8800  145.2790 C   0  0  0  0  0  0  0  0  0  0  0  0
  189.7640  175.1440  146.0520 C   0  0  0  0  0  3  0  0  0  0  0  0
  190.0020  174.9160  147.4100 C   0  0  0  0  0  3  0  0  0  0  0  0
  192.0680  176.1650  147.2570 C   0  0  0  0  0  3  0  0  0  0  0  0
  191.8290  176.3930  145.8990 C   0  0  0  0  0  3  0  0  0  0  0  0
  1 12  1  0  0  0  0
  2 12  1  0  0  0  0
  3 21  1  0  0  0  0
  4 14  1  0  0  0  0
  6  2  1  0  0  0  0
  7  9  1  1  0  0  0
  7 11  1  0  0  0  0
 10  8  1  6  0  0  0
 11 16  1  0  0  0  0
 12 23  1  0  0  0  0
 13  5  1  6  0  0  0
 13  7  1  0  0  0  0
 13  4  1  0  0  0  0
 14 11  2  0  0  0  0
 14 18  1  0  0  0  0
 15  1  1  1  0  0  0
 15 20  1  0  0  0  0
 16  3  1  0  0  0  0
 16  2  2  0  0  0  0
 17  8  1  0  0  0  0
 18  6  2  0  0  0  0
 19 10  1  0  0  0  0
 20 19  1  6  0  0  0
 20 10  1  0  0  0  0
 21 17  1  6  0  0  0
 21 15  1  0  0  0  0
 23 27  2  0  0  0  0
 23 24  1  0  0  0  0
 24 25  2  0  0  0  0
 25 22  1  0  0  0  0
 26 22  2  0  0  0  0
 27 26  1  0  0  0  0
M  END
>  <MODEL>
4

>  <REMARK>
 VINA RESULT:      -7.4      1.907      6.209
  Name = 
  1 active torsions:
  status: ('A' for Active; 'I' for Inactive)
    1  A    between atoms: C_9  and  N_15
                            x       y       z     vdW  Elec       q    Type
                         _______ _______ _______ _____ _____    ______ ____

>  <TORSDO>
F 1

$$$$
=
 OpenBabel11052418203D

 27 32  0  0  1  0  0  0  0  0999 V2000
  190.5430  176.0600  142.8280 C   0  0  0  0  0  2  0  0  0  0  0  0
  191.8440  175.7260  144.9130 C   0  0  0  0  0  0  0  0  0  0  0  0
  192.0850  173.6630  143.5140 N   0  0  0  0  0  2  0  0  0  0  0  0
  195.6520  174.8440  146.4190 N   0  0  0  0  0  2  0  0  0  0  0  0
  197.2530  173.9350  144.8280 C   0  0  0  0  0  1  0  0  0  0  0  0
  192.3850  176.5760  145.9020 C   0  0  0  0  0  3  0  0  0  0  0  0
  194.8340  173.2980  144.7540 C   0  0  1  0  0  3  0  0  0  0  0  0
  188.9450  171.9860  142.3160 C   0  0  0  0  0  2  0  0  0  0  0  0
  194.2630  171.9540  145.1710 C   0  0  0  0  0  1  0  0  0  0  0  0
  188.0660  173.1900  141.9160 C   0  0  2  0  0  3  0  0  0  0  0  0
  193.8570  174.3870  145.0400 C   0  0  0  0  0  0  0  0  0  0  0  0
  190.5940  176.0740  144.2900 N   0  0  0  0  0  0  0  0  0  0  0  0
  196.0270  173.6450  145.6710 C   0  0  2  0  0  3  0  0  0  0  0  0
  194.3620  175.2270  145.9910 C   0  0  0  0  0  0  0  0  0  0  0  0
  190.2020  174.6730  142.2830 C   0  0  2  0  0  3  0  0  0  0  0  0
  192.5930  174.5990  144.4750 C   0  0  0  0  0  0  0  0  0  0  0  0
  190.4420  172.2450  142.4330 C   0  0  0  0  0  2  0  0  0  0  0  0
  193.6490  176.3290  146.4530 C   0  0  0  0  0  3  0  0  0  0  0  0
  188.5390  173.8610  140.6450 C   0  0  0  0  0  2  0  0  0  0  0  0
  188.7050  174.5900  141.9710 C   0  0  1  0  0  3  0  0  0  0  0  0
  190.6720  173.5330  143.1850 C   0  0  1  0  0  3  0  0  0  0  0  0
  187.1170  177.0880  146.5240 C   0  0  0  0  0  3  0  0  0  0  0  0
  189.4230  176.4240  145.0580 C   0  0  0  0  0  0  0  0  0  0  0  0
  189.0380  175.6590  146.1720 C   0  0  0  0  0  3  0  0  0  0  0  0
  187.8950  175.9900  146.9020 C   0  0  0  0  0  3  0  0  0  0  0  0
  187.4840  177.8540  145.4150 C   0  0  0  0  0  3  0  0  0  0  0  0
  188.6300  177.5220  144.6850 C   0  0  0  0  0  3  0  0  0  0  0  0
  1 12  1  0  0  0  0
  2  6  1  0  0  0  0
  3 16  1  0  0  0  0
  6 18  2  0  0  0  0
  7 11  1  0  0  0  0
  7  9  1  1  0  0  0
  7 13  1  0  0  0  0
  8 17  1  0  0  0  0
 10 19  1  6  0  0  0
 10 20  1  0  0  0  0
 10  8  1  0  0  0  0
 11 14  2  0  0  0  0
 12  2  1  0  0  0  0
 12 23  1  0  0  0  0
 13  5  1  6  0  0  0
 13  4  1  0  0  0  0
 14  4  1  0  0  0  0
 14 18  1  0  0  0  0
 15  1  1  1  0  0  0
 15 21  1  0  0  0  0
 16  2  2  0  0  0  0
 16 11  1  0  0  0  0
 20 19  1  6  0  0  0
 20 15  1  0  0  0  0
 21 17  1  6  0  0  0
 21  3  1  0  0  0  0
 22 25  1  0  0  0  0
 23 24  1  0  0  0  0
 24 25  2  0  0  0  0
 26 22  2  0  0  0  0
 27 23  2  0  0  0  0
 27 26  1  0  0  0  0
M  END
>  <MODEL>
5

>  <REMARK>
 VINA RESULT:      -7.4      2.427      7.382
  Name = 
  1 active torsions:
  status: ('A' for Active; 'I' for Inactive)
    1  A    between atoms: C_9  and  N_15
                            x       y       z     vdW  Elec       q    Type
                         _______ _______ _______ _____ _____    ______ ____

>  <TORSDO>
F 1

$$$$
=
 OpenBabel11052418203D

 27 32  0  0  1  0  0  0  0  0999 V2000
  189.1960  174.8340  144.7870 C   0  0  0  0  0  2  0  0  0  0  0  0
  191.2880  175.4830  143.6200 C   0  0  0  0  0  0  0  0  0  0  0  0
  191.5010  176.1600  146.0220 N   0  0  0  0  0  2  0  0  0  0  0  0
  195.4510  175.0310  143.6410 N   0  0  0  0  0  2  0  0  0  0  0  0
  196.4240  174.1230  145.6790 C   0  0  0  0  0  1  0  0  0  0  0  0
  191.9230  175.1000  142.4200 C   0  0  0  0  0  3  0  0  0  0  0  0
  194.4930  175.7130  145.7490 C   0  0  1  0  0  3  0  0  0  0  0  0
  188.7760  178.2910  147.4870 C   0  0  0  0  0  2  0  0  0  0  0  0
  194.5620  177.1650  146.1880 C   0  0  0  0  0  1  0  0  0  0  0  0
  187.5050  177.6470  146.8910 C   0  0  2  0  0  3  0  0  0  0  0  0
  193.4590  175.5410  144.6890 C   0  0  0  0  0  0  0  0  0  0  0  0
  189.8500  175.5260  143.6750 N   0  0  0  0  0  0  0  0  0  0  0  0
  195.8050  175.3430  145.0240 C   0  0  2  0  0  3  0  0  0  0  0  0
  194.0510  175.1640  143.5180 C   0  0  0  0  0  0  0  0  0  0  0  0
  189.0730  175.7290  146.0200 C   0  0  2  0  0  3  0  0  0  0  0  0
  192.0720  175.7170  144.7830 C   0  0  0  0  0  0  0  0  0  0  0  0
  190.0400  177.4390  147.4740 C   0  0  0  0  0  2  0  0  0  0  0  0
  193.3140  174.9430  142.3590 C   0  0  0  0  0  3  0  0  0  0  0  0
  187.1860  176.3030  147.5110 C   0  0  0  0  0  2  0  0  0  0  0  0
  187.6760  176.3560  146.0700 C   0  0  1  0  0  3  0  0  0  0  0  0
  190.1830  176.7730  146.1280 C   0  0  1  0  0  3  0  0  0  0  0  0
  187.4950  177.5670  140.7770 C   0  0  0  0  0  3  0  0  0  0  0  0
  189.0620  176.2200  142.6840 C   0  0  0  0  0  0  0  0  0  0  0  0
  189.1010  177.6210  142.5860 C   0  0  0  0  0  3  0  0  0  0  0  0
  188.3250  178.2900  141.6380 C   0  0  0  0  0  3  0  0  0  0  0  0
  187.4410  176.1740  140.8670 C   0  0  0  0  0  3  0  0  0  0  0  0
  188.2200  175.5050  141.8160 C   0  0  0  0  0  3  0  0  0  0  0  0
  2 12  1  0  0  0  0
  2 16  1  0  0  0  0
  3 21  1  0  0  0  0
  4 13  1  0  0  0  0
  6  2  2  0  0  0  0
  7  9  1  6  0  0  0
 10  8  1  1  0  0  0
 10 19  1  0  0  0  0
 11 16  2  0  0  0  0
 11  7  1  0  0  0  0
 12  1  1  0  0  0  0
 13  5  1  1  0  0  0
 13  7  1  0  0  0  0
 14  4  1  0  0  0  0
 14 11  1  0  0  0  0
 15  1  1  6  0  0  0
 15 20  1  0  0  0  0
 15 21  1  0  0  0  0
 16  3  1  0  0  0  0
 17  8  1  0  0  0  0
 18  6  1  0  0  0  0
 18 14  2  0  0  0  0
 20 10  1  0  0  0  0
 20 19  1  1  0  0  0
 21 17  1  1  0  0  0
 22 26  2  0  0  0  0
 22 25  1  0  0  0  0
 23 12  1  0  0  0  0
 24 23  1  0  0  0  0
 25 24  2  0  0  0  0
 26 27  1  0  0  0  0
 27 23  2  0  0  0  0
M  END
>  <MODEL>
6

>  <REMARK>
 VINA RESULT:      -7.3      2.387      6.280
  Name = 
  1 active torsions:
  status: ('A' for Active; 'I' for Inactive)
    1  A    between atoms: C_9  and  N_15
                            x       y       z     vdW  Elec       q    Type
                         _______ _______ _______ _____ _____    ______ ____

>  <TORSDO>
F 1

$$$$
=
 OpenBabel11052418203D

 27 32  0  0  1  0  0  0  0  0999 V2000
  190.7250  176.5150  142.7920 C   0  0  0  0  0  2  0  0  0  0  0  0
  188.3660  175.9710  143.3380 C   0  0  0  0  0  0  0  0  0  0  0  0
  189.5600  176.4720  145.4820 N   0  0  0  0  0  2  0  0  0  0  0  0
  184.9120  177.4100  145.2180 N   0  0  0  0  0  2  0  0  0  0  0  0
  185.2100  179.3190  146.6990 C   0  0  0  0  0  1  0  0  0  0  0  0
  187.1530  175.9430  142.6170 C   0  0  0  0  0  3  0  0  0  0  0  0
  186.9110  177.4890  146.5690 C   0  0  1  0  0  3  0  0  0  0  0  0
  192.7210  174.5780  146.2100 C   0  0  0  0  0  2  0  0  0  0  0  0
  187.1580  176.4360  147.6350 C   0  0  0  0  0  1  0  0  0  0  0  0
  193.4140  174.5620  144.8310 C   0  0  2  0  0  3  0  0  0  0  0  0
  187.1690  176.9230  145.2140 C   0  0  0  0  0  0  0  0  0  0  0  0
  189.5900  175.5990  142.6770 N   0  0  0  0  0  0  0  0  0  0  0  0
  185.4050  177.8250  146.5310 C   0  0  2  0  0  3  0  0  0  0  0  0
  186.0080  176.8930  144.4940 C   0  0  0  0  0  0  0  0  0  0  0  0
  191.5520  176.2400  144.0480 C   0  0  2  0  0  3  0  0  0  0  0  0
  188.3760  176.4650  144.6720 C   0  0  0  0  0  0  0  0  0  0  0  0
  191.6330  175.6260  146.4120 C   0  0  0  0  0  2  0  0  0  0  0  0
  185.9620  176.4000  143.1940 C   0  0  0  0  0  3  0  0  0  0  0  0
  193.9710  175.9140  144.4420 C   0  0  0  0  0  2  0  0  0  0  0  0
  192.7620  175.3700  143.6940 C   0  0  1  0  0  3  0  0  0  0  0  0
  190.7350  175.6590  145.2000 C   0  0  1  0  0  3  0  0  0  0  0  0
  189.9210  171.9750  140.4690 C   0  0  0  0  0  3  0  0  0  0  0  0
  189.7150  174.3730  141.9240 C   0  0  0  0  0  0  0  0  0  0  0  0
  189.5120  174.3590  140.5340 C   0  0  0  0  0  3  0  0  0  0  0  0
  189.6160  173.1690  139.8110 C   0  0  0  0  0  3  0  0  0  0  0  0
  190.1200  171.9730  141.8520 C   0  0  0  0  0  3  0  0  0  0  0  0
  190.0160  173.1650  142.5750 C   0  0  0  0  0  3  0  0  0  0  0  0
  2 16  1  0  0  0  0
  4 13  1  0  0  0  0
  6 18  1  0  0  0  0
  6  2  2  0  0  0  0
  7  9  1  1  0  0  0
  8 17  1  0  0  0  0
 10 19  1  1  0  0  0
 10  8  1  0  0  0  0
 11  7  1  0  0  0  0
 12  1  1  0  0  0  0
 12  2  1  0  0  0  0
 13  7  1  0  0  0  0
 13  5  1  6  0  0  0
 14 11  1  0  0  0  0
 14  4  1  0  0  0  0
 15  1  1  6  0  0  0
 15 21  1  0  0  0  0
 16 11  2  0  0  0  0
 16  3  1  0  0  0  0
 18 14  2  0  0  0  0
 20 15  1  0  0  0  0
 20 19  1  1  0  0  0
 20 10  1  0  0  0  0
 21  3  1  0  0  0  0
 21 17  1  1  0  0  0
 22 26  1  0  0  0  0
 23 27  1  0  0  0  0
 23 12  1  0  0  0  0
 24 23  2  0  0  0  0
 25 22  2  0  0  0  0
 25 24  1  0  0  0  0
 26 27  2  0  0  0  0
M  END
>  <MODEL>
7

>  <REMARK>
 VINA RESULT:      -7.2      1.380      1.631
  Name = 
  1 active torsions:
  status: ('A' for Active; 'I' for Inactive)
    1  A    between atoms: C_9  and  N_15
                            x       y       z     vdW  Elec       q    Type
                         _______ _______ _______ _____ _____    ______ ____

>  <TORSDO>
F 1

$$$$
=
 OpenBabel11052418203D

 27 32  0  0  1  0  0  0  0  0999 V2000
  191.1970  173.0650  144.6320 C   0  0  0  0  0  2  0  0  0  0  0  0
  190.7790  175.3460  145.5130 C   0  0  0  0  0  0  0  0  0  0  0  0
  189.1730  174.9370  143.6350 N   0  0  0  0  0  2  0  0  0  0  0  0
  187.8480  177.8600  147.1360 N   0  0  0  0  0  2  0  0  0  0  0  0
  185.5410  177.1280  146.8770 C   0  0  0  0  0  1  0  0  0  0  0  0
  191.0720  176.0220  146.7170 C   0  0  0  0  0  3  0  0  0  0  0  0
  187.2310  176.7850  145.0640 C   0  0  1  0  0  3  0  0  0  0  0  0
  190.5860  173.8290  140.3350 C   0  0  0  0  0  2  0  0  0  0  0  0
  187.2890  177.5520  143.7550 C   0  0  0  0  0  1  0  0  0  0  0  0
  191.6680  172.8170  140.7690 C   0  0  2  0  0  3  0  0  0  0  0  0
  188.6050  176.4110  145.5050 C   0  0  0  0  0  0  0  0  0  0  0  0
  191.7170  174.3820  144.9990 N   0  0  0  0  0  0  0  0  0  0  0  0
  186.7470  177.7320  146.1830 C   0  0  2  0  0  3  0  0  0  0  0  0
  188.9080  177.0490  146.6740 C   0  0  0  0  0  0  0  0  0  0  0  0
  190.6820  173.0370  143.1930 C   0  0  2  0  0  3  0  0  0  0  0  0
  189.5190  175.5490  144.8860 C   0  0  0  0  0  0  0  0  0  0  0  0
  189.5110  174.1580  141.3640 C   0  0  0  0  0  2  0  0  0  0  0  0
  190.1380  176.8850  147.3040 C   0  0  0  0  0  3  0  0  0  0  0  0
  191.0810  171.5200  141.2830 C   0  0  0  0  0  2  0  0  0  0  0  0
  191.7580  172.4650  142.2650 C   0  0  1  0  0  3  0  0  0  0  0  0
  190.1550  174.3860  142.7090 C   0  0  1  0  0  3  0  0  0  0  0  0
  195.8470  175.3050  144.5530 C   0  0  0  0  0  3  0  0  0  0  0  0
  193.1200  174.6830  144.8410 C   0  0  0  0  0  0  0  0  0  0  0  0
  194.0740  174.1410  145.7180 C   0  0  0  0  0  3  0  0  0  0  0  0
  195.4290  174.4480  145.5740 C   0  0  0  0  0  3  0  0  0  0  0  0
  194.9080  175.8560  143.6770 C   0  0  0  0  0  3  0  0  0  0  0  0
  193.5520  175.5480  143.8220 C   0  0  0  0  0  3  0  0  0  0  0  0
  1 12  1  0  0  0  0
  2  6  1  0  0  0  0
  3 16  1  0  0  0  0
  6 18  2  0  0  0  0
  7  9  1  6  0  0  0
  7 11  1  0  0  0  0
  7 13  1  0  0  0  0
  8 17  1  0  0  0  0
 10  8  1  1  0  0  0
 10 19  1  0  0  0  0
 10 20  1  0  0  0  0
 11 14  2  0  0  0  0
 12  2  1  0  0  0  0
 13  5  1  1  0  0  0
 13  4  1  0  0  0  0
 14  4  1  0  0  0  0
 14 18  1  0  0  0  0
 15  1  1  1  0  0  0
 16 11  1  0  0  0  0
 16  2  2  0  0  0  0
 20 19  1  6  0  0  0
 20 15  1  0  0  0  0
 21 17  1  6  0  0  0
 21 15  1  0  0  0  0
 21  3  1  0  0  0  0
 22 25  1  0  0  0  0
 23 12  1  0  0  0  0
 23 24  1  0  0  0  0
 25 24  2  0  0  0  0
 26 27  1  0  0  0  0
 26 22  2  0  0  0  0
 27 23  2  0  0  0  0
M  END
>  <MODEL>
8

>  <REMARK>
 VINA RESULT:      -7.2      1.898      4.769
  Name = 
  1 active torsions:
  status: ('A' for Active; 'I' for Inactive)
    1  A    between atoms: C_9  and  N_15
                            x       y       z     vdW  Elec       q    Type
                         _______ _______ _______ _____ _____    ______ ____

>  <TORSDO>
F 1

$$$$
=
 OpenBabel11052418203D

 27 32  0  0  1  0  0  0  0  0999 V2000
  192.3970  176.4860  144.3380 C   0  0  0  0  0  2  0  0  0  0  0  0
  192.2430  174.6490  142.6780 C   0  0  0  0  0  0  0  0  0  0  0  0
  189.9750  174.9650  143.6920 N   0  0  0  0  0  2  0  0  0  0  0  0
  190.2440  173.3670  139.2280 N   0  0  0  0  0  2  0  0  0  0  0  0
  188.1840  174.5410  138.6800 C   0  0  0  0  0  1  0  0  0  0  0  0
  193.0170  174.2310  141.5740 C   0  0  0  0  0  3  0  0  0  0  0  0
  188.8040  174.0290  141.0500 C   0  0  1  0  0  3  0  0  0  0  0  0
  189.7070  174.8820  147.4380 C   0  0  0  0  0  2  0  0  0  0  0  0
  188.1460  172.9790  141.9270 C   0  0  0  0  0  1  0  0  0  0  0  0
  190.9540  175.6820  147.8700 C   0  0  2  0  0  3  0  0  0  0  0  0
  190.2480  174.1610  141.3960 C   0  0  0  0  0  0  0  0  0  0  0  0
  192.9000  175.2110  143.8290 N   0  0  0  0  0  0  0  0  0  0  0  0
  188.8370  173.5200  139.5920 C   0  0  2  0  0  3  0  0  0  0  0  0
  191.0190  173.7670  140.3390 C   0  0  0  0  0  0  0  0  0  0  0  0
  191.2530  176.2900  145.3330 C   0  0  2  0  0  3  0  0  0  0  0  0
  190.8240  174.6070  142.5920 C   0  0  0  0  0  0  0  0  0  0  0  0
  189.2400  175.0740  146.0000 C   0  0  0  0  0  2  0  0  0  0  0  0
  192.4090  173.7810  140.3950 C   0  0  0  0  0  3  0  0  0  0  0  0
  190.8170  177.1660  147.6030 C   0  0  0  0  0  2  0  0  0  0  0  0
  191.7920  176.3510  146.7650 C   0  0  1  0  0  3  0  0  0  0  0  0
  190.4310  175.0290  145.0750 C   0  0  1  0  0  3  0  0  0  0  0  0
  196.1800  173.3080  145.7630 C   0  0  0  0  0  3  0  0  0  0  0  0
  194.0150  174.5570  144.4740 C   0  0  0  0  0  0  0  0  0  0  0  0
  193.8480  173.3170  145.1140 C   0  0  0  0  0  3  0  0  0  0  0  0
  194.9240  172.6950  145.7520 C   0  0  0  0  0  3  0  0  0  0  0  0
  196.3580  174.5440  145.1360 C   0  0  0  0  0  3  0  0  0  0  0  0
  195.2810  175.1650  144.4970 C   0  0  0  0  0  3  0  0  0  0  0  0
  2 12  1  0  0  0  0
  3 21  1  0  0  0  0
  4 13  1  0  0  0  0
  4 14  1  0  0  0  0
  6  2  2  0  0  0  0
  7 11  1  0  0  0  0
  7  9  1  1  0  0  0
 10  8  1  6  0  0  0
 11 16  2  0  0  0  0
 12  1  1  0  0  0  0
 12 23  1  0  0  0  0
 13  5  1  6  0  0  0
 13  7  1  0  0  0  0
 14 18  2  0  0  0  0
 14 11  1  0  0  0  0
 15  1  1  6  0  0  0
 15 20  1  0  0  0  0
 16  2  1  0  0  0  0
 16  3  1  0  0  0  0
 17  8  1  0  0  0  0
 18  6  1  0  0  0  0
 19 10  1  0  0  0  0
 20 19  1  1  0  0  0
 20 10  1  0  0  0  0
 21 15  1  0  0  0  0
 21 17  1  1  0  0  0
 23 27  2  0  0  0  0
 23 24  1  0  0  0  0
 24 25  2  0  0  0  0
 25 22  1  0  0  0  0
 26 22  2  0  0  0  0
 27 26  1  0  0  0  0
M  END
>  <MODEL>
9

>  <REMARK>
 VINA RESULT:      -7.1      3.048      5.007
  Name = 
  1 active torsions:
  status: ('A' for Active; 'I' for Inactive)
    1  A    between atoms: C_9  and  N_15
                            x       y       z     vdW  Elec       q    Type
                         _______ _______ _______ _____ _____    ______ ____

>  <TORSDO>
F 1

$$$$
