=
 OpenBabel11052417373D

 25 28  0  0  1  0  0  0  0  0999 V2000
  186.8090  176.9390  143.7020 C   0  0  0  0  0  0  0  0  0  0  0  0
  186.6720  177.1410  145.0820 C   0  0  0  0  0  0  0  0  0  0  0  0
  185.0800  178.5470  143.1880 C   0  0  0  0  0  3  0  0  0  0  0  0
  187.6390  176.1350  142.9530 C   0  0  0  0  0  0  0  0  0  0  0  0
  188.3590  177.3510  146.8110 C   0  0  0  0  0  0  0  0  0  0  0  0
  188.7210  174.5660  140.8990 C   0  0  0  0  0  2  0  0  0  0  0  0
  184.9090  178.7550  144.5650 C   0  0  0  0  0  3  0  0  0  0  0  0
  187.3060  176.3700  141.6380 C   0  0  0  0  0  0  0  0  0  0  0  0
  187.8260  175.7090  140.6480 N   0  0  0  0  0  0  0  0  0  0  0  0
  185.4360  178.3140  146.9540 C   0  0  0  0  0  0  0  0  0  0  0  0
  184.2470  178.5230  147.3160 O   0  0  0  0  0  0  0  0  0  0  0  0
  189.6830  177.3870  146.6400 C   0  0  0  0  0  3  0  0  0  0  0  0
  187.5040  176.3870  146.0610 C   0  0  0  0  0  2  0  0  0  0  0  0
  189.4790  174.7010  142.2400 C   0  0  0  0  0  2  0  0  0  0  0  0
  186.0460  177.6330  142.7830 C   0  0  0  0  0  0  0  0  0  0  0  0
  186.3370  177.3020  141.5040 N   0  0  0  0  0  2  0  0  0  0  0  0
  186.4420  178.3900  147.9300 O   0  0  0  0  0  0  0  0  0  0  0  0
  188.6140  175.3060  143.3190 C   0  0  0  0  0  3  0  0  0  0  0  0
  187.7890  178.2400  147.7220 O   0  0  0  0  0  0  0  0  0  0  0  0
  185.7010  178.0720  145.5190 C   0  0  0  0  0  0  0  0  0  0  0  0
  191.3520  175.5600  146.5040 C   0  0  0  0  0  1  0  0  0  0  0  0
  190.4310  176.4760  145.7180 C   0  0  2  0  0  3  0  0  0  0  0  0
  191.2100  177.2660  144.7200 C   0  0  0  0  0  0  0  0  0  0  0  0
  190.5670  178.2400  143.9660 O   0  0  0  0  0  0  0  0  0  0  0  0
  192.4420  177.0600  144.5550 O   0  0  0  0  0  1  0  0  0  0  0  0
  1  2  1  0  0  0  0
  2 20  2  0  0  0  0
  2 13  1  0  0  0  0
  3  7  2  0  0  0  0
  4 18  2  0  0  0  0
  4  1  1  0  0  0  0
  5 19  1  0  0  0  0
  6 14  1  0  0  0  0
  7 20  1  0  0  0  0
  8  4  1  0  0  0  0
  9  6  1  0  0  0  0
  9  8  2  0  0  0  0
 10 11  2  0  0  0  0
 10 17  1  0  0  0  0
 12  5  2  0  0  0  0
 13  5  1  0  0  0  0
 14 18  1  0  0  0  0
 15  3  1  0  0  0  0
 15  1  2  0  0  0  0
 16  8  1  0  0  0  0
 16 15  1  0  0  0  0
 19 17  1  0  0  0  0
 20 10  1  0  0  0  0
 22 21  1  1  0  0  0
 22 12  1  0  0  0  0
 23 22  1  0  0  0  0
 24 23  2  0  0  0  0
 25 23  1  0  0  0  0
M  END
>  <MODEL>
1

>  <REMARK>
 VINA RESULT:      -8.0      0.000      0.000
  Name = 
  2 active torsions:
  status: ('A' for Active; 'I' for Inactive)
    1  A    between atoms: C_2  and  C_25
    2  A    between atoms: C_15  and  C_25
                            x       y       z     vdW  Elec       q    Type
                         _______ _______ _______ _____ _____    ______ ____

>  <TORSDO>
F 2

$$$$
=
 OpenBabel11052417373D

 25 28  0  0  1  0  0  0  0  0999 V2000
  188.0100  177.2930  145.2860 C   0  0  0  0  0  0  0  0  0  0  0  0
  186.7920  177.9110  144.9720 C   0  0  0  0  0  0  0  0  0  0  0  0
  187.2110  176.5880  147.4550 C   0  0  0  0  0  3  0  0  0  0  0  0
  189.1890  177.1440  144.5930 C   0  0  0  0  0  0  0  0  0  0  0  0
  185.5230  177.9120  142.9050 C   0  0  0  0  0  0  0  0  0  0  0  0
  191.8870  176.7830  143.9300 C   0  0  0  0  0  2  0  0  0  0  0  0
  185.9870  177.2150  147.1730 C   0  0  0  0  0  3  0  0  0  0  0  0
  190.0300  176.4390  145.4240 C   0  0  0  0  0  0  0  0  0  0  0  0
  191.2720  176.1950  145.1320 N   0  0  0  0  0  0  0  0  0  0  0  0
  184.4590  178.5400  145.7280 C   0  0  0  0  0  0  0  0  0  0  0  0
  183.9010  179.0860  146.7170 O   0  0  0  0  0  0  0  0  0  0  0  0
  185.7970  177.2240  141.7950 C   0  0  0  0  0  3  0  0  0  0  0  0
  186.5930  178.6120  143.6720 C   0  0  0  0  0  2  0  0  0  0  0  0
  190.8520  177.0430  142.8110 C   0  0  0  0  0  2  0  0  0  0  0  0
  188.2070  176.6380  146.4870 C   0  0  0  0  0  0  0  0  0  0  0  0
  189.4430  176.1000  146.5930 N   0  0  0  0  0  2  0  0  0  0  0  0
  183.7750  178.5490  144.5020 O   0  0  0  0  0  0  0  0  0  0  0  0
  189.5320  177.5240  143.3640 C   0  0  0  0  0  3  0  0  0  0  0  0
  184.1960  177.9690  143.3330 O   0  0  0  0  0  0  0  0  0  0  0  0
  185.7600  177.8670  145.9380 C   0  0  0  0  0  0  0  0  0  0  0  0
  187.1710  177.5670  139.7600 C   0  0  0  0  0  1  0  0  0  0  0  0
  187.1680  177.1010  141.2060 C   0  0  2  0  0  3  0  0  0  0  0  0
  187.6540  175.6930  141.3010 C   0  0  0  0  0  0  0  0  0  0  0  0
  187.3870  174.9540  142.4460 O   0  0  0  0  0  1  0  0  0  0  0  0
  188.3010  175.1700  140.3550 O   0  0  0  0  0  0  0  0  0  0  0  0
  1 15  1  0  0  0  0
  2  1  2  0  0  0  0
  2 20  1  0  0  0  0
  4  1  1  0  0  0  0
  4  8  1  0  0  0  0
  5 19  1  0  0  0  0
  5 13  1  0  0  0  0
  6  9  1  0  0  0  0
  7  3  1  0  0  0  0
  8 16  1  0  0  0  0
  9  8  2  0  0  0  0
 10 20  1  0  0  0  0
 10 11  2  0  0  0  0
 12  5  2  0  0  0  0
 13  2  1  0  0  0  0
 14 18  1  0  0  0  0
 14  6  1  0  0  0  0
 15 16  1  0  0  0  0
 15  3  2  0  0  0  0
 17 10  1  0  0  0  0
 18  4  2  0  0  0  0
 19 17  1  0  0  0  0
 20  7  2  0  0  0  0
 22 21  1  6  0  0  0
 22 23  1  0  0  0  0
 22 12  1  0  0  0  0
 23 24  1  0  0  0  0
 25 23  2  0  0  0  0
M  END
>  <MODEL>
2

>  <REMARK>
 VINA RESULT:      -7.4      2.727      4.520
  Name = 
  2 active torsions:
  status: ('A' for Active; 'I' for Inactive)
    1  A    between atoms: C_2  and  C_25
    2  A    between atoms: C_15  and  C_25
                            x       y       z     vdW  Elec       q    Type
                         _______ _______ _______ _____ _____    ______ ____

>  <TORSDO>
F 2

$$$$
=
 OpenBabel11052417373D

 25 28  0  0  1  0  0  0  0  0999 V2000
  186.1400  177.9840  144.2720 C   0  0  0  0  0  0  0  0  0  0  0  0
  186.8620  177.6190  143.1280 C   0  0  0  0  0  0  0  0  0  0  0  0
  184.0570  178.0840  143.0520 C   0  0  0  0  0  3  0  0  0  0  0  0
  186.5050  178.1830  145.5840 C   0  0  0  0  0  0  0  0  0  0  0  0
  188.6150  175.9680  142.8420 C   0  0  0  0  0  0  0  0  0  0  0  0
  186.5910  179.0570  148.2440 C   0  0  0  0  0  2  0  0  0  0  0  0
  184.7590  177.7380  141.8870 C   0  0  0  0  0  3  0  0  0  0  0  0
  185.3500  178.5290  146.2490 C   0  0  0  0  0  0  0  0  0  0  0  0
  185.3330  178.8820  147.4990 N   0  0  0  0  0  0  0  0  0  0  0  0
  186.8310  177.1710  140.6370 C   0  0  0  0  0  0  0  0  0  0  0  0
  186.4170  177.7230  139.5820 O   0  0  0  0  0  0  0  0  0  0  0  0
  189.0650  175.1080  143.7580 C   0  0  0  0  0  3  0  0  0  0  0  0
  188.3340  177.3920  143.1820 C   0  0  0  0  0  2  0  0  0  0  0  0
  187.7240  178.1590  147.6960 C   0  0  0  0  0  2  0  0  0  0  0  0
  184.7750  178.1950  144.2360 C   0  0  0  0  0  0  0  0  0  0  0  0
  184.2650  178.5280  145.4440 N   0  0  0  0  0  2  0  0  0  0  0  0
  187.8710  176.2340  140.5210 O   0  0  0  0  0  0  0  0  0  0  0  0
  187.6820  178.0530  146.1910 C   0  0  0  0  0  3  0  0  0  0  0  0
  188.4200  175.5010  141.5420 O   0  0  0  0  0  0  0  0  0  0  0  0
  186.1530  177.4920  141.9110 C   0  0  0  0  0  0  0  0  0  0  0  0
  190.6710  176.2110  145.2910 C   0  0  0  0  0  1  0  0  0  0  0  0
  189.3460  175.4760  145.1820 C   0  0  2  0  0  3  0  0  0  0  0  0
  189.3520  174.2600  146.0450 C   0  0  0  0  0  0  0  0  0  0  0  0
  189.0260  174.3750  147.3910 O   0  0  0  0  0  1  0  0  0  0  0  0
  189.6490  173.1320  145.5680 O   0  0  0  0  0  0  0  0  0  0  0  0
  1  4  1  0  0  0  0
  2 13  1  0  0  0  0
  2  1  2  0  0  0  0
  3 15  2  0  0  0  0
  4 18  2  0  0  0  0
  4  8  1  0  0  0  0
  5 13  1  0  0  0  0
  5 12  2  0  0  0  0
  7 20  2  0  0  0  0
  7  3  1  0  0  0  0
  8  9  2  0  0  0  0
  9  6  1  0  0  0  0
 10 20  1  0  0  0  0
 11 10  2  0  0  0  0
 12 22  1  0  0  0  0
 14  6  1  0  0  0  0
 15  1  1  0  0  0  0
 15 16  1  0  0  0  0
 16  8  1  0  0  0  0
 17 10  1  0  0  0  0
 17 19  1  0  0  0  0
 18 14  1  0  0  0  0
 19  5  1  0  0  0  0
 20  2  1  0  0  0  0
 22 21  1  6  0  0  0
 22 23  1  0  0  0  0
 23 24  1  0  0  0  0
 25 23  2  0  0  0  0
M  END
>  <MODEL>
3

>  <REMARK>
 VINA RESULT:      -7.3      2.948      5.019
  Name = 
  2 active torsions:
  status: ('A' for Active; 'I' for Inactive)
    1  A    between atoms: C_2  and  C_25
    2  A    between atoms: C_15  and  C_25
                            x       y       z     vdW  Elec       q    Type
                         _______ _______ _______ _____ _____    ______ ____

>  <TORSDO>
F 2

$$$$
=
 OpenBabel11052417373D

 25 28  0  0  1  0  0  0  0  0999 V2000
  186.8480  177.8180  144.1920 C   0  0  0  0  0  0  0  0  0  0  0  0
  186.8260  177.8050  142.7900 C   0  0  0  0  0  0  0  0  0  0  0  0
  184.4790  178.2730  144.3280 C   0  0  0  0  0  3  0  0  0  0  0  0
  187.8520  177.6230  145.1130 C   0  0  0  0  0  0  0  0  0  0  0  0
  187.9130  176.3110  141.2190 C   0  0  0  0  0  0  0  0  0  0  0  0
  189.4060  177.6770  147.4430 C   0  0  0  0  0  2  0  0  0  0  0  0
  184.4320  178.2840  142.9260 C   0  0  0  0  0  3  0  0  0  0  0  0
  187.2620  177.7580  146.3490 C   0  0  0  0  0  0  0  0  0  0  0  0
  187.9350  177.7300  147.4600 N   0  0  0  0  0  0  0  0  0  0  0  0
  185.4710  178.1090  140.6740 C   0  0  0  0  0  0  0  0  0  0  0  0
  184.6710  178.9460  140.1750 O   0  0  0  0  0  0  0  0  0  0  0  0
  188.6240  175.2200  141.5110 C   0  0  0  0  0  3  0  0  0  0  0  0
  188.0670  177.5730  141.9990 C   0  0  0  0  0  2  0  0  0  0  0  0
  189.9510  176.9800  146.1750 C   0  0  0  0  0  2  0  0  0  0  0  0
  185.7040  178.0310  144.9370 C   0  0  0  0  0  0  0  0  0  0  0  0
  185.9340  177.9940  146.2700 N   0  0  0  0  0  2  0  0  0  0  0  0
  186.1490  177.2470  139.7970 O   0  0  0  0  0  0  0  0  0  0  0  0
  189.1380  177.3200  144.9500 C   0  0  0  0  0  3  0  0  0  0  0  0
  187.0170  176.2460  140.1520 O   0  0  0  0  0  0  0  0  0  0  0  0
  185.5890  178.0420  142.1470 C   0  0  0  0  0  0  0  0  0  0  0  0
  191.0460  175.2430  142.0420 C   0  0  0  0  0  1  0  0  0  0  0  0
  189.6390  175.1540  142.6090 C   0  0  2  0  0  3  0  0  0  0  0  0
  189.4750  173.8990  143.3990 C   0  0  0  0  0  0  0  0  0  0  0  0
  188.8540  172.8020  142.8170 O   0  0  0  0  0  0  0  0  0  0  0  0
  189.8930  173.8250  144.5850 O   0  0  0  0  0  1  0  0  0  0  0  0
  1 15  1  0  0  0  0
  1  4  1  0  0  0  0
  2  1  2  0  0  0  0
  3 15  2  0  0  0  0
  4  8  1  0  0  0  0
  5 12  2  0  0  0  0
  5 13  1  0  0  0  0
  6  9  1  0  0  0  0
  7  3  1  0  0  0  0
  8  9  2  0  0  0  0
 10 20  1  0  0  0  0
 11 10  2  0  0  0  0
 12 22  1  0  0  0  0
 13  2  1  0  0  0  0
 14  6  1  0  0  0  0
 15 16  1  0  0  0  0
 16  8  1  0  0  0  0
 17 19  1  0  0  0  0
 17 10  1  0  0  0  0
 18  4  2  0  0  0  0
 18 14  1  0  0  0  0
 19  5  1  0  0  0  0
 20  2  1  0  0  0  0
 20  7  2  0  0  0  0
 22 21  1  6  0  0  0
 22 23  1  0  0  0  0
 23 25  1  0  0  0  0
 24 23  2  0  0  0  0
M  END
>  <MODEL>
4

>  <REMARK>
 VINA RESULT:      -7.2      3.209      4.963
  Name = 
  2 active torsions:
  status: ('A' for Active; 'I' for Inactive)
    1  A    between atoms: C_2  and  C_25
    2  A    between atoms: C_15  and  C_25
                            x       y       z     vdW  Elec       q    Type
                         _______ _______ _______ _____ _____    ______ ____

>  <TORSDO>
F 2

$$$$
=
 OpenBabel11052417373D

 25 28  0  0  1  0  0  0  0  0999 V2000
  188.5990  176.6680  143.1060 C   0  0  0  0  0  0  0  0  0  0  0  0
  189.4210  176.8220  144.2300 C   0  0  0  0  0  0  0  0  0  0  0  0
  189.8570  174.7610  142.3180 C   0  0  0  0  0  3  0  0  0  0  0  0
  187.4900  177.3500  142.6570 C   0  0  0  0  0  0  0  0  0  0  0  0
  188.8480  177.3120  146.5350 C   0  0  0  0  0  0  0  0  0  0  0  0
  185.4880  178.4500  141.0360 C   0  0  0  0  0  2  0  0  0  0  0  0
  190.7070  174.9050  143.4260 C   0  0  0  0  0  3  0  0  0  0  0  0
  187.1140  176.7310  141.4870 C   0  0  0  0  0  0  0  0  0  0  0  0
  186.1520  177.1710  140.7330 N   0  0  0  0  0  0  0  0  0  0  0  0
  191.4570  176.0320  145.5100 C   0  0  0  0  0  0  0  0  0  0  0  0
  192.6690  175.7660  145.2890 O   0  0  0  0  0  0  0  0  0  0  0  0
  187.6220  177.4130  147.0530 C   0  0  0  0  0  3  0  0  0  0  0  0
  189.1880  177.9160  145.2150 C   0  0  0  0  0  2  0  0  0  0  0  0
  185.5180  178.7810  142.5460 C   0  0  0  0  0  2  0  0  0  0  0  0
  188.8030  175.6580  142.1860 C   0  0  0  0  0  0  0  0  0  0  0  0
  187.8980  175.6730  141.1810 N   0  0  0  0  0  2  0  0  0  0  0  0
  191.0870  176.3560  146.8250 O   0  0  0  0  0  0  0  0  0  0  0  0
  186.8220  178.3720  143.1880 C   0  0  0  0  0  3  0  0  0  0  0  0
  189.8180  176.6270  147.2680 O   0  0  0  0  0  0  0  0  0  0  0  0
  190.4960  175.9180  144.3920 C   0  0  0  0  0  0  0  0  0  0  0  0
  186.0240  179.2970  147.2560 C   0  0  0  0  0  1  0  0  0  0  0  0
  186.4940  178.1400  146.3910 C   0  0  2  0  0  3  0  0  0  0  0  0
  185.3630  177.2070  146.1110 C   0  0  0  0  0  0  0  0  0  0  0  0
  184.0830  177.5380  146.5380 O   0  0  0  0  0  1  0  0  0  0  0  0
  185.5570  176.1260  145.4940 O   0  0  0  0  0  0  0  0  0  0  0  0
  1  2  1  0  0  0  0
  2 20  2  0  0  0  0
  2 13  1  0  0  0  0
  3  7  2  0  0  0  0
  4  1  1  0  0  0  0
  4 18  2  0  0  0  0
  5 12  2  0  0  0  0
  5 19  1  0  0  0  0
  6 14  1  0  0  0  0
  7 20  1  0  0  0  0
  8  4  1  0  0  0  0
  9  6  1  0  0  0  0
  9  8  2  0  0  0  0
 10 17  1  0  0  0  0
 11 10  2  0  0  0  0
 13  5  1  0  0  0  0
 14 18  1  0  0  0  0
 15  3  1  0  0  0  0
 15  1  2  0  0  0  0
 16  8  1  0  0  0  0
 16 15  1  0  0  0  0
 17 19  1  0  0  0  0
 20 10  1  0  0  0  0
 22 12  1  0  0  0  0
 22 21  1  1  0  0  0
 23 22  1  0  0  0  0
 23 24  1  0  0  0  0
 25 23  2  0  0  0  0
M  END
>  <MODEL>
5

>  <REMARK>
 VINA RESULT:      -7.2      1.538      4.857
  Name = 
  2 active torsions:
  status: ('A' for Active; 'I' for Inactive)
    1  A    between atoms: C_2  and  C_25
    2  A    between atoms: C_15  and  C_25
                            x       y       z     vdW  Elec       q    Type
                         _______ _______ _______ _____ _____    ______ ____

>  <TORSDO>
F 2

$$$$
=
 OpenBabel11052417373D

 25 28  0  0  1  0  0  0  0  0999 V2000
  188.1810  175.6140  143.3950 C   0  0  0  0  0  0  0  0  0  0  0  0
  187.8620  176.0140  144.7010 C   0  0  0  0  0  0  0  0  0  0  0  0
  186.2990  176.8070  142.4590 C   0  0  0  0  0  3  0  0  0  0  0  0
  189.1980  174.8460  142.8750 C   0  0  0  0  0  0  0  0  0  0  0  0
  189.2970  176.7810  146.4980 C   0  0  0  0  0  0  0  0  0  0  0  0
  190.7230  173.1640  141.2340 C   0  0  0  0  0  2  0  0  0  0  0  0
  185.9470  177.2060  143.7570 C   0  0  0  0  0  3  0  0  0  0  0  0
  188.9820  174.8040  141.5160 C   0  0  0  0  0  0  0  0  0  0  0  0
  189.7020  174.0850  140.7080 N   0  0  0  0  0  0  0  0  0  0  0  0
  186.2660  177.2560  146.2220 C   0  0  0  0  0  0  0  0  0  0  0  0
  185.0260  177.3220  146.4400 O   0  0  0  0  0  0  0  0  0  0  0  0
  190.6110  177.0070  146.4350 C   0  0  0  0  0  3  0  0  0  0  0  0
  188.6830  175.5790  145.8650 C   0  0  0  0  0  2  0  0  0  0  0  0
  191.2990  173.6400  142.5870 C   0  0  0  0  0  2  0  0  0  0  0  0
  187.4290  176.0110  142.3060 C   0  0  0  0  0  0  0  0  0  0  0  0
  187.9060  175.5280  141.1370 N   0  0  0  0  0  2  0  0  0  0  0  0
  187.1340  177.6570  147.2500 O   0  0  0  0  0  0  0  0  0  0  0  0
  190.2390  174.2620  143.4650 C   0  0  0  0  0  3  0  0  0  0  0  0
  188.5030  177.7000  147.1850 O   0  0  0  0  0  0  0  0  0  0  0  0
  186.7210  176.8300  144.8810 C   0  0  0  0  0  0  0  0  0  0  0  0
  192.3930  175.3200  146.7840 C   0  0  0  0  0  1  0  0  0  0  0  0
  191.5840  176.0940  145.7570 C   0  0  2  0  0  3  0  0  0  0  0  0
  192.4880  176.8680  144.8570 C   0  0  0  0  0  0  0  0  0  0  0  0
  193.7890  177.1390  145.2640 O   0  0  0  0  0  1  0  0  0  0  0  0
  192.0860  177.2770  143.7360 O   0  0  0  0  0  0  0  0  0  0  0  0
  1  2  1  0  0  0  0
  2 20  2  0  0  0  0
  2 13  1  0  0  0  0
  3  7  2  0  0  0  0
  4  1  1  0  0  0  0
  4 18  2  0  0  0  0
  5 19  1  0  0  0  0
  6 14  1  0  0  0  0
  7 20  1  0  0  0  0
  8  4  1  0  0  0  0
  9  6  1  0  0  0  0
  9  8  2  0  0  0  0
 10 11  2  0  0  0  0
 10 17  1  0  0  0  0
 12  5  2  0  0  0  0
 13  5  1  0  0  0  0
 14 18  1  0  0  0  0
 15  3  1  0  0  0  0
 15  1  2  0  0  0  0
 16  8  1  0  0  0  0
 16 15  1  0  0  0  0
 19 17  1  0  0  0  0
 20 10  1  0  0  0  0
 22 12  1  0  0  0  0
 22 21  1  1  0  0  0
 23 24  1  0  0  0  0
 23 22  1  0  0  0  0
 25 23  2  0  0  0  0
M  END
>  <MODEL>
6

>  <REMARK>
 VINA RESULT:      -7.1      1.278      1.897
  Name = 
  2 active torsions:
  status: ('A' for Active; 'I' for Inactive)
    1  A    between atoms: C_2  and  C_25
    2  A    between atoms: C_15  and  C_25
                            x       y       z     vdW  Elec       q    Type
                         _______ _______ _______ _____ _____    ______ ____

>  <TORSDO>
F 2

$$$$
=
 OpenBabel11052417373D

 25 28  0  0  1  0  0  0  0  0999 V2000
  188.1630  177.3470  143.7660 C   0  0  0  0  0  0  0  0  0  0  0  0
  186.7700  177.4220  143.6230 C   0  0  0  0  0  0  0  0  0  0  0  0
  188.5420  178.2510  141.5560 C   0  0  0  0  0  3  0  0  0  0  0  0
  188.9760  176.9300  144.7950 C   0  0  0  0  0  0  0  0  0  0  0  0
  185.0710  178.1420  145.1950 C   0  0  0  0  0  0  0  0  0  0  0  0
  191.1420  175.9520  146.2780 C   0  0  0  0  0  2  0  0  0  0  0  0
  187.1520  178.3180  141.3800 C   0  0  0  0  0  3  0  0  0  0  0  0
  190.2670  177.0920  144.3450 C   0  0  0  0  0  0  0  0  0  0  0  0
  191.3060  176.7080  145.0250 N   0  0  0  0  0  0  0  0  0  0  0  0
  184.8050  177.9840  142.1300 C   0  0  0  0  0  0  0  0  0  0  0  0
  184.4050  177.7360  140.9610 O   0  0  0  0  0  0  0  0  0  0  0  0
  185.2690  178.6580  146.4100 C   0  0  0  0  0  3  0  0  0  0  0  0
  185.8570  176.9710  144.7090 C   0  0  0  0  0  2  0  0  0  0  0  0
  189.8130  176.2870  146.9940 C   0  0  0  0  0  2  0  0  0  0  0  0
  189.0220  177.7640  142.7670 C   0  0  0  0  0  0  0  0  0  0  0  0
  190.3240  177.6200  143.1020 N   0  0  0  0  0  2  0  0  0  0  0  0
  183.8490  178.3700  143.0820 O   0  0  0  0  0  0  0  0  0  0  0  0
  188.6810  176.4900  146.0160 C   0  0  0  0  0  3  0  0  0  0  0  0
  184.0960  178.7230  144.3840 O   0  0  0  0  0  0  0  0  0  0  0  0
  186.2570  177.9210  142.4030 C   0  0  0  0  0  0  0  0  0  0  0  0
  185.6030  177.1000  148.3100 C   0  0  0  0  0  1  0  0  0  0  0  0
  186.2590  178.1200  147.3950 C   0  0  2  0  0  3  0  0  0  0  0  0
  186.8570  179.2290  148.1950 C   0  0  0  0  0  0  0  0  0  0  0  0
  186.1660  180.4260  148.3250 O   0  0  0  0  0  0  0  0  0  0  0  0
  187.9790  179.0900  148.7510 O   0  0  0  0  0  1  0  0  0  0  0  0
  1  4  1  0  0  0  0
  2  1  1  0  0  0  0
  2 13  1  0  0  0  0
  3 15  1  0  0  0  0
  4 18  2  0  0  0  0
  5 12  2  0  0  0  0
  6 14  1  0  0  0  0
  7  3  2  0  0  0  0
  7 20  1  0  0  0  0
  8  4  1  0  0  0  0
  8  9  2  0  0  0  0
  9  6  1  0  0  0  0
 10 20  1  0  0  0  0
 10 17  1  0  0  0  0
 11 10  2  0  0  0  0
 12 22  1  0  0  0  0
 13  5  1  0  0  0  0
 15 16  1  0  0  0  0
 15  1  2  0  0  0  0
 16  8  1  0  0  0  0
 17 19  1  0  0  0  0
 18 14  1  0  0  0  0
 19  5  1  0  0  0  0
 20  2  2  0  0  0  0
 22 23  1  0  0  0  0
 22 21  1  1  0  0  0
 23 24  2  0  0  0  0
 23 25  1  0  0  0  0
M  END
>  <MODEL>
7

>  <REMARK>
 VINA RESULT:      -7.1      2.576      4.641
  Name = 
  2 active torsions:
  status: ('A' for Active; 'I' for Inactive)
    1  A    between atoms: C_2  and  C_25
    2  A    between atoms: C_15  and  C_25
                            x       y       z     vdW  Elec       q    Type
                         _______ _______ _______ _____ _____    ______ ____

>  <TORSDO>
F 2

$$$$
=
 OpenBabel11052417373D

 25 28  0  0  1  0  0  0  0  0999 V2000
  189.1080  177.1170  145.4390 C   0  0  0  0  0  0  0  0  0  0  0  0
  188.0700  177.3310  144.5210 C   0  0  0  0  0  0  0  0  0  0  0  0
  187.7670  177.8890  147.2950 C   0  0  0  0  0  3  0  0  0  0  0  0
  190.3890  176.6320  145.3050 C   0  0  0  0  0  0  0  0  0  0  0  0
  187.3080  175.9620  142.6710 C   0  0  0  0  0  0  0  0  0  0  0  0
  193.1090  176.0850  145.6980 C   0  0  0  0  0  2  0  0  0  0  0  0
  186.7170  178.1310  146.3940 C   0  0  0  0  0  3  0  0  0  0  0  0
  190.9360  176.6550  146.5680 C   0  0  0  0  0  0  0  0  0  0  0  0
  192.1760  176.3510  146.8070 N   0  0  0  0  0  0  0  0  0  0  0  0
  185.7140  178.1640  144.1210 C   0  0  0  0  0  0  0  0  0  0  0  0
  185.0130  179.1790  144.3810 O   0  0  0  0  0  0  0  0  0  0  0  0
  187.7460  174.7460  142.3390 C   0  0  0  0  0  3  0  0  0  0  0  0
  188.2500  177.0470  143.0700 C   0  0  0  0  0  2  0  0  0  0  0  0
  192.3880  175.5260  144.4500 C   0  0  0  0  0  2  0  0  0  0  0  0
  188.9540  177.3750  146.7870 C   0  0  0  0  0  0  0  0  0  0  0  0
  190.0660  177.0940  147.5040 N   0  0  0  0  0  2  0  0  0  0  0  0
  185.3290  177.3630  143.0340 O   0  0  0  0  0  0  0  0  0  0  0  0
  191.0410  176.1730  144.2380 C   0  0  0  0  0  3  0  0  0  0  0  0
  185.9340  176.2010  142.6280 O   0  0  0  0  0  0  0  0  0  0  0  0
  186.8490  177.8470  145.0140 C   0  0  0  0  0  0  0  0  0  0  0  0
  189.6820  174.2200  140.8830 C   0  0  0  0  0  1  0  0  0  0  0  0
  189.1910  174.3570  142.3140 C   0  0  2  0  0  3  0  0  0  0  0  0
  189.4030  173.0820  143.0610 C   0  0  0  0  0  0  0  0  0  0  0  0
  189.3840  171.8760  142.3730 O   0  0  0  0  0  0  0  0  0  0  0  0
  189.5990  173.0900  144.3060 O   0  0  0  0  0  1  0  0  0  0  0  0
  1 15  1  0  0  0  0
  2 20  1  0  0  0  0
  2  1  2  0  0  0  0
  4  1  1  0  0  0  0
  4  8  1  0  0  0  0
  5 13  1  0  0  0  0
  6  9  1  0  0  0  0
  7  3  1  0  0  0  0
  8  9  2  0  0  0  0
  8 16  1  0  0  0  0
 10 11  2  0  0  0  0
 10 20  1  0  0  0  0
 12  5  2  0  0  0  0
 13  2  1  0  0  0  0
 14  6  1  0  0  0  0
 15  3  2  0  0  0  0
 15 16  1  0  0  0  0
 17 10  1  0  0  0  0
 18 14  1  0  0  0  0
 18  4  2  0  0  0  0
 19  5  1  0  0  0  0
 19 17  1  0  0  0  0
 20  7  2  0  0  0  0
 22 21  1  6  0  0  0
 22 12  1  0  0  0  0
 22 23  1  0  0  0  0
 23 25  1  0  0  0  0
 24 23  2  0  0  0  0
M  END
>  <MODEL>
8

>  <REMARK>
 VINA RESULT:      -7.0      3.213      4.796
  Name = 
  2 active torsions:
  status: ('A' for Active; 'I' for Inactive)
    1  A    between atoms: C_2  and  C_25
    2  A    between atoms: C_15  and  C_25
                            x       y       z     vdW  Elec       q    Type
                         _______ _______ _______ _____ _____    ______ ____

>  <TORSDO>
F 2

$$$$
=
 OpenBabel11052417373D

 25 28  0  0  1  0  0  0  0  0999 V2000
  188.7790  177.2170  144.9590 C   0  0  0  0  0  0  0  0  0  0  0  0
  188.3220  177.3040  143.6370 C   0  0  0  0  0  0  0  0  0  0  0  0
  186.6590  177.9580  145.8510 C   0  0  0  0  0  3  0  0  0  0  0  0
  189.9810  176.8320  145.5090 C   0  0  0  0  0  0  0  0  0  0  0  0
  188.6430  175.7960  141.7650 C   0  0  0  0  0  0  0  0  0  0  0  0
  192.1730  176.5280  147.2260 C   0  0  0  0  0  2  0  0  0  0  0  0
  186.1820  178.0720  144.5360 C   0  0  0  0  0  3  0  0  0  0  0  0
  189.8300  176.9560  146.8710 C   0  0  0  0  0  0  0  0  0  0  0  0
  190.8030  176.7650  147.7100 N   0  0  0  0  0  0  0  0  0  0  0  0
  186.4340  177.9230  142.0680 C   0  0  0  0  0  0  0  0  0  0  0  0
  185.6470  178.8870  141.8700 O   0  0  0  0  0  0  0  0  0  0  0  0
  189.2470  174.6060  141.7880 C   0  0  0  0  0  3  0  0  0  0  0  0
  189.2090  176.9710  142.4880 C   0  0  0  0  0  2  0  0  0  0  0  0
  192.1930  175.8570  145.8340 C   0  0  0  0  0  2  0  0  0  0  0  0
  187.9660  177.5210  146.0340 C   0  0  0  0  0  0  0  0  0  0  0  0
  188.5900  177.3640  147.2230 N   0  0  0  0  0  2  0  0  0  0  0  0
  186.6760  177.0450  141.0000 O   0  0  0  0  0  0  0  0  0  0  0  0
  191.0960  176.3810  144.9380 C   0  0  0  0  0  3  0  0  0  0  0  0
  187.4600  175.9200  141.0350 O   0  0  0  0  0  0  0  0  0  0  0  0
  186.9930  177.7390  143.4250 C   0  0  0  0  0  0  0  0  0  0  0  0
  191.6840  174.2420  141.5190 C   0  0  0  0  0  1  0  0  0  0  0  0
  190.5320  174.3360  142.5050 C   0  0  2  0  0  3  0  0  0  0  0  0
  190.4310  173.0820  143.3070 C   0  0  0  0  0  0  0  0  0  0  0  0
  189.3830  172.2020  143.0690 O   0  0  0  0  0  0  0  0  0  0  0  0
  191.2830  172.8140  144.1960 O   0  0  0  0  0  1  0  0  0  0  0  0
  1  4  1  0  0  0  0
  1 15  1  0  0  0  0
  2  1  2  0  0  0  0
  3 15  2  0  0  0  0
  4  8  1  0  0  0  0
  5 12  2  0  0  0  0
  5 13  1  0  0  0  0
  6  9  1  0  0  0  0
  7  3  1  0  0  0  0
  8 16  1  0  0  0  0
  8  9  2  0  0  0  0
 10 20  1  0  0  0  0
 11 10  2  0  0  0  0
 12 22  1  0  0  0  0
 13  2  1  0  0  0  0
 14  6  1  0  0  0  0
 15 16  1  0  0  0  0
 17 19  1  0  0  0  0
 17 10  1  0  0  0  0
 18  4  2  0  0  0  0
 18 14  1  0  0  0  0
 19  5  1  0  0  0  0
 20  2  1  0  0  0  0
 20  7  2  0  0  0  0
 22 21  1  6  0  0  0
 22 23  1  0  0  0  0
 23 25  1  0  0  0  0
 24 23  2  0  0  0  0
M  END
>  <MODEL>
9

>  <REMARK>
 VINA RESULT:      -6.9      3.236      5.007
  Name = 
  2 active torsions:
  status: ('A' for Active; 'I' for Inactive)
    1  A    between atoms: C_2  and  C_25
    2  A    between atoms: C_15  and  C_25
                            x       y       z     vdW  Elec       q    Type
                         _______ _______ _______ _____ _____    ______ ____

>  <TORSDO>
F 2

$$$$
