=
 OpenBabel11052419083D

 32 37  0  0  1  0  0  0  0  0999 V2000
  189.1870  177.1890  142.8810 C   0  0  1  0  0  3  0  0  0  0  0  0
  189.0850  176.8030  145.2260 C   0  0  1  0  0  0  0  0  0  0  0  0
  189.3050  172.6570  142.2420 C   0  0  0  0  0  0  0  0  0  0  0  0
  188.5830  176.6180  141.7350 O   0  0  0  0  0  0  0  0  0  0  0  0
  188.2210  177.0770  144.0390 C   0  0  1  0  0  3  0  0  0  0  0  0
  188.3430  176.6340  146.5440 C   0  0  2  0  0  3  0  0  0  0  0  0
  189.1510  171.4990  142.7170 O   0  0  0  0  0  0  0  0  0  0  0  0
  190.2960  175.9820  144.8010 C   0  0  1  0  0  3  0  0  0  0  0  0
  186.8650  177.1330  146.5080 C   0  0  1  0  0  3  0  0  0  0  0  0
  188.7460  172.9830  140.8770 C   0  0  1  0  0  3  0  0  0  0  0  0
  189.0130  175.3270  141.5410 C   0  0  0  0  0  0  0  0  0  0  0  0
  189.2750  177.8310  146.3350 C   0  0  0  0  0  2  0  0  0  0  0  0
  187.2120  178.1500  144.2540 C   0  0  0  0  0  3  0  0  0  0  0  0
  188.3260  174.4240  140.8420 C   0  0  0  0  0  3  0  0  0  0  0  0
  190.0380  173.6620  142.9770 N   0  0  0  0  0  0  0  0  0  0  0  0
  190.9770  173.2000  143.9900 C   0  0  0  0  0  1  0  0  0  0  0  0
  190.3480  176.2220  143.2720 C   0  0  1  0  0  3  0  0  0  0  0  0
  186.5160  177.6310  147.9010 C   0  0  0  0  0  1  0  0  0  0  0  0
  190.2130  174.9830  142.3460 C   0  0  2  0  0  3  0  0  0  0  0  0
  186.5310  178.1630  145.4060 C   0  0  0  0  0  0  0  0  0  0  0  0
  193.1260  176.0110  147.2970 O   0  0  0  0  0  0  0  0  0  0  0  0
  193.8010  176.9820  145.2010 C   0  0  0  0  0  2  0  0  0  0  0  0
  192.6700  176.4730  144.5360 O   0  0  0  0  0  0  0  0  0  0  0  0
  191.6120  176.4260  145.4700 C   0  0  2  0  0  3  0  0  0  0  0  0
  194.1780  176.0530  146.3620 C   0  0  0  0  0  2  0  0  0  0  0  0
  191.9930  175.5000  146.6340 C   0  0  0  0  0  2  0  0  0  0  0  0
  185.4430  179.0910  145.5110 N   0  0  0  0  0  2  0  0  0  0  0  0
  184.0460  178.7590  145.2900 C   0  0  0  0  0  2  0  0  0  0  0  0
  183.7230  178.8900  143.8160 C   0  0  0  0  0  1  0  0  0  0  0  0
  189.7890  172.7260  139.7970 C   0  0  0  0  0  2  0  0  0  0  0  0
  190.0650  173.7870  137.5790 C   0  0  0  0  0  1  0  0  0  0  0  0
  189.1800  172.8900  138.4180 C   0  0  0  0  0  2  0  0  0  0  0  0
  1  4  1  6  0  0  0
  1 17  1  0  0  0  0
  1  5  1  0  0  0  0
  2 12  1  1  0  0  0
  2  6  1  0  0  0  0
  3  7  2  0  0  0  0
  3 15  1  0  0  0  0
  5 13  1  1  0  0  0
  5  2  1  0  0  0  0
  6 12  1  1  0  0  0
  8  2  1  0  0  0  0
  8 24  1  1  0  0  0
  9  6  1  0  0  0  0
  9 18  1  1  0  0  0
 10 30  1  6  0  0  0
 10  3  1  0  0  0  0
 11  4  1  0  0  0  0
 11 19  1  0  0  0  0
 13 20  2  0  0  0  0
 14 10  1  0  0  0  0
 14 11  2  0  0  0  0
 15 16  1  0  0  0  0
 17  8  1  0  0  0  0
 19 15  1  0  0  0  0
 19 17  1  0  0  0  0
 20 27  1  0  0  0  0
 20  9  1  0  0  0  0
 22 25  1  0  0  0  0
 23 22  1  0  0  0  0
 23 24  1  0  0  0  0
 24 26  1  0  0  0  0
 25 21  1  0  0  0  0
 26 21  1  0  0  0  0
 28 27  1  0  0  0  0
 29 28  1  0  0  0  0
 31 32  1  0  0  0  0
 32 30  1  0  0  0  0
M  END
>  <MODEL>
1

>  <REMARK>
 VINA RESULT:      -7.4      0.000      0.000
  Name = 
  5 active torsions:
  status: ('A' for Active; 'I' for Inactive)
    1  A    between atoms: C_10  and  C_28
    2  A    between atoms: N_14  and  C_21
    3  A    between atoms: N_14  and  C_29
    4  A    between atoms: C_15  and  C_19
    5  A    between atoms: C_19  and  C_26
                            x       y       z     vdW  Elec       q    Type
                         _______ _______ _______ _____ _____    ______ ____

>  <TORSDO>
F 5

$$$$
=
 OpenBabel11052419083D

 32 37  0  0  1  0  0  0  0  0999 V2000
  189.2740  174.6870  145.6890 C   0  0  1  0  0  3  0  0  0  0  0  0
  188.4310  175.9780  143.8780 C   0  0  1  0  0  0  0  0  0  0  0  0
  193.5170  175.7820  144.3640 C   0  0  0  0  0  0  0  0  0  0  0  0
  190.2990  174.8440  146.6520 O   0  0  0  0  0  0  0  0  0  0  0  0
  188.7310  176.0540  145.3390 C   0  0  1  0  0  3  0  0  0  0  0  0
  187.8720  177.2530  143.2630 C   0  0  2  0  0  3  0  0  0  0  0  0
  194.2720  176.5080  143.6610 O   0  0  0  0  0  0  0  0  0  0  0  0
  189.4320  175.0530  143.1970 C   0  0  1  0  0  3  0  0  0  0  0  0
  187.3620  178.2910  144.3100 C   0  0  1  0  0  3  0  0  0  0  0  0
  193.8800  175.5070  145.8050 C   0  0  1  0  0  3  0  0  0  0  0  0
  191.5410  174.8240  146.0610 C   0  0  0  0  0  0  0  0  0  0  0  0
  187.0020  175.9950  143.3490 C   0  0  0  0  0  2  0  0  0  0  0  0
  187.6300  176.6330  146.1580 C   0  0  0  0  0  3  0  0  0  0  0  0
  192.6240  175.3650  146.6160 C   0  0  0  0  0  3  0  0  0  0  0  0
  192.3300  175.1870  143.7950 N   0  0  0  0  0  0  0  0  0  0  0  0
  192.2860  175.0300  142.3490 C   0  0  0  0  0  1  0  0  0  0  0  0
  189.9900  174.2270  144.3800 C   0  0  1  0  0  3  0  0  0  0  0  0
  186.2140  179.0580  143.6730 C   0  0  0  0  0  1  0  0  0  0  0  0
  191.5140  174.3180  144.6640 C   0  0  2  0  0  3  0  0  0  0  0  0
  187.0000  177.7210  145.7000 C   0  0  0  0  0  0  0  0  0  0  0  0
  188.1910  173.9350  139.8130 O   0  0  0  0  0  0  0  0  0  0  0  0
  188.7140  172.0510  141.2160 C   0  0  0  0  0  2  0  0  0  0  0  0
  189.4120  172.8580  142.1350 O   0  0  0  0  0  0  0  0  0  0  0  0
  188.8000  174.1310  142.1350 C   0  0  2  0  0  3  0  0  0  0  0  0
  188.8060  172.6680  139.8150 C   0  0  0  0  0  2  0  0  0  0  0  0
  188.8880  174.7450  140.7300 C   0  0  0  0  0  2  0  0  0  0  0  0
  186.0740  178.3620  146.5880 N   0  0  0  0  0  2  0  0  0  0  0  0
  184.7400  177.8710  146.8890 C   0  0  0  0  0  2  0  0  0  0  0  0
  183.7200  178.6650  146.1000 C   0  0  0  0  0  1  0  0  0  0  0  0
  194.7090  174.2340  145.9140 C   0  0  0  0  0  2  0  0  0  0  0  0
  197.0010  173.3320  146.1370 C   0  0  0  0  0  1  0  0  0  0  0  0
  196.1840  174.5410  145.7380 C   0  0  0  0  0  2  0  0  0  0  0  0
  1  4  1  1  0  0  0
  2 12  1  1  0  0  0
  2  5  1  0  0  0  0
  3 10  1  0  0  0  0
  5  1  1  0  0  0  0
  5 13  1  1  0  0  0
  6 12  1  6  0  0  0
  6  2  1  0  0  0  0
  6  9  1  0  0  0  0
  7  3  2  0  0  0  0
  8 24  1  6  0  0  0
  8  2  1  0  0  0  0
  8 17  1  0  0  0  0
  9 18  1  6  0  0  0
  9 20  1  0  0  0  0
 10 30  1  6  0  0  0
 10 14  1  0  0  0  0
 11 14  2  0  0  0  0
 11  4  1  0  0  0  0
 15  3  1  0  0  0  0
 15 19  1  0  0  0  0
 16 15  1  0  0  0  0
 17 19  1  0  0  0  0
 17  1  1  0  0  0  0
 19 11  1  0  0  0  0
 20 13  2  0  0  0  0
 20 27  1  0  0  0  0
 21 25  1  0  0  0  0
 21 26  1  0  0  0  0
 22 23  1  0  0  0  0
 24 23  1  0  0  0  0
 25 22  1  0  0  0  0
 26 24  1  0  0  0  0
 27 28  1  0  0  0  0
 29 28  1  0  0  0  0
 32 30  1  0  0  0  0
 32 31  1  0  0  0  0
M  END
>  <MODEL>
2

>  <REMARK>
 VINA RESULT:      -7.3      1.753      5.593
  Name = 
  5 active torsions:
  status: ('A' for Active; 'I' for Inactive)
    1  A    between atoms: C_10  and  C_28
    2  A    between atoms: N_14  and  C_21
    3  A    between atoms: N_14  and  C_29
    4  A    between atoms: C_15  and  C_19
    5  A    between atoms: C_19  and  C_26
                            x       y       z     vdW  Elec       q    Type
                         _______ _______ _______ _____ _____    ______ ____

>  <TORSDO>
F 5

$$$$
=
 OpenBabel11052419083D

 32 37  0  0  1  0  0  0  0  0999 V2000
  191.3470  174.2000  145.3840 C   0  0  1  0  0  3  0  0  0  0  0  0
  190.1050  175.2510  143.6480 C   0  0  1  0  0  0  0  0  0  0  0  0
  195.1940  175.6760  143.3890 C   0  0  0  0  0  0  0  0  0  0  0  0
  192.4690  174.5440  146.1760 O   0  0  0  0  0  0  0  0  0  0  0  0
  190.5940  175.4660  145.0430 C   0  0  1  0  0  3  0  0  0  0  0  0
  189.3110  176.4050  143.0520 C   0  0  2  0  0  3  0  0  0  0  0  0
  195.7470  176.4320  142.5440 O   0  0  0  0  0  0  0  0  0  0  0  0
  191.1080  174.3990  142.8800 C   0  0  1  0  0  3  0  0  0  0  0  0
  188.8280  177.4510  144.1040 C   0  0  1  0  0  3  0  0  0  0  0  0
  195.7860  175.5510  144.7750 C   0  0  1  0  0  3  0  0  0  0  0  0
  193.6080  174.6240  145.4100 C   0  0  0  0  0  0  0  0  0  0  0  0
  188.6260  175.0640  143.3360 C   0  0  0  0  0  2  0  0  0  0  0  0
  189.5550  175.9730  145.9810 C   0  0  0  0  0  3  0  0  0  0  0  0
  194.6830  175.3250  145.7680 C   0  0  0  0  0  3  0  0  0  0  0  0
  194.0230  174.9090  143.0360 N   0  0  0  0  0  0  0  0  0  0  0  0
  193.7960  174.6430  141.6230 C   0  0  0  0  0  1  0  0  0  0  0  0
  191.9250  173.7310  144.0120 C   0  0  1  0  0  3  0  0  0  0  0  0
  187.5160  178.0320  143.6010 C   0  0  0  0  0  1  0  0  0  0  0  0
  193.4500  174.0170  144.0630 C   0  0  2  0  0  3  0  0  0  0  0  0
  188.7370  176.9450  145.5610 C   0  0  0  0  0  0  0  0  0  0  0  0
  189.6970  172.8520  139.7400 O   0  0  0  0  0  0  0  0  0  0  0  0
  190.4140  171.1640  141.2990 C   0  0  0  0  0  2  0  0  0  0  0  0
  191.1300  172.0990  142.0690 O   0  0  0  0  0  0  0  0  0  0  0  0
  190.4540  173.3360  141.9750 C   0  0  2  0  0  3  0  0  0  0  0  0
  190.3770  171.6210  139.8360 C   0  0  0  0  0  2  0  0  0  0  0  0
  190.4130  173.7900  140.5090 C   0  0  0  0  0  2  0  0  0  0  0  0
  187.8720  177.5380  146.5390 N   0  0  0  0  0  2  0  0  0  0  0  0
  186.7790  176.8500  147.2050 C   0  0  0  0  0  2  0  0  0  0  0  0
  185.5810  176.7910  146.2800 C   0  0  0  0  0  1  0  0  0  0  0  0
  196.7730  174.3930  144.8300 C   0  0  0  0  0  2  0  0  0  0  0  0
  196.8180  172.2860  146.1270 C   0  0  0  0  0  1  0  0  0  0  0  0
  196.8170  173.7960  146.2240 C   0  0  0  0  0  2  0  0  0  0  0  0
  1  4  1  1  0  0  0
  2 12  1  1  0  0  0
  2  5  1  0  0  0  0
  3 10  1  0  0  0  0
  5  1  1  0  0  0  0
  5 13  1  1  0  0  0
  6 12  1  1  0  0  0
  6  2  1  0  0  0  0
  6  9  1  0  0  0  0
  7  3  2  0  0  0  0
  8 24  1  1  0  0  0
  8  2  1  0  0  0  0
  8 17  1  0  0  0  0
  9 18  1  6  0  0  0
  9 20  1  0  0  0  0
 10 30  1  6  0  0  0
 10 14  1  0  0  0  0
 11 14  2  0  0  0  0
 11  4  1  0  0  0  0
 15  3  1  0  0  0  0
 15 19  1  0  0  0  0
 16 15  1  0  0  0  0
 17 19  1  0  0  0  0
 17  1  1  0  0  0  0
 19 11  1  0  0  0  0
 20 13  2  0  0  0  0
 20 27  1  0  0  0  0
 21 25  1  0  0  0  0
 21 26  1  0  0  0  0
 22 23  1  0  0  0  0
 24 23  1  0  0  0  0
 25 22  1  0  0  0  0
 26 24  1  0  0  0  0
 27 28  1  0  0  0  0
 29 28  1  0  0  0  0
 30 32  1  0  0  0  0
 31 32  1  0  0  0  0
M  END
>  <MODEL>
3

>  <REMARK>
 VINA RESULT:      -7.0      2.292      6.044
  Name = 
  5 active torsions:
  status: ('A' for Active; 'I' for Inactive)
    1  A    between atoms: C_10  and  C_28
    2  A    between atoms: N_14  and  C_21
    3  A    between atoms: N_14  and  C_29
    4  A    between atoms: C_15  and  C_19
    5  A    between atoms: C_19  and  C_26
                            x       y       z     vdW  Elec       q    Type
                         _______ _______ _______ _____ _____    ______ ____

>  <TORSDO>
F 5

$$$$
=
 OpenBabel11052419083D

 32 37  0  0  1  0  0  0  0  0999 V2000
  191.9090  175.9040  142.9670 C   0  0  1  0  0  3  0  0  0  0  0  0
  193.3090  174.1400  143.7330 C   0  0  1  0  0  0  0  0  0  0  0  0
  189.1310  175.1060  146.5180 C   0  0  0  0  0  0  0  0  0  0  0  0
  191.2070  176.9750  143.5730 O   0  0  0  0  0  0  0  0  0  0  0  0
  193.1530  175.6250  143.7800 C   0  0  1  0  0  3  0  0  0  0  0  0
  194.5040  173.5880  144.4970 C   0  0  2  0  0  3  0  0  0  0  0  0
  188.9430  174.5480  147.6330 O   0  0  0  0  0  0  0  0  0  0  0  0
  191.9360  173.4830  143.6750 C   0  0  1  0  0  3  0  0  0  0  0  0
  195.5610  174.6680  144.8870 C   0  0  1  0  0  3  0  0  0  0  0  0
  188.7150  176.5460  146.3270 C   0  0  1  0  0  3  0  0  0  0  0  0
  190.1860  176.5090  144.3670 C   0  0  0  0  0  0  0  0  0  0  0  0
  194.4500  173.4770  142.9700 C   0  0  0  0  0  2  0  0  0  0  0  0
  194.4030  176.3790  143.4850 C   0  0  0  0  0  3  0  0  0  0  0  0
  189.6570  177.2140  145.3660 C   0  0  0  0  0  3  0  0  0  0  0  0
  189.7110  174.3730  145.4170 N   0  0  0  0  0  0  0  0  0  0  0  0
  189.6150  172.9210  145.4530 C   0  0  0  0  0  1  0  0  0  0  0  0
  191.0260  174.6380  143.1940 C   0  0  1  0  0  3  0  0  0  0  0  0
  196.9220  173.9910  144.9020 C   0  0  0  0  0  1  0  0  0  0  0  0
  189.8670  175.0770  144.1300 C   0  0  2  0  0  3  0  0  0  0  0  0
  195.5460  175.9590  144.0390 C   0  0  0  0  0  0  0  0  0  0  0  0
  191.9970  169.8880  142.5280 O   0  0  0  0  0  0  0  0  0  0  0  0
  190.7410  171.2680  141.0080 C   0  0  0  0  0  2  0  0  0  0  0  0
  190.6820  172.3290  141.9310 O   0  0  0  0  0  0  0  0  0  0  0  0
  191.8620  172.2860  142.7060 C   0  0  2  0  0  3  0  0  0  0  0  0
  190.8170  169.9330  141.7600 C   0  0  0  0  0  2  0  0  0  0  0  0
  191.9400  170.9480  143.4540 C   0  0  0  0  0  2  0  0  0  0  0  0
  196.6940  176.8040  143.8870 N   0  0  0  0  0  2  0  0  0  0  0  0
  197.6170  176.7540  142.7660 C   0  0  0  0  0  2  0  0  0  0  0  0
  197.1400  175.7230  141.7650 C   0  0  0  0  0  1  0  0  0  0  0  0
  187.2920  176.6230  145.7880 C   0  0  0  0  0  2  0  0  0  0  0  0
  185.3060  177.8730  146.5700 C   0  0  0  0  0  1  0  0  0  0  0  0
  186.3000  176.7890  146.9240 C   0  0  0  0  0  2  0  0  0  0  0  0
  1 17  1  0  0  0  0
  1  4  1  1  0  0  0
  1  5  1  0  0  0  0
  2 12  1  6  0  0  0
  2  5  1  0  0  0  0
  2  6  1  0  0  0  0
  3  7  2  0  0  0  0
  4 11  1  0  0  0  0
  5 13  1  6  0  0  0
  6 12  1  6  0  0  0
  6  9  1  0  0  0  0
  8 24  1  6  0  0  0
  8  2  1  0  0  0  0
  9 18  1  6  0  0  0
 10 30  1  6  0  0  0
 10  3  1  0  0  0  0
 11 14  2  0  0  0  0
 13 20  2  0  0  0  0
 14 10  1  0  0  0  0
 15 16  1  0  0  0  0
 15  3  1  0  0  0  0
 17  8  1  0  0  0  0
 17 19  1  0  0  0  0
 19 11  1  0  0  0  0
 19 15  1  0  0  0  0
 20  9  1  0  0  0  0
 21 26  1  0  0  0  0
 22 25  1  0  0  0  0
 22 23  1  0  0  0  0
 23 24  1  0  0  0  0
 24 26  1  0  0  0  0
 25 21  1  0  0  0  0
 27 20  1  0  0  0  0
 28 27  1  0  0  0  0
 29 28  1  0  0  0  0
 30 32  1  0  0  0  0
 31 32  1  0  0  0  0
M  END
>  <MODEL>
4

>  <REMARK>
 VINA RESULT:      -6.4      2.795      7.457
  Name = 
  5 active torsions:
  status: ('A' for Active; 'I' for Inactive)
    1  A    between atoms: C_10  and  C_28
    2  A    between atoms: N_14  and  C_21
    3  A    between atoms: N_14  and  C_29
    4  A    between atoms: C_15  and  C_19
    5  A    between atoms: C_19  and  C_26
                            x       y       z     vdW  Elec       q    Type
                         _______ _______ _______ _____ _____    ______ ____

>  <TORSDO>
F 5

$$$$
=
 OpenBabel11052419083D

 32 37  0  0  1  0  0  0  0  0999 V2000
  189.4880  176.3210  142.4540 C   0  0  1  0  0  3  0  0  0  0  0  0
  189.5300  175.9700  144.8070 C   0  0  1  0  0  0  0  0  0  0  0  0
  190.1440  171.8280  141.8730 C   0  0  0  0  0  0  0  0  0  0  0  0
  188.9130  175.6590  141.3430 O   0  0  0  0  0  0  0  0  0  0  0  0
  188.5910  176.1120  143.6540 C   0  0  1  0  0  3  0  0  0  0  0  0
  188.8690  175.7350  146.1570 C   0  0  2  0  0  3  0  0  0  0  0  0
  190.1540  170.6690  142.3690 O   0  0  0  0  0  0  0  0  0  0  0  0
  190.8150  175.2980  144.3410 C   0  0  1  0  0  3  0  0  0  0  0  0
  187.3400  176.0470  146.1770 C   0  0  1  0  0  3  0  0  0  0  0  0
  189.4930  172.0560  140.5280 C   0  0  1  0  0  3  0  0  0  0  0  0
  189.4930  174.4270  141.1480 C   0  0  0  0  0  0  0  0  0  0  0  0
  189.6360  177.0350  145.8920 C   0  0  0  0  0  2  0  0  0  0  0  0
  187.4660  177.0560  143.8970 C   0  0  0  0  0  3  0  0  0  0  0  0
  188.8950  173.4330  140.4920 C   0  0  0  0  0  3  0  0  0  0  0  0
  190.7750  172.9290  142.5620 N   0  0  0  0  0  0  0  0  0  0  0  0
  191.8050  172.6070  143.5400 C   0  0  0  0  0  1  0  0  0  0  0  0
  190.7760  175.5130  142.8090 C   0  0  1  0  0  3  0  0  0  0  0  0
  186.9890  176.5240  147.5780 C   0  0  0  0  0  1  0  0  0  0  0  0
  190.7580  174.2500  141.9060 C   0  0  2  0  0  3  0  0  0  0  0  0
  186.8360  177.0060  145.0760 C   0  0  0  0  0  0  0  0  0  0  0  0
  193.6750  175.7720  146.7570 O   0  0  0  0  0  0  0  0  0  0  0  0
  194.2080  176.6680  144.5880 C   0  0  0  0  0  2  0  0  0  0  0  0
  193.1220  176.0060  143.9850 O   0  0  0  0  0  0  0  0  0  0  0  0
  192.0920  175.9140  144.9470 C   0  0  2  0  0  3  0  0  0  0  0  0
  194.7000  175.8590  145.7940 C   0  0  0  0  0  2  0  0  0  0  0  0
  192.5870  175.1080  146.1570 C   0  0  0  0  0  2  0  0  0  0  0  0
  185.6460  177.7950  145.2150 N   0  0  0  0  0  2  0  0  0  0  0  0
  185.6250  179.2240  145.4740 C   0  0  0  0  0  2  0  0  0  0  0  0
  185.6210  179.4670  146.9690 C   0  0  0  0  0  1  0  0  0  0  0  0
  190.5150  171.9100  139.4090 C   0  0  0  0  0  2  0  0  0  0  0  0
  190.1060  171.1500  137.0900 C   0  0  0  0  0  1  0  0  0  0  0  0
  190.1840  170.7140  138.5370 C   0  0  0  0  0  2  0  0  0  0  0  0
  1  4  1  6  0  0  0
  1 17  1  0  0  0  0
  1  5  1  0  0  0  0
  2 12  1  1  0  0  0
  2  6  1  0  0  0  0
  3  7  2  0  0  0  0
  3 15  1  0  0  0  0
  5 13  1  1  0  0  0
  5  2  1  0  0  0  0
  6 12  1  1  0  0  0
  6  9  1  0  0  0  0
  8  2  1  0  0  0  0
  8 24  1  1  0  0  0
  9 18  1  1  0  0  0
 10 30  1  6  0  0  0
 10  3  1  0  0  0  0
 11  4  1  0  0  0  0
 11 19  1  0  0  0  0
 13 20  2  0  0  0  0
 14 10  1  0  0  0  0
 14 11  2  0  0  0  0
 15 16  1  0  0  0  0
 17  8  1  0  0  0  0
 19 15  1  0  0  0  0
 19 17  1  0  0  0  0
 20 27  1  0  0  0  0
 20  9  1  0  0  0  0
 22 25  1  0  0  0  0
 23 22  1  0  0  0  0
 23 24  1  0  0  0  0
 24 26  1  0  0  0  0
 25 21  1  0  0  0  0
 26 21  1  0  0  0  0
 27 28  1  0  0  0  0
 28 29  1  0  0  0  0
 31 32  1  0  0  0  0
 32 30  1  0  0  0  0
M  END
>  <MODEL>
5

>  <REMARK>
 VINA RESULT:      -6.3      1.250      1.397
  Name = 
  5 active torsions:
  status: ('A' for Active; 'I' for Inactive)
    1  A    between atoms: C_10  and  C_28
    2  A    between atoms: N_14  and  C_21
    3  A    between atoms: N_14  and  C_29
    4  A    between atoms: C_15  and  C_19
    5  A    between atoms: C_19  and  C_26
                            x       y       z     vdW  Elec       q    Type
                         _______ _______ _______ _____ _____    ______ ____

>  <TORSDO>
F 5

$$$$
=
 OpenBabel11052419083D

 32 37  0  0  1  0  0  0  0  0999 V2000
  189.0830  177.2850  143.7020 C   0  0  1  0  0  3  0  0  0  0  0  0
  187.7240  176.8490  145.6050 C   0  0  1  0  0  0  0  0  0  0  0  0
  189.3670  172.7710  142.9940 C   0  0  0  0  0  0  0  0  0  0  0  0
  189.1690  176.7790  142.3830 O   0  0  0  0  0  0  0  0  0  0  0  0
  187.6430  177.2000  144.1560 C   0  0  1  0  0  3  0  0  0  0  0  0
  186.3850  176.6900  146.3110 C   0  0  2  0  0  3  0  0  0  0  0  0
  188.9420  171.6120  143.2520 O   0  0  0  0  0  0  0  0  0  0  0  0
  188.9440  175.9710  145.8520 C   0  0  1  0  0  3  0  0  0  0  0  0
  185.1760  177.2740  145.5150 C   0  0  1  0  0  3  0  0  0  0  0  0
  189.6400  173.1620  141.5600 C   0  0  1  0  0  3  0  0  0  0  0  0
  189.5910  175.4700  142.3840 C   0  0  0  0  0  0  0  0  0  0  0  0
  187.3250  177.8370  146.6940 C   0  0  0  0  0  2  0  0  0  0  0  0
  186.7140  178.3240  143.8520 C   0  0  0  0  0  3  0  0  0  0  0  0
  189.3550  174.6250  141.3800 C   0  0  0  0  0  3  0  0  0  0  0  0
  189.6250  173.7140  144.0580 N   0  0  0  0  0  0  0  0  0  0  0  0
  189.8570  173.1750  145.3900 C   0  0  0  0  0  1  0  0  0  0  0  0
  189.8180  176.2450  144.6040 C   0  0  1  0  0  3  0  0  0  0  0  0
  184.1510  177.7560  146.5280 C   0  0  0  0  0  1  0  0  0  0  0  0
  190.1580  175.0390  143.6870 C   0  0  2  0  0  3  0  0  0  0  0  0
  185.5220  178.3470  144.4590 C   0  0  0  0  0  0  0  0  0  0  0  0
  191.5630  175.7180  148.5570 O   0  0  0  0  0  0  0  0  0  0  0  0
  190.6660  177.9460  148.4180 C   0  0  0  0  0  2  0  0  0  0  0  0
  190.0680  177.6880  147.1700 O   0  0  0  0  0  0  0  0  0  0  0  0
  189.7090  176.3220  147.1440 C   0  0  2  0  0  3  0  0  0  0  0  0
  191.9210  177.0790  148.5770 C   0  0  0  0  0  2  0  0  0  0  0  0
  190.9660  175.4560  147.3090 C   0  0  0  0  0  2  0  0  0  0  0  0
  184.5810  179.3330  144.0140 N   0  0  0  0  0  2  0  0  0  0  0  0
  183.3530  179.0410  143.2950 C   0  0  0  0  0  2  0  0  0  0  0  0
  183.6800  178.2910  142.0210 C   0  0  0  0  0  1  0  0  0  0  0  0
  191.0900  172.8730  141.1950 C   0  0  0  0  0  2  0  0  0  0  0  0
  192.8830  174.0240  139.9380 C   0  0  0  0  0  1  0  0  0  0  0  0
  191.4510  173.5370  139.8800 C   0  0  0  0  0  2  0  0  0  0  0  0
  1  4  1  6  0  0  0
  1  5  1  0  0  0  0
  1 17  1  0  0  0  0
  2  8  1  0  0  0  0
  2  6  1  0  0  0  0
  2 12  1  1  0  0  0
  3  7  2  0  0  0  0
  3 15  1  0  0  0  0
  4 11  1  0  0  0  0
  5 13  1  1  0  0  0
  5  2  1  0  0  0  0
  6 12  1  1  0  0  0
  8 24  1  1  0  0  0
  9  6  1  0  0  0  0
  9 18  1  1  0  0  0
 10 30  1  1  0  0  0
 10  3  1  0  0  0  0
 11 19  1  0  0  0  0
 13 20  2  0  0  0  0
 14 10  1  0  0  0  0
 14 11  2  0  0  0  0
 15 16  1  0  0  0  0
 17  8  1  0  0  0  0
 19 15  1  0  0  0  0
 19 17  1  0  0  0  0
 20  9  1  0  0  0  0
 21 25  1  0  0  0  0
 22 25  1  0  0  0  0
 23 22  1  0  0  0  0
 24 23  1  0  0  0  0
 24 26  1  0  0  0  0
 26 21  1  0  0  0  0
 27 20  1  0  0  0  0
 28 27  1  0  0  0  0
 29 28  1  0  0  0  0
 32 31  1  0  0  0  0
 32 30  1  0  0  0  0
M  END
>  <MODEL>
6

>  <REMARK>
 VINA RESULT:      -6.3      1.757      2.069
  Name = 
  5 active torsions:
  status: ('A' for Active; 'I' for Inactive)
    1  A    between atoms: C_10  and  C_28
    2  A    between atoms: N_14  and  C_21
    3  A    between atoms: N_14  and  C_29
    4  A    between atoms: C_15  and  C_19
    5  A    between atoms: C_19  and  C_26
                            x       y       z     vdW  Elec       q    Type
                         _______ _______ _______ _____ _____    ______ ____

>  <TORSDO>
F 5

$$$$
=
 OpenBabel11052419083D

 32 37  0  0  1  0  0  0  0  0999 V2000
  189.8010  173.2680  142.8820 C   0  0  1  0  0  3  0  0  0  0  0  0
  191.7790  173.7570  141.6550 C   0  0  1  0  0  0  0  0  0  0  0  0
  188.4240  177.5780  142.1880 C   0  0  0  0  0  0  0  0  0  0  0  0
  188.4220  173.5570  142.7360 O   0  0  0  0  0  0  0  0  0  0  0  0
  190.4170  173.1620  141.5050 C   0  0  1  0  0  3  0  0  0  0  0  0
  192.6190  173.7830  140.3870 C   0  0  2  0  0  3  0  0  0  0  0  0
  188.5650  178.6670  141.5660 O   0  0  0  0  0  0  0  0  0  0  0  0
  191.7400  174.8710  142.6940 C   0  0  1  0  0  3  0  0  0  0  0  0
  192.0760  172.8660  139.2470 C   0  0  1  0  0  3  0  0  0  0  0  0
  187.0370  177.0130  142.3920 C   0  0  1  0  0  3  0  0  0  0  0  0
  188.1820  174.9020  142.8860 C   0  0  0  0  0  0  0  0  0  0  0  0
  193.0400  172.9060  141.5700 C   0  0  0  0  0  2  0  0  0  0  0  0
  190.3980  171.8540  140.7950 C   0  0  0  0  0  3  0  0  0  0  0  0
  187.1060  175.5130  142.3890 C   0  0  0  0  0  3  0  0  0  0  0  0
  189.5700  176.8870  142.7320 N   0  0  0  0  0  0  0  0  0  0  0  0
  190.7710  177.6710  142.9800 C   0  0  0  0  0  1  0  0  0  0  0  0
  190.4430  174.5590  143.4780 C   0  0  1  0  0  3  0  0  0  0  0  0
  193.2700  172.3790  138.4430 C   0  0  0  0  0  1  0  0  0  0  0  0
  189.3270  175.6390  143.4800 C   0  0  2  0  0  3  0  0  0  0  0  0
  191.1490  171.7140  139.6970 C   0  0  0  0  0  0  0  0  0  0  0  0
  195.1020  175.8970  144.0670 O   0  0  0  0  0  0  0  0  0  0  0  0
  193.7210  174.9230  145.7800 C   0  0  0  0  0  2  0  0  0  0  0  0
  192.5640  175.0250  144.9840 O   0  0  0  0  0  0  0  0  0  0  0  0
  192.9610  174.8830  143.6360 C   0  0  2  0  0  3  0  0  0  0  0  0
  194.7010  176.0430  145.4090 C   0  0  0  0  0  2  0  0  0  0  0  0
  193.9470  176.0010  143.2680 C   0  0  0  0  0  2  0  0  0  0  0  0
  190.9730  170.5130  138.9330 N   0  0  0  0  0  2  0  0  0  0  0  0
  189.7970  170.2030  138.1380 C   0  0  0  0  0  2  0  0  0  0  0  0
  190.0650  170.5410  136.6870 C   0  0  0  0  0  1  0  0  0  0  0  0
  186.4520  177.4970  143.7120 C   0  0  0  0  0  2  0  0  0  0  0  0
  185.5660  179.7840  144.0400 C   0  0  0  0  0  1  0  0  0  0  0  0
  185.2700  178.4150  143.4670 C   0  0  0  0  0  2  0  0  0  0  0  0
  1  4  1  6  0  0  0
  1 17  1  0  0  0  0
  2 12  1  1  0  0  0
  2  8  1  0  0  0  0
  3 10  1  0  0  0  0
  3 15  1  0  0  0  0
  4 11  1  0  0  0  0
  5 13  1  1  0  0  0
  5  2  1  0  0  0  0
  5  1  1  0  0  0  0
  6 12  1  1  0  0  0
  6  2  1  0  0  0  0
  7  3  2  0  0  0  0
  8 17  1  0  0  0  0
  8 24  1  1  0  0  0
  9 18  1  1  0  0  0
  9 20  1  0  0  0  0
  9  6  1  0  0  0  0
 10 30  1  1  0  0  0
 11 19  1  0  0  0  0
 14 10  1  0  0  0  0
 14 11  2  0  0  0  0
 15 16  1  0  0  0  0
 15 19  1  0  0  0  0
 17 19  1  0  0  0  0
 20 13  2  0  0  0  0
 21 25  1  0  0  0  0
 23 22  1  0  0  0  0
 24 23  1  0  0  0  0
 25 22  1  0  0  0  0
 26 24  1  0  0  0  0
 26 21  1  0  0  0  0
 27 20  1  0  0  0  0
 28 27  1  0  0  0  0
 29 28  1  0  0  0  0
 32 30  1  0  0  0  0
 32 31  1  0  0  0  0
M  END
>  <MODEL>
7

>  <REMARK>
 VINA RESULT:      -6.2      2.369      6.863
  Name = 
  5 active torsions:
  status: ('A' for Active; 'I' for Inactive)
    1  A    between atoms: C_10  and  C_28
    2  A    between atoms: N_14  and  C_21
    3  A    between atoms: N_14  and  C_29
    4  A    between atoms: C_15  and  C_19
    5  A    between atoms: C_19  and  C_26
                            x       y       z     vdW  Elec       q    Type
                         _______ _______ _______ _____ _____    ______ ____

>  <TORSDO>
F 5

$$$$
=
 OpenBabel11052419083D

 32 37  0  0  1  0  0  0  0  0999 V2000
  190.8490  175.5330  142.3810 C   0  0  1  0  0  3  0  0  0  0  0  0
  192.1110  175.5550  144.3980 C   0  0  1  0  0  0  0  0  0  0  0  0
  191.8340  171.0850  141.9300 C   0  0  0  0  0  0  0  0  0  0  0  0
  189.9110  174.6560  141.7840 O   0  0  0  0  0  0  0  0  0  0  0  0
  190.7140  175.4290  143.8840 C   0  0  1  0  0  3  0  0  0  0  0  0
  192.2570  175.4710  145.9100 C   0  0  2  0  0  3  0  0  0  0  0  0
  192.2750  170.0220  142.4470 O   0  0  0  0  0  0  0  0  0  0  0  0
  193.0820  174.9420  143.3970 C   0  0  1  0  0  3  0  0  0  0  0  0
  190.9140  175.6370  146.6870 C   0  0  1  0  0  3  0  0  0  0  0  0
  190.5740  171.0410  141.0980 C   0  0  1  0  0  3  0  0  0  0  0  0
  190.5050  173.4690  141.4250 C   0  0  0  0  0  0  0  0  0  0  0  0
  192.5710  176.7790  145.1790 C   0  0  0  0  0  2  0  0  0  0  0  0
  189.7250  176.2890  144.5900 C   0  0  0  0  0  3  0  0  0  0  0  0
  189.8270  172.3340  141.2570 C   0  0  0  0  0  3  0  0  0  0  0  0
  192.5400  172.3340  142.1010 N   0  0  0  0  0  0  0  0  0  0  0  0
  193.9560  172.2640  142.4330 C   0  0  0  0  0  1  0  0  0  0  0  0
  192.2520  174.9140  142.0910 C   0  0  1  0  0  3  0  0  0  0  0  0
  191.2350  176.2890  148.0220 C   0  0  0  0  0  1  0  0  0  0  0  0
  191.9890  173.5300  141.4370 C   0  0  2  0  0  3  0  0  0  0  0  0
  189.7830  176.3630  145.9250 C   0  0  0  0  0  0  0  0  0  0  0  0
  196.6740  175.9910  143.8830 O   0  0  0  0  0  0  0  0  0  0  0  0
  195.8370  176.7130  141.7460 C   0  0  0  0  0  2  0  0  0  0  0  0
  194.7130  175.8710  141.8390 O   0  0  0  0  0  0  0  0  0  0  0  0
  194.3750  175.7610  143.2060 C   0  0  2  0  0  3  0  0  0  0  0  0
  197.0090  176.0960  142.5190 C   0  0  0  0  0  2  0  0  0  0  0  0
  195.5510  175.1480  143.9800 C   0  0  0  0  0  2  0  0  0  0  0  0
  188.7120  177.0490  146.5880 N   0  0  0  0  0  2  0  0  0  0  0  0
  187.3180  176.6400  146.5500 C   0  0  0  0  0  2  0  0  0  0  0  0
  186.4670  177.7950  146.0640 C   0  0  0  0  0  1  0  0  0  0  0  0
  190.9110  170.8200  139.6290 C   0  0  0  0  0  2  0  0  0  0  0  0
  189.6980  170.0600  137.6120 C   0  0  0  0  0  1  0  0  0  0  0  0
  189.6880  171.0450  138.7610 C   0  0  0  0  0  2  0  0  0  0  0  0
  1  4  1  6  0  0  0
  1  5  1  0  0  0  0
  2 12  1  6  0  0  0
  2  6  1  0  0  0  0
  3 15  1  0  0  0  0
  3  7  2  0  0  0  0
  5  2  1  0  0  0  0
  5 13  1  1  0  0  0
  6 12  1  1  0  0  0
  6  9  1  0  0  0  0
  8 24  1  6  0  0  0
  8  2  1  0  0  0  0
  9 18  1  1  0  0  0
 10 30  1  6  0  0  0
 10 14  1  0  0  0  0
 10  3  1  0  0  0  0
 11 19  1  0  0  0  0
 11  4  1  0  0  0  0
 13 20  2  0  0  0  0
 14 11  2  0  0  0  0
 15 16  1  0  0  0  0
 17  1  1  0  0  0  0
 17  8  1  0  0  0  0
 19 17  1  0  0  0  0
 19 15  1  0  0  0  0
 20 27  1  0  0  0  0
 20  9  1  0  0  0  0
 21 26  1  0  0  0  0
 22 23  1  0  0  0  0
 22 25  1  0  0  0  0
 23 24  1  0  0  0  0
 24 26  1  0  0  0  0
 25 21  1  0  0  0  0
 28 27  1  0  0  0  0
 29 28  1  0  0  0  0
 31 32  1  0  0  0  0
 32 30  1  0  0  0  0
M  END
>  <MODEL>
8

>  <REMARK>
 VINA RESULT:      -6.1      2.487      3.497
  Name = 
  5 active torsions:
  status: ('A' for Active; 'I' for Inactive)
    1  A    between atoms: C_10  and  C_28
    2  A    between atoms: N_14  and  C_21
    3  A    between atoms: N_14  and  C_29
    4  A    between atoms: C_15  and  C_19
    5  A    between atoms: C_19  and  C_26
                            x       y       z     vdW  Elec       q    Type
                         _______ _______ _______ _____ _____    ______ ____

>  <TORSDO>
F 5

$$$$
=
 OpenBabel11052419083D

 32 37  0  0  1  0  0  0  0  0999 V2000
  191.1300  176.4120  142.6340 C   0  0  1  0  0  3  0  0  0  0  0  0
  189.2320  175.0590  142.1590 C   0  0  1  0  0  0  0  0  0  0  0  0
  190.5820  175.4470  147.0760 C   0  0  0  0  0  0  0  0  0  0  0  0
  192.2590  176.3090  143.4820 O   0  0  0  0  0  0  0  0  0  0  0  0
  190.7240  175.0200  142.2040 C   0  0  1  0  0  3  0  0  0  0  0  0
  188.5600  173.7540  141.7560 C   0  0  2  0  0  3  0  0  0  0  0  0
  190.0370  174.7360  147.9630 O   0  0  0  0  0  0  0  0  0  0  0  0
  188.7120  176.0070  143.2320 C   0  0  1  0  0  3  0  0  0  0  0  0
  189.5290  172.7170  141.1070 C   0  0  1  0  0  3  0  0  0  0  0  0
  192.0570  175.7600  147.1750 C   0  0  1  0  0  3  0  0  0  0  0  0
  191.8900  176.3630  144.8050 C   0  0  0  0  0  0  0  0  0  0  0  0
  188.4660  174.9810  140.8440 C   0  0  0  0  0  2  0  0  0  0  0  0
  191.3540  174.4160  140.9970 C   0  0  0  0  0  3  0  0  0  0  0  0
  192.6360  175.8710  145.7940 C   0  0  0  0  0  3  0  0  0  0  0  0
  189.8030  175.9890  145.9860 N   0  0  0  0  0  0  0  0  0  0  0  0
  188.3670  176.1180  146.1870 C   0  0  0  0  0  1  0  0  0  0  0  0
  189.9540  176.8740  143.5510 C   0  0  1  0  0  3  0  0  0  0  0  0
  188.7220  171.8980  140.1120 C   0  0  0  0  0  1  0  0  0  0  0  0
  190.4980  176.8430  145.0040 C   0  0  2  0  0  3  0  0  0  0  0  0
  190.8210  173.2980  140.4920 C   0  0  0  0  0  0  0  0  0  0  0  0
  185.1370  177.1000  142.7160 O   0  0  0  0  0  0  0  0  0  0  0  0
  186.6420  178.9760  142.6370 C   0  0  0  0  0  2  0  0  0  0  0  0
  187.6970  178.2240  143.1890 O   0  0  0  0  0  0  0  0  0  0  0  0
  187.5350  176.8870  142.7640 C   0  0  2  0  0  3  0  0  0  0  0  0
  185.3010  178.4310  143.1450 C   0  0  0  0  0  2  0  0  0  0  0  0
  186.1900  176.3450  143.2680 C   0  0  0  0  0  2  0  0  0  0  0  0
  191.5510  172.6400  139.4480 N   0  0  0  0  0  2  0  0  0  0  0  0
  191.8540  173.2260  138.1530 C   0  0  0  0  0  2  0  0  0  0  0  0
  190.5700  173.6830  137.4930 C   0  0  0  0  0  1  0  0  0  0  0  0
  192.2760  177.0640  147.9300 C   0  0  0  0  0  2  0  0  0  0  0  0
  191.4370  178.2230  149.9480 C   0  0  0  0  0  1  0  0  0  0  0  0
  191.0350  177.4390  148.7170 C   0  0  0  0  0  2  0  0  0  0  0  0
  1  4  1  1  0  0  0
  1 17  1  0  0  0  0
  2 12  1  6  0  0  0
  2  5  1  0  0  0  0
  2  8  1  0  0  0  0
  3 10  1  0  0  0  0
  3  7  2  0  0  0  0
  4 11  1  0  0  0  0
  5 13  1  6  0  0  0
  5  1  1  0  0  0  0
  6 12  1  6  0  0  0
  6  2  1  0  0  0  0
  8 24  1  6  0  0  0
  8 17  1  0  0  0  0
  9 18  1  6  0  0  0
  9  6  1  0  0  0  0
 10 30  1  6  0  0  0
 11 19  1  0  0  0  0
 11 14  2  0  0  0  0
 14 10  1  0  0  0  0
 15 16  1  0  0  0  0
 15  3  1  0  0  0  0
 17 19  1  0  0  0  0
 19 15  1  0  0  0  0
 20 13  2  0  0  0  0
 20  9  1  0  0  0  0
 21 25  1  0  0  0  0
 21 26  1  0  0  0  0
 22 25  1  0  0  0  0
 22 23  1  0  0  0  0
 24 23  1  0  0  0  0
 24 26  1  0  0  0  0
 27 20  1  0  0  0  0
 28 27  1  0  0  0  0
 29 28  1  0  0  0  0
 30 32  1  0  0  0  0
 32 31  1  0  0  0  0
M  END
>  <MODEL>
9

>  <REMARK>
 VINA RESULT:      -5.9      2.233      7.365
  Name = 
  5 active torsions:
  status: ('A' for Active; 'I' for Inactive)
    1  A    between atoms: C_10  and  C_28
    2  A    between atoms: N_14  and  C_21
    3  A    between atoms: N_14  and  C_29
    4  A    between atoms: C_15  and  C_19
    5  A    between atoms: C_19  and  C_26
                            x       y       z     vdW  Elec       q    Type
                         _______ _______ _______ _____ _____    ______ ____

>  <TORSDO>
F 5

$$$$
