=
 OpenBabel11052418113D

 28 31  0  0  1  0  0  0  0  0999 V2000
  186.0400  178.6830  145.3510 N   0  0  0  0  0  0  0  0  0  0  0  0
  185.9890  179.4270  144.1170 C   0  0  0  0  0  0  0  0  0  0  0  0
  190.5890  177.5160  143.1820 C   0  0  0  0  0  2  0  0  0  0  0  0
  187.7610  175.0600  148.1610 O   0  0  0  0  0  1  0  0  0  0  0  0
  185.3920  180.5360  144.0780 O   0  0  0  0  0  0  0  0  0  0  0  0
  191.3940  175.6600  144.6980 C   0  0  0  0  0  0  0  0  0  0  0  0
  189.2490  176.7090  145.1830 C   0  0  0  0  0  0  0  0  0  0  0  0
  192.4970  176.1250  142.5660 N   0  0  0  0  0  0  0  0  0  0  0  0
  190.4160  176.6310  144.3950 C   0  0  0  0  0  0  0  0  0  0  0  0
  190.0730  174.8910  146.5740 C   0  0  0  0  0  3  0  0  0  0  0  0
  192.6770  175.5990  143.9180 C   0  0  0  0  0  2  0  0  0  0  0  0
  186.9200  176.8470  146.7620 C   0  0  0  0  0  0  0  0  0  0  0  0
  188.2480  177.6430  144.8950 C   0  0  0  0  0  3  0  0  0  0  0  0
  191.2240  174.8100  145.7920 C   0  0  0  0  0  3  0  0  0  0  0  0
  184.5430  177.6350  146.9700 C   0  0  0  0  0  2  0  0  0  0  0  0
  187.9200  175.9090  147.0690 C   0  0  0  0  0  0  0  0  0  0  0  0
  185.7250  176.9730  147.6680 C   0  0  0  0  0  2  0  0  0  0  0  0
  193.8150  176.1770  141.9620 C   0  0  0  0  0  1  0  0  0  0  0  0
  192.0300  177.5030  142.6740 C   0  0  0  0  0  2  0  0  0  0  0  0
  189.0780  175.8310  146.2790 C   0  0  0  0  0  0  0  0  0  0  0  0
  184.9980  178.9430  146.3430 C   0  0  0  0  0  2  0  0  0  0  0  0
  187.0790  177.7220  145.6630 C   0  0  0  0  0  0  0  0  0  0  0  0
  186.5620  178.8830  142.8390 C   0  0  0  0  0  2  0  0  0  0  0  0
  184.5930  178.2110  141.4310 C   0  0  0  0  0  1  0  0  0  0  0  0
  185.7600  177.7050  142.2710 C   0  0  1  0  0  3  0  0  0  0  0  0
  186.6300  176.7040  141.4980 C   0  0  0  0  0  3  0  0  0  0  0  0
  187.8660  177.3860  140.9360 C   0  0  0  0  0  1  0  0  0  0  0  0
  187.0850  175.5690  142.3990 C   0  0  0  0  0  1  0  0  0  0  0  0
  1 22  1  0  0  0  0
  1 21  1  0  0  0  0
  2  1  1  0  0  0  0
  3  9  1  0  0  0  0
  5  2  2  0  0  0  0
  6 14  1  0  0  0  0
  7 20  1  0  0  0  0
  8 19  1  0  0  0  0
  8 11  1  0  0  0  0
  9  6  2  0  0  0  0
  9  7  1  0  0  0  0
 11  6  1  0  0  0  0
 12 16  1  0  0  0  0
 12 17  1  0  0  0  0
 13  7  2  0  0  0  0
 13 22  1  0  0  0  0
 14 10  2  0  0  0  0
 15 17  1  0  0  0  0
 16  4  1  0  0  0  0
 18  8  1  0  0  0  0
 19  3  1  0  0  0  0
 20 10  1  0  0  0  0
 20 16  2  0  0  0  0
 21 15  1  0  0  0  0
 22 12  2  0  0  0  0
 23  2  1  0  0  0  0
 25 24  1  6  0  0  0
 25 23  1  0  0  0  0
 26 25  1  0  0  0  0
 26 28  1  0  0  0  0
 27 26  1  0  0  0  0
M  END
>  <MODEL>
1

>  <REMARK>
 VINA RESULT:      -7.5      0.000      0.000
  Name = 
  3 active torsions:
  status: ('A' for Active; 'I' for Inactive)
    1  A    between atoms: C_2  and  C_3
    2  A    between atoms: C_3  and  C_11
    3  A    between atoms: C_6  and  C_11
                            x       y       z     vdW  Elec       q    Type
                         _______ _______ _______ _____ _____    ______ ____

>  <TORSDO>
F 3

$$$$
=
 OpenBabel11052418113D

 28 31  0  0  1  0  0  0  0  0999 V2000
  186.4910  177.3450  145.3500 N   0  0  0  0  0  0  0  0  0  0  0  0
  187.0890  176.7600  146.5250 C   0  0  0  0  0  0  0  0  0  0  0  0
  189.0270  173.2880  143.3820 C   0  0  0  0  0  2  0  0  0  0  0  0
  186.2480  178.0710  140.5120 O   0  0  0  0  0  1  0  0  0  0  0  0
  186.4840  176.8150  147.6290 O   0  0  0  0  0  0  0  0  0  0  0  0
  188.8370  173.7470  140.9030 C   0  0  0  0  0  0  0  0  0  0  0  0
  187.8050  175.3130  142.4570 C   0  0  0  0  0  0  0  0  0  0  0  0
  190.3560  172.0350  141.7650 N   0  0  0  0  0  0  0  0  0  0  0  0
  188.5210  174.1210  142.2270 C   0  0  0  0  0  0  0  0  0  0  0  0
  187.6980  175.7070  140.0580 C   0  0  0  0  0  3  0  0  0  0  0  0
  189.5400  172.4480  140.6240 C   0  0  0  0  0  2  0  0  0  0  0  0
  186.3790  177.7030  142.9010 C   0  0  0  0  0  0  0  0  0  0  0  0
  187.4960  175.7270  143.7570 C   0  0  0  0  0  3  0  0  0  0  0  0
  188.4110  174.5310  139.8300 C   0  0  0  0  0  3  0  0  0  0  0  0
  185.7180  179.5070  144.5200 C   0  0  0  0  0  2  0  0  0  0  0  0
  186.6740  177.2960  141.5900 C   0  0  0  0  0  0  0  0  0  0  0  0
  185.5370  178.9310  143.1210 C   0  0  0  0  0  2  0  0  0  0  0  0
  190.8500  170.7040  141.4610 C   0  0  0  0  0  1  0  0  0  0  0  0
  189.4800  171.9030  142.9250 C   0  0  0  0  0  2  0  0  0  0  0  0
  187.3920  176.1110  141.3640 C   0  0  0  0  0  0  0  0  0  0  0  0
  185.5050  178.4070  145.5480 C   0  0  0  0  0  2  0  0  0  0  0  0
  186.7950  176.9160  143.9990 C   0  0  0  0  0  0  0  0  0  0  0  0
  188.4620  176.1500  146.4950 C   0  0  0  0  0  2  0  0  0  0  0  0
  190.4250  177.3110  147.5490 C   0  0  0  0  0  1  0  0  0  0  0  0
  189.5770  177.1830  146.2890 C   0  0  1  0  0  3  0  0  0  0  0  0
  190.4350  176.8980  145.0490 C   0  0  0  0  0  3  0  0  0  0  0  0
  190.4050  178.0760  144.0900 C   0  0  0  0  0  1  0  0  0  0  0  0
  191.8820  176.6400  145.4340 C   0  0  0  0  0  1  0  0  0  0  0  0
  1 21  1  0  0  0  0
  1  2  1  0  0  0  0
  2  5  2  0  0  0  0
  4 16  1  0  0  0  0
  6  9  1  0  0  0  0
  7 13  1  0  0  0  0
  8 19  1  0  0  0  0
  9  7  2  0  0  0  0
  9  3  1  0  0  0  0
 10 20  2  0  0  0  0
 11  6  1  0  0  0  0
 11  8  1  0  0  0  0
 12 17  1  0  0  0  0
 12 22  1  0  0  0  0
 13 22  2  0  0  0  0
 14 10  1  0  0  0  0
 14  6  2  0  0  0  0
 15 21  1  0  0  0  0
 16 12  2  0  0  0  0
 17 15  1  0  0  0  0
 18  8  1  0  0  0  0
 19  3  1  0  0  0  0
 20 16  1  0  0  0  0
 20  7  1  0  0  0  0
 22  1  1  0  0  0  0
 23  2  1  0  0  0  0
 25 23  1  0  0  0  0
 25 24  1  1  0  0  0
 26 28  1  0  0  0  0
 26 25  1  0  0  0  0
 27 26  1  0  0  0  0
M  END
>  <MODEL>
2

>  <REMARK>
 VINA RESULT:      -7.5      2.521      5.119
  Name = 
  3 active torsions:
  status: ('A' for Active; 'I' for Inactive)
    1  A    between atoms: C_2  and  C_3
    2  A    between atoms: C_3  and  C_11
    3  A    between atoms: C_6  and  C_11
                            x       y       z     vdW  Elec       q    Type
                         _______ _______ _______ _____ _____    ______ ____

>  <TORSDO>
F 3

$$$$
=
 OpenBabel11052418113D

 28 31  0  0  1  0  0  0  0  0999 V2000
  187.0550  177.7510  145.0060 N   0  0  0  0  0  0  0  0  0  0  0  0
  187.7920  177.5670  146.2310 C   0  0  0  0  0  0  0  0  0  0  0  0
  190.0250  173.6640  143.8940 C   0  0  0  0  0  2  0  0  0  0  0  0
  186.4510  177.1660  140.1810 O   0  0  0  0  0  1  0  0  0  0  0  0
  187.2460  177.8310  147.3360 O   0  0  0  0  0  0  0  0  0  0  0  0
  189.6390  173.4390  141.4050 C   0  0  0  0  0  0  0  0  0  0  0  0
  188.4830  175.2170  142.6050 C   0  0  0  0  0  0  0  0  0  0  0  0
  191.4280  172.2070  142.5290 N   0  0  0  0  0  0  0  0  0  0  0  0
  189.3450  174.1010  142.6170 C   0  0  0  0  0  0  0  0  0  0  0  0
  188.1910  174.9600  140.2030 C   0  0  0  0  0  3  0  0  0  0  0  0
  190.5010  172.2080  141.3980 C   0  0  0  0  0  2  0  0  0  0  0  0
  186.7610  177.4470  142.5650 C   0  0  0  0  0  0  0  0  0  0  0  0
  188.1900  175.9110  143.7840 C   0  0  0  0  0  3  0  0  0  0  0  0
  189.0500  173.8620  140.2130 C   0  0  0  0  0  3  0  0  0  0  0  0
  185.9410  179.5140  143.7350 C   0  0  0  0  0  2  0  0  0  0  0  0
  187.0390  176.7540  141.3750 C   0  0  0  0  0  0  0  0  0  0  0  0
  185.7680  178.5780  142.5450 C   0  0  0  0  0  2  0  0  0  0  0  0
  192.0870  170.9140  142.5240 C   0  0  0  0  0  1  0  0  0  0  0  0
  190.6430  172.2740  143.7580 C   0  0  0  0  0  2  0  0  0  0  0  0
  187.9030  175.6480  141.3890 C   0  0  0  0  0  0  0  0  0  0  0  0
  185.9420  178.6990  145.0190 C   0  0  0  0  0  2  0  0  0  0  0  0
  187.3430  177.0280  143.7830 C   0  0  0  0  0  0  0  0  0  0  0  0
  189.2330  177.1420  146.2340 C   0  0  0  0  0  2  0  0  0  0  0  0
  188.9410  174.8370  147.1910 C   0  0  0  0  0  1  0  0  0  0  0  0
  189.5840  176.2040  147.3970 C   0  0  1  0  0  3  0  0  0  0  0  0
  191.0950  176.0960  147.6440 C   0  0  0  0  0  3  0  0  0  0  0  0
  191.8670  176.2600  146.3460 C   0  0  0  0  0  1  0  0  0  0  0  0
  191.5660  177.1660  148.6130 C   0  0  0  0  0  1  0  0  0  0  0  0
  1 21  1  0  0  0  0
  1  2  1  0  0  0  0
  2 23  1  0  0  0  0
  2  5  2  0  0  0  0
  4 16  1  0  0  0  0
  6  9  1  0  0  0  0
  7  9  2  0  0  0  0
  7 13  1  0  0  0  0
  8 19  1  0  0  0  0
  9  3  1  0  0  0  0
 10 14  1  0  0  0  0
 10 20  2  0  0  0  0
 11  6  1  0  0  0  0
 11  8  1  0  0  0  0
 12 22  1  0  0  0  0
 14  6  2  0  0  0  0
 15 21  1  0  0  0  0
 16 20  1  0  0  0  0
 16 12  2  0  0  0  0
 17 12  1  0  0  0  0
 17 15  1  0  0  0  0
 18  8  1  0  0  0  0
 19  3  1  0  0  0  0
 20  7  1  0  0  0  0
 22 13  2  0  0  0  0
 22  1  1  0  0  0  0
 23 25  1  0  0  0  0
 25 24  1  6  0  0  0
 25 26  1  0  0  0  0
 26 28  1  0  0  0  0
 27 26  1  0  0  0  0
M  END
>  <MODEL>
3

>  <REMARK>
 VINA RESULT:      -7.4      2.624      5.236
  Name = 
  3 active torsions:
  status: ('A' for Active; 'I' for Inactive)
    1  A    between atoms: C_2  and  C_3
    2  A    between atoms: C_3  and  C_11
    3  A    between atoms: C_6  and  C_11
                            x       y       z     vdW  Elec       q    Type
                         _______ _______ _______ _____ _____    ______ ____

>  <TORSDO>
F 3

$$$$
=
 OpenBabel11052418113D

 28 31  0  0  1  0  0  0  0  0999 V2000
  187.7410  176.3760  142.5910 N   0  0  0  0  0  0  0  0  0  0  0  0
  188.2290  175.6330  141.4560 C   0  0  0  0  0  0  0  0  0  0  0  0
  192.6030  175.3050  143.9930 C   0  0  0  0  0  2  0  0  0  0  0  0
  187.8940  177.6830  147.3090 O   0  0  0  0  0  1  0  0  0  0  0  0
  187.8160  175.9140  140.2990 O   0  0  0  0  0  0  0  0  0  0  0  0
  192.5830  176.0180  146.4190 C   0  0  0  0  0  0  0  0  0  0  0  0
  190.5430  176.2810  145.1130 C   0  0  0  0  0  0  0  0  0  0  0  0
  194.4330  174.7130  145.4950 N   0  0  0  0  0  0  0  0  0  0  0  0
  191.9000  175.9060  145.1890 C   0  0  0  0  0  0  0  0  0  0  0  0
  190.5910  176.9100  147.4640 C   0  0  0  0  0  3  0  0  0  0  0  0
  194.0460  175.6890  146.5130 C   0  0  0  0  0  2  0  0  0  0  0  0
  187.8300  177.0290  144.9800 C   0  0  0  0  0  0  0  0  0  0  0  0
  189.8290  176.1590  143.9160 C   0  0  0  0  0  3  0  0  0  0  0  0
  191.9310  176.5330  147.5400 C   0  0  0  0  0  3  0  0  0  0  0  0
  185.6470  176.8760  143.7450 C   0  0  0  0  0  2  0  0  0  0  0  0
  188.5360  177.1650  146.1860 C   0  0  0  0  0  0  0  0  0  0  0  0
  186.4090  177.5190  144.8970 C   0  0  0  0  0  2  0  0  0  0  0  0
  195.8780  174.5940  145.5620 C   0  0  0  0  0  1  0  0  0  0  0  0
  194.1180  175.2750  144.1850 C   0  0  0  0  0  2  0  0  0  0  0  0
  189.8860  176.7860  146.2600 C   0  0  0  0  0  0  0  0  0  0  0  0
  186.4450  177.0420  142.4600 C   0  0  0  0  0  2  0  0  0  0  0  0
  188.4770  176.5180  143.8320 C   0  0  0  0  0  0  0  0  0  0  0  0
  189.1630  174.4670  141.6140 C   0  0  0  0  0  2  0  0  0  0  0  0
  187.4420  172.6360  141.6380 C   0  0  0  0  0  1  0  0  0  0  0  0
  188.5570  173.3130  142.4260 C   0  0  1  0  0  3  0  0  0  0  0  0
  189.6080  172.3060  142.9120 C   0  0  0  0  0  3  0  0  0  0  0  0
  190.9320  172.5210  142.1980 C   0  0  0  0  0  1  0  0  0  0  0  0
  189.8480  172.4470  144.4050 C   0  0  0  0  0  1  0  0  0  0  0  0
  1 22  1  0  0  0  0
  2 23  1  0  0  0  0
  2  1  1  0  0  0  0
  3 19  1  0  0  0  0
  3  9  1  0  0  0  0
  5  2  2  0  0  0  0
  6 11  1  0  0  0  0
  6 14  1  0  0  0  0
  7  9  1  0  0  0  0
  7 20  1  0  0  0  0
  8 18  1  0  0  0  0
  8 11  1  0  0  0  0
  9  6  2  0  0  0  0
 10 14  2  0  0  0  0
 12 16  1  0  0  0  0
 13  7  2  0  0  0  0
 15 17  1  0  0  0  0
 16 20  2  0  0  0  0
 16  4  1  0  0  0  0
 17 12  1  0  0  0  0
 19  8  1  0  0  0  0
 20 10  1  0  0  0  0
 21  1  1  0  0  0  0
 21 15  1  0  0  0  0
 22 13  1  0  0  0  0
 22 12  2  0  0  0  0
 23 25  1  0  0  0  0
 25 24  1  6  0  0  0
 25 26  1  0  0  0  0
 26 28  1  0  0  0  0
 27 26  1  0  0  0  0
M  END
>  <MODEL>
4

>  <REMARK>
 VINA RESULT:      -7.3      2.669      3.870
  Name = 
  3 active torsions:
  status: ('A' for Active; 'I' for Inactive)
    1  A    between atoms: C_2  and  C_3
    2  A    between atoms: C_3  and  C_11
    3  A    between atoms: C_6  and  C_11
                            x       y       z     vdW  Elec       q    Type
                         _______ _______ _______ _____ _____    ______ ____

>  <TORSDO>
F 3

$$$$
=
 OpenBabel11052418113D

 28 31  0  0  1  0  0  0  0  0999 V2000
  188.4370  176.5590  144.0600 N   0  0  0  0  0  0  0  0  0  0  0  0
  188.2400  176.1450  142.6930 C   0  0  0  0  0  0  0  0  0  0  0  0
  193.2940  175.9220  142.4010 C   0  0  0  0  0  2  0  0  0  0  0  0
  191.1020  176.8630  148.1570 O   0  0  0  0  0  1  0  0  0  0  0  0
  187.2660  176.6000  142.0340 O   0  0  0  0  0  0  0  0  0  0  0  0
  194.5820  176.1050  144.5700 C   0  0  0  0  0  0  0  0  0  0  0  0
  192.1580  176.3410  144.6340 C   0  0  0  0  0  0  0  0  0  0  0  0
  195.6500  175.2970  142.5240 N   0  0  0  0  0  0  0  0  0  0  0  0
  193.3440  176.1550  143.8940 C   0  0  0  0  0  0  0  0  0  0  0  0
  193.4610  176.4670  146.6840 C   0  0  0  0  0  3  0  0  0  0  0  0
  195.8660  175.9750  143.8020 C   0  0  0  0  0  2  0  0  0  0  0  0
  189.7960  176.7070  146.1260 C   0  0  0  0  0  0  0  0  0  0  0  0
  190.9120  176.3700  143.9980 C   0  0  0  0  0  3  0  0  0  0  0  0
  194.6340  176.2770  145.9540 C   0  0  0  0  0  3  0  0  0  0  0  0
  187.2930  176.5060  146.2160 C   0  0  0  0  0  2  0  0  0  0  0  0
  191.0400  176.6880  146.7770 C   0  0  0  0  0  0  0  0  0  0  0  0
  188.5510  176.9960  146.9220 C   0  0  0  0  0  2  0  0  0  0  0  0
  196.9040  175.3730  141.7970 C   0  0  0  0  0  1  0  0  0  0  0  0
  194.6740  176.0680  141.7610 C   0  0  0  0  0  2  0  0  0  0  0  0
  192.2190  176.4970  146.0380 C   0  0  0  0  0  0  0  0  0  0  0  0
  187.2700  177.0460  144.7950 C   0  0  0  0  0  2  0  0  0  0  0  0
  189.7250  176.5430  144.7230 C   0  0  0  0  0  0  0  0  0  0  0  0
  189.1210  175.1170  142.0410 C   0  0  0  0  0  2  0  0  0  0  0  0
  188.1520  172.9170  141.3090 C   0  0  0  0  0  1  0  0  0  0  0  0
  188.7860  173.6800  142.4650 C   0  0  1  0  0  3  0  0  0  0  0  0
  189.9920  172.9330  143.0520 C   0  0  0  0  0  3  0  0  0  0  0  0
  189.8920  172.8510  144.5650 C   0  0  0  0  0  1  0  0  0  0  0  0
  190.0730  171.5170  142.5070 C   0  0  0  0  0  1  0  0  0  0  0  0
  1 22  1  0  0  0  0
  1 21  1  0  0  0  0
  2  1  1  0  0  0  0
  3  9  1  0  0  0  0
  5  2  2  0  0  0  0
  6 14  1  0  0  0  0
  7 20  1  0  0  0  0
  8 11  1  0  0  0  0
  9  6  2  0  0  0  0
  9  7  1  0  0  0  0
 11  6  1  0  0  0  0
 12 16  1  0  0  0  0
 12 17  1  0  0  0  0
 13  7  2  0  0  0  0
 13 22  1  0  0  0  0
 14 10  2  0  0  0  0
 15 17  1  0  0  0  0
 16  4  1  0  0  0  0
 18  8  1  0  0  0  0
 19  3  1  0  0  0  0
 19  8  1  0  0  0  0
 20 10  1  0  0  0  0
 20 16  2  0  0  0  0
 21 15  1  0  0  0  0
 22 12  2  0  0  0  0
 23 25  1  0  0  0  0
 23  2  1  0  0  0  0
 25 24  1  6  0  0  0
 25 26  1  0  0  0  0
 26 27  1  0  0  0  0
 28 26  1  0  0  0  0
M  END
>  <MODEL>
5

>  <REMARK>
 VINA RESULT:      -7.3      2.532      3.923
  Name = 
  3 active torsions:
  status: ('A' for Active; 'I' for Inactive)
    1  A    between atoms: C_2  and  C_3
    2  A    between atoms: C_3  and  C_11
    3  A    between atoms: C_6  and  C_11
                            x       y       z     vdW  Elec       q    Type
                         _______ _______ _______ _____ _____    ______ ____

>  <TORSDO>
F 3

$$$$
=
 OpenBabel11052418113D

 28 31  0  0  1  0  0  0  0  0999 V2000
  187.5450  176.4440  146.4240 N   0  0  0  0  0  0  0  0  0  0  0  0
  188.5290  175.4490  146.7690 C   0  0  0  0  0  0  0  0  0  0  0  0
  188.6170  174.3250  141.8290 C   0  0  0  0  0  2  0  0  0  0  0  0
  185.3340  179.4310  143.2330 O   0  0  0  0  0  1  0  0  0  0  0  0
  188.4590  174.8590  147.8810 O   0  0  0  0  0  0  0  0  0  0  0  0
  187.4330  175.9200  140.2640 C   0  0  0  0  0  0  0  0  0  0  0  0
  187.3090  176.3370  142.6610 C   0  0  0  0  0  0  0  0  0  0  0  0
  189.0100  174.2510  139.4210 N   0  0  0  0  0  0  0  0  0  0  0  0
  187.7460  175.5360  141.5860 C   0  0  0  0  0  0  0  0  0  0  0  0
  186.2280  177.8480  141.0900 C   0  0  0  0  0  3  0  0  0  0  0  0
  187.8280  175.0500  139.1030 C   0  0  0  0  0  2  0  0  0  0  0  0
  186.4340  177.9500  144.7990 C   0  0  0  0  0  0  0  0  0  0  0  0
  187.6230  175.9990  143.9820 C   0  0  0  0  0  3  0  0  0  0  0  0
  186.6650  177.0600  140.0270 C   0  0  0  0  0  3  0  0  0  0  0  0
  186.6940  178.5920  147.2140 C   0  0  0  0  0  2  0  0  0  0  0  0
  186.1040  178.2960  143.4790 C   0  0  0  0  0  0  0  0  0  0  0  0
  185.8820  178.7680  145.9360 C   0  0  0  0  0  2  0  0  0  0  0  0
  189.2040  173.3370  138.3120 C   0  0  0  0  0  1  0  0  0  0  0  0
  188.7030  173.4340  140.5910 C   0  0  0  0  0  2  0  0  0  0  0  0
  186.5460  177.5000  142.4090 C   0  0  0  0  0  0  0  0  0  0  0  0
  186.8390  177.1090  147.5180 C   0  0  0  0  0  2  0  0  0  0  0  0
  187.2040  176.7930  145.0580 C   0  0  0  0  0  0  0  0  0  0  0  0
  189.6960  175.1440  145.8740 C   0  0  0  0  0  2  0  0  0  0  0  0
  191.9580  175.4190  146.9320 C   0  0  0  0  0  1  0  0  0  0  0  0
  190.8840  176.0920  146.0860 C   0  0  1  0  0  3  0  0  0  0  0  0
  191.4520  176.6450  144.7720 C   0  0  0  0  0  3  0  0  0  0  0  0
  191.3870  175.5970  143.6740 C   0  0  0  0  0  1  0  0  0  0  0  0
  190.6700  177.8630  144.3100 C   0  0  0  0  0  1  0  0  0  0  0  0
  1  2  1  0  0  0  0
  1 21  1  0  0  0  0
  2  5  2  0  0  0  0
  4 16  1  0  0  0  0
  6  9  1  0  0  0  0
  7 13  1  0  0  0  0
  8 19  1  0  0  0  0
  9  3  1  0  0  0  0
  9  7  2  0  0  0  0
 10 20  2  0  0  0  0
 11  8  1  0  0  0  0
 11  6  1  0  0  0  0
 12 22  1  0  0  0  0
 12 17  1  0  0  0  0
 13 22  2  0  0  0  0
 14  6  2  0  0  0  0
 14 10  1  0  0  0  0
 15 21  1  0  0  0  0
 16 12  2  0  0  0  0
 17 15  1  0  0  0  0
 18  8  1  0  0  0  0
 19  3  1  0  0  0  0
 20  7  1  0  0  0  0
 20 16  1  0  0  0  0
 22  1  1  0  0  0  0
 23 25  1  0  0  0  0
 23  2  1  0  0  0  0
 25 24  1  6  0  0  0
 26 25  1  0  0  0  0
 27 26  1  0  0  0  0
 28 26  1  0  0  0  0
M  END
>  <MODEL>
6

>  <REMARK>
 VINA RESULT:      -7.3      2.022      5.362
  Name = 
  3 active torsions:
  status: ('A' for Active; 'I' for Inactive)
    1  A    between atoms: C_2  and  C_3
    2  A    between atoms: C_3  and  C_11
    3  A    between atoms: C_6  and  C_11
                            x       y       z     vdW  Elec       q    Type
                         _______ _______ _______ _____ _____    ______ ____

>  <TORSDO>
F 3

$$$$
=
 OpenBabel11052418113D

 28 31  0  0  1  0  0  0  0  0999 V2000
  188.1610  176.0170  144.9960 N   0  0  0  0  0  0  0  0  0  0  0  0
  188.9480  175.4340  146.0540 C   0  0  0  0  0  0  0  0  0  0  0  0
  190.3620  171.9810  142.6250 C   0  0  0  0  0  2  0  0  0  0  0  0
  187.1170  176.7490  140.2670 O   0  0  0  0  0  1  0  0  0  0  0  0
  188.5330  175.4830  147.2430 O   0  0  0  0  0  0  0  0  0  0  0  0
  189.7630  172.4420  140.2130 C   0  0  0  0  0  0  0  0  0  0  0  0
  188.9910  174.0000  141.9200 C   0  0  0  0  0  0  0  0  0  0  0  0
  191.4140  170.7390  140.8070 N   0  0  0  0  0  0  0  0  0  0  0  0
  189.6670  172.8120  141.5710 C   0  0  0  0  0  0  0  0  0  0  0  0
  188.4870  174.3960  139.5730 C   0  0  0  0  0  3  0  0  0  0  0  0
  190.4180  171.1490  139.8180 C   0  0  0  0  0  2  0  0  0  0  0  0
  187.6430  176.3780  142.6000 C   0  0  0  0  0  0  0  0  0  0  0  0
  188.8990  174.4090  143.2550 C   0  0  0  0  0  3  0  0  0  0  0  0
  189.1600  173.2250  139.2270 C   0  0  0  0  0  3  0  0  0  0  0  0
  187.2470  178.1750  144.3110 C   0  0  0  0  0  2  0  0  0  0  0  0
  187.7200  175.9760  141.2570 C   0  0  0  0  0  0  0  0  0  0  0  0
  186.8410  177.6010  142.9590 C   0  0  0  0  0  2  0  0  0  0  0  0
  191.8600  169.4130  140.4220 C   0  0  0  0  0  1  0  0  0  0  0  0
  190.7420  170.6000  142.0950 C   0  0  0  0  0  2  0  0  0  0  0  0
  188.3980  174.7960  140.9120 C   0  0  0  0  0  0  0  0  0  0  0  0
  187.2140  177.0720  145.3570 C   0  0  0  0  0  2  0  0  0  0  0  0
  188.2400  175.5930  143.6120 C   0  0  0  0  0  0  0  0  0  0  0  0
  190.3010  174.8340  145.7970 C   0  0  0  0  0  2  0  0  0  0  0  0
  192.6180  175.3380  146.6270 C   0  0  0  0  0  1  0  0  0  0  0  0
  191.4350  175.8670  145.8250 C   0  0  1  0  0  3  0  0  0  0  0  0
  191.8560  176.3320  144.4240 C   0  0  0  0  0  3  0  0  0  0  0  0
  191.2730  177.7000  144.1120 C   0  0  0  0  0  1  0  0  0  0  0  0
  193.3680  176.4260  144.3120 C   0  0  0  0  0  1  0  0  0  0  0  0
  1 21  1  0  0  0  0
  1  2  1  0  0  0  0
  2  5  2  0  0  0  0
  4 16  1  0  0  0  0
  6  9  1  0  0  0  0
  7 13  1  0  0  0  0
  8 19  1  0  0  0  0
  9  7  2  0  0  0  0
  9  3  1  0  0  0  0
 10 20  2  0  0  0  0
 11  6  1  0  0  0  0
 11  8  1  0  0  0  0
 12 17  1  0  0  0  0
 12 22  1  0  0  0  0
 13 22  2  0  0  0  0
 14 10  1  0  0  0  0
 14  6  2  0  0  0  0
 15 21  1  0  0  0  0
 16 12  2  0  0  0  0
 17 15  1  0  0  0  0
 18  8  1  0  0  0  0
 19  3  1  0  0  0  0
 20 16  1  0  0  0  0
 20  7  1  0  0  0  0
 22  1  1  0  0  0  0
 23 25  1  0  0  0  0
 23  2  1  0  0  0  0
 25 24  1  6  0  0  0
 26 25  1  0  0  0  0
 27 26  1  0  0  0  0
 28 26  1  0  0  0  0
M  END
>  <MODEL>
7

>  <REMARK>
 VINA RESULT:      -6.8      3.376      5.907
  Name = 
  3 active torsions:
  status: ('A' for Active; 'I' for Inactive)
    1  A    between atoms: C_2  and  C_3
    2  A    between atoms: C_3  and  C_11
    3  A    between atoms: C_6  and  C_11
                            x       y       z     vdW  Elec       q    Type
                         _______ _______ _______ _____ _____    ______ ____

>  <TORSDO>
F 3

$$$$
=
 OpenBabel11052418113D

 28 31  0  0  1  0  0  0  0  0999 V2000
  187.7320  176.2060  142.6010 N   0  0  0  0  0  0  0  0  0  0  0  0
  188.2170  175.4050  141.5050 C   0  0  0  0  0  0  0  0  0  0  0  0
  192.5950  175.2020  144.0490 C   0  0  0  0  0  2  0  0  0  0  0  0
  187.8950  177.7560  147.2450 O   0  0  0  0  0  1  0  0  0  0  0  0
  187.8030  175.6260  140.3360 O   0  0  0  0  0  0  0  0  0  0  0  0
  192.5800  176.0410  146.4340 C   0  0  0  0  0  0  0  0  0  0  0  0
  190.5390  176.2380  145.1200 C   0  0  0  0  0  0  0  0  0  0  0  0
  194.4280  174.6870  145.5770 N   0  0  0  0  0  0  0  0  0  0  0  0
  191.8950  175.8660  145.2130 C   0  0  0  0  0  0  0  0  0  0  0  0
  190.5910  176.9880  147.4350 C   0  0  0  0  0  3  0  0  0  0  0  0
  194.0440  175.7150  146.5430 C   0  0  0  0  0  2  0  0  0  0  0  0
  187.8260  176.9820  144.9520 C   0  0  0  0  0  0  0  0  0  0  0  0
  189.8230  176.0550  143.9320 C   0  0  0  0  0  3  0  0  0  0  0  0
  191.9310  176.6140  147.5290 C   0  0  0  0  0  3  0  0  0  0  0  0
  185.6410  176.7690  143.7300 C   0  0  0  0  0  2  0  0  0  0  0  0
  188.5350  177.1800  146.1490 C   0  0  0  0  0  0  0  0  0  0  0  0
  186.4060  177.4690  144.8470 C   0  0  0  0  0  2  0  0  0  0  0  0
  195.8720  174.5690  145.6470 C   0  0  0  0  0  1  0  0  0  0  0  0
  194.1110  175.1800  144.2400 C   0  0  0  0  0  2  0  0  0  0  0  0
  189.8840  176.8030  146.2400 C   0  0  0  0  0  0  0  0  0  0  0  0
  186.4370  176.8660  142.4380 C   0  0  0  0  0  2  0  0  0  0  0  0
  188.4710  176.4110  143.8310 C   0  0  0  0  0  0  0  0  0  0  0  0
  189.1500  174.2470  141.7220 C   0  0  0  0  0  2  0  0  0  0  0  0
  191.3650  173.7560  140.6420 C   0  0  0  0  0  1  0  0  0  0  0  0
  189.8550  173.7910  140.4380 C   0  0  1  0  0  3  0  0  0  0  0  0
  189.3190  172.4560  139.9010 C   0  0  0  0  0  3  0  0  0  0  0  0
  188.5710  172.6610  138.5950 C   0  0  0  0  0  1  0  0  0  0  0  0
  190.4510  171.4760  139.6480 C   0  0  0  0  0  1  0  0  0  0  0  0
  1 22  1  0  0  0  0
  2 23  1  0  0  0  0
  2  1  1  0  0  0  0
  3 19  1  0  0  0  0
  3  9  1  0  0  0  0
  5  2  2  0  0  0  0
  6 11  1  0  0  0  0
  6 14  1  0  0  0  0
  7  9  1  0  0  0  0
  7 20  1  0  0  0  0
  8 18  1  0  0  0  0
  8 11  1  0  0  0  0
  9  6  2  0  0  0  0
 10 14  2  0  0  0  0
 12 16  1  0  0  0  0
 13  7  2  0  0  0  0
 15 17  1  0  0  0  0
 16 20  2  0  0  0  0
 16  4  1  0  0  0  0
 17 12  1  0  0  0  0
 19  8  1  0  0  0  0
 20 10  1  0  0  0  0
 21  1  1  0  0  0  0
 21 15  1  0  0  0  0
 22 13  1  0  0  0  0
 22 12  2  0  0  0  0
 25 24  1  1  0  0  0
 25 23  1  0  0  0  0
 26 25  1  0  0  0  0
 27 26  1  0  0  0  0
 28 26  1  0  0  0  0
M  END
>  <MODEL>
8

>  <REMARK>
 VINA RESULT:      -6.7      3.028      4.107
  Name = 
  3 active torsions:
  status: ('A' for Active; 'I' for Inactive)
    1  A    between atoms: C_2  and  C_3
    2  A    between atoms: C_3  and  C_11
    3  A    between atoms: C_6  and  C_11
                            x       y       z     vdW  Elec       q    Type
                         _______ _______ _______ _____ _____    ______ ____

>  <TORSDO>
F 3

$$$$
=
 OpenBabel11052418113D

 28 31  0  0  1  0  0  0  0  0999 V2000
  193.3500  174.7760  145.3000 N   0  0  0  0  0  0  0  0  0  0  0  0
  193.2890  176.0570  145.9600 C   0  0  0  0  0  0  0  0  0  0  0  0
  189.3920  177.0680  142.8830 C   0  0  0  0  0  2  0  0  0  0  0  0
  191.3610  171.1600  142.6610 O   0  0  0  0  0  1  0  0  0  0  0  0
  194.3500  176.6020  146.3660 O   0  0  0  0  0  0  0  0  0  0  0  0
  188.4460  175.1380  141.5510 C   0  0  0  0  0  0  0  0  0  0  0  0
  190.4050  174.7400  142.9440 C   0  0  0  0  0  0  0  0  0  0  0  0
  187.2150  177.2370  141.7920 N   0  0  0  0  0  0  0  0  0  0  0  0
  189.4350  175.6260  142.4320 C   0  0  0  0  0  0  0  0  0  0  0  0
  189.4150  172.9230  141.6620 C   0  0  0  0  0  3  0  0  0  0  0  0
  187.4420  176.0720  140.9370 C   0  0  0  0  0  2  0  0  0  0  0  0
  192.3320  172.9550  143.9640 C   0  0  0  0  0  0  0  0  0  0  0  0
  191.3840  175.1850  143.8380 C   0  0  0  0  0  3  0  0  0  0  0  0
  188.4520  173.7980  141.1610 C   0  0  0  0  0  3  0  0  0  0  0  0
  194.0570  172.4790  145.7270 C   0  0  0  0  0  2  0  0  0  0  0  0
  191.3600  172.4960  143.0600 C   0  0  0  0  0  0  0  0  0  0  0  0
  193.4110  172.0140  144.4280 C   0  0  0  0  0  2  0  0  0  0  0  0
  186.3700  178.1460  141.0400 C   0  0  0  0  0  1  0  0  0  0  0  0
  188.4940  177.9150  141.9820 C   0  0  0  0  0  2  0  0  0  0  0  0
  190.3920  173.3790  142.5560 C   0  0  0  0  0  0  0  0  0  0  0  0
  194.5050  173.9240  145.5770 C   0  0  0  0  0  2  0  0  0  0  0  0
  192.3460  174.3110  144.3630 C   0  0  0  0  0  0  0  0  0  0  0  0
  191.9820  176.7350  146.2560 C   0  0  0  0  0  2  0  0  0  0  0  0
  191.5660  177.1560  148.6980 C   0  0  0  0  0  1  0  0  0  0  0  0
  191.3050  176.2120  147.5310 C   0  0  1  0  0  3  0  0  0  0  0  0
  189.8080  175.9330  147.3430 C   0  0  0  0  0  3  0  0  0  0  0  0
  189.1880  176.9370  146.3860 C   0  0  0  0  0  1  0  0  0  0  0  0
  189.5790  174.5410  146.7800 C   0  0  0  0  0  1  0  0  0  0  0  0
  1 21  1  0  0  0  0
  1  2  1  0  0  0  0
  2 23  1  0  0  0  0
  2  5  2  0  0  0  0
  4 16  1  0  0  0  0
  6  9  1  0  0  0  0
  7 13  1  0  0  0  0
  8 19  1  0  0  0  0
  9  3  1  0  0  0  0
  9  7  2  0  0  0  0
 10 20  2  0  0  0  0
 11  6  1  0  0  0  0
 11  8  1  0  0  0  0
 12 22  1  0  0  0  0
 12 17  1  0  0  0  0
 13 22  2  0  0  0  0
 14  6  2  0  0  0  0
 14 10  1  0  0  0  0
 16 12  2  0  0  0  0
 17 15  1  0  0  0  0
 18  8  1  0  0  0  0
 19  3  1  0  0  0  0
 20  7  1  0  0  0  0
 20 16  1  0  0  0  0
 21 15  1  0  0  0  0
 22  1  1  0  0  0  0
 23 25  1  0  0  0  0
 25 24  1  1  0  0  0
 26 25  1  0  0  0  0
 27 26  1  0  0  0  0
 28 26  1  0  0  0  0
M  END
>  <MODEL>
9

>  <REMARK>
 VINA RESULT:      -6.7      3.326      6.926
  Name = 
  3 active torsions:
  status: ('A' for Active; 'I' for Inactive)
    1  A    between atoms: C_2  and  C_3
    2  A    between atoms: C_3  and  C_11
    3  A    between atoms: C_6  and  C_11
                            x       y       z     vdW  Elec       q    Type
                         _______ _______ _______ _____ _____    ______ ____

>  <TORSDO>
F 3

$$$$
