=
 OpenBabel11052417253D

 25 27  0  0  1  0  0  0  0  0999 V2000
  188.2660  177.6330  144.7000 C   0  0  2  0  0  3  0  0  0  0  0  0
  189.7740  177.5600  144.9600 C   0  0  0  0  0  2  0  0  0  0  0  0
  188.0840  175.6430  143.0710 C   0  0  0  0  0  2  0  0  0  0  0  0
  187.3750  176.9250  145.7430 C   0  0  2  0  0  3  0  0  0  0  0  0
  185.0340  176.9770  146.4550 C   0  0  0  0  0  2  0  0  0  0  0  0
  189.5300  175.1800  143.1470 C   0  0  0  0  0  2  0  0  0  0  0  0
  185.5540  177.6740  144.1280 C   0  0  0  0  0  2  0  0  0  0  0  0
  185.9320  176.7120  145.2600 C   0  0  1  0  0  3  0  0  0  0  0  0
  191.1280  174.9850  145.0400 C   0  0  0  0  0  2  0  0  0  0  0  0
  189.7820  173.0200  144.3440 C   0  0  0  0  0  1  0  0  0  0  0  0
  190.0750  177.4700  146.3210 O   0  0  0  0  0  0  0  0  0  0  0  0
  185.9410  177.3150  147.6230 C   0  0  0  0  0  2  0  0  0  0  0  0
  187.9290  177.1580  143.2730 C   0  0  1  0  0  3  0  0  0  0  0  0
  186.4860  177.5380  142.9140 C   0  0  0  0  0  2  0  0  0  0  0  0
  190.1510  175.1760  147.5720 O   0  0  0  0  0  0  0  0  0  0  0  0
  187.2580  177.7350  147.0170 C   0  0  0  0  0  2  0  0  0  0  0  0
  190.9020  175.9960  146.5490 P   0  0  1  0  0  0  0  0  0  0  0  0
  189.7870  174.5270  144.4960 C   0  0  2  0  0  3  0  0  0  0  0  0
  192.5530  176.3650  147.2150 C   0  0  0  0  0  2  0  0  0  0  0  0
  193.5710  175.6720  146.4400 N   0  0  0  0  0  2  0  0  0  0  0  0
  194.6080  176.3650  145.7420 C   0  0  0  0  0  0  0  0  0  0  0  0
  194.7380  177.6130  145.8580 O   0  0  0  0  0  0  0  0  0  0  0  0
  195.5280  175.6090  144.8470 C   0  0  0  0  0  2  0  0  0  0  0  0
  196.8730  176.9520  143.4050 O   0  0  0  0  0  1  0  0  0  0  0  0
  195.6460  176.2980  143.5010 C   0  0  0  0  0  2  0  0  0  0  0  0
  1  2  1  1  0  0  0
  1  4  1  0  0  0  0
  2 11  1  0  0  0  0
  3  6  1  0  0  0  0
  3 13  1  0  0  0  0
  4 16  1  1  0  0  0
  5 12  1  0  0  0  0
  6 18  1  0  0  0  0
  8  7  1  6  0  0  0
  8  4  1  0  0  0  0
  8  5  1  0  0  0  0
  9 17  1  0  0  0  0
 11 17  1  0  0  0  0
 13 14  1  1  0  0  0
 13  1  1  0  0  0  0
 14  7  1  0  0  0  0
 16 12  1  0  0  0  0
 17 19  1  0  0  0  0
 17 15  2  1  0  0  0
 18 10  1  6  0  0  0
 18  9  1  0  0  0  0
 20 19  1  0  0  0  0
 21 22  2  0  0  0  0
 21 20  1  0  0  0  0
 23 21  1  0  0  0  0
 24 25  1  0  0  0  0
 25 23  1  0  0  0  0
M  END
>  <MODEL>
1

>  <REMARK>
 VINA RESULT:      -7.7      0.000      0.000
  Name = 
  4 active torsions:
  status: ('A' for Active; 'I' for Inactive)
    1  A    between atoms: C_2  and  C_12
    2  A    between atoms: C_2  and  C_21
    3  A    between atoms: C_6  and  N_15
    4  A    between atoms: C_6  and  P_23
                            x       y       z     vdW  Elec       q    Type
                         _______ _______ _______ _____ _____    ______ ____

>  <TORSDO>
F 4

$$$$
=
 OpenBabel11052417253D

 25 27  0  0  1  0  0  0  0  0999 V2000
  188.3640  177.6520  144.4180 C   0  0  2  0  0  3  0  0  0  0  0  0
  189.8140  177.1600  144.4810 C   0  0  0  0  0  2  0  0  0  0  0  0
  187.6540  176.4090  142.2730 C   0  0  0  0  0  2  0  0  0  0  0  0
  187.3540  176.8560  145.2720 C   0  0  2  0  0  3  0  0  0  0  0  0
  185.1180  177.1930  146.2080 C   0  0  0  0  0  2  0  0  0  0  0  0
  188.9430  175.6360  142.0460 C   0  0  0  0  0  2  0  0  0  0  0  0
  185.7320  178.4870  144.1780 C   0  0  0  0  0  2  0  0  0  0  0  0
  185.8910  177.1460  144.9020 C   0  0  1  0  0  3  0  0  0  0  0  0
  190.4920  174.4700  143.6000 C   0  0  0  0  0  2  0  0  0  0  0  0
  188.6860  173.2030  142.4660 C   0  0  0  0  0  1  0  0  0  0  0  0
  190.1190  176.5580  145.7030 O   0  0  0  0  0  0  0  0  0  0  0  0
  186.1100  176.9120  147.3200 C   0  0  0  0  0  2  0  0  0  0  0  0
  187.8830  177.7650  142.9580 C   0  0  1  0  0  3  0  0  0  0  0  0
  186.5700  178.5570  142.8920 C   0  0  0  0  0  2  0  0  0  0  0  0
  189.6600  174.0240  146.1510 O   0  0  0  0  0  0  0  0  0  0  0  0
  187.4740  177.2020  146.7420 C   0  0  0  0  0  2  0  0  0  0  0  0
  190.5620  174.9460  145.3660 P   0  0  1  0  0  0  0  0  0  0  0  0
  189.0660  174.5320  143.0840 C   0  0  2  0  0  3  0  0  0  0  0  0
  192.2700  174.6940  145.9350 C   0  0  0  0  0  2  0  0  0  0  0  0
  193.1880  174.7580  144.8080 N   0  0  0  0  0  2  0  0  0  0  0  0
  193.7960  175.9800  144.3830 C   0  0  0  0  0  0  0  0  0  0  0  0
  193.6340  177.0410  145.0420 O   0  0  0  0  0  0  0  0  0  0  0  0
  194.6060  176.0060  143.1340 C   0  0  0  0  0  2  0  0  0  0  0  0
  196.7060  177.0830  143.4840 O   0  0  0  0  0  1  0  0  0  0  0  0
  196.0790  175.8390  143.4500 C   0  0  0  0  0  2  0  0  0  0  0  0
  1  2  1  6  0  0  0
  1  4  1  0  0  0  0
  2 11  1  0  0  0  0
  4 16  1  1  0  0  0
  5 12  1  0  0  0  0
  6  3  1  0  0  0  0
  6 18  1  0  0  0  0
  8  7  1  1  0  0  0
  8  4  1  0  0  0  0
  8  5  1  0  0  0  0
  9 17  1  0  0  0  0
 13  3  1  1  0  0  0
 13  1  1  0  0  0  0
 14 13  1  0  0  0  0
 14  7  1  0  0  0  0
 16 12  1  0  0  0  0
 17 11  1  0  0  0  0
 17 19  1  0  0  0  0
 17 15  2  1  0  0  0
 18 10  1  6  0  0  0
 18  9  1  0  0  0  0
 20 19  1  0  0  0  0
 21 20  1  0  0  0  0
 21 22  2  0  0  0  0
 23 25  1  0  0  0  0
 23 21  1  0  0  0  0
 25 24  1  0  0  0  0
M  END
>  <MODEL>
2

>  <REMARK>
 VINA RESULT:      -7.4      1.199      1.297
  Name = 
  4 active torsions:
  status: ('A' for Active; 'I' for Inactive)
    1  A    between atoms: C_2  and  C_12
    2  A    between atoms: C_2  and  C_21
    3  A    between atoms: C_6  and  N_15
    4  A    between atoms: C_6  and  P_23
                            x       y       z     vdW  Elec       q    Type
                         _______ _______ _______ _____ _____    ______ ____

>  <TORSDO>
F 4

$$$$
=
 OpenBabel11052417253D

 25 27  0  0  1  0  0  0  0  0999 V2000
  188.3310  177.5180  144.1860 C   0  0  2  0  0  3  0  0  0  0  0  0
  189.7190  176.8920  144.0240 C   0  0  0  0  0  2  0  0  0  0  0  0
  187.2310  176.5090  142.0840 C   0  0  0  0  0  2  0  0  0  0  0  0
  187.3620  176.7590  145.1180 C   0  0  2  0  0  3  0  0  0  0  0  0
  185.3100  177.2310  146.3640 C   0  0  0  0  0  2  0  0  0  0  0  0
  188.3950  175.6380  141.6390 C   0  0  0  0  0  2  0  0  0  0  0  0
  185.7880  178.6090  144.3530 C   0  0  0  0  0  2  0  0  0  0  0  0
  185.9010  177.2090  144.9660 C   0  0  1  0  0  3  0  0  0  0  0  0
  190.0040  174.2230  142.8980 C   0  0  0  0  0  2  0  0  0  0  0  0
  187.9490  173.2150  141.9410 C   0  0  0  0  0  1  0  0  0  0  0  0
  190.1160  176.1760  145.1560 O   0  0  0  0  0  0  0  0  0  0  0  0
  186.4020  176.7780  147.3140 C   0  0  0  0  0  2  0  0  0  0  0  0
  187.6820  177.7830  142.8140 C   0  0  1  0  0  3  0  0  0  0  0  0
  186.4570  178.6950  142.9730 C   0  0  0  0  0  2  0  0  0  0  0  0
  189.4630  173.6690  145.5060 O   0  0  0  0  0  0  0  0  0  0  0  0
  187.7030  176.9830  146.5760 C   0  0  0  0  0  2  0  0  0  0  0  0
  190.3470  174.5590  144.6640 P   0  0  1  0  0  0  0  0  0  0  0  0
  188.5370  174.4540  142.5830 C   0  0  2  0  0  3  0  0  0  0  0  0
  192.0780  174.1090  144.9830 C   0  0  0  0  0  2  0  0  0  0  0  0
  192.9490  175.2410  144.7060 N   0  0  0  0  0  2  0  0  0  0  0  0
  194.3540  175.2100  144.9640 C   0  0  0  0  0  0  0  0  0  0  0  0
  194.9130  174.1490  145.3520 O   0  0  0  0  0  0  0  0  0  0  0  0
  195.1630  176.4490  144.8000 C   0  0  0  0  0  2  0  0  0  0  0  0
  194.3460  177.1330  146.9340 O   0  0  0  0  0  1  0  0  0  0  0  0
  194.5870  177.5760  145.6350 C   0  0  0  0  0  2  0  0  0  0  0  0
  1  2  1  6  0  0  0
  1  4  1  0  0  0  0
  2 11  1  0  0  0  0
  4 16  1  1  0  0  0
  5 12  1  0  0  0  0
  6  3  1  0  0  0  0
  6 18  1  0  0  0  0
  8  7  1  1  0  0  0
  8  4  1  0  0  0  0
  8  5  1  0  0  0  0
  9 17  1  0  0  0  0
 13  3  1  1  0  0  0
 13 14  1  0  0  0  0
 13  1  1  0  0  0  0
 14  7  1  0  0  0  0
 16 12  1  0  0  0  0
 17 19  1  0  0  0  0
 17 11  1  0  0  0  0
 17 15  2  1  0  0  0
 18 10  1  6  0  0  0
 18  9  1  0  0  0  0
 20 21  1  0  0  0  0
 20 19  1  0  0  0  0
 21 22  2  0  0  0  0
 23 21  1  0  0  0  0
 23 25  1  0  0  0  0
 25 24  1  0  0  0  0
M  END
>  <MODEL>
3

>  <REMARK>
 VINA RESULT:      -7.2      1.632      2.052
  Name = 
  4 active torsions:
  status: ('A' for Active; 'I' for Inactive)
    1  A    between atoms: C_2  and  C_12
    2  A    between atoms: C_2  and  C_21
    3  A    between atoms: C_6  and  N_15
    4  A    between atoms: C_6  and  P_23
                            x       y       z     vdW  Elec       q    Type
                         _______ _______ _______ _____ _____    ______ ____

>  <TORSDO>
F 4

$$$$
=
 OpenBabel11052417253D

 25 27  0  0  1  0  0  0  0  0999 V2000
  187.5990  177.9370  143.9650 C   0  0  2  0  0  3  0  0  0  0  0  0
  189.1000  177.9110  143.6610 C   0  0  0  0  0  2  0  0  0  0  0  0
  186.8430  176.2190  142.1980 C   0  0  0  0  0  2  0  0  0  0  0  0
  187.1370  177.0240  145.1220 C   0  0  2  0  0  3  0  0  0  0  0  0
  185.2060  176.8290  146.6110 C   0  0  0  0  0  2  0  0  0  0  0  0
  188.2190  175.8340  141.6810 C   0  0  0  0  0  2  0  0  0  0  0  0
  184.8610  177.9100  144.4010 C   0  0  0  0  0  2  0  0  0  0  0  0
  185.6160  176.8060  145.1490 C   0  0  1  0  0  3  0  0  0  0  0  0
  190.3880  175.4370  142.8280 C   0  0  0  0  0  2  0  0  0  0  0  0
  188.8780  173.5320  142.3330 C   0  0  0  0  0  1  0  0  0  0  0  0
  189.8670  177.6270  144.7930 O   0  0  0  0  0  0  0  0  0  0  0  0
  186.4700  177.0320  147.4240 C   0  0  0  0  0  2  0  0  0  0  0  0
  186.7730  177.6720  142.6910 C   0  0  1  0  0  3  0  0  0  0  0  0
  185.2980  178.0200  142.9320 C   0  0  0  0  0  2  0  0  0  0  0  0
  190.3800  175.1740  145.5360 O   0  0  0  0  0  0  0  0  0  0  0  0
  187.4850  177.6160  146.4710 C   0  0  0  0  0  2  0  0  0  0  0  0
  190.7180  176.1850  144.4660 P   0  0  1  0  0  0  0  0  0  0  0  0
  188.9400  174.9940  142.7230 C   0  0  2  0  0  3  0  0  0  0  0  0
  192.4980  176.5410  144.5580 C   0  0  0  0  0  2  0  0  0  0  0  0
  193.2550  175.2980  144.5830 N   0  0  0  0  0  2  0  0  0  0  0  0
  194.1980  174.9940  145.6130 C   0  0  0  0  0  0  0  0  0  0  0  0
  194.3340  175.7590  146.6050 O   0  0  0  0  0  0  0  0  0  0  0  0
  195.0490  173.7770  145.5000 C   0  0  0  0  0  2  0  0  0  0  0  0
  197.1370  173.4450  146.6040 O   0  0  0  0  0  1  0  0  0  0  0  0
  196.5180  174.1460  145.5710 C   0  0  0  0  0  2  0  0  0  0  0  0
  1  2  1  6  0  0  0
  1  4  1  0  0  0  0
  2 11  1  0  0  0  0
  4  8  1  0  0  0  0
  4 16  1  1  0  0  0
  5 12  1  0  0  0  0
  6  3  1  0  0  0  0
  6 18  1  0  0  0  0
  8  7  1  6  0  0  0
  8  5  1  0  0  0  0
  9 17  1  0  0  0  0
 13  3  1  1  0  0  0
 13 14  1  0  0  0  0
 13  1  1  0  0  0  0
 14  7  1  0  0  0  0
 16 12  1  0  0  0  0
 17 19  1  0  0  0  0
 17 11  1  0  0  0  0
 17 15  2  1  0  0  0
 18 10  1  6  0  0  0
 18  9  1  0  0  0  0
 19 20  1  0  0  0  0
 20 21  1  0  0  0  0
 21 22  2  0  0  0  0
 23 25  1  0  0  0  0
 23 21  1  0  0  0  0
 25 24  1  0  0  0  0
M  END
>  <MODEL>
4

>  <REMARK>
 VINA RESULT:      -7.2      1.781      1.950
  Name = 
  4 active torsions:
  status: ('A' for Active; 'I' for Inactive)
    1  A    between atoms: C_2  and  C_12
    2  A    between atoms: C_2  and  C_21
    3  A    between atoms: C_6  and  N_15
    4  A    between atoms: C_6  and  P_23
                            x       y       z     vdW  Elec       q    Type
                         _______ _______ _______ _____ _____    ______ ____

>  <TORSDO>
F 4

$$$$
=
 OpenBabel11052417253D

 25 27  0  0  1  0  0  0  0  0999 V2000
  186.5120  176.5680  145.0740 C   0  0  2  0  0  3  0  0  0  0  0  0
  187.2190  175.5860  144.1350 C   0  0  0  0  0  2  0  0  0  0  0  0
  188.6060  177.5420  146.2210 C   0  0  0  0  0  2  0  0  0  0  0  0
  186.1530  177.9370  144.4580 C   0  0  2  0  0  3  0  0  0  0  0  0
  184.6290  179.7910  144.9360 C   0  0  0  0  0  2  0  0  0  0  0  0
  189.6520  176.8040  145.4020 C   0  0  0  0  0  2  0  0  0  0  0  0
  185.3530  178.3660  146.8380 C   0  0  0  0  0  2  0  0  0  0  0  0
  185.7880  178.9960  145.5100 C   0  0  1  0  0  3  0  0  0  0  0  0
  189.8060  176.2580  142.9820 C   0  0  0  0  0  2  0  0  0  0  0  0
  190.8970  178.3040  143.8650 C   0  0  0  0  0  1  0  0  0  0  0  0
  186.8630  175.7770  142.7980 O   0  0  0  0  0  0  0  0  0  0  0  0
  184.3380  179.2210  143.5610 C   0  0  0  0  0  2  0  0  0  0  0  0
  187.3030  176.7440  146.3850 C   0  0  1  0  0  3  0  0  0  0  0  0
  186.4400  177.4580  147.4340 C   0  0  0  0  0  2  0  0  0  0  0  0
  188.0960  177.5050  141.2720 O   0  0  0  0  0  0  0  0  0  0  0  0
  184.9450  177.8390  143.5490 C   0  0  0  0  0  2  0  0  0  0  0  0
  188.2920  176.1720  141.9560 P   0  0  1  0  0  0  0  0  0  0  0  0
  189.7020  177.3830  143.9960 C   0  0  2  0  0  3  0  0  0  0  0  0
  188.5670  174.9100  140.6770 C   0  0  0  0  0  2  0  0  0  0  0  0
  189.3710  173.8220  141.2120 N   0  0  0  0  0  2  0  0  0  0  0  0
  188.7980  172.7190  141.9170 C   0  0  0  0  0  0  0  0  0  0  0  0
  187.5470  172.5980  142.0130 O   0  0  0  0  0  0  0  0  0  0  0  0
  189.6860  171.7170  142.5690 C   0  0  0  0  0  2  0  0  0  0  0  0
  189.6930  172.9370  144.6190 O   0  0  0  0  0  1  0  0  0  0  0  0
  190.5210  172.3710  143.6520 C   0  0  0  0  0  2  0  0  0  0  0  0
  1  2  1  6  0  0  0
  1 13  1  0  0  0  0
  4 16  1  6  0  0  0
  4  1  1  0  0  0  0
  4  8  1  0  0  0  0
  6  3  1  0  0  0  0
  7 14  1  0  0  0  0
  8  5  1  6  0  0  0
  8  7  1  0  0  0  0
  9 18  1  0  0  0  0
 11  2  1  0  0  0  0
 12  5  1  0  0  0  0
 13  3  1  6  0  0  0
 13 14  1  0  0  0  0
 16 12  1  0  0  0  0
 17 15  2  6  0  0  0
 17 11  1  0  0  0  0
 17  9  1  0  0  0  0
 18 10  1  1  0  0  0
 18  6  1  0  0  0  0
 19 20  1  0  0  0  0
 19 17  1  0  0  0  0
 20 21  1  0  0  0  0
 21 22  2  0  0  0  0
 21 23  1  0  0  0  0
 23 25  1  0  0  0  0
 25 24  1  0  0  0  0
M  END
>  <MODEL>
5

>  <REMARK>
 VINA RESULT:      -7.0      3.747      5.335
  Name = 
  4 active torsions:
  status: ('A' for Active; 'I' for Inactive)
    1  A    between atoms: C_2  and  C_12
    2  A    between atoms: C_2  and  C_21
    3  A    between atoms: C_6  and  N_15
    4  A    between atoms: C_6  and  P_23
                            x       y       z     vdW  Elec       q    Type
                         _______ _______ _______ _____ _____    ______ ____

>  <TORSDO>
F 4

$$$$
=
 OpenBabel11052417253D

 25 27  0  0  1  0  0  0  0  0999 V2000
  187.5340  178.0200  143.9270 C   0  0  2  0  0  3  0  0  0  0  0  0
  189.0000  177.6780  143.6400 C   0  0  0  0  0  2  0  0  0  0  0  0
  186.4770  176.7900  141.9220 C   0  0  0  0  0  2  0  0  0  0  0  0
  186.8190  177.0950  144.9350 C   0  0  2  0  0  3  0  0  0  0  0  0
  184.8290  177.1660  146.3570 C   0  0  0  0  0  2  0  0  0  0  0  0
  187.7480  176.1620  141.3720 C   0  0  0  0  0  2  0  0  0  0  0  0
  184.8500  178.5890  144.3210 C   0  0  0  0  0  2  0  0  0  0  0  0
  185.2900  177.2450  144.9130 C   0  0  1  0  0  3  0  0  0  0  0  0
  189.7080  175.1060  142.4760 C   0  0  0  0  0  2  0  0  0  0  0  0
  187.8170  173.7020  141.6960 C   0  0  0  0  0  1  0  0  0  0  0  0
  189.6260  177.0670  144.7290 O   0  0  0  0  0  0  0  0  0  0  0  0
  186.0670  176.9480  147.2060 C   0  0  0  0  0  2  0  0  0  0  0  0
  186.7290  178.1370  142.6180 C   0  0  1  0  0  3  0  0  0  0  0  0
  185.3670  178.7910  142.8890 C   0  0  0  0  0  2  0  0  0  0  0  0
  189.5140  174.4850  145.1180 O   0  0  0  0  0  0  0  0  0  0  0  0
  187.2340  177.3970  146.3590 C   0  0  0  0  0  2  0  0  0  0  0  0
  190.1280  175.5230  144.2080 P   0  0  1  0  0  0  0  0  0  0  0  0
  188.2020  175.0390  142.2920 C   0  0  2  0  0  3  0  0  0  0  0  0
  191.9360  175.4260  144.3720 C   0  0  0  0  0  2  0  0  0  0  0  0
  192.3970  176.3670  145.3820 N   0  0  0  0  0  2  0  0  0  0  0  0
  192.3790  176.0630  146.7790 C   0  0  0  0  0  0  0  0  0  0  0  0
  192.0510  174.9160  147.1830 O   0  0  0  0  0  0  0  0  0  0  0  0
  192.7220  177.1210  147.7690 C   0  0  0  0  0  2  0  0  0  0  0  0
  190.4130  177.6710  148.0100 O   0  0  0  0  0  1  0  0  0  0  0  0
  191.5670  177.3520  148.7240 C   0  0  0  0  0  2  0  0  0  0  0  0
  1  2  1  6  0  0  0
  1  4  1  0  0  0  0
  2 11  1  0  0  0  0
  4 16  1  1  0  0  0
  5 12  1  0  0  0  0
  6  3  1  0  0  0  0
  6 18  1  0  0  0  0
  8  7  1  1  0  0  0
  8  4  1  0  0  0  0
  8  5  1  0  0  0  0
  9 17  1  0  0  0  0
 13  3  1  1  0  0  0
 13 14  1  0  0  0  0
 13  1  1  0  0  0  0
 14  7  1  0  0  0  0
 16 12  1  0  0  0  0
 17 19  1  0  0  0  0
 17 11  1  0  0  0  0
 17 15  2  1  0  0  0
 18 10  1  6  0  0  0
 18  9  1  0  0  0  0
 19 20  1  0  0  0  0
 20 21  1  0  0  0  0
 21 22  2  0  0  0  0
 21 23  1  0  0  0  0
 23 25  1  0  0  0  0
 24 25  1  0  0  0  0
M  END
>  <MODEL>
6

>  <REMARK>
 VINA RESULT:      -7.0      2.303      3.043
  Name = 
  4 active torsions:
  status: ('A' for Active; 'I' for Inactive)
    1  A    between atoms: C_2  and  C_12
    2  A    between atoms: C_2  and  C_21
    3  A    between atoms: C_6  and  N_15
    4  A    between atoms: C_6  and  P_23
                            x       y       z     vdW  Elec       q    Type
                         _______ _______ _______ _____ _____    ______ ____

>  <TORSDO>
F 4

$$$$
=
 OpenBabel11052417253D

 25 27  0  0  1  0  0  0  0  0999 V2000
  192.7140  176.3080  144.7650 C   0  0  2  0  0  3  0  0  0  0  0  0
  191.4330  177.0670  144.4050 C   0  0  0  0  0  2  0  0  0  0  0  0
  192.1240  175.7450  147.2110 C   0  0  0  0  0  2  0  0  0  0  0  0
  192.7340  174.8140  144.3740 C   0  0  2  0  0  3  0  0  0  0  0  0
  194.4030  173.0580  144.0300 C   0  0  0  0  0  2  0  0  0  0  0  0
  190.7150  176.3130  147.2200 C   0  0  0  0  0  2  0  0  0  0  0  0
  194.9910  174.9340  145.5480 C   0  0  0  0  0  2  0  0  0  0  0  0
  193.8560  174.0240  145.0660 C   0  0  1  0  0  3  0  0  0  0  0  0
  188.8780  176.2650  145.5460 C   0  0  0  0  0  2  0  0  0  0  0  0
  188.9720  174.5500  147.3360 C   0  0  0  0  0  1  0  0  0  0  0  0
  190.8010  176.5410  143.2760 O   0  0  0  0  0  0  0  0  0  0  0  0
  193.5960  173.2640  142.7630 C   0  0  0  0  0  2  0  0  0  0  0  0
  193.0650  176.4930  146.2540 C   0  0  1  0  0  3  0  0  0  0  0  0
  194.4970  176.0120  146.5260 C   0  0  0  0  0  2  0  0  0  0  0  0
  189.1050  174.5590  143.4390 O   0  0  0  0  0  0  0  0  0  0  0  0
  192.9670  174.6300  142.8890 C   0  0  0  0  0  2  0  0  0  0  0  0
  189.2530  176.0260  143.7700 P   0  0  1  0  0  0  0  0  0  0  0  0
  189.7960  175.4150  146.4060 C   0  0  2  0  0  3  0  0  0  0  0  0
  188.0130  176.9530  142.8180 C   0  0  0  0  0  2  0  0  0  0  0  0
  187.1970  177.7610  143.7120 N   0  0  0  0  0  2  0  0  0  0  0  0
  186.2140  178.6810  143.2330 C   0  0  0  0  0  0  0  0  0  0  0  0
  185.9460  178.7520  142.0040 O   0  0  0  0  0  0  0  0  0  0  0  0
  185.5200  179.5850  144.1910 C   0  0  0  0  0  2  0  0  0  0  0  0
  184.0820  178.9260  145.9760 O   0  0  0  0  0  1  0  0  0  0  0  0
  184.1750  179.0090  144.5880 C   0  0  0  0  0  2  0  0  0  0  0  0
  1  2  1  1  0  0  0
  1 13  1  0  0  0  0
  3  6  1  0  0  0  0
  4 16  1  6  0  0  0
  4  1  1  0  0  0  0
  4  8  1  0  0  0  0
  7 14  1  0  0  0  0
  8  5  1  6  0  0  0
  8  7  1  0  0  0  0
  9 18  1  0  0  0  0
 11 17  1  0  0  0  0
 11  2  1  0  0  0  0
 12 16  1  0  0  0  0
 12  5  1  0  0  0  0
 13 14  1  6  0  0  0
 13  3  1  0  0  0  0
 17 15  2  6  0  0  0
 17  9  1  0  0  0  0
 18  6  1  0  0  0  0
 18 10  1  1  0  0  0
 19 20  1  0  0  0  0
 19 17  1  0  0  0  0
 21 20  1  0  0  0  0
 21 23  1  0  0  0  0
 22 21  2  0  0  0  0
 23 25  1  0  0  0  0
 25 24  1  0  0  0  0
M  END
>  <MODEL>
7

>  <REMARK>
 VINA RESULT:      -7.0      3.128      7.551
  Name = 
  4 active torsions:
  status: ('A' for Active; 'I' for Inactive)
    1  A    between atoms: C_2  and  C_12
    2  A    between atoms: C_2  and  C_21
    3  A    between atoms: C_6  and  N_15
    4  A    between atoms: C_6  and  P_23
                            x       y       z     vdW  Elec       q    Type
                         _______ _______ _______ _____ _____    ______ ____

>  <TORSDO>
F 4

$$$$
=
 OpenBabel11052417253D

 25 27  0  0  1  0  0  0  0  0999 V2000
  188.1950  177.6090  144.1910 C   0  0  2  0  0  3  0  0  0  0  0  0
  189.6080  177.0360  144.0410 C   0  0  0  0  0  2  0  0  0  0  0  0
  187.1530  176.5560  142.0800 C   0  0  0  0  0  2  0  0  0  0  0  0
  187.2490  176.8130  145.1150 C   0  0  2  0  0  3  0  0  0  0  0  0
  185.1690  177.2060  146.3430 C   0  0  0  0  0  2  0  0  0  0  0  0
  188.3540  175.7310  141.6460 C   0  0  0  0  0  2  0  0  0  0  0  0
  185.6110  178.6010  144.3350 C   0  0  0  0  0  2  0  0  0  0  0  0
  185.7720  177.2060  144.9490 C   0  0  1  0  0  3  0  0  0  0  0  0
  190.0060  174.3790  142.9190 C   0  0  0  0  0  2  0  0  0  0  0  0
  187.9990  173.2930  141.9460 C   0  0  0  0  0  1  0  0  0  0  0  0
  190.0220  176.3370  145.1770 O   0  0  0  0  0  0  0  0  0  0  0  0
  186.2690  176.7960  147.3020 C   0  0  0  0  0  2  0  0  0  0  0  0
  187.5480  177.8480  142.8130 C   0  0  1  0  0  3  0  0  0  0  0  0
  186.2880  178.7120  142.9600 C   0  0  0  0  0  2  0  0  0  0  0  0
  189.4630  173.8070  145.5230 O   0  0  0  0  0  0  0  0  0  0  0  0
  187.5680  177.0510  146.5760 C   0  0  0  0  0  2  0  0  0  0  0  0
  190.3200  174.7300  144.6880 P   0  0  1  0  0  0  0  0  0  0  0  0
  188.5340  174.5540  142.5920 C   0  0  2  0  0  3  0  0  0  0  0  0
  192.0650  174.3460  145.0230 C   0  0  0  0  0  2  0  0  0  0  0  0
  192.4300  173.0870  144.3920 N   0  0  0  0  0  2  0  0  0  0  0  0
  193.5800  172.3370  144.7860 C   0  0  0  0  0  0  0  0  0  0  0  0
  194.2720  172.6940  145.7760 O   0  0  0  0  0  0  0  0  0  0  0  0
  193.9830  171.1360  144.0020 C   0  0  0  0  0  2  0  0  0  0  0  0
  192.8620  169.1290  144.6390 O   0  0  0  0  0  1  0  0  0  0  0  0
  192.7940  170.2220  143.7780 C   0  0  0  0  0  2  0  0  0  0  0  0
  1  2  1  6  0  0  0
  1  4  1  0  0  0  0
  2 11  1  0  0  0  0
  4 16  1  1  0  0  0
  5 12  1  0  0  0  0
  6  3  1  0  0  0  0
  6 18  1  0  0  0  0
  8  7  1  1  0  0  0
  8  4  1  0  0  0  0
  8  5  1  0  0  0  0
  9 17  1  0  0  0  0
 13  3  1  1  0  0  0
 13 14  1  0  0  0  0
 13  1  1  0  0  0  0
 14  7  1  0  0  0  0
 16 12  1  0  0  0  0
 17 19  1  0  0  0  0
 17 11  1  0  0  0  0
 17 15  2  1  0  0  0
 18 10  1  6  0  0  0
 18  9  1  0  0  0  0
 20 21  1  0  0  0  0
 20 19  1  0  0  0  0
 21 22  2  0  0  0  0
 23 21  1  0  0  0  0
 25 23  1  0  0  0  0
 25 24  1  0  0  0  0
M  END
>  <MODEL>
8

>  <REMARK>
 VINA RESULT:      -6.7      2.659      3.219
  Name = 
  4 active torsions:
  status: ('A' for Active; 'I' for Inactive)
    1  A    between atoms: C_2  and  C_12
    2  A    between atoms: C_2  and  C_21
    3  A    between atoms: C_6  and  N_15
    4  A    between atoms: C_6  and  P_23
                            x       y       z     vdW  Elec       q    Type
                         _______ _______ _______ _____ _____    ______ ____

>  <TORSDO>
F 4

$$$$
=
 OpenBabel11052417253D

 25 27  0  0  1  0  0  0  0  0999 V2000
  189.3120  174.9720  145.3740 C   0  0  2  0  0  3  0  0  0  0  0  0
  190.3840  173.8780  145.3370 C   0  0  0  0  0  2  0  0  0  0  0  0
  190.2620  176.3420  147.3400 C   0  0  0  0  0  2  0  0  0  0  0  0
  189.5230  176.1440  144.3910 C   0  0  2  0  0  3  0  0  0  0  0  0
  188.1780  177.9200  143.3790 C   0  0  0  0  0  2  0  0  0  0  0  0
  191.5360  175.5410  147.5550 C   0  0  0  0  0  2  0  0  0  0  0  0
  187.4260  176.9960  145.5590 C   0  0  0  0  0  2  0  0  0  0  0  0
  188.6490  177.3660  144.7120 C   0  0  1  0  0  3  0  0  0  0  0  0
  193.1530  174.5110  145.9740 C   0  0  0  0  0  2  0  0  0  0  0  0
  193.5740  176.7830  146.8770 C   0  0  0  0  0  1  0  0  0  0  0  0
  190.9730  173.7520  144.0770 O   0  0  0  0  0  0  0  0  0  0  0  0
  188.7880  177.0490  142.2970 C   0  0  0  0  0  2  0  0  0  0  0  0
  189.1000  175.4880  146.8100 C   0  0  1  0  0  3  0  0  0  0  0  0
  187.8200  176.3320  146.8880 C   0  0  0  0  0  2  0  0  0  0  0  0
  193.0120  175.2170  143.3500 O   0  0  0  0  0  0  0  0  0  0  0  0
  189.1650  175.7530  142.9730 C   0  0  0  0  0  2  0  0  0  0  0  0
  192.6350  174.0810  144.2720 P   0  0  1  0  0  0  0  0  0  0  0  0
  192.5080  175.8120  146.4170 C   0  0  2  0  0  3  0  0  0  0  0  0
  193.5700  172.6060  143.7690 C   0  0  0  0  0  2  0  0  0  0  0  0
  194.9430  172.6980  144.2440 N   0  0  0  0  0  2  0  0  0  0  0  0
  195.4490  171.8690  145.2920 C   0  0  0  0  0  0  0  0  0  0  0  0
  194.7430  170.9460  145.7800 O   0  0  0  0  0  0  0  0  0  0  0  0
  196.8140  172.1150  145.8350 C   0  0  0  0  0  2  0  0  0  0  0  0
  197.8360  174.1620  145.1590 O   0  0  0  0  0  1  0  0  0  0  0  0
  197.0140  173.5890  146.1280 C   0  0  0  0  0  2  0  0  0  0  0  0
  1  2  1  1  0  0  0
  1 13  1  0  0  0  0
  3  6  1  0  0  0  0
  4 16  1  6  0  0  0
  4  8  1  0  0  0  0
  4  1  1  0  0  0  0
  7 14  1  0  0  0  0
  8  5  1  6  0  0  0
  8  7  1  0  0  0  0
  9 18  1  0  0  0  0
 11 17  1  0  0  0  0
 11  2  1  0  0  0  0
 12 16  1  0  0  0  0
 12  5  1  0  0  0  0
 13 14  1  6  0  0  0
 13  3  1  0  0  0  0
 17 15  2  6  0  0  0
 17  9  1  0  0  0  0
 18 10  1  1  0  0  0
 18  6  1  0  0  0  0
 19 20  1  0  0  0  0
 19 17  1  0  0  0  0
 20 21  1  0  0  0  0
 21 22  2  0  0  0  0
 21 23  1  0  0  0  0
 23 25  1  0  0  0  0
 24 25  1  0  0  0  0
M  END
>  <MODEL>
9

>  <REMARK>
 VINA RESULT:      -6.7      2.773      4.330
  Name = 
  4 active torsions:
  status: ('A' for Active; 'I' for Inactive)
    1  A    between atoms: C_2  and  C_12
    2  A    between atoms: C_2  and  C_21
    3  A    between atoms: C_6  and  N_15
    4  A    between atoms: C_6  and  P_23
                            x       y       z     vdW  Elec       q    Type
                         _______ _______ _______ _____ _____    ______ ____

>  <TORSDO>
F 4

$$$$
