=
 OpenBabel11052420163D

 34 38  0  0  1  0  0  0  0  0999 V2000
  193.2490  173.2940  144.7180 C   0  0  1  0  0  3  0  0  0  0  0  0
  197.1480  172.8850  145.0960 C   0  0  0  0  0  2  0  0  0  0  0  0
  195.5680  174.6440  145.8740 C   0  0  0  0  0  2  0  0  0  0  0  0
  192.2220  172.3640  144.9020 O   0  0  0  0  0  1  0  0  0  0  0  0
  191.9810  175.1250  146.1050 C   0  0  2  0  0  3  0  0  0  0  0  0
  192.5270  176.3230  146.8630 C   0  0  0  0  0  2  0  0  0  0  0  0
  194.2970  175.3050  145.6170 N   0  0  1  0  0  0  0  0  0  0  0  0
  193.2480  174.3300  145.8400 C   0  0  2  0  0  3  0  0  0  0  0  0
  194.0390  176.3040  146.6400 C   0  0  0  0  0  2  0  0  0  0  0  0
  197.1220  171.4010  144.7300 C   0  0  0  0  0  2  0  0  0  0  0  0
  196.0250  170.6450  145.5010 C   0  0  2  0  0  3  0  0  0  0  0  0
  195.8140  173.5820  144.7930 C   0  0  2  0  0  3  0  0  0  0  0  0
  194.7540  171.4760  145.7240 C   0  0  0  0  0  2  0  0  0  0  0  0
  194.6220  172.5890  144.6790 C   0  0  1  0  0  3  0  0  0  0  0  0
  191.3320  175.6340  144.8200 C   0  0  0  0  0  2  0  0  0  0  0  0
  189.8710  175.2120  144.7310 C   0  0  0  0  0  2  0  0  0  0  0  0
  188.4190  175.9510  142.3670 O   0  0  0  0  0  0  0  0  0  0  0  0
  187.4170  177.5850  146.0740 C   0  0  0  0  0  2  0  0  0  0  0  0
  184.9550  178.4810  142.5630 C   0  0  2  0  0  3  0  0  0  0  0  0
  186.0570  177.4340  142.4130 C   0  0  0  0  0  2  0  0  0  0  0  0
  187.1050  177.6140  143.5130 C   0  0  1  0  0  3  0  0  0  0  0  0
  189.0010  176.3720  144.5980 N   0  0  0  0  0  0  0  0  0  0  0  0
  185.3340  178.5430  145.0430 C   0  0  0  0  0  2  0  0  0  0  0  0
  186.4350  177.4980  144.8920 C   0  0  2  0  0  3  0  0  0  0  0  0
  184.2950  178.3730  143.9380 C   0  0  0  0  0  2  0  0  0  0  0  0
  188.8850  177.3060  145.7140 C   0  0  0  0  0  2  0  0  0  0  0  0
  188.1970  176.5910  143.4310 C   0  0  0  0  0  0  0  0  0  0  0  0
  183.9360  178.3140  141.4880 C   0  0  0  0  0  0  0  0  0  0  0  0
  184.3000  178.2640  140.2850 O   0  0  0  0  0  0  0  0  0  0  0  0
  182.5860  178.2120  141.8040 O   0  0  0  0  0  1  0  0  0  0  0  0
  196.5410  170.1540  146.8460 C   0  0  0  0  0  2  0  0  0  0  0  0
  196.4530  168.6410  146.9510 C   0  0  1  0  0  3  0  0  0  0  0  0
  197.4090  168.1670  147.8490 O   0  0  0  0  0  1  0  0  0  0  0  0
  195.0730  168.2530  147.4430 C   0  0  0  0  0  1  0  0  0  0  0  0
  1  4  1  1  0  0  0
  1  8  1  0  0  0  0
  5 15  1  6  0  0  0
  5  6  1  0  0  0  0
  7  8  1  0  0  0  0
  7  3  1  1  0  0  0
  7  9  1  0  0  0  0
  8  5  1  0  0  0  0
  9  6  1  0  0  0  0
 10  2  1  0  0  0  0
 10 11  1  0  0  0  0
 11 13  1  0  0  0  0
 11 31  1  0  0  0  0
 12  2  1  0  0  0  0
 12  3  1  0  0  0  0
 14  1  1  0  0  0  0
 14 12  1  0  0  0  0
 14 13  1  0  0  0  0
 16 15  1  0  0  0  0
 17 27  2  0  0  0  0
 19 25  1  0  0  0  0
 20 19  1  0  0  0  0
 20 21  1  0  0  0  0
 21 24  1  0  0  0  0
 22 16  1  0  0  0  0
 22 26  1  0  0  0  0
 24 23  1  0  0  0  0
 24 18  1  0  0  0  0
 25 23  1  0  0  0  0
 26 18  1  0  0  0  0
 27 21  1  0  0  0  0
 27 22  1  0  0  0  0
 28 30  1  0  0  0  0
 28 19  1  0  0  0  0
 29 28  2  0  0  0  0
 31 32  1  0  0  0  0
 32 34  1  0  0  0  0
 32 33  1  0  0  0  0
M  END
>  <MODEL>
1

>  <REMARK>
 VINA RESULT:      -8.2      0.000      0.000
  Name = 
  6 active torsions:
  status: ('A' for Active; 'I' for Inactive)
    1  A    between atoms: C_3  and  C_25
    2  A    between atoms: C_7  and  C_11
    3  A    between atoms: C_8  and  C_17
    4  A    between atoms: C_8  and  N_18
    5  A    between atoms: C_10  and  C_17
    6  A    between atoms: C_25  and  C_27
                            x       y       z     vdW  Elec       q    Type
                         _______ _______ _______ _____ _____    ______ ____

>  <TORSDO>
F 6

$$$$
=
 OpenBabel11052420163D

 34 38  0  0  1  0  0  0  0  0999 V2000
  193.8890  173.2630  143.8960 C   0  0  1  0  0  3  0  0  0  0  0  0
  197.5900  172.4620  144.9780 C   0  0  0  0  0  2  0  0  0  0  0  0
  196.1750  174.4940  145.2340 C   0  0  0  0  0  2  0  0  0  0  0  0
  192.7250  172.4990  144.0280 O   0  0  0  0  0  1  0  0  0  0  0  0
  192.6980  175.4230  144.7910 C   0  0  2  0  0  3  0  0  0  0  0  0
  193.2870  176.6510  145.4620 C   0  0  0  0  0  2  0  0  0  0  0  0
  195.0630  175.2520  144.6810 N   0  0  1  0  0  0  0  0  0  0  0  0
  193.8660  174.4530  144.8530 C   0  0  2  0  0  3  0  0  0  0  0  0
  194.7970  176.4200  145.5020 C   0  0  0  0  0  2  0  0  0  0  0  0
  197.4110  170.9530  144.8150 C   0  0  0  0  0  2  0  0  0  0  0  0
  196.1160  170.4600  145.4850 C   0  0  2  0  0  3  0  0  0  0  0  0
  196.4280  173.2560  144.3630 C   0  0  2  0  0  3  0  0  0  0  0  0
  194.9550  171.4590  145.3770 C   0  0  0  0  0  2  0  0  0  0  0  0
  195.1390  172.4030  144.1840 C   0  0  1  0  0  3  0  0  0  0  0  0
  192.3270  175.7990  143.3580 C   0  0  0  0  0  2  0  0  0  0  0  0
  191.4010  177.0080  143.3240 C   0  0  0  0  0  2  0  0  0  0  0  0
  189.7340  177.6050  145.5850 O   0  0  0  0  0  0  0  0  0  0  0  0
  188.0540  176.3380  141.9800 C   0  0  0  0  0  2  0  0  0  0  0  0
  185.4510  177.5620  145.2850 C   0  0  2  0  0  3  0  0  0  0  0  0
  186.9540  177.7830  145.4420 C   0  0  0  0  0  2  0  0  0  0  0  0
  187.7210  176.8690  144.4830 C   0  0  1  0  0  3  0  0  0  0  0  0
  190.0100  176.6040  143.4840 N   0  0  0  0  0  0  0  0  0  0  0  0
  185.7820  176.9320  142.8780 C   0  0  0  0  0  2  0  0  0  0  0  0
  187.2840  177.1500  143.0360 C   0  0  2  0  0  3  0  0  0  0  0  0
  185.0160  177.8330  143.8440 C   0  0  0  0  0  2  0  0  0  0  0  0
  189.3930  175.7610  142.4630 C   0  0  0  0  0  2  0  0  0  0  0  0
  189.2040  177.0660  144.5740 C   0  0  0  0  0  0  0  0  0  0  0  0
  184.7000  178.4460  146.2220 C   0  0  0  0  0  0  0  0  0  0  0  0
  183.5700  178.8880  145.8920 O   0  0  0  0  0  0  0  0  0  0  0  0
  185.2390  178.7840  147.4580 O   0  0  0  0  0  1  0  0  0  0  0  0
  196.3500  170.1270  146.9500 C   0  0  0  0  0  2  0  0  0  0  0  0
  196.1800  168.6390  147.2110 C   0  0  1  0  0  3  0  0  0  0  0  0
  197.0890  168.2170  148.1820 O   0  0  0  0  0  1  0  0  0  0  0  0
  194.7710  168.3760  147.7020 C   0  0  0  0  0  1  0  0  0  0  0  0
  1  4  1  1  0  0  0
  1 14  1  0  0  0  0
  1  8  1  0  0  0  0
  5 15  1  6  0  0  0
  5  8  1  0  0  0  0
  5  6  1  0  0  0  0
  6  9  1  0  0  0  0
  7  8  1  0  0  0  0
  7  3  1  1  0  0  0
  7  9  1  0  0  0  0
 10  2  1  0  0  0  0
 10 11  1  0  0  0  0
 11 31  1  0  0  0  0
 12  2  1  0  0  0  0
 12  3  1  0  0  0  0
 13 11  1  0  0  0  0
 14 12  1  0  0  0  0
 14 13  1  0  0  0  0
 16 15  1  0  0  0  0
 16 22  1  0  0  0  0
 18 26  1  0  0  0  0
 18 24  1  0  0  0  0
 19 20  1  0  0  0  0
 19 28  1  0  0  0  0
 21 27  1  0  0  0  0
 21 20  1  0  0  0  0
 22 27  1  0  0  0  0
 23 24  1  0  0  0  0
 23 25  1  0  0  0  0
 24 21  1  0  0  0  0
 25 19  1  0  0  0  0
 26 22  1  0  0  0  0
 27 17  2  0  0  0  0
 28 30  1  0  0  0  0
 29 28  2  0  0  0  0
 31 32  1  0  0  0  0
 32 34  1  0  0  0  0
 32 33  1  0  0  0  0
M  END
>  <MODEL>
2

>  <REMARK>
 VINA RESULT:      -8.0      1.796      2.458
  Name = 
  6 active torsions:
  status: ('A' for Active; 'I' for Inactive)
    1  A    between atoms: C_3  and  C_25
    2  A    between atoms: C_7  and  C_11
    3  A    between atoms: C_8  and  C_17
    4  A    between atoms: C_8  and  N_18
    5  A    between atoms: C_10  and  C_17
    6  A    between atoms: C_25  and  C_27
                            x       y       z     vdW  Elec       q    Type
                         _______ _______ _______ _____ _____    ______ ____

>  <TORSDO>
F 6

$$$$
=
 OpenBabel11052420163D

 34 38  0  0  1  0  0  0  0  0999 V2000
  192.7920  173.7700  144.8010 C   0  0  1  0  0  3  0  0  0  0  0  0
  196.7110  174.1380  144.9540 C   0  0  0  0  0  2  0  0  0  0  0  0
  194.8700  175.3570  146.1050 C   0  0  0  0  0  2  0  0  0  0  0  0
  191.9910  172.6260  144.8440 O   0  0  0  0  0  1  0  0  0  0  0  0
  191.2870  175.0170  146.5520 C   0  0  2  0  0  3  0  0  0  0  0  0
  191.6350  176.1510  147.5010 C   0  0  0  0  0  2  0  0  0  0  0  0
  193.4760  175.7680  146.0230 N   0  0  1  0  0  0  0  0  0  0  0  0
  192.6660  174.5680  146.0970 C   0  0  2  0  0  3  0  0  0  0  0  0
  193.0980  176.4930  147.2240 C   0  0  0  0  0  2  0  0  0  0  0  0
  196.9570  172.7710  144.3170 C   0  0  0  0  0  2  0  0  0  0  0  0
  196.0970  171.6760  144.9720 C   0  0  2  0  0  3  0  0  0  0  0  0
  195.2450  174.5790  144.8360 C   0  0  2  0  0  3  0  0  0  0  0  0
  194.7040  172.1660  145.3930 C   0  0  0  0  0  2  0  0  0  0  0  0
  194.2720  173.3910  144.5800 C   0  0  1  0  0  3  0  0  0  0  0  0
  190.4550  175.5950  145.4090 C   0  0  0  0  0  2  0  0  0  0  0  0
  188.9670  175.3570  145.6320 C   0  0  0  0  0  2  0  0  0  0  0  0
  187.8590  175.8900  143.0370 O   0  0  0  0  0  0  0  0  0  0  0  0
  186.5170  177.9800  146.3910 C   0  0  0  0  0  2  0  0  0  0  0  0
  184.5560  178.5860  142.5200 C   0  0  2  0  0  3  0  0  0  0  0  0
  185.6030  177.4770  142.6240 C   0  0  0  0  0  2  0  0  0  0  0  0
  186.5190  177.7330  143.8230 C   0  0  1  0  0  3  0  0  0  0  0  0
  188.1910  176.5350  145.2650 N   0  0  0  0  0  0  0  0  0  0  0  0
  184.6360  178.9110  145.0070 C   0  0  0  0  0  2  0  0  0  0  0  0
  185.6820  177.8050  145.1100 C   0  0  2  0  0  3  0  0  0  0  0  0
  183.7290  178.6650  143.8040 C   0  0  0  0  0  2  0  0  0  0  0  0
  187.9980  177.5940  146.2520 C   0  0  0  0  0  2  0  0  0  0  0  0
  187.5490  176.6570  143.9900 C   0  0  0  0  0  0  0  0  0  0  0  0
  183.6660  178.3450  141.3490 C   0  0  0  0  0  0  0  0  0  0  0  0
  184.1500  178.3420  140.1880 O   0  0  0  0  0  0  0  0  0  0  0  0
  182.3060  178.1240  141.5290 O   0  0  0  0  0  1  0  0  0  0  0  0
  196.7990  171.0770  146.1810 C   0  0  0  0  0  2  0  0  0  0  0  0
  196.8510  169.5600  146.0930 C   0  0  1  0  0  3  0  0  0  0  0  0
  195.8010  169.0020  146.8230 O   0  0  0  0  0  1  0  0  0  0  0  0
  196.7270  169.1390  144.6430 C   0  0  0  0  0  1  0  0  0  0  0  0
  1  4  1  1  0  0  0
  1  8  1  0  0  0  0
  5 15  1  6  0  0  0
  5  6  1  0  0  0  0
  7  8  1  0  0  0  0
  7  3  1  1  0  0  0
  7  9  1  0  0  0  0
  8  5  1  0  0  0  0
  9  6  1  0  0  0  0
 10  2  1  0  0  0  0
 10 11  1  0  0  0  0
 11 13  1  0  0  0  0
 11 31  1  0  0  0  0
 12  2  1  0  0  0  0
 12  3  1  0  0  0  0
 14  1  1  0  0  0  0
 14 12  1  0  0  0  0
 14 13  1  0  0  0  0
 15 16  1  0  0  0  0
 17 27  2  0  0  0  0
 19 20  1  0  0  0  0
 19 25  1  0  0  0  0
 20 21  1  0  0  0  0
 21 27  1  0  0  0  0
 21 24  1  0  0  0  0
 22 16  1  0  0  0  0
 22 26  1  0  0  0  0
 23 24  1  0  0  0  0
 24 18  1  0  0  0  0
 25 23  1  0  0  0  0
 26 18  1  0  0  0  0
 27 22  1  0  0  0  0
 28 30  1  0  0  0  0
 28 19  1  0  0  0  0
 29 28  2  0  0  0  0
 32 31  1  0  0  0  0
 32 33  1  0  0  0  0
 34 32  1  0  0  0  0
M  END
>  <MODEL>
3

>  <REMARK>
 VINA RESULT:      -7.8      1.000      1.132
  Name = 
  6 active torsions:
  status: ('A' for Active; 'I' for Inactive)
    1  A    between atoms: C_3  and  C_25
    2  A    between atoms: C_7  and  C_11
    3  A    between atoms: C_8  and  C_17
    4  A    between atoms: C_8  and  N_18
    5  A    between atoms: C_10  and  C_17
    6  A    between atoms: C_25  and  C_27
                            x       y       z     vdW  Elec       q    Type
                         _______ _______ _______ _____ _____    ______ ____

>  <TORSDO>
F 6

$$$$
=
 OpenBabel11052420163D

 34 38  0  0  1  0  0  0  0  0999 V2000
  193.4050  175.8750  144.6340 C   0  0  1  0  0  3  0  0  0  0  0  0
  196.9530  174.3490  143.8640 C   0  0  0  0  0  2  0  0  0  0  0  0
  194.7300  173.2990  144.2570 C   0  0  0  0  0  2  0  0  0  0  0  0
  192.7350  176.9470  144.0380 O   0  0  0  0  0  1  0  0  0  0  0  0
  191.2700  174.3510  144.5350 C   0  0  2  0  0  3  0  0  0  0  0  0
  191.1570  172.8370  144.5140 C   0  0  0  0  0  2  0  0  0  0  0  0
  193.4360  173.4510  144.9050 N   0  0  1  0  0  0  0  0  0  0  0  0
  192.7510  174.5490  144.2520 C   0  0  2  0  0  3  0  0  0  0  0  0
  192.5890  172.3100  144.6020 C   0  0  0  0  0  2  0  0  0  0  0  0
  197.5210  175.6790  143.3710 C   0  0  0  0  0  2  0  0  0  0  0  0
  196.5690  176.3710  142.3800 C   0  0  2  0  0  3  0  0  0  0  0  0
  195.6030  174.5210  144.5750 C   0  0  2  0  0  3  0  0  0  0  0  0
  195.0850  176.1670  142.7180 C   0  0  0  0  0  2  0  0  0  0  0  0
  194.8870  175.8530  144.2040 C   0  0  1  0  0  3  0  0  0  0  0  0
  190.8730  174.8370  145.9280 C   0  0  0  0  0  2  0  0  0  0  0  0
  189.3670  174.7480  146.1370 C   0  0  0  0  0  2  0  0  0  0  0  0
  188.2500  175.3920  143.5710 O   0  0  0  0  0  0  0  0  0  0  0  0
  187.2500  177.6330  146.9470 C   0  0  0  0  0  2  0  0  0  0  0  0
  185.2580  178.4410  143.1300 C   0  0  2  0  0  3  0  0  0  0  0  0
  186.1760  177.2220  143.2120 C   0  0  0  0  0  2  0  0  0  0  0  0
  187.1500  177.3770  144.3820 C   0  0  1  0  0  3  0  0  0  0  0  0
  188.7180  176.0040  145.7850 N   0  0  0  0  0  0  0  0  0  0  0  0
  185.4460  178.7640  145.6110 C   0  0  0  0  0  2  0  0  0  0  0  0
  186.3640  177.5480  145.6920 C   0  0  2  0  0  3  0  0  0  0  0  0
  184.4820  178.6180  144.4360 C   0  0  0  0  0  2  0  0  0  0  0  0
  188.6730  177.0820  146.7680 C   0  0  0  0  0  2  0  0  0  0  0  0
  188.0560  176.1930  144.5270 C   0  0  0  0  0  0  0  0  0  0  0  0
  184.3120  178.2970  141.9860 C   0  0  0  0  0  0  0  0  0  0  0  0
  183.0720  178.2970  142.1990 O   0  0  0  0  0  1  0  0  0  0  0  0
  184.7890  178.1640  140.6870 O   0  0  0  0  0  0  0  0  0  0  0  0
  196.8230  175.9010  140.9560 C   0  0  0  0  0  2  0  0  0  0  0  0
  195.7310  174.9550  140.4840 C   0  0  1  0  0  3  0  0  0  0  0  0
  195.1770  175.4200  139.2920 O   0  0  0  0  0  1  0  0  0  0  0  0
  196.3270  173.5820  140.2520 C   0  0  0  0  0  1  0  0  0  0  0  0
  1  4  1  6  0  0  0
  2 12  1  0  0  0  0
  3 12  1  0  0  0  0
  5 15  1  1  0  0  0
  6  5  1  0  0  0  0
  6  9  1  0  0  0  0
  7  3  1  6  0  0  0
  8  5  1  0  0  0  0
  8  1  1  0  0  0  0
  8  7  1  0  0  0  0
  9  7  1  0  0  0  0
 10  2  1  0  0  0  0
 11 13  1  0  0  0  0
 11 10  1  0  0  0  0
 13 14  1  0  0  0  0
 14 12  1  0  0  0  0
 14  1  1  0  0  0  0
 15 16  1  0  0  0  0
 17 27  2  0  0  0  0
 19 20  1  0  0  0  0
 19 25  1  0  0  0  0
 20 21  1  0  0  0  0
 21 27  1  0  0  0  0
 21 24  1  0  0  0  0
 22 16  1  0  0  0  0
 22 26  1  0  0  0  0
 23 24  1  0  0  0  0
 24 18  1  0  0  0  0
 25 23  1  0  0  0  0
 26 18  1  0  0  0  0
 27 22  1  0  0  0  0
 28 29  1  0  0  0  0
 28 19  1  0  0  0  0
 30 28  2  0  0  0  0
 31 11  1  0  0  0  0
 32 31  1  0  0  0  0
 33 32  1  0  0  0  0
 34 32  1  0  0  0  0
M  END
>  <MODEL>
4

>  <REMARK>
 VINA RESULT:      -7.8      2.903      4.149
  Name = 
  6 active torsions:
  status: ('A' for Active; 'I' for Inactive)
    1  A    between atoms: C_3  and  C_25
    2  A    between atoms: C_7  and  C_11
    3  A    between atoms: C_8  and  C_17
    4  A    between atoms: C_8  and  N_18
    5  A    between atoms: C_10  and  C_17
    6  A    between atoms: C_25  and  C_27
                            x       y       z     vdW  Elec       q    Type
                         _______ _______ _______ _____ _____    ______ ____

>  <TORSDO>
F 6

$$$$
=
 OpenBabel11052420163D

 34 38  0  0  1  0  0  0  0  0999 V2000
  194.0720  175.4850  145.7940 C   0  0  1  0  0  3  0  0  0  0  0  0
  196.6640  172.6810  144.8280 C   0  0  0  0  0  2  0  0  0  0  0  0
  194.1770  172.7610  144.7440 C   0  0  0  0  0  2  0  0  0  0  0  0
  194.0740  176.8530  145.5060 O   0  0  0  0  0  1  0  0  0  0  0  0
  191.5520  175.2370  145.1050 C   0  0  2  0  0  3  0  0  0  0  0  0
  190.7920  174.0140  144.6220 C   0  0  0  0  0  2  0  0  0  0  0  0
  192.9820  173.3540  145.3240 N   0  0  1  0  0  0  0  0  0  0  0  0
  192.9920  174.7650  144.9900 C   0  0  2  0  0  3  0  0  0  0  0  0
  191.7980  172.8640  144.6380 C   0  0  0  0  0  2  0  0  0  0  0  0
  197.8440  173.6520  144.7960 C   0  0  0  0  0  2  0  0  0  0  0  0
  197.5080  174.9260  144.0000 C   0  0  2  0  0  3  0  0  0  0  0  0
  195.4160  173.3040  145.4700 C   0  0  2  0  0  3  0  0  0  0  0  0
  196.0520  175.3820  144.1650 C   0  0  0  0  0  2  0  0  0  0  0  0
  195.4470  174.8600  145.4730 C   0  0  1  0  0  3  0  0  0  0  0  0
  191.1420  175.5100  146.5500 C   0  0  0  0  0  2  0  0  0  0  0  0
  190.9250  176.9980  146.7940 C   0  0  0  0  0  2  0  0  0  0  0  0
  190.3180  178.1120  144.2180 O   0  0  0  0  0  0  0  0  0  0  0  0
  187.2810  176.5980  146.6480 C   0  0  0  0  0  2  0  0  0  0  0  0
  186.3450  177.9700  142.5930 C   0  0  2  0  0  3  0  0  0  0  0  0
  187.8160  177.9040  143.0030 C   0  0  0  0  0  2  0  0  0  0  0  0
  187.9360  177.9160  144.5280 C   0  0  1  0  0  3  0  0  0  0  0  0
  189.6040  177.4120  146.3380 N   0  0  0  0  0  0  0  0  0  0  0  0
  185.6910  176.7910  144.7100 C   0  0  0  0  0  2  0  0  0  0  0  0
  187.1590  176.7280  145.1190 C   0  0  2  0  0  3  0  0  0  0  0  0
  185.5690  176.7940  143.1880 C   0  0  0  0  0  2  0  0  0  0  0  0
  188.4770  177.3400  147.2630 C   0  0  0  0  0  2  0  0  0  0  0  0
  189.3600  177.8230  144.9870 C   0  0  0  0  0  0  0  0  0  0  0  0
  186.2240  177.9670  141.1070 C   0  0  0  0  0  0  0  0  0  0  0  0
  185.0890  178.0700  140.5750 O   0  0  0  0  0  1  0  0  0  0  0  0
  187.3540  177.8510  140.3070 O   0  0  0  0  0  0  0  0  0  0  0  0
  197.8070  174.7420  142.5200 C   0  0  0  0  0  2  0  0  0  0  0  0
  196.5380  174.8250  141.6870 C   0  0  1  0  0  3  0  0  0  0  0  0
  196.6090  175.9110  140.8140 O   0  0  0  0  0  1  0  0  0  0  0  0
  196.3840  173.5510  140.8830 C   0  0  0  0  0  1  0  0  0  0  0  0
  1  4  1  6  0  0  0
  2 12  1  0  0  0  0
  3  7  1  0  0  0  0
  3 12  1  0  0  0  0
  5 15  1  1  0  0  0
  6  9  1  0  0  0  0
  6  5  1  0  0  0  0
  7  9  1  6  0  0  0
  8  5  1  0  0  0  0
  8  7  1  0  0  0  0
  8  1  1  0  0  0  0
 10  2  1  0  0  0  0
 11 13  1  0  0  0  0
 11 10  1  0  0  0  0
 12 14  1  0  0  0  0
 13 14  1  0  0  0  0
 14  1  1  0  0  0  0
 15 16  1  0  0  0  0
 17 27  2  0  0  0  0
 18 26  1  0  0  0  0
 19 20  1  0  0  0  0
 19 25  1  0  0  0  0
 20 21  1  0  0  0  0
 21 27  1  0  0  0  0
 21 24  1  0  0  0  0
 22 16  1  0  0  0  0
 22 26  1  0  0  0  0
 23 24  1  0  0  0  0
 24 18  1  0  0  0  0
 25 23  1  0  0  0  0
 27 22  1  0  0  0  0
 28 19  1  0  0  0  0
 29 28  1  0  0  0  0
 30 28  2  0  0  0  0
 31 11  1  0  0  0  0
 32 31  1  0  0  0  0
 33 32  1  0  0  0  0
 34 32  1  0  0  0  0
M  END
>  <MODEL>
5

>  <REMARK>
 VINA RESULT:      -7.7      2.695      3.873
  Name = 
  6 active torsions:
  status: ('A' for Active; 'I' for Inactive)
    1  A    between atoms: C_3  and  C_25
    2  A    between atoms: C_7  and  C_11
    3  A    between atoms: C_8  and  C_17
    4  A    between atoms: C_8  and  N_18
    5  A    between atoms: C_10  and  C_17
    6  A    between atoms: C_25  and  C_27
                            x       y       z     vdW  Elec       q    Type
                         _______ _______ _______ _____ _____    ______ ____

>  <TORSDO>
F 6

$$$$
=
 OpenBabel11052420163D

 34 38  0  0  1  0  0  0  0  0999 V2000
  191.3990  174.5760  144.5060 C   0  0  1  0  0  3  0  0  0  0  0  0
  194.9500  176.0430  143.6380 C   0  0  0  0  0  2  0  0  0  0  0  0
  193.4260  176.3870  145.5770 C   0  0  0  0  0  2  0  0  0  0  0  0
  190.9210  173.2650  144.4300 O   0  0  0  0  0  1  0  0  0  0  0  0
  190.3880  174.9160  146.9040 C   0  0  2  0  0  3  0  0  0  0  0  0
  190.8060  175.8700  148.0090 C   0  0  0  0  0  2  0  0  0  0  0  0
  192.0410  176.3750  146.0230 N   0  0  1  0  0  0  0  0  0  0  0  0
  191.5770  175.0030  145.9610 C   0  0  2  0  0  3  0  0  0  0  0  0
  191.9720  176.6810  147.4420 C   0  0  0  0  0  2  0  0  0  0  0  0
  195.2330  174.9800  142.5770 C   0  0  0  0  0  2  0  0  0  0  0  0
  194.9070  173.5660  143.0900 C   0  0  2  0  0  3  0  0  0  0  0  0
  193.4800  176.0450  144.0810 C   0  0  2  0  0  3  0  0  0  0  0  0
  193.6850  173.5200  144.0170 C   0  0  0  0  0  2  0  0  0  0  0  0
  192.7490  174.7070  143.7690 C   0  0  1  0  0  3  0  0  0  0  0  0
  189.1050  175.4540  146.2750 C   0  0  0  0  0  2  0  0  0  0  0  0
  188.3900  176.4190  147.2120 C   0  0  0  0  0  2  0  0  0  0  0  0
  188.6000  176.9490  144.3980 O   0  0  0  0  0  0  0  0  0  0  0  0
  185.2040  178.1050  146.5300 C   0  0  0  0  0  2  0  0  0  0  0  0
  185.3280  178.6290  142.1820 C   0  0  2  0  0  3  0  0  0  0  0  0
  186.4740  177.8630  142.8410 C   0  0  0  0  0  2  0  0  0  0  0  0
  186.5480  178.2100  144.3300 C   0  0  1  0  0  3  0  0  0  0  0  0
  187.5710  177.3620  146.4620 N   0  0  0  0  0  0  0  0  0  0  0  0
  184.0660  178.6320  144.3510 C   0  0  0  0  0  2  0  0  0  0  0  0
  185.2110  177.8690  145.0090 C   0  0  2  0  0  3  0  0  0  0  0  0
  183.9990  178.2980  142.8630 C   0  0  0  0  0  2  0  0  0  0  0  0
  186.5960  178.1810  147.1760 C   0  0  0  0  0  2  0  0  0  0  0  0
  187.6390  177.4620  145.0340 C   0  0  0  0  0  0  0  0  0  0  0  0
  185.2570  178.3000  140.7290 C   0  0  0  0  0  0  0  0  0  0  0  0
  184.1560  178.3760  140.1260 O   0  0  0  0  0  1  0  0  0  0  0  0
  186.3980  177.9100  140.0370 O   0  0  0  0  0  0  0  0  0  0  0  0
  196.1000  172.9560  143.8090 C   0  0  0  0  0  2  0  0  0  0  0  0
  195.8470  172.8490  145.3040 C   0  0  1  0  0  3  0  0  0  0  0  0
  196.0790  171.5430  145.7370 O   0  0  0  0  0  1  0  0  0  0  0  0
  196.7820  173.7890  146.0380 C   0  0  0  0  0  1  0  0  0  0  0  0
  1  4  1  1  0  0  0
  1  8  1  0  0  0  0
  2 12  1  0  0  0  0
  5 15  1  6  0  0  0
  5  6  1  0  0  0  0
  7  3  1  1  0  0  0
  7  9  1  0  0  0  0
  8  7  1  0  0  0  0
  8  5  1  0  0  0  0
  9  6  1  0  0  0  0
 10 11  1  0  0  0  0
 10  2  1  0  0  0  0
 11 31  1  0  0  0  0
 11 13  1  0  0  0  0
 12  3  1  0  0  0  0
 14 13  1  0  0  0  0
 14 12  1  0  0  0  0
 14  1  1  0  0  0  0
 15 16  1  0  0  0  0
 17 27  2  0  0  0  0
 18 26  1  0  0  0  0
 19 20  1  0  0  0  0
 19 25  1  0  0  0  0
 20 21  1  0  0  0  0
 21 24  1  0  0  0  0
 21 27  1  0  0  0  0
 22 26  1  0  0  0  0
 22 16  1  0  0  0  0
 23 24  1  0  0  0  0
 24 18  1  0  0  0  0
 25 23  1  0  0  0  0
 27 22  1  0  0  0  0
 28 19  1  0  0  0  0
 29 28  1  0  0  0  0
 30 28  2  0  0  0  0
 31 32  1  0  0  0  0
 32 33  1  0  0  0  0
 32 34  1  0  0  0  0
M  END
>  <MODEL>
6

>  <REMARK>
 VINA RESULT:      -7.7      2.047      2.894
  Name = 
  6 active torsions:
  status: ('A' for Active; 'I' for Inactive)
    1  A    between atoms: C_3  and  C_25
    2  A    between atoms: C_7  and  C_11
    3  A    between atoms: C_8  and  C_17
    4  A    between atoms: C_8  and  N_18
    5  A    between atoms: C_10  and  C_17
    6  A    between atoms: C_25  and  C_27
                            x       y       z     vdW  Elec       q    Type
                         _______ _______ _______ _____ _____    ______ ____

>  <TORSDO>
F 6

$$$$
=
 OpenBabel11052420163D

 34 38  0  0  1  0  0  0  0  0999 V2000
  190.9420  177.2580  143.5460 C   0  0  1  0  0  3  0  0  0  0  0  0
  187.4010  175.6710  142.8710 C   0  0  0  0  0  2  0  0  0  0  0  0
  189.4570  174.7760  143.9530 C   0  0  0  0  0  2  0  0  0  0  0  0
  191.2850  178.5150  144.0540 O   0  0  0  0  0  1  0  0  0  0  0  0
  192.6480  176.0390  145.1250 C   0  0  2  0  0  3  0  0  0  0  0  0
  192.6460  174.6110  145.6390 C   0  0  0  0  0  2  0  0  0  0  0  0
  190.9080  174.8650  144.0160 N   0  0  1  0  0  0  0  0  0  0  0  0
  191.2390  176.1630  144.5690 C   0  0  2  0  0  3  0  0  0  0  0  0
  191.4220  173.9430  145.0150 C   0  0  0  0  0  2  0  0  0  0  0  0
  186.7410  177.0240  142.6070 C   0  0  0  0  0  2  0  0  0  0  0  0
  187.1100  178.0560  143.6880 C   0  0  2  0  0  3  0  0  0  0  0  0
  188.9330  175.7680  142.9050 C   0  0  2  0  0  3  0  0  0  0  0  0
  188.5490  177.9110  144.2030 C   0  0  0  0  0  2  0  0  0  0  0  0
  189.4440  177.2130  143.1730 C   0  0  1  0  0  3  0  0  0  0  0  0
  193.7150  176.1510  144.0390 C   0  0  0  0  0  2  0  0  0  0  0  0
  195.0820  176.4650  144.6340 C   0  0  0  0  0  2  0  0  0  0  0  0
  195.9200  174.4160  146.4630 O   0  0  0  0  0  0  0  0  0  0  0  0
  196.5860  174.0080  142.3630 C   0  0  0  0  0  2  0  0  0  0  0  0
  197.5730  170.7060  145.0690 C   0  0  2  0  0  3  0  0  0  0  0  0
  196.8310  171.9080  145.6510 C   0  0  0  0  0  2  0  0  0  0  0  0
  197.0230  173.1300  144.7500 C   0  0  1  0  0  3  0  0  0  0  0  0
  196.0350  175.4030  144.3400 N   0  0  0  0  0  0  0  0  0  0  0  0
  197.2530  171.6150  142.7520 C   0  0  0  0  0  2  0  0  0  0  0  0
  196.5130  172.8160  143.3340 C   0  0  2  0  0  3  0  0  0  0  0  0
  197.0740  170.3990  143.6570 C   0  0  0  0  0  2  0  0  0  0  0  0
  196.6980  175.3830  143.0400 C   0  0  0  0  0  2  0  0  0  0  0  0
  196.2900  174.3330  145.2590 C   0  0  0  0  0  0  0  0  0  0  0  0
  197.3950  169.5150  145.9480 C   0  0  0  0  0  0  0  0  0  0  0  0
  197.7760  168.3850  145.5500 O   0  0  0  0  0  0  0  0  0  0  0  0
  196.8120  169.6450  147.2030 O   0  0  0  0  0  1  0  0  0  0  0  0
  186.1510  177.9820  144.8660 C   0  0  0  0  0  2  0  0  0  0  0  0
  185.4430  179.3100  145.0840 C   0  0  1  0  0  3  0  0  0  0  0  0
  185.5380  180.0970  143.9360 O   0  0  0  0  0  1  0  0  0  0  0  0
  183.9820  179.0520  145.3890 C   0  0  0  0  0  1  0  0  0  0  0  0
  1  4  1  1  0  0  0
  1  8  1  0  0  0  0
  2 12  1  0  0  0  0
  5 15  1  6  0  0  0
  5  6  1  0  0  0  0
  7  3  1  1  0  0  0
  7  8  1  0  0  0  0
  7  9  1  0  0  0  0
  8  5  1  0  0  0  0
  9  6  1  0  0  0  0
 10  2  1  0  0  0  0
 10 11  1  0  0  0  0
 11 13  1  0  0  0  0
 11 31  1  0  0  0  0
 12 14  1  0  0  0  0
 12  3  1  0  0  0  0
 14  1  1  0  0  0  0
 14 13  1  0  0  0  0
 15 16  1  0  0  0  0
 18 26  1  0  0  0  0
 18 24  1  0  0  0  0
 19 20  1  0  0  0  0
 19 28  1  0  0  0  0
 21 27  1  0  0  0  0
 21 20  1  0  0  0  0
 22 16  1  0  0  0  0
 22 27  1  0  0  0  0
 23 24  1  0  0  0  0
 23 25  1  0  0  0  0
 24 21  1  0  0  0  0
 25 19  1  0  0  0  0
 26 22  1  0  0  0  0
 27 17  2  0  0  0  0
 28 30  1  0  0  0  0
 29 28  2  0  0  0  0
 31 32  1  0  0  0  0
 32 34  1  0  0  0  0
 33 32  1  0  0  0  0
M  END
>  <MODEL>
7

>  <REMARK>
 VINA RESULT:      -7.5      2.149     10.899
  Name = 
  6 active torsions:
  status: ('A' for Active; 'I' for Inactive)
    1  A    between atoms: C_3  and  C_25
    2  A    between atoms: C_7  and  C_11
    3  A    between atoms: C_8  and  C_17
    4  A    between atoms: C_8  and  N_18
    5  A    between atoms: C_10  and  C_17
    6  A    between atoms: C_25  and  C_27
                            x       y       z     vdW  Elec       q    Type
                         _______ _______ _______ _____ _____    ______ ____

>  <TORSDO>
F 6

$$$$
=
 OpenBabel11052420163D

 34 38  0  0  1  0  0  0  0  0999 V2000
  193.6870  174.3860  142.5780 C   0  0  1  0  0  3  0  0  0  0  0  0
  197.5160  175.0600  143.2050 C   0  0  0  0  0  2  0  0  0  0  0  0
  195.4600  176.1690  144.0650 C   0  0  0  0  0  2  0  0  0  0  0  0
  192.9720  173.1850  142.5680 O   0  0  0  0  0  1  0  0  0  0  0  0
  191.8840  175.5680  144.0740 C   0  0  2  0  0  3  0  0  0  0  0  0
  192.0240  176.7540  145.0120 C   0  0  0  0  0  2  0  0  0  0  0  0
  194.0620  176.4680  143.7930 N   0  0  1  0  0  0  0  0  0  0  0  0
  193.3380  175.2130  143.8140 C   0  0  2  0  0  3  0  0  0  0  0  0
  193.4820  177.2000  144.9060 C   0  0  0  0  0  2  0  0  0  0  0  0
  197.9410  173.6970  142.6610 C   0  0  0  0  0  2  0  0  0  0  0  0
  197.0860  172.5600  143.2480 C   0  0  2  0  0  3  0  0  0  0  0  0
  196.0490  175.3820  142.8860 C   0  0  2  0  0  3  0  0  0  0  0  0
  195.6180  172.9530  143.4700 C   0  0  0  0  0  2  0  0  0  0  0  0
  195.2070  174.1150  142.5600 C   0  0  1  0  0  3  0  0  0  0  0  0
  191.1650  176.0430  142.8130 C   0  0  0  0  0  2  0  0  0  0  0  0
  190.0640  175.0730  142.4040 C   0  0  0  0  0  2  0  0  0  0  0  0
  188.5670  175.2780  144.8460 O   0  0  0  0  0  0  0  0  0  0  0  0
  187.5820  177.6350  141.5450 C   0  0  0  0  0  2  0  0  0  0  0  0
  185.4900  178.2320  145.3480 C   0  0  2  0  0  3  0  0  0  0  0  0
  186.6820  177.2770  145.3320 C   0  0  0  0  0  2  0  0  0  0  0  0
  186.9520  176.7990  143.9040 C   0  0  1  0  0  3  0  0  0  0  0  0
  188.7500  175.6870  142.5460 N   0  0  0  0  0  0  0  0  0  0  0  0
  186.0300  178.9640  143.0090 C   0  0  0  0  0  2  0  0  0  0  0  0
  187.2190  178.0090  142.9930 C   0  0  2  0  0  3  0  0  0  0  0  0
  185.7500  179.4310  144.4350 C   0  0  0  0  0  2  0  0  0  0  0  0
  188.0680  176.1890  141.3560 C   0  0  0  0  0  2  0  0  0  0  0  0
  188.1340  175.8800  143.8250 C   0  0  0  0  0  0  0  0  0  0  0  0
  185.2190  178.6940  146.7400 C   0  0  0  0  0  0  0  0  0  0  0  0
  186.0720  179.3970  147.3400 O   0  0  0  0  0  0  0  0  0  0  0  0
  184.0320  178.3540  147.3780 O   0  0  0  0  0  1  0  0  0  0  0  0
  197.6690  172.0550  144.5590 C   0  0  0  0  0  2  0  0  0  0  0  0
  196.6460  172.1250  145.6810 C   0  0  1  0  0  3  0  0  0  0  0  0
  196.7740  171.0130  146.5140 O   0  0  0  0  0  1  0  0  0  0  0  0
  196.8790  173.3830  146.4920 C   0  0  0  0  0  1  0  0  0  0  0  0
  1  4  1  1  0  0  0
  1  8  1  0  0  0  0
  5 15  1  6  0  0  0
  5  6  1  0  0  0  0
  7  8  1  0  0  0  0
  7  3  1  1  0  0  0
  7  9  1  0  0  0  0
  8  5  1  0  0  0  0
  9  6  1  0  0  0  0
 10  2  1  0  0  0  0
 10 11  1  0  0  0  0
 11 13  1  0  0  0  0
 11 31  1  0  0  0  0
 12  2  1  0  0  0  0
 12  3  1  0  0  0  0
 14  1  1  0  0  0  0
 14 12  1  0  0  0  0
 14 13  1  0  0  0  0
 16 22  1  0  0  0  0
 16 15  1  0  0  0  0
 18 24  1  0  0  0  0
 19 28  1  0  0  0  0
 20 19  1  0  0  0  0
 21 20  1  0  0  0  0
 22 27  1  0  0  0  0
 23 25  1  0  0  0  0
 24 23  1  0  0  0  0
 24 21  1  0  0  0  0
 25 19  1  0  0  0  0
 26 18  1  0  0  0  0
 26 22  1  0  0  0  0
 27 21  1  0  0  0  0
 27 17  2  0  0  0  0
 28 29  2  0  0  0  0
 28 30  1  0  0  0  0
 31 32  1  0  0  0  0
 32 34  1  0  0  0  0
 32 33  1  0  0  0  0
M  END
>  <MODEL>
8

>  <REMARK>
 VINA RESULT:      -7.5      2.539      3.281
  Name = 
  6 active torsions:
  status: ('A' for Active; 'I' for Inactive)
    1  A    between atoms: C_3  and  C_25
    2  A    between atoms: C_7  and  C_11
    3  A    between atoms: C_8  and  C_17
    4  A    between atoms: C_8  and  N_18
    5  A    between atoms: C_10  and  C_17
    6  A    between atoms: C_25  and  C_27
                            x       y       z     vdW  Elec       q    Type
                         _______ _______ _______ _____ _____    ______ ____

>  <TORSDO>
F 6

$$$$
=
 OpenBabel11052420163D

 34 38  0  0  1  0  0  0  0  0999 V2000
  190.0590  173.5670  144.6610 C   0  0  1  0  0  3  0  0  0  0  0  0
  193.3530  173.7600  142.5100 C   0  0  0  0  0  2  0  0  0  0  0  0
  192.6490  174.9160  144.6000 C   0  0  0  0  0  2  0  0  0  0  0  0
  189.3250  172.4580  145.0910 O   0  0  0  0  0  1  0  0  0  0  0  0
  189.9780  174.6720  147.0410 C   0  0  2  0  0  3  0  0  0  0  0  0
  190.9200  175.6790  147.6770 C   0  0  0  0  0  2  0  0  0  0  0  0
  191.5140  175.3880  145.3790 N   0  0  1  0  0  0  0  0  0  0  0  0
  190.7860  174.2210  145.8340 C   0  0  2  0  0  3  0  0  0  0  0  0
  191.9760  175.9910  146.6180 C   0  0  0  0  0  2  0  0  0  0  0  0
  193.0500  172.4630  141.7610 C   0  0  0  0  0  2  0  0  0  0  0  0
  192.6280  171.3370  142.7220 C   0  0  2  0  0  3  0  0  0  0  0  0
  192.1410  174.2680  143.3040 C   0  0  2  0  0  3  0  0  0  0  0  0
  191.7930  171.8320  143.9110 C   0  0  0  0  0  2  0  0  0  0  0  0
  191.0910  173.1560  143.5900 C   0  0  1  0  0  3  0  0  0  0  0  0
  188.6980  175.4050  146.6450 C   0  0  0  0  0  2  0  0  0  0  0  0
  188.6390  176.7930  147.2690 C   0  0  0  0  0  2  0  0  0  0  0  0
  188.7330  177.2580  144.4370 O   0  0  0  0  0  0  0  0  0  0  0  0
  185.3340  178.2560  146.6420 C   0  0  0  0  0  2  0  0  0  0  0  0
  185.2970  178.6660  142.2800 C   0  0  2  0  0  3  0  0  0  0  0  0
  186.5080  177.9930  142.9230 C   0  0  0  0  0  2  0  0  0  0  0  0
  186.6040  178.3850  144.4000 C   0  0  1  0  0  3  0  0  0  0  0  0
  187.7400  177.6620  146.5200 N   0  0  0  0  0  0  0  0  0  0  0  0
  184.1010  178.6500  144.4870 C   0  0  0  0  0  2  0  0  0  0  0  0
  185.3120  177.9790  145.1280 C   0  0  2  0  0  3  0  0  0  0  0  0
  184.0130  178.2720  143.0100 C   0  0  0  0  0  2  0  0  0  0  0  0
  186.7360  178.4380  147.2430 C   0  0  0  0  0  2  0  0  0  0  0  0
  187.7600  177.7270  145.0890 C   0  0  0  0  0  0  0  0  0  0  0  0
  185.2050  178.2940  140.8400 C   0  0  0  0  0  0  0  0  0  0  0  0
  186.2090  177.8100  140.2560 O   0  0  0  0  0  1  0  0  0  0  0  0
  184.0200  178.4750  140.1380 O   0  0  0  0  0  0  0  0  0  0  0  0
  193.8390  170.5810  143.2450 C   0  0  0  0  0  2  0  0  0  0  0  0
  194.0220  170.7980  144.7390 C   0  0  1  0  0  3  0  0  0  0  0  0
  194.1980  169.5730  145.3830 O   0  0  0  0  0  1  0  0  0  0  0  0
  195.2440  171.6620  144.9720 C   0  0  0  0  0  1  0  0  0  0  0  0
  1  4  1  1  0  0  0
  1  8  1  0  0  0  0
  2 12  1  0  0  0  0
  5 15  1  6  0  0  0
  5  6  1  0  0  0  0
  7  3  1  6  0  0  0
  7  8  1  0  0  0  0
  7  9  1  0  0  0  0
  8  5  1  0  0  0  0
  9  6  1  0  0  0  0
 10  2  1  0  0  0  0
 10 11  1  0  0  0  0
 11 31  1  0  0  0  0
 11 13  1  0  0  0  0
 12 14  1  0  0  0  0
 12  3  1  0  0  0  0
 14 13  1  0  0  0  0
 14  1  1  0  0  0  0
 15 16  1  0  0  0  0
 17 27  2  0  0  0  0
 18 26  1  0  0  0  0
 19 20  1  0  0  0  0
 19 25  1  0  0  0  0
 20 21  1  0  0  0  0
 21 27  1  0  0  0  0
 21 24  1  0  0  0  0
 22 26  1  0  0  0  0
 22 16  1  0  0  0  0
 23 24  1  0  0  0  0
 24 18  1  0  0  0  0
 25 23  1  0  0  0  0
 27 22  1  0  0  0  0
 28 19  1  0  0  0  0
 29 28  1  0  0  0  0
 30 28  2  0  0  0  0
 31 32  1  0  0  0  0
 32 34  1  0  0  0  0
 32 33  1  0  0  0  0
M  END
>  <MODEL>
9

>  <REMARK>
 VINA RESULT:      -7.5      2.067      3.008
  Name = 
  6 active torsions:
  status: ('A' for Active; 'I' for Inactive)
    1  A    between atoms: C_3  and  C_25
    2  A    between atoms: C_7  and  C_11
    3  A    between atoms: C_8  and  C_17
    4  A    between atoms: C_8  and  N_18
    5  A    between atoms: C_10  and  C_17
    6  A    between atoms: C_25  and  C_27
                            x       y       z     vdW  Elec       q    Type
                         _______ _______ _______ _____ _____    ______ ____

>  <TORSDO>
F 6

$$$$
