=
 OpenBabel11052418413D

 34 38  0  0  1  0  0  0  0  0999 V2000
  185.6450  177.7410  142.9130 C   0  0  0  0  0  0  0  0  0  0  0  0
  185.5570  178.1890  145.4090 C   0  0  0  0  0  0  0  0  0  0  0  0
  187.1620  176.5750  144.4270 C   0  0  0  0  0  0  0  0  0  0  0  0
  189.6280  175.5110  147.2280 C   0  0  0  0  0  1  0  0  0  0  0  0
  184.5470  178.9370  145.3150 O   0  0  0  0  0  0  0  0  0  0  0  0
  187.1670  177.2090  146.8860 C   0  0  0  0  0  3  0  0  0  0  0  0
  186.1070  177.4890  144.2240 C   0  0  0  0  0  0  0  0  0  0  0  0
  189.1610  175.9470  145.8390 C   0  0  1  0  0  0  0  0  0  0  0  0
  187.7470  175.8980  143.3380 C   0  0  0  0  0  0  0  0  0  0  0  0
  186.2480  177.0800  141.8350 C   0  0  0  0  0  3  0  0  0  0  0  0
  186.1990  178.0480  146.6790 N   0  0  0  0  0  0  0  0  0  0  0  0
  189.3550  174.7410  144.9230 C   0  0  0  0  0  2  0  0  0  0  0  0
  188.8560  174.9850  143.5620 N   0  0  0  0  0  0  0  0  0  0  0  0
  187.6450  176.2530  145.8200 C   0  0  2  0  0  3  0  0  0  0  0  0
  187.2880  176.1780  142.0440 C   0  0  0  0  0  3  0  0  0  0  0  0
  191.2330  173.7810  140.8750 C   0  0  0  0  0  0  0  0  0  0  0  0
  190.5560  172.5500  140.3540 C   0  0  0  0  0  2  0  0  0  0  0  0
  189.4510  174.1980  142.5110 C   0  0  0  0  0  0  0  0  0  0  0  0
  189.0480  172.6490  140.5670 C   0  0  0  0  0  2  0  0  0  0  0  0
  190.6240  174.5570  141.9660 C   0  0  0  0  0  3  0  0  0  0  0  0
  188.7420  172.9520  142.0340 C   0  0  0  0  0  2  0  0  0  0  0  0
  192.3440  174.1320  140.4020 O   0  0  0  0  0  0  0  0  0  0  0  0
  183.3860  178.2920  142.0500 C   0  0  0  0  0  1  0  0  0  0  0  0
  184.6030  178.6500  142.6930 O   0  0  0  0  0  0  0  0  0  0  0  0
  189.9550  177.0030  145.3170 O   0  0  0  0  0  0  0  0  0  0  0  0
  191.3140  176.7940  145.6080 C   0  0  0  0  0  2  0  0  0  0  0  0
  192.1470  177.1460  144.3920 C   0  0  0  0  0  2  0  0  0  0  0  0
  193.8770  176.2960  142.2370 O   0  0  0  0  0  1  0  0  0  0  0  0
  193.5860  176.7010  144.5970 C   0  0  2  0  0  3  0  0  0  0  0  0
  194.0270  175.7230  143.5010 C   0  0  2  0  0  3  0  0  0  0  0  0
  195.8060  174.9770  145.1290 C   0  0  0  0  0  3  0  0  0  0  0  0
  195.0100  175.3160  146.1540 C   0  0  0  0  0  3  0  0  0  0  0  0
  193.6860  176.0080  145.9540 C   0  0  0  0  0  2  0  0  0  0  0  0
  195.4950  175.3550  143.7030 C   0  0  0  0  0  2  0  0  0  0  0  0
  1  7  1  0  0  0  0
  2 11  1  0  0  0  0
  3 14  1  0  0  0  0
  5  2  2  0  0  0  0
  7  3  2  0  0  0  0
  7  2  1  0  0  0  0
  8  4  1  1  0  0  0
  9 13  1  0  0  0  0
  9  3  1  0  0  0  0
 10 15  1  0  0  0  0
 10  1  2  0  0  0  0
 11  6  2  0  0  0  0
 12  8  1  0  0  0  0
 13 12  1  0  0  0  0
 14  8  1  0  0  0  0
 14  6  1  1  0  0  0
 15  9  2  0  0  0  0
 16 20  1  0  0  0  0
 17 19  1  0  0  0  0
 17 16  1  0  0  0  0
 18 13  1  0  0  0  0
 19 21  1  0  0  0  0
 20 18  2  0  0  0  0
 21 18  1  0  0  0  0
 22 16  2  0  0  0  0
 23 24  1  0  0  0  0
 24  1  1  0  0  0  0
 25 26  1  0  0  0  0
 25  8  1  0  0  0  0
 27 26  1  0  0  0  0
 29 27  1  6  0  0  0
 29 33  1  0  0  0  0
 30 28  1  6  0  0  0
 30 34  1  0  0  0  0
 30 29  1  0  0  0  0
 31 32  2  0  0  0  0
 33 32  1  0  0  0  0
 34 31  1  0  0  0  0
M  END
>  <MODEL>
1

>  <REMARK>
 VINA RESULT:      -7.8      0.000      0.000
  Name = 
  6 active torsions:
  status: ('A' for Active; 'I' for Inactive)
    1  A    between atoms: C_1  and  O_19
    2  A    between atoms: C_3  and  C_13
    3  A    between atoms: C_3  and  C_17
    4  A    between atoms: C_12  and  N_28
    5  A    between atoms: C_17  and  O_29
    6  A    between atoms: C_18  and  O_29
                            x       y       z     vdW  Elec       q    Type
                         _______ _______ _______ _____ _____    ______ ____

>  <TORSDO>
F 6

$$$$
=
 OpenBabel11052418413D

 34 38  0  0  1  0  0  0  0  0999 V2000
  189.7220  172.7200  141.5810 C   0  0  0  0  0  0  0  0  0  0  0  0
  191.9700  173.3110  142.5970 C   0  0  0  0  0  0  0  0  0  0  0  0
  190.1890  175.0070  142.2860 C   0  0  0  0  0  0  0  0  0  0  0  0
  191.3180  178.2490  144.0980 C   0  0  0  0  0  1  0  0  0  0  0  0
  192.4500  172.1640  142.3910 O   0  0  0  0  0  0  0  0  0  0  0  0
  192.3770  175.5000  143.4790 C   0  0  0  0  0  3  0  0  0  0  0  0
  190.6100  173.6710  142.1280 C   0  0  0  0  0  0  0  0  0  0  0  0
  190.3800  177.1290  143.6460 C   0  0  1  0  0  0  0  0  0  0  0  0
  188.8970  175.4070  141.8870 C   0  0  0  0  0  0  0  0  0  0  0  0
  188.4320  173.1210  141.2070 C   0  0  0  0  0  3  0  0  0  0  0  0
  192.7460  174.2660  143.3280 N   0  0  0  0  0  0  0  0  0  0  0  0
  189.3830  177.7670  142.6810 C   0  0  0  0  0  2  0  0  0  0  0  0
  188.4690  176.7810  142.0880 N   0  0  0  0  0  0  0  0  0  0  0  0
  191.1330  176.0540  142.8270 C   0  0  2  0  0  3  0  0  0  0  0  0
  188.0250  174.4430  141.3660 C   0  0  0  0  0  3  0  0  0  0  0  0
  184.8560  177.9090  142.0370 C   0  0  0  0  0  0  0  0  0  0  0  0
  184.6370  178.2710  140.5990 C   0  0  0  0  0  2  0  0  0  0  0  0
  187.1950  177.2810  141.6340 C   0  0  0  0  0  0  0  0  0  0  0  0
  185.5850  177.4750  139.7070 C   0  0  0  0  0  2  0  0  0  0  0  0
  186.1700  177.4250  142.4880 C   0  0  0  0  0  3  0  0  0  0  0  0
  187.0290  177.6540  140.1790 C   0  0  0  0  0  2  0  0  0  0  0  0
  183.9240  178.0550  142.8680 O   0  0  0  0  0  0  0  0  0  0  0  0
  190.4590  170.8230  140.1620 C   0  0  0  0  0  1  0  0  0  0  0  0
  190.1220  171.3860  141.4230 O   0  0  0  0  0  0  0  0  0  0  0  0
  189.6330  176.5910  144.7280 O   0  0  0  0  0  0  0  0  0  0  0  0
  189.5950  177.4930  145.8040 C   0  0  0  0  0  2  0  0  0  0  0  0
  188.5740  177.0220  146.8190 C   0  0  0  0  0  2  0  0  0  0  0  0
  187.6160  179.2270  148.4230 O   0  0  0  0  0  1  0  0  0  0  0  0
  187.2420  177.7150  146.5820 C   0  0  2  0  0  3  0  0  0  0  0  0
  186.6970  178.3290  147.8780 C   0  0  2  0  0  3  0  0  0  0  0  0
  184.4390  178.2580  146.7540 C   0  0  0  0  0  3  0  0  0  0  0  0
  184.8340  177.2030  146.0260 C   0  0  0  0  0  3  0  0  0  0  0  0
  186.2460  176.6790  146.0640 C   0  0  0  0  0  2  0  0  0  0  0  0
  185.3960  179.0730  147.5840 C   0  0  0  0  0  2  0  0  0  0  0  0
  1  7  1  0  0  0  0
  2 11  1  0  0  0  0
  3 14  1  0  0  0  0
  5  2  2  0  0  0  0
  7  3  2  0  0  0  0
  7  2  1  0  0  0  0
  8  4  1  1  0  0  0
  8 25  1  0  0  0  0
  9 13  1  0  0  0  0
  9  3  1  0  0  0  0
 10 15  1  0  0  0  0
 10  1  2  0  0  0  0
 11  6  2  0  0  0  0
 12  8  1  0  0  0  0
 13 12  1  0  0  0  0
 14  6  1  1  0  0  0
 14  8  1  0  0  0  0
 15  9  2  0  0  0  0
 16 20  1  0  0  0  0
 16 22  2  0  0  0  0
 17 16  1  0  0  0  0
 18 13  1  0  0  0  0
 18 20  2  0  0  0  0
 19 21  1  0  0  0  0
 19 17  1  0  0  0  0
 21 18  1  0  0  0  0
 23 24  1  0  0  0  0
 24  1  1  0  0  0  0
 25 26  1  0  0  0  0
 26 27  1  0  0  0  0
 29 27  1  1  0  0  0
 29 30  1  0  0  0  0
 30 28  1  6  0  0  0
 31 34  1  0  0  0  0
 32 33  1  0  0  0  0
 32 31  2  0  0  0  0
 33 29  1  0  0  0  0
 34 30  1  0  0  0  0
M  END
>  <MODEL>
2

>  <REMARK>
 VINA RESULT:      -7.8      2.230      7.046
  Name = 
  6 active torsions:
  status: ('A' for Active; 'I' for Inactive)
    1  A    between atoms: C_1  and  O_19
    2  A    between atoms: C_3  and  C_13
    3  A    between atoms: C_3  and  C_17
    4  A    between atoms: C_12  and  N_28
    5  A    between atoms: C_17  and  O_29
    6  A    between atoms: C_18  and  O_29
                            x       y       z     vdW  Elec       q    Type
                         _______ _______ _______ _____ _____    ______ ____

>  <TORSDO>
F 6

$$$$
=
 OpenBabel11052418413D

 34 38  0  0  1  0  0  0  0  0999 V2000
  186.8250  177.6910  142.4640 C   0  0  0  0  0  0  0  0  0  0  0  0
  186.1430  178.0420  144.8820 C   0  0  0  0  0  0  0  0  0  0  0  0
  187.8540  176.3690  144.2360 C   0  0  0  0  0  0  0  0  0  0  0  0
  189.4860  175.0320  147.4940 C   0  0  0  0  0  1  0  0  0  0  0  0
  185.2290  178.8570  144.5850 O   0  0  0  0  0  0  0  0  0  0  0  0
  187.2810  176.9000  146.6530 C   0  0  0  0  0  3  0  0  0  0  0  0
  186.9330  177.3570  143.8310 C   0  0  0  0  0  0  0  0  0  0  0  0
  189.4030  175.5540  146.0590 C   0  0  1  0  0  0  0  0  0  0  0  0
  188.6550  175.7000  143.2880 C   0  0  0  0  0  0  0  0  0  0  0  0
  187.6420  177.0370  141.5310 C   0  0  0  0  0  3  0  0  0  0  0  0
  186.4400  177.8080  146.2610 N   0  0  0  0  0  0  0  0  0  0  0  0
  189.7540  174.3760  145.1530 C   0  0  0  0  0  2  0  0  0  0  0  0
  189.6230  174.7080  143.7280 N   0  0  0  0  0  0  0  0  0  0  0  0
  187.9570  175.9590  145.6850 C   0  0  2  0  0  3  0  0  0  0  0  0
  188.5480  176.0620  141.9390 C   0  0  0  0  0  3  0  0  0  0  0  0
  190.8390  171.8800  141.5270 C   0  0  0  0  0  0  0  0  0  0  0  0
  192.1290  172.4110  140.9790 C   0  0  0  0  0  2  0  0  0  0  0  0
  190.4190  173.9280  142.8130 C   0  0  0  0  0  0  0  0  0  0  0  0
  192.7290  173.4310  141.9420 C   0  0  0  0  0  2  0  0  0  0  0  0
  190.0260  172.7000  142.4380 C   0  0  0  0  0  3  0  0  0  0  0  0
  191.7000  174.5150  142.2690 C   0  0  0  0  0  2  0  0  0  0  0  0
  190.4310  170.7420  141.1770 O   0  0  0  0  0  0  0  0  0  0  0  0
  184.8720  178.4190  141.1200 C   0  0  0  0  0  1  0  0  0  0  0  0
  185.9200  178.6750  142.0450 O   0  0  0  0  0  0  0  0  0  0  0  0
  190.3570  176.5770  145.8080 O   0  0  0  0  0  0  0  0  0  0  0  0
  191.5840  176.2740  146.4230 C   0  0  0  0  0  2  0  0  0  0  0  0
  192.7050  176.4590  145.4210 C   0  0  0  0  0  2  0  0  0  0  0  0
  195.4270  176.7650  144.4960 O   0  0  0  0  0  1  0  0  0  0  0  0
  193.7920  175.4230  145.6560 C   0  0  2  0  0  3  0  0  0  0  0  0
  194.8680  175.4890  144.5640 C   0  0  2  0  0  3  0  0  0  0  0  0
  195.4340  173.1200  145.2260 C   0  0  0  0  0  3  0  0  0  0  0  0
  194.1670  172.9270  145.6210 C   0  0  0  0  0  3  0  0  0  0  0  0
  193.1490  174.0380  145.6390 C   0  0  0  0  0  2  0  0  0  0  0  0
  195.9740  174.4820  144.8730 C   0  0  0  0  0  2  0  0  0  0  0  0
  1  7  1  0  0  0  0
  2 11  1  0  0  0  0
  3 14  1  0  0  0  0
  5  2  2  0  0  0  0
  7  3  2  0  0  0  0
  7  2  1  0  0  0  0
  8  4  1  1  0  0  0
  9 13  1  0  0  0  0
  9  3  1  0  0  0  0
 10 15  1  0  0  0  0
 10  1  2  0  0  0  0
 11  6  2  0  0  0  0
 12  8  1  0  0  0  0
 13 12  1  0  0  0  0
 14  8  1  0  0  0  0
 14  6  1  1  0  0  0
 15  9  2  0  0  0  0
 16 20  1  0  0  0  0
 17 16  1  0  0  0  0
 17 19  1  0  0  0  0
 18 13  1  0  0  0  0
 19 21  1  0  0  0  0
 20 18  2  0  0  0  0
 21 18  1  0  0  0  0
 22 16  2  0  0  0  0
 23 24  1  0  0  0  0
 24  1  1  0  0  0  0
 25  8  1  0  0  0  0
 25 26  1  0  0  0  0
 27 26  1  0  0  0  0
 29 27  1  6  0  0  0
 30 28  1  1  0  0  0
 30 34  1  0  0  0  0
 30 29  1  0  0  0  0
 31 32  2  0  0  0  0
 32 33  1  0  0  0  0
 33 29  1  0  0  0  0
 34 31  1  0  0  0  0
M  END
>  <MODEL>
3

>  <REMARK>
 VINA RESULT:      -7.6      1.441      1.755
  Name = 
  6 active torsions:
  status: ('A' for Active; 'I' for Inactive)
    1  A    between atoms: C_1  and  O_19
    2  A    between atoms: C_3  and  C_13
    3  A    between atoms: C_3  and  C_17
    4  A    between atoms: C_12  and  N_28
    5  A    between atoms: C_17  and  O_29
    6  A    between atoms: C_18  and  O_29
                            x       y       z     vdW  Elec       q    Type
                         _______ _______ _______ _____ _____    ______ ____

>  <TORSDO>
F 6

$$$$
=
 OpenBabel11052418413D

 34 38  0  0  1  0  0  0  0  0999 V2000
  194.5030  170.3010  144.9450 C   0  0  0  0  0  0  0  0  0  0  0  0
  196.4180  171.7240  145.8070 C   0  0  0  0  0  0  0  0  0  0  0  0
  194.4510  172.7240  144.6760 C   0  0  0  0  0  0  0  0  0  0  0  0
  194.6970  176.5780  145.0680 C   0  0  0  0  0  1  0  0  0  0  0  0
  197.1120  170.7260  146.1350 O   0  0  0  0  0  0  0  0  0  0  0  0
  196.2950  174.1150  145.7330 C   0  0  0  0  0  3  0  0  0  0  0  0
  195.1140  171.5610  145.1210 C   0  0  0  0  0  0  0  0  0  0  0  0
  194.0510  175.1920  145.0450 C   0  0  1  0  0  0  0  0  0  0  0  0
  193.1950  172.6390  144.0410 C   0  0  0  0  0  0  0  0  0  0  0  0
  193.2440  170.2280  144.3330 C   0  0  0  0  0  3  0  0  0  0  0  0
  196.8880  173.0340  146.1380 N   0  0  0  0  0  0  0  0  0  0  0  0
  193.1350  175.1660  143.8240 C   0  0  0  0  0  2  0  0  0  0  0  0
  192.5120  173.8510  143.6190 N   0  0  0  0  0  0  0  0  0  0  0  0
  195.1010  174.0800  144.8100 C   0  0  2  0  0  3  0  0  0  0  0  0
  192.5980  171.3800  143.8960 C   0  0  0  0  0  3  0  0  0  0  0  0
  189.9910  173.7900  140.7970 C   0  0  0  0  0  0  0  0  0  0  0  0
  188.6780  173.8560  141.5180 C   0  0  0  0  0  2  0  0  0  0  0  0
  191.2660  173.8380  142.8950 C   0  0  0  0  0  0  0  0  0  0  0  0
  188.8520  174.5550  142.8630 C   0  0  0  0  0  2  0  0  0  0  0  0
  191.2530  173.7770  141.5540 C   0  0  0  0  0  3  0  0  0  0  0  0
  189.9670  173.8840  143.6660 C   0  0  0  0  0  2  0  0  0  0  0  0
  190.0130  173.7080  139.5430 O   0  0  0  0  0  0  0  0  0  0  0  0
  194.5800  168.2630  146.3570 C   0  0  0  0  0  1  0  0  0  0  0  0
  195.1440  169.1360  145.3870 O   0  0  0  0  0  0  0  0  0  0  0  0
  193.2370  174.9640  146.1870 O   0  0  0  0  0  0  0  0  0  0  0  0
  192.5430  176.1330  146.5440 C   0  0  0  0  0  2  0  0  0  0  0  0
  191.2860  175.7580  147.3020 C   0  0  0  0  0  2  0  0  0  0  0  0
  188.5410  174.9160  147.6380 O   0  0  0  0  0  1  0  0  0  0  0  0
  190.0970  176.5370  146.7620 C   0  0  2  0  0  3  0  0  0  0  0  0
  188.9060  175.6110  146.4850 C   0  0  2  0  0  3  0  0  0  0  0  0
  188.0860  177.4250  144.9320 C   0  0  0  0  0  3  0  0  0  0  0  0
  189.3510  177.8120  144.7160 C   0  0  0  0  0  3  0  0  0  0  0  0
  190.5180  177.2140  145.4590 C   0  0  0  0  0  2  0  0  0  0  0  0
  187.7140  176.4400  146.0100 C   0  0  0  0  0  2  0  0  0  0  0  0
  1  7  1  0  0  0  0
  1 24  1  0  0  0  0
  2  5  2  0  0  0  0
  2 11  1  0  0  0  0
  3 14  1  0  0  0  0
  3  7  2  0  0  0  0
  6 11  2  0  0  0  0
  7  2  1  0  0  0  0
  8  4  1  1  0  0  0
  8 25  1  0  0  0  0
  9  3  1  0  0  0  0
 10  1  2  0  0  0  0
 12  8  1  0  0  0  0
 13 12  1  0  0  0  0
 13  9  1  0  0  0  0
 14  8  1  0  0  0  0
 14  6  1  1  0  0  0
 15  9  2  0  0  0  0
 15 10  1  0  0  0  0
 16 17  1  0  0  0  0
 16 20  1  0  0  0  0
 17 19  1  0  0  0  0
 18 13  1  0  0  0  0
 18 21  1  0  0  0  0
 19 21  1  0  0  0  0
 20 18  2  0  0  0  0
 22 16  2  0  0  0  0
 24 23  1  0  0  0  0
 25 26  1  0  0  0  0
 26 27  1  0  0  0  0
 29 27  1  6  0  0  0
 30 29  1  0  0  0  0
 30 28  1  1  0  0  0
 31 34  1  0  0  0  0
 32 31  2  0  0  0  0
 32 33  1  0  0  0  0
 33 29  1  0  0  0  0
 34 30  1  0  0  0  0
M  END
>  <MODEL>
4

>  <REMARK>
 VINA RESULT:      -7.4      3.532      7.861
  Name = 
  6 active torsions:
  status: ('A' for Active; 'I' for Inactive)
    1  A    between atoms: C_1  and  O_19
    2  A    between atoms: C_3  and  C_13
    3  A    between atoms: C_3  and  C_17
    4  A    between atoms: C_12  and  N_28
    5  A    between atoms: C_17  and  O_29
    6  A    between atoms: C_18  and  O_29
                            x       y       z     vdW  Elec       q    Type
                         _______ _______ _______ _____ _____    ______ ____

>  <TORSDO>
F 6

$$$$
=
 OpenBabel11052418413D

 34 38  0  0  1  0  0  0  0  0999 V2000
  186.9810  177.9100  146.6470 C   0  0  0  0  0  0  0  0  0  0  0  0
  185.0330  178.4590  145.1180 C   0  0  0  0  0  0  0  0  0  0  0  0
  187.2560  177.8190  144.2250 C   0  0  0  0  0  0  0  0  0  0  0  0
  186.8880  177.3110  140.3950 C   0  0  0  0  0  1  0  0  0  0  0  0
  184.2840  178.8020  146.0710 O   0  0  0  0  0  0  0  0  0  0  0  0
  185.2230  178.1820  142.7470 C   0  0  0  0  0  3  0  0  0  0  0  0
  186.4450  178.0730  145.3510 C   0  0  0  0  0  0  0  0  0  0  0  0
  187.3410  177.0260  141.8270 C   0  0  1  0  0  0  0  0  0  0  0  0
  188.6000  177.4220  144.3800 C   0  0  0  0  0  0  0  0  0  0  0  0
  188.3120  177.4920  146.7920 C   0  0  0  0  0  3  0  0  0  0  0  0
  184.4920  178.4090  143.7950 N   0  0  0  0  0  0  0  0  0  0  0  0
  188.8470  177.2780  141.8590 C   0  0  0  0  0  2  0  0  0  0  0  0
  189.4100  177.1320  143.2090 N   0  0  0  0  0  0  0  0  0  0  0  0
  186.7230  178.0300  142.8290 C   0  0  2  0  0  3  0  0  0  0  0  0
  189.1050  177.2450  145.6750 C   0  0  0  0  0  3  0  0  0  0  0  0
  192.7720  175.5370  142.5190 C   0  0  0  0  0  0  0  0  0  0  0  0
  193.6600  176.1630  143.5510 C   0  0  0  0  0  2  0  0  0  0  0  0
  190.8110  176.7990  143.2850 C   0  0  0  0  0  0  0  0  0  0  0  0
  192.8370  176.5860  144.7650 C   0  0  0  0  0  2  0  0  0  0  0  0
  191.3510  175.9090  142.4380 C   0  0  0  0  0  3  0  0  0  0  0  0
  191.6710  177.4730  144.3280 C   0  0  0  0  0  2  0  0  0  0  0  0
  193.2520  174.7170  141.6950 O   0  0  0  0  0  0  0  0  0  0  0  0
  186.4400  179.2140  148.6860 C   0  0  0  0  0  1  0  0  0  0  0  0
  186.1890  178.1510  147.7770 O   0  0  0  0  0  0  0  0  0  0  0  0
  187.1340  175.6680  142.1920 O   0  0  0  0  0  0  0  0  0  0  0  0
  187.9020  174.8140  141.3830 C   0  0  0  0  0  2  0  0  0  0  0  0
  188.0550  173.4740  142.0730 C   0  0  0  0  0  2  0  0  0  0  0  0
  190.0390  171.6360  141.0520 O   0  0  0  0  0  1  0  0  0  0  0  0
  189.4540  173.3410  142.6530 C   0  0  2  0  0  3  0  0  0  0  0  0
  190.0240  171.9380  142.4140 C   0  0  2  0  0  3  0  0  0  0  0  0
  191.5770  172.4320  144.3410 C   0  0  0  0  0  3  0  0  0  0  0  0
  190.6610  173.2570  144.8680 C   0  0  0  0  0  3  0  0  0  0  0  0
  189.3770  173.5990  144.1570 C   0  0  0  0  0  2  0  0  0  0  0  0
  191.4530  171.8670  142.9500 C   0  0  0  0  0  2  0  0  0  0  0  0
  1 10  1  0  0  0  0
  1 24  1  0  0  0  0
  2  7  1  0  0  0  0
  2  5  2  0  0  0  0
  3  9  2  0  0  0  0
  3  7  1  0  0  0  0
  6 11  2  0  0  0  0
  7  1  2  0  0  0  0
  8  4  1  6  0  0  0
  8 12  1  0  0  0  0
  8 25  1  0  0  0  0
  8 14  1  0  0  0  0
  9 15  1  0  0  0  0
 11  2  1  0  0  0  0
 12 13  1  0  0  0  0
 13 18  1  0  0  0  0
 13  9  1  0  0  0  0
 14  6  1  1  0  0  0
 14  3  1  0  0  0  0
 15 10  2  0  0  0  0
 16 17  1  0  0  0  0
 17 19  1  0  0  0  0
 18 21  1  0  0  0  0
 20 16  1  0  0  0  0
 20 18  2  0  0  0  0
 21 19  1  0  0  0  0
 22 16  2  0  0  0  0
 24 23  1  0  0  0  0
 26 27  1  0  0  0  0
 26 25  1  0  0  0  0
 29 27  1  1  0  0  0
 29 33  1  0  0  0  0
 30 28  1  6  0  0  0
 30 29  1  0  0  0  0
 30 34  1  0  0  0  0
 31 32  2  0  0  0  0
 33 32  1  0  0  0  0
 34 31  1  0  0  0  0
M  END
>  <MODEL>
5

>  <REMARK>
 VINA RESULT:      -7.3      1.929      4.643
  Name = 
  6 active torsions:
  status: ('A' for Active; 'I' for Inactive)
    1  A    between atoms: C_1  and  O_19
    2  A    between atoms: C_3  and  C_13
    3  A    between atoms: C_3  and  C_17
    4  A    between atoms: C_12  and  N_28
    5  A    between atoms: C_17  and  O_29
    6  A    between atoms: C_18  and  O_29
                            x       y       z     vdW  Elec       q    Type
                         _______ _______ _______ _____ _____    ______ ____

>  <TORSDO>
F 6

$$$$
=
 OpenBabel11052418413D

 34 38  0  0  1  0  0  0  0  0999 V2000
  194.0060  172.8210  145.0150 C   0  0  0  0  0  0  0  0  0  0  0  0
  194.8220  175.0910  145.8010 C   0  0  0  0  0  0  0  0  0  0  0  0
  192.8960  174.8560  144.2580 C   0  0  0  0  0  0  0  0  0  0  0  0
  191.2460  178.3500  143.8900 C   0  0  0  0  0  1  0  0  0  0  0  0
  195.8150  174.6080  146.4080 O   0  0  0  0  0  0  0  0  0  0  0  0
  193.6250  177.0860  145.2310 C   0  0  0  0  0  3  0  0  0  0  0  0
  193.9130  174.2300  145.0070 C   0  0  0  0  0  0  0  0  0  0  0  0
  191.3340  176.8340  144.0680 C   0  0  1  0  0  0  0  0  0  0  0  0
  191.9830  174.0920  143.5030 C   0  0  0  0  0  0  0  0  0  0  0  0
  193.0790  172.0680  144.2810 C   0  0  0  0  0  3  0  0  0  0  0  0
  194.5530  176.4910  145.9160 N   0  0  0  0  0  0  0  0  0  0  0  0
  190.8070  176.2180  142.7740 C   0  0  0  0  0  2  0  0  0  0  0  0
  190.9200  174.7530  142.7640 N   0  0  0  0  0  0  0  0  0  0  0  0
  192.8020  176.3610  144.1940 C   0  0  2  0  0  3  0  0  0  0  0  0
  192.0790  172.6950  143.5420 C   0  0  0  0  0  3  0  0  0  0  0  0
  187.8960  172.8360  141.5370 C   0  0  0  0  0  0  0  0  0  0  0  0
  188.2180  172.5880  140.0950 C   0  0  0  0  0  2  0  0  0  0  0  0
  190.0000  174.0460  141.9080 C   0  0  0  0  0  0  0  0  0  0  0  0
  189.7300  172.5640  139.8900 C   0  0  0  0  0  2  0  0  0  0  0  0
  188.8350  173.5830  142.3890 C   0  0  0  0  0  3  0  0  0  0  0  0
  190.3580  173.8390  140.4550 C   0  0  0  0  0  2  0  0  0  0  0  0
  186.8030  172.4370  142.0120 O   0  0  0  0  0  0  0  0  0  0  0  0
  195.1870  170.7720  145.7620 C   0  0  0  0  0  1  0  0  0  0  0  0
  195.0060  172.1810  145.7600 O   0  0  0  0  0  0  0  0  0  0  0  0
  190.5020  176.3720  145.1230 O   0  0  0  0  0  0  0  0  0  0  0  0
  189.5940  177.3700  145.5140 C   0  0  0  0  0  2  0  0  0  0  0  0
  188.2560  176.7350  145.8310 C   0  0  0  0  0  2  0  0  0  0  0  0
  185.9870  176.7900  147.6220 O   0  0  0  0  0  1  0  0  0  0  0  0
  187.1510  177.7760  145.7540 C   0  0  2  0  0  3  0  0  0  0  0  0
  185.8300  177.2260  146.3060 C   0  0  2  0  0  3  0  0  0  0  0  0
  184.7120  179.0370  144.9490 C   0  0  0  0  0  3  0  0  0  0  0  0
  185.7260  179.0050  144.0720 C   0  0  0  0  0  3  0  0  0  0  0  0
  186.9560  178.1630  144.2880 C   0  0  0  0  0  2  0  0  0  0  0  0
  184.7650  178.3210  146.2740 C   0  0  0  0  0  2  0  0  0  0  0  0
  1 24  1  0  0  0  0
  2 11  1  0  0  0  0
  2  5  2  0  0  0  0
  3  7  2  0  0  0  0
  6 11  2  0  0  0  0
  7  1  1  0  0  0  0
  7  2  1  0  0  0  0
  8  4  1  6  0  0  0
  8 14  1  0  0  0  0
  8 25  1  0  0  0  0
  9 15  2  0  0  0  0
  9  3  1  0  0  0  0
 10  1  2  0  0  0  0
 12  8  1  0  0  0  0
 13 12  1  0  0  0  0
 13  9  1  0  0  0  0
 14  3  1  0  0  0  0
 14  6  1  1  0  0  0
 15 10  1  0  0  0  0
 16 22  2  0  0  0  0
 16 20  1  0  0  0  0
 17 16  1  0  0  0  0
 18 20  2  0  0  0  0
 18 13  1  0  0  0  0
 19 17  1  0  0  0  0
 19 21  1  0  0  0  0
 21 18  1  0  0  0  0
 24 23  1  0  0  0  0
 25 26  1  0  0  0  0
 26 27  1  0  0  0  0
 29 27  1  6  0  0  0
 29 30  1  0  0  0  0
 30 28  1  1  0  0  0
 31 34  1  0  0  0  0
 32 33  1  0  0  0  0
 32 31  2  0  0  0  0
 33 29  1  0  0  0  0
 34 30  1  0  0  0  0
M  END
>  <MODEL>
6

>  <REMARK>
 VINA RESULT:      -7.3      2.630      7.421
  Name = 
  6 active torsions:
  status: ('A' for Active; 'I' for Inactive)
    1  A    between atoms: C_1  and  O_19
    2  A    between atoms: C_3  and  C_13
    3  A    between atoms: C_3  and  C_17
    4  A    between atoms: C_12  and  N_28
    5  A    between atoms: C_17  and  O_29
    6  A    between atoms: C_18  and  O_29
                            x       y       z     vdW  Elec       q    Type
                         _______ _______ _______ _____ _____    ______ ____

>  <TORSDO>
F 6

$$$$
=
 OpenBabel11052418413D

 34 38  0  0  1  0  0  0  0  0999 V2000
  188.8090  173.7390  141.3890 C   0  0  0  0  0  0  0  0  0  0  0  0
  191.2930  174.1700  141.1100 C   0  0  0  0  0  0  0  0  0  0  0  0
  189.8840  175.5610  142.6020 C   0  0  0  0  0  0  0  0  0  0  0  0
  192.2460  177.8720  144.6390 C   0  0  0  0  0  1  0  0  0  0  0  0
  191.4200  173.2980  140.2100 O   0  0  0  0  0  0  0  0  0  0  0  0
  192.4050  175.8220  142.4410 C   0  0  0  0  0  3  0  0  0  0  0  0
  189.9660  174.4910  141.6870 C   0  0  0  0  0  0  0  0  0  0  0  0
  191.0800  176.9210  144.3650 C   0  0  1  0  0  0  0  0  0  0  0  0
  188.6560  175.8990  143.2070 C   0  0  0  0  0  0  0  0  0  0  0  0
  187.5970  174.0670  142.0130 C   0  0  0  0  0  3  0  0  0  0  0  0
  192.4610  174.8320  141.6030 N   0  0  0  0  0  0  0  0  0  0  0  0
  189.8070  177.7520  144.5040 C   0  0  0  0  0  2  0  0  0  0  0  0
  188.5980  176.9840  144.1730 N   0  0  0  0  0  0  0  0  0  0  0  0
  191.0950  176.4100  142.9050 C   0  0  2  0  0  3  0  0  0  0  0  0
  187.5250  175.1270  142.9130 C   0  0  0  0  0  3  0  0  0  0  0  0
  185.4020  178.9080  144.8100 C   0  0  0  0  0  0  0  0  0  0  0  0
  184.9000  178.3120  146.0900 C   0  0  0  0  0  2  0  0  0  0  0  0
  187.3670  177.4370  144.7710 C   0  0  0  0  0  0  0  0  0  0  0  0
  186.0650  177.7560  146.9030 C   0  0  0  0  0  2  0  0  0  0  0  0
  186.6460  178.4140  144.1990 C   0  0  0  0  0  3  0  0  0  0  0  0
  186.8900  176.7910  146.0510 C   0  0  0  0  0  2  0  0  0  0  0  0
  184.7370  179.8080  144.2350 O   0  0  0  0  0  0  0  0  0  0  0  0
  188.1910  172.6640  139.2410 C   0  0  0  0  0  1  0  0  0  0  0  0
  188.8730  172.6680  140.4880 O   0  0  0  0  0  0  0  0  0  0  0  0
  191.0070  175.8760  145.3250 O   0  0  0  0  0  0  0  0  0  0  0  0
  191.8850  176.1220  146.3950 C   0  0  0  0  0  2  0  0  0  0  0  0
  192.6920  174.8720  146.6790 C   0  0  0  0  0  2  0  0  0  0  0  0
  192.4160  172.8490  144.6320 O   0  0  0  0  0  1  0  0  0  0  0  0
  193.7150  174.6480  145.5770 C   0  0  2  0  0  3  0  0  0  0  0  0
  193.6900  173.1960  145.0820 C   0  0  2  0  0  3  0  0  0  0  0  0
  196.0290  173.6290  144.2390 C   0  0  0  0  0  3  0  0  0  0  0  0
  196.2090  174.5410  145.2070 C   0  0  0  0  0  3  0  0  0  0  0  0
  195.1010  174.9600  146.1380 C   0  0  0  0  0  2  0  0  0  0  0  0
  194.6810  173.0300  143.9320 C   0  0  0  0  0  2  0  0  0  0  0  0
  1  7  2  0  0  0  0
  1 10  1  0  0  0  0
  2 11  1  0  0  0  0
  2  7  1  0  0  0  0
  3 14  1  0  0  0  0
  3  9  2  0  0  0  0
  5  2  2  0  0  0  0
  7  3  1  0  0  0  0
  8 12  1  0  0  0  0
  8  4  1  1  0  0  0
  8 25  1  0  0  0  0
  9 13  1  0  0  0  0
 10 15  2  0  0  0  0
 11  6  2  0  0  0  0
 13 12  1  0  0  0  0
 13 18  1  0  0  0  0
 14  6  1  1  0  0  0
 14  8  1  0  0  0  0
 15  9  1  0  0  0  0
 16 17  1  0  0  0  0
 17 19  1  0  0  0  0
 18 21  1  0  0  0  0
 20 18  2  0  0  0  0
 20 16  1  0  0  0  0
 21 19  1  0  0  0  0
 22 16  2  0  0  0  0
 23 24  1  0  0  0  0
 24  1  1  0  0  0  0
 25 26  1  0  0  0  0
 26 27  1  0  0  0  0
 29 33  1  0  0  0  0
 29 27  1  1  0  0  0
 30 28  1  6  0  0  0
 30 29  1  0  0  0  0
 31 32  2  0  0  0  0
 32 33  1  0  0  0  0
 34 31  1  0  0  0  0
 34 30  1  0  0  0  0
M  END
>  <MODEL>
7

>  <REMARK>
 VINA RESULT:      -7.2      1.834      5.610
  Name = 
  6 active torsions:
  status: ('A' for Active; 'I' for Inactive)
    1  A    between atoms: C_1  and  O_19
    2  A    between atoms: C_3  and  C_13
    3  A    between atoms: C_3  and  C_17
    4  A    between atoms: C_12  and  N_28
    5  A    between atoms: C_17  and  O_29
    6  A    between atoms: C_18  and  O_29
                            x       y       z     vdW  Elec       q    Type
                         _______ _______ _______ _____ _____    ______ ____

>  <TORSDO>
F 6

$$$$
=
 OpenBabel11052418413D

 34 38  0  0  1  0  0  0  0  0999 V2000
  186.9760  177.7590  146.1330 C   0  0  0  0  0  0  0  0  0  0  0  0
  185.7010  177.5300  143.9510 C   0  0  0  0  0  0  0  0  0  0  0  0
  188.0670  176.8210  144.1640 C   0  0  0  0  0  0  0  0  0  0  0  0
  189.0260  174.9230  140.9160 C   0  0  0  0  0  1  0  0  0  0  0  0
  184.6830  178.1240  144.3970 O   0  0  0  0  0  0  0  0  0  0  0  0
  186.6880  176.4290  142.0670 C   0  0  0  0  0  3  0  0  0  0  0  0
  186.9290  177.3900  144.7710 C   0  0  0  0  0  0  0  0  0  0  0  0
  188.9440  175.2220  142.4140 C   0  0  1  0  0  0  0  0  0  0  0  0
  189.2570  176.6350  144.8970 C   0  0  0  0  0  0  0  0  0  0  0  0
  188.1560  177.5490  146.8600 C   0  0  0  0  0  3  0  0  0  0  0  0
  185.6500  176.9520  142.6440 N   0  0  0  0  0  0  0  0  0  0  0  0
  190.3540  175.6080  142.8520 C   0  0  0  0  0  2  0  0  0  0  0  0
  190.4100  176.0160  144.2630 N   0  0  0  0  0  0  0  0  0  0  0  0
  188.0590  176.4590  142.6980 C   0  0  2  0  0  3  0  0  0  0  0  0
  189.2760  176.9890  146.2520 C   0  0  0  0  0  3  0  0  0  0  0  0
  193.9340  176.6740  145.4750 C   0  0  0  0  0  0  0  0  0  0  0  0
  194.2500  175.4440  146.2730 C   0  0  0  0  0  2  0  0  0  0  0  0
  191.6830  175.8660  144.9230 C   0  0  0  0  0  0  0  0  0  0  0  0
  193.4340  174.2620  145.7610 C   0  0  0  0  0  2  0  0  0  0  0  0
  192.6200  176.8220  144.8300 C   0  0  0  0  0  3  0  0  0  0  0  0
  191.9470  174.6190  145.7350 C   0  0  0  0  0  2  0  0  0  0  0  0
  194.7820  177.5980  145.3880 O   0  0  0  0  0  0  0  0  0  0  0  0
  185.9330  179.4110  147.6610 C   0  0  0  0  0  1  0  0  0  0  0  0
  185.8520  178.3190  146.7540 O   0  0  0  0  0  0  0  0  0  0  0  0
  188.5680  174.0770  143.1660 O   0  0  0  0  0  0  0  0  0  0  0  0
  188.5750  172.9270  142.3590 C   0  0  0  0  0  2  0  0  0  0  0  0
  189.3160  171.8160  143.0740 C   0  0  0  0  0  2  0  0  0  0  0  0
  190.3180  171.0190  140.4820 O   0  0  0  0  0  1  0  0  0  0  0  0
  190.7890  171.8430  142.6990 C   0  0  2  0  0  3  0  0  0  0  0  0
  191.1050  170.8060  141.6140 C   0  0  2  0  0  3  0  0  0  0  0  0
  193.4950  170.9620  142.4110 C   0  0  0  0  0  3  0  0  0  0  0  0
  193.0650  171.2880  143.6380 C   0  0  0  0  0  3  0  0  0  0  0  0
  191.6090  171.5250  143.9480 C   0  0  0  0  0  2  0  0  0  0  0  0
  192.5770  170.9120  141.2170 C   0  0  0  0  0  2  0  0  0  0  0  0
  1 24  1  0  0  0  0
  1 10  1  0  0  0  0
  2  5  2  0  0  0  0
  2  7  1  0  0  0  0
  3  7  1  0  0  0  0
  3  9  2  0  0  0  0
  6 11  2  0  0  0  0
  7  1  2  0  0  0  0
  8  4  1  6  0  0  0
  8 14  1  0  0  0  0
  8 12  1  0  0  0  0
  8 25  1  0  0  0  0
  9 15  1  0  0  0  0
 11  2  1  0  0  0  0
 12 13  1  0  0  0  0
 13  9  1  0  0  0  0
 13 18  1  0  0  0  0
 14  6  1  1  0  0  0
 14  3  1  0  0  0  0
 15 10  2  0  0  0  0
 16 17  1  0  0  0  0
 18 21  1  0  0  0  0
 19 17  1  0  0  0  0
 20 18  2  0  0  0  0
 20 16  1  0  0  0  0
 21 19  1  0  0  0  0
 22 16  2  0  0  0  0
 24 23  1  0  0  0  0
 26 27  1  0  0  0  0
 26 25  1  0  0  0  0
 29 27  1  1  0  0  0
 29 33  1  0  0  0  0
 30 28  1  6  0  0  0
 30 29  1  0  0  0  0
 31 32  2  0  0  0  0
 32 33  1  0  0  0  0
 34 30  1  0  0  0  0
 34 31  1  0  0  0  0
M  END
>  <MODEL>
8

>  <REMARK>
 VINA RESULT:      -7.1      2.211      4.879
  Name = 
  6 active torsions:
  status: ('A' for Active; 'I' for Inactive)
    1  A    between atoms: C_1  and  O_19
    2  A    between atoms: C_3  and  C_13
    3  A    between atoms: C_3  and  C_17
    4  A    between atoms: C_12  and  N_28
    5  A    between atoms: C_17  and  O_29
    6  A    between atoms: C_18  and  O_29
                            x       y       z     vdW  Elec       q    Type
                         _______ _______ _______ _____ _____    ______ ____

>  <TORSDO>
F 6

$$$$
=
 OpenBabel11052418413D

 34 38  0  0  1  0  0  0  0  0999 V2000
  186.7380  177.8820  146.3340 C   0  0  0  0  0  0  0  0  0  0  0  0
  185.1720  178.0780  144.3470 C   0  0  0  0  0  0  0  0  0  0  0  0
  187.4820  177.2090  144.1100 C   0  0  0  0  0  0  0  0  0  0  0  0
  187.8510  175.8020  140.5120 C   0  0  0  0  0  1  0  0  0  0  0  0
  184.2720  178.6510  145.0170 O   0  0  0  0  0  0  0  0  0  0  0  0
  185.8110  177.2370  142.1980 C   0  0  0  0  0  3  0  0  0  0  0  0
  186.4820  177.7380  144.9520 C   0  0  0  0  0  0  0  0  0  0  0  0
  187.9910  175.8620  142.0330 C   0  0  1  0  0  0  0  0  0  0  0  0
  188.7390  176.8400  144.6300 C   0  0  0  0  0  0  0  0  0  0  0  0
  187.9830  177.4910  146.8450 C   0  0  0  0  0  3  0  0  0  0  0  0
  184.9030  177.7200  142.9880 N   0  0  0  0  0  0  0  0  0  0  0  0
  189.4730  176.0910  142.3190 C   0  0  0  0  0  2  0  0  0  0  0  0
  189.7460  176.2660  143.7530 N   0  0  0  0  0  0  0  0  0  0  0  0
  187.2520  177.0870  142.6240 C   0  0  2  0  0  3  0  0  0  0  0  0
  188.9650  176.9720  146.0060 C   0  0  0  0  0  3  0  0  0  0  0  0
  192.7380  174.3420  145.0470 C   0  0  0  0  0  0  0  0  0  0  0  0
  193.8080  175.3900  145.1130 C   0  0  0  0  0  2  0  0  0  0  0  0
  191.0790  175.9390  144.1950 C   0  0  0  0  0  0  0  0  0  0  0  0
  193.1830  176.7680  145.3030 C   0  0  0  0  0  2  0  0  0  0  0  0
  191.3900  174.6880  144.5680 C   0  0  0  0  0  3  0  0  0  0  0  0
  192.1300  177.0240  144.2230 C   0  0  0  0  0  2  0  0  0  0  0  0
  193.0030  173.1550  145.3670 O   0  0  0  0  0  0  0  0  0  0  0  0
  185.9740  179.5200  148.0330 C   0  0  0  0  0  1  0  0  0  0  0  0
  185.7530  178.3990  147.1860 O   0  0  0  0  0  0  0  0  0  0  0  0
  187.6280  174.6350  142.6510 O   0  0  0  0  0  0  0  0  0  0  0  0
  187.9600  173.5460  141.8270 C   0  0  0  0  0  2  0  0  0  0  0  0
  188.8620  172.5980  142.5890 C   0  0  0  0  0  2  0  0  0  0  0  0
  191.2340  171.1670  143.4170 O   0  0  0  0  0  1  0  0  0  0  0  0
  189.7710  171.8520  141.6260 C   0  0  2  0  0  3  0  0  0  0  0  0
  191.2070  171.7760  142.1620 C   0  0  2  0  0  3  0  0  0  0  0  0
  191.8940  171.3860  139.7650 C   0  0  0  0  0  3  0  0  0  0  0  0
  190.8280  172.0840  139.3460 C   0  0  0  0  0  3  0  0  0  0  0  0
  189.7750  172.5990  140.2930 C   0  0  0  0  0  2  0  0  0  0  0  0
  192.0700  170.9630  141.2000 C   0  0  0  0  0  2  0  0  0  0  0  0
  1 10  1  0  0  0  0
  1 24  1  0  0  0  0
  2  7  1  0  0  0  0
  2  5  2  0  0  0  0
  3  9  2  0  0  0  0
  3  7  1  0  0  0  0
  6 11  2  0  0  0  0
  7  1  2  0  0  0  0
  8  4  1  6  0  0  0
  8 12  1  0  0  0  0
  8 14  1  0  0  0  0
  8 25  1  0  0  0  0
  9 15  1  0  0  0  0
 11  2  1  0  0  0  0
 12 13  1  0  0  0  0
 13 18  1  0  0  0  0
 13  9  1  0  0  0  0
 14  6  1  1  0  0  0
 14  3  1  0  0  0  0
 15 10  2  0  0  0  0
 16 17  1  0  0  0  0
 16 22  2  0  0  0  0
 17 19  1  0  0  0  0
 18 21  1  0  0  0  0
 18 20  2  0  0  0  0
 20 16  1  0  0  0  0
 21 19  1  0  0  0  0
 24 23  1  0  0  0  0
 26 27  1  0  0  0  0
 26 25  1  0  0  0  0
 29 30  1  0  0  0  0
 29 27  1  1  0  0  0
 30 28  1  1  0  0  0
 31 34  1  0  0  0  0
 32 31  2  0  0  0  0
 32 33  1  0  0  0  0
 33 29  1  0  0  0  0
 34 30  1  0  0  0  0
M  END
>  <MODEL>
9

>  <REMARK>
 VINA RESULT:      -7.1      2.014      5.069
  Name = 
  6 active torsions:
  status: ('A' for Active; 'I' for Inactive)
    1  A    between atoms: C_1  and  O_19
    2  A    between atoms: C_3  and  C_13
    3  A    between atoms: C_3  and  C_17
    4  A    between atoms: C_12  and  N_28
    5  A    between atoms: C_17  and  O_29
    6  A    between atoms: C_18  and  O_29
                            x       y       z     vdW  Elec       q    Type
                         _______ _______ _______ _____ _____    ______ ____

>  <TORSDO>
F 6

$$$$
