=
 OpenBabel11052419263D

 55 62  0  0  1  0  0  0  0  0999 V2000
  196.7340  174.7760  144.5500 C   0  0  0  0  0  1  0  0  0  0  0  0
  195.9550  175.8190  143.7780 C   0  0  1  0  0  3  0  0  0  0  0  0
  194.7940  174.9920  142.6500 S   0  0  0  0  0  0  0  0  0  0  0  0
  195.9290  171.0080  140.2970 O   0  0  0  0  0  0  0  0  0  0  0  0
  194.1870  172.4430  145.2400 C   0  0  0  0  0  2  0  0  0  0  0  0
  195.0970  171.2970  145.6770 C   0  0  0  0  0  2  0  0  0  0  0  0
  194.1200  172.5440  143.7170 C   0  0  1  0  0  3  0  0  0  0  0  0
  194.9140  170.2470  143.5280 O   0  0  0  0  0  0  0  0  0  0  0  0
  194.7150  170.0380  144.9040 C   0  0  0  0  0  2  0  0  0  0  0  0
  195.3250  173.3290  143.1630 C   0  0  1  0  0  3  0  0  0  0  0  0
  195.4690  172.1230  139.5780 C   0  0  2  0  0  3  0  0  0  0  0  0
  193.9030  171.2130  141.5660 C   0  0  2  0  0  3  0  0  0  0  0  0
  193.9110  171.1410  143.0960 C   0  0  2  0  0  3  0  0  0  0  0  0
  196.0820  172.6270  142.0300 C   0  0  0  0  0  2  0  0  0  0  0  0
  195.1600  171.9320  141.0280 C   0  0  1  0  0  0  0  0  0  0  0  0
  191.5640  170.8970  140.7480 C   0  0  0  0  0  3  0  0  0  0  0  0
  190.1330  172.7720  140.1590 C   0  0  0  0  0  0  0  0  0  0  0  0
  192.4020  173.1580  140.9330 C   0  0  0  0  0  3  0  0  0  0  0  0
  191.1770  173.6520  140.4820 C   0  0  0  0  0  3  0  0  0  0  0  0
  190.3390  171.3890  140.2960 C   0  0  0  0  0  3  0  0  0  0  0  0
  192.6020  171.7760  141.0650 C   0  0  0  0  0  0  0  0  0  0  0  0
  188.8730  173.2870  139.7050 N   0  0  0  0  0  0  0  0  0  0  0  0
  188.2650  172.7450  138.6210 O   0  0  0  0  0  1  0  0  0  0  0  0
  188.2840  174.4760  140.3020 C   0  0  0  0  0  1  0  0  0  0  0  0
  194.3700  171.6790  138.6300 C   0  0  0  0  0  2  0  0  0  0  0  0
  194.8280  171.8550  137.1970 C   0  0  0  0  0  2  0  0  0  0  0  0
  195.7830  173.0300  137.1010 C   0  0  0  0  0  2  0  0  0  0  0  0
  195.0950  174.1720  136.6870 O   0  0  0  0  0  1  0  0  0  0  0  0
  195.2490  176.6280  144.6700 O   0  0  0  0  0  0  0  0  0  0  0  0
  195.0930  175.8410  145.8140 C   0  0  0  0  0  2  0  0  0  0  0  0
  193.7090  176.0570  146.4060 C   0  0  0  0  0  2  0  0  0  0  0  0
  192.7660  176.7000  145.3940 C   0  0  0  0  0  2  0  0  0  0  0  0
  191.2230  176.8310  147.9210 O   0  0  0  0  0  0  0  0  0  0  0  0
  191.3080  176.2620  145.5800 C   0  0  1  0  0  0  0  0  0  0  0  0
  191.1100  175.7690  147.0020 C   0  0  2  0  0  3  0  0  0  0  0  0
  189.5020  177.3940  146.3750 C   0  0  1  0  0  3  0  0  0  0  0  0
  189.9300  176.4780  147.4990 C   0  0  2  0  0  3  0  0  0  0  0  0
  190.4510  177.3510  145.3360 O   0  0  0  0  0  0  0  0  0  0  0  0
  185.8510  179.0270  146.2110 C   0  0  0  0  0  2  0  0  0  0  0  0
  188.1220  176.9930  145.8540 C   0  0  1  0  0  3  0  0  0  0  0  0
  185.9910  177.5270  146.3340 C   0  0  2  0  0  0  0  0  0  0  0  0
  187.1760  177.0350  146.9010 O   0  0  0  0  0  0  0  0  0  0  0  0
  186.2110  178.1670  144.9970 C   0  0  2  0  0  0  0  0  0  0  0  0
  184.8210  176.7890  146.5130 O   0  0  0  0  0  1  0  0  0  0  0  0
  187.6760  177.9170  144.7240 C   0  0  2  0  0  3  0  0  0  0  0  0
  187.9390  177.2770  143.3960 C   0  0  0  0  0  0  0  0  0  0  0  0
  188.4560  178.0210  142.3420 O   0  0  0  0  0  0  0  0  0  0  0  0
  187.6820  176.0560  143.2340 O   0  0  0  0  0  1  0  0  0  0  0  0
  185.1060  177.9150  143.9740 C   0  0  0  0  0  2  0  0  0  0  0  0
  185.1700  178.8730  142.9630 O   0  0  0  0  0  0  0  0  0  0  0  0
  184.8030  178.1850  141.8080 C   0  0  0  0  0  1  0  0  0  0  0  0
  190.8930  174.9170  144.4320 S   0  0  0  0  0  0  0  0  0  0  0  0
  190.1200  173.8120  145.3160 C   0  0  0  0  0  2  0  0  0  0  0  0
  189.6580  172.5450  144.6870 C   0  0  0  0  0  2  0  0  0  0  0  0
  190.7330  171.9190  144.0580 O   0  0  0  0  0  1  0  0  0  0  0  0
  2  1  1  1  0  0  0
  2 29  1  0  0  0  0
  3  2  1  0  0  0  0
  4 15  1  0  0  0  0
  5  6  1  0  0  0  0
  7  5  1  1  0  0  0
  8  9  1  0  0  0  0
  9  6  1  0  0  0  0
 10  3  1  6  0  0  0
 10  7  1  0  0  0  0
 11 25  1  6  0  0  0
 11  4  1  0  0  0  0
 11 15  1  0  0  0  0
 12 21  1  1  0  0  0
 12 13  1  0  0  0  0
 13  8  1  6  0  0  0
 13  7  1  0  0  0  0
 14 10  1  0  0  0  0
 15 12  1  0  0  0  0
 15 14  1  1  0  0  0
 16 21  1  0  0  0  0
 17 20  1  0  0  0  0
 17 19  2  0  0  0  0
 18 21  2  0  0  0  0
 19 18  1  0  0  0  0
 20 16  2  0  0  0  0
 22 17  1  0  0  0  0
 22 24  1  0  0  0  0
 23 22  1  0  0  0  0
 26 25  1  0  0  0  0
 27 26  1  0  0  0  0
 28 27  1  0  0  0  0
 29 30  1  0  0  0  0
 30 31  1  0  0  0  0
 32 31  1  0  0  0  0
 34 32  1  6  0  0  0
 34 35  1  0  0  0  0
 35 37  1  0  0  0  0
 35 33  1  1  0  0  0
 36 38  1  6  0  0  0
 36 37  1  0  0  0  0
 37 33  1  1  0  0  0
 38 34  1  0  0  0  0
 39 41  1  0  0  0  0
 40 36  1  0  0  0  0
 40 42  1  1  0  0  0
 41 44  1  1  0  0  0
 41 42  1  0  0  0  0
 43 49  1  6  0  0  0
 43 39  1  0  0  0  0
 43 41  1  0  0  0  0
 45 46  1  6  0  0  0
 45 43  1  0  0  0  0
 45 40  1  0  0  0  0
 47 46  2  0  0  0  0
 48 46  1  0  0  0  0
 50 49  1  0  0  0  0
 51 50  1  0  0  0  0
 52 53  1  0  0  0  0
 52 34  1  0  0  0  0
 54 53  1  0  0  0  0
 55 54  1  0  0  0  0
M  END
>  <MODEL>
1

>  <REMARK>
 VINA RESULT:      -6.6      0.000      0.000
  Name = 
  18 active torsions:
  status: ('A' for Active; 'I' for Inactive)
    1  A    between atoms: C_1  and  C_53
    2  A    between atoms: C_4  and  C_35
    3  A    between atoms: C_4  and  O_37
    4  A    between atoms: C_6  and  C_22
    5  A    between atoms: C_8  and  C_43
    6  A    between atoms: C_8  and  S_51
    7  A    between atoms: N_10  and  C_32
    8  A    between atoms: O_11  and  C_29
    9  A    between atoms: S_19  and  C_26
   10  A    between atoms: S_19  and  C_40
   11  A    between atoms: C_24  and  C_44
   12  A    between atoms: C_27  and  C_54
   13  A    between atoms: C_28  and  C_31
   14  A    between atoms: C_29  and  C_38
   15  A    between atoms: C_31  and  C_44
   16  A    between atoms: C_33  and  C_52
   17  A    between atoms: C_35  and  C_43
   18  A    between atoms: O_37  and  C_40
                            x       y       z     vdW  Elec       q    Type
                         _______ _______ _______ _____ _____    ______ ____

>  <TORSDO>
F 18

$$$$
=
 OpenBabel11052419263D

 55 62  0  0  1  0  0  0  0  0999 V2000
  197.1590  172.0960  145.4150 C   0  0  0  0  0  1  0  0  0  0  0  0
  195.9490  171.2450  145.0980 C   0  0  1  0  0  3  0  0  0  0  0  0
  194.4700  172.3000  145.0290 S   0  0  0  0  0  0  0  0  0  0  0  0
  194.0780  176.7500  146.6830 O   0  0  0  0  0  0  0  0  0  0  0  0
  196.3490  174.1730  142.4730 C   0  0  0  0  0  2  0  0  0  0  0  0
  197.4410  175.2210  142.6750 C   0  0  0  0  0  2  0  0  0  0  0  0
  195.1700  174.4170  143.4140 C   0  0  1  0  0  3  0  0  0  0  0  0
  195.8950  176.7240  143.7260 O   0  0  0  0  0  0  0  0  0  0  0  0
  196.8060  176.6090  142.6620 C   0  0  0  0  0  2  0  0  0  0  0  0
  195.4440  173.8210  144.8070 C   0  0  1  0  0  3  0  0  0  0  0  0
  193.0810  175.8120  146.9930 C   0  0  2  0  0  3  0  0  0  0  0  0
  193.6410  176.1920  144.3910 C   0  0  2  0  0  3  0  0  0  0  0  0
  194.7830  175.9170  143.4070 C   0  0  2  0  0  3  0  0  0  0  0  0
  195.2150  174.7870  145.9750 C   0  0  0  0  0  2  0  0  0  0  0  0
  193.9700  175.6580  145.8030 C   0  0  1  0  0  0  0  0  0  0  0  0
  192.0480  174.3440  143.8570 C   0  0  0  0  0  3  0  0  0  0  0  0
  189.8750  174.7590  142.8470 C   0  0  0  0  0  0  0  0  0  0  0  0
  191.3770  176.6050  143.3230 C   0  0  0  0  0  3  0  0  0  0  0  0
  190.1610  176.1310  142.8300 C   0  0  0  0  0  3  0  0  0  0  0  0
  190.8310  173.8690  143.3640 C   0  0  0  0  0  3  0  0  0  0  0  0
  192.3290  175.7130  143.8350 C   0  0  0  0  0  0  0  0  0  0  0  0
  188.6180  174.2790  142.3480 N   0  0  0  0  0  0  0  0  0  0  0  0
  188.4050  172.9480  142.2020 O   0  0  0  0  0  1  0  0  0  0  0  0
  187.5980  175.1960  141.8630 C   0  0  0  0  0  1  0  0  0  0  0  0
  191.7220  176.4200  146.6970 C   0  0  0  0  0  2  0  0  0  0  0  0
  190.6750  175.7970  147.5990 C   0  0  0  0  0  2  0  0  0  0  0  0
  189.8190  174.8280  146.8060 C   0  0  0  0  0  2  0  0  0  0  0  0
  188.8470  175.5280  146.0890 O   0  0  0  0  0  1  0  0  0  0  0  0
  196.1340  170.6130  143.8660 O   0  0  0  0  0  0  0  0  0  0  0  0
  197.4760  170.8390  143.5510 C   0  0  0  0  0  2  0  0  0  0  0  0
  197.6500  170.8990  142.0420 C   0  0  0  0  0  2  0  0  0  0  0  0
  197.2720  169.5750  141.3860 C   0  0  0  0  0  2  0  0  0  0  0  0
  194.5500  168.5480  141.9510 O   0  0  0  0  0  0  0  0  0  0  0  0
  196.0560  169.6970  140.4600 C   0  0  1  0  0  0  0  0  0  0  0  0
  195.1410  168.5040  140.6740 C   0  0  2  0  0  3  0  0  0  0  0  0
  193.9870  170.5690  140.8240 C   0  0  1  0  0  3  0  0  0  0  0  0
  193.8070  169.0690  140.8780 C   0  0  2  0  0  3  0  0  0  0  0  0
  195.3570  170.8830  140.7480 O   0  0  0  0  0  0  0  0  0  0  0  0
  190.1730  170.9970  139.6830 C   0  0  0  0  0  2  0  0  0  0  0  0
  193.2380  171.1550  139.6260 C   0  0  1  0  0  3  0  0  0  0  0  0
  191.2480  170.8150  138.6360 C   0  0  2  0  0  0  0  0  0  0  0  0
  192.4270  170.1660  139.0280 O   0  0  0  0  0  0  0  0  0  0  0  0
  191.0840  172.1580  139.2810 C   0  0  2  0  0  0  0  0  0  0  0  0
  190.8330  170.6800  137.3110 O   0  0  0  0  0  1  0  0  0  0  0  0
  192.3730  172.3380  140.0490 C   0  0  2  0  0  3  0  0  0  0  0  0
  193.0750  173.6270  139.7520 C   0  0  0  0  0  0  0  0  0  0  0  0
  193.9220  173.7350  138.6550 O   0  0  0  0  0  0  0  0  0  0  0  0
  192.8990  174.6170  140.5080 O   0  0  0  0  0  1  0  0  0  0  0  0
  190.4790  173.2340  138.3820 C   0  0  0  0  0  2  0  0  0  0  0  0
  189.6120  174.0360  139.1230 O   0  0  0  0  0  0  0  0  0  0  0  0
  188.4090  173.9870  138.4210 C   0  0  0  0  0  1  0  0  0  0  0  0
  196.5780  169.7290  138.7200 S   0  0  0  0  0  0  0  0  0  0  0  0
  196.7560  171.2870  138.3470 C   0  0  0  0  0  2  0  0  0  0  0  0
  197.1520  171.6820  136.9670 C   0  0  0  0  0  2  0  0  0  0  0  0
  196.5990  172.9230  136.6620 O   0  0  0  0  0  1  0  0  0  0  0  0
  2  1  1  6  0  0  0
  3  2  1  0  0  0  0
  4 11  1  0  0  0  0
  5  6  1  0  0  0  0
  7  5  1  6  0  0  0
  7 10  1  0  0  0  0
  9  6  1  0  0  0  0
  9  8  1  0  0  0  0
 10  3  1  1  0  0  0
 10 14  1  0  0  0  0
 11 25  1  6  0  0  0
 12 21  1  6  0  0  0
 12 15  1  0  0  0  0
 13  7  1  0  0  0  0
 13  8  1  1  0  0  0
 13 12  1  0  0  0  0
 15 14  1  1  0  0  0
 15  4  1  0  0  0  0
 15 11  1  0  0  0  0
 17 20  1  0  0  0  0
 18 21  2  0  0  0  0
 19 17  2  0  0  0  0
 19 18  1  0  0  0  0
 20 16  2  0  0  0  0
 21 16  1  0  0  0  0
 22 17  1  0  0  0  0
 23 22  1  0  0  0  0
 24 22  1  0  0  0  0
 25 26  1  0  0  0  0
 27 26  1  0  0  0  0
 28 27  1  0  0  0  0
 29  2  1  0  0  0  0
 30 29  1  0  0  0  0
 31 30  1  0  0  0  0
 32 31  1  0  0  0  0
 34 35  1  0  0  0  0
 34 38  1  0  0  0  0
 34 32  1  1  0  0  0
 35 37  1  0  0  0  0
 35 33  1  1  0  0  0
 36 38  1  6  0  0  0
 36 37  1  0  0  0  0
 37 33  1  1  0  0  0
 40 42  1  1  0  0  0
 40 45  1  0  0  0  0
 40 36  1  0  0  0  0
 41 44  1  6  0  0  0
 41 42  1  0  0  0  0
 41 43  1  0  0  0  0
 41 39  1  0  0  0  0
 43 49  1  6  0  0  0
 43 39  1  0  0  0  0
 43 45  1  0  0  0  0
 45 46  1  6  0  0  0
 46 48  1  0  0  0  0
 47 46  2  0  0  0  0
 49 50  1  0  0  0  0
 51 50  1  0  0  0  0
 52 34  1  0  0  0  0
 53 52  1  0  0  0  0
 54 53  1  0  0  0  0
 55 54  1  0  0  0  0
M  END
>  <MODEL>
2

>  <REMARK>
 VINA RESULT:      -5.8      2.654      7.944
  Name = 
  18 active torsions:
  status: ('A' for Active; 'I' for Inactive)
    1  A    between atoms: C_1  and  C_53
    2  A    between atoms: C_4  and  C_35
    3  A    between atoms: C_4  and  O_37
    4  A    between atoms: C_6  and  C_22
    5  A    between atoms: C_8  and  C_43
    6  A    between atoms: C_8  and  S_51
    7  A    between atoms: N_10  and  C_32
    8  A    between atoms: O_11  and  C_29
    9  A    between atoms: S_19  and  C_26
   10  A    between atoms: S_19  and  C_40
   11  A    between atoms: C_24  and  C_44
   12  A    between atoms: C_27  and  C_54
   13  A    between atoms: C_28  and  C_31
   14  A    between atoms: C_29  and  C_38
   15  A    between atoms: C_31  and  C_44
   16  A    between atoms: C_33  and  C_52
   17  A    between atoms: C_35  and  C_43
   18  A    between atoms: O_37  and  C_40
                            x       y       z     vdW  Elec       q    Type
                         _______ _______ _______ _____ _____    ______ ____

>  <TORSDO>
F 18

$$$$
=
 OpenBabel11052419263D

 55 62  0  0  1  0  0  0  0  0999 V2000
  191.8260  172.2270  137.9400 C   0  0  0  0  0  1  0  0  0  0  0  0
  191.9360  171.5130  139.2700 C   0  0  1  0  0  3  0  0  0  0  0  0
  192.7510  172.6050  140.4750 S   0  0  0  0  0  0  0  0  0  0  0  0
  197.4490  171.9270  140.8820 O   0  0  0  0  0  0  0  0  0  0  0  0
  194.0330  175.0530  138.0390 C   0  0  0  0  0  2  0  0  0  0  0  0
  195.0710  174.8440  136.9380 C   0  0  0  0  0  2  0  0  0  0  0  0
  194.4890  174.4230  139.3540 C   0  0  1  0  0  3  0  0  0  0  0  0
  196.7920  174.4160  138.5540 O   0  0  0  0  0  0  0  0  0  0  0  0
  196.4450  175.2420  137.4700 C   0  0  0  0  0  2  0  0  0  0  0  0
  194.1720  172.9160  139.3810 C   0  0  1  0  0  3  0  0  0  0  0  0
  196.6170  171.6450  141.9770 C   0  0  2  0  0  3  0  0  0  0  0  0
  196.4620  174.1140  140.9210 C   0  0  2  0  0  3  0  0  0  0  0  0
  195.9670  174.7870  139.6370 C   0  0  2  0  0  3  0  0  0  0  0  0
  195.3550  172.0180  139.7610 C   0  0  0  0  0  2  0  0  0  0  0  0
  196.2070  172.5900  140.8940 C   0  0  1  0  0  0  0  0  0  0  0  0
  196.5850  175.9390  142.6220 C   0  0  0  0  0  3  0  0  0  0  0  0
  194.9230  176.1860  144.3790 C   0  0  0  0  0  0  0  0  0  0  0  0
  194.7450  174.3770  142.7700 C   0  0  0  0  0  3  0  0  0  0  0  0
  194.2530  175.0570  143.8850 C   0  0  0  0  0  3  0  0  0  0  0  0
  196.0940  176.6210  143.7370 C   0  0  0  0  0  3  0  0  0  0  0  0
  195.9160  174.8130  142.1350 C   0  0  0  0  0  0  0  0  0  0  0  0
  194.4060  176.8870  145.5200 N   0  0  0  0  0  0  0  0  0  0  0  0
  194.9570  178.0650  145.9040 O   0  0  0  0  0  1  0  0  0  0  0  0
  193.3800  176.2980  146.3670 C   0  0  0  0  0  1  0  0  0  0  0  0
  197.1900  172.3090  143.2160 C   0  0  0  0  0  2  0  0  0  0  0  0
  196.5770  171.6920  144.4570 C   0  0  0  0  0  2  0  0  0  0  0  0
  196.9560  172.5060  145.6800 C   0  0  0  0  0  2  0  0  0  0  0  0
  197.4270  173.7610  145.2910 O   0  0  0  0  0  1  0  0  0  0  0  0
  190.6600  171.1790  139.7260 O   0  0  0  0  0  0  0  0  0  0  0  0
  189.8180  172.1380  139.1580 C   0  0  0  0  0  2  0  0  0  0  0  0
  189.0350  172.8500  140.2490 C   0  0  0  0  0  2  0  0  0  0  0  0
  189.6840  174.1790  140.6220 C   0  0  0  0  0  2  0  0  0  0  0  0
  190.5160  173.3140  143.3330 O   0  0  0  0  0  0  0  0  0  0  0  0
  189.1590  174.7460  141.9460 C   0  0  1  0  0  0  0  0  0  0  0  0
  189.1900  173.6580  143.0050 C   0  0  2  0  0  3  0  0  0  0  0  0
  190.2570  175.6490  143.7220 C   0  0  1  0  0  3  0  0  0  0  0  0
  189.8710  174.2530  144.1550 C   0  0  2  0  0  3  0  0  0  0  0  0
  189.9660  175.8230  142.3560 O   0  0  0  0  0  0  0  0  0  0  0  0
  186.4610  176.4740  144.6890 C   0  0  0  0  0  2  0  0  0  0  0  0
  189.5200  176.6930  144.5610 C   0  0  1  0  0  3  0  0  0  0  0  0
  187.4620  177.6000  144.5770 C   0  0  2  0  0  0  0  0  0  0  0  0
  188.5840  177.3870  143.7630 O   0  0  0  0  0  0  0  0  0  0  0  0
  187.4680  176.7460  145.8080 C   0  0  2  0  0  0  0  0  0  0  0  0
  186.9760  178.9020  144.6960 O   0  0  0  0  0  1  0  0  0  0  0  0
  188.8020  176.0390  145.7390 C   0  0  2  0  0  3  0  0  0  0  0  0
  189.6200  176.1750  146.9860 C   0  0  0  0  0  0  0  0  0  0  0  0
  190.1300  177.4120  147.3670 O   0  0  0  0  0  0  0  0  0  0  0  0
  189.8520  175.1590  147.6890 O   0  0  0  0  0  1  0  0  0  0  0  0
  186.9380  177.4280  147.0670 C   0  0  0  0  0  2  0  0  0  0  0  0
  185.6020  177.0840  147.2640 O   0  0  0  0  0  0  0  0  0  0  0  0
  184.9530  178.3040  147.4500 C   0  0  0  0  0  1  0  0  0  0  0  0
  187.4480  175.3300  141.7580 S   0  0  0  0  0  0  0  0  0  0  0  0
  187.5430  176.6810  140.8840 C   0  0  0  0  0  2  0  0  0  0  0  0
  186.3090  177.4490  140.5640 C   0  0  0  0  0  2  0  0  0  0  0  0
  185.9620  177.2390  139.2310 O   0  0  0  0  0  1  0  0  0  0  0  0
  2  1  1  6  0  0  0
  2 29  1  0  0  0  0
  2  3  1  0  0  0  0
  4 15  1  0  0  0  0
  4 11  1  0  0  0  0
  6  9  1  0  0  0  0
  6  5  1  0  0  0  0
  7  5  1  6  0  0  0
  7 10  1  0  0  0  0
  7 13  1  0  0  0  0
  9  8  1  0  0  0  0
 10 14  1  0  0  0  0
 10  3  1  1  0  0  0
 11 25  1  1  0  0  0
 12 21  1  1  0  0  0
 13  8  1  6  0  0  0
 13 12  1  0  0  0  0
 15 14  1  6  0  0  0
 15 12  1  0  0  0  0
 15 11  1  0  0  0  0
 16 20  1  0  0  0  0
 17 22  1  0  0  0  0
 18 19  2  0  0  0  0
 19 17  1  0  0  0  0
 20 17  2  0  0  0  0
 21 16  2  0  0  0  0
 21 18  1  0  0  0  0
 22 23  1  0  0  0  0
 22 24  1  0  0  0  0
 25 26  1  0  0  0  0
 26 27  1  0  0  0  0
 28 27  1  0  0  0  0
 30 29  1  0  0  0  0
 30 31  1  0  0  0  0
 31 32  1  0  0  0  0
 34 32  1  6  0  0  0
 34 38  1  0  0  0  0
 34 35  1  0  0  0  0
 35 33  1  6  0  0  0
 35 37  1  0  0  0  0
 36 38  1  6  0  0  0
 36 37  1  0  0  0  0
 36 40  1  0  0  0  0
 37 33  1  6  0  0  0
 39 43  1  0  0  0  0
 40 42  1  6  0  0  0
 40 45  1  0  0  0  0
 41 39  1  0  0  0  0
 41 44  1  1  0  0  0
 41 43  1  0  0  0  0
 42 41  1  0  0  0  0
 43 49  1  1  0  0  0
 45 43  1  0  0  0  0
 45 46  1  1  0  0  0
 46 47  2  0  0  0  0
 46 48  1  0  0  0  0
 49 50  1  0  0  0  0
 50 51  1  0  0  0  0
 52 34  1  0  0  0  0
 53 52  1  0  0  0  0
 54 53  1  0  0  0  0
 55 54  1  0  0  0  0
M  END
>  <MODEL>
3

>  <REMARK>
 VINA RESULT:      -5.8      2.357      6.067
  Name = 
  18 active torsions:
  status: ('A' for Active; 'I' for Inactive)
    1  A    between atoms: C_1  and  C_53
    2  A    between atoms: C_4  and  C_35
    3  A    between atoms: C_4  and  O_37
    4  A    between atoms: C_6  and  C_22
    5  A    between atoms: C_8  and  C_43
    6  A    between atoms: C_8  and  S_51
    7  A    between atoms: N_10  and  C_32
    8  A    between atoms: O_11  and  C_29
    9  A    between atoms: S_19  and  C_26
   10  A    between atoms: S_19  and  C_40
   11  A    between atoms: C_24  and  C_44
   12  A    between atoms: C_27  and  C_54
   13  A    between atoms: C_28  and  C_31
   14  A    between atoms: C_29  and  C_38
   15  A    between atoms: C_31  and  C_44
   16  A    between atoms: C_33  and  C_52
   17  A    between atoms: C_35  and  C_43
   18  A    between atoms: O_37  and  C_40
                            x       y       z     vdW  Elec       q    Type
                         _______ _______ _______ _____ _____    ______ ____

>  <TORSDO>
F 18

$$$$
=
 OpenBabel11052419263D

 55 62  0  0  1  0  0  0  0  0999 V2000
  195.6790  173.5920  143.9850 C   0  0  0  0  0  1  0  0  0  0  0  0
  195.6620  174.8310  143.1160 C   0  0  1  0  0  3  0  0  0  0  0  0
  194.7680  174.4730  141.5740 S   0  0  0  0  0  0  0  0  0  0  0  0
  197.6870  173.9840  137.8410 O   0  0  0  0  0  0  0  0  0  0  0  0
  195.2360  170.8190  141.5160 C   0  0  0  0  0  2  0  0  0  0  0  0
  196.5400  170.0300  141.4140 C   0  0  0  0  0  2  0  0  0  0  0  0
  195.2090  171.9710  140.5120 C   0  0  1  0  0  3  0  0  0  0  0  0
  196.9570  170.8790  139.2100 O   0  0  0  0  0  0  0  0  0  0  0  0
  196.8030  169.6930  139.9490 C   0  0  0  0  0  2  0  0  0  0  0  0
  195.9610  173.1980  141.0610 C   0  0  1  0  0  3  0  0  0  0  0  0
  196.8140  175.0820  137.8910 C   0  0  2  0  0  3  0  0  0  0  0  0
  195.7220  172.6340  138.1160 C   0  0  2  0  0  3  0  0  0  0  0  0
  195.6840  171.4800  139.1220 C   0  0  2  0  0  3  0  0  0  0  0  0
  197.0090  173.7870  140.1110 C   0  0  0  0  0  2  0  0  0  0  0  0
  196.5490  173.8240  138.6530 C   0  0  1  0  0  0  0  0  0  0  0  0
  193.8240  172.3970  136.5100 C   0  0  0  0  0  3  0  0  0  0  0  0
  191.7310  173.6030  136.7910 C   0  0  0  0  0  0  0  0  0  0  0  0
  193.5380  173.8970  138.3850 C   0  0  0  0  0  3  0  0  0  0  0  0
  192.2470  174.2000  137.9500 C   0  0  0  0  0  3  0  0  0  0  0  0
  192.5320  172.6980  136.0740 C   0  0  0  0  0  3  0  0  0  0  0  0
  194.3350  172.9960  137.6640 C   0  0  0  0  0  0  0  0  0  0  0  0
  190.3990  173.9110  136.3550 N   0  0  0  0  0  0  0  0  0  0  0  0
  189.4380  174.2160  137.2620 O   0  0  0  0  0  1  0  0  0  0  0  0
  190.0110  173.7760  134.9600 C   0  0  0  0  0  1  0  0  0  0  0  0
  196.0800  175.1890  136.5670 C   0  0  0  0  0  2  0  0  0  0  0  0
  196.6320  176.3530  135.7680 C   0  0  0  0  0  2  0  0  0  0  0  0
  195.5070  177.0510  135.0260 C   0  0  0  0  0  2  0  0  0  0  0  0
  194.2740  176.6540  135.5480 O   0  0  0  0  0  1  0  0  0  0  0  0
  195.0260  175.8700  143.7980 O   0  0  0  0  0  0  0  0  0  0  0  0
  195.2800  175.6150  145.1480 C   0  0  0  0  0  2  0  0  0  0  0  0
  194.1310  176.1340  145.9980 C   0  0  0  0  0  2  0  0  0  0  0  0
  193.1350  176.9290  145.1590 C   0  0  0  0  0  2  0  0  0  0  0  0
  191.4890  176.8480  147.6230 O   0  0  0  0  0  0  0  0  0  0  0  0
  191.7040  176.3880  145.2660 C   0  0  1  0  0  0  0  0  0  0  0  0
  191.4850  175.8220  146.6580 C   0  0  2  0  0  3  0  0  0  0  0  0
  189.7960  177.3610  146.0300 C   0  0  1  0  0  3  0  0  0  0  0  0
  190.2410  176.4280  147.1330 C   0  0  2  0  0  3  0  0  0  0  0  0
  190.7850  177.4260  145.0310 O   0  0  0  0  0  0  0  0  0  0  0  0
  186.0610  178.7720  145.7390 C   0  0  0  0  0  2  0  0  0  0  0  0
  188.4670  176.8920  145.4360 C   0  0  1  0  0  3  0  0  0  0  0  0
  186.2880  177.2810  145.8310 C   0  0  2  0  0  0  0  0  0  0  0  0
  187.4750  176.8460  146.4390 O   0  0  0  0  0  0  0  0  0  0  0  0
  186.5270  177.9710  144.5220 C   0  0  2  0  0  0  0  0  0  0  0  0
  185.1600  176.4680  145.9360 O   0  0  0  0  0  1  0  0  0  0  0  0
  188.0150  177.8180  144.3100 C   0  0  2  0  0  3  0  0  0  0  0  0
  188.3760  177.2330  142.9800 C   0  0  0  0  0  0  0  0  0  0  0  0
  188.2670  175.8650  142.7550 O   0  0  0  0  0  1  0  0  0  0  0  0
  188.7880  177.9880  142.0620 O   0  0  0  0  0  0  0  0  0  0  0  0
  185.4860  177.6810  143.4420 C   0  0  0  0  0  2  0  0  0  0  0  0
  185.4430  178.7350  142.5320 O   0  0  0  0  0  0  0  0  0  0  0  0
  185.0130  178.1500  141.3420 C   0  0  0  0  0  1  0  0  0  0  0  0
  191.4270  175.0680  144.0480 S   0  0  0  0  0  0  0  0  0  0  0  0
  191.6040  173.6850  144.8570 C   0  0  0  0  0  2  0  0  0  0  0  0
  191.4730  172.3850  144.1450 C   0  0  0  0  0  2  0  0  0  0  0  0
  192.6850  171.7000  144.1980 O   0  0  0  0  0  1  0  0  0  0  0  0
  2 29  1  0  0  0  0
  2  1  1  1  0  0  0
  3  2  1  0  0  0  0
  4 11  1  0  0  0  0
  4 15  1  0  0  0  0
  6  5  1  0  0  0  0
  7 10  1  0  0  0  0
  7  5  1  1  0  0  0
  8  9  1  0  0  0  0
  9  6  1  0  0  0  0
 10  3  1  6  0  0  0
 11 25  1  6  0  0  0
 11 15  1  0  0  0  0
 12 21  1  1  0  0  0
 12 15  1  0  0  0  0
 12 13  1  0  0  0  0
 13  8  1  1  0  0  0
 13  7  1  0  0  0  0
 14 10  1  0  0  0  0
 15 14  1  1  0  0  0
 16 21  1  0  0  0  0
 17 19  2  0  0  0  0
 19 18  1  0  0  0  0
 20 16  2  0  0  0  0
 20 17  1  0  0  0  0
 21 18  2  0  0  0  0
 22 17  1  0  0  0  0
 22 23  1  0  0  0  0
 24 22  1  0  0  0  0
 26 25  1  0  0  0  0
 27 28  1  0  0  0  0
 27 26  1  0  0  0  0
 29 30  1  0  0  0  0
 30 31  1  0  0  0  0
 32 31  1  0  0  0  0
 34 32  1  6  0  0  0
 34 35  1  0  0  0  0
 35 37  1  0  0  0  0
 35 33  1  1  0  0  0
 36 38  1  6  0  0  0
 36 37  1  0  0  0  0
 37 33  1  1  0  0  0
 38 34  1  0  0  0  0
 39 41  1  0  0  0  0
 40 36  1  0  0  0  0
 40 42  1  1  0  0  0
 41 44  1  1  0  0  0
 41 42  1  0  0  0  0
 43 49  1  6  0  0  0
 43 39  1  0  0  0  0
 43 41  1  0  0  0  0
 45 46  1  6  0  0  0
 45 43  1  0  0  0  0
 45 40  1  0  0  0  0
 47 46  1  0  0  0  0
 48 46  2  0  0  0  0
 50 49  1  0  0  0  0
 51 50  1  0  0  0  0
 52 53  1  0  0  0  0
 52 34  1  0  0  0  0
 54 55  1  0  0  0  0
 54 53  1  0  0  0  0
M  END
>  <MODEL>
4

>  <REMARK>
 VINA RESULT:      -5.8      1.898      2.860
  Name = 
  18 active torsions:
  status: ('A' for Active; 'I' for Inactive)
    1  A    between atoms: C_1  and  C_53
    2  A    between atoms: C_4  and  C_35
    3  A    between atoms: C_4  and  O_37
    4  A    between atoms: C_6  and  C_22
    5  A    between atoms: C_8  and  C_43
    6  A    between atoms: C_8  and  S_51
    7  A    between atoms: N_10  and  C_32
    8  A    between atoms: O_11  and  C_29
    9  A    between atoms: S_19  and  C_26
   10  A    between atoms: S_19  and  C_40
   11  A    between atoms: C_24  and  C_44
   12  A    between atoms: C_27  and  C_54
   13  A    between atoms: C_28  and  C_31
   14  A    between atoms: C_29  and  C_38
   15  A    between atoms: C_31  and  C_44
   16  A    between atoms: C_33  and  C_52
   17  A    between atoms: C_35  and  C_43
   18  A    between atoms: O_37  and  C_40
                            x       y       z     vdW  Elec       q    Type
                         _______ _______ _______ _____ _____    ______ ____

>  <TORSDO>
F 18

$$$$
=
 OpenBabel11052419263D

 55 62  0  0  1  0  0  0  0  0999 V2000
  196.3150  174.2430  145.7820 C   0  0  0  0  0  1  0  0  0  0  0  0
  195.2670  175.0410  145.0380 C   0  0  1  0  0  3  0  0  0  0  0  0
  195.0790  174.3730  143.3580 S   0  0  0  0  0  0  0  0  0  0  0  0
  197.4700  170.9700  141.0340 O   0  0  0  0  0  0  0  0  0  0  0  0
  194.2420  171.4120  145.3830 C   0  0  0  0  0  2  0  0  0  0  0  0
  195.1830  170.3470  145.9430 C   0  0  0  0  0  2  0  0  0  0  0  0
  194.5720  171.7270  143.9250 C   0  0  1  0  0  3  0  0  0  0  0  0
  195.7680  169.6110  143.7360 O   0  0  0  0  0  0  0  0  0  0  0  0
  195.2440  169.1760  144.9670 C   0  0  0  0  0  2  0  0  0  0  0  0
  195.7280  172.7390  143.8280 C   0  0  1  0  0  3  0  0  0  0  0  0
  197.0370  172.1060  140.3320 C   0  0  2  0  0  3  0  0  0  0  0  0
  195.1730  170.7110  141.6780 C   0  0  2  0  0  3  0  0  0  0  0  0
  194.7810  170.4150  143.1290 C   0  0  2  0  0  3  0  0  0  0  0  0
  196.8710  172.3220  142.8960 C   0  0  0  0  0  2  0  0  0  0  0  0
  196.3860  171.6640  141.6030 C   0  0  1  0  0  0  0  0  0  0  0  0
  193.6800  172.5250  140.8290 C   0  0  0  0  0  3  0  0  0  0  0  0
  191.7820  172.0690  139.3800 C   0  0  0  0  0  0  0  0  0  0  0  0
  193.1790  170.2510  140.1770 C   0  0  0  0  0  3  0  0  0  0  0  0
  192.0880  170.7010  139.4330 C   0  0  0  0  0  3  0  0  0  0  0  0
  192.5880  172.9770  140.0860 C   0  0  0  0  0  3  0  0  0  0  0  0
  193.9790  171.1610  140.8830 C   0  0  0  0  0  0  0  0  0  0  0  0
  190.6640  172.5260  138.6050 N   0  0  0  0  0  0  0  0  0  0  0  0
  189.5400  171.7710  138.5180 O   0  0  0  0  0  1  0  0  0  0  0  0
  190.7500  173.7290  137.7920 C   0  0  0  0  0  1  0  0  0  0  0  0
  196.3260  171.6630  139.0670 C   0  0  0  0  0  2  0  0  0  0  0  0
  196.1580  172.8460  138.1340 C   0  0  0  0  0  2  0  0  0  0  0  0
  196.5450  174.1270  138.8490 C   0  0  0  0  0  2  0  0  0  0  0  0
  196.6550  175.1720  137.9300 O   0  0  0  0  0  1  0  0  0  0  0  0
  194.0490  174.9560  145.7170 O   0  0  0  0  0  0  0  0  0  0  0  0
  194.0020  176.1070  146.5060 C   0  0  0  0  0  2  0  0  0  0  0  0
  192.5790  176.3470  146.9860 C   0  0  0  0  0  2  0  0  0  0  0  0
  191.6580  175.1980  146.5890 C   0  0  0  0  0  2  0  0  0  0  0  0
  188.9030  174.9620  147.6590 O   0  0  0  0  0  0  0  0  0  0  0  0
  190.3790  175.6770  145.8920 C   0  0  1  0  0  0  0  0  0  0  0  0
  189.2200  174.7840  146.2980 C   0  0  2  0  0  3  0  0  0  0  0  0
  188.7360  177.0860  146.5940 C   0  0  1  0  0  3  0  0  0  0  0  0
  188.1560  175.6950  146.7210 C   0  0  2  0  0  3  0  0  0  0  0  0
  190.1030  177.0050  146.2670 O   0  0  0  0  0  0  0  0  0  0  0  0
  186.7800  176.3100  143.1880 C   0  0  0  0  0  2  0  0  0  0  0  0
  187.9800  177.8860  145.5330 C   0  0  1  0  0  3  0  0  0  0  0  0
  187.4950  177.6310  143.3520 C   0  0  2  0  0  0  0  0  0  0  0  0
  188.5600  177.6800  144.2630 O   0  0  0  0  0  0  0  0  0  0  0  0
  186.1690  177.4370  144.0220 C   0  0  2  0  0  0  0  0  0  0  0  0
  187.5410  178.4750  142.2420 O   0  0  0  0  0  1  0  0  0  0  0  0
  186.5080  177.4860  145.4940 C   0  0  2  0  0  3  0  0  0  0  0  0
  185.6820  178.4650  146.2690 C   0  0  0  0  0  0  0  0  0  0  0  0
  184.6060  178.0340  147.0370 O   0  0  0  0  0  1  0  0  0  0  0  0
  185.9640  179.6900  146.2180 O   0  0  0  0  0  0  0  0  0  0  0  0
  185.0120  178.2130  143.3960 C   0  0  0  0  0  2  0  0  0  0  0  0
  184.4220  177.4520  142.3880 O   0  0  0  0  0  0  0  0  0  0  0  0
  183.3240  178.2070  141.9790 C   0  0  0  0  0  1  0  0  0  0  0  0
  190.5690  175.6030  144.0860 S   0  0  0  0  0  0  0  0  0  0  0  0
  189.8300  174.2460  143.6260 C   0  0  0  0  0  2  0  0  0  0  0  0
  189.8220  173.8530  142.1900 C   0  0  0  0  0  2  0  0  0  0  0  0
  189.3940  174.9290  141.4160 O   0  0  0  0  0  1  0  0  0  0  0  0
  2 29  1  0  0  0  0
  2  1  1  1  0  0  0
  3  2  1  0  0  0  0
  4 15  1  0  0  0  0
  5  6  1  0  0  0  0
  7  5  1  1  0  0  0
  8  9  1  0  0  0  0
  9  6  1  0  0  0  0
 10  3  1  6  0  0  0
 10  7  1  0  0  0  0
 11 25  1  6  0  0  0
 11  4  1  0  0  0  0
 11 15  1  0  0  0  0
 12 21  1  6  0  0  0
 12 13  1  0  0  0  0
 13  8  1  1  0  0  0
 13  7  1  0  0  0  0
 14 10  1  0  0  0  0
 15 12  1  0  0  0  0
 15 14  1  1  0  0  0
 16 21  1  0  0  0  0
 17 19  2  0  0  0  0
 17 20  1  0  0  0  0
 18 21  2  0  0  0  0
 19 18  1  0  0  0  0
 20 16  2  0  0  0  0
 22 17  1  0  0  0  0
 23 22  1  0  0  0  0
 24 22  1  0  0  0  0
 26 27  1  0  0  0  0
 26 25  1  0  0  0  0
 28 27  1  0  0  0  0
 29 30  1  0  0  0  0
 30 31  1  0  0  0  0
 32 31  1  0  0  0  0
 34 38  1  0  0  0  0
 34 35  1  0  0  0  0
 34 32  1  1  0  0  0
 35 37  1  0  0  0  0
 35 33  1  1  0  0  0
 36 38  1  6  0  0  0
 36 37  1  0  0  0  0
 37 33  1  1  0  0  0
 39 41  1  0  0  0  0
 39 43  1  0  0  0  0
 40 42  1  6  0  0  0
 40 36  1  0  0  0  0
 41 44  1  6  0  0  0
 41 43  1  0  0  0  0
 41 42  1  0  0  0  0
 43 49  1  6  0  0  0
 43 45  1  0  0  0  0
 45 40  1  0  0  0  0
 45 46  1  1  0  0  0
 46 47  1  0  0  0  0
 48 46  2  0  0  0  0
 50 49  1  0  0  0  0
 51 50  1  0  0  0  0
 52 34  1  0  0  0  0
 53 52  1  0  0  0  0
 54 53  1  0  0  0  0
 55 54  1  0  0  0  0
M  END
>  <MODEL>
5

>  <REMARK>
 VINA RESULT:      -5.7      1.553      2.417
  Name = 
  18 active torsions:
  status: ('A' for Active; 'I' for Inactive)
    1  A    between atoms: C_1  and  C_53
    2  A    between atoms: C_4  and  C_35
    3  A    between atoms: C_4  and  O_37
    4  A    between atoms: C_6  and  C_22
    5  A    between atoms: C_8  and  C_43
    6  A    between atoms: C_8  and  S_51
    7  A    between atoms: N_10  and  C_32
    8  A    between atoms: O_11  and  C_29
    9  A    between atoms: S_19  and  C_26
   10  A    between atoms: S_19  and  C_40
   11  A    between atoms: C_24  and  C_44
   12  A    between atoms: C_27  and  C_54
   13  A    between atoms: C_28  and  C_31
   14  A    between atoms: C_29  and  C_38
   15  A    between atoms: C_31  and  C_44
   16  A    between atoms: C_33  and  C_52
   17  A    between atoms: C_35  and  C_43
   18  A    between atoms: O_37  and  C_40
                            x       y       z     vdW  Elec       q    Type
                         _______ _______ _______ _____ _____    ______ ____

>  <TORSDO>
F 18

$$$$
=
 OpenBabel11052419263D

 55 62  0  0  1  0  0  0  0  0999 V2000
  194.2670  171.6250  145.3510 C   0  0  0  0  0  1  0  0  0  0  0  0
  193.1630  171.5120  144.3230 C   0  0  1  0  0  3  0  0  0  0  0  0
  191.9260  172.8110  144.6200 S   0  0  0  0  0  0  0  0  0  0  0  0
  191.8300  176.5310  147.5950 O   0  0  0  0  0  0  0  0  0  0  0  0
  194.8180  174.7530  143.4190 C   0  0  0  0  0  2  0  0  0  0  0  0
  195.9580  175.3610  144.2330 C   0  0  0  0  0  2  0  0  0  0  0  0
  193.4650  175.0290  144.0750 C   0  0  1  0  0  3  0  0  0  0  0  0
  194.4520  176.8600  145.3450 O   0  0  0  0  0  0  0  0  0  0  0  0
  195.6170  176.8120  144.5590 C   0  0  0  0  0  2  0  0  0  0  0  0
  193.1750  174.0070  145.1890 C   0  0  1  0  0  3  0  0  0  0  0  0
  190.6360  175.8520  147.3060 C   0  0  2  0  0  3  0  0  0  0  0  0
  192.0470  176.7950  145.2200 C   0  0  2  0  0  3  0  0  0  0  0  0
  193.3720  176.5130  144.5060 C   0  0  2  0  0  3  0  0  0  0  0  0
  192.7640  174.6210  146.5330 C   0  0  0  0  0  2  0  0  0  0  0  0
  191.8130  175.8100  146.3870 C   0  0  1  0  0  0  0  0  0  0  0  0
  190.6150  178.1010  143.6440 C   0  0  0  0  0  3  0  0  0  0  0  0
  188.8310  177.0670  142.3550 C   0  0  0  0  0  0  0  0  0  0  0  0
  190.1720  175.7350  143.8800 C   0  0  0  0  0  3  0  0  0  0  0  0
  189.1370  175.8330  142.9480 C   0  0  0  0  0  3  0  0  0  0  0  0
  189.5800  178.2000  142.7120 C   0  0  0  0  0  3  0  0  0  0  0  0
  190.9140  176.8710  144.2350 C   0  0  0  0  0  0  0  0  0  0  0  0
  187.7730  177.1580  141.3910 N   0  0  0  0  0  0  0  0  0  0  0  0
  186.9750  178.2550  141.3550 O   0  0  0  0  0  1  0  0  0  0  0  0
  187.4410  176.0380  140.5240 C   0  0  0  0  0  1  0  0  0  0  0  0
  189.5710  176.8650  146.9280 C   0  0  0  0  0  2  0  0  0  0  0  0
  188.2180  176.1850  146.8620 C   0  0  0  0  0  2  0  0  0  0  0  0
  187.1500  177.1930  146.4810 C   0  0  0  0  0  2  0  0  0  0  0  0
  186.5220  176.7990  145.2990 O   0  0  0  0  0  1  0  0  0  0  0  0
  193.7010  171.6590  143.0430 O   0  0  0  0  0  0  0  0  0  0  0  0
  194.9050  170.9520  143.0820 C   0  0  0  0  0  2  0  0  0  0  0  0
  195.8240  171.4350  141.9710 C   0  0  0  0  0  2  0  0  0  0  0  0
  195.6390  170.6120  140.7000 C   0  0  0  0  0  2  0  0  0  0  0  0
  194.8230  169.5090  138.0720 O   0  0  0  0  0  0  0  0  0  0  0  0
  194.8190  171.3470  139.6320 C   0  0  1  0  0  0  0  0  0  0  0  0
  195.2230  170.8470  138.2570 C   0  0  2  0  0  3  0  0  0  0  0  0
  192.8770  170.7800  138.5910 C   0  0  1  0  0  3  0  0  0  0  0  0
  193.9690  170.5120  137.5810 C   0  0  2  0  0  3  0  0  0  0  0  0
  193.4480  171.1050  139.8360 O   0  0  0  0  0  0  0  0  0  0  0  0
  189.6730  171.1490  136.2200 C   0  0  0  0  0  2  0  0  0  0  0  0
  191.9690  171.9120  138.1100 C   0  0  1  0  0  3  0  0  0  0  0  0
  190.6610  172.2880  136.3190 C   0  0  2  0  0  0  0  0  0  0  0  0
  191.9730  171.9720  136.6990 O   0  0  0  0  0  0  0  0  0  0  0  0
  189.6730  172.0880  137.4280 C   0  0  2  0  0  0  0  0  0  0  0  0
  190.4670  173.3780  135.4700 O   0  0  0  0  0  1  0  0  0  0  0  0
  190.5400  171.7140  138.6080 C   0  0  2  0  0  3  0  0  0  0  0  0
  190.2940  172.5520  139.8240 C   0  0  0  0  0  0  0  0  0  0  0  0
  189.4480  172.1040  140.8330 O   0  0  0  0  0  1  0  0  0  0  0  0
  190.8530  173.6740  139.9280 O   0  0  0  0  0  0  0  0  0  0  0  0
  188.5600  173.1320  137.4950 C   0  0  0  0  0  2  0  0  0  0  0  0
  189.0820  174.3970  137.2310 O   0  0  0  0  0  0  0  0  0  0  0  0
  187.9620  175.1960  137.0090 C   0  0  0  0  0  1  0  0  0  0  0  0
  195.1190  173.1370  139.7160 S   0  0  0  0  0  0  0  0  0  0  0  0
  196.3620  173.4170  138.7270 C   0  0  0  0  0  2  0  0  0  0  0  0
  196.8980  174.7970  138.5780 C   0  0  0  0  0  2  0  0  0  0  0  0
  196.8740  175.4420  139.8130 O   0  0  0  0  0  1  0  0  0  0  0  0
  2  3  1  0  0  0  0
  2  1  1  1  0  0  0
  5  6  1  0  0  0  0
  6  9  1  0  0  0  0
  7  5  1  1  0  0  0
  7 13  1  0  0  0  0
  7 10  1  0  0  0  0
  9  8  1  0  0  0  0
 10  3  1  6  0  0  0
 10 14  1  0  0  0  0
 11 25  1  6  0  0  0
 11  4  1  0  0  0  0
 12 21  1  6  0  0  0
 12 15  1  0  0  0  0
 13 12  1  0  0  0  0
 13  8  1  1  0  0  0
 15 14  1  6  0  0  0
 15 11  1  0  0  0  0
 15  4  1  0  0  0  0
 16 21  1  0  0  0  0
 17 20  1  0  0  0  0
 17 19  2  0  0  0  0
 18 21  2  0  0  0  0
 19 18  1  0  0  0  0
 20 16  2  0  0  0  0
 22 17  1  0  0  0  0
 23 22  1  0  0  0  0
 24 22  1  0  0  0  0
 26 25  1  0  0  0  0
 27 26  1  0  0  0  0
 28 27  1  0  0  0  0
 29 30  1  0  0  0  0
 29  2  1  0  0  0  0
 31 30  1  0  0  0  0
 32 31  1  0  0  0  0
 34 52  1  0  0  0  0
 34 38  1  0  0  0  0
 34 32  1  1  0  0  0
 35 33  1  1  0  0  0
 35 34  1  0  0  0  0
 36 38  1  1  0  0  0
 37 33  1  1  0  0  0
 37 35  1  0  0  0  0
 37 36  1  0  0  0  0
 39 41  1  0  0  0  0
 39 43  1  0  0  0  0
 40 42  1  6  0  0  0
 40 36  1  0  0  0  0
 40 45  1  0  0  0  0
 41 44  1  6  0  0  0
 41 42  1  0  0  0  0
 41 43  1  0  0  0  0
 43 49  1  1  0  0  0
 43 45  1  0  0  0  0
 45 46  1  1  0  0  0
 46 48  2  0  0  0  0
 46 47  1  0  0  0  0
 50 49  1  0  0  0  0
 51 50  1  0  0  0  0
 53 52  1  0  0  0  0
 54 53  1  0  0  0  0
 54 55  1  0  0  0  0
M  END
>  <MODEL>
6

>  <REMARK>
 VINA RESULT:      -5.6      2.236      8.352
  Name = 
  18 active torsions:
  status: ('A' for Active; 'I' for Inactive)
    1  A    between atoms: C_1  and  C_53
    2  A    between atoms: C_4  and  C_35
    3  A    between atoms: C_4  and  O_37
    4  A    between atoms: C_6  and  C_22
    5  A    between atoms: C_8  and  C_43
    6  A    between atoms: C_8  and  S_51
    7  A    between atoms: N_10  and  C_32
    8  A    between atoms: O_11  and  C_29
    9  A    between atoms: S_19  and  C_26
   10  A    between atoms: S_19  and  C_40
   11  A    between atoms: C_24  and  C_44
   12  A    between atoms: C_27  and  C_54
   13  A    between atoms: C_28  and  C_31
   14  A    between atoms: C_29  and  C_38
   15  A    between atoms: C_31  and  C_44
   16  A    between atoms: C_33  and  C_52
   17  A    between atoms: C_35  and  C_43
   18  A    between atoms: O_37  and  C_40
                            x       y       z     vdW  Elec       q    Type
                         _______ _______ _______ _____ _____    ______ ____

>  <TORSDO>
F 18

$$$$
=
 OpenBabel11052419263D

 55 62  0  0  1  0  0  0  0  0999 V2000
  196.4230  175.6850  143.6990 C   0  0  0  0  0  1  0  0  0  0  0  0
  194.9610  175.9590  143.4200 C   0  0  1  0  0  3  0  0  0  0  0  0
  194.5980  175.5810  141.6790 S   0  0  0  0  0  0  0  0  0  0  0  0
  197.5070  173.9620  138.2710 O   0  0  0  0  0  0  0  0  0  0  0  0
  195.2250  172.1470  142.8570 C   0  0  0  0  0  2  0  0  0  0  0  0
  196.5610  171.4220  143.0010 C   0  0  0  0  0  2  0  0  0  0  0  0
  195.1400  172.8860  141.5220 C   0  0  1  0  0  3  0  0  0  0  0  0
  196.9240  171.4840  140.6300 O   0  0  0  0  0  0  0  0  0  0  0  0
  196.8280  170.6160  141.7330 C   0  0  0  0  0  2  0  0  0  0  0  0
  195.8410  174.2550  141.6040 C   0  0  1  0  0  3  0  0  0  0  0  0
  196.5870  174.9770  137.9640 C   0  0  2  0  0  3  0  0  0  0  0  0
  195.6050  172.7120  139.0330 C   0  0  2  0  0  3  0  0  0  0  0  0
  195.6250  171.9690  140.3720 C   0  0  2  0  0  3  0  0  0  0  0  0
  196.8560  174.5250  140.4870 C   0  0  0  0  0  2  0  0  0  0  0  0
  196.3830  174.0450  139.1140 C   0  0  1  0  0  0  0  0  0  0  0  0
  193.7500  171.9430  137.5480 C   0  0  0  0  0  3  0  0  0  0  0  0
  191.5680  173.0170  137.5380 C   0  0  0  0  0  0  0  0  0  0  0  0
  193.3280  173.8310  138.9990 C   0  0  0  0  0  3  0  0  0  0  0  0
  192.0230  173.9180  138.5120 C   0  0  0  0  0  3  0  0  0  0  0  0
  192.4450  172.0280  137.0600 C   0  0  0  0  0  3  0  0  0  0  0  0
  194.2000  172.8450  138.5150 C   0  0  0  0  0  0  0  0  0  0  0  0
  190.2220  173.1050  137.0490 N   0  0  0  0  0  0  0  0  0  0  0  0
  189.2330  173.5650  137.8550 O   0  0  0  0  0  1  0  0  0  0  0  0
  189.8590  172.5870  135.7400 C   0  0  0  0  0  1  0  0  0  0  0  0
  195.8390  174.5970  136.6990 C   0  0  0  0  0  2  0  0  0  0  0  0
  195.4240  175.8510  135.9550 C   0  0  0  0  0  2  0  0  0  0  0  0
  196.6530  176.5880  135.4580 C   0  0  0  0  0  2  0  0  0  0  0  0
  196.2810  177.5710  134.5390 O   0  0  0  0  0  1  0  0  0  0  0  0
  194.1710  175.1610  144.2490 O   0  0  0  0  0  0  0  0  0  0  0  0
  194.4990  175.5640  145.5460 C   0  0  0  0  0  2  0  0  0  0  0  0
  193.2340  175.9120  146.3150 C   0  0  0  0  0  2  0  0  0  0  0  0
  192.1560  174.8500  146.1200 C   0  0  0  0  0  2  0  0  0  0  0  0
  189.4160  174.9530  147.2460 O   0  0  0  0  0  0  0  0  0  0  0  0
  190.9110  175.3920  145.4070 C   0  0  1  0  0  0  0  0  0  0  0  0
  189.6850  174.6440  145.8990 C   0  0  2  0  0  3  0  0  0  0  0  0
  189.4200  176.9960  146.0230 C   0  0  1  0  0  3  0  0  0  0  0  0
  188.7180  175.6790  146.2660 C   0  0  2  0  0  3  0  0  0  0  0  0
  190.7660  176.7650  145.6820 O   0  0  0  0  0  0  0  0  0  0  0  0
  188.0840  176.2670  142.3200 C   0  0  0  0  0  2  0  0  0  0  0  0
  188.7170  177.7800  144.9140 C   0  0  1  0  0  3  0  0  0  0  0  0
  188.5810  177.6500  142.6730 C   0  0  2  0  0  0  0  0  0  0  0  0
  189.4920  177.7560  143.7340 O   0  0  0  0  0  0  0  0  0  0  0  0
  187.2130  177.2350  143.1240 C   0  0  2  0  0  0  0  0  0  0  0  0
  188.6660  178.5820  141.6390 O   0  0  0  0  0  1  0  0  0  0  0  0
  187.3340  177.2030  144.6300 C   0  0  2  0  0  3  0  0  0  0  0  0
  186.2820  178.0020  145.3340 C   0  0  0  0  0  0  0  0  0  0  0  0
  185.2790  177.3700  146.0590 O   0  0  0  0  0  1  0  0  0  0  0  0
  186.3060  179.2580  145.2620 O   0  0  0  0  0  0  0  0  0  0  0  0
  186.0600  177.9080  142.3830 C   0  0  0  0  0  2  0  0  0  0  0  0
  184.8570  177.2880  142.7170 O   0  0  0  0  0  0  0  0  0  0  0  0
  183.8950  178.2840  142.5520 C   0  0  0  0  0  1  0  0  0  0  0  0
  191.0540  175.1640  143.6100 S   0  0  0  0  0  0  0  0  0  0  0  0
  190.5730  173.6520  143.3230 C   0  0  0  0  0  2  0  0  0  0  0  0
  190.5930  173.1150  141.9350 C   0  0  0  0  0  2  0  0  0  0  0  0
  189.2870  172.9640  141.4750 O   0  0  0  0  0  1  0  0  0  0  0  0
  2  1  1  1  0  0  0
  2 29  1  0  0  0  0
  3  2  1  0  0  0  0
  4 15  1  0  0  0  0
  5  6  1  0  0  0  0
  7 10  1  0  0  0  0
  7  5  1  1  0  0  0
  8  9  1  0  0  0  0
  9  6  1  0  0  0  0
 10  3  1  6  0  0  0
 11 25  1  6  0  0  0
 11  4  1  0  0  0  0
 11 15  1  0  0  0  0
 12 21  1  1  0  0  0
 12 15  1  0  0  0  0
 12 13  1  0  0  0  0
 13  8  1  1  0  0  0
 13  7  1  0  0  0  0
 14 10  1  0  0  0  0
 15 14  1  1  0  0  0
 16 21  1  0  0  0  0
 17 19  2  0  0  0  0
 19 18  1  0  0  0  0
 20 17  1  0  0  0  0
 20 16  2  0  0  0  0
 21 18  2  0  0  0  0
 22 17  1  0  0  0  0
 22 23  1  0  0  0  0
 24 22  1  0  0  0  0
 26 25  1  0  0  0  0
 27 26  1  0  0  0  0
 28 27  1  0  0  0  0
 29 30  1  0  0  0  0
 30 31  1  0  0  0  0
 32 31  1  0  0  0  0
 34 38  1  0  0  0  0
 34 35  1  0  0  0  0
 34 32  1  1  0  0  0
 35 37  1  0  0  0  0
 35 33  1  1  0  0  0
 36 38  1  6  0  0  0
 36 37  1  0  0  0  0
 37 33  1  1  0  0  0
 39 41  1  0  0  0  0
 39 43  1  0  0  0  0
 40 42  1  6  0  0  0
 40 36  1  0  0  0  0
 41 44  1  6  0  0  0
 41 43  1  0  0  0  0
 41 42  1  0  0  0  0
 43 49  1  6  0  0  0
 43 45  1  0  0  0  0
 45 40  1  0  0  0  0
 45 46  1  1  0  0  0
 46 47  1  0  0  0  0
 48 46  2  0  0  0  0
 49 50  1  0  0  0  0
 51 50  1  0  0  0  0
 52 34  1  0  0  0  0
 53 52  1  0  0  0  0
 54 53  1  0  0  0  0
 55 54  1  0  0  0  0
M  END
>  <MODEL>
7

>  <REMARK>
 VINA RESULT:      -5.5      1.936      3.036
  Name = 
  18 active torsions:
  status: ('A' for Active; 'I' for Inactive)
    1  A    between atoms: C_1  and  C_53
    2  A    between atoms: C_4  and  C_35
    3  A    between atoms: C_4  and  O_37
    4  A    between atoms: C_6  and  C_22
    5  A    between atoms: C_8  and  C_43
    6  A    between atoms: C_8  and  S_51
    7  A    between atoms: N_10  and  C_32
    8  A    between atoms: O_11  and  C_29
    9  A    between atoms: S_19  and  C_26
   10  A    between atoms: S_19  and  C_40
   11  A    between atoms: C_24  and  C_44
   12  A    between atoms: C_27  and  C_54
   13  A    between atoms: C_28  and  C_31
   14  A    between atoms: C_29  and  C_38
   15  A    between atoms: C_31  and  C_44
   16  A    between atoms: C_33  and  C_52
   17  A    between atoms: C_35  and  C_43
   18  A    between atoms: O_37  and  C_40
                            x       y       z     vdW  Elec       q    Type
                         _______ _______ _______ _____ _____    ______ ____

>  <TORSDO>
F 18

$$$$
=
 OpenBabel11052419263D

 55 62  0  0  1  0  0  0  0  0999 V2000
  189.0410  173.3940  141.6570 C   0  0  0  0  0  1  0  0  0  0  0  0
  190.1950  173.2910  142.6300 C   0  0  1  0  0  3  0  0  0  0  0  0
  189.5490  172.9720  144.2990 S   0  0  0  0  0  0  0  0  0  0  0  0
  189.0790  176.7500  147.1640 O   0  0  0  0  0  0  0  0  0  0  0  0
  192.7070  174.7530  143.6450 C   0  0  0  0  0  2  0  0  0  0  0  0
  193.7030  175.3230  144.6530 C   0  0  0  0  0  2  0  0  0  0  0  0
  191.2710  175.1040  144.0310 C   0  0  1  0  0  3  0  0  0  0  0  0
  192.0900  176.9120  145.4460 O   0  0  0  0  0  0  0  0  0  0  0  0
  193.3790  176.7940  144.8940 C   0  0  0  0  0  2  0  0  0  0  0  0
  190.7260  174.1190  145.0810 C   0  0  1  0  0  3  0  0  0  0  0  0
  187.9290  176.1210  146.6620 C   0  0  2  0  0  3  0  0  0  0  0  0
  189.7520  176.9570  144.8700 C   0  0  2  0  0  3  0  0  0  0  0  0
  191.1720  176.5990  144.4210 C   0  0  2  0  0  3  0  0  0  0  0  0
  190.1010  174.7780  146.3170 C   0  0  0  0  0  2  0  0  0  0  0  0
  189.2550  176.0060  145.9820 C   0  0  1  0  0  0  0  0  0  0  0  0
  189.0320  178.0980  142.7670 C   0  0  0  0  0  3  0  0  0  0  0  0
  187.1610  177.2980  141.4360 C   0  0  0  0  0  0  0  0  0  0  0  0
  187.7930  176.1460  143.4770 C   0  0  0  0  0  3  0  0  0  0  0  0
  186.9640  176.2620  142.3600 C   0  0  0  0  0  3  0  0  0  0  0  0
  188.2030  178.2150  141.6500 C   0  0  0  0  0  3  0  0  0  0  0  0
  188.8300  177.0660  143.6880 C   0  0  0  0  0  0  0  0  0  0  0  0
  186.3110  177.4060  140.2850 N   0  0  0  0  0  0  0  0  0  0  0  0
  186.7190  176.9180  139.0870 O   0  0  0  0  0  1  0  0  0  0  0  0
  185.0630  178.1510  140.3350 C   0  0  0  0  0  1  0  0  0  0  0  0
  187.0050  177.1750  146.0790 C   0  0  0  0  0  2  0  0  0  0  0  0
  185.5620  176.7900  146.3360 C   0  0  0  0  0  2  0  0  0  0  0  0
  184.7820  178.0000  146.8160 C   0  0  0  0  0  2  0  0  0  0  0  0
  184.0340  178.5330  145.7640 O   0  0  0  0  0  1  0  0  0  0  0  0
  191.0370  172.2460  142.2440 O   0  0  0  0  0  0  0  0  0  0  0  0
  190.2020  171.3480  141.5740 C   0  0  0  0  0  2  0  0  0  0  0  0
  190.9960  170.5910  140.5210 C   0  0  0  0  0  2  0  0  0  0  0  0
  192.3200  170.0830  141.0820 C   0  0  0  0  0  2  0  0  0  0  0  0
  193.3610  169.2390  138.4380 O   0  0  0  0  0  0  0  0  0  0  0  0
  193.5370  170.6790  140.3640 C   0  0  1  0  0  0  0  0  0  0  0  0
  194.1930  169.6050  139.5140 C   0  0  2  0  0  3  0  0  0  0  0  0
  193.7460  171.5840  138.2880 C   0  0  1  0  0  3  0  0  0  0  0  0
  194.3520  170.2030  138.1870 C   0  0  2  0  0  3  0  0  0  0  0  0
  193.1280  171.7450  139.5420 O   0  0  0  0  0  0  0  0  0  0  0  0
  196.1990  172.7360  135.3410 C   0  0  0  0  0  2  0  0  0  0  0  0
  194.8180  172.6550  138.0810 C   0  0  1  0  0  3  0  0  0  0  0  0
  196.6350  172.8980  136.7790 C   0  0  2  0  0  0  0  0  0  0  0  0
  196.0460  172.0530  137.7310 O   0  0  0  0  0  0  0  0  0  0  0  0
  195.6660  173.8840  136.2000 C   0  0  2  0  0  0  0  0  0  0  0  0
  197.9410  173.3330  137.0050 O   0  0  0  0  0  1  0  0  0  0  0  0
  194.4020  173.6400  136.9920 C   0  0  2  0  0  3  0  0  0  0  0  0
  193.8280  174.8800  137.6050 C   0  0  0  0  0  0  0  0  0  0  0  0
  194.3210  175.3680  138.8100 O   0  0  0  0  0  1  0  0  0  0  0  0
  192.8870  175.4800  137.0240 O   0  0  0  0  0  0  0  0  0  0  0  0
  196.2420  175.2730  135.9360 C   0  0  0  0  0  2  0  0  0  0  0  0
  195.7440  175.7700  134.7320 O   0  0  0  0  0  0  0  0  0  0  0  0
  195.4080  177.0940  135.0150 C   0  0  0  0  0  1  0  0  0  0  0  0
  194.7510  171.2950  141.5670 S   0  0  0  0  0  0  0  0  0  0  0  0
  194.0880  171.0560  143.0170 C   0  0  0  0  0  2  0  0  0  0  0  0
  194.8120  171.4830  144.2450 C   0  0  0  0  0  2  0  0  0  0  0  0
  195.8680  170.6080  144.4910 O   0  0  0  0  0  1  0  0  0  0  0  0
  2  1  1  6  0  0  0
  2  3  1  0  0  0  0
  5  6  1  0  0  0  0
  6  9  1  0  0  0  0
  7  5  1  1  0  0  0
  7 13  1  0  0  0  0
  7 10  1  0  0  0  0
  9  8  1  0  0  0  0
 10  3  1  6  0  0  0
 10 14  1  0  0  0  0
 11 25  1  6  0  0  0
 11  4  1  0  0  0  0
 12 21  1  6  0  0  0
 12 15  1  0  0  0  0
 13 12  1  0  0  0  0
 13  8  1  1  0  0  0
 15 14  1  1  0  0  0
 15 11  1  0  0  0  0
 15  4  1  0  0  0  0
 16 21  1  0  0  0  0
 17 20  1  0  0  0  0
 17 19  2  0  0  0  0
 18 21  2  0  0  0  0
 19 18  1  0  0  0  0
 20 16  2  0  0  0  0
 22 24  1  0  0  0  0
 22 17  1  0  0  0  0
 23 22  1  0  0  0  0
 25 26  1  0  0  0  0
 26 27  1  0  0  0  0
 28 27  1  0  0  0  0
 29  2  1  0  0  0  0
 30 29  1  0  0  0  0
 31 32  1  0  0  0  0
 31 30  1  0  0  0  0
 34 32  1  1  0  0  0
 34 52  1  0  0  0  0
 35 33  1  6  0  0  0
 35 34  1  0  0  0  0
 36 38  1  1  0  0  0
 37 36  1  0  0  0  0
 37 33  1  6  0  0  0
 37 35  1  0  0  0  0
 38 34  1  0  0  0  0
 39 43  1  0  0  0  0
 39 41  1  0  0  0  0
 40 42  1  6  0  0  0
 40 36  1  0  0  0  0
 41 44  1  1  0  0  0
 41 42  1  0  0  0  0
 43 49  1  6  0  0  0
 43 41  1  0  0  0  0
 43 45  1  0  0  0  0
 45 46  1  1  0  0  0
 45 40  1  0  0  0  0
 46 47  1  0  0  0  0
 48 46  2  0  0  0  0
 50 51  1  0  0  0  0
 50 49  1  0  0  0  0
 52 53  1  0  0  0  0
 53 54  1  0  0  0  0
 54 55  1  0  0  0  0
M  END
>  <MODEL>
8

>  <REMARK>
 VINA RESULT:      -5.5      2.206      9.598
  Name = 
  18 active torsions:
  status: ('A' for Active; 'I' for Inactive)
    1  A    between atoms: C_1  and  C_53
    2  A    between atoms: C_4  and  C_35
    3  A    between atoms: C_4  and  O_37
    4  A    between atoms: C_6  and  C_22
    5  A    between atoms: C_8  and  C_43
    6  A    between atoms: C_8  and  S_51
    7  A    between atoms: N_10  and  C_32
    8  A    between atoms: O_11  and  C_29
    9  A    between atoms: S_19  and  C_26
   10  A    between atoms: S_19  and  C_40
   11  A    between atoms: C_24  and  C_44
   12  A    between atoms: C_27  and  C_54
   13  A    between atoms: C_28  and  C_31
   14  A    between atoms: C_29  and  C_38
   15  A    between atoms: C_31  and  C_44
   16  A    between atoms: C_33  and  C_52
   17  A    between atoms: C_35  and  C_43
   18  A    between atoms: O_37  and  C_40
                            x       y       z     vdW  Elec       q    Type
                         _______ _______ _______ _____ _____    ______ ____

>  <TORSDO>
F 18

$$$$
=
 OpenBabel11052419263D

 55 62  0  0  1  0  0  0  0  0999 V2000
  189.4060  175.6720  143.3730 C   0  0  0  0  0  1  0  0  0  0  0  0
  190.2340  174.8740  142.3890 C   0  0  1  0  0  3  0  0  0  0  0  0
  191.6000  174.0610  143.2710 S   0  0  0  0  0  0  0  0  0  0  0  0
  195.1210  177.1130  144.2670 O   0  0  0  0  0  0  0  0  0  0  0  0
  190.7350  175.0380  146.7160 C   0  0  0  0  0  2  0  0  0  0  0  0
  190.6490  176.4420  147.3120 C   0  0  0  0  0  2  0  0  0  0  0  0
  191.9980  174.8760  145.8710 C   0  0  1  0  0  3  0  0  0  0  0  0
  193.0010  176.7910  146.9970 O   0  0  0  0  0  0  0  0  0  0  0  0
  191.9830  176.7870  147.9670 C   0  0  0  0  0  2  0  0  0  0  0  0
  191.7870  175.4340  144.4510 C   0  0  1  0  0  3  0  0  0  0  0  0
  195.3410  176.0930  143.3280 C   0  0  2  0  0  3  0  0  0  0  0  0
  194.4900  175.3500  145.7680 C   0  0  2  0  0  3  0  0  0  0  0  0
  193.2230  175.4490  146.6250 C   0  0  2  0  0  3  0  0  0  0  0  0
  192.8670  176.4120  143.9780 C   0  0  0  0  0  2  0  0  0  0  0  0
  194.2810  175.9880  144.3760 C   0  0  1  0  0  0  0  0  0  0  0  0
  196.3150  173.6860  146.1430 C   0  0  0  0  0  3  0  0  0  0  0  0
  196.0060  171.3100  145.7270 C   0  0  0  0  0  0  0  0  0  0  0  0
  194.1900  172.8700  145.3250 C   0  0  0  0  0  3  0  0  0  0  0  0
  194.6890  171.5670  145.3200 C   0  0  0  0  0  3  0  0  0  0  0  0
  196.8150  172.3830  146.1380 C   0  0  0  0  0  3  0  0  0  0  0  0
  195.0030  173.9370  145.7330 C   0  0  0  0  0  0  0  0  0  0  0  0
  196.5090  169.9660  145.7290 N   0  0  0  0  0  0  0  0  0  0  0  0
  197.2160  169.5010  144.6700 O   0  0  0  0  0  1  0  0  0  0  0  0
  196.1670  169.0330  146.7920 C   0  0  0  0  0  1  0  0  0  0  0  0
  196.6410  175.3850  143.6640 C   0  0  0  0  0  2  0  0  0  0  0  0
  197.1760  174.6850  142.4310 C   0  0  0  0  0  2  0  0  0  0  0  0
  196.5020  173.3350  142.2700 C   0  0  0  0  0  2  0  0  0  0  0  0
  197.3200  172.3290  142.7880 O   0  0  0  0  0  1  0  0  0  0  0  0
  189.4290  173.9100  141.7780 O   0  0  0  0  0  0  0  0  0  0  0  0
  188.3780  174.6340  141.2100 C   0  0  0  0  0  2  0  0  0  0  0  0
  188.3360  174.3950  139.7100 C   0  0  0  0  0  2  0  0  0  0  0  0
  188.4920  172.9140  139.3790 C   0  0  0  0  0  2  0  0  0  0  0  0
  189.0390  173.8290  136.6120 O   0  0  0  0  0  0  0  0  0  0  0  0
  189.7600  172.6170  138.5680 C   0  0  1  0  0  0  0  0  0  0  0  0
  189.4090  172.5580  137.0920 C   0  0  2  0  0  3  0  0  0  0  0  0
  191.2280  174.0130  137.5330 C   0  0  1  0  0  3  0  0  0  0  0  0
  190.3750  173.4340  136.4270 C   0  0  2  0  0  3  0  0  0  0  0  0
  190.7100  173.6320  138.7850 O   0  0  0  0  0  0  0  0  0  0  0  0
  194.3330  174.8080  135.1340 C   0  0  0  0  0  2  0  0  0  0  0  0
  192.6770  173.5470  137.3900 C   0  0  1  0  0  3  0  0  0  0  0  0
  194.1830  173.4250  135.7250 C   0  0  2  0  0  0  0  0  0  0  0  0
  192.8940  173.0190  136.0990 O   0  0  0  0  0  0  0  0  0  0  0  0
  194.7170  174.5270  136.5890 C   0  0  2  0  0  0  0  0  0  0  0  0
  195.0810  172.4470  135.2970 O   0  0  0  0  0  1  0  0  0  0  0  0
  193.6470  174.6970  137.6420 C   0  0  2  0  0  3  0  0  0  0  0  0
  194.1700  174.6380  139.0450 C   0  0  0  0  0  0  0  0  0  0  0  0
  194.0450  173.4760  139.7980 O   0  0  0  0  0  1  0  0  0  0  0  0
  194.7210  175.6520  139.5440 O   0  0  0  0  0  0  0  0  0  0  0  0
  196.2080  174.4310  136.9060 C   0  0  0  0  0  2  0  0  0  0  0  0
  196.7920  175.6940  136.8150 O   0  0  0  0  0  0  0  0  0  0  0  0
  197.8910  175.5090  135.9770 C   0  0  0  0  0  1  0  0  0  0  0  0
  190.4770  171.0230  139.0640 S   0  0  0  0  0  0  0  0  0  0  0  0
  191.1760  171.2850  140.4930 C   0  0  0  0  0  2  0  0  0  0  0  0
  191.8970  170.1810  141.1820 C   0  0  0  0  0  2  0  0  0  0  0  0
  193.2560  170.4820  141.2490 O   0  0  0  0  0  1  0  0  0  0  0  0
  2  3  1  0  0  0  0
  2  1  1  1  0  0  0
  4 15  1  0  0  0  0
  5  6  1  0  0  0  0
  6  9  1  0  0  0  0
  7 13  1  0  0  0  0
  7  5  1  1  0  0  0
  8  9  1  0  0  0  0
 10  3  1  6  0  0  0
 10  7  1  0  0  0  0
 11 25  1  1  0  0  0
 11  4  1  0  0  0  0
 11 15  1  0  0  0  0
 12 21  1  6  0  0  0
 12 13  1  0  0  0  0
 13  8  1  6  0  0  0
 14 10  1  0  0  0  0
 15 14  1  6  0  0  0
 15 12  1  0  0  0  0
 17 22  1  0  0  0  0
 17 20  2  0  0  0  0
 18 21  1  0  0  0  0
 19 18  2  0  0  0  0
 19 17  1  0  0  0  0
 20 16  1  0  0  0  0
 21 16  2  0  0  0  0
 22 24  1  0  0  0  0
 23 22  1  0  0  0  0
 26 25  1  0  0  0  0
 27 26  1  0  0  0  0
 27 28  1  0  0  0  0
 29  2  1  0  0  0  0
 30 29  1  0  0  0  0
 31 30  1  0  0  0  0
 32 31  1  0  0  0  0
 34 38  1  0  0  0  0
 34 52  1  0  0  0  0
 34 32  1  1  0  0  0
 35 33  1  1  0  0  0
 35 34  1  0  0  0  0
 36 38  1  1  0  0  0
 37 33  1  1  0  0  0
 37 35  1  0  0  0  0
 37 36  1  0  0  0  0
 39 41  1  0  0  0  0
 39 43  1  0  0  0  0
 40 42  1  6  0  0  0
 40 36  1  0  0  0  0
 40 45  1  0  0  0  0
 41 44  1  6  0  0  0
 41 42  1  0  0  0  0
 41 43  1  0  0  0  0
 43 49  1  1  0  0  0
 43 45  1  0  0  0  0
 45 46  1  1  0  0  0
 46 48  2  0  0  0  0
 46 47  1  0  0  0  0
 50 49  1  0  0  0  0
 51 50  1  0  0  0  0
 52 53  1  0  0  0  0
 53 54  1  0  0  0  0
 54 55  1  0  0  0  0
M  END
>  <MODEL>
9

>  <REMARK>
 VINA RESULT:      -5.5      3.214      8.824
  Name = 
  18 active torsions:
  status: ('A' for Active; 'I' for Inactive)
    1  A    between atoms: C_1  and  C_53
    2  A    between atoms: C_4  and  C_35
    3  A    between atoms: C_4  and  O_37
    4  A    between atoms: C_6  and  C_22
    5  A    between atoms: C_8  and  C_43
    6  A    between atoms: C_8  and  S_51
    7  A    between atoms: N_10  and  C_32
    8  A    between atoms: O_11  and  C_29
    9  A    between atoms: S_19  and  C_26
   10  A    between atoms: S_19  and  C_40
   11  A    between atoms: C_24  and  C_44
   12  A    between atoms: C_27  and  C_54
   13  A    between atoms: C_28  and  C_31
   14  A    between atoms: C_29  and  C_38
   15  A    between atoms: C_31  and  C_44
   16  A    between atoms: C_33  and  C_52
   17  A    between atoms: C_35  and  C_43
   18  A    between atoms: O_37  and  C_40
                            x       y       z     vdW  Elec       q    Type
                         _______ _______ _______ _____ _____    ______ ____

>  <TORSDO>
F 18

$$$$
