=
 OpenBabel11052419093D

 32 35  0  0  1  0  0  0  0  0999 V2000
  188.7420  177.3880  142.9660 N   0  0  1  0  0  0  0  0  0  0  0  0
  187.6980  176.3160  144.8470 C   0  0  1  0  0  3  0  0  0  0  0  0
  189.9720  173.2190  143.6020 C   0  0  2  0  0  3  0  0  0  0  0  0
  188.3210  176.6310  141.7710 C   0  0  0  0  0  2  0  0  0  0  0  0
  187.6510  177.5280  143.9450 C   0  0  2  0  0  3  0  0  0  0  0  0
  186.2550  177.7530  146.4350 C   0  0  0  0  0  2  0  0  0  0  0  0
  190.6600  171.9740  144.1370 C   0  0  0  0  0  1  0  0  0  0  0  0
  189.1790  175.9730  144.9100 C   0  0  1  0  0  3  0  0  0  0  0  0
  185.0210  177.8560  145.5450 C   0  0  1  0  0  3  0  0  0  0  0  0
  188.8960  172.9170  142.5480 C   0  0  1  0  0  3  0  0  0  0  0  0
  189.0730  175.3140  141.7120 C   0  0  2  0  0  3  0  0  0  0  0  0
  187.0000  176.4410  146.2140 C   0  0  0  0  0  2  0  0  0  0  0  0
  186.2650  177.7320  143.3310 C   0  0  0  0  0  2  0  0  0  0  0  0
  188.1440  174.2030  142.2200 C   0  0  0  0  0  2  0  0  0  0  0  0
  190.9650  174.3110  143.1750 C   0  0  1  0  0  3  0  0  0  0  0  0
  191.9020  173.8100  142.1810 N   0  0  0  0  0  1  0  0  0  0  0  0
  189.7820  176.5940  143.6370 C   0  0  1  0  0  3  0  0  0  0  0  0
  183.9610  178.6030  146.3400 C   0  0  0  0  0  1  0  0  0  0  0  0
  190.2530  175.5590  142.6290 C   0  0  2  0  0  3  0  0  0  0  0  0
  185.3630  178.5790  144.2250 C   0  0  1  0  0  3  0  0  0  0  0  0
  184.1370  178.9000  143.4260 C   0  0  0  0  0  3  0  0  0  0  0  0
  183.7560  178.1210  142.4160 C   0  0  0  0  0  3  0  0  0  0  0  0
  182.5340  178.4590  141.6360 C   0  0  0  0  0  1  0  0  0  0  0  0
  189.4360  172.2730  141.2740 C   0  0  0  0  0  2  0  0  0  0  0  0
  189.2720  172.3840  139.0770 C   0  0  0  0  0  1  0  0  0  0  0  0
  188.5050  172.3890  140.2420 O   0  0  0  0  0  0  0  0  0  0  0  0
  189.8990  176.4610  146.1810 C   0  0  1  0  0  3  0  0  0  0  0  0
  189.3200  174.2550  146.9020 O   0  0  0  0  0  1  0  0  0  0  0  0
  190.2490  175.2800  147.0750 C   0  0  0  0  0  2  0  0  0  0  0  0
  191.1360  177.3040  145.8730 C   0  0  0  0  0  2  0  0  0  0  0  0
  192.2940  176.5880  146.1700 O   0  0  0  0  0  0  0  0  0  0  0  0
  193.1340  176.8180  145.0830 C   0  0  0  0  0  1  0  0  0  0  0  0
  1  4  1  6  0  0  0
  1 17  1  0  0  0  0
  1  5  1  0  0  0  0
  2  8  1  0  0  0  0
  2 12  1  1  0  0  0
  3  7  1  6  0  0  0
  5 13  1  6  0  0  0
  5  2  1  0  0  0  0
  8 27  1  1  0  0  0
  9 18  1  1  0  0  0
  9  6  1  0  0  0  0
 10 24  1  6  0  0  0
 10  3  1  0  0  0  0
 11  4  1  1  0  0  0
 11 14  1  0  0  0  0
 11 19  1  0  0  0  0
 12  6  1  0  0  0  0
 13 20  1  0  0  0  0
 14 10  1  0  0  0  0
 15 16  1  6  0  0  0
 15  3  1  0  0  0  0
 17  8  1  0  0  0  0
 19 15  1  0  0  0  0
 19 17  1  0  0  0  0
 20  9  1  0  0  0  0
 21 20  1  0  0  0  0
 22 21  2  0  0  0  0
 23 22  1  0  0  0  0
 25 26  1  0  0  0  0
 26 24  1  0  0  0  0
 27 29  1  0  0  0  0
 28 29  1  0  0  0  0
 30 31  1  0  0  0  0
 30 27  1  0  0  0  0
 32 31  1  0  0  0  0
M  END
>  <MODEL>
1

>  <REMARK>
 VINA RESULT:      -7.2      0.000      0.000
  Name = 
  7 active torsions:
  status: ('A' for Active; 'I' for Inactive)
    1  A    between atoms: C_10  and  C_28
    2  A    between atoms: O_11  and  C_12
    3  A    between atoms: C_12  and  C_28
    4  A    between atoms: C_14  and  C_29
    5  A    between atoms: C_15  and  C_19
    6  A    between atoms: C_19  and  O_26
    7  A    between atoms: C_28  and  C_32
                            x       y       z     vdW  Elec       q    Type
                         _______ _______ _______ _____ _____    ______ ____

>  <TORSDO>
F 7

$$$$
=
 OpenBabel11052419093D

 32 35  0  0  1  0  0  0  0  0999 V2000
  189.4840  176.9450  143.0150 N   0  0  1  0  0  0  0  0  0  0  0  0
  188.7400  175.9810  145.0880 C   0  0  1  0  0  3  0  0  0  0  0  0
  190.8620  172.8310  143.7110 C   0  0  2  0  0  3  0  0  0  0  0  0
  188.9090  176.1130  141.9410 C   0  0  0  0  0  2  0  0  0  0  0  0
  188.5440  177.1360  144.1320 C   0  0  2  0  0  3  0  0  0  0  0  0
  187.5170  177.5000  146.7800 C   0  0  0  0  0  2  0  0  0  0  0  0
  191.6400  171.6260  144.2140 C   0  0  0  0  0  1  0  0  0  0  0  0
  190.2200  175.6530  144.9550 C   0  0  1  0  0  3  0  0  0  0  0  0
  186.1660  177.5390  146.0740 C   0  0  1  0  0  3  0  0  0  0  0  0
  189.6500  172.4580  142.8440 C   0  0  1  0  0  3  0  0  0  0  0  0
  189.6650  174.8010  141.8520 C   0  0  2  0  0  3  0  0  0  0  0  0
  188.2440  176.1830  146.5310 C   0  0  0  0  0  2  0  0  0  0  0  0
  187.0800  177.2910  143.7140 C   0  0  0  0  0  2  0  0  0  0  0  0
  188.8370  173.7160  142.5530 C   0  0  0  0  0  2  0  0  0  0  0  0
  191.7640  173.9030  143.0820 C   0  0  1  0  0  3  0  0  0  0  0  0
  192.5560  173.3500  141.9940 N   0  0  0  0  0  1  0  0  0  0  0  0
  190.6230  176.2010  143.5750 C   0  0  1  0  0  3  0  0  0  0  0  0
  185.2200  178.3250  146.9690 C   0  0  0  0  0  1  0  0  0  0  0  0
  190.9610  175.1100  142.5720 C   0  0  2  0  0  3  0  0  0  0  0  0
  186.3030  178.1830  144.6780 C   0  0  1  0  0  3  0  0  0  0  0  0
  184.9690  178.4460  144.0480 C   0  0  0  0  0  3  0  0  0  0  0  0
  184.6800  177.9700  142.8390 C   0  0  0  0  0  3  0  0  0  0  0  0
  183.3490  178.2440  142.2310 C   0  0  0  0  0  1  0  0  0  0  0  0
  190.0110  171.7410  141.5450 C   0  0  0  0  0  2  0  0  0  0  0  0
  191.1460  169.9990  140.8100 C   0  0  0  0  0  1  0  0  0  0  0  0
  190.2250  170.3850  141.7840 O   0  0  0  0  0  0  0  0  0  0  0  0
  191.1080  176.2230  146.0780 C   0  0  1  0  0  3  0  0  0  0  0  0
  191.2570  175.4130  148.3240 O   0  0  0  0  0  1  0  0  0  0  0  0
  191.5720  175.1060  147.0010 C   0  0  0  0  0  2  0  0  0  0  0  0
  192.2930  177.0250  145.5440 C   0  0  0  0  0  2  0  0  0  0  0  0
  193.4870  176.3570  145.8100 O   0  0  0  0  0  0  0  0  0  0  0  0
  194.2060  176.4430  144.6190 C   0  0  0  0  0  1  0  0  0  0  0  0
  1  4  1  6  0  0  0
  1 17  1  0  0  0  0
  1  5  1  0  0  0  0
  2 12  1  1  0  0  0
  3  7  1  6  0  0  0
  5 13  1  6  0  0  0
  5  2  1  0  0  0  0
  8  2  1  0  0  0  0
  8 27  1  1  0  0  0
  9  6  1  0  0  0  0
  9 18  1  1  0  0  0
 10 24  1  6  0  0  0
 10  3  1  0  0  0  0
 11  4  1  1  0  0  0
 11 14  1  0  0  0  0
 11 19  1  0  0  0  0
 12  6  1  0  0  0  0
 13 20  1  0  0  0  0
 14 10  1  0  0  0  0
 15 16  1  6  0  0  0
 15  3  1  0  0  0  0
 17  8  1  0  0  0  0
 19 15  1  0  0  0  0
 19 17  1  0  0  0  0
 20  9  1  0  0  0  0
 21 20  1  0  0  0  0
 22 21  2  0  0  0  0
 23 22  1  0  0  0  0
 24 26  1  0  0  0  0
 25 26  1  0  0  0  0
 27 29  1  0  0  0  0
 29 28  1  0  0  0  0
 30 31  1  0  0  0  0
 30 27  1  0  0  0  0
 32 31  1  0  0  0  0
M  END
>  <MODEL>
2

>  <REMARK>
 VINA RESULT:      -6.8      1.275      1.397
  Name = 
  7 active torsions:
  status: ('A' for Active; 'I' for Inactive)
    1  A    between atoms: C_10  and  C_28
    2  A    between atoms: O_11  and  C_12
    3  A    between atoms: C_12  and  C_28
    4  A    between atoms: C_14  and  C_29
    5  A    between atoms: C_15  and  C_19
    6  A    between atoms: C_19  and  O_26
    7  A    between atoms: C_28  and  C_32
                            x       y       z     vdW  Elec       q    Type
                         _______ _______ _______ _____ _____    ______ ____

>  <TORSDO>
F 7

$$$$
=
 OpenBabel11052419093D

 32 35  0  0  1  0  0  0  0  0999 V2000
  189.3160  174.4250  145.2860 N   0  0  1  0  0  0  0  0  0  0  0  0
  189.5670  175.7580  143.3020 C   0  0  1  0  0  3  0  0  0  0  0  0
  193.4820  175.2180  144.1370 C   0  0  2  0  0  3  0  0  0  0  0  0
  189.9230  175.1990  146.3860 C   0  0  0  0  0  2  0  0  0  0  0  0
  188.5790  175.2850  144.3440 C   0  0  2  0  0  3  0  0  0  0  0  0
  187.4580  176.3090  141.9170 C   0  0  0  0  0  2  0  0  0  0  0  0
  194.8340  175.1550  143.4480 C   0  0  0  0  0  1  0  0  0  0  0  0
  190.5450  174.5990  143.1810 C   0  0  1  0  0  3  0  0  0  0  0  0
  186.8990  177.3960  142.8270 C   0  0  1  0  0  3  0  0  0  0  0  0
  193.3690  176.3580  145.1600 C   0  0  1  0  0  3  0  0  0  0  0  0
  191.4350  175.1390  146.2760 C   0  0  2  0  0  3  0  0  0  0  0  0
  188.9810  176.2590  141.9690 C   0  0  0  0  0  2  0  0  0  0  0  0
  187.8300  176.4490  144.9950 C   0  0  0  0  0  2  0  0  0  0  0  0
  191.9270  176.4500  145.6500 C   0  0  0  0  0  2  0  0  0  0  0  0
  193.0260  173.8550  144.6810 C   0  0  1  0  0  3  0  0  0  0  0  0
  194.0100  173.2980  145.5950 N   0  0  0  0  0  1  0  0  0  0  0  0
  190.4190  173.8360  144.5110 C   0  0  1  0  0  3  0  0  0  0  0  0
  185.6630  177.9590  142.1410 C   0  0  0  0  0  1  0  0  0  0  0  0
  191.6600  173.9380  145.3820 C   0  0  2  0  0  3  0  0  0  0  0  0
  186.5680  176.8200  144.2210 C   0  0  1  0  0  3  0  0  0  0  0  0
  185.8100  177.7970  145.0670 C   0  0  0  0  0  3  0  0  0  0  0  0
  185.2260  177.4100  146.1990 C   0  0  0  0  0  3  0  0  0  0  0  0
  184.4770  178.3960  147.0250 C   0  0  0  0  0  1  0  0  0  0  0  0
  194.3290  176.2330  146.3410 C   0  0  0  0  0  2  0  0  0  0  0  0
  195.1980  178.1550  145.6970 C   0  0  0  0  0  1  0  0  0  0  0  0
  194.6830  177.4960  146.8130 O   0  0  0  0  0  0  0  0  0  0  0  0
  190.3040  173.6790  141.9690 C   0  0  1  0  0  3  0  0  0  0  0  0
  192.3110  174.4570  140.9250 O   0  0  0  0  0  1  0  0  0  0  0  0
  191.6280  173.3070  141.3180 C   0  0  0  0  0  2  0  0  0  0  0  0
  189.4950  172.4330  142.3250 C   0  0  0  0  0  2  0  0  0  0  0  0
  188.1540  172.6160  141.9890 O   0  0  0  0  0  0  0  0  0  0  0  0
  188.1720  172.8810  140.6210 C   0  0  0  0  0  1  0  0  0  0  0  0
  1  4  1  1  0  0  0
  2 12  1  6  0  0  0
  2  5  1  0  0  0  0
  3  7  1  1  0  0  0
  3 15  1  0  0  0  0
  3 10  1  0  0  0  0
  5 13  1  1  0  0  0
  5  1  1  0  0  0  0
  6 12  1  0  0  0  0
  6  9  1  0  0  0  0
  8 27  1  6  0  0  0
  8  2  1  0  0  0  0
  8 17  1  0  0  0  0
  9 18  1  6  0  0  0
  9 20  1  0  0  0  0
 10 14  1  0  0  0  0
 10 24  1  1  0  0  0
 11 14  1  6  0  0  0
 11  4  1  0  0  0  0
 15 19  1  0  0  0  0
 15 16  1  1  0  0  0
 17  1  1  0  0  0  0
 17 19  1  0  0  0  0
 19 11  1  0  0  0  0
 20 13  1  0  0  0  0
 20 21  1  0  0  0  0
 21 22  2  0  0  0  0
 22 23  1  0  0  0  0
 24 26  1  0  0  0  0
 25 26  1  0  0  0  0
 27 30  1  0  0  0  0
 28 29  1  0  0  0  0
 29 27  1  0  0  0  0
 31 30  1  0  0  0  0
 32 31  1  0  0  0  0
M  END
>  <MODEL>
3

>  <REMARK>
 VINA RESULT:      -6.7      1.943      5.402
  Name = 
  7 active torsions:
  status: ('A' for Active; 'I' for Inactive)
    1  A    between atoms: C_10  and  C_28
    2  A    between atoms: O_11  and  C_12
    3  A    between atoms: C_12  and  C_28
    4  A    between atoms: C_14  and  C_29
    5  A    between atoms: C_15  and  C_19
    6  A    between atoms: C_19  and  O_26
    7  A    between atoms: C_28  and  C_32
                            x       y       z     vdW  Elec       q    Type
                         _______ _______ _______ _____ _____    ______ ____

>  <TORSDO>
F 7

$$$$
=
 OpenBabel11052419093D

 32 35  0  0  1  0  0  0  0  0999 V2000
  189.7040  176.9480  143.2630 N   0  0  1  0  0  0  0  0  0  0  0  0
  188.9010  175.5540  145.0490 C   0  0  1  0  0  3  0  0  0  0  0  0
  190.3290  172.6440  142.6400 C   0  0  2  0  0  3  0  0  0  0  0  0
  188.9310  176.5720  142.0640 C   0  0  0  0  0  2  0  0  0  0  0  0
  188.8740  176.9540  144.4790 C   0  0  2  0  0  3  0  0  0  0  0  0
  188.0690  176.6900  147.2140 C   0  0  0  0  0  2  0  0  0  0  0  0
  190.8950  171.2350  142.7050 C   0  0  0  0  0  1  0  0  0  0  0  0
  190.2860  175.0430  144.6810 C   0  0  1  0  0  3  0  0  0  0  0  0
  186.7150  177.1530  146.6890 C   0  0  1  0  0  3  0  0  0  0  0  0
  189.0270  172.7430  141.8320 C   0  0  1  0  0  3  0  0  0  0  0  0
  189.4250  175.2390  141.5360 C   0  0  2  0  0  3  0  0  0  0  0  0
  188.5260  175.4030  146.5350 C   0  0  0  0  0  2  0  0  0  0  0  0
  187.4450  177.4610  144.2730 C   0  0  0  0  0  2  0  0  0  0  0  0
  188.4470  174.1460  141.9880 C   0  0  0  0  0  2  0  0  0  0  0  0
  191.3810  173.6910  142.2460 C   0  0  1  0  0  3  0  0  0  0  0  0
  192.0010  173.3590  140.9720 N   0  0  0  0  0  1  0  0  0  0  0  0
  190.7130  175.8980  143.4740 C   0  0  1  0  0  3  0  0  0  0  0  0
  185.9770  177.7860  147.8590 C   0  0  0  0  0  1  0  0  0  0  0  0
  190.7910  175.1080  142.1770 C   0  0  2  0  0  3  0  0  0  0  0  0
  186.8970  178.1460  145.5220 C   0  0  1  0  0  3  0  0  0  0  0  0
  185.6050  178.7950  145.1290 C   0  0  0  0  0  3  0  0  0  0  0  0
  184.8510  178.2850  144.1580 C   0  0  0  0  0  3  0  0  0  0  0  0
  183.5710  178.9460  143.7840 C   0  0  0  0  0  1  0  0  0  0  0  0
  189.1820  172.3890  140.3550 C   0  0  0  0  0  2  0  0  0  0  0  0
  188.4020  173.0440  138.3980 C   0  0  0  0  0  1  0  0  0  0  0  0
  187.9940  172.6420  139.6700 O   0  0  0  0  0  0  0  0  0  0  0  0
  191.3200  175.1080  145.8210 C   0  0  1  0  0  3  0  0  0  0  0  0
  193.4420  174.3590  145.0080 O   0  0  0  0  0  1  0  0  0  0  0  0
  192.3050  173.9530  145.7050 C   0  0  0  0  0  2  0  0  0  0  0  0
  192.0480  176.4490  145.8820 C   0  0  0  0  0  2  0  0  0  0  0  0
  192.6460  176.6170  147.1310 O   0  0  0  0  0  0  0  0  0  0  0  0
  191.5750  176.7860  148.0080 C   0  0  0  0  0  1  0  0  0  0  0  0
  1  4  1  6  0  0  0
  1 17  1  0  0  0  0
  1  5  1  0  0  0  0
  2 12  1  1  0  0  0
  3  7  1  6  0  0  0
  5 13  1  6  0  0  0
  5  2  1  0  0  0  0
  8  2  1  0  0  0  0
  8 27  1  1  0  0  0
  9  6  1  0  0  0  0
  9 18  1  1  0  0  0
 10 24  1  6  0  0  0
 10 14  1  0  0  0  0
 10  3  1  0  0  0  0
 11 14  1  1  0  0  0
 11  4  1  0  0  0  0
 11 19  1  0  0  0  0
 12  6  1  0  0  0  0
 13 20  1  0  0  0  0
 15 16  1  6  0  0  0
 15  3  1  0  0  0  0
 17  8  1  0  0  0  0
 19 15  1  0  0  0  0
 19 17  1  0  0  0  0
 20  9  1  0  0  0  0
 21 20  1  0  0  0  0
 22 21  2  0  0  0  0
 23 22  1  0  0  0  0
 25 26  1  0  0  0  0
 26 24  1  0  0  0  0
 27 30  1  0  0  0  0
 28 29  1  0  0  0  0
 29 27  1  0  0  0  0
 30 31  1  0  0  0  0
 31 32  1  0  0  0  0
M  END
>  <MODEL>
4

>  <REMARK>
 VINA RESULT:      -6.7      1.400      1.849
  Name = 
  7 active torsions:
  status: ('A' for Active; 'I' for Inactive)
    1  A    between atoms: C_10  and  C_28
    2  A    between atoms: O_11  and  C_12
    3  A    between atoms: C_12  and  C_28
    4  A    between atoms: C_14  and  C_29
    5  A    between atoms: C_15  and  C_19
    6  A    between atoms: C_19  and  O_26
    7  A    between atoms: C_28  and  C_32
                            x       y       z     vdW  Elec       q    Type
                         _______ _______ _______ _____ _____    ______ ____

>  <TORSDO>
F 7

$$$$
=
 OpenBabel11052419093D

 32 35  0  0  1  0  0  0  0  0999 V2000
  189.8640  174.3400  145.0590 N   0  0  1  0  0  0  0  0  0  0  0  0
  189.5210  175.5370  143.0030 C   0  0  1  0  0  3  0  0  0  0  0  0
  193.4830  174.8500  142.6200 C   0  0  2  0  0  3  0  0  0  0  0  0
  190.8080  175.1470  145.8560 C   0  0  0  0  0  2  0  0  0  0  0  0
  188.8960  175.1780  144.3320 C   0  0  2  0  0  3  0  0  0  0  0  0
  187.1020  176.1100  142.3040 C   0  0  0  0  0  2  0  0  0  0  0  0
  194.5490  174.6770  141.5510 C   0  0  0  0  0  1  0  0  0  0  0  0
  190.3770  174.3250  142.6690 C   0  0  1  0  0  3  0  0  0  0  0  0
  186.8880  177.2780  143.2610 C   0  0  1  0  0  3  0  0  0  0  0  0
  193.7300  176.0540  143.5410 C   0  0  1  0  0  3  0  0  0  0  0  0
  192.2070  175.0030  145.2880 C   0  0  2  0  0  3  0  0  0  0  0  0
  188.5630  175.9870  141.8850 C   0  0  0  0  0  2  0  0  0  0  0  0
  188.4230  176.4160  145.0960 C   0  0  0  0  0  2  0  0  0  0  0  0
  192.5170  176.2480  144.4460 C   0  0  0  0  0  2  0  0  0  0  0  0
  193.1800  173.5470  143.3750 C   0  0  1  0  0  3  0  0  0  0  0  0
  194.3840  172.9960  143.9770 N   0  0  0  0  0  1  0  0  0  0  0  0
  190.6510  173.6510  144.0250 C   0  0  1  0  0  3  0  0  0  0  0  0
  185.5170  177.8600  142.9530 C   0  0  0  0  0  1  0  0  0  0  0  0
  192.1050  173.7410  144.4570 C   0  0  2  0  0  3  0  0  0  0  0  0
  186.9940  176.8040  144.7270 C   0  0  1  0  0  3  0  0  0  0  0  0
  186.5680  177.8670  145.6930 C   0  0  0  0  0  3  0  0  0  0  0  0
  185.7280  177.5880  146.6880 C   0  0  0  0  0  3  0  0  0  0  0  0
  185.3180  178.6600  147.6360 C   0  0  0  0  0  1  0  0  0  0  0  0
  195.0070  175.9500  144.3720 C   0  0  0  0  0  2  0  0  0  0  0  0
  196.8080  176.7880  143.4140 C   0  0  0  0  0  1  0  0  0  0  0  0
  195.7520  177.1230  144.2610 O   0  0  0  0  0  0  0  0  0  0  0  0
  189.7420  173.3470  141.6620 C   0  0  1  0  0  3  0  0  0  0  0  0
  189.6190  173.7430  139.3060 O   0  0  0  0  0  1  0  0  0  0  0  0
  190.4900  173.3950  140.3380 C   0  0  0  0  0  2  0  0  0  0  0  0
  189.6600  171.9190  142.1970 C   0  0  0  0  0  2  0  0  0  0  0  0
  190.4320  171.0640  141.4120 O   0  0  0  0  0  0  0  0  0  0  0  0
  191.1850  170.3340  142.3300 C   0  0  0  0  0  1  0  0  0  0  0  0
  1  4  1  6  0  0  0
  2 12  1  6  0  0  0
  2  5  1  0  0  0  0
  3  7  1  1  0  0  0
  3 15  1  0  0  0  0
  3 10  1  0  0  0  0
  5  1  1  0  0  0  0
  5 13  1  1  0  0  0
  6  9  1  0  0  0  0
  8 27  1  6  0  0  0
  8  2  1  0  0  0  0
  8 17  1  0  0  0  0
  9 18  1  1  0  0  0
  9 20  1  0  0  0  0
 10 24  1  1  0  0  0
 10 14  1  0  0  0  0
 11 14  1  6  0  0  0
 11  4  1  0  0  0  0
 12  6  1  0  0  0  0
 15 16  1  1  0  0  0
 15 19  1  0  0  0  0
 17 19  1  0  0  0  0
 17  1  1  0  0  0  0
 19 11  1  0  0  0  0
 20 13  1  0  0  0  0
 20 21  1  0  0  0  0
 21 22  2  0  0  0  0
 22 23  1  0  0  0  0
 25 26  1  0  0  0  0
 26 24  1  0  0  0  0
 27 30  1  0  0  0  0
 28 29  1  0  0  0  0
 29 27  1  0  0  0  0
 31 30  1  0  0  0  0
 31 32  1  0  0  0  0
M  END
>  <MODEL>
5

>  <REMARK>
 VINA RESULT:      -6.4      2.134      5.364
  Name = 
  7 active torsions:
  status: ('A' for Active; 'I' for Inactive)
    1  A    between atoms: C_10  and  C_28
    2  A    between atoms: O_11  and  C_12
    3  A    between atoms: C_12  and  C_28
    4  A    between atoms: C_14  and  C_29
    5  A    between atoms: C_15  and  C_19
    6  A    between atoms: C_19  and  O_26
    7  A    between atoms: C_28  and  C_32
                            x       y       z     vdW  Elec       q    Type
                         _______ _______ _______ _____ _____    ______ ____

>  <TORSDO>
F 7

$$$$
=
 OpenBabel11052419093D

 32 35  0  0  1  0  0  0  0  0999 V2000
  190.5630  173.8120  144.9230 N   0  0  1  0  0  0  0  0  0  0  0  0
  191.3960  175.6650  143.6390 C   0  0  1  0  0  3  0  0  0  0  0  0
  189.2790  173.8430  140.7210 C   0  0  2  0  0  3  0  0  0  0  0  0
  191.1130  172.5930  144.2980 C   0  0  0  0  0  2  0  0  0  0  0  0
  191.5390  174.9140  144.9430 C   0  0  2  0  0  3  0  0  0  0  0  0
  192.6530  177.5510  144.8780 C   0  0  0  0  0  2  0  0  0  0  0  0
  188.5400  174.1590  139.4310 C   0  0  0  0  0  1  0  0  0  0  0  0
  189.9180  175.5270  143.3060 C   0  0  1  0  0  3  0  0  0  0  0  0
  193.9770  176.8180  145.0660 C   0  0  1  0  0  3  0  0  0  0  0  0
  190.4650  172.8870  140.5270 C   0  0  1  0  0  3  0  0  0  0  0  0
  190.3760  172.3070  143.0030 C   0  0  2  0  0  3  0  0  0  0  0  0
  191.9400  177.1050  143.6050 C   0  0  0  0  0  2  0  0  0  0  0  0
  192.9840  174.4810  145.2000 C   0  0  0  0  0  2  0  0  0  0  0  0
  191.2460  172.7870  141.8340 C   0  0  0  0  0  2  0  0  0  0  0  0
  188.3370  173.4340  141.8630 C   0  0  1  0  0  3  0  0  0  0  0  0
  187.5160  172.2950  141.4850 N   0  0  0  0  0  1  0  0  0  0  0  0
  189.4570  174.2730  144.0700 C   0  0  1  0  0  3  0  0  0  0  0  0
  194.9420  177.8020  145.7090 C   0  0  0  0  0  1  0  0  0  0  0  0
  189.1010  173.1110  143.1570 C   0  0  2  0  0  3  0  0  0  0  0  0
  193.7810  175.5570  145.9330 C   0  0  1  0  0  3  0  0  0  0  0  0
  195.0860  174.9370  146.3290 C   0  0  0  0  0  3  0  0  0  0  0  0
  195.7720  174.1840  145.4720 C   0  0  0  0  0  3  0  0  0  0  0  0
  197.0670  173.5780  145.8860 C   0  0  0  0  0  1  0  0  0  0  0  0
  190.0700  171.4970  140.0330 C   0  0  0  0  0  2  0  0  0  0  0  0
  191.2090  171.7760  138.1650 C   0  0  0  0  0  1  0  0  0  0  0  0
  191.1010  170.9410  139.2770 O   0  0  0  0  0  0  0  0  0  0  0  0
  189.0620  176.7590  143.6580 C   0  0  1  0  0  3  0  0  0  0  0  0
  188.9820  178.2730  141.8080 O   0  0  0  0  0  1  0  0  0  0  0  0
  188.2940  177.2340  142.4320 C   0  0  0  0  0  2  0  0  0  0  0  0
  188.1210  176.5060  144.8340 C   0  0  0  0  0  2  0  0  0  0  0  0
  188.2240  177.5400  145.7650 O   0  0  0  0  0  0  0  0  0  0  0  0
  189.0060  177.0080  146.7890 C   0  0  0  0  0  1  0  0  0  0  0  0
  1  4  1  6  0  0  0
  1  5  1  0  0  0  0
  2 12  1  1  0  0  0
  2  5  1  0  0  0  0
  3  7  1  6  0  0  0
  3 15  1  0  0  0  0
  5 13  1  6  0  0  0
  6  9  1  0  0  0  0
  8  2  1  0  0  0  0
  8 27  1  1  0  0  0
  8 17  1  0  0  0  0
  9 18  1  1  0  0  0
  9 20  1  0  0  0  0
 10 24  1  1  0  0  0
 10  3  1  0  0  0  0
 10 14  1  0  0  0  0
 11 14  1  6  0  0  0
 11 19  1  0  0  0  0
 11  4  1  0  0  0  0
 12  6  1  0  0  0  0
 13 20  1  0  0  0  0
 15 16  1  6  0  0  0
 15 19  1  0  0  0  0
 17  1  1  0  0  0  0
 19 17  1  0  0  0  0
 20 21  1  0  0  0  0
 22 23  1  0  0  0  0
 22 21  2  0  0  0  0
 25 26  1  0  0  0  0
 26 24  1  0  0  0  0
 27 30  1  0  0  0  0
 28 29  1  0  0  0  0
 29 27  1  0  0  0  0
 30 31  1  0  0  0  0
 31 32  1  0  0  0  0
M  END
>  <MODEL>
6

>  <REMARK>
 VINA RESULT:      -6.0      2.739      6.469
  Name = 
  7 active torsions:
  status: ('A' for Active; 'I' for Inactive)
    1  A    between atoms: C_10  and  C_28
    2  A    between atoms: O_11  and  C_12
    3  A    between atoms: C_12  and  C_28
    4  A    between atoms: C_14  and  C_29
    5  A    between atoms: C_15  and  C_19
    6  A    between atoms: C_19  and  O_26
    7  A    between atoms: C_28  and  C_32
                            x       y       z     vdW  Elec       q    Type
                         _______ _______ _______ _____ _____    ______ ____

>  <TORSDO>
F 7

$$$$
=
 OpenBabel11052419093D

 32 35  0  0  1  0  0  0  0  0999 V2000
  191.1700  175.5040  142.7380 N   0  0  1  0  0  0  0  0  0  0  0  0
  192.2970  174.6540  144.6840 C   0  0  1  0  0  3  0  0  0  0  0  0
  192.8140  171.4560  142.2710 C   0  0  2  0  0  3  0  0  0  0  0  0
  190.0270  174.6030  142.4940 C   0  0  0  0  0  2  0  0  0  0  0  0
  191.3860  175.7480  144.1740 C   0  0  2  0  0  3  0  0  0  0  0  0
  192.6920  176.2550  146.6710 C   0  0  0  0  0  2  0  0  0  0  0  0
  193.7660  170.2930  142.0470 C   0  0  0  0  0  1  0  0  0  0  0  0
  193.1830  174.3390  143.4880 C   0  0  1  0  0  3  0  0  0  0  0  0
  191.2730  176.2350  147.2300 C   0  0  1  0  0  3  0  0  0  0  0  0
  191.3870  171.0180  142.6310 C   0  0  1  0  0  3  0  0  0  0  0  0
  190.5240  173.2980  141.9020 C   0  0  2  0  0  3  0  0  0  0  0  0
  193.0500  174.9350  145.9970 C   0  0  0  0  0  2  0  0  0  0  0  0
  190.1050  175.8600  145.0020 C   0  0  0  0  0  2  0  0  0  0  0  0
  190.5680  172.2450  143.0180 C   0  0  0  0  0  2  0  0  0  0  0  0
  192.8730  172.5010  141.1460 C   0  0  1  0  0  3  0  0  0  0  0  0
  192.6010  171.8950  139.8520 N   0  0  0  0  0  1  0  0  0  0  0  0
  192.3760  174.8090  142.2650 C   0  0  1  0  0  3  0  0  0  0  0  0
  191.2870  177.0600  148.5080 C   0  0  0  0  0  1  0  0  0  0  0  0
  191.8990  173.6660  141.3850 C   0  0  2  0  0  3  0  0  0  0  0  0
  190.2750  176.7970  146.1950 C   0  0  1  0  0  3  0  0  0  0  0  0
  188.9130  177.0050  146.7830 C   0  0  0  0  0  3  0  0  0  0  0  0
  187.8210  176.6180  146.1290 C   0  0  0  0  0  3  0  0  0  0  0  0
  186.4770  176.8340  146.7310 C   0  0  0  0  0  1  0  0  0  0  0  0
  190.6810  170.2300  141.5290 C   0  0  0  0  0  2  0  0  0  0  0  0
  190.7630  168.2070  140.6560 C   0  0  0  0  0  1  0  0  0  0  0  0
  190.6120  168.8800  141.8680 O   0  0  0  0  0  0  0  0  0  0  0  0
  194.5800  174.9850  143.5360 C   0  0  1  0  0  3  0  0  0  0  0  0
  196.4020  173.9450  144.6860 O   0  0  0  0  0  1  0  0  0  0  0  0
  195.6590  173.9110  143.5060 C   0  0  0  0  0  2  0  0  0  0  0  0
  194.7940  176.0110  142.4240 C   0  0  0  0  0  2  0  0  0  0  0  0
  196.0770  176.5500  142.5040 O   0  0  0  0  0  0  0  0  0  0  0  0
  196.5170  176.5970  141.1830 C   0  0  0  0  0  1  0  0  0  0  0  0
  1  4  1  1  0  0  0
  1  5  1  0  0  0  0
  2 12  1  1  0  0  0
  3  7  1  6  0  0  0
  3 10  1  0  0  0  0
  5  2  1  0  0  0  0
  5 13  1  1  0  0  0
  6  9  1  0  0  0  0
  8 27  1  1  0  0  0
  8  2  1  0  0  0  0
  9 18  1  1  0  0  0
 10 24  1  6  0  0  0
 10 14  1  0  0  0  0
 11  4  1  1  0  0  0
 11 14  1  0  0  0  0
 12  6  1  0  0  0  0
 13 20  1  0  0  0  0
 15 16  1  6  0  0  0
 15 19  1  0  0  0  0
 15  3  1  0  0  0  0
 17  1  1  0  0  0  0
 17  8  1  0  0  0  0
 19 11  1  0  0  0  0
 19 17  1  0  0  0  0
 20 21  1  0  0  0  0
 20  9  1  0  0  0  0
 22 23  1  0  0  0  0
 22 21  2  0  0  0  0
 24 26  1  0  0  0  0
 25 26  1  0  0  0  0
 29 27  1  0  0  0  0
 29 28  1  0  0  0  0
 30 31  1  0  0  0  0
 30 27  1  0  0  0  0
 32 31  1  0  0  0  0
M  END
>  <MODEL>
7

>  <REMARK>
 VINA RESULT:      -5.7      3.043      4.965
  Name = 
  7 active torsions:
  status: ('A' for Active; 'I' for Inactive)
    1  A    between atoms: C_10  and  C_28
    2  A    between atoms: O_11  and  C_12
    3  A    between atoms: C_12  and  C_28
    4  A    between atoms: C_14  and  C_29
    5  A    between atoms: C_15  and  C_19
    6  A    between atoms: C_19  and  O_26
    7  A    between atoms: C_28  and  C_32
                            x       y       z     vdW  Elec       q    Type
                         _______ _______ _______ _____ _____    ______ ____

>  <TORSDO>
F 7

$$$$
=
 OpenBabel11052419093D

 32 35  0  0  1  0  0  0  0  0999 V2000
  192.1730  174.7650  142.6990 N   0  0  1  0  0  0  0  0  0  0  0  0
  190.7350  172.8790  143.0900 C   0  0  1  0  0  3  0  0  0  0  0  0
  187.9540  175.7950  143.3610 C   0  0  2  0  0  3  0  0  0  0  0  0
  192.1200  175.5880  143.9230 C   0  0  0  0  0  2  0  0  0  0  0  0
  192.1780  173.3240  143.0000 C   0  0  2  0  0  3  0  0  0  0  0  0
  191.7100  170.5070  142.7830 C   0  0  0  0  0  2  0  0  0  0  0  0
  186.4660  176.0250  143.1540 C   0  0  0  0  0  1  0  0  0  0  0  0
  190.0190  173.7810  142.0960 C   0  0  1  0  0  3  0  0  0  0  0  0
  192.4940  170.4430  144.0890 C   0  0  1  0  0  3  0  0  0  0  0  0
  188.4130  176.0300  144.8080 C   0  0  1  0  0  3  0  0  0  0  0  0
  190.8000  176.3320  143.9800 C   0  0  2  0  0  3  0  0  0  0  0  0
  190.4620  171.3740  142.9190 C   0  0  0  0  0  2  0  0  0  0  0  0
  192.9760  172.9340  144.2460 C   0  0  0  0  0  2  0  0  0  0  0  0
  189.8680  175.5920  144.9480 C   0  0  0  0  0  2  0  0  0  0  0  0
  188.8190  176.5140  142.3150 C   0  0  1  0  0  3  0  0  0  0  0  0
  188.5480  177.9430  142.3010 N   0  0  0  0  0  1  0  0  0  0  0  0
  190.9290  175.0150  141.9570 C   0  0  1  0  0  3  0  0  0  0  0  0
  193.0950  169.0480  144.1780 C   0  0  0  0  0  1  0  0  0  0  0  0
  190.3210  176.2780  142.5440 C   0  0  2  0  0  3  0  0  0  0  0  0
  193.5810  171.5380  144.1230 C   0  0  1  0  0  3  0  0  0  0  0  0
  194.5160  171.3660  145.2810 C   0  0  0  0  0  3  0  0  0  0  0  0
  195.8350  171.3760  145.1010 C   0  0  0  0  0  3  0  0  0  0  0  0
  196.7460  171.2030  146.2650 C   0  0  0  0  0  1  0  0  0  0  0  0
  188.2380  177.4670  145.2920 C   0  0  0  0  0  2  0  0  0  0  0  0
  186.7630  176.9390  146.8450 C   0  0  0  0  0  1  0  0  0  0  0  0
  188.0320  177.4910  146.6710 O   0  0  0  0  0  0  0  0  0  0  0  0
  189.7270  173.1290  140.7310 C   0  0  1  0  0  3  0  0  0  0  0  0
  187.4750  172.8290  141.4830 O   0  0  0  0  0  1  0  0  0  0  0  0
  188.2460  173.2450  140.3980 C   0  0  0  0  0  2  0  0  0  0  0  0
  190.5910  173.6980  139.6080 C   0  0  0  0  0  2  0  0  0  0  0  0
  191.7540  172.9430  139.4630 O   0  0  0  0  0  0  0  0  0  0  0  0
  191.2990  171.6490  139.2180 C   0  0  0  0  0  1  0  0  0  0  0  0
  1  5  1  0  0  0  0
  1  4  1  1  0  0  0
  2 12  1  6  0  0  0
  3  7  1  1  0  0  0
  3 10  1  0  0  0  0
  5  2  1  0  0  0  0
  5 13  1  1  0  0  0
  6 12  1  0  0  0  0
  6  9  1  0  0  0  0
  8 27  1  6  0  0  0
  8  2  1  0  0  0  0
  9 20  1  0  0  0  0
  9 18  1  6  0  0  0
 10 14  1  0  0  0  0
 10 24  1  6  0  0  0
 11  4  1  6  0  0  0
 11 14  1  0  0  0  0
 15 16  1  1  0  0  0
 15 19  1  0  0  0  0
 15  3  1  0  0  0  0
 17  8  1  0  0  0  0
 17 19  1  0  0  0  0
 17  1  1  0  0  0  0
 19 11  1  0  0  0  0
 20 13  1  0  0  0  0
 20 21  1  0  0  0  0
 22 21  2  0  0  0  0
 22 23  1  0  0  0  0
 24 26  1  0  0  0  0
 26 25  1  0  0  0  0
 29 27  1  0  0  0  0
 29 28  1  0  0  0  0
 30 27  1  0  0  0  0
 31 30  1  0  0  0  0
 32 31  1  0  0  0  0
M  END
>  <MODEL>
8

>  <REMARK>
 VINA RESULT:      -5.7      2.450      7.929
  Name = 
  7 active torsions:
  status: ('A' for Active; 'I' for Inactive)
    1  A    between atoms: C_10  and  C_28
    2  A    between atoms: O_11  and  C_12
    3  A    between atoms: C_12  and  C_28
    4  A    between atoms: C_14  and  C_29
    5  A    between atoms: C_15  and  C_19
    6  A    between atoms: C_19  and  O_26
    7  A    between atoms: C_28  and  C_32
                            x       y       z     vdW  Elec       q    Type
                         _______ _______ _______ _____ _____    ______ ____

>  <TORSDO>
F 7

$$$$
=
 OpenBabel11052419093D

 32 35  0  0  1  0  0  0  0  0999 V2000
  191.3500  173.1880  143.3410 N   0  0  1  0  0  0  0  0  0  0  0  0
  192.6430  175.1970  143.0720 C   0  0  1  0  0  3  0  0  0  0  0  0
  190.1170  176.5130  145.9350 C   0  0  2  0  0  3  0  0  0  0  0  0
  189.9650  173.5330  142.9660 C   0  0  0  0  0  2  0  0  0  0  0  0
  192.3400  173.8440  142.4690 C   0  0  2  0  0  3  0  0  0  0  0  0
  194.7450  175.1130  141.5740 C   0  0  0  0  0  2  0  0  0  0  0  0
  190.0480  177.5180  147.0730 C   0  0  0  0  0  1  0  0  0  0  0  0
  192.4950  174.9650  144.5680 C   0  0  1  0  0  3  0  0  0  0  0  0
  194.0320  175.1440  140.2270 C   0  0  1  0  0  3  0  0  0  0  0  0
  189.0780  176.7660  144.8330 C   0  0  1  0  0  3  0  0  0  0  0  0
  189.3260  174.3500  144.0730 C   0  0  2  0  0  3  0  0  0  0  0  0
  193.9610  175.8670  142.6430 C   0  0  0  0  0  2  0  0  0  0  0  0
  191.9250  173.9500  141.0010 C   0  0  0  0  0  2  0  0  0  0  0  0
  189.3540  175.8280  143.6610 C   0  0  0  0  0  2  0  0  0  0  0  0
  190.1520  175.0580  146.4270 C   0  0  1  0  0  3  0  0  0  0  0  0
  189.0030  174.7600  147.2680 N   0  0  0  0  0  1  0  0  0  0  0  0
  191.5810  173.7330  144.6880 C   0  0  1  0  0  3  0  0  0  0  0  0
  195.1100  175.2040  139.1550 C   0  0  0  0  0  1  0  0  0  0  0  0
  190.2130  174.0540  145.2650 C   0  0  2  0  0  3  0  0  0  0  0  0
  193.1280  173.9040  140.0630 C   0  0  1  0  0  3  0  0  0  0  0  0
  192.5890  173.7810  138.6700 C   0  0  0  0  0  3  0  0  0  0  0  0
  191.2960  173.5480  138.4560 C   0  0  0  0  0  3  0  0  0  0  0  0
  190.7820  173.4290  137.0640 C   0  0  0  0  0  1  0  0  0  0  0  0
  187.6300  176.6300  145.2970 C   0  0  0  0  0  2  0  0  0  0  0  0
  186.2880  177.8530  146.5500 C   0  0  0  0  0  1  0  0  0  0  0  0
  187.0250  177.8840  145.3660 O   0  0  0  0  0  0  0  0  0  0  0  0
  193.8250  174.7670  145.3220 C   0  0  1  0  0  3  0  0  0  0  0  0
  194.2370  176.9980  146.0810 O   0  0  0  0  0  1  0  0  0  0  0  0
  193.9020  175.7150  146.5110 C   0  0  0  0  0  2  0  0  0  0  0  0
  194.0470  173.3200  145.7560 C   0  0  0  0  0  2  0  0  0  0  0  0
  194.7830  172.6340  144.7900 O   0  0  0  0  0  0  0  0  0  0  0  0
  195.9910  173.3270  144.7180 C   0  0  0  0  0  1  0  0  0  0  0  0
  1  4  1  6  0  0  0
  1 17  1  0  0  0  0
  2 12  1  1  0  0  0
  2  8  1  0  0  0  0
  3 15  1  0  0  0  0
  3  7  1  1  0  0  0
  5 13  1  6  0  0  0
  5  2  1  0  0  0  0
  5  1  1  0  0  0  0
  6 12  1  0  0  0  0
  8 17  1  0  0  0  0
  8 27  1  6  0  0  0
  9 18  1  6  0  0  0
  9  6  1  0  0  0  0
 10 24  1  1  0  0  0
 10  3  1  0  0  0  0
 11  4  1  6  0  0  0
 11 19  1  0  0  0  0
 14 11  1  0  0  0  0
 14 10  1  0  0  0  0
 15 16  1  6  0  0  0
 17 19  1  0  0  0  0
 19 15  1  0  0  0  0
 20  9  1  0  0  0  0
 20 13  1  0  0  0  0
 21 20  1  0  0  0  0
 22 21  2  0  0  0  0
 23 22  1  0  0  0  0
 24 26  1  0  0  0  0
 26 25  1  0  0  0  0
 27 30  1  0  0  0  0
 27 29  1  0  0  0  0
 28 29  1  0  0  0  0
 31 30  1  0  0  0  0
 32 31  1  0  0  0  0
M  END
>  <MODEL>
9

>  <REMARK>
 VINA RESULT:      -5.6      2.888      6.955
  Name = 
  7 active torsions:
  status: ('A' for Active; 'I' for Inactive)
    1  A    between atoms: C_10  and  C_28
    2  A    between atoms: O_11  and  C_12
    3  A    between atoms: C_12  and  C_28
    4  A    between atoms: C_14  and  C_29
    5  A    between atoms: C_15  and  C_19
    6  A    between atoms: C_19  and  O_26
    7  A    between atoms: C_28  and  C_32
                            x       y       z     vdW  Elec       q    Type
                         _______ _______ _______ _____ _____    ______ ____

>  <TORSDO>
F 7

$$$$
