=
 OpenBabel11052420263D

 34 39  0  0  1  0  0  0  0  0999 V2000
  191.8000  175.7310  143.5510 N   0  0  0  0  0  0  0  0  0  0  0  0
  195.2730  176.0420  142.5210 C   0  0  0  0  0  3  0  0  0  0  0  0
  193.8610  175.8220  144.6000 C   0  0  0  0  0  0  0  0  0  0  0  0
  189.7040  176.1200  144.7630 C   0  0  1  0  0  3  0  0  0  0  0  0
  190.4400  176.2360  143.4080 C   0  0  0  0  0  2  0  0  0  0  0  0
  191.9500  176.4630  145.8990 C   0  0  0  0  0  0  0  0  0  0  0  0
  192.7700  176.7310  146.9550 N   0  0  0  0  0  0  0  0  0  0  0  0
  190.4890  176.8200  145.9030 C   0  0  0  0  0  2  0  0  0  0  0  0
  194.7120  176.0590  145.6800 C   0  0  0  0  0  3  0  0  0  0  0  0
  192.5170  175.9830  144.7340 C   0  0  0  0  0  0  0  0  0  0  0  0
  194.1240  176.5230  146.8760 C   0  0  0  0  0  3  0  0  0  0  0  0
  195.4380  176.0320  141.1830 C   0  0  0  0  0  3  0  0  0  0  0  0
  194.4760  175.4460  140.1630 C   0  0  2  0  0  3  0  0  0  0  0  0
  193.7310  174.1800  140.6310 C   0  0  0  0  0  2  0  0  0  0  0  0
  194.1390  175.3450  143.2160 C   0  0  1  0  0  3  0  0  0  0  0  0
  192.4980  174.5100  141.4890 C   0  0  0  0  0  2  0  0  0  0  0  0
  192.8000  175.6150  142.4940 C   0  0  1  0  0  3  0  0  0  0  0  0
  185.8100  178.2690  145.3450 C   0  0  0  0  0  2  0  0  0  0  0  0
  188.2180  177.7600  143.5810 C   0  0  0  0  0  2  0  0  0  0  0  0
  184.2680  178.1070  141.8920 C   0  0  0  0  0  0  0  0  0  0  0  0
  184.4370  178.2290  143.2760 C   0  0  0  0  0  3  0  0  0  0  0  0
  185.7040  178.1180  143.8570 C   0  0  0  0  0  0  0  0  0  0  0  0
  188.2870  176.6780  144.6590 C   0  0  2  0  0  3  0  0  0  0  0  0
  186.6580  177.7630  141.6510 C   0  0  0  0  0  3  0  0  0  0  0  0
  186.8290  177.8820  143.0330 C   0  0  0  0  0  0  0  0  0  0  0  0
  185.3870  177.8740  141.0830 C   0  0  0  0  0  3  0  0  0  0  0  0
  187.9010  177.2380  145.8860 O   0  0  0  0  0  0  0  0  0  0  0  0
  186.5130  177.0710  145.9730 C   0  0  0  0  0  2  0  0  0  0  0  0
  182.9270  178.2240  141.2980 C   0  0  0  0  0  0  0  0  0  0  0  0
  182.7280  177.8910  140.0990 O   0  0  0  0  0  0  0  0  0  0  0  0
  181.8650  178.7050  142.0550 O   0  0  0  0  0  1  0  0  0  0  0  0
  195.1800  175.2540  138.8180 C   0  0  0  0  0  3  0  0  0  0  0  0
  196.6950  175.2360  138.9510 C   0  0  0  0  0  1  0  0  0  0  0  0
  194.7030  173.9880  138.1320 C   0  0  0  0  0  1  0  0  0  0  0  0
  1 10  1  0  0  0  0
  3 10  2  0  0  0  0
  3  9  1  0  0  0  0
  4  5  1  6  0  0  0
  4  8  1  0  0  0  0
  5  1  1  0  0  0  0
  6  8  1  0  0  0  0
  6  7  2  0  0  0  0
  9 11  2  0  0  0  0
 10  6  1  0  0  0  0
 11  7  1  0  0  0  0
 12  2  2  0  0  0  0
 13 32  1  6  0  0  0
 13 14  1  0  0  0  0
 13 12  1  0  0  0  0
 14 16  1  0  0  0  0
 15  2  1  6  0  0  0
 15  3  1  0  0  0  0
 17 16  1  6  0  0  0
 17 15  1  0  0  0  0
 17  1  1  0  0  0  0
 18 28  1  0  0  0  0
 20 21  1  0  0  0  0
 21 22  2  0  0  0  0
 22 18  1  0  0  0  0
 23 19  1  6  0  0  0
 23  4  1  0  0  0  0
 23 27  1  0  0  0  0
 24 25  2  0  0  0  0
 25 19  1  0  0  0  0
 25 22  1  0  0  0  0
 26 24  1  0  0  0  0
 26 20  2  0  0  0  0
 27 28  1  0  0  0  0
 29 20  1  0  0  0  0
 29 31  1  0  0  0  0
 30 29  2  0  0  0  0
 32 33  1  0  0  0  0
 34 32  1  0  0  0  0
M  END
>  <MODEL>
1

>  <REMARK>
 VINA RESULT:      -8.5      0.000      0.000
  Name = 
  3 active torsions:
  status: ('A' for Active; 'I' for Inactive)
    1  A    between atoms: C_3  and  C_25
    2  A    between atoms: C_7  and  C_11
    3  A    between atoms: C_8  and  C_18
                            x       y       z     vdW  Elec       q    Type
                         _______ _______ _______ _____ _____    ______ ____

>  <TORSDO>
F 3

$$$$
=
 OpenBabel11052420263D

 34 39  0  0  1  0  0  0  0  0999 V2000
  190.1360  175.8690  144.5450 N   0  0  0  0  0  0  0  0  0  0  0  0
  193.7020  175.8910  143.8390 C   0  0  0  0  0  3  0  0  0  0  0  0
  192.0910  175.9420  145.7790 C   0  0  0  0  0  0  0  0  0  0  0  0
  187.9650  176.4830  145.5070 C   0  0  1  0  0  3  0  0  0  0  0  0
  188.8300  176.4330  144.2260 C   0  0  0  0  0  2  0  0  0  0  0  0
  190.1130  176.8030  146.8240 C   0  0  0  0  0  0  0  0  0  0  0  0
  190.8470  177.1210  147.9290 N   0  0  0  0  0  0  0  0  0  0  0  0
  188.6830  177.2400  146.6540 C   0  0  0  0  0  2  0  0  0  0  0  0
  192.8520  176.2290  146.9140 C   0  0  0  0  0  3  0  0  0  0  0  0
  190.7540  176.1880  145.7670 C   0  0  0  0  0  0  0  0  0  0  0  0
  192.1860  176.8320  148.0020 C   0  0  0  0  0  3  0  0  0  0  0  0
  193.9900  175.7500  142.5290 C   0  0  0  0  0  3  0  0  0  0  0  0
  193.0910  175.1280  141.4730 C   0  0  2  0  0  3  0  0  0  0  0  0
  192.2270  173.9530  141.9730 C   0  0  0  0  0  2  0  0  0  0  0  0
  192.4660  175.3260  144.4760 C   0  0  1  0  0  3  0  0  0  0  0  0
  190.9420  174.4280  142.6730 C   0  0  0  0  0  2  0  0  0  0  0  0
  191.2200  175.6020  143.6050 C   0  0  1  0  0  3  0  0  0  0  0  0
  184.1800  178.8900  145.5160 C   0  0  0  0  0  2  0  0  0  0  0  0
  186.7030  178.0870  144.0470 C   0  0  0  0  0  2  0  0  0  0  0  0
  182.9570  178.4950  141.9560 C   0  0  0  0  0  0  0  0  0  0  0  0
  183.0040  178.7350  143.3340 C   0  0  0  0  0  3  0  0  0  0  0  0
  184.2020  178.6080  144.0430 C   0  0  0  0  0  0  0  0  0  0  0  0
  186.6020  177.1080  145.2170 C   0  0  2  0  0  3  0  0  0  0  0  0
  185.3320  177.9980  141.9810 C   0  0  0  0  0  3  0  0  0  0  0  0
  185.3810  178.2350  143.3580 C   0  0  0  0  0  0  0  0  0  0  0  0
  184.1280  178.1260  141.2830 C   0  0  0  0  0  3  0  0  0  0  0  0
  186.1420  177.7990  146.3470 O   0  0  0  0  0  0  0  0  0  0  0  0
  184.7440  177.7190  146.3110 C   0  0  0  0  0  2  0  0  0  0  0  0
  181.6870  178.6310  141.2250 C   0  0  0  0  0  0  0  0  0  0  0  0
  181.4930  177.9940  140.1560 O   0  0  0  0  0  0  0  0  0  0  0  0
  180.6860  179.4680  141.7090 O   0  0  0  0  0  1  0  0  0  0  0  0
  193.9030  174.7750  140.2250 C   0  0  0  0  0  3  0  0  0  0  0  0
  195.0530  173.8260  140.5280 C   0  0  0  0  0  1  0  0  0  0  0  0
  193.0130  174.1850  139.1480 C   0  0  0  0  0  1  0  0  0  0  0  0
  1 10  1  0  0  0  0
  3  9  1  0  0  0  0
  4  5  1  6  0  0  0
  4  8  1  0  0  0  0
  5  1  1  0  0  0  0
  6  7  2  0  0  0  0
  7 11  1  0  0  0  0
  8  6  1  0  0  0  0
  9 11  2  0  0  0  0
 10  3  2  0  0  0  0
 10  6  1  0  0  0  0
 12  2  2  0  0  0  0
 13 32  1  6  0  0  0
 13 14  1  0  0  0  0
 13 12  1  0  0  0  0
 14 16  1  0  0  0  0
 15  2  1  6  0  0  0
 15  3  1  0  0  0  0
 17 16  1  1  0  0  0
 17 15  1  0  0  0  0
 17  1  1  0  0  0  0
 18 28  1  0  0  0  0
 20 21  1  0  0  0  0
 21 22  2  0  0  0  0
 22 18  1  0  0  0  0
 23 19  1  6  0  0  0
 23  4  1  0  0  0  0
 23 27  1  0  0  0  0
 24 25  2  0  0  0  0
 25 22  1  0  0  0  0
 25 19  1  0  0  0  0
 26 20  2  0  0  0  0
 26 24  1  0  0  0  0
 28 27  1  0  0  0  0
 29 31  1  0  0  0  0
 29 20  1  0  0  0  0
 30 29  2  0  0  0  0
 32 33  1  0  0  0  0
 34 32  1  0  0  0  0
M  END
>  <MODEL>
2

>  <REMARK>
 VINA RESULT:      -8.5      1.353      1.879
  Name = 
  3 active torsions:
  status: ('A' for Active; 'I' for Inactive)
    1  A    between atoms: C_3  and  C_25
    2  A    between atoms: C_7  and  C_11
    3  A    between atoms: C_8  and  C_18
                            x       y       z     vdW  Elec       q    Type
                         _______ _______ _______ _____ _____    ______ ____

>  <TORSDO>
F 3

$$$$
=
 OpenBabel11052420263D

 34 39  0  0  1  0  0  0  0  0999 V2000
  191.0160  174.2510  145.0630 N   0  0  0  0  0  0  0  0  0  0  0  0
  194.1740  173.0590  143.7120 C   0  0  0  0  0  3  0  0  0  0  0  0
  193.2620  174.5420  145.5370 C   0  0  0  0  0  0  0  0  0  0  0  0
  189.2960  175.7730  145.9210 C   0  0  1  0  0  3  0  0  0  0  0  0
  189.7090  174.8270  144.7710 C   0  0  0  0  0  2  0  0  0  0  0  0
  191.7640  176.2640  146.2700 C   0  0  0  0  0  0  0  0  0  0  0  0
  192.8250  176.9610  146.7700 N   0  0  0  0  0  0  0  0  0  0  0  0
  190.3790  176.8490  146.1960 C   0  0  0  0  0  2  0  0  0  0  0  0
  194.3560  175.2240  146.0720 C   0  0  0  0  0  3  0  0  0  0  0  0
  192.0050  175.0400  145.6780 C   0  0  0  0  0  0  0  0  0  0  0  0
  194.1010  176.4620  146.7000 C   0  0  0  0  0  3  0  0  0  0  0  0
  194.0270  172.1560  142.7210 C   0  0  0  0  0  3  0  0  0  0  0  0
  192.8080  171.2810  142.4770 C   0  0  2  0  0  3  0  0  0  0  0  0
  192.0830  170.8140  143.7550 C   0  0  0  0  0  2  0  0  0  0  0  0
  193.1730  173.2420  144.8150 C   0  0  1  0  0  3  0  0  0  0  0  0
  191.1120  171.8770  144.2980 C   0  0  0  0  0  2  0  0  0  0  0  0
  191.7330  173.2690  144.2560 C   0  0  1  0  0  3  0  0  0  0  0  0
  185.5260  178.2040  145.9660 C   0  0  0  0  0  2  0  0  0  0  0  0
  188.0930  177.4810  144.5310 C   0  0  0  0  0  2  0  0  0  0  0  0
  184.4220  178.0570  142.3480 C   0  0  0  0  0  0  0  0  0  0  0  0
  184.4240  178.2040  143.7400 C   0  0  0  0  0  3  0  0  0  0  0  0
  185.5970  178.0210  144.4790 C   0  0  0  0  0  0  0  0  0  0  0  0
  187.9480  176.4260  145.6280 C   0  0  2  0  0  3  0  0  0  0  0  0
  186.7930  177.5420  142.4190 C   0  0  0  0  0  3  0  0  0  0  0  0
  186.7970  177.6850  143.8100 C   0  0  0  0  0  0  0  0  0  0  0  0
  185.6140  177.7260  141.6910 C   0  0  0  0  0  3  0  0  0  0  0  0
  187.4520  177.0440  146.7870 O   0  0  0  0  0  0  0  0  0  0  0  0
  186.0560  176.9770  146.6990 C   0  0  0  0  0  2  0  0  0  0  0  0
  183.1790  178.2530  141.5860 C   0  0  0  0  0  0  0  0  0  0  0  0
  182.1270  178.6330  142.1660 O   0  0  0  0  0  1  0  0  0  0  0  0
  183.1530  178.0180  140.2150 O   0  0  0  0  0  0  0  0  0  0  0  0
  193.1660  170.1220  141.5440 C   0  0  0  0  0  3  0  0  0  0  0  0
  194.5620  169.5760  141.8030 C   0  0  0  0  0  1  0  0  0  0  0  0
  192.1440  169.0060  141.6490 C   0  0  0  0  0  1  0  0  0  0  0  0
  1 10  1  0  0  0  0
  3 10  2  0  0  0  0
  3  9  1  0  0  0  0
  4  5  1  6  0  0  0
  4  8  1  0  0  0  0
  5  1  1  0  0  0  0
  6  7  2  0  0  0  0
  8  6  1  0  0  0  0
  9 11  2  0  0  0  0
 10  6  1  0  0  0  0
 11  7  1  0  0  0  0
 12  2  2  0  0  0  0
 13 32  1  1  0  0  0
 13 12  1  0  0  0  0
 13 14  1  0  0  0  0
 14 16  1  0  0  0  0
 15  2  1  6  0  0  0
 15  3  1  0  0  0  0
 17 16  1  1  0  0  0
 17 15  1  0  0  0  0
 17  1  1  0  0  0  0
 18 28  1  0  0  0  0
 20 21  1  0  0  0  0
 21 22  2  0  0  0  0
 22 18  1  0  0  0  0
 23 19  1  6  0  0  0
 23  4  1  0  0  0  0
 23 27  1  0  0  0  0
 24 25  2  0  0  0  0
 25 22  1  0  0  0  0
 25 19  1  0  0  0  0
 26 20  2  0  0  0  0
 26 24  1  0  0  0  0
 28 27  1  0  0  0  0
 29 30  1  0  0  0  0
 29 20  1  0  0  0  0
 31 29  2  0  0  0  0
 32 34  1  0  0  0  0
 32 33  1  0  0  0  0
M  END
>  <MODEL>
3

>  <REMARK>
 VINA RESULT:      -8.5      2.333      2.850
  Name = 
  3 active torsions:
  status: ('A' for Active; 'I' for Inactive)
    1  A    between atoms: C_3  and  C_25
    2  A    between atoms: C_7  and  C_11
    3  A    between atoms: C_8  and  C_18
                            x       y       z     vdW  Elec       q    Type
                         _______ _______ _______ _____ _____    ______ ____

>  <TORSDO>
F 3

$$$$
=
 OpenBabel11052420263D

 34 39  0  0  1  0  0  0  0  0999 V2000
  194.8010  174.4860  144.0980 N   0  0  0  0  0  0  0  0  0  0  0  0
  197.1300  172.0110  142.8070 C   0  0  0  0  0  3  0  0  0  0  0  0
  196.2910  174.3430  142.3340 C   0  0  0  0  0  0  0  0  0  0  0  0
  193.0230  176.1740  144.1660 C   0  0  1  0  0  3  0  0  0  0  0  0
  193.4510  174.7490  144.5840 C   0  0  0  0  0  2  0  0  0  0  0  0
  194.4850  175.9020  142.1060 C   0  0  0  0  0  0  0  0  0  0  0  0
  194.9400  176.2330  140.8640 N   0  0  0  0  0  0  0  0  0  0  0  0
  193.1640  176.3900  142.6360 C   0  0  0  0  0  2  0  0  0  0  0  0
  196.7920  174.6930  141.0790 C   0  0  0  0  0  3  0  0  0  0  0  0
  195.1940  174.9690  142.8370 C   0  0  0  0  0  0  0  0  0  0  0  0
  196.0790  175.6670  140.3480 C   0  0  0  0  0  3  0  0  0  0  0  0
  197.2210  170.9080  143.5770 C   0  0  0  0  0  3  0  0  0  0  0  0
  196.8750  170.8120  145.0540 C   0  0  2  0  0  3  0  0  0  0  0  0
  197.1890  172.0780  145.8740 C   0  0  0  0  0  2  0  0  0  0  0  0
  196.7790  173.3660  143.3480 C   0  0  1  0  0  3  0  0  0  0  0  0
  196.0790  173.1380  145.7640 C   0  0  0  0  0  2  0  0  0  0  0  0
  195.5870  173.2790  144.3280 C   0  0  1  0  0  3  0  0  0  0  0  0
  189.3130  177.3220  146.4110 C   0  0  0  0  0  2  0  0  0  0  0  0
  191.0960  177.7720  144.0040 C   0  0  0  0  0  2  0  0  0  0  0  0
  186.8030  177.8350  143.6240 C   0  0  0  0  0  0  0  0  0  0  0  0
  187.3790  177.6000  144.8790 C   0  0  0  0  0  3  0  0  0  0  0  0
  188.7670  177.5700  145.0360 C   0  0  0  0  0  0  0  0  0  0  0  0
  191.5970  176.4680  144.6240 C   0  0  2  0  0  3  0  0  0  0  0  0
  189.0230  178.0190  142.6620 C   0  0  0  0  0  3  0  0  0  0  0  0
  189.6000  177.7820  143.9130 C   0  0  0  0  0  0  0  0  0  0  0  0
  187.6340  178.0440  142.5170 C   0  0  0  0  0  3  0  0  0  0  0  0
  191.5570  176.5870  146.0220 O   0  0  0  0  0  0  0  0  0  0  0  0
  190.2860  176.1490  146.4150 C   0  0  0  0  0  2  0  0  0  0  0  0
  185.3390  177.8620  143.4760 C   0  0  0  0  0  0  0  0  0  0  0  0
  184.8010  177.5380  142.3840 O   0  0  0  0  0  0  0  0  0  0  0  0
  184.5340  178.2460  144.5430 O   0  0  0  0  0  1  0  0  0  0  0  0
  197.4870  169.5480  145.6610 C   0  0  0  0  0  3  0  0  0  0  0  0
  196.8950  169.2100  147.0220 C   0  0  0  0  0  1  0  0  0  0  0  0
  197.3350  168.3660  144.7220 C   0  0  0  0  0  1  0  0  0  0  0  0
  1 17  1  0  0  0  0
  1  5  1  0  0  0  0
  2 12  2  0  0  0  0
  3 10  1  0  0  0  0
  3 15  1  0  0  0  0
  4  8  1  6  0  0  0
  4  5  1  0  0  0  0
  4 23  1  0  0  0  0
  6  8  1  0  0  0  0
  6 10  2  0  0  0  0
  7  6  1  0  0  0  0
  9  3  2  0  0  0  0
 10  1  1  0  0  0  0
 11  7  2  0  0  0  0
 11  9  1  0  0  0  0
 12 13  1  0  0  0  0
 13 32  1  1  0  0  0
 13 14  1  0  0  0  0
 15  2  1  6  0  0  0
 15 17  1  0  0  0  0
 16 14  1  0  0  0  0
 17 16  1  1  0  0  0
 18 28  1  0  0  0  0
 20 21  1  0  0  0  0
 21 22  2  0  0  0  0
 22 18  1  0  0  0  0
 23 19  1  6  0  0  0
 23 27  1  0  0  0  0
 24 25  2  0  0  0  0
 25 19  1  0  0  0  0
 25 22  1  0  0  0  0
 26 24  1  0  0  0  0
 26 20  2  0  0  0  0
 27 28  1  0  0  0  0
 29 20  1  0  0  0  0
 29 31  1  0  0  0  0
 30 29  2  0  0  0  0
 32 33  1  0  0  0  0
 34 32  1  0  0  0  0
M  END
>  <MODEL>
4

>  <REMARK>
 VINA RESULT:      -8.3      3.383      4.986
  Name = 
  3 active torsions:
  status: ('A' for Active; 'I' for Inactive)
    1  A    between atoms: C_3  and  C_25
    2  A    between atoms: C_7  and  C_11
    3  A    between atoms: C_8  and  C_18
                            x       y       z     vdW  Elec       q    Type
                         _______ _______ _______ _____ _____    ______ ____

>  <TORSDO>
F 3

$$$$
=
 OpenBabel11052420263D

 34 39  0  0  1  0  0  0  0  0999 V2000
  187.3840  177.2150  144.1740 N   0  0  0  0  0  0  0  0  0  0  0  0
  184.0670  178.6970  144.0640 C   0  0  0  0  0  3  0  0  0  0  0  0
  186.1250  178.6130  145.5200 C   0  0  0  0  0  0  0  0  0  0  0  0
  189.3620  176.0330  145.0140 C   0  0  1  0  0  3  0  0  0  0  0  0
  188.1810  176.0030  144.0180 C   0  0  0  0  0  2  0  0  0  0  0  0
  187.8760  177.3680  146.5830 C   0  0  0  0  0  0  0  0  0  0  0  0
  187.5260  177.9180  147.7810 N   0  0  0  0  0  0  0  0  0  0  0  0
  188.8790  176.2520  146.4710 C   0  0  0  0  0  2  0  0  0  0  0  0
  185.7740  179.2110  146.7310 C   0  0  0  0  0  3  0  0  0  0  0  0
  187.1750  177.7520  145.4560 C   0  0  0  0  0  0  0  0  0  0  0  0
  186.5110  178.8370  147.8740 C   0  0  0  0  0  3  0  0  0  0  0  0
  183.4030  178.4400  142.9190 C   0  0  0  0  0  3  0  0  0  0  0  0
  184.0240  178.0630  141.5840 C   0  0  2  0  0  3  0  0  0  0  0  0
  185.3790  178.7370  141.2900 C   0  0  0  0  0  2  0  0  0  0  0  0
  185.5640  178.7690  144.1480 C   0  0  1  0  0  3  0  0  0  0  0  0
  186.5550  178.0030  141.9560 C   0  0  0  0  0  2  0  0  0  0  0  0
  186.2170  177.5950  143.3850 C   0  0  1  0  0  3  0  0  0  0  0  0
  191.1230  172.0530  143.9260 C   0  0  0  0  0  2  0  0  0  0  0  0
  191.5170  175.0440  144.1940 C   0  0  0  0  0  2  0  0  0  0  0  0
  194.6140  172.2870  145.3700 C   0  0  0  0  0  0  0  0  0  0  0  0
  193.4090  171.7900  144.8600 C   0  0  0  0  0  3  0  0  0  0  0  0
  192.3820  172.6570  144.4730 C   0  0  0  0  0  0  0  0  0  0  0  0
  190.1950  174.7580  144.9060 C   0  0  2  0  0  3  0  0  0  0  0  0
  193.7720  174.5470  145.1030 C   0  0  0  0  0  3  0  0  0  0  0  0
  192.5670  174.0530  144.5960 C   0  0  0  0  0  0  0  0  0  0  0  0
  194.7900  173.6710  145.4890 C   0  0  0  0  0  3  0  0  0  0  0  0
  189.4910  173.7860  144.1790 O   0  0  0  0  0  0  0  0  0  0  0  0
  189.8990  172.5460  144.6880 C   0  0  0  0  0  2  0  0  0  0  0  0
  195.6830  171.3610  145.7750 C   0  0  0  0  0  0  0  0  0  0  0  0
  195.4610  170.1220  145.8510 O   0  0  0  0  0  0  0  0  0  0  0  0
  196.9520  171.8440  146.0790 O   0  0  0  0  0  1  0  0  0  0  0  0
  183.0110  178.2540  140.4540 C   0  0  0  0  0  3  0  0  0  0  0  0
  183.0580  177.1270  139.4330 C   0  0  0  0  0  1  0  0  0  0  0  0
  181.6040  178.3980  141.0040 C   0  0  0  0  0  1  0  0  0  0  0  0
  1 10  1  0  0  0  0
  3  9  1  0  0  0  0
  4  5  1  6  0  0  0
  4  8  1  0  0  0  0
  5  1  1  0  0  0  0
  6  7  2  0  0  0  0
  7 11  1  0  0  0  0
  8  6  1  0  0  0  0
  9 11  2  0  0  0  0
 10  3  2  0  0  0  0
 10  6  1  0  0  0  0
 12  2  2  0  0  0  0
 13 32  1  6  0  0  0
 13 12  1  0  0  0  0
 14 13  1  0  0  0  0
 14 16  1  0  0  0  0
 15  2  1  1  0  0  0
 15  3  1  0  0  0  0
 17 16  1  6  0  0  0
 17 15  1  0  0  0  0
 17  1  1  0  0  0  0
 18 22  1  0  0  0  0
 18 28  1  0  0  0  0
 19 25  1  0  0  0  0
 20 26  1  0  0  0  0
 20 29  1  0  0  0  0
 21 20  2  0  0  0  0
 22 25  2  0  0  0  0
 22 21  1  0  0  0  0
 23 19  1  6  0  0  0
 23  4  1  0  0  0  0
 24 26  2  0  0  0  0
 25 24  1  0  0  0  0
 27 28  1  0  0  0  0
 27 23  1  0  0  0  0
 29 30  2  0  0  0  0
 29 31  1  0  0  0  0
 32 34  1  0  0  0  0
 33 32  1  0  0  0  0
M  END
>  <MODEL>
5

>  <REMARK>
 VINA RESULT:      -8.3      3.823      9.527
  Name = 
  3 active torsions:
  status: ('A' for Active; 'I' for Inactive)
    1  A    between atoms: C_3  and  C_25
    2  A    between atoms: C_7  and  C_11
    3  A    between atoms: C_8  and  C_18
                            x       y       z     vdW  Elec       q    Type
                         _______ _______ _______ _____ _____    ______ ____

>  <TORSDO>
F 3

$$$$
=
 OpenBabel11052420263D

 34 39  0  0  1  0  0  0  0  0999 V2000
  193.8130  175.0830  142.3780 N   0  0  0  0  0  0  0  0  0  0  0  0
  197.3350  175.0210  141.4770 C   0  0  0  0  0  3  0  0  0  0  0  0
  195.8030  174.5280  143.4200 C   0  0  0  0  0  0  0  0  0  0  0  0
  191.7570  175.5140  143.6430 C   0  0  1  0  0  3  0  0  0  0  0  0
  192.5680  175.8430  142.3690 C   0  0  0  0  0  2  0  0  0  0  0  0
  193.9680  175.1420  144.8360 C   0  0  0  0  0  0  0  0  0  0  0  0
  194.7680  174.9750  145.9280 N   0  0  0  0  0  0  0  0  0  0  0  0
  192.5920  175.7420  144.9300 C   0  0  0  0  0  2  0  0  0  0  0  0
  196.6270  174.3190  144.5270 C   0  0  0  0  0  3  0  0  0  0  0  0
  194.5020  174.8860  143.5880 C   0  0  0  0  0  0  0  0  0  0  0  0
  196.0690  174.5560  145.8010 C   0  0  0  0  0  3  0  0  0  0  0  0
  197.5620  175.3290  140.1850 C   0  0  0  0  0  3  0  0  0  0  0  0
  196.5660  175.2100  139.0430 C   0  0  2  0  0  3  0  0  0  0  0  0
  195.5910  174.0210  139.1580 C   0  0  0  0  0  2  0  0  0  0  0  0
  196.0640  174.3840  141.9600 C   0  0  1  0  0  3  0  0  0  0  0  0
  194.3920  174.3330  140.0690 C   0  0  0  0  0  2  0  0  0  0  0  0
  194.8290  175.0670  141.3310 C   0  0  1  0  0  3  0  0  0  0  0  0
  187.9350  177.6820  142.7350 C   0  0  0  0  0  2  0  0  0  0  0  0
  189.3350  175.4960  144.2970 C   0  0  0  0  0  2  0  0  0  0  0  0
  186.3340  177.9710  146.1530 C   0  0  0  0  0  0  0  0  0  0  0  0
  186.6670  178.1850  144.8100 C   0  0  0  0  0  3  0  0  0  0  0  0
  187.6380  177.4020  144.1790 C   0  0  0  0  0  0  0  0  0  0  0  0
  190.4640  176.3260  143.6860 C   0  0  2  0  0  3  0  0  0  0  0  0
  187.9540  176.1670  146.2470 C   0  0  0  0  0  3  0  0  0  0  0  0
  188.2900  176.3800  144.9070 C   0  0  0  0  0  0  0  0  0  0  0  0
  186.9840  176.9570  146.8680 C   0  0  0  0  0  3  0  0  0  0  0  0
  190.0940  176.7080  142.3880 O   0  0  0  0  0  0  0  0  0  0  0  0
  189.4230  177.9310  142.5170 C   0  0  0  0  0  2  0  0  0  0  0  0
  185.3110  178.8050  146.8030 C   0  0  0  0  0  0  0  0  0  0  0  0
  185.5960  179.4900  147.8220 O   0  0  0  0  0  1  0  0  0  0  0  0
  184.0150  178.8460  146.2970 O   0  0  0  0  0  0  0  0  0  0  0  0
  197.2920  175.2500  137.6970 C   0  0  0  0  0  3  0  0  0  0  0  0
  197.9380  173.9190  137.3440 C   0  0  0  0  0  1  0  0  0  0  0  0
  196.3540  175.6830  136.5860 C   0  0  0  0  0  1  0  0  0  0  0  0
  1 10  1  0  0  0  0
  3 10  2  0  0  0  0
  3  9  1  0  0  0  0
  4  5  1  6  0  0  0
  4 23  1  0  0  0  0
  4  8  1  0  0  0  0
  5  1  1  0  0  0  0
  6  8  1  0  0  0  0
  6  7  2  0  0  0  0
  9 11  2  0  0  0  0
 10  6  1  0  0  0  0
 11  7  1  0  0  0  0
 12  2  2  0  0  0  0
 13 32  1  6  0  0  0
 13 14  1  0  0  0  0
 13 12  1  0  0  0  0
 14 16  1  0  0  0  0
 15  2  1  1  0  0  0
 15  3  1  0  0  0  0
 17 16  1  6  0  0  0
 17 15  1  0  0  0  0
 17  1  1  0  0  0  0
 18 22  1  0  0  0  0
 19 25  1  0  0  0  0
 20 29  1  0  0  0  0
 20 26  1  0  0  0  0
 21 20  2  0  0  0  0
 22 21  1  0  0  0  0
 22 25  2  0  0  0  0
 23 19  1  6  0  0  0
 24 26  2  0  0  0  0
 25 24  1  0  0  0  0
 27 28  1  0  0  0  0
 27 23  1  0  0  0  0
 28 18  1  0  0  0  0
 29 30  1  0  0  0  0
 31 29  2  0  0  0  0
 33 32  1  0  0  0  0
 34 32  1  0  0  0  0
M  END
>  <MODEL>
6

>  <REMARK>
 VINA RESULT:      -8.3      2.347      3.542
  Name = 
  3 active torsions:
  status: ('A' for Active; 'I' for Inactive)
    1  A    between atoms: C_3  and  C_25
    2  A    between atoms: C_7  and  C_11
    3  A    between atoms: C_8  and  C_18
                            x       y       z     vdW  Elec       q    Type
                         _______ _______ _______ _____ _____    ______ ____

>  <TORSDO>
F 3

$$$$
=
 OpenBabel11052420263D

 34 39  0  0  1  0  0  0  0  0999 V2000
  189.8090  175.8850  143.8610 N   0  0  0  0  0  0  0  0  0  0  0  0
  188.0840  176.9430  146.8820 C   0  0  0  0  0  3  0  0  0  0  0  0
  190.4090  176.4880  146.0130 C   0  0  0  0  0  0  0  0  0  0  0  0
  191.3370  174.6720  142.3760 C   0  0  1  0  0  3  0  0  0  0  0  0
  189.8630  174.9260  142.7640 C   0  0  0  0  0  2  0  0  0  0  0  0
  191.9480  175.1040  144.8030 C   0  0  0  0  0  0  0  0  0  0  0  0
  192.7710  175.0860  145.8900 N   0  0  0  0  0  0  0  0  0  0  0  0
  192.1860  174.2350  143.5980 C   0  0  0  0  0  2  0  0  0  0  0  0
  191.2540  176.5090  147.1240 C   0  0  0  0  0  3  0  0  0  0  0  0
  190.7780  175.8360  144.8790 C   0  0  0  0  0  0  0  0  0  0  0  0
  192.4600  175.7820  147.0310 C   0  0  0  0  0  3  0  0  0  0  0  0
  186.7560  177.1020  146.7120 C   0  0  0  0  0  3  0  0  0  0  0  0
  186.0420  177.3600  145.3950 C   0  0  2  0  0  3  0  0  0  0  0  0
  186.8290  178.2290  144.3940 C   0  0  0  0  0  2  0  0  0  0  0  0
  189.0830  177.1250  145.7760 C   0  0  1  0  0  3  0  0  0  0  0  0
  187.8540  177.4110  143.5890 C   0  0  0  0  0  2  0  0  0  0  0  0
  188.6060  176.4300  144.4800 C   0  0  1  0  0  3  0  0  0  0  0  0
  191.8980  170.9930  139.8710 C   0  0  0  0  0  2  0  0  0  0  0  0
  190.0370  173.1770  140.8360 C   0  0  0  0  0  2  0  0  0  0  0  0
  189.9390  171.8340  136.7430 C   0  0  0  0  0  0  0  0  0  0  0  0
  190.8470  171.2520  137.6350 C   0  0  0  0  0  3  0  0  0  0  0  0
  190.9080  171.6670  138.9690 C   0  0  0  0  0  0  0  0  0  0  0  0
  191.4320  173.6390  141.2550 C   0  0  2  0  0  3  0  0  0  0  0  0
  189.1290  173.2630  138.5290 C   0  0  0  0  0  3  0  0  0  0  0  0
  190.0370  172.6860  139.4210 C   0  0  0  0  0  0  0  0  0  0  0  0
  189.0800  172.8410  137.1970 C   0  0  0  0  0  3  0  0  0  0  0  0
  192.1660  172.5250  141.6900 O   0  0  0  0  0  0  0  0  0  0  0  0
  192.8040  172.0100  140.5540 C   0  0  0  0  0  2  0  0  0  0  0  0
  189.8910  171.3860  135.3420 C   0  0  0  0  0  0  0  0  0  0  0  0
  189.0900  171.9190  134.5280 O   0  0  0  0  0  0  0  0  0  0  0  0
  190.7300  170.3680  134.9020 O   0  0  0  0  0  1  0  0  0  0  0  0
  184.6290  177.8870  145.6510 C   0  0  0  0  0  3  0  0  0  0  0  0
  184.4630  178.4480  147.0560 C   0  0  0  0  0  1  0  0  0  0  0  0
  184.2460  178.9350  144.6240 C   0  0  0  0  0  1  0  0  0  0  0  0
  1 17  1  0  0  0  0
  1 10  1  0  0  0  0
  3  9  1  0  0  0  0
  4  5  1  1  0  0  0
  4  8  1  0  0  0  0
  5  1  1  0  0  0  0
  6 10  1  0  0  0  0
  6  7  2  0  0  0  0
  7 11  1  0  0  0  0
  8  6  1  0  0  0  0
 10  3  2  0  0  0  0
 11  9  2  0  0  0  0
 12  2  2  0  0  0  0
 13 32  1  1  0  0  0
 13 12  1  0  0  0  0
 14 13  1  0  0  0  0
 15  3  1  0  0  0  0
 15  2  1  1  0  0  0
 16 14  1  0  0  0  0
 17 16  1  6  0  0  0
 17 15  1  0  0  0  0
 18 28  1  0  0  0  0
 20 26  2  0  0  0  0
 20 21  1  0  0  0  0
 21 22  2  0  0  0  0
 22 25  1  0  0  0  0
 22 18  1  0  0  0  0
 23 19  1  1  0  0  0
 23 27  1  0  0  0  0
 23  4  1  0  0  0  0
 24 25  2  0  0  0  0
 25 19  1  0  0  0  0
 26 24  1  0  0  0  0
 28 27  1  0  0  0  0
 29 20  1  0  0  0  0
 30 29  2  0  0  0  0
 31 29  1  0  0  0  0
 32 33  1  0  0  0  0
 34 32  1  0  0  0  0
M  END
>  <MODEL>
7

>  <REMARK>
 VINA RESULT:      -8.2      4.049      8.254
  Name = 
  3 active torsions:
  status: ('A' for Active; 'I' for Inactive)
    1  A    between atoms: C_3  and  C_25
    2  A    between atoms: C_7  and  C_11
    3  A    between atoms: C_8  and  C_18
                            x       y       z     vdW  Elec       q    Type
                         _______ _______ _______ _____ _____    ______ ____

>  <TORSDO>
F 3

$$$$
=
 OpenBabel11052420263D

 34 39  0  0  1  0  0  0  0  0999 V2000
  192.9270  173.2060  144.0370 N   0  0  0  0  0  0  0  0  0  0  0  0
  194.5720  170.1060  143.0890 C   0  0  0  0  0  3  0  0  0  0  0  0
  193.7480  172.2690  142.0880 C   0  0  0  0  0  0  0  0  0  0  0  0
  191.3600  175.0930  144.0150 C   0  0  1  0  0  3  0  0  0  0  0  0
  191.8260  173.8250  144.7670 C   0  0  0  0  0  2  0  0  0  0  0  0
  192.0510  173.9460  141.8570 C   0  0  0  0  0  0  0  0  0  0  0  0
  192.0910  173.7870  140.5020 N   0  0  0  0  0  0  0  0  0  0  0  0
  191.0040  174.7850  142.5380 C   0  0  0  0  0  2  0  0  0  0  0  0
  193.8280  172.1160  140.7030 C   0  0  0  0  0  3  0  0  0  0  0  0
  192.9110  173.1920  142.6310 C   0  0  0  0  0  0  0  0  0  0  0  0
  192.9670  172.9090  139.9150 C   0  0  0  0  0  3  0  0  0  0  0  0
  194.8520  169.3060  144.1380 C   0  0  0  0  0  3  0  0  0  0  0  0
  195.0040  169.7420  145.5860 C   0  0  2  0  0  3  0  0  0  0  0  0
  195.6360  171.1350  145.7770 C   0  0  0  0  0  2  0  0  0  0  0  0
  194.4900  171.6010  143.1940 C   0  0  1  0  0  3  0  0  0  0  0  0
  194.6080  172.2690  145.6260 C   0  0  0  0  0  2  0  0  0  0  0  0
  193.6810  172.0240  144.4410 C   0  0  1  0  0  3  0  0  0  0  0  0
  188.6020  177.1540  146.8910 C   0  0  0  0  0  2  0  0  0  0  0  0
  189.9120  177.1370  144.1610 C   0  0  0  0  0  2  0  0  0  0  0  0
  185.7930  178.3120  144.6340 C   0  0  0  0  0  0  0  0  0  0  0  0
  186.5330  177.9310  145.7600 C   0  0  0  0  0  3  0  0  0  0  0  0
  187.8700  177.5400  145.6410 C   0  0  0  0  0  0  0  0  0  0  0  0
  190.1800  175.7440  144.7320 C   0  0  2  0  0  3  0  0  0  0  0  0
  187.7430  177.9180  143.2440 C   0  0  0  0  0  3  0  0  0  0  0  0
  188.4830  177.5340  144.3660 C   0  0  0  0  0  0  0  0  0  0  0  0
  186.4070  178.3040  143.3750 C   0  0  0  0  0  3  0  0  0  0  0  0
  190.4570  175.8630  146.1020 O   0  0  0  0  0  0  0  0  0  0  0  0
  189.2240  175.7690  146.7600 C   0  0  0  0  0  2  0  0  0  0  0  0
  184.3860  178.7190  144.7770 C   0  0  0  0  0  0  0  0  0  0  0  0
  183.6930  178.9910  143.7600 O   0  0  0  0  0  0  0  0  0  0  0  0
  183.8070  178.8070  146.0380 O   0  0  0  0  0  1  0  0  0  0  0  0
  195.7140  168.6550  146.3960 C   0  0  0  0  0  3  0  0  0  0  0  0
  197.1620  169.0080  146.7020 C   0  0  0  0  0  1  0  0  0  0  0  0
  194.9680  168.3640  147.6850 C   0  0  0  0  0  1  0  0  0  0  0  0
  1 17  1  0  0  0  0
  1  5  1  0  0  0  0
  2 12  2  0  0  0  0
  3 10  1  0  0  0  0
  3 15  1  0  0  0  0
  4  8  1  6  0  0  0
  4 23  1  0  0  0  0
  4  5  1  0  0  0  0
  6  8  1  0  0  0  0
  6 10  2  0  0  0  0
  7  6  1  0  0  0  0
  9  3  2  0  0  0  0
 10  1  1  0  0  0  0
 11  7  2  0  0  0  0
 11  9  1  0  0  0  0
 12 13  1  0  0  0  0
 13 14  1  0  0  0  0
 13 32  1  1  0  0  0
 15  2  1  6  0  0  0
 15 17  1  0  0  0  0
 16 14  1  0  0  0  0
 17 16  1  1  0  0  0
 19 25  1  0  0  0  0
 20 29  1  0  0  0  0
 20 21  1  0  0  0  0
 22 21  2  0  0  0  0
 22 18  1  0  0  0  0
 23 19  1  6  0  0  0
 23 27  1  0  0  0  0
 24 26  1  0  0  0  0
 24 25  2  0  0  0  0
 25 22  1  0  0  0  0
 26 20  2  0  0  0  0
 27 28  1  0  0  0  0
 28 18  1  0  0  0  0
 29 31  1  0  0  0  0
 30 29  2  0  0  0  0
 32 33  1  0  0  0  0
 32 34  1  0  0  0  0
M  END
>  <MODEL>
8

>  <REMARK>
 VINA RESULT:      -8.1      3.599      5.288
  Name = 
  3 active torsions:
  status: ('A' for Active; 'I' for Inactive)
    1  A    between atoms: C_3  and  C_25
    2  A    between atoms: C_7  and  C_11
    3  A    between atoms: C_8  and  C_18
                            x       y       z     vdW  Elec       q    Type
                         _______ _______ _______ _____ _____    ______ ____

>  <TORSDO>
F 3

$$$$
=
 OpenBabel11052420263D

 34 39  0  0  1  0  0  0  0  0999 V2000
  189.2720  175.0540  142.8820 N   0  0  0  0  0  0  0  0  0  0  0  0
  192.2180  174.1150  140.9700 C   0  0  0  0  0  3  0  0  0  0  0  0
  191.5650  175.2390  143.1310 C   0  0  0  0  0  0  0  0  0  0  0  0
  187.7070  176.4010  144.2040 C   0  0  1  0  0  3  0  0  0  0  0  0
  187.9570  175.6820  142.8590 C   0  0  0  0  0  2  0  0  0  0  0  0
  190.2110  176.8050  144.3400 C   0  0  0  0  0  0  0  0  0  0  0  0
  191.3410  177.3910  144.8300 N   0  0  0  0  0  0  0  0  0  0  0  0
  188.8440  177.4010  144.5400 C   0  0  0  0  0  2  0  0  0  0  0  0
  192.7320  175.8040  143.6480 C   0  0  0  0  0  3  0  0  0  0  0  0
  190.3470  175.7090  143.5090 C   0  0  0  0  0  0  0  0  0  0  0  0
  192.5860  176.9050  144.5180 C   0  0  0  0  0  3  0  0  0  0  0  0
  191.9320  173.4120  139.8560 C   0  0  0  0  0  3  0  0  0  0  0  0
  190.6690  172.6040  139.6020 C   0  0  2  0  0  3  0  0  0  0  0  0
  190.0840  171.9130  140.8500 C   0  0  0  0  0  2  0  0  0  0  0  0
  191.3570  174.0960  142.1990 C   0  0  1  0  0  3  0  0  0  0  0  0
  189.2130  172.8620  141.6900 C   0  0  0  0  0  2  0  0  0  0  0  0
  189.8630  174.2340  141.8300 C   0  0  1  0  0  3  0  0  0  0  0  0
  184.1600  179.0400  144.9650 C   0  0  0  0  0  2  0  0  0  0  0  0
  186.2510  178.0570  143.0070 C   0  0  0  0  0  2  0  0  0  0  0  0
  182.1680  178.6660  141.7670 C   0  0  0  0  0  0  0  0  0  0  0  0
  182.5290  178.9240  143.0950 C   0  0  0  0  0  3  0  0  0  0  0  0
  183.8440  178.7340  143.5310 C   0  0  0  0  0  0  0  0  0  0  0  0
  186.3520  177.1050  144.1990 C   0  0  2  0  0  3  0  0  0  0  0  0
  184.4590  178.0220  141.2910 C   0  0  0  0  0  3  0  0  0  0  0  0
  184.8210  178.2770  142.6170 C   0  0  0  0  0  0  0  0  0  0  0  0
  183.1410  178.2140  140.8680 C   0  0  0  0  0  3  0  0  0  0  0  0
  186.1890  177.8420  145.3810 O   0  0  0  0  0  0  0  0  0  0  0  0
  184.8150  177.8480  145.6520 C   0  0  0  0  0  2  0  0  0  0  0  0
  180.7800  178.8700  141.3260 C   0  0  0  0  0  0  0  0  0  0  0  0
  179.8920  178.0160  141.5930 O   0  0  0  0  0  1  0  0  0  0  0  0
  180.4330  180.0100  140.6080 O   0  0  0  0  0  0  0  0  0  0  0  0
  190.8840  171.6360  138.4370 C   0  0  0  0  0  3  0  0  0  0  0  0
  192.1600  170.8200  138.5840 C   0  0  0  0  0  1  0  0  0  0  0  0
  189.6920  170.7110  138.2730 C   0  0  0  0  0  1  0  0  0  0  0  0
  1 10  1  0  0  0  0
  3 10  2  0  0  0  0
  3  9  1  0  0  0  0
  4  5  1  6  0  0  0
  4  8  1  0  0  0  0
  5  1  1  0  0  0  0
  6  8  1  0  0  0  0
  6  7  2  0  0  0  0
  9 11  2  0  0  0  0
 10  6  1  0  0  0  0
 11  7  1  0  0  0  0
 12  2  2  0  0  0  0
 13 32  1  6  0  0  0
 13 12  1  0  0  0  0
 13 14  1  0  0  0  0
 14 16  1  0  0  0  0
 15  2  1  6  0  0  0
 15  3  1  0  0  0  0
 17 16  1  1  0  0  0
 17 15  1  0  0  0  0
 17  1  1  0  0  0  0
 18 28  1  0  0  0  0
 20 21  1  0  0  0  0
 21 22  2  0  0  0  0
 22 18  1  0  0  0  0
 23 19  1  6  0  0  0
 23  4  1  0  0  0  0
 23 27  1  0  0  0  0
 24 25  2  0  0  0  0
 25 19  1  0  0  0  0
 25 22  1  0  0  0  0
 26 24  1  0  0  0  0
 26 20  2  0  0  0  0
 27 28  1  0  0  0  0
 29 30  1  0  0  0  0
 29 20  1  0  0  0  0
 31 29  2  0  0  0  0
 32 33  1  0  0  0  0
 34 32  1  0  0  0  0
M  END
>  <MODEL>
9

>  <REMARK>
 VINA RESULT:      -8.1      2.268      3.228
  Name = 
  3 active torsions:
  status: ('A' for Active; 'I' for Inactive)
    1  A    between atoms: C_3  and  C_25
    2  A    between atoms: C_7  and  C_11
    3  A    between atoms: C_8  and  C_18
                            x       y       z     vdW  Elec       q    Type
                         _______ _______ _______ _____ _____    ______ ____

>  <TORSDO>
F 3

$$$$
