=
 OpenBabel11052419533D

 37 44  0  0  1  0  0  0  0  0999 V2000
  188.6220  176.4840  141.4920 O   0  0  0  0  0  0  0  0  0  0  0  0
  189.4410  172.9370  137.3500 C   0  0  0  0  0  3  0  0  0  0  0  0
  190.5340  172.2560  141.5930 N   0  0  0  0  0  0  0  0  0  0  0  0
  190.1750  173.8830  144.9130 C   0  0  0  0  0  2  0  0  0  0  0  0
  190.8680  172.1290  139.1940 C   0  0  0  0  0  0  0  0  0  0  0  0
  189.8810  173.1870  142.5170 C   0  0  1  0  0  3  0  0  0  0  0  0
  190.3190  172.7160  140.2620 C   0  0  0  0  0  0  0  0  0  0  0  0
  190.8570  173.7600  143.5650 C   0  0  1  0  0  0  0  0  0  0  0  0
  191.6810  170.8880  139.3690 C   0  0  0  0  0  2  0  0  0  0  0  0
  189.4440  173.8810  140.2940 C   0  0  0  0  0  0  0  0  0  0  0  0
  187.5190  175.0980  139.6360 O   0  0  0  0  0  1  0  0  0  0  0  0
  192.4090  170.9150  142.4550 C   0  0  0  0  0  2  0  0  0  0  0  0
  190.8410  169.7530  140.5290 S   0  0  0  0  0  0  0  0  0  0  0  0
  188.5420  174.2090  139.3390 C   0  0  0  0  0  0  0  0  0  0  0  0
  190.5900  175.1450  144.1730 C   0  0  1  0  0  3  0  0  0  0  0  0
  190.9750  170.9030  141.9510 C   0  0  2  0  0  3  0  0  0  0  0  0
  189.3160  174.2480  141.6760 N   0  0  0  0  0  0  0  0  0  0  0  0
  190.8330  172.7840  137.8580 C   0  0  0  0  0  2  0  0  0  0  0  0
  192.3130  173.2570  143.6130 C   0  0  2  0  0  3  0  0  0  0  0  0
  188.4740  173.5880  137.9970 C   0  0  0  0  0  3  0  0  0  0  0  0
  189.4320  175.8150  143.5820 N   0  0  0  0  0  0  0  0  0  0  0  0
  189.0830  175.5580  142.2120 C   0  0  0  0  0  0  0  0  0  0  0  0
  192.4810  171.5290  144.1620 S   0  0  0  0  0  0  0  0  0  0  0  0
  193.7750  173.9720  145.4840 C   0  0  0  0  0  3  0  0  0  0  0  0
  193.3580  174.1940  144.1660 C   0  0  0  0  0  0  0  0  0  0  0  0
  193.9520  175.2410  143.4210 C   0  0  0  0  0  0  0  0  0  0  0  0
  193.5690  175.5360  142.0110 C   0  0  0  0  0  1  0  0  0  0  0  0
  195.3370  175.8110  145.3300 C   0  0  0  0  0  3  0  0  0  0  0  0
  194.9350  176.0410  144.0130 C   0  0  0  0  0  3  0  0  0  0  0  0
  194.7580  174.7760  146.0650 C   0  0  0  0  0  3  0  0  0  0  0  0
  188.8480  176.9220  144.3430 C   0  0  1  0  0  3  0  0  0  0  0  0
  187.6110  177.4950  146.4180 C   0  0  0  0  0  2  0  0  0  0  0  0
  185.5350  176.5000  145.8380 O   0  0  0  0  0  1  0  0  0  0  0  0
  187.8600  176.4150  145.3850 C   0  0  1  0  0  3  0  0  0  0  0  0
  186.5940  177.2470  145.3240 C   0  0  2  0  0  3  0  0  0  0  0  0
  189.9300  177.7730  144.9960 C   0  0  0  0  0  2  0  0  0  0  0  0
  190.8120  178.4070  143.9380 C   0  0  0  0  0  1  0  0  0  0  0  0
  1 22  2  0  0  0  0
  2 18  1  0  0  0  0
  2 20  2  0  0  0  0
  3 16  1  0  0  0  0
  5  9  1  0  0  0  0
  5  7  2  0  0  0  0
  6  3  1  6  0  0  0
  6  8  1  0  0  0  0
  7 10  1  0  0  0  0
  7  3  1  0  0  0  0
  8 19  1  0  0  0  0
  8 15  1  0  0  0  0
  8  4  1  1  0  0  0
  9 13  1  0  0  0  0
 10 17  1  0  0  0  0
 12 23  1  0  0  0  0
 13 16  1  0  0  0  0
 14 11  1  0  0  0  0
 14 10  2  0  0  0  0
 15  4  1  1  0  0  0
 16 12  1  6  0  0  0
 17 22  1  0  0  0  0
 17  6  1  0  0  0  0
 18  5  1  0  0  0  0
 19 23  1  0  0  0  0
 19 25  1  1  0  0  0
 20 14  1  0  0  0  0
 21 15  1  0  0  0  0
 21 31  1  0  0  0  0
 22 21  1  0  0  0  0
 24 30  1  0  0  0  0
 25 24  2  0  0  0  0
 26 29  2  0  0  0  0
 26 25  1  0  0  0  0
 27 26  1  0  0  0  0
 28 30  2  0  0  0  0
 29 28  1  0  0  0  0
 31 36  1  1  0  0  0
 34 31  1  6  0  0  0
 34 32  1  0  0  0  0
 35 34  1  0  0  0  0
 35 33  1  1  0  0  0
 35 32  1  0  0  0  0
 37 36  1  0  0  0  0
M  END
>  <MODEL>
1

>  <REMARK>
 VINA RESULT:      -7.5      0.000      0.000
  Name = 
  4 active torsions:
  status: ('A' for Active; 'I' for Inactive)
    1  A    between atoms: C_6  and  C_31
    2  A    between atoms: C_11  and  C_26
    3  A    between atoms: C_17  and  C_26
    4  A    between atoms: C_26  and  N_33
                            x       y       z     vdW  Elec       q    Type
                         _______ _______ _______ _____ _____    ______ ____

>  <TORSDO>
F 4

$$$$
=
 OpenBabel11052419533D

 37 44  0  0  1  0  0  0  0  0999 V2000
  193.5950  172.8590  139.2200 O   0  0  0  0  0  0  0  0  0  0  0  0
  188.2660  173.1230  140.6140 C   0  0  0  0  0  3  0  0  0  0  0  0
  191.5770  175.2710  142.6340 N   0  0  0  0  0  0  0  0  0  0  0  0
  195.2280  175.8480  142.2670 C   0  0  0  0  0  2  0  0  0  0  0  0
  189.4940  174.0320  142.5510 C   0  0  0  0  0  0  0  0  0  0  0  0
  192.8110  175.3100  141.8440 C   0  0  1  0  0  3  0  0  0  0  0  0
  190.6750  174.3570  142.0180 C   0  0  0  0  0  0  0  0  0  0  0  0
  194.0610  174.9770  142.6860 C   0  0  1  0  0  0  0  0  0  0  0  0
  189.0410  174.7040  143.8060 C   0  0  0  0  0  2  0  0  0  0  0  0
  191.2620  173.8720  140.7750 C   0  0  0  0  0  0  0  0  0  0  0  0
  191.2250  173.4570  138.4400 O   0  0  0  0  0  1  0  0  0  0  0  0
  191.7190  175.9020  145.0090 C   0  0  0  0  0  2  0  0  0  0  0  0
  189.3790  176.4970  143.7090 S   0  0  0  0  0  0  0  0  0  0  0  0
  190.5680  173.5400  139.6600 C   0  0  0  0  0  0  0  0  0  0  0  0
  195.2870  174.3510  142.0070 C   0  0  1  0  0  3  0  0  0  0  0  0
  191.1970  176.2790  143.6310 C   0  0  2  0  0  3  0  0  0  0  0  0
  192.6190  174.3360  140.7640 N   0  0  0  0  0  0  0  0  0  0  0  0
  188.7010  172.8900  142.0190 C   0  0  0  0  0  2  0  0  0  0  0  0
  193.9250  174.7530  144.2050 C   0  0  2  0  0  3  0  0  0  0  0  0
  189.0980  173.3710  139.6020 C   0  0  0  0  0  3  0  0  0  0  0  0
  195.0670  174.0510  140.5930 N   0  0  0  0  0  0  0  0  0  0  0  0
  193.7480  173.7150  140.1320 C   0  0  0  0  0  0  0  0  0  0  0  0
  193.4940  176.2550  145.1390 S   0  0  0  0  0  0  0  0  0  0  0  0
  196.0300  174.5110  145.4940 C   0  0  0  0  0  3  0  0  0  0  0  0
  194.9490  173.8720  144.8750 C   0  0  0  0  0  0  0  0  0  0  0  0
  194.8540  172.4610  144.9380 C   0  0  0  0  0  0  0  0  0  0  0  0
  193.7310  171.7060  144.3120 C   0  0  0  0  0  1  0  0  0  0  0  0
  196.9150  172.3810  146.2160 C   0  0  0  0  0  3  0  0  0  0  0  0
  195.8410  171.7290  145.6080 C   0  0  0  0  0  3  0  0  0  0  0  0
  197.0090  173.7720  146.1600 C   0  0  0  0  0  3  0  0  0  0  0  0
  196.2590  173.8470  139.7660 C   0  0  1  0  0  3  0  0  0  0  0  0
  197.8340  174.8530  138.1310 C   0  0  0  0  0  2  0  0  0  0  0  0
  196.2180  175.7790  136.6590 O   0  0  0  0  0  1  0  0  0  0  0  0
  196.5430  175.0630  138.8950 C   0  0  1  0  0  3  0  0  0  0  0  0
  196.5030  174.6570  137.4350 C   0  0  2  0  0  3  0  0  0  0  0  0
  197.4720  173.5040  140.6230 C   0  0  0  0  0  2  0  0  0  0  0  0
  197.7980  172.0270  140.5050 C   0  0  0  0  0  1  0  0  0  0  0  0
  1 22  2  0  0  0  0
  2 18  1  0  0  0  0
  3 16  1  0  0  0  0
  5  9  1  0  0  0  0
  6 17  1  6  0  0  0
  6  3  1  0  0  0  0
  6  8  1  0  0  0  0
  7  5  2  0  0  0  0
  7  3  1  0  0  0  0
  8  4  1  1  0  0  0
  8 19  1  0  0  0  0
 10  7  1  0  0  0  0
 11 14  1  0  0  0  0
 12 23  1  0  0  0  0
 13  9  1  0  0  0  0
 14 10  2  0  0  0  0
 15  4  1  6  0  0  0
 15  8  1  0  0  0  0
 16 13  1  0  0  0  0
 16 12  1  1  0  0  0
 17 10  1  0  0  0  0
 18  5  1  0  0  0  0
 19 25  1  1  0  0  0
 19 23  1  0  0  0  0
 20 14  1  0  0  0  0
 20  2  2  0  0  0  0
 21 15  1  0  0  0  0
 22 21  1  0  0  0  0
 22 17  1  0  0  0  0
 24 30  1  0  0  0  0
 25 26  1  0  0  0  0
 25 24  2  0  0  0  0
 26 29  2  0  0  0  0
 27 26  1  0  0  0  0
 29 28  1  0  0  0  0
 30 28  2  0  0  0  0
 31 21  1  0  0  0  0
 31 36  1  1  0  0  0
 32 34  1  0  0  0  0
 34 31  1  1  0  0  0
 35 33  1  6  0  0  0
 35 32  1  0  0  0  0
 35 34  1  0  0  0  0
 37 36  1  0  0  0  0
M  END
>  <MODEL>
2

>  <REMARK>
 VINA RESULT:      -6.6      3.544      6.443
  Name = 
  4 active torsions:
  status: ('A' for Active; 'I' for Inactive)
    1  A    between atoms: C_6  and  C_31
    2  A    between atoms: C_11  and  C_26
    3  A    between atoms: C_17  and  C_26
    4  A    between atoms: C_26  and  N_33
                            x       y       z     vdW  Elec       q    Type
                         _______ _______ _______ _____ _____    ______ ____

>  <TORSDO>
F 4

$$$$
=
 OpenBabel11052419533D

 37 44  0  0  1  0  0  0  0  0999 V2000
  193.5220  174.3960  146.4110 O   0  0  0  0  0  0  0  0  0  0  0  0
  189.0030  177.4570  145.6210 C   0  0  0  0  0  3  0  0  0  0  0  0
  190.3800  174.1540  143.0030 N   0  0  0  0  0  0  0  0  0  0  0  0
  193.0170  171.5410  142.8790 C   0  0  0  0  0  2  0  0  0  0  0  0
  189.4140  176.3300  143.4650 C   0  0  0  0  0  0  0  0  0  0  0  0
  191.3810  173.2910  143.6360 C   0  0  1  0  0  3  0  0  0  0  0  0
  190.1990  175.3080  143.8180 C   0  0  0  0  0  0  0  0  0  0  0  0
  192.5660  172.9770  142.6980 C   0  0  1  0  0  0  0  0  0  0  0  0
  188.6190  176.2490  142.2030 C   0  0  0  0  0  2  0  0  0  0  0  0
  190.9930  175.1650  145.0320 C   0  0  0  0  0  0  0  0  0  0  0  0
  191.2720  175.1480  147.3870 O   0  0  0  0  0  1  0  0  0  0  0  0
  190.0590  173.9430  140.5720 C   0  0  0  0  0  2  0  0  0  0  0  0
  187.8500  174.5980  142.0580 S   0  0  0  0  0  0  0  0  0  0  0  0
  190.6560  175.6520  146.2500 C   0  0  0  0  0  0  0  0  0  0  0  0
  193.9460  172.6700  143.2970 C   0  0  1  0  0  3  0  0  0  0  0  0
  189.4560  173.7200  141.9500 C   0  0  2  0  0  3  0  0  0  0  0  0
  191.8250  174.0120  144.8340 N   0  0  0  0  0  0  0  0  0  0  0  0
  189.4520  177.6180  144.2100 C   0  0  0  0  0  2  0  0  0  0  0  0
  192.5440  173.4760  141.2400 C   0  0  2  0  0  3  0  0  0  0  0  0
  189.5630  176.6200  146.4960 C   0  0  0  0  0  3  0  0  0  0  0  0
  193.9820  172.8120  144.7520 N   0  0  0  0  0  0  0  0  0  0  0  0
  193.1210  173.7650  145.3970 C   0  0  0  0  0  0  0  0  0  0  0  0
  191.2910  172.6630  140.1990 S   0  0  0  0  0  0  0  0  0  0  0  0
  194.3300  172.6930  139.7090 C   0  0  0  0  0  3  0  0  0  0  0  0
  193.8700  173.7050  140.5600 C   0  0  0  0  0  0  0  0  0  0  0  0
  194.6390  174.8840  140.7090 C   0  0  0  0  0  0  0  0  0  0  0  0
  194.2150  176.0100  141.5890 C   0  0  0  0  0  1  0  0  0  0  0  0
  196.2940  173.9960  139.1720 C   0  0  0  0  0  3  0  0  0  0  0  0
  195.8450  175.0160  140.0130 C   0  0  0  0  0  3  0  0  0  0  0  0
  195.5350  172.8350  139.0190 C   0  0  0  0  0  3  0  0  0  0  0  0
  195.0920  172.1630  145.4540 C   0  0  1  0  0  3  0  0  0  0  0  0
  196.2620  170.0280  145.9420 C   0  0  0  0  0  2  0  0  0  0  0  0
  194.3400  168.6570  146.1790 O   0  0  0  0  0  1  0  0  0  0  0  0
  195.1140  170.6640  145.1860 C   0  0  1  0  0  3  0  0  0  0  0  0
  194.8510  169.9180  146.4790 C   0  0  2  0  0  3  0  0  0  0  0  0
  196.4270  172.7960  145.0780 C   0  0  0  0  0  2  0  0  0  0  0  0
  196.9580  173.6270  146.2310 C   0  0  0  0  0  1  0  0  0  0  0  0
  2 20  2  0  0  0  0
  3  7  1  0  0  0  0
  5  7  2  0  0  0  0
  5 18  1  0  0  0  0
  6  3  1  6  0  0  0
  6 17  1  0  0  0  0
  7 10  1  0  0  0  0
  8  4  1  6  0  0  0
  8 15  1  0  0  0  0
  8  6  1  0  0  0  0
  9  5  1  0  0  0  0
 10 14  2  0  0  0  0
 13  9  1  0  0  0  0
 14 20  1  0  0  0  0
 14 11  1  0  0  0  0
 15  4  1  1  0  0  0
 15 21  1  0  0  0  0
 16 12  1  6  0  0  0
 16 13  1  0  0  0  0
 16  3  1  0  0  0  0
 17 10  1  0  0  0  0
 17 22  1  0  0  0  0
 18  2  1  0  0  0  0
 19 25  1  6  0  0  0
 19  8  1  0  0  0  0
 21 22  1  0  0  0  0
 21 31  1  0  0  0  0
 22  1  2  0  0  0  0
 23 12  1  0  0  0  0
 23 19  1  0  0  0  0
 24 25  1  0  0  0  0
 25 26  2  0  0  0  0
 26 27  1  0  0  0  0
 28 29  2  0  0  0  0
 29 26  1  0  0  0  0
 30 28  1  0  0  0  0
 30 24  2  0  0  0  0
 31 36  1  6  0  0  0
 32 35  1  0  0  0  0
 34 31  1  1  0  0  0
 34 32  1  0  0  0  0
 34 35  1  0  0  0  0
 35 33  1  6  0  0  0
 36 37  1  0  0  0  0
M  END
>  <MODEL>
3

>  <REMARK>
 VINA RESULT:      -6.5      3.487      6.593
  Name = 
  4 active torsions:
  status: ('A' for Active; 'I' for Inactive)
    1  A    between atoms: C_6  and  C_31
    2  A    between atoms: C_11  and  C_26
    3  A    between atoms: C_17  and  C_26
    4  A    between atoms: C_26  and  N_33
                            x       y       z     vdW  Elec       q    Type
                         _______ _______ _______ _____ _____    ______ ____

>  <TORSDO>
F 4

$$$$
=
 OpenBabel11052419533D

 37 44  0  0  1  0  0  0  0  0999 V2000
  194.7920  172.6180  142.9670 O   0  0  0  0  0  0  0  0  0  0  0  0
  192.0460  169.4820  139.3580 C   0  0  0  0  0  3  0  0  0  0  0  0
  190.8500  173.5360  140.6960 N   0  0  0  0  0  0  0  0  0  0  0  0
  192.1260  176.3250  142.7920 C   0  0  0  0  0  2  0  0  0  0  0  0
  190.4510  171.2330  140.0470 C   0  0  0  0  0  0  0  0  0  0  0  0
  191.9310  174.2700  141.3590 C   0  0  1  0  0  3  0  0  0  0  0  0
  191.2560  172.1800  140.5390 C   0  0  0  0  0  0  0  0  0  0  0  0
  191.4630  174.9690  142.6520 C   0  0  1  0  0  0  0  0  0  0  0  0
  189.0880  171.6030  139.5600 C   0  0  0  0  0  2  0  0  0  0  0  0
  192.6330  172.0370  140.9960 C   0  0  0  0  0  0  0  0  0  0  0  0
  194.8950  171.3830  140.7210 O   0  0  0  0  0  1  0  0  0  0  0  0
  188.5650  174.4240  140.9090 C   0  0  0  0  0  2  0  0  0  0  0  0
  189.1770  173.1340  138.5680 S   0  0  0  0  0  0  0  0  0  0  0  0
  193.5440  171.1790  140.4800 C   0  0  0  0  0  0  0  0  0  0  0  0
  192.4690  175.2240  143.7830 C   0  0  1  0  0  3  0  0  0  0  0  0
  189.7370  174.1660  139.9760 C   0  0  2  0  0  3  0  0  0  0  0  0
  192.9730  173.2760  141.6350 N   0  0  0  0  0  0  0  0  0  0  0  0
  190.8170  169.7930  140.1390 C   0  0  0  0  0  2  0  0  0  0  0  0
  189.9750  174.9260  143.0520 C   0  0  2  0  0  3  0  0  0  0  0  0
  193.2250  170.0740  139.5470 C   0  0  0  0  0  3  0  0  0  0  0  0
  193.7910  174.6610  143.5090 N   0  0  0  0  0  0  0  0  0  0  0  0
  193.9090  173.4770  142.7040 C   0  0  0  0  0  0  0  0  0  0  0  0
  188.8840  175.8770  141.9490 S   0  0  0  0  0  0  0  0  0  0  0  0
  189.2510  176.3100  144.9780 C   0  0  0  0  0  3  0  0  0  0  0  0
  189.6420  175.0470  144.5180 C   0  0  0  0  0  0  0  0  0  0  0  0
  189.6700  173.9600  145.4250 C   0  0  0  0  0  0  0  0  0  0  0  0
  190.0660  172.5840  145.0130 C   0  0  0  0  0  1  0  0  0  0  0  0
  188.9330  175.4320  147.2080 C   0  0  0  0  0  3  0  0  0  0  0  0
  189.3160  174.1660  146.7630 C   0  0  0  0  0  3  0  0  0  0  0  0
  188.9000  176.5040  146.3150 C   0  0  0  0  0  3  0  0  0  0  0  0
  194.9100  175.1840  144.2980 C   0  0  1  0  0  3  0  0  0  0  0  0
  197.0170  176.2320  143.5070 C   0  0  0  0  0  2  0  0  0  0  0  0
  196.1770  177.1580  141.4900 O   0  0  0  0  0  1  0  0  0  0  0  0
  195.5200  176.4160  143.6430 C   0  0  1  0  0  3  0  0  0  0  0  0
  196.1190  176.0290  142.3050 C   0  0  2  0  0  3  0  0  0  0  0  0
  194.4800  175.4930  145.7270 C   0  0  0  0  0  2  0  0  0  0  0  0
  194.5660  176.9840  145.9930 C   0  0  0  0  0  1  0  0  0  0  0  0
  2 20  2  0  0  0  0
  2 18  1  0  0  0  0
  5 18  1  0  0  0  0
  5  7  2  0  0  0  0
  6  3  1  1  0  0  0
  6 17  1  0  0  0  0
  6  8  1  0  0  0  0
  7  3  1  0  0  0  0
  7 10  1  0  0  0  0
  8  4  1  6  0  0  0
  8 19  1  0  0  0  0
  8 15  1  0  0  0  0
  9  5  1  0  0  0  0
 10 17  1  0  0  0  0
 12 23  1  0  0  0  0
 13  9  1  0  0  0  0
 13 16  1  0  0  0  0
 14 11  1  0  0  0  0
 14 10  2  0  0  0  0
 15  4  1  6  0  0  0
 16  3  1  0  0  0  0
 16 12  1  1  0  0  0
 17 22  1  0  0  0  0
 19 25  1  1  0  0  0
 20 14  1  0  0  0  0
 21 15  1  0  0  0  0
 21 31  1  0  0  0  0
 22  1  2  0  0  0  0
 22 21  1  0  0  0  0
 23 19  1  0  0  0  0
 24 30  1  0  0  0  0
 25 24  2  0  0  0  0
 25 26  1  0  0  0  0
 26 29  2  0  0  0  0
 27 26  1  0  0  0  0
 29 28  1  0  0  0  0
 30 28  2  0  0  0  0
 31 36  1  1  0  0  0
 32 34  1  0  0  0  0
 34 31  1  1  0  0  0
 35 33  1  6  0  0  0
 35 32  1  0  0  0  0
 35 34  1  0  0  0  0
 36 37  1  0  0  0  0
M  END
>  <MODEL>
4

>  <REMARK>
 VINA RESULT:      -6.5      3.254      5.600
  Name = 
  4 active torsions:
  status: ('A' for Active; 'I' for Inactive)
    1  A    between atoms: C_6  and  C_31
    2  A    between atoms: C_11  and  C_26
    3  A    between atoms: C_17  and  C_26
    4  A    between atoms: C_26  and  N_33
                            x       y       z     vdW  Elec       q    Type
                         _______ _______ _______ _____ _____    ______ ____

>  <TORSDO>
F 4

$$$$
=
 OpenBabel11052419533D

 37 44  0  0  1  0  0  0  0  0999 V2000
  190.2070  175.9740  143.3190 O   0  0  0  0  0  0  0  0  0  0  0  0
  188.7710  173.8570  138.4330 C   0  0  0  0  0  3  0  0  0  0  0  0
  191.8580  172.2130  141.1580 N   0  0  0  0  0  0  0  0  0  0  0  0
  193.2520  172.7980  144.5520 C   0  0  0  0  0  2  0  0  0  0  0  0
  190.9270  172.7980  138.9970 C   0  0  0  0  0  0  0  0  0  0  0  0
  191.7740  172.7480  142.5200 C   0  0  1  0  0  3  0  0  0  0  0  0
  191.0030  172.9810  140.3180 C   0  0  0  0  0  0  0  0  0  0  0  0
  193.1540  173.1510  143.0810 C   0  0  1  0  0  0  0  0  0  0  0  0
  191.7020  171.6910  138.3600 C   0  0  0  0  0  2  0  0  0  0  0  0
  190.2780  173.9510  141.1320 C   0  0  0  0  0  0  0  0  0  0  0  0
  188.2990  175.0010  141.9060 O   0  0  0  0  0  1  0  0  0  0  0  0
  193.8960  170.9810  140.5360 C   0  0  0  0  0  2  0  0  0  0  0  0
  191.5540  170.1710  139.3620 S   0  0  0  0  0  0  0  0  0  0  0  0
  189.0200  174.3890  140.8910 C   0  0  0  0  0  0  0  0  0  0  0  0
  193.2480  174.2610  144.1380 C   0  0  1  0  0  3  0  0  0  0  0  0
  192.4040  170.8950  140.8160 C   0  0  2  0  0  3  0  0  0  0  0  0
  190.8730  173.9030  142.4370 N   0  0  0  0  0  0  0  0  0  0  0  0
  190.2260  173.7810  138.1250 C   0  0  0  0  0  2  0  0  0  0  0  0
  194.4270  172.8760  142.2570 C   0  0  2  0  0  3  0  0  0  0  0  0
  188.2730  174.1550  139.6340 C   0  0  0  0  0  3  0  0  0  0  0  0
  191.9580  174.8870  144.4250 N   0  0  0  0  0  0  0  0  0  0  0  0
  190.9590  174.9660  143.3950 C   0  0  0  0  0  0  0  0  0  0  0  0
  194.8310  171.1090  142.0870 S   0  0  0  0  0  0  0  0  0  0  0  0
  196.6350  173.2690  143.3170 C   0  0  0  0  0  3  0  0  0  0  0  0
  195.6190  173.7700  142.4940 C   0  0  0  0  0  0  0  0  0  0  0  0
  195.7740  175.0490  141.9060 C   0  0  0  0  0  0  0  0  0  0  0  0
  194.7420  175.6490  141.0120 C   0  0  0  0  0  1  0  0  0  0  0  0
  197.9320  175.2830  142.9900 C   0  0  0  0  0  3  0  0  0  0  0  0
  196.9300  175.7930  142.1630 C   0  0  0  0  0  3  0  0  0  0  0  0
  197.7850  174.0210  143.5660 C   0  0  0  0  0  3  0  0  0  0  0  0
  191.8530  175.6440  145.6750 C   0  0  1  0  0  3  0  0  0  0  0  0
  190.9940  175.6770  148.0040 C   0  0  0  0  0  2  0  0  0  0  0  0
  188.9440  174.5500  147.6050 O   0  0  0  0  0  1  0  0  0  0  0  0
  191.1350  174.8400  146.7500 C   0  0  1  0  0  3  0  0  0  0  0  0
  189.8110  175.5030  147.0750 C   0  0  2  0  0  3  0  0  0  0  0  0
  193.2250  176.0920  146.1650 C   0  0  0  0  0  2  0  0  0  0  0  0
  193.7520  177.2200  145.2970 C   0  0  0  0  0  1  0  0  0  0  0  0
  1 22  2  0  0  0  0
  2 20  2  0  0  0  0
  5  7  2  0  0  0  0
  6  3  1  6  0  0  0
  6  8  1  0  0  0  0
  7 10  1  0  0  0  0
  7  3  1  0  0  0  0
  8 15  1  0  0  0  0
  8  4  1  1  0  0  0
  9  5  1  0  0  0  0
  9 13  1  0  0  0  0
 10 17  1  0  0  0  0
 12 23  1  0  0  0  0
 13 16  1  0  0  0  0
 14 10  2  0  0  0  0
 14 11  1  0  0  0  0
 15 21  1  0  0  0  0
 15  4  1  1  0  0  0
 16 12  1  6  0  0  0
 16  3  1  0  0  0  0
 17  6  1  0  0  0  0
 17 22  1  0  0  0  0
 18  2  1  0  0  0  0
 18  5  1  0  0  0  0
 19 25  1  1  0  0  0
 19  8  1  0  0  0  0
 20 14  1  0  0  0  0
 21 31  1  0  0  0  0
 22 21  1  0  0  0  0
 23 19  1  0  0  0  0
 24 30  1  0  0  0  0
 25 24  2  0  0  0  0
 26 29  2  0  0  0  0
 26 25  1  0  0  0  0
 27 26  1  0  0  0  0
 28 30  2  0  0  0  0
 29 28  1  0  0  0  0
 31 36  1  1  0  0  0
 34 31  1  6  0  0  0
 34 35  1  0  0  0  0
 34 32  1  0  0  0  0
 35 33  1  1  0  0  0
 35 32  1  0  0  0  0
 37 36  1  0  0  0  0
M  END
>  <MODEL>
5

>  <REMARK>
 VINA RESULT:      -6.5      2.161      2.711
  Name = 
  4 active torsions:
  status: ('A' for Active; 'I' for Inactive)
    1  A    between atoms: C_6  and  C_31
    2  A    between atoms: C_11  and  C_26
    3  A    between atoms: C_17  and  C_26
    4  A    between atoms: C_26  and  N_33
                            x       y       z     vdW  Elec       q    Type
                         _______ _______ _______ _____ _____    ______ ____

>  <TORSDO>
F 4

$$$$
=
 OpenBabel11052419533D

 37 44  0  0  1  0  0  0  0  0999 V2000
  189.3640  173.4060  142.9650 O   0  0  0  0  0  0  0  0  0  0  0  0
  190.3210  176.5530  147.3910 C   0  0  0  0  0  3  0  0  0  0  0  0
  193.2760  175.5520  144.2410 N   0  0  0  0  0  0  0  0  0  0  0  0
  193.4550  173.8010  140.9700 C   0  0  0  0  0  2  0  0  0  0  0  0
  192.5500  175.9550  146.5200 C   0  0  0  0  0  0  0  0  0  0  0  0
  192.6650  175.0180  143.0210 C   0  0  1  0  0  3  0  0  0  0  0  0
  192.2830  175.5980  145.2600 C   0  0  0  0  0  0  0  0  0  0  0  0
  193.4060  173.7760  142.4840 C   0  0  1  0  0  0  0  0  0  0  0  0
  193.9280  176.4050  146.8820 C   0  0  0  0  0  2  0  0  0  0  0  0
  190.9990  175.1990  144.6950 C   0  0  0  0  0  0  0  0  0  0  0  0
  188.6940  175.5250  144.2470 O   0  0  0  0  0  1  0  0  0  0  0  0
  195.7120  175.3100  144.5010 C   0  0  0  0  0  2  0  0  0  0  0  0
  194.5660  177.5440  145.6040 S   0  0  0  0  0  0  0  0  0  0  0  0
  189.7920  175.6760  145.0810 C   0  0  0  0  0  0  0  0  0  0  0  0
  192.6370  172.7270  141.6690 C   0  0  1  0  0  3  0  0  0  0  0  0
  194.5540  176.2720  144.2840 C   0  0  2  0  0  3  0  0  0  0  0  0
  191.2780  174.7000  143.3790 N   0  0  0  0  0  0  0  0  0  0  0  0
  191.5530  175.7440  147.6050 C   0  0  0  0  0  2  0  0  0  0  0  0
  194.7010  173.2990  143.1720 C   0  0  2  0  0  3  0  0  0  0  0  0
  189.5560  176.4810  146.3010 C   0  0  0  0  0  3  0  0  0  0  0  0
  191.2050  173.0120  141.5780 N   0  0  0  0  0  0  0  0  0  0  0  0
  190.5470  173.7040  142.6510 C   0  0  0  0  0  0  0  0  0  0  0  0
  196.1100  174.4320  142.9630 S   0  0  0  0  0  0  0  0  0  0  0  0
  195.9610  171.4760  142.0590 C   0  0  0  0  0  3  0  0  0  0  0  0
  195.0520  171.8360  143.0610 C   0  0  0  0  0  0  0  0  0  0  0  0
  194.5460  170.8360  143.9250 C   0  0  0  0  0  0  0  0  0  0  0  0
  193.5810  171.1390  145.0210 C   0  0  0  0  0  1  0  0  0  0  0  0
  195.8570  169.1630  142.7550 C   0  0  0  0  0  3  0  0  0  0  0  0
  194.9530  169.5080  143.7620 C   0  0  0  0  0  3  0  0  0  0  0  0
  196.3610  170.1470  141.9050 C   0  0  0  0  0  3  0  0  0  0  0  0
  190.4620  172.3350  140.5120 C   0  0  1  0  0  3  0  0  0  0  0  0
  189.4100  172.5510  138.2730 C   0  0  0  0  0  2  0  0  0  0  0  0
  188.1800  174.5370  138.6870 O   0  0  0  0  0  1  0  0  0  0  0  0
  190.0740  173.3060  139.4060 C   0  0  1  0  0  3  0  0  0  0  0  0
  188.5650  173.3260  139.2600 C   0  0  2  0  0  3  0  0  0  0  0  0
  191.2550  171.1640  139.9450 C   0  0  0  0  0  2  0  0  0  0  0  0
  190.8170  169.8660  140.5980 C   0  0  0  0  0  1  0  0  0  0  0  0
  2 18  1  0  0  0  0
  3 16  1  0  0  0  0
  3  7  1  0  0  0  0
  5  9  1  0  0  0  0
  5 18  1  0  0  0  0
  6 17  1  1  0  0  0
  6  3  1  0  0  0  0
  7  5  2  0  0  0  0
  8  4  1  6  0  0  0
  8  6  1  0  0  0  0
  8 19  1  0  0  0  0
 10 14  2  0  0  0  0
 10  7  1  0  0  0  0
 11 14  1  0  0  0  0
 13  9  1  0  0  0  0
 14 20  1  0  0  0  0
 15  4  1  6  0  0  0
 15  8  1  0  0  0  0
 16 12  1  1  0  0  0
 16 13  1  0  0  0  0
 17 10  1  0  0  0  0
 19 25  1  6  0  0  0
 20  2  2  0  0  0  0
 21 15  1  0  0  0  0
 21 22  1  0  0  0  0
 22  1  2  0  0  0  0
 22 17  1  0  0  0  0
 23 19  1  0  0  0  0
 23 12  1  0  0  0  0
 24 25  1  0  0  0  0
 25 26  2  0  0  0  0
 26 27  1  0  0  0  0
 28 29  2  0  0  0  0
 29 26  1  0  0  0  0
 30 24  2  0  0  0  0
 30 28  1  0  0  0  0
 31 36  1  6  0  0  0
 31 21  1  0  0  0  0
 32 35  1  0  0  0  0
 32 34  1  0  0  0  0
 34 31  1  1  0  0  0
 35 33  1  6  0  0  0
 35 34  1  0  0  0  0
 36 37  1  0  0  0  0
M  END
>  <MODEL>
6

>  <REMARK>
 VINA RESULT:      -6.4      2.610      6.555
  Name = 
  4 active torsions:
  status: ('A' for Active; 'I' for Inactive)
    1  A    between atoms: C_6  and  C_31
    2  A    between atoms: C_11  and  C_26
    3  A    between atoms: C_17  and  C_26
    4  A    between atoms: C_26  and  N_33
                            x       y       z     vdW  Elec       q    Type
                         _______ _______ _______ _____ _____    ______ ____

>  <TORSDO>
F 4

$$$$
=
 OpenBabel11052419533D

 37 44  0  0  1  0  0  0  0  0999 V2000
  188.7820  176.3490  142.0290 O   0  0  0  0  0  0  0  0  0  0  0  0
  189.2170  173.5360  137.3060 C   0  0  0  0  0  3  0  0  0  0  0  0
  190.6320  172.1600  141.2760 N   0  0  0  0  0  0  0  0  0  0  0  0
  190.5630  173.2140  144.8370 C   0  0  0  0  0  2  0  0  0  0  0  0
  190.7730  172.4320  138.8700 C   0  0  0  0  0  0  0  0  0  0  0  0
  190.0680  172.9260  142.3910 C   0  0  1  0  0  3  0  0  0  0  0  0
  190.3200  172.8340  140.0610 C   0  0  0  0  0  0  0  0  0  0  0  0
  191.1340  173.3150  143.4370 C   0  0  1  0  0  0  0  0  0  0  0  0
  191.5780  171.1770  138.7720 C   0  0  0  0  0  2  0  0  0  0  0  0
  189.4670  173.9790  140.3560 C   0  0  0  0  0  0  0  0  0  0  0  0
  187.5140  175.2920  140.0650 O   0  0  0  0  0  1  0  0  0  0  0  0
  192.5490  170.6910  141.7510 C   0  0  0  0  0  2  0  0  0  0  0  0
  190.8160  169.8670  139.7920 S   0  0  0  0  0  0  0  0  0  0  0  0
  188.4970  174.4620  139.5440 C   0  0  0  0  0  0  0  0  0  0  0  0
  190.9370  174.5800  144.2840 C   0  0  1  0  0  3  0  0  0  0  0  0
  191.0800  170.7650  141.3690 C   0  0  2  0  0  3  0  0  0  0  0  0
  189.4550  174.1120  141.7850 N   0  0  0  0  0  0  0  0  0  0  0  0
  190.6420  173.2990  137.6670 C   0  0  0  0  0  2  0  0  0  0  0  0
  192.5810  172.8090  143.2830 C   0  0  2  0  0  3  0  0  0  0  0  0
  188.3130  174.0720  138.1280 C   0  0  0  0  0  3  0  0  0  0  0  0
  189.7450  175.3410  143.9080 N   0  0  0  0  0  0  0  0  0  0  0  0
  189.2850  175.3160  142.5470 C   0  0  0  0  0  0  0  0  0  0  0  0
  192.7660  171.0140  143.5240 S   0  0  0  0  0  0  0  0  0  0  0  0
  194.1770  173.2170  145.1370 C   0  0  0  0  0  3  0  0  0  0  0  0
  193.6810  173.6390  143.8980 C   0  0  0  0  0  0  0  0  0  0  0  0
  194.2480  174.7780  143.2780 C   0  0  0  0  0  0  0  0  0  0  0  0
  193.7810  175.2850  141.9560 C   0  0  0  0  0  1  0  0  0  0  0  0
  195.7670  175.0390  145.1520 C   0  0  0  0  0  3  0  0  0  0  0  0
  195.2850  175.4680  143.9140 C   0  0  0  0  0  3  0  0  0  0  0  0
  195.2130  173.9130  145.7630 C   0  0  0  0  0  3  0  0  0  0  0  0
  189.2400  176.3070  144.8860 C   0  0  1  0  0  3  0  0  0  0  0  0
  189.7040  177.5410  146.9900 C   0  0  0  0  0  2  0  0  0  0  0  0
  191.0980  175.9160  148.0130 O   0  0  0  0  0  1  0  0  0  0  0  0
  190.3080  176.6690  145.9090 C   0  0  1  0  0  3  0  0  0  0  0  0
  189.9400  176.0690  147.2520 C   0  0  2  0  0  3  0  0  0  0  0  0
  188.7080  177.5600  144.1990 C   0  0  0  0  0  2  0  0  0  0  0  0
  187.2580  177.7930  144.5790 C   0  0  0  0  0  1  0  0  0  0  0  0
  1 22  2  0  0  0  0
  2 18  1  0  0  0  0
  2 20  2  0  0  0  0
  3 16  1  0  0  0  0
  5  7  2  0  0  0  0
  6  3  1  6  0  0  0
  6  8  1  0  0  0  0
  7 10  1  0  0  0  0
  7  3  1  0  0  0  0
  8 15  1  0  0  0  0
  8  4  1  1  0  0  0
  9  5  1  0  0  0  0
  9 13  1  0  0  0  0
 10 17  1  0  0  0  0
 12 23  1  0  0  0  0
 13 16  1  0  0  0  0
 14 11  1  0  0  0  0
 14 10  2  0  0  0  0
 15  4  1  1  0  0  0
 16 12  1  6  0  0  0
 17  6  1  0  0  0  0
 17 22  1  0  0  0  0
 18  5  1  0  0  0  0
 19  8  1  0  0  0  0
 19 23  1  0  0  0  0
 19 25  1  1  0  0  0
 20 14  1  0  0  0  0
 21 15  1  0  0  0  0
 21 31  1  0  0  0  0
 22 21  1  0  0  0  0
 24 30  1  0  0  0  0
 25 24  2  0  0  0  0
 26 25  1  0  0  0  0
 26 29  2  0  0  0  0
 27 26  1  0  0  0  0
 28 30  2  0  0  0  0
 29 28  1  0  0  0  0
 31 36  1  6  0  0  0
 32 35  1  0  0  0  0
 34 31  1  6  0  0  0
 34 32  1  0  0  0  0
 34 35  1  0  0  0  0
 35 33  1  1  0  0  0
 36 37  1  0  0  0  0
M  END
>  <MODEL>
7

>  <REMARK>
 VINA RESULT:      -6.0      1.317      1.570
  Name = 
  4 active torsions:
  status: ('A' for Active; 'I' for Inactive)
    1  A    between atoms: C_6  and  C_31
    2  A    between atoms: C_11  and  C_26
    3  A    between atoms: C_17  and  C_26
    4  A    between atoms: C_26  and  N_33
                            x       y       z     vdW  Elec       q    Type
                         _______ _______ _______ _____ _____    ______ ____

>  <TORSDO>
F 4

$$$$
=
 OpenBabel11052419533D

 37 44  0  0  1  0  0  0  0  0999 V2000
  193.5530  174.3860  145.9070 O   0  0  0  0  0  0  0  0  0  0  0  0
  189.0390  177.5470  145.7140 C   0  0  0  0  0  3  0  0  0  0  0  0
  190.0460  174.3000  142.8680 N   0  0  0  0  0  0  0  0  0  0  0  0
  192.5990  171.6460  142.3770 C   0  0  0  0  0  2  0  0  0  0  0  0
  189.1830  176.4790  143.4950 C   0  0  0  0  0  0  0  0  0  0  0  0
  191.0940  173.4020  143.3610 C   0  0  1  0  0  3  0  0  0  0  0  0
  189.9810  175.4320  143.7290 C   0  0  0  0  0  0  0  0  0  0  0  0
  192.1600  173.0940  142.2880 C   0  0  1  0  0  0  0  0  0  0  0  0
  188.2510  176.4480  142.3290 C   0  0  0  0  0  2  0  0  0  0  0  0
  190.9030  175.2400  144.8430 C   0  0  0  0  0  0  0  0  0  0  0  0
  191.4420  175.1480  147.1500 O   0  0  0  0  0  1  0  0  0  0  0  0
  189.4520  174.1670  140.4830 C   0  0  0  0  0  2  0  0  0  0  0  0
  187.4370  174.8160  142.2250 S   0  0  0  0  0  0  0  0  0  0  0  0
  190.7130  175.6960  146.1030 C   0  0  0  0  0  0  0  0  0  0  0  0
  193.5910  172.7460  142.7190 C   0  0  1  0  0  3  0  0  0  0  0  0
  189.0020  173.9140  141.9130 C   0  0  2  0  0  3  0  0  0  0  0  0
  191.6830  174.0790  144.5210 N   0  0  0  0  0  0  0  0  0  0  0  0
  189.3310  177.7430  144.2660 C   0  0  0  0  0  2  0  0  0  0  0  0
  191.9850  173.6370  140.8560 C   0  0  2  0  0  3  0  0  0  0  0  0
  189.6750  176.6760  146.4970 C   0  0  0  0  0  3  0  0  0  0  0  0
  193.7920  172.8450  144.1650 N   0  0  0  0  0  0  0  0  0  0  0  0
  193.0280  173.7930  144.9280 C   0  0  0  0  0  0  0  0  0  0  0  0
  190.6080  172.8770  139.9390 S   0  0  0  0  0  0  0  0  0  0  0  0
  193.4860  172.9540  139.0040 C   0  0  0  0  0  3  0  0  0  0  0  0
  193.2320  173.8620  140.0380 C   0  0  0  0  0  0  0  0  0  0  0  0
  194.1200  174.9470  140.2370 C   0  0  0  0  0  0  0  0  0  0  0  0
  193.9160  175.9610  141.3100 C   0  0  0  0  0  1  0  0  0  0  0  0
  195.4800  174.1710  138.3830 C   0  0  0  0  0  3  0  0  0  0  0  0
  195.2380  175.0880  139.4080 C   0  0  0  0  0  3  0  0  0  0  0  0
  194.6040  173.1050  138.1810 C   0  0  0  0  0  3  0  0  0  0  0  0
  194.9600  172.1550  144.7190 C   0  0  1  0  0  3  0  0  0  0  0  0
  197.1920  172.4020  145.7780 C   0  0  0  0  0  2  0  0  0  0  0  0
  197.8790  174.3590  144.6250 O   0  0  0  0  0  1  0  0  0  0  0  0
  195.9600  173.1440  145.3030 C   0  0  1  0  0  3  0  0  0  0  0  0
  197.2190  173.1420  144.4590 C   0  0  2  0  0  3  0  0  0  0  0  0
  194.5470  171.1270  145.7660 C   0  0  0  0  0  2  0  0  0  0  0  0
  194.5350  169.7360  145.1610 C   0  0  0  0  0  1  0  0  0  0  0  0
  2 20  2  0  0  0  0
  3  7  1  0  0  0  0
  5  7  2  0  0  0  0
  5 18  1  0  0  0  0
  6  3  1  6  0  0  0
  6 17  1  0  0  0  0
  7 10  1  0  0  0  0
  8  4  1  6  0  0  0
  8 15  1  0  0  0  0
  8  6  1  0  0  0  0
  9  5  1  0  0  0  0
 10 14  2  0  0  0  0
 13  9  1  0  0  0  0
 14 20  1  0  0  0  0
 14 11  1  0  0  0  0
 15  4  1  1  0  0  0
 15 21  1  0  0  0  0
 16 12  1  6  0  0  0
 16 13  1  0  0  0  0
 16  3  1  0  0  0  0
 17 10  1  0  0  0  0
 17 22  1  0  0  0  0
 18  2  1  0  0  0  0
 19 25  1  6  0  0  0
 19  8  1  0  0  0  0
 21 31  1  0  0  0  0
 21 22  1  0  0  0  0
 22  1  2  0  0  0  0
 23 12  1  0  0  0  0
 23 19  1  0  0  0  0
 24 25  1  0  0  0  0
 25 26  2  0  0  0  0
 26 27  1  0  0  0  0
 28 29  2  0  0  0  0
 29 26  1  0  0  0  0
 30 28  1  0  0  0  0
 30 24  2  0  0  0  0
 31 36  1  1  0  0  0
 34 31  1  6  0  0  0
 34 32  1  0  0  0  0
 35 33  1  1  0  0  0
 35 34  1  0  0  0  0
 35 32  1  0  0  0  0
 37 36  1  0  0  0  0
M  END
>  <MODEL>
8

>  <REMARK>
 VINA RESULT:      -5.9      3.319      6.743
  Name = 
  4 active torsions:
  status: ('A' for Active; 'I' for Inactive)
    1  A    between atoms: C_6  and  C_31
    2  A    between atoms: C_11  and  C_26
    3  A    between atoms: C_17  and  C_26
    4  A    between atoms: C_26  and  N_33
                            x       y       z     vdW  Elec       q    Type
                         _______ _______ _______ _____ _____    ______ ____

>  <TORSDO>
F 4

$$$$
=
 OpenBabel11052419533D

 37 44  0  0  1  0  0  0  0  0999 V2000
  192.7170  173.2460  139.3590 O   0  0  0  0  0  0  0  0  0  0  0  0
  197.8860  174.8480  140.4170 C   0  0  0  0  0  3  0  0  0  0  0  0
  194.7660  174.0100  143.4520 N   0  0  0  0  0  0  0  0  0  0  0  0
  191.2840  172.7310  143.6670 C   0  0  0  0  0  2  0  0  0  0  0  0
  196.6430  175.2250  142.5140 C   0  0  0  0  0  0  0  0  0  0  0  0
  193.6240  173.2620  142.9190 C   0  0  1  0  0  3  0  0  0  0  0  0
  195.5720  174.4400  142.3610 C   0  0  0  0  0  0  0  0  0  0  0  0
  192.2710  173.8450  143.3780 C   0  0  1  0  0  0  0  0  0  0  0  0
  197.0800  175.6170  143.8870 C   0  0  0  0  0  2  0  0  0  0  0  0
  195.0310  173.8950  141.1220 C   0  0  0  0  0  0  0  0  0  0  0  0
  195.2070  172.6930  139.0850 O   0  0  0  0  0  1  0  0  0  0  0  0
  194.5140  175.0600  145.6640 C   0  0  0  0  0  2  0  0  0  0  0  0
  197.0190  174.1670  144.9970 S   0  0  0  0  0  0  0  0  0  0  0  0
  195.7610  173.5340  140.0400 C   0  0  0  0  0  0  0  0  0  0  0  0
  191.0290  173.6640  142.4940 C   0  0  1  0  0  3  0  0  0  0  0  0
  195.2020  173.9740  144.8530 C   0  0  2  0  0  3  0  0  0  0  0  0
  193.7620  173.3150  141.4600 N   0  0  0  0  0  0  0  0  0  0  0  0
  197.3020  175.8610  141.3400 C   0  0  0  0  0  2  0  0  0  0  0  0
  192.2400  175.0200  144.3740 C   0  0  2  0  0  3  0  0  0  0  0  0
  197.1900  173.8680  139.8400 C   0  0  0  0  0  3  0  0  0  0  0  0
  191.3240  173.0050  141.2220 N   0  0  0  0  0  0  0  0  0  0  0  0
  192.6130  173.1770  140.6120 C   0  0  0  0  0  0  0  0  0  0  0  0
  192.8050  174.5840  146.0490 S   0  0  0  0  0  0  0  0  0  0  0  0
  191.1090  177.0310  143.4660 C   0  0  0  0  0  3  0  0  0  0  0  0
  191.0430  175.9370  144.3370 C   0  0  0  0  0  0  0  0  0  0  0  0
  189.8670  175.7290  145.0960 C   0  0  0  0  0  0  0  0  0  0  0  0
  189.7150  174.5840  146.0390 C   0  0  0  0  0  1  0  0  0  0  0  0
  188.8780  177.7100  144.1040 C   0  0  0  0  0  3  0  0  0  0  0  0
  188.7960  176.6210  144.9730 C   0  0  0  0  0  3  0  0  0  0  0  0
  190.0340  177.9150  143.3500 C   0  0  0  0  0  3  0  0  0  0  0  0
  190.1910  172.4200  140.5010 C   0  0  1  0  0  3  0  0  0  0  0  0
  188.8400  172.5470  138.4210 C   0  0  0  0  0  2  0  0  0  0  0  0
  187.8600  174.6740  138.8060 O   0  0  0  0  0  1  0  0  0  0  0  0
  189.7270  173.3270  139.3690 C   0  0  1  0  0  3  0  0  0  0  0  0
  188.2210  173.4840  139.4360 C   0  0  2  0  0  3  0  0  0  0  0  0
  190.5320  171.0320  139.9710 C   0  0  0  0  0  2  0  0  0  0  0  0
  190.8160  170.0850  141.1210 C   0  0  0  0  0  1  0  0  0  0  0  0
  1 22  2  0  0  0  0
  2 18  1  0  0  0  0
  3 16  1  0  0  0  0
  5  9  1  0  0  0  0
  6 17  1  6  0  0  0
  6  8  1  0  0  0  0
  6  3  1  0  0  0  0
  7  5  2  0  0  0  0
  7  3  1  0  0  0  0
  8  4  1  1  0  0  0
  8 19  1  0  0  0  0
  9 13  1  0  0  0  0
 10 17  1  0  0  0  0
 10  7  1  0  0  0  0
 11 14  1  0  0  0  0
 12 23  1  0  0  0  0
 14 10  2  0  0  0  0
 15  8  1  0  0  0  0
 15  4  1  1  0  0  0
 16 13  1  0  0  0  0
 16 12  1  1  0  0  0
 18  5  1  0  0  0  0
 19 25  1  1  0  0  0
 19 23  1  0  0  0  0
 20 14  1  0  0  0  0
 20  2  2  0  0  0  0
 21 15  1  0  0  0  0
 22 21  1  0  0  0  0
 22 17  1  0  0  0  0
 24 25  1  0  0  0  0
 25 26  2  0  0  0  0
 26 27  1  0  0  0  0
 28 29  2  0  0  0  0
 29 26  1  0  0  0  0
 30 24  2  0  0  0  0
 30 28  1  0  0  0  0
 31 36  1  6  0  0  0
 31 21  1  0  0  0  0
 32 34  1  0  0  0  0
 32 35  1  0  0  0  0
 34 35  1  0  0  0  0
 34 31  1  1  0  0  0
 35 33  1  6  0  0  0
 36 37  1  0  0  0  0
M  END
>  <MODEL>
9

>  <REMARK>
 VINA RESULT:      -5.7      2.813      6.325
  Name = 
  4 active torsions:
  status: ('A' for Active; 'I' for Inactive)
    1  A    between atoms: C_6  and  C_31
    2  A    between atoms: C_11  and  C_26
    3  A    between atoms: C_17  and  C_26
    4  A    between atoms: C_26  and  N_33
                            x       y       z     vdW  Elec       q    Type
                         _______ _______ _______ _____ _____    ______ ____

>  <TORSDO>
F 4

$$$$
