=
 OpenBabel11052417153D

 30 31  0  0  1  0  0  0  0  0999 V2000
  188.6670  176.2090  143.6700 C   0  0  1  0  0  0  0  0  0  0  0  0
  188.1400  178.2630  142.0850 C   0  0  0  0  0  3  0  0  0  0  0  0
  188.9280  177.4690  142.8290 C   0  0  0  0  0  3  0  0  0  0  0  0
  186.2050  177.9120  140.6610 C   0  0  0  0  0  0  0  0  0  0  0  0
  184.7600  177.9990  140.3740 C   0  0  0  0  0  3  0  0  0  0  0  0
  187.0440  177.5240  139.6670 F   0  0  0  0  0  0  0  0  0  0  0  0
  183.8800  178.1990  141.3560 C   0  0  0  0  0  3  0  0  0  0  0  0
  186.6810  178.2260  141.8780 C   0  0  0  0  0  0  0  0  0  0  0  0
  184.3340  178.2530  142.7860 C   0  0  0  0  0  2  0  0  0  0  0  0
  185.7470  178.8340  142.8920 C   0  0  0  0  0  2  0  0  0  0  0  0
  187.0330  174.8460  142.4350 O   0  0  0  0  0  1  0  0  0  0  0  0
  188.3920  174.9810  142.7310 C   0  0  1  0  0  3  0  0  0  0  0  0
  188.4070  174.4830  140.1900 C   0  0  0  0  0  2  0  0  0  0  0  0
  190.2840  173.7560  141.4710 C   0  0  0  0  0  2  0  0  0  0  0  0
  189.1960  174.7850  141.4340 C   0  0  2  0  0  3  0  0  0  0  0  0
  189.3230  173.8470  139.2500 N   0  0  0  0  0  2  0  0  0  0  0  0
  190.5130  173.4500  140.0060 C   0  0  0  0  0  2  0  0  0  0  0  0
  189.8420  175.9110  144.6450 C   0  0  2  0  0  3  0  0  0  0  0  0
  191.9730  176.9910  145.0550 O   0  0  0  0  0  1  0  0  0  0  0  0
  191.2130  176.3260  144.0890 C   0  0  0  0  0  2  0  0  0  0  0  0
  189.8590  174.4320  145.0680 C   0  0  0  0  0  2  0  0  0  0  0  0
  189.4170  174.2390  146.5100 C   0  0  0  0  0  2  0  0  0  0  0  0
  190.1640  175.1870  147.4290 C   0  0  0  0  0  1  0  0  0  0  0  0
  187.5280  176.3930  144.5180 O   0  0  0  0  0  0  0  0  0  0  0  0
  187.7460  177.3400  145.5390 C   0  0  0  0  0  2  0  0  0  0  0  0
  186.8860  177.0060  146.7440 C   0  0  0  0  0  2  0  0  0  0  0  0
  185.4160  177.0800  146.3720 C   0  0  0  0  0  2  0  0  0  0  0  0
  185.6130  179.3240  147.4360 O   0  0  0  0  0  1  0  0  0  0  0  0
  184.9000  178.4520  146.6230 C   0  0  0  0  0  0  0  0  0  0  0  0
  183.8340  178.8340  146.0760 O   0  0  0  0  0  0  0  0  0  0  0  0
  1  3  1  6  0  0  0
  1 24  1  0  0  0  0
  1 18  1  0  0  0  0
  2  3  2  0  0  0  0
  4  8  2  0  0  0  0
  5  4  1  0  0  0  0
  5  7  2  0  0  0  0
  6  4  1  0  0  0  0
  7  9  1  0  0  0  0
  8  2  1  0  0  0  0
  8 10  1  0  0  0  0
  9 10  1  0  0  0  0
 12 11  1  6  0  0  0
 12  1  1  0  0  0  0
 13 15  1  0  0  0  0
 15 14  1  0  0  0  0
 15 12  1  1  0  0  0
 16 17  1  0  0  0  0
 16 13  1  0  0  0  0
 17 14  1  0  0  0  0
 18 20  1  6  0  0  0
 18 21  1  0  0  0  0
 20 19  1  0  0  0  0
 21 22  1  0  0  0  0
 22 23  1  0  0  0  0
 24 25  1  0  0  0  0
 25 26  1  0  0  0  0
 27 29  1  0  0  0  0
 27 26  1  0  0  0  0
 29 28  1  0  0  0  0
 30 29  2  0  0  0  0
M  END
>  <MODEL>
1

>  <REMARK>
 VINA RESULT:      -6.4      0.000      0.000
  Name = 
  13 active torsions:
  status: ('A' for Active; 'I' for Inactive)
    1  A    between atoms: C_1  and  C_22
    2  A    between atoms: C_3  and  C_19
    3  A    between atoms: C_4  and  C_13
    4  A    between atoms: C_7  and  C_15
    5  A    between atoms: C_7  and  C_16
    6  A    between atoms: C_8  and  C_12
    7  A    between atoms: C_8  and  C_13
    8  A    between atoms: C_13  and  C_23
    9  A    between atoms: C_13  and  O_27
   10  A    between atoms: C_16  and  C_30
   11  A    between atoms: C_19  and  C_23
   12  A    between atoms: C_23  and  C_25
   13  A    between atoms: O_27  and  C_30
                            x       y       z     vdW  Elec       q    Type
                         _______ _______ _______ _____ _____    ______ ____

>  <TORSDO>
F 13

$$$$
=
 OpenBabel11052417153D

 30 31  0  0  1  0  0  0  0  0999 V2000
  190.4530  175.4810  144.2370 C   0  0  1  0  0  0  0  0  0  0  0  0
  189.3190  177.8290  144.6970 C   0  0  0  0  0  3  0  0  0  0  0  0
  190.3050  177.0100  144.2950 C   0  0  0  0  0  3  0  0  0  0  0  0
  187.9190  177.4850  146.6500 C   0  0  0  0  0  0  0  0  0  0  0  0
  186.6720  177.0380  147.3040 C   0  0  0  0  0  3  0  0  0  0  0  0
  188.9660  177.8530  147.4300 F   0  0  0  0  0  0  0  0  0  0  0  0
  185.5620  176.8400  146.5920 C   0  0  0  0  0  3  0  0  0  0  0  0
  188.0160  177.5130  145.3100 C   0  0  0  0  0  0  0  0  0  0  0  0
  185.5330  177.1520  145.1230 C   0  0  0  0  0  2  0  0  0  0  0  0
  186.9050  176.9180  144.4850 C   0  0  0  0  0  2  0  0  0  0  0  0
  192.3820  176.1940  142.8870 O   0  0  0  0  0  1  0  0  0  0  0  0
  191.6090  175.0880  143.2480 C   0  0  1  0  0  3  0  0  0  0  0  0
  194.0280  174.1910  143.4700 C   0  0  0  0  0  2  0  0  0  0  0  0
  192.3350  172.6530  142.7890 C   0  0  0  0  0  2  0  0  0  0  0  0
  192.5530  173.9160  143.5660 C   0  0  2  0  0  3  0  0  0  0  0  0
  194.6900  172.9030  143.2960 N   0  0  0  0  0  2  0  0  0  0  0  0
  193.6570  171.9280  142.9390 C   0  0  0  0  0  2  0  0  0  0  0  0
  190.6960  174.8690  145.6460 C   0  0  2  0  0  3  0  0  0  0  0  0
  189.3750  174.6200  147.6630 O   0  0  0  0  0  1  0  0  0  0  0  0
  189.4190  174.3190  146.2990 C   0  0  0  0  0  2  0  0  0  0  0  0
  191.3880  175.8740  146.5830 C   0  0  0  0  0  2  0  0  0  0  0  0
  192.8350  175.4990  146.8630 C   0  0  0  0  0  2  0  0  0  0  0  0
  193.7710  176.5970  146.3970 C   0  0  0  0  0  1  0  0  0  0  0  0
  189.2420  174.8710  143.7790 O   0  0  0  0  0  0  0  0  0  0  0  0
  189.2060  174.6940  142.3800 C   0  0  0  0  0  2  0  0  0  0  0  0
  187.7940  174.9090  141.8690 C   0  0  0  0  0  2  0  0  0  0  0  0
  187.8160  175.7810  140.6270 C   0  0  0  0  0  2  0  0  0  0  0  0
  186.0650  177.5360  140.8810 O   0  0  0  0  0  0  0  0  0  0  0  0
  187.4010  177.1660  140.9760 C   0  0  0  0  0  0  0  0  0  0  0  0
  188.2540  177.9940  141.3860 O   0  0  0  0  0  1  0  0  0  0  0  0
  1  3  1  1  0  0  0
  1 18  1  0  0  0  0
  2  8  1  0  0  0  0
  3  2  2  0  0  0  0
  4  5  1  0  0  0  0
  4  6  1  0  0  0  0
  7  5  2  0  0  0  0
  8  4  2  0  0  0  0
  9  7  1  0  0  0  0
 10  9  1  0  0  0  0
 10  8  1  0  0  0  0
 12 11  1  1  0  0  0
 12  1  1  0  0  0  0
 13 15  1  0  0  0  0
 14 17  1  0  0  0  0
 14 15  1  0  0  0  0
 15 12  1  6  0  0  0
 16 13  1  0  0  0  0
 17 16  1  0  0  0  0
 18 20  1  1  0  0  0
 18 21  1  0  0  0  0
 20 19  1  0  0  0  0
 21 22  1  0  0  0  0
 23 22  1  0  0  0  0
 24  1  1  0  0  0  0
 25 24  1  0  0  0  0
 26 25  1  0  0  0  0
 27 29  1  0  0  0  0
 27 26  1  0  0  0  0
 28 29  2  0  0  0  0
 29 30  1  0  0  0  0
M  END
>  <MODEL>
2

>  <REMARK>
 VINA RESULT:      -5.6      3.032      4.836
  Name = 
  13 active torsions:
  status: ('A' for Active; 'I' for Inactive)
    1  A    between atoms: C_1  and  C_22
    2  A    between atoms: C_3  and  C_19
    3  A    between atoms: C_4  and  C_13
    4  A    between atoms: C_7  and  C_15
    5  A    between atoms: C_7  and  C_16
    6  A    between atoms: C_8  and  C_12
    7  A    between atoms: C_8  and  C_13
    8  A    between atoms: C_13  and  C_23
    9  A    between atoms: C_13  and  O_27
   10  A    between atoms: C_16  and  C_30
   11  A    between atoms: C_19  and  C_23
   12  A    between atoms: C_23  and  C_25
   13  A    between atoms: O_27  and  C_30
                            x       y       z     vdW  Elec       q    Type
                         _______ _______ _______ _____ _____    ______ ____

>  <TORSDO>
F 13

$$$$
=
 OpenBabel11052417153D

 30 31  0  0  1  0  0  0  0  0999 V2000
  189.5270  175.8780  145.0320 C   0  0  1  0  0  0  0  0  0  0  0  0
  187.6460  175.8960  146.8950 C   0  0  0  0  0  3  0  0  0  0  0  0
  188.7600  175.4470  146.2920 C   0  0  0  0  0  3  0  0  0  0  0  0
  186.7580  178.1450  147.1180 C   0  0  0  0  0  0  0  0  0  0  0  0
  185.7500  179.1870  146.8370 C   0  0  0  0  0  3  0  0  0  0  0  0
  187.7240  178.4040  148.0350 F   0  0  0  0  0  0  0  0  0  0  0  0
  184.8940  179.0530  145.8230 C   0  0  0  0  0  3  0  0  0  0  0  0
  186.7100  176.9590  146.4860 C   0  0  0  0  0  0  0  0  0  0  0  0
  184.9960  177.8800  144.8900 C   0  0  0  0  0  2  0  0  0  0  0  0
  185.5180  176.6400  145.6230 C   0  0  0  0  0  2  0  0  0  0  0  0
  190.4560  177.5120  146.6200 O   0  0  0  0  0  1  0  0  0  0  0  0
  190.7070  176.8390  145.4220 C   0  0  1  0  0  3  0  0  0  0  0  0
  192.8390  176.2800  146.7810 C   0  0  0  0  0  2  0  0  0  0  0  0
  193.1250  177.0450  144.5390 C   0  0  0  0  0  2  0  0  0  0  0  0
  192.1600  176.3360  145.4400 C   0  0  2  0  0  3  0  0  0  0  0  0
  194.2760  176.2880  146.5300 N   0  0  0  0  0  2  0  0  0  0  0  0
  194.4710  176.6940  145.1370 C   0  0  0  0  0  2  0  0  0  0  0  0
  190.0510  174.6550  144.2270 C   0  0  2  0  0  3  0  0  0  0  0  0
  188.3620  173.7430  142.7470 O   0  0  0  0  0  1  0  0  0  0  0  0
  189.4830  174.5750  142.8020 C   0  0  0  0  0  2  0  0  0  0  0  0
  189.7990  173.3370  144.9800 C   0  0  0  0  0  2  0  0  0  0  0  0
  190.7670  172.2400  144.5630 C   0  0  0  0  0  2  0  0  0  0  0  0
  192.1900  172.7600  144.5470 C   0  0  0  0  0  1  0  0  0  0  0  0
  188.6640  176.5690  144.1240 O   0  0  0  0  0  0  0  0  0  0  0  0
  189.1830  177.8110  143.7030 C   0  0  0  0  0  2  0  0  0  0  0  0
  188.8240  178.0550  142.2490 C   0  0  0  0  0  2  0  0  0  0  0  0
  187.3310  178.2880  142.1120 C   0  0  0  0  0  2  0  0  0  0  0  0
  187.4380  176.3560  140.5420 O   0  0  0  0  0  1  0  0  0  0  0  0
  186.8060  177.5240  140.9490 C   0  0  0  0  0  0  0  0  0  0  0  0
  185.7720  177.9190  140.3520 O   0  0  0  0  0  0  0  0  0  0  0  0
  1 12  1  0  0  0  0
  1  3  1  1  0  0  0
  3  2  2  0  0  0  0
  4  6  1  0  0  0  0
  5  4  1  0  0  0  0
  7  5  2  0  0  0  0
  8  2  1  0  0  0  0
  8  4  2  0  0  0  0
  9 10  1  0  0  0  0
  9  7  1  0  0  0  0
 10  8  1  0  0  0  0
 12 11  1  1  0  0  0
 14 17  1  0  0  0  0
 14 15  1  0  0  0  0
 15 12  1  1  0  0  0
 15 13  1  0  0  0  0
 16 13  1  0  0  0  0
 17 16  1  0  0  0  0
 18 20  1  6  0  0  0
 18 21  1  0  0  0  0
 18  1  1  0  0  0  0
 19 20  1  0  0  0  0
 22 21  1  0  0  0  0
 23 22  1  0  0  0  0
 24  1  1  0  0  0  0
 25 24  1  0  0  0  0
 26 25  1  0  0  0  0
 27 26  1  0  0  0  0
 28 29  1  0  0  0  0
 29 27  1  0  0  0  0
 30 29  2  0  0  0  0
M  END
>  <MODEL>
3

>  <REMARK>
 VINA RESULT:      -5.6      3.101      5.273
  Name = 
  13 active torsions:
  status: ('A' for Active; 'I' for Inactive)
    1  A    between atoms: C_1  and  C_22
    2  A    between atoms: C_3  and  C_19
    3  A    between atoms: C_4  and  C_13
    4  A    between atoms: C_7  and  C_15
    5  A    between atoms: C_7  and  C_16
    6  A    between atoms: C_8  and  C_12
    7  A    between atoms: C_8  and  C_13
    8  A    between atoms: C_13  and  C_23
    9  A    between atoms: C_13  and  O_27
   10  A    between atoms: C_16  and  C_30
   11  A    between atoms: C_19  and  C_23
   12  A    between atoms: C_23  and  C_25
   13  A    between atoms: O_27  and  C_30
                            x       y       z     vdW  Elec       q    Type
                         _______ _______ _______ _____ _____    ______ ____

>  <TORSDO>
F 13

$$$$
=
 OpenBabel11052417153D

 30 31  0  0  1  0  0  0  0  0999 V2000
  190.8240  175.5890  144.1410 C   0  0  1  0  0  0  0  0  0  0  0  0
  189.6590  177.9140  144.6350 C   0  0  0  0  0  3  0  0  0  0  0  0
  190.6840  177.1100  144.3050 C   0  0  0  0  0  3  0  0  0  0  0  0
  187.3020  177.6520  144.1170 C   0  0  0  0  0  0  0  0  0  0  0  0
  185.8910  177.4590  144.5060 C   0  0  0  0  0  3  0  0  0  0  0  0
  187.5880  177.9200  142.8180 F   0  0  0  0  0  0  0  0  0  0  0  0
  185.5730  177.0190  145.7240 C   0  0  0  0  0  3  0  0  0  0  0  0
  188.2810  177.5770  145.0350 C   0  0  0  0  0  0  0  0  0  0  0  0
  186.6480  176.6270  146.6970 C   0  0  0  0  0  2  0  0  0  0  0  0
  187.9090  177.4710  146.4900 C   0  0  0  0  0  2  0  0  0  0  0  0
  192.8710  176.3420  143.0030 O   0  0  0  0  0  1  0  0  0  0  0  0
  192.0010  175.2590  143.1550 C   0  0  1  0  0  3  0  0  0  0  0  0
  194.3340  174.1410  143.2800 C   0  0  0  0  0  2  0  0  0  0  0  0
  192.5330  172.8500  142.3930 C   0  0  0  0  0  2  0  0  0  0  0  0
  192.8390  173.9800  143.3280 C   0  0  2  0  0  3  0  0  0  0  0  0
  194.8910  172.8340  142.9480 N   0  0  0  0  0  2  0  0  0  0  0  0
  193.7870  172.0030  142.4610 C   0  0  0  0  0  2  0  0  0  0  0  0
  191.0290  174.8760  145.5080 C   0  0  2  0  0  3  0  0  0  0  0  0
  189.5920  174.6500  147.4470 O   0  0  0  0  0  1  0  0  0  0  0  0
  189.7290  174.3090  146.0990 C   0  0  0  0  0  2  0  0  0  0  0  0
  191.7230  175.7980  146.5240 C   0  0  0  0  0  2  0  0  0  0  0  0
  193.2020  175.4770  146.6790 C   0  0  0  0  0  2  0  0  0  0  0  0
  194.0380  176.7350  146.5500 C   0  0  0  0  0  1  0  0  0  0  0  0
  189.6210  175.0230  143.6110 O   0  0  0  0  0  0  0  0  0  0  0  0
  189.4960  175.1930  142.2170 C   0  0  0  0  0  2  0  0  0  0  0  0
  188.1110  174.7680  141.7670 C   0  0  0  0  0  2  0  0  0  0  0  0
  188.0320  173.2550  141.6790 C   0  0  0  0  0  2  0  0  0  0  0  0
  188.1470  173.1930  139.1910 O   0  0  0  0  0  0  0  0  0  0  0  0
  188.6650  172.7900  140.4150 C   0  0  0  0  0  0  0  0  0  0  0  0
  189.6850  172.0560  140.4540 O   0  0  0  0  0  1  0  0  0  0  0  0
  1  3  1  1  0  0  0
  1 18  1  0  0  0  0
  2  8  1  0  0  0  0
  3  2  2  0  0  0  0
  4  5  1  0  0  0  0
  4  8  2  0  0  0  0
  5  7  2  0  0  0  0
  6  4  1  0  0  0  0
  7  9  1  0  0  0  0
  8 10  1  0  0  0  0
 10  9  1  0  0  0  0
 12 11  1  1  0  0  0
 12  1  1  0  0  0  0
 13 15  1  0  0  0  0
 14 17  1  0  0  0  0
 14 15  1  0  0  0  0
 15 12  1  6  0  0  0
 16 13  1  0  0  0  0
 17 16  1  0  0  0  0
 18 20  1  1  0  0  0
 18 21  1  0  0  0  0
 20 19  1  0  0  0  0
 21 22  1  0  0  0  0
 23 22  1  0  0  0  0
 24  1  1  0  0  0  0
 25 24  1  0  0  0  0
 26 25  1  0  0  0  0
 27 26  1  0  0  0  0
 28 29  2  0  0  0  0
 29 30  1  0  0  0  0
 29 27  1  0  0  0  0
M  END
>  <MODEL>
4

>  <REMARK>
 VINA RESULT:      -5.5      2.973      5.181
  Name = 
  13 active torsions:
  status: ('A' for Active; 'I' for Inactive)
    1  A    between atoms: C_1  and  C_22
    2  A    between atoms: C_3  and  C_19
    3  A    between atoms: C_4  and  C_13
    4  A    between atoms: C_7  and  C_15
    5  A    between atoms: C_7  and  C_16
    6  A    between atoms: C_8  and  C_12
    7  A    between atoms: C_8  and  C_13
    8  A    between atoms: C_13  and  C_23
    9  A    between atoms: C_13  and  O_27
   10  A    between atoms: C_16  and  C_30
   11  A    between atoms: C_19  and  C_23
   12  A    between atoms: C_23  and  C_25
   13  A    between atoms: O_27  and  C_30
                            x       y       z     vdW  Elec       q    Type
                         _______ _______ _______ _____ _____    ______ ____

>  <TORSDO>
F 13

$$$$
=
 OpenBabel11052417153D

 30 31  0  0  1  0  0  0  0  0999 V2000
  188.7360  176.5970  144.0340 C   0  0  1  0  0  0  0  0  0  0  0  0
  191.0250  177.9260  144.0860 C   0  0  0  0  0  3  0  0  0  0  0  0
  189.7140  177.7660  143.8390 C   0  0  0  0  0  3  0  0  0  0  0  0
  192.7070  176.2170  143.7000 C   0  0  0  0  0  0  0  0  0  0  0  0
  193.6090  175.1420  144.1600 C   0  0  0  0  0  3  0  0  0  0  0  0
  192.5750  176.4300  142.3670 F   0  0  0  0  0  0  0  0  0  0  0  0
  193.9100  175.0110  145.4530 C   0  0  0  0  0  3  0  0  0  0  0  0
  192.0200  176.9590  144.5860 C   0  0  0  0  0  0  0  0  0  0  0  0
  193.4090  176.0080  146.4570 C   0  0  0  0  0  2  0  0  0  0  0  0
  192.0460  176.5680  146.0410 C   0  0  0  0  0  2  0  0  0  0  0  0
  188.6460  177.5420  146.3030 O   0  0  0  0  0  1  0  0  0  0  0  0
  187.9360  176.7800  145.3720 C   0  0  1  0  0  3  0  0  0  0  0  0
  186.2600  178.7540  145.3490 C   0  0  0  0  0  2  0  0  0  0  0  0
  185.5860  176.7440  146.4440 C   0  0  0  0  0  2  0  0  0  0  0  0
  186.4760  177.2660  145.3570 C   0  0  2  0  0  3  0  0  0  0  0  0
  184.9080  178.9890  145.8440 N   0  0  0  0  0  2  0  0  0  0  0  0
  184.4500  177.7440  146.4640 C   0  0  0  0  0  2  0  0  0  0  0  0
  187.7690  176.4450  142.8250 C   0  0  2  0  0  3  0  0  0  0  0  0
  188.1990  175.3530  140.7040 O   0  0  0  0  0  1  0  0  0  0  0  0
  187.9540  175.1250  142.0600 C   0  0  0  0  0  2  0  0  0  0  0  0
  187.8780  177.6410  141.8640 C   0  0  0  0  0  2  0  0  0  0  0  0
  186.5770  178.4250  141.7700 C   0  0  0  0  0  2  0  0  0  0  0  0
  185.7050  177.8790  140.6570 C   0  0  0  0  0  1  0  0  0  0  0  0
  189.4400  175.3520  144.0960 O   0  0  0  0  0  0  0  0  0  0  0  0
  189.2560  174.6740  145.3190 C   0  0  0  0  0  2  0  0  0  0  0  0
  189.8940  173.2990  145.2470 C   0  0  0  0  0  2  0  0  0  0  0  0
  190.5650  173.1050  143.9000 C   0  0  0  0  0  2  0  0  0  0  0  0
  190.7460  170.9590  142.6460 O   0  0  0  0  0  0  0  0  0  0  0  0
  189.9440  171.9570  143.1870 C   0  0  0  0  0  0  0  0  0  0  0  0
  188.6920  171.8720  143.0990 O   0  0  0  0  0  1  0  0  0  0  0  0
  1  3  1  6  0  0  0
  1 24  1  0  0  0  0
  1 12  1  0  0  0  0
  2  8  1  0  0  0  0
  3  2  2  0  0  0  0
  4  5  1  0  0  0  0
  4  8  2  0  0  0  0
  5  7  2  0  0  0  0
  6  4  1  0  0  0  0
  7  9  1  0  0  0  0
  8 10  1  0  0  0  0
 10  9  1  0  0  0  0
 12 11  1  1  0  0  0
 13 15  1  0  0  0  0
 13 16  1  0  0  0  0
 14 17  1  0  0  0  0
 15 12  1  1  0  0  0
 15 14  1  0  0  0  0
 16 17  1  0  0  0  0
 18 21  1  6  0  0  0
 18  1  1  0  0  0  0
 19 20  1  0  0  0  0
 20 18  1  0  0  0  0
 22 21  1  0  0  0  0
 23 22  1  0  0  0  0
 24 25  1  0  0  0  0
 26 25  1  0  0  0  0
 27 26  1  0  0  0  0
 28 29  2  0  0  0  0
 29 27  1  0  0  0  0
 30 29  1  0  0  0  0
M  END
>  <MODEL>
5

>  <REMARK>
 VINA RESULT:      -5.5      2.872      6.971
  Name = 
  13 active torsions:
  status: ('A' for Active; 'I' for Inactive)
    1  A    between atoms: C_1  and  C_22
    2  A    between atoms: C_3  and  C_19
    3  A    between atoms: C_4  and  C_13
    4  A    between atoms: C_7  and  C_15
    5  A    between atoms: C_7  and  C_16
    6  A    between atoms: C_8  and  C_12
    7  A    between atoms: C_8  and  C_13
    8  A    between atoms: C_13  and  C_23
    9  A    between atoms: C_13  and  O_27
   10  A    between atoms: C_16  and  C_30
   11  A    between atoms: C_19  and  C_23
   12  A    between atoms: C_23  and  C_25
   13  A    between atoms: O_27  and  C_30
                            x       y       z     vdW  Elec       q    Type
                         _______ _______ _______ _____ _____    ______ ____

>  <TORSDO>
F 13

$$$$
=
 OpenBabel11052417153D

 30 31  0  0  1  0  0  0  0  0999 V2000
  188.6900  176.2770  144.0460 C   0  0  1  0  0  0  0  0  0  0  0  0
  187.9720  175.8900  146.5650 C   0  0  0  0  0  3  0  0  0  0  0  0
  188.6800  175.6480  145.4490 C   0  0  0  0  0  3  0  0  0  0  0  0
  187.1430  178.0200  147.3860 C   0  0  0  0  0  0  0  0  0  0  0  0
  186.0530  178.9400  147.7670 C   0  0  0  0  0  3  0  0  0  0  0  0
  188.4240  178.3830  147.6500 F   0  0  0  0  0  0  0  0  0  0  0  0
  184.8000  178.7140  147.3710 C   0  0  0  0  0  3  0  0  0  0  0  0
  186.8700  176.8400  146.8020 C   0  0  0  0  0  0  0  0  0  0  0  0
  184.4860  177.5660  146.4540 C   0  0  0  0  0  2  0  0  0  0  0  0
  185.4360  176.3910  146.7010 C   0  0  0  0  0  2  0  0  0  0  0  0
  190.0640  175.8570  142.0490 O   0  0  0  0  0  1  0  0  0  0  0  0
  189.2400  175.2460  142.9970 C   0  0  1  0  0  3  0  0  0  0  0  0
  191.3380  173.7290  143.0380 C   0  0  0  0  0  2  0  0  0  0  0  0
  189.2020  172.6650  143.0940 C   0  0  0  0  0  2  0  0  0  0  0  0
  189.9080  173.9380  143.4540 C   0  0  2  0  0  3  0  0  0  0  0  0
  191.5950  172.2950  143.1070 N   0  0  0  0  0  2  0  0  0  0  0  0
  190.2970  171.6250  143.2080 C   0  0  0  0  0  2  0  0  0  0  0  0
  187.2810  176.7920  143.6330 C   0  0  2  0  0  3  0  0  0  0  0  0
  186.9630  176.6820  141.2320 O   0  0  0  0  0  1  0  0  0  0  0  0
  186.6830  176.0330  142.4380 C   0  0  0  0  0  2  0  0  0  0  0  0
  187.2940  178.3050  143.3560 C   0  0  0  0  0  2  0  0  0  0  0  0
  185.8980  178.8600  143.1210 C   0  0  0  0  0  2  0  0  0  0  0  0
  185.5640  179.9210  144.1510 C   0  0  0  0  0  1  0  0  0  0  0  0
  189.5250  177.4390  144.0170 O   0  0  0  0  0  0  0  0  0  0  0  0
  190.4650  177.4710  145.0670 C   0  0  0  0  0  2  0  0  0  0  0  0
  191.8440  177.1240  144.5370 C   0  0  0  0  0  2  0  0  0  0  0  0
  192.5650  176.2120  145.5120 C   0  0  0  0  0  2  0  0  0  0  0  0
  194.0700  177.1510  147.2620 O   0  0  0  0  0  1  0  0  0  0  0  0
  193.8510  176.8340  145.9280 C   0  0  0  0  0  0  0  0  0  0  0  0
  194.7520  177.0460  145.0760 O   0  0  0  0  0  0  0  0  0  0  0  0
  1  3  1  1  0  0  0
  2  8  1  0  0  0  0
  3  2  2  0  0  0  0
  4  6  1  0  0  0  0
  4  5  1  0  0  0  0
  7  5  2  0  0  0  0
  8  4  2  0  0  0  0
  9 10  1  0  0  0  0
  9  7  1  0  0  0  0
 10  8  1  0  0  0  0
 12 11  1  1  0  0  0
 12  1  1  0  0  0  0
 13 16  1  0  0  0  0
 13 15  1  0  0  0  0
 14 17  1  0  0  0  0
 14 15  1  0  0  0  0
 15 12  1  6  0  0  0
 16 17  1  0  0  0  0
 18 20  1  6  0  0  0
 18  1  1  0  0  0  0
 19 20  1  0  0  0  0
 21 18  1  0  0  0  0
 22 21  1  0  0  0  0
 22 23  1  0  0  0  0
 24  1  1  0  0  0  0
 24 25  1  0  0  0  0
 26 25  1  0  0  0  0
 26 27  1  0  0  0  0
 27 29  1  0  0  0  0
 29 28  1  0  0  0  0
 30 29  2  0  0  0  0
M  END
>  <MODEL>
6

>  <REMARK>
 VINA RESULT:      -5.5      2.918      5.634
  Name = 
  13 active torsions:
  status: ('A' for Active; 'I' for Inactive)
    1  A    between atoms: C_1  and  C_22
    2  A    between atoms: C_3  and  C_19
    3  A    between atoms: C_4  and  C_13
    4  A    between atoms: C_7  and  C_15
    5  A    between atoms: C_7  and  C_16
    6  A    between atoms: C_8  and  C_12
    7  A    between atoms: C_8  and  C_13
    8  A    between atoms: C_13  and  C_23
    9  A    between atoms: C_13  and  O_27
   10  A    between atoms: C_16  and  C_30
   11  A    between atoms: C_19  and  C_23
   12  A    between atoms: C_23  and  C_25
   13  A    between atoms: O_27  and  C_30
                            x       y       z     vdW  Elec       q    Type
                         _______ _______ _______ _____ _____    ______ ____

>  <TORSDO>
F 13

$$$$
=
 OpenBabel11052417153D

 30 31  0  0  1  0  0  0  0  0999 V2000
  189.1670  175.7780  144.4400 C   0  0  1  0  0  0  0  0  0  0  0  0
  188.1490  175.7130  146.8830 C   0  0  0  0  0  3  0  0  0  0  0  0
  188.9460  175.3000  145.8840 C   0  0  0  0  0  3  0  0  0  0  0  0
  187.4600  177.9960  147.3420 C   0  0  0  0  0  0  0  0  0  0  0  0
  186.4330  179.0440  147.5080 C   0  0  0  0  0  3  0  0  0  0  0  0
  188.7460  178.2890  147.6600 F   0  0  0  0  0  0  0  0  0  0  0  0
  185.1950  178.8650  147.0440 C   0  0  0  0  0  3  0  0  0  0  0  0
  187.1230  176.7720  146.9000 C   0  0  0  0  0  0  0  0  0  0  0  0
  184.8440  177.6300  146.2650 C   0  0  0  0  0  2  0  0  0  0  0  0
  185.6650  176.4280  146.7430 C   0  0  0  0  0  2  0  0  0  0  0  0
  190.2480  177.9760  144.6670 O   0  0  0  0  0  1  0  0  0  0  0  0
  190.4800  176.6350  144.3510 C   0  0  1  0  0  3  0  0  0  0  0  0
  191.8450  176.4330  146.5420 C   0  0  0  0  0  2  0  0  0  0  0  0
  193.0570  176.7020  144.5050 C   0  0  0  0  0  2  0  0  0  0  0  0
  191.7670  176.1820  145.0610 C   0  0  2  0  0  3  0  0  0  0  0  0
  193.2580  176.4210  146.9010 N   0  0  0  0  0  2  0  0  0  0  0  0
  194.0240  176.5210  145.6560 C   0  0  0  0  0  2  0  0  0  0  0  0
  189.2120  174.5890  143.4370 C   0  0  2  0  0  3  0  0  0  0  0  0
  189.1500  172.1660  143.4510 O   0  0  0  0  0  1  0  0  0  0  0  0
  189.7220  173.2830  144.0650 C   0  0  0  0  0  2  0  0  0  0  0  0
  190.0350  174.9400  142.1860 C   0  0  0  0  0  2  0  0  0  0  0  0
  189.3620  174.4750  140.9040 C   0  0  0  0  0  2  0  0  0  0  0  0
  190.2380  173.4770  140.1720 C   0  0  0  0  0  1  0  0  0  0  0  0
  188.0710  176.5850  143.9990 O   0  0  0  0  0  0  0  0  0  0  0  0
  187.0650  175.8430  143.3460 C   0  0  0  0  0  2  0  0  0  0  0  0
  186.1760  176.7740  142.5430 C   0  0  0  0  0  2  0  0  0  0  0  0
  186.5840  178.2170  142.7790 C   0  0  0  0  0  2  0  0  0  0  0  0
  185.5650  180.2060  143.8800 O   0  0  0  0  0  1  0  0  0  0  0  0
  185.3960  179.0170  143.1810 C   0  0  0  0  0  0  0  0  0  0  0  0
  184.2410  178.6340  142.8640 O   0  0  0  0  0  0  0  0  0  0  0  0
  1  3  1  1  0  0  0
  2  8  1  0  0  0  0
  3  2  2  0  0  0  0
  4  5  1  0  0  0  0
  4  6  1  0  0  0  0
  7  5  2  0  0  0  0
  8  4  2  0  0  0  0
  9 10  1  0  0  0  0
  9  7  1  0  0  0  0
 10  8  1  0  0  0  0
 12  1  1  0  0  0  0
 12 11  1  1  0  0  0
 13 16  1  0  0  0  0
 14 15  1  0  0  0  0
 14 17  1  0  0  0  0
 15 12  1  6  0  0  0
 15 13  1  0  0  0  0
 17 16  1  0  0  0  0
 18 21  1  6  0  0  0
 18 20  1  0  0  0  0
 18  1  1  0  0  0  0
 19 20  1  0  0  0  0
 22 21  1  0  0  0  0
 23 22  1  0  0  0  0
 24  1  1  0  0  0  0
 25 24  1  0  0  0  0
 26 27  1  0  0  0  0
 26 25  1  0  0  0  0
 27 29  1  0  0  0  0
 29 28  1  0  0  0  0
 30 29  2  0  0  0  0
M  END
>  <MODEL>
7

>  <REMARK>
 VINA RESULT:      -5.4      2.779      5.176
  Name = 
  13 active torsions:
  status: ('A' for Active; 'I' for Inactive)
    1  A    between atoms: C_1  and  C_22
    2  A    between atoms: C_3  and  C_19
    3  A    between atoms: C_4  and  C_13
    4  A    between atoms: C_7  and  C_15
    5  A    between atoms: C_7  and  C_16
    6  A    between atoms: C_8  and  C_12
    7  A    between atoms: C_8  and  C_13
    8  A    between atoms: C_13  and  C_23
    9  A    between atoms: C_13  and  O_27
   10  A    between atoms: C_16  and  C_30
   11  A    between atoms: C_19  and  C_23
   12  A    between atoms: C_23  and  C_25
   13  A    between atoms: O_27  and  C_30
                            x       y       z     vdW  Elec       q    Type
                         _______ _______ _______ _____ _____    ______ ____

>  <TORSDO>
F 13

$$$$
=
 OpenBabel11052417153D

 30 31  0  0  1  0  0  0  0  0999 V2000
  189.3390  176.3000  145.1630 C   0  0  1  0  0  0  0  0  0  0  0  0
  189.7570  173.6880  145.2750 C   0  0  0  0  0  3  0  0  0  0  0  0
  189.3660  174.8810  145.7540 C   0  0  0  0  0  3  0  0  0  0  0  0
  189.7860  172.4310  143.1980 C   0  0  0  0  0  0  0  0  0  0  0  0
  190.4470  171.9540  141.9670 C   0  0  0  0  0  3  0  0  0  0  0  0
  188.5720  171.9210  143.5240 F   0  0  0  0  0  0  0  0  0  0  0  0
  191.5500  172.5500  141.5100 C   0  0  0  0  0  3  0  0  0  0  0  0
  190.3830  173.3420  143.9860 C   0  0  0  0  0  0  0  0  0  0  0  0
  192.0910  173.7750  142.1900 C   0  0  0  0  0  2  0  0  0  0  0  0
  191.8060  173.7390  143.6940 C   0  0  0  0  0  2  0  0  0  0  0  0
  190.4440  177.6920  146.8640 O   0  0  0  0  0  1  0  0  0  0  0  0
  190.6160  177.0960  145.6120 C   0  0  1  0  0  3  0  0  0  0  0  0
  192.7180  176.2810  146.8870 C   0  0  0  0  0  2  0  0  0  0  0  0
  193.0130  177.0650  144.6520 C   0  0  0  0  0  2  0  0  0  0  0  0
  192.0080  176.4400  145.5710 C   0  0  2  0  0  3  0  0  0  0  0  0
  194.1390  176.1430  146.5880 N   0  0  0  0  0  2  0  0  0  0  0  0
  194.3330  176.5590  145.1970 C   0  0  0  0  0  2  0  0  0  0  0  0
  189.2150  176.2780  143.6130 C   0  0  2  0  0  3  0  0  0  0  0  0
  189.0000  178.2350  142.1970 O   0  0  0  0  0  1  0  0  0  0  0  0
  189.9090  177.4680  142.9300 C   0  0  0  0  0  2  0  0  0  0  0  0
  187.7460  176.1860  143.1670 C   0  0  0  0  0  2  0  0  0  0  0  0
  187.4590  174.9140  142.3830 C   0  0  0  0  0  2  0  0  0  0  0  0
  188.2210  174.9110  141.0730 C   0  0  0  0  0  1  0  0  0  0  0  0
  188.1820  177.0130  145.6110 O   0  0  0  0  0  0  0  0  0  0  0  0
  187.4830  176.3460  146.6380 C   0  0  0  0  0  2  0  0  0  0  0  0
  186.3630  177.2280  147.1560 C   0  0  0  0  0  2  0  0  0  0  0  0
  185.1750  177.1710  146.2130 C   0  0  0  0  0  2  0  0  0  0  0  0
  185.8870  179.2930  145.1180 O   0  0  0  0  0  0  0  0  0  0  0  0
  184.8780  178.5330  145.6950 C   0  0  0  0  0  0  0  0  0  0  0  0
  183.7060  178.9870  145.7520 O   0  0  0  0  0  1  0  0  0  0  0  0
  1 24  1  0  0  0  0
  1 12  1  0  0  0  0
  1  3  1  1  0  0  0
  2  3  2  0  0  0  0
  4  6  1  0  0  0  0
  4  8  2  0  0  0  0
  5  4  1  0  0  0  0
  7  5  2  0  0  0  0
  7  9  1  0  0  0  0
  8  2  1  0  0  0  0
  9 10  1  0  0  0  0
 10  8  1  0  0  0  0
 12 11  1  1  0  0  0
 14 17  1  0  0  0  0
 14 15  1  0  0  0  0
 15 12  1  1  0  0  0
 15 13  1  0  0  0  0
 16 13  1  0  0  0  0
 17 16  1  0  0  0  0
 18 20  1  6  0  0  0
 18  1  1  0  0  0  0
 19 20  1  0  0  0  0
 21 18  1  0  0  0  0
 22 21  1  0  0  0  0
 23 22  1  0  0  0  0
 24 25  1  0  0  0  0
 25 26  1  0  0  0  0
 27 26  1  0  0  0  0
 28 29  2  0  0  0  0
 29 30  1  0  0  0  0
 29 27  1  0  0  0  0
M  END
>  <MODEL>
8

>  <REMARK>
 VINA RESULT:      -5.4      2.969      5.549
  Name = 
  13 active torsions:
  status: ('A' for Active; 'I' for Inactive)
    1  A    between atoms: C_1  and  C_22
    2  A    between atoms: C_3  and  C_19
    3  A    between atoms: C_4  and  C_13
    4  A    between atoms: C_7  and  C_15
    5  A    between atoms: C_7  and  C_16
    6  A    between atoms: C_8  and  C_12
    7  A    between atoms: C_8  and  C_13
    8  A    between atoms: C_13  and  C_23
    9  A    between atoms: C_13  and  O_27
   10  A    between atoms: C_16  and  C_30
   11  A    between atoms: C_19  and  C_23
   12  A    between atoms: C_23  and  C_25
   13  A    between atoms: O_27  and  C_30
                            x       y       z     vdW  Elec       q    Type
                         _______ _______ _______ _____ _____    ______ ____

>  <TORSDO>
F 13

$$$$
=
 OpenBabel11052417153D

 30 31  0  0  1  0  0  0  0  0999 V2000
  189.6190  175.9390  144.8190 C   0  0  1  0  0  0  0  0  0  0  0  0
  188.1780  175.7150  147.0290 C   0  0  0  0  0  3  0  0  0  0  0  0
  189.1480  175.3690  146.1670 C   0  0  0  0  0  3  0  0  0  0  0  0
  187.4140  177.9840  147.4370 C   0  0  0  0  0  0  0  0  0  0  0  0
  186.3660  179.0230  147.4820 C   0  0  0  0  0  3  0  0  0  0  0  0
  188.6420  178.2760  147.9340 F   0  0  0  0  0  0  0  0  0  0  0  0
  185.2040  178.8480  146.8480 C   0  0  0  0  0  3  0  0  0  0  0  0
  187.1500  176.7680  146.9270 C   0  0  0  0  0  0  0  0  0  0  0  0
  184.9740  177.6280  146.0040 C   0  0  0  0  0  2  0  0  0  0  0  0
  185.7300  176.4210  146.5640 C   0  0  0  0  0  2  0  0  0  0  0  0
  188.9960  178.2900  144.4450 O   0  0  0  0  0  1  0  0  0  0  0  0
  188.5670  176.9710  144.2740 C   0  0  1  0  0  3  0  0  0  0  0  0
  188.4180  177.8470  141.8420 C   0  0  0  0  0  2  0  0  0  0  0  0
  186.4890  176.7790  142.7540 C   0  0  0  0  0  2  0  0  0  0  0  0
  187.9830  176.8280  142.8590 C   0  0  2  0  0  3  0  0  0  0  0  0
  187.4090  177.8540  140.7890 N   0  0  0  0  0  2  0  0  0  0  0  0
  186.2370  177.1450  141.3060 C   0  0  0  0  0  2  0  0  0  0  0  0
  191.0280  176.5880  144.9270 C   0  0  2  0  0  3  0  0  0  0  0  0
  191.8740  177.5540  142.8710 O   0  0  0  0  0  1  0  0  0  0  0  0
  191.8810  176.4030  143.6630 C   0  0  0  0  0  2  0  0  0  0  0  0
  191.7870  176.0800  146.1650 C   0  0  0  0  0  2  0  0  0  0  0  0
  193.2210  175.6860  145.8420 C   0  0  0  0  0  2  0  0  0  0  0  0
  194.1980  176.6320  146.5120 C   0  0  0  0  0  1  0  0  0  0  0  0
  189.7700  174.8960  143.8520 O   0  0  0  0  0  0  0  0  0  0  0  0
  189.8260  173.6110  144.4280 C   0  0  0  0  0  2  0  0  0  0  0  0
  189.3260  172.5780  143.4350 C   0  0  0  0  0  2  0  0  0  0  0  0
  189.7280  172.9720  142.0260 C   0  0  0  0  0  2  0  0  0  0  0  0
  188.5550  172.5710  139.8640 O   0  0  0  0  0  0  0  0  0  0  0  0
  188.5190  173.0610  141.1640 C   0  0  0  0  0  0  0  0  0  0  0  0
  187.4550  173.5540  141.6190 O   0  0  0  0  0  1  0  0  0  0  0  0
  1 18  1  0  0  0  0
  1  3  1  1  0  0  0
  3  2  2  0  0  0  0
  4  5  1  0  0  0  0
  4  6  1  0  0  0  0
  7  5  2  0  0  0  0
  8  2  1  0  0  0  0
  8  4  2  0  0  0  0
  9 10  1  0  0  0  0
  9  7  1  0  0  0  0
 10  8  1  0  0  0  0
 12 11  1  6  0  0  0
 12  1  1  0  0  0  0
 13 15  1  0  0  0  0
 14 15  1  0  0  0  0
 15 12  1  1  0  0  0
 16 17  1  0  0  0  0
 16 13  1  0  0  0  0
 17 14  1  0  0  0  0
 18 20  1  6  0  0  0
 18 21  1  0  0  0  0
 19 20  1  0  0  0  0
 22 21  1  0  0  0  0
 22 23  1  0  0  0  0
 24 25  1  0  0  0  0
 24  1  1  0  0  0  0
 26 25  1  0  0  0  0
 27 26  1  0  0  0  0
 28 29  2  0  0  0  0
 29 30  1  0  0  0  0
 29 27  1  0  0  0  0
M  END
>  <MODEL>
9

>  <REMARK>
 VINA RESULT:      -5.4      2.652      5.339
  Name = 
  13 active torsions:
  status: ('A' for Active; 'I' for Inactive)
    1  A    between atoms: C_1  and  C_22
    2  A    between atoms: C_3  and  C_19
    3  A    between atoms: C_4  and  C_13
    4  A    between atoms: C_7  and  C_15
    5  A    between atoms: C_7  and  C_16
    6  A    between atoms: C_8  and  C_12
    7  A    between atoms: C_8  and  C_13
    8  A    between atoms: C_13  and  C_23
    9  A    between atoms: C_13  and  O_27
   10  A    between atoms: C_16  and  C_30
   11  A    between atoms: C_19  and  C_23
   12  A    between atoms: C_23  and  C_25
   13  A    between atoms: O_27  and  C_30
                            x       y       z     vdW  Elec       q    Type
                         _______ _______ _______ _____ _____    ______ ____

>  <TORSDO>
F 13

$$$$
