=
 OpenBabel11052420133D

 37 38  0  0  1  0  0  0  0  0999 V2000
  189.1710  173.7700  142.0290 C   0  0  0  0  0  2  0  0  0  0  0  0
  196.4550  171.5180  145.0570 O   0  0  0  0  0  0  0  0  0  0  0  0
  189.2900  172.3400  141.5150 C   0  0  2  0  0  3  0  0  0  0  0  0
  194.3970  174.5450  144.8670 C   0  0  0  0  0  2  0  0  0  0  0  0
  193.9690  171.1490  142.9970 C   0  0  0  0  0  2  0  0  0  0  0  0
  196.0140  174.4410  145.6820 S   0  0  0  0  0  0  0  0  0  0  0  0
  190.9060  175.5460  145.8590 C   0  0  2  0  0  3  0  0  0  0  0  0
  193.0910  172.1980  140.9120 C   0  0  0  0  0  0  0  0  0  0  0  0
  190.7320  170.4440  141.2770 O   0  0  0  0  0  1  0  0  0  0  0  0
  189.2930  173.7240  146.4110 C   0  0  0  0  0  1  0  0  0  0  0  0
  191.9710  174.6290  145.2560 C   0  0  0  0  0  2  0  0  0  0  0  0
  197.3810  175.3320  143.5720 N   0  0  0  0  0  2  0  0  0  0  0  0
  190.7220  171.8060  141.5840 C   0  0  1  0  0  3  0  0  0  0  0  0
  196.7840  173.0740  143.3370 N   0  0  0  0  0  2  0  0  0  0  0  0
  196.8610  174.2800  144.1070 C   0  0  0  0  0  0  0  0  0  0  0  0
  189.4420  175.0570  145.6750 C   0  0  2  0  0  0  0  0  0  0  0  0
  188.7980  172.2660  140.2110 O   0  0  0  0  0  1  0  0  0  0  0  0
  191.6630  172.5610  140.6470 C   0  0  0  0  0  2  0  0  0  0  0  0
  195.6800  170.6010  142.6960 S   0  0  0  0  0  0  0  0  0  0  0  0
  189.1220  174.8970  144.2060 C   0  0  0  0  0  3  0  0  0  0  0  0
  193.3270  174.9120  145.8700 C   0  0  0  0  0  2  0  0  0  0  0  0
  193.6740  172.4520  142.2680 C   0  0  0  0  0  2  0  0  0  0  0  0
  193.9610  171.9510  139.7960 S   0  0  0  0  0  0  0  0  0  0  0  0
  196.3560  171.8040  143.8340 C   0  0  0  0  0  0  0  0  0  0  0  0
  189.5020  173.8410  143.4820 C   0  0  0  0  0  3  0  0  0  0  0  0
  191.4160  177.3950  144.1330 C   0  0  0  0  0  0  0  0  0  0  0  0
  191.1000  176.9430  145.4540 N   0  0  0  0  0  2  0  0  0  0  0  0
  191.6490  176.5780  143.2030 O   0  0  0  0  0  0  0  0  0  0  0  0
  191.5030  179.1470  143.8040 S   0  0  0  0  0  1  0  0  0  0  0  0
  187.9100  175.6040  147.4850 O   0  0  0  0  0  1  0  0  0  0  0  0
  188.4820  176.1040  146.3110 C   0  0  2  0  0  3  0  0  0  0  0  0
  185.2190  178.6970  144.9200 O   0  0  0  0  0  1  0  0  0  0  0  0
  187.4040  178.1600  145.4500 O   0  0  0  0  0  0  0  0  0  0  0  0
  186.0750  178.2010  145.9050 C   0  0  1  0  0  0  0  0  0  0  0  0
  185.9280  178.9470  147.2180 C   0  0  0  0  0  1  0  0  0  0  0  0
  187.3700  176.7530  145.4550 C   0  0  2  0  0  3  0  0  0  0  0  0
  185.9760  176.7030  146.0330 C   0  0  0  0  0  2  0  0  0  0  0  0
  1 25  1  0  0  0  0
  3 17  1  6  0  0  0
  3 13  1  0  0  0  0
  3  1  1  0  0  0  0
  4  6  1  0  0  0  0
  4 21  1  0  0  0  0
  7 27  1  6  0  0  0
  8 22  1  0  0  0  0
 11  7  1  0  0  0  0
 11 21  1  0  0  0  0
 12 15  2  0  0  0  0
 13  9  1  6  0  0  0
 14 24  1  0  0  0  0
 14 15  1  0  0  0  0
 15  6  1  0  0  0  0
 16  7  1  0  0  0  0
 16 31  1  0  0  0  0
 16 10  1  1  0  0  0
 18  8  1  0  0  0  0
 18 13  1  0  0  0  0
 19  5  1  0  0  0  0
 19 24  1  0  0  0  0
 20 16  1  0  0  0  0
 22  5  1  0  0  0  0
 23  8  2  0  0  0  0
 24  2  2  0  0  0  0
 25 20  2  0  0  0  0
 26 27  1  0  0  0  0
 28 26  2  0  0  0  0
 29 26  1  0  0  0  0
 31 30  1  1  0  0  0
 32 34  1  0  0  0  0
 33 36  1  0  0  0  0
 33 34  1  0  0  0  0
 34 37  1  0  0  0  0
 34 35  1  1  0  0  0
 36 37  1  0  0  0  0
 36 31  1  1  0  0  0
M  END
>  <MODEL>
1

>  <REMARK>
 VINA RESULT:      -6.9      0.000      0.000
  Name = 
  3 active torsions:
  status: ('A' for Active; 'I' for Inactive)
    1  A    between atoms: C_10  and  N_22
    2  A    between atoms: C_20  and  C_24
    3  A    between atoms: C_24  and  C_30
                            x       y       z     vdW  Elec       q    Type
                         _______ _______ _______ _____ _____    ______ ____

>  <TORSDO>
F 3

$$$$
=
 OpenBabel11052420133D

 37 38  0  0  1  0  0  0  0  0999 V2000
  194.4980  171.3480  145.5170 C   0  0  0  0  0  2  0  0  0  0  0  0
  197.3840  173.9630  138.2970 O   0  0  0  0  0  0  0  0  0  0  0  0
  195.8460  170.6410  145.4500 C   0  0  2  0  0  3  0  0  0  0  0  0
  194.2930  174.2110  140.2520 C   0  0  0  0  0  2  0  0  0  0  0  0
  197.3840  171.8980  140.8060 C   0  0  0  0  0  2  0  0  0  0  0  0
  194.5610  174.9870  138.6350 S   0  0  0  0  0  0  0  0  0  0  0  0
  193.3240  175.3670  143.7010 C   0  0  2  0  0  3  0  0  0  0  0  0
  196.0290  169.9850  141.6590 C   0  0  0  0  0  0  0  0  0  0  0  0
  197.7370  170.1300  144.0750 O   0  0  0  0  0  1  0  0  0  0  0  0
  195.1500  175.6800  145.3720 C   0  0  0  0  0  1  0  0  0  0  0  0
  194.1840  174.6330  142.6720 C   0  0  0  0  0  2  0  0  0  0  0  0
  193.4340  173.0060  137.2510 N   0  0  0  0  0  2  0  0  0  0  0  0
  196.4310  170.6220  144.0360 C   0  0  1  0  0  3  0  0  0  0  0  0
  195.6170  172.4700  137.9250 N   0  0  0  0  0  2  0  0  0  0  0  0
  194.5320  173.3970  137.8030 C   0  0  0  0  0  0  0  0  0  0  0  0
  193.7340  175.1330  145.1810 C   0  0  2  0  0  0  0  0  0  0  0  0
  195.7230  169.3450  145.9520 O   0  0  0  0  0  1  0  0  0  0  0  0
  195.5870  169.7880  143.0760 C   0  0  0  0  0  2  0  0  0  0  0  0
  197.9410  171.5070  139.1160 S   0  0  0  0  0  0  0  0  0  0  0  0
  193.6790  173.6590  145.5150 C   0  0  0  0  0  3  0  0  0  0  0  0
  194.0320  175.2660  141.3030 C   0  0  0  0  0  2  0  0  0  0  0  0
  195.9830  171.3570  141.0610 C   0  0  0  0  0  2  0  0  0  0  0  0
  196.1480  168.8370  140.8050 S   0  0  0  0  0  0  0  0  0  0  0  0
  196.9290  172.7920  138.3930 C   0  0  0  0  0  0  0  0  0  0  0  0
  194.6380  172.7940  145.1760 C   0  0  0  0  0  3  0  0  0  0  0  0
  190.9640  176.1460  143.0030 C   0  0  0  0  0  0  0  0  0  0  0  0
  191.8910  175.1560  143.4620 N   0  0  0  0  0  2  0  0  0  0  0  0
  191.3150  177.3460  142.8520 O   0  0  0  0  0  0  0  0  0  0  0  0
  189.2770  175.6740  142.6610 S   0  0  0  0  0  1  0  0  0  0  0  0
  193.4530  176.7830  146.9480 O   0  0  0  0  0  1  0  0  0  0  0  0
  192.7530  175.9170  146.1020 C   0  0  2  0  0  3  0  0  0  0  0  0
  188.9570  174.5050  147.8060 O   0  0  0  0  0  1  0  0  0  0  0  0
  190.5940  174.7090  146.1860 O   0  0  0  0  0  0  0  0  0  0  0  0
  189.7230  175.3940  147.0500 C   0  0  1  0  0  0  0  0  0  0  0  0
  188.8630  176.4140  146.3270 C   0  0  0  0  0  1  0  0  0  0  0  0
  191.6980  175.1530  146.9360 C   0  0  2  0  0  3  0  0  0  0  0  0
  190.8460  175.9950  147.8550 C   0  0  0  0  0  2  0  0  0  0  0  0
  2 24  2  0  0  0  0
  3  1  1  0  0  0  0
  3 17  1  6  0  0  0
  4 21  1  0  0  0  0
  5 22  1  0  0  0  0
  6  4  1  0  0  0  0
  7 27  1  1  0  0  0
  7 16  1  0  0  0  0
  8 18  1  0  0  0  0
 11  7  1  0  0  0  0
 12 15  2  0  0  0  0
 13  9  1  1  0  0  0
 13  3  1  0  0  0  0
 14 24  1  0  0  0  0
 15 14  1  0  0  0  0
 15  6  1  0  0  0  0
 16 10  1  1  0  0  0
 16 20  1  0  0  0  0
 16 31  1  0  0  0  0
 18 13  1  0  0  0  0
 19  5  1  0  0  0  0
 21 11  1  0  0  0  0
 22  8  1  0  0  0  0
 23  8  2  0  0  0  0
 24 19  1  0  0  0  0
 25 20  2  0  0  0  0
 25  1  1  0  0  0  0
 26 27  1  0  0  0  0
 28 26  2  0  0  0  0
 29 26  1  0  0  0  0
 31 30  1  1  0  0  0
 33 36  1  0  0  0  0
 33 34  1  0  0  0  0
 34 35  1  6  0  0  0
 34 32  1  0  0  0  0
 34 37  1  0  0  0  0
 36 31  1  6  0  0  0
 36 37  1  0  0  0  0
M  END
>  <MODEL>
2

>  <REMARK>
 VINA RESULT:      -6.7      3.509      5.402
  Name = 
  3 active torsions:
  status: ('A' for Active; 'I' for Inactive)
    1  A    between atoms: C_10  and  N_22
    2  A    between atoms: C_20  and  C_24
    3  A    between atoms: C_24  and  C_30
                            x       y       z     vdW  Elec       q    Type
                         _______ _______ _______ _____ _____    ______ ____

>  <TORSDO>
F 3

$$$$
=
 OpenBabel11052420133D

 37 38  0  0  1  0  0  0  0  0999 V2000
  194.5720  172.3600  141.8870 C   0  0  0  0  0  2  0  0  0  0  0  0
  188.7100  175.7320  146.5310 O   0  0  0  0  0  0  0  0  0  0  0  0
  195.2160  172.3290  143.2670 C   0  0  2  0  0  3  0  0  0  0  0  0
  189.3470  175.0940  142.9780 C   0  0  0  0  0  2  0  0  0  0  0  0
  191.7870  174.8250  146.0100 C   0  0  0  0  0  2  0  0  0  0  0  0
  187.8500  175.8760  143.6390 S   0  0  0  0  0  0  0  0  0  0  0  0
  190.1380  172.1010  140.8360 C   0  0  2  0  0  3  0  0  0  0  0  0
  193.7740  175.5940  144.7130 C   0  0  0  0  0  0  0  0  0  0  0  0
  195.0360  173.0460  145.5440 O   0  0  0  0  0  1  0  0  0  0  0  0
  190.8700  170.0130  141.9890 C   0  0  0  0  0  1  0  0  0  0  0  0
  190.2660  173.0050  142.0620 C   0  0  0  0  0  2  0  0  0  0  0  0
  188.7230  178.3690  143.2660 N   0  0  0  0  0  2  0  0  0  0  0  0
  194.5200  173.2580  144.2640 C   0  0  1  0  0  3  0  0  0  0  0  0
  189.6680  177.3870  145.1780 N   0  0  0  0  0  2  0  0  0  0  0  0
  188.7520  177.3650  144.0770 C   0  0  0  0  0  0  0  0  0  0  0  0
  191.1450  170.9190  140.7870 C   0  0  2  0  0  0  0  0  0  0  0  0
  196.5720  172.6460  143.1610 O   0  0  0  0  0  1  0  0  0  0  0  0
  194.6640  174.7280  143.8780 C   0  0  0  0  0  2  0  0  0  0  0  0
  191.2560  176.1720  147.1140 S   0  0  0  0  0  0  0  0  0  0  0  0
  192.5650  171.4370  140.8200 C   0  0  0  0  0  3  0  0  0  0  0  0
  188.9960  173.8060  142.2680 C   0  0  0  0  0  2  0  0  0  0  0  0
  192.2930  175.3710  144.6810 C   0  0  0  0  0  2  0  0  0  0  0  0
  194.2990  176.8220  145.2410 S   0  0  0  0  0  0  0  0  0  0  0  0
  189.7240  176.4140  146.2240 C   0  0  0  0  0  0  0  0  0  0  0  0
  193.1770  171.8330  141.9400 C   0  0  0  0  0  3  0  0  0  0  0  0
  188.9650  173.0350  138.7360 C   0  0  0  0  0  0  0  0  0  0  0  0
  190.1020  172.8760  139.5910 N   0  0  0  0  0  2  0  0  0  0  0  0
  187.8910  172.4170  138.9590 O   0  0  0  0  0  0  0  0  0  0  0  0
  189.0790  174.1120  137.3160 S   0  0  0  0  0  1  0  0  0  0  0  0
  190.5580  168.7920  139.7610 O   0  0  0  0  0  1  0  0  0  0  0  0
  190.9100  170.1150  139.4750 C   0  0  2  0  0  3  0  0  0  0  0  0
  192.9560  170.4200  135.5990 O   0  0  0  0  0  1  0  0  0  0  0  0
  191.9150  171.2200  137.5020 O   0  0  0  0  0  0  0  0  0  0  0  0
  191.8110  170.3590  136.3960 C   0  0  1  0  0  0  0  0  0  0  0  0
  190.5450  170.5870  135.5930 C   0  0  0  0  0  1  0  0  0  0  0  0
  191.9880  170.1130  138.3660 C   0  0  2  0  0  3  0  0  0  0  0  0
  191.7850  169.1170  137.2490 C   0  0  0  0  0  2  0  0  0  0  0  0
  1 25  1  0  0  0  0
  1  3  1  0  0  0  0
  3 17  1  6  0  0  0
  3 13  1  0  0  0  0
  4  6  1  0  0  0  0
  5 19  1  0  0  0  0
  6 15  1  0  0  0  0
  7 27  1  6  0  0  0
  7 11  1  0  0  0  0
  8 23  2  0  0  0  0
 11 21  1  0  0  0  0
 12 15  2  0  0  0  0
 13  9  1  1  0  0  0
 14 24  1  0  0  0  0
 15 14  1  0  0  0  0
 16 20  1  0  0  0  0
 16  7  1  0  0  0  0
 16 10  1  1  0  0  0
 18 13  1  0  0  0  0
 18  8  1  0  0  0  0
 20 25  2  0  0  0  0
 21  4  1  0  0  0  0
 22  8  1  0  0  0  0
 22  5  1  0  0  0  0
 24  2  2  0  0  0  0
 24 19  1  0  0  0  0
 26 28  2  0  0  0  0
 26 27  1  0  0  0  0
 29 26  1  0  0  0  0
 31 30  1  1  0  0  0
 31 16  1  0  0  0  0
 32 34  1  0  0  0  0
 33 36  1  0  0  0  0
 34 35  1  6  0  0  0
 34 37  1  0  0  0  0
 34 33  1  0  0  0  0
 36 31  1  1  0  0  0
 37 36  1  0  0  0  0
M  END
>  <MODEL>
3

>  <REMARK>
 VINA RESULT:      -6.5      3.236      8.387
  Name = 
  3 active torsions:
  status: ('A' for Active; 'I' for Inactive)
    1  A    between atoms: C_10  and  N_22
    2  A    between atoms: C_20  and  C_24
    3  A    between atoms: C_24  and  C_30
                            x       y       z     vdW  Elec       q    Type
                         _______ _______ _______ _____ _____    ______ ____

>  <TORSDO>
F 3

$$$$
=
 OpenBabel11052420133D

 37 38  0  0  1  0  0  0  0  0999 V2000
  191.0760  176.4320  146.6270 C   0  0  0  0  0  2  0  0  0  0  0  0
  196.1860  174.8580  140.4060 O   0  0  0  0  0  0  0  0  0  0  0  0
  192.3500  177.1270  147.0920 C   0  0  2  0  0  3  0  0  0  0  0  0
  192.7930  173.9420  141.4490 C   0  0  0  0  0  2  0  0  0  0  0  0
  195.5950  175.7490  143.4750 C   0  0  0  0  0  2  0  0  0  0  0  0
  193.5950  173.3810  139.9220 S   0  0  0  0  0  0  0  0  0  0  0  0
  189.6240  175.7630  142.3520 C   0  0  2  0  0  3  0  0  0  0  0  0
  194.9600  174.6930  145.6440 C   0  0  0  0  0  0  0  0  0  0  0  0
  194.6810  177.4600  146.6640 O   0  0  0  0  0  1  0  0  0  0  0  0
  189.7890  178.2060  142.8300 C   0  0  0  0  0  1  0  0  0  0  0  0
  191.1310  175.5020  142.3710 C   0  0  0  0  0  2  0  0  0  0  0  0
  194.4510  171.0770  140.9570 N   0  0  0  0  0  2  0  0  0  0  0  0
  193.5880  176.6610  146.3230 C   0  0  1  0  0  3  0  0  0  0  0  0
  195.8020  172.8830  141.6060 N   0  0  0  0  0  2  0  0  0  0  0  0
  194.7290  172.3310  140.8350 C   0  0  0  0  0  0  0  0  0  0  0  0
  189.1460  176.8990  143.2980 C   0  0  2  0  0  0  0  0  0  0  0  0
  192.5180  176.9320  148.4640 O   0  0  0  0  0  1  0  0  0  0  0  0
  193.9110  175.1920  146.5870 C   0  0  0  0  0  2  0  0  0  0  0  0
  197.1310  174.9720  142.8780 S   0  0  0  0  0  0  0  0  0  0  0  0
  189.5340  176.5910  144.7270 C   0  0  0  0  0  3  0  0  0  0  0  0
  191.5560  174.7490  141.1260 C   0  0  0  0  0  2  0  0  0  0  0  0
  194.6990  174.7310  144.1700 C   0  0  0  0  0  2  0  0  0  0  0  0
  196.0240  173.8780  146.1590 S   0  0  0  0  0  0  0  0  0  0  0  0
  196.3070  174.2150  141.4830 C   0  0  0  0  0  0  0  0  0  0  0  0
  190.7630  176.7870  145.2120 C   0  0  0  0  0  3  0  0  0  0  0  0
  188.1740  173.8210  141.4660 C   0  0  0  0  0  0  0  0  0  0  0  0
  188.8560  174.5220  142.5110 N   0  0  0  0  0  2  0  0  0  0  0  0
  188.1100  174.2920  140.3000 O   0  0  0  0  0  0  0  0  0  0  0  0
  187.3830  172.2620  141.8280 S   0  0  0  0  0  1  0  0  0  0  0  0
  187.2420  177.9030  142.1630 O   0  0  0  0  0  1  0  0  0  0  0  0
  187.5980  177.0220  143.1880 C   0  0  2  0  0  3  0  0  0  0  0  0
  184.3360  178.2620  145.8590 O   0  0  0  0  0  1  0  0  0  0  0  0
  185.4460  176.8520  144.4010 O   0  0  0  0  0  0  0  0  0  0  0  0
  184.9350  178.1450  144.6030 C   0  0  1  0  0  0  0  0  0  0  0  0
  184.0090  178.5900  143.4860 C   0  0  0  0  0  1  0  0  0  0  0  0
  186.7590  177.3570  144.4440 C   0  0  2  0  0  3  0  0  0  0  0  0
  186.2970  178.7890  144.5670 C   0  0  0  0  0  2  0  0  0  0  0  0
  1  3  1  0  0  0  0
  2 24  2  0  0  0  0
  3 17  1  1  0  0  0
  5 22  1  0  0  0  0
  6 15  1  0  0  0  0
  6  4  1  0  0  0  0
  7 11  1  0  0  0  0
  7 27  1  1  0  0  0
  7 16  1  0  0  0  0
  8 23  2  0  0  0  0
  8 18  1  0  0  0  0
 13 18  1  0  0  0  0
 13  9  1  1  0  0  0
 13  3  1  0  0  0  0
 15 12  2  0  0  0  0
 15 14  1  0  0  0  0
 16 10  1  6  0  0  0
 16 20  1  0  0  0  0
 19  5  1  0  0  0  0
 20 25  2  0  0  0  0
 21  4  1  0  0  0  0
 21 11  1  0  0  0  0
 22  8  1  0  0  0  0
 24 14  1  0  0  0  0
 24 19  1  0  0  0  0
 25  1  1  0  0  0  0
 26 29  1  0  0  0  0
 26 27  1  0  0  0  0
 28 26  2  0  0  0  0
 31 30  1  6  0  0  0
 31 16  1  0  0  0  0
 33 36  1  0  0  0  0
 33 34  1  0  0  0  0
 34 35  1  6  0  0  0
 34 32  1  0  0  0  0
 36 31  1  6  0  0  0
 36 37  1  0  0  0  0
 37 34  1  0  0  0  0
M  END
>  <MODEL>
4

>  <REMARK>
 VINA RESULT:      -6.5      2.908      5.254
  Name = 
  3 active torsions:
  status: ('A' for Active; 'I' for Inactive)
    1  A    between atoms: C_10  and  N_22
    2  A    between atoms: C_20  and  C_24
    3  A    between atoms: C_24  and  C_30
                            x       y       z     vdW  Elec       q    Type
                         _______ _______ _______ _____ _____    ______ ____

>  <TORSDO>
F 3

$$$$
=
 OpenBabel11052420133D

 37 38  0  0  1  0  0  0  0  0999 V2000
  192.9550  176.5130  145.8850 C   0  0  0  0  0  2  0  0  0  0  0  0
  195.2700  174.0480  138.4110 O   0  0  0  0  0  0  0  0  0  0  0  0
  194.2490  177.2930  145.6900 C   0  0  2  0  0  3  0  0  0  0  0  0
  192.6580  173.2560  140.8580 C   0  0  0  0  0  2  0  0  0  0  0  0
  195.8820  175.4080  141.2980 C   0  0  0  0  0  2  0  0  0  0  0  0
  192.8270  172.4710  139.2320 S   0  0  0  0  0  0  0  0  0  0  0  0
  189.9780  175.1460  142.7070 C   0  0  2  0  0  3  0  0  0  0  0  0
  196.2500  174.7020  143.6620 C   0  0  0  0  0  0  0  0  0  0  0  0
  196.1830  177.5910  144.3110 O   0  0  0  0  0  1  0  0  0  0  0  0
  190.1260  177.6370  142.7310 C   0  0  0  0  0  1  0  0  0  0  0  0
  191.3830  174.9160  142.1480 C   0  0  0  0  0  2  0  0  0  0  0  0
  194.2040  170.3760  140.1410 N   0  0  0  0  0  2  0  0  0  0  0  0
  195.1110  176.7310  144.5580 C   0  0  1  0  0  3  0  0  0  0  0  0
  195.5540  172.2840  139.9260 N   0  0  0  0  0  2  0  0  0  0  0  0
  194.3100  171.5990  139.7430 C   0  0  0  0  0  0  0  0  0  0  0  0
  189.8280  176.4110  143.5960 C   0  0  2  0  0  0  0  0  0  0  0  0
  194.9650  177.3220  146.8880 O   0  0  0  0  0  1  0  0  0  0  0  0
  195.6280  175.3280  144.8700 C   0  0  0  0  0  2  0  0  0  0  0  0
  197.1090  174.5710  140.2430 S   0  0  0  0  0  0  0  0  0  0  0  0
  190.7760  176.3420  144.7720 C   0  0  0  0  0  3  0  0  0  0  0  0
  191.3350  173.9810  140.9570 C   0  0  0  0  0  2  0  0  0  0  0  0
  195.4220  174.5000  142.4310 C   0  0  0  0  0  2  0  0  0  0  0  0
  197.4930  173.9970  143.8090 S   0  0  0  0  0  0  0  0  0  0  0  0
  195.8600  173.5870  139.4240 C   0  0  0  0  0  0  0  0  0  0  0  0
  192.0770  176.6320  144.6840 C   0  0  0  0  0  3  0  0  0  0  0  0
  190.1720  173.0190  144.1540 C   0  0  0  0  0  0  0  0  0  0  0  0
  189.4380  173.9350  143.3350 N   0  0  0  0  0  2  0  0  0  0  0  0
  191.4130  173.1490  144.3270 O   0  0  0  0  0  0  0  0  0  0  0  0
  189.3160  171.6560  144.9280 S   0  0  0  0  0  1  0  0  0  0  0  0
  187.4670  176.6050  143.0400 O   0  0  0  0  0  1  0  0  0  0  0  0
  188.3600  176.4900  144.1090 C   0  0  2  0  0  3  0  0  0  0  0  0
  186.2460  178.6530  147.2960 O   0  0  0  0  0  1  0  0  0  0  0  0
  187.5210  176.9500  146.3920 O   0  0  0  0  0  0  0  0  0  0  0  0
  186.3240  177.6800  146.2980 C   0  0  1  0  0  0  0  0  0  0  0  0
  185.0950  176.7900  146.2730 C   0  0  0  0  0  1  0  0  0  0  0  0
  187.9740  177.5260  145.1910 C   0  0  2  0  0  3  0  0  0  0  0  0
  186.6830  178.2730  144.9610 C   0  0  0  0  0  2  0  0  0  0  0  0
  2 24  2  0  0  0  0
  3  1  1  0  0  0  0
  3 17  1  1  0  0  0
  4 21  1  0  0  0  0
  5 22  1  0  0  0  0
  6 15  1  0  0  0  0
  6  4  1  0  0  0  0
  7 27  1  1  0  0  0
  7 16  1  0  0  0  0
  8 23  2  0  0  0  0
  8 18  1  0  0  0  0
 11  7  1  0  0  0  0
 13  9  1  1  0  0  0
 13 18  1  0  0  0  0
 13  3  1  0  0  0  0
 15 14  1  0  0  0  0
 15 12  2  0  0  0  0
 16 10  1  6  0  0  0
 16 31  1  0  0  0  0
 16 20  1  0  0  0  0
 19  5  1  0  0  0  0
 21 11  1  0  0  0  0
 22  8  1  0  0  0  0
 24 14  1  0  0  0  0
 24 19  1  0  0  0  0
 25 20  2  0  0  0  0
 25  1  1  0  0  0  0
 26 28  2  0  0  0  0
 26 29  1  0  0  0  0
 27 26  1  0  0  0  0
 31 30  1  6  0  0  0
 34 35  1  6  0  0  0
 34 33  1  0  0  0  0
 34 32  1  0  0  0  0
 36 31  1  6  0  0  0
 36 33  1  0  0  0  0
 37 36  1  0  0  0  0
 37 34  1  0  0  0  0
M  END
>  <MODEL>
5

>  <REMARK>
 VINA RESULT:      -6.5      2.950      5.244
  Name = 
  3 active torsions:
  status: ('A' for Active; 'I' for Inactive)
    1  A    between atoms: C_10  and  N_22
    2  A    between atoms: C_20  and  C_24
    3  A    between atoms: C_24  and  C_30
                            x       y       z     vdW  Elec       q    Type
                         _______ _______ _______ _____ _____    ______ ____

>  <TORSDO>
F 3

$$$$
=
 OpenBabel11052420133D

 37 38  0  0  1  0  0  0  0  0999 V2000
  190.2010  174.0910  140.9420 C   0  0  0  0  0  2  0  0  0  0  0  0
  195.1630  168.2720  143.9100 O   0  0  0  0  0  0  0  0  0  0  0  0
  189.7270  172.8610  140.1760 C   0  0  2  0  0  3  0  0  0  0  0  0
  194.7570  171.9060  144.1720 C   0  0  0  0  0  2  0  0  0  0  0  0
  193.0950  169.4090  141.6780 C   0  0  0  0  0  2  0  0  0  0  0  0
  196.0180  170.9380  145.0450 S   0  0  0  0  0  0  0  0  0  0  0  0
  192.0040  174.2870  145.1300 C   0  0  2  0  0  3  0  0  0  0  0  0
  193.0890  171.0270  139.7780 C   0  0  0  0  0  0  0  0  0  0  0  0
  190.1650  170.5630  139.6710 O   0  0  0  0  0  1  0  0  0  0  0  0
  189.6790  173.3870  145.2370 C   0  0  0  0  0  1  0  0  0  0  0  0
  192.6070  173.0700  144.4280 C   0  0  0  0  0  2  0  0  0  0  0  0
  197.9190  171.3610  143.2230 N   0  0  0  0  0  2  0  0  0  0  0  0
  190.7340  171.7110  140.2270 C   0  0  1  0  0  3  0  0  0  0  0  0
  196.3990  169.7100  142.5350 N   0  0  0  0  0  2  0  0  0  0  0  0
  196.9090  170.6160  143.5200 C   0  0  0  0  0  0  0  0  0  0  0  0
  190.5200  174.5790  144.7740 C   0  0  2  0  0  0  0  0  0  0  0  0
  189.4420  173.2110  138.8550 O   0  0  0  0  0  1  0  0  0  0  0  0
  192.0350  172.0530  139.5040 C   0  0  0  0  0  2  0  0  0  0  0  0
  194.3920  168.1660  141.3790 S   0  0  0  0  0  0  0  0  0  0  0  0
  190.3690  174.7950  143.2840 C   0  0  0  0  0  3  0  0  0  0  0  0
  193.8430  172.5910  145.1620 C   0  0  0  0  0  2  0  0  0  0  0  0
  193.5290  170.7850  141.1890 C   0  0  0  0  0  2  0  0  0  0  0  0
  193.8970  170.5560  138.6890 S   0  0  0  0  0  0  0  0  0  0  0  0
  195.3760  168.7370  142.7590 C   0  0  0  0  0  0  0  0  0  0  0  0
  190.3230  173.7960  142.3990 C   0  0  0  0  0  3  0  0  0  0  0  0
  193.4630  176.1870  146.0910 C   0  0  0  0  0  0  0  0  0  0  0  0
  192.8660  175.4680  145.0060 N   0  0  0  0  0  2  0  0  0  0  0  0
  193.2030  175.8930  147.2880 O   0  0  0  0  0  0  0  0  0  0  0  0
  194.5780  177.5360  145.7400 S   0  0  0  0  0  1  0  0  0  0  0  0
  189.5850  175.5270  146.8100 O   0  0  0  0  0  1  0  0  0  0  0  0
  190.0630  175.8560  145.5380 C   0  0  2  0  0  3  0  0  0  0  0  0
  186.6740  178.5520  144.8000 O   0  0  0  0  0  1  0  0  0  0  0  0
  188.7070  177.9210  145.7000 O   0  0  0  0  0  0  0  0  0  0  0  0
  187.3510  177.5870  145.5480 C   0  0  1  0  0  0  0  0  0  0  0  0
  186.6650  177.3060  146.8720 C   0  0  0  0  0  1  0  0  0  0  0  0
  189.0730  176.8410  144.8750 C   0  0  2  0  0  3  0  0  0  0  0  0
  187.6500  176.3540  144.7350 C   0  0  0  0  0  2  0  0  0  0  0  0
  1 25  1  0  0  0  0
  3 17  1  6  0  0  0
  3 13  1  0  0  0  0
  3  1  1  0  0  0  0
  4  6  1  0  0  0  0
  4 21  1  0  0  0  0
  7 27  1  6  0  0  0
  8 22  1  0  0  0  0
 11  7  1  0  0  0  0
 11 21  1  0  0  0  0
 12 15  2  0  0  0  0
 13  9  1  6  0  0  0
 14 24  1  0  0  0  0
 14 15  1  0  0  0  0
 15  6  1  0  0  0  0
 16  7  1  0  0  0  0
 16 10  1  1  0  0  0
 16 31  1  0  0  0  0
 18  8  1  0  0  0  0
 18 13  1  0  0  0  0
 19  5  1  0  0  0  0
 19 24  1  0  0  0  0
 20 16  1  0  0  0  0
 22  5  1  0  0  0  0
 23  8  2  0  0  0  0
 24  2  2  0  0  0  0
 25 20  2  0  0  0  0
 26 28  2  0  0  0  0
 27 26  1  0  0  0  0
 29 26  1  0  0  0  0
 31 30  1  1  0  0  0
 32 34  1  0  0  0  0
 34 33  1  0  0  0  0
 34 35  1  1  0  0  0
 36 31  1  1  0  0  0
 36 33  1  0  0  0  0
 37 36  1  0  0  0  0
 37 34  1  0  0  0  0
M  END
>  <MODEL>
6

>  <REMARK>
 VINA RESULT:      -6.5      2.103      2.446
  Name = 
  3 active torsions:
  status: ('A' for Active; 'I' for Inactive)
    1  A    between atoms: C_10  and  N_22
    2  A    between atoms: C_20  and  C_24
    3  A    between atoms: C_24  and  C_30
                            x       y       z     vdW  Elec       q    Type
                         _______ _______ _______ _____ _____    ______ ____

>  <TORSDO>
F 3

$$$$
=
 OpenBabel11052420133D

 37 38  0  0  1  0  0  0  0  0999 V2000
  193.5900  176.1130  142.1240 C   0  0  0  0  0  2  0  0  0  0  0  0
  195.4960  168.1800  142.9870 O   0  0  0  0  0  0  0  0  0  0  0  0
  194.9070  176.0270  141.3610 C   0  0  2  0  0  3  0  0  0  0  0  0
  192.9570  170.5250  144.2080 C   0  0  0  0  0  2  0  0  0  0  0  0
  196.2800  171.2580  142.3030 C   0  0  0  0  0  2  0  0  0  0  0  0
  193.0260  168.7620  144.6280 S   0  0  0  0  0  0  0  0  0  0  0  0
  190.4330  172.8640  142.6800 C   0  0  2  0  0  3  0  0  0  0  0  0
  196.7160  173.3950  143.5130 C   0  0  0  0  0  0  0  0  0  0  0  0
  196.7920  174.6510  140.8320 O   0  0  0  0  0  1  0  0  0  0  0  0
  190.6830  173.4140  140.2600 C   0  0  0  0  0  1  0  0  0  0  0  0
  191.8030  172.2010  142.8280 C   0  0  0  0  0  2  0  0  0  0  0  0
  194.3540  169.1330  146.9110 N   0  0  0  0  0  2  0  0  0  0  0  0
  195.6980  174.7600  141.6920 C   0  0  1  0  0  3  0  0  0  0  0  0
  195.7700  169.2670  145.0440 N   0  0  0  0  0  2  0  0  0  0  0  0
  194.4930  169.0010  145.6360 C   0  0  0  0  0  0  0  0  0  0  0  0
  190.3710  174.0100  141.6330 C   0  0  2  0  0  0  0  0  0  0  0  0
  195.6720  177.1670  141.6130 O   0  0  0  0  0  1  0  0  0  0  0  0
  196.1700  174.7390  143.1440 C   0  0  0  0  0  2  0  0  0  0  0  0
  197.4280  169.9910  142.9290 S   0  0  0  0  0  0  0  0  0  0  0  0
  191.3630  175.0970  141.9840 C   0  0  0  0  0  3  0  0  0  0  0  0
  191.6690  170.8410  143.4820 C   0  0  0  0  0  2  0  0  0  0  0  0
  195.8300  172.1920  143.4190 C   0  0  0  0  0  2  0  0  0  0  0  0
  197.9340  173.3270  144.2720 S   0  0  0  0  0  0  0  0  0  0  0  0
  196.1080  169.0410  143.6740 C   0  0  0  0  0  0  0  0  0  0  0  0
  192.6700  175.0100  141.7220 C   0  0  0  0  0  3  0  0  0  0  0  0
  190.5560  173.9630  145.0120 C   0  0  0  0  0  0  0  0  0  0  0  0
  189.8710  173.2440  143.9810 N   0  0  0  0  0  2  0  0  0  0  0  0
  191.7760  174.2550  144.9010 O   0  0  0  0  0  0  0  0  0  0  0  0
  189.6710  174.4350  146.4880 S   0  0  0  0  0  1  0  0  0  0  0  0
  188.2770  174.2880  140.4250 O   0  0  0  0  0  1  0  0  0  0  0  0
  188.9300  174.5990  141.6220 C   0  0  2  0  0  3  0  0  0  0  0  0
  187.2410  178.3810  143.0890 O   0  0  0  0  0  1  0  0  0  0  0  0
  188.3280  176.3480  143.2670 O   0  0  0  0  0  0  0  0  0  0  0  0
  187.1720  177.0120  142.8220 C   0  0  1  0  0  0  0  0  0  0  0  0
  185.8960  176.3910  143.3590 C   0  0  0  0  0  1  0  0  0  0  0  0
  188.7040  176.0970  141.9350 C   0  0  2  0  0  3  0  0  0  0  0  0
  187.4430  176.7080  141.3720 C   0  0  0  0  0  2  0  0  0  0  0  0
  2 24  2  0  0  0  0
  3 17  1  1  0  0  0
  3 13  1  0  0  0  0
  3  1  1  0  0  0  0
  4  6  1  0  0  0  0
  5 19  1  0  0  0  0
  5 22  1  0  0  0  0
  6 15  1  0  0  0  0
  7 11  1  0  0  0  0
  7 27  1  1  0  0  0
  8 23  2  0  0  0  0
 11 21  1  0  0  0  0
 13  9  1  6  0  0  0
 13 18  1  0  0  0  0
 14 15  1  0  0  0  0
 15 12  2  0  0  0  0
 16 10  1  6  0  0  0
 16 20  1  0  0  0  0
 16  7  1  0  0  0  0
 18  8  1  0  0  0  0
 19 24  1  0  0  0  0
 21  4  1  0  0  0  0
 22  8  1  0  0  0  0
 24 14  1  0  0  0  0
 25 20  2  0  0  0  0
 25  1  1  0  0  0  0
 26 29  1  0  0  0  0
 27 26  1  0  0  0  0
 28 26  2  0  0  0  0
 31 30  1  6  0  0  0
 31 16  1  0  0  0  0
 34 32  1  0  0  0  0
 34 33  1  0  0  0  0
 34 35  1  1  0  0  0
 36 31  1  1  0  0  0
 36 33  1  0  0  0  0
 37 36  1  0  0  0  0
 37 34  1  0  0  0  0
M  END
>  <MODEL>
7

>  <REMARK>
 VINA RESULT:      -6.2      3.075      4.956
  Name = 
  3 active torsions:
  status: ('A' for Active; 'I' for Inactive)
    1  A    between atoms: C_10  and  N_22
    2  A    between atoms: C_20  and  C_24
    3  A    between atoms: C_24  and  C_30
                            x       y       z     vdW  Elec       q    Type
                         _______ _______ _______ _____ _____    ______ ____

>  <TORSDO>
F 3

$$$$
=
 OpenBabel11052420133D

 37 38  0  0  1  0  0  0  0  0999 V2000
  194.2870  174.4760  145.5020 C   0  0  0  0  0  2  0  0  0  0  0  0
  196.2360  173.1620  137.6420 O   0  0  0  0  0  0  0  0  0  0  0  0
  195.7940  174.7070  145.5150 C   0  0  2  0  0  3  0  0  0  0  0  0
  193.2860  172.8990  139.8030 C   0  0  0  0  0  2  0  0  0  0  0  0
  197.0230  173.4410  140.7820 C   0  0  0  0  0  2  0  0  0  0  0  0
  193.3080  172.5240  138.0290 S   0  0  0  0  0  0  0  0  0  0  0  0
  191.3520  175.1880  142.0810 C   0  0  2  0  0  3  0  0  0  0  0  0
  196.8560  172.1050  142.8820 C   0  0  0  0  0  0  0  0  0  0  0  0
  197.8240  174.5430  144.2580 O   0  0  0  0  0  1  0  0  0  0  0  0
  192.4290  177.3370  142.7490 C   0  0  0  0  0  1  0  0  0  0  0  0
  192.6130  174.5660  141.4800 C   0  0  0  0  0  2  0  0  0  0  0  0
  193.6890  169.9060  138.3620 N   0  0  0  0  0  2  0  0  0  0  0  0
  196.4870  174.1400  144.2750 C   0  0  1  0  0  3  0  0  0  0  0  0
  195.6760  171.1220  138.6480 N   0  0  0  0  0  2  0  0  0  0  0  0
  194.2900  171.0450  138.2950 C   0  0  0  0  0  0  0  0  0  0  0  0
  191.6030  176.1590  143.2680 C   0  0  2  0  0  0  0  0  0  0  0  0
  196.3430  174.1670  146.6790 O   0  0  0  0  0  1  0  0  0  0  0  0
  196.4000  172.6170  144.2130 C   0  0  0  0  0  2  0  0  0  0  0  0
  197.9410  172.4680  139.5460 S   0  0  0  0  0  0  0  0  0  0  0  0
  192.3310  175.4450  144.3850 C   0  0  0  0  0  3  0  0  0  0  0  0
  192.3340  174.0390  140.0870 C   0  0  0  0  0  2  0  0  0  0  0  0
  196.1410  172.5450  141.6420 C   0  0  0  0  0  2  0  0  0  0  0  0
  197.7170  170.9560  142.8410 S   0  0  0  0  0  0  0  0  0  0  0  0
  196.5020  172.2800  138.5010 C   0  0  0  0  0  0  0  0  0  0  0  0
  193.6460  175.2130  144.3740 C   0  0  0  0  0  3  0  0  0  0  0  0
  189.0730  174.0370  141.7080 C   0  0  0  0  0  0  0  0  0  0  0  0
  190.3320  174.1750  142.3740 N   0  0  0  0  0  2  0  0  0  0  0  0
  188.6990  174.8720  140.8430 O   0  0  0  0  0  0  0  0  0  0  0  0
  188.0050  172.6680  142.1260 S   0  0  0  0  0  1  0  0  0  0  0  0
  190.1750  178.0780  143.7140 O   0  0  0  0  0  1  0  0  0  0  0  0
  190.2320  176.6820  143.7850 C   0  0  2  0  0  3  0  0  0  0  0  0
  187.6700  175.9900  147.2880 O   0  0  0  0  0  1  0  0  0  0  0  0
  188.4250  175.6520  145.1290 O   0  0  0  0  0  0  0  0  0  0  0  0
  187.9600  176.5940  146.0630 C   0  0  1  0  0  0  0  0  0  0  0  0
  186.7930  177.4110  145.5400 C   0  0  0  0  0  1  0  0  0  0  0  0
  189.7050  176.2350  145.1690 C   0  0  2  0  0  3  0  0  0  0  0  0
  189.2680  177.3410  146.1000 C   0  0  0  0  0  2  0  0  0  0  0  0
  1  3  1  0  0  0  0
  2 24  2  0  0  0  0
  3 17  1  1  0  0  0
  4 21  1  0  0  0  0
  5 22  1  0  0  0  0
  6 15  1  0  0  0  0
  6  4  1  0  0  0  0
  7 27  1  1  0  0  0
  7 16  1  0  0  0  0
  8 18  1  0  0  0  0
 11  7  1  0  0  0  0
 13  9  1  1  0  0  0
 13  3  1  0  0  0  0
 15 12  2  0  0  0  0
 15 14  1  0  0  0  0
 16 10  1  6  0  0  0
 16 31  1  0  0  0  0
 16 20  1  0  0  0  0
 18 13  1  0  0  0  0
 19  5  1  0  0  0  0
 21 11  1  0  0  0  0
 22  8  1  0  0  0  0
 23  8  2  0  0  0  0
 24 14  1  0  0  0  0
 24 19  1  0  0  0  0
 25 20  2  0  0  0  0
 25  1  1  0  0  0  0
 26 29  1  0  0  0  0
 26 27  1  0  0  0  0
 28 26  2  0  0  0  0
 31 30  1  1  0  0  0
 33 36  1  0  0  0  0
 33 34  1  0  0  0  0
 34 35  1  6  0  0  0
 34 37  1  0  0  0  0
 34 32  1  0  0  0  0
 36 31  1  6  0  0  0
 36 37  1  0  0  0  0
M  END
>  <MODEL>
8

>  <REMARK>
 VINA RESULT:      -6.2      2.973      5.529
  Name = 
  3 active torsions:
  status: ('A' for Active; 'I' for Inactive)
    1  A    between atoms: C_10  and  N_22
    2  A    between atoms: C_20  and  C_24
    3  A    between atoms: C_24  and  C_30
                            x       y       z     vdW  Elec       q    Type
                         _______ _______ _______ _____ _____    ______ ____

>  <TORSDO>
F 3

$$$$
=
 OpenBabel11052420133D

 37 38  0  0  1  0  0  0  0  0999 V2000
  189.2460  173.7170  138.3980 C   0  0  0  0  0  2  0  0  0  0  0  0
  193.1230  169.0490  143.9170 O   0  0  0  0  0  0  0  0  0  0  0  0
  189.1540  172.3390  137.7540 C   0  0  2  0  0  3  0  0  0  0  0  0
  192.4370  172.6050  143.3510 C   0  0  0  0  0  2  0  0  0  0  0  0
  191.9430  169.5820  140.9370 C   0  0  0  0  0  2  0  0  0  0  0  0
  193.3500  171.9390  144.7700 S   0  0  0  0  0  0  0  0  0  0  0  0
  189.3900  174.7550  142.8400 C   0  0  2  0  0  3  0  0  0  0  0  0
  192.5330  170.8830  138.8920 C   0  0  0  0  0  0  0  0  0  0  0  0
  189.8800  170.0610  137.8630 O   0  0  0  0  0  1  0  0  0  0  0  0
  187.2430  173.6080  142.2950 C   0  0  0  0  0  1  0  0  0  0  0  0
  190.2770  173.5280  142.6270 C   0  0  0  0  0  2  0  0  0  0  0  0
  195.7550  172.3090  143.6770 N   0  0  0  0  0  2  0  0  0  0  0  0
  190.1400  171.3390  138.3620 C   0  0  1  0  0  3  0  0  0  0  0  0
  194.6880  170.4020  142.8180 N   0  0  0  0  0  2  0  0  0  0  0  0
  194.7510  171.5000  143.7360 C   0  0  0  0  0  0  0  0  0  0  0  0
  188.1220  174.8090  141.9430 C   0  0  2  0  0  0  0  0  0  0  0  0
  189.3480  172.4490  136.3760 O   0  0  0  0  0  1  0  0  0  0  0  0
  191.5920  171.7230  138.0860 C   0  0  0  0  0  2  0  0  0  0  0  0
  193.3310  168.4730  141.3410 S   0  0  0  0  0  0  0  0  0  0  0  0
  188.5100  174.7790  140.4820 C   0  0  0  0  0  3  0  0  0  0  0  0
  191.1880  173.3160  143.8190 C   0  0  0  0  0  2  0  0  0  0  0  0
  192.4440  170.9110  140.3870 C   0  0  0  0  0  2  0  0  0  0  0  0
  193.7070  170.3550  138.2570 S   0  0  0  0  0  0  0  0  0  0  0  0
  193.7110  169.3580  142.8470 C   0  0  0  0  0  0  0  0  0  0  0  0
  188.8470  173.6610  139.8340 C   0  0  0  0  0  3  0  0  0  0  0  0
  190.6340  176.7230  143.9530 C   0  0  0  0  0  0  0  0  0  0  0  0
  190.1680  175.9990  142.8090 N   0  0  0  0  0  2  0  0  0  0  0  0
  190.3150  176.3730  145.1200 O   0  0  0  0  0  0  0  0  0  0  0  0
  191.6660  178.1610  143.7190 S   0  0  0  0  0  1  0  0  0  0  0  0
  187.9610  177.2180  141.6430 O   0  0  0  0  0  1  0  0  0  0  0  0
  187.3450  176.1220  142.2540 C   0  0  2  0  0  3  0  0  0  0  0  0
  185.6340  178.0350  145.8200 O   0  0  0  0  0  1  0  0  0  0  0  0
  185.6340  176.6650  143.9580 O   0  0  0  0  0  0  0  0  0  0  0  0
  185.8740  177.9600  144.4470 C   0  0  1  0  0  0  0  0  0  0  0  0
  185.1160  179.0260  143.6780 C   0  0  0  0  0  1  0  0  0  0  0  0
  187.0100  176.4930  143.7170 C   0  0  2  0  0  3  0  0  0  0  0  0
  187.3470  177.9050  144.1350 C   0  0  0  0  0  2  0  0  0  0  0  0
  1 25  1  0  0  0  0
  3 17  1  6  0  0  0
  3 13  1  0  0  0  0
  3  1  1  0  0  0  0
  4 21  1  0  0  0  0
  4  6  1  0  0  0  0
  5 19  1  0  0  0  0
  7 27  1  6  0  0  0
  8 22  1  0  0  0  0
 11  7  1  0  0  0  0
 11 21  1  0  0  0  0
 12 15  2  0  0  0  0
 13  9  1  6  0  0  0
 14 24  1  0  0  0  0
 14 15  1  0  0  0  0
 15  6  1  0  0  0  0
 16 31  1  0  0  0  0
 16 10  1  1  0  0  0
 16  7  1  0  0  0  0
 18 13  1  0  0  0  0
 18  8  1  0  0  0  0
 19 24  1  0  0  0  0
 20 16  1  0  0  0  0
 22  5  1  0  0  0  0
 23  8  2  0  0  0  0
 24  2  2  0  0  0  0
 25 20  2  0  0  0  0
 26 28  2  0  0  0  0
 27 26  1  0  0  0  0
 29 26  1  0  0  0  0
 31 30  1  1  0  0  0
 33 34  1  0  0  0  0
 34 35  1  6  0  0  0
 34 32  1  0  0  0  0
 36 31  1  6  0  0  0
 36 33  1  0  0  0  0
 36 37  1  0  0  0  0
 37 34  1  0  0  0  0
M  END
>  <MODEL>
9

>  <REMARK>
 VINA RESULT:      -6.2      2.508      3.335
  Name = 
  3 active torsions:
  status: ('A' for Active; 'I' for Inactive)
    1  A    between atoms: C_10  and  N_22
    2  A    between atoms: C_20  and  C_24
    3  A    between atoms: C_24  and  C_30
                            x       y       z     vdW  Elec       q    Type
                         _______ _______ _______ _____ _____    ______ ____

>  <TORSDO>
F 3

$$$$
