=
 OpenBabel11052418583D

 34 39  0  0  1  0  0  0  0  0999 V2000
  191.5940  176.4190  146.4970 C   0  0  0  0  0  0  0  0  0  0  0  0
  192.8040  174.9860  145.0960 C   0  0  2  0  0  3  0  0  0  0  0  0
  190.3290  175.7230  144.5250 C   0  0  0  0  0  0  0  0  0  0  0  0
  188.9560  175.0980  142.6050 C   0  0  0  0  0  0  0  0  0  0  0  0
  192.9180  176.3390  147.1580 C   0  0  1  0  0  3  0  0  0  0  0  0
  193.7260  175.4080  146.2550 C   0  0  2  0  0  3  0  0  0  0  0  0
  191.4640  174.5810  142.5730 C   0  0  0  0  0  2  0  0  0  0  0  0
  191.5130  175.7080  145.3210 C   0  0  0  0  0  0  0  0  0  0  0  0
  191.1210  173.6880  141.4110 C   0  0  0  0  0  3  0  0  0  0  0  0
  188.7950  174.4250  141.4660 C   0  0  0  0  0  3  0  0  0  0  0  0
  194.0010  176.9010  146.2500 C   0  0  0  0  0  2  0  0  0  0  0  0
  189.1910  176.4330  145.0510 C   0  0  0  0  0  0  0  0  0  0  0  0
  190.5050  177.1080  147.0060 C   0  0  0  0  0  3  0  0  0  0  0  0
  192.5860  173.4860  145.2090 C   0  0  0  0  0  1  0  0  0  0  0  0
  187.8830  175.7800  143.1610 O   0  0  0  0  0  0  0  0  0  0  0  0
  188.0080  176.4720  144.3710 C   0  0  0  0  0  0  0  0  0  0  0  0
  189.9010  173.6580  140.8700 C   0  0  0  0  0  0  0  0  0  0  0  0
  190.2530  175.1110  143.3110 C   0  0  0  0  0  0  0  0  0  0  0  0
  189.3130  177.1000  146.2880 C   0  0  0  0  0  3  0  0  0  0  0  0
  185.4520  179.2290  144.7750 C   0  0  0  0  0  0  0  0  0  0  0  0
  184.5950  178.6950  145.7400 C   0  0  0  0  0  3  0  0  0  0  0  0
  186.8000  177.2040  144.8340 C   0  0  0  0  0  0  0  0  0  0  0  0
  184.8410  177.4240  146.2640 C   0  0  0  0  0  3  0  0  0  0  0  0
  186.5520  178.4890  144.3300 C   0  0  0  0  0  3  0  0  0  0  0  0
  185.9410  176.6860  145.8180 C   0  0  0  0  0  3  0  0  0  0  0  0
  185.2200  180.4650  144.2720 F   0  0  0  0  0  0  0  0  0  0  0  0
  189.6360  172.7730  139.7040 C   0  0  0  0  0  2  0  0  0  0  0  0
  188.2080  172.9630  139.2180 C   0  0  0  0  0  2  0  0  0  0  0  0
  189.5490  173.6090  137.2170 C   0  0  0  0  0  1  0  0  0  0  0  0
  188.1910  173.7070  137.8910 C   0  0  2  0  0  3  0  0  0  0  0  0
  187.7480  175.1670  138.0420 C   0  0  0  0  0  2  0  0  0  0  0  0
  185.6420  175.9770  136.9640 O   0  0  0  0  0  1  0  0  0  0  0  0
  186.9940  175.6790  136.8540 C   0  0  0  0  0  0  0  0  0  0  0  0
  187.5900  175.8610  135.7610 O   0  0  0  0  0  0  0  0  0  0  0  0
  1 13  1  0  0  0  0
  1  5  1  0  0  0  0
  2 14  1  1  0  0  0
  2  8  1  0  0  0  0
  2  6  1  0  0  0  0
  3 12  1  0  0  0  0
  3  8  1  0  0  0  0
  4 15  1  0  0  0  0
  4 18  1  0  0  0  0
  5 11  1  6  0  0  0
  6 11  1  6  0  0  0
  6  5  1  0  0  0  0
  7 18  1  0  0  0  0
  8  1  2  0  0  0  0
  9  7  1  0  0  0  0
 10  4  2  0  0  0  0
 12 19  1  0  0  0  0
 15 16  1  0  0  0  0
 16 22  1  0  0  0  0
 16 12  2  0  0  0  0
 17  9  2  0  0  0  0
 17 10  1  0  0  0  0
 18  3  2  0  0  0  0
 19 13  2  0  0  0  0
 20 21  1  0  0  0  0
 21 23  2  0  0  0  0
 22 25  2  0  0  0  0
 24 20  2  0  0  0  0
 24 22  1  0  0  0  0
 25 23  1  0  0  0  0
 26 20  1  0  0  0  0
 27 17  1  0  0  0  0
 28 27  1  0  0  0  0
 30 29  1  1  0  0  0
 30 31  1  0  0  0  0
 30 28  1  0  0  0  0
 33 32  1  0  0  0  0
 33 31  1  0  0  0  0
 34 33  2  0  0  0  0
M  END
>  <MODEL>
1

>  <REMARK>
 VINA RESULT:      -8.5      0.000      0.000
  Name = 
  6 active torsions:
  status: ('A' for Active; 'I' for Inactive)
    1  A    between atoms: C_3  and  C_13
    2  A    between atoms: C_3  and  C_29
    3  A    between atoms: C_12  and  C_28
    4  A    between atoms: C_13  and  C_33
    5  A    between atoms: C_20  and  C_22
    6  A    between atoms: C_22  and  C_33
                            x       y       z     vdW  Elec       q    Type
                         _______ _______ _______ _____ _____    ______ ____

>  <TORSDO>
F 6

$$$$
=
 OpenBabel11052418583D

 34 39  0  0  1  0  0  0  0  0999 V2000
  191.6280  176.4040  146.3040 C   0  0  0  0  0  0  0  0  0  0  0  0
  192.7410  174.8570  144.9460 C   0  0  2  0  0  3  0  0  0  0  0  0
  190.2580  175.6130  144.4420 C   0  0  0  0  0  0  0  0  0  0  0  0
  188.7840  174.8990  142.6300 C   0  0  0  0  0  0  0  0  0  0  0  0
  192.9800  176.3360  146.9090 C   0  0  1  0  0  3  0  0  0  0  0  0
  193.7250  175.3300  146.0320 C   0  0  2  0  0  3  0  0  0  0  0  0
  191.2760  174.3230  142.5180 C   0  0  0  0  0  2  0  0  0  0  0  0
  191.4770  175.6220  145.1820 C   0  0  0  0  0  0  0  0  0  0  0  0
  190.8620  173.3660  141.4340 C   0  0  0  0  0  3  0  0  0  0  0  0
  188.5560  174.1590  141.5460 C   0  0  0  0  0  3  0  0  0  0  0  0
  194.0300  176.8130  145.9180 C   0  0  0  0  0  2  0  0  0  0  0  0
  189.1600  176.3820  144.9710 C   0  0  0  0  0  0  0  0  0  0  0  0
  190.5780  177.1490  146.8170 C   0  0  0  0  0  3  0  0  0  0  0  0
  192.4990  173.3720  145.1660 C   0  0  0  0  0  1  0  0  0  0  0  0
  187.7520  175.6400  143.1890 O   0  0  0  0  0  0  0  0  0  0  0  0
  187.9480  176.4050  144.3450 C   0  0  0  0  0  0  0  0  0  0  0  0
  189.6170  173.3300  140.9510 C   0  0  0  0  0  0  0  0  0  0  0  0
  190.1120  174.9270  143.2750 C   0  0  0  0  0  0  0  0  0  0  0  0
  189.3540  177.1230  146.1560 C   0  0  0  0  0  3  0  0  0  0  0  0
  185.5040  179.2640  144.7300 C   0  0  0  0  0  0  0  0  0  0  0  0
  184.6500  178.7880  145.7270 C   0  0  0  0  0  3  0  0  0  0  0  0
  186.7780  177.1930  144.8140 C   0  0  0  0  0  0  0  0  0  0  0  0
  184.8610  177.5220  146.2790 C   0  0  0  0  0  3  0  0  0  0  0  0
  186.5660  178.4730  144.2810 C   0  0  0  0  0  3  0  0  0  0  0  0
  185.9230  176.7330  145.8300 C   0  0  0  0  0  3  0  0  0  0  0  0
  185.3060  180.4950  144.1990 F   0  0  0  0  0  0  0  0  0  0  0  0
  189.2800  172.3790  139.8580 C   0  0  0  0  0  2  0  0  0  0  0  0
  188.2330  172.9880  138.9400 C   0  0  0  0  0  2  0  0  0  0  0  0
  187.7710  174.8570  137.3560 C   0  0  0  0  0  1  0  0  0  0  0  0
  188.8560  174.0630  138.0610 C   0  0  2  0  0  3  0  0  0  0  0  0
  189.8680  173.4920  137.0610 C   0  0  0  0  0  2  0  0  0  0  0  0
  192.1070  173.8190  138.1230 O   0  0  0  0  0  1  0  0  0  0  0  0
  191.2030  174.1640  137.1270 C   0  0  0  0  0  0  0  0  0  0  0  0
  191.5170  175.0260  136.2660 O   0  0  0  0  0  0  0  0  0  0  0  0
  1 13  1  0  0  0  0
  1  5  1  0  0  0  0
  2 14  1  1  0  0  0
  2  8  1  0  0  0  0
  2  6  1  0  0  0  0
  3 12  1  0  0  0  0
  3  8  1  0  0  0  0
  4 15  1  0  0  0  0
  4 18  1  0  0  0  0
  5 11  1  6  0  0  0
  6 11  1  6  0  0  0
  6  5  1  0  0  0  0
  7 18  1  0  0  0  0
  8  1  2  0  0  0  0
  9  7  1  0  0  0  0
 10  4  2  0  0  0  0
 12 19  1  0  0  0  0
 15 16  1  0  0  0  0
 16 22  1  0  0  0  0
 16 12  2  0  0  0  0
 17  9  2  0  0  0  0
 17 10  1  0  0  0  0
 18  3  2  0  0  0  0
 19 13  2  0  0  0  0
 20 21  1  0  0  0  0
 21 23  2  0  0  0  0
 22 25  2  0  0  0  0
 24 20  2  0  0  0  0
 24 22  1  0  0  0  0
 25 23  1  0  0  0  0
 26 20  1  0  0  0  0
 27 17  1  0  0  0  0
 28 27  1  0  0  0  0
 30 29  1  6  0  0  0
 30 28  1  0  0  0  0
 31 33  1  0  0  0  0
 31 30  1  0  0  0  0
 33 32  1  0  0  0  0
 34 33  2  0  0  0  0
M  END
>  <MODEL>
2

>  <REMARK>
 VINA RESULT:      -8.4      1.292      1.711
  Name = 
  6 active torsions:
  status: ('A' for Active; 'I' for Inactive)
    1  A    between atoms: C_3  and  C_13
    2  A    between atoms: C_3  and  C_29
    3  A    between atoms: C_12  and  C_28
    4  A    between atoms: C_13  and  C_33
    5  A    between atoms: C_20  and  C_22
    6  A    between atoms: C_22  and  C_33
                            x       y       z     vdW  Elec       q    Type
                         _______ _______ _______ _____ _____    ______ ____

>  <TORSDO>
F 6

$$$$
=
 OpenBabel11052418583D

 34 39  0  0  1  0  0  0  0  0999 V2000
  191.3720  176.3180  146.3230 C   0  0  0  0  0  0  0  0  0  0  0  0
  192.5050  174.9050  144.8410 C   0  0  2  0  0  3  0  0  0  0  0  0
  190.0390  175.7330  144.3590 C   0  0  0  0  0  0  0  0  0  0  0  0
  188.6030  175.2190  142.4520 C   0  0  0  0  0  0  0  0  0  0  0  0
  192.7080  176.1760  146.9480 C   0  0  1  0  0  3  0  0  0  0  0  0
  193.4660  175.2570  145.9900 C   0  0  2  0  0  3  0  0  0  0  0  0
  191.0940  174.6340  142.3380 C   0  0  0  0  0  2  0  0  0  0  0  0
  191.2410  175.6550  145.1240 C   0  0  0  0  0  0  0  0  0  0  0  0
  190.6970  173.7950  141.1540 C   0  0  0  0  0  3  0  0  0  0  0  0
  188.3960  174.5950  141.2940 C   0  0  0  0  0  3  0  0  0  0  0  0
  193.7850  176.7400  146.0340 C   0  0  0  0  0  2  0  0  0  0  0  0
  188.9360  176.4550  144.9390 C   0  0  0  0  0  0  0  0  0  0  0  0
  190.3160  177.0180  146.8840 C   0  0  0  0  0  3  0  0  0  0  0  0
  192.2460  173.4080  144.9040 C   0  0  0  0  0  1  0  0  0  0  0  0
  187.5650  175.9100  143.0600 O   0  0  0  0  0  0  0  0  0  0  0  0
  187.7390  176.5520  144.2910 C   0  0  0  0  0  0  0  0  0  0  0  0
  189.4640  173.8200  140.6420 C   0  0  0  0  0  0  0  0  0  0  0  0
  189.9170  175.1700  143.1260 C   0  0  0  0  0  0  0  0  0  0  0  0
  189.1070  177.0710  146.1970 C   0  0  0  0  0  3  0  0  0  0  0  0
  185.2380  179.3410  144.8100 C   0  0  0  0  0  0  0  0  0  0  0  0
  184.4250  178.8220  145.8200 C   0  0  0  0  0  3  0  0  0  0  0  0
  186.5640  177.3010  144.8110 C   0  0  0  0  0  0  0  0  0  0  0  0
  184.6830  177.5500  146.3370 C   0  0  0  0  0  3  0  0  0  0  0  0
  186.3060  178.5870  144.3140 C   0  0  0  0  0  3  0  0  0  0  0  0
  185.7500  176.7970  145.8390 C   0  0  0  0  0  3  0  0  0  0  0  0
  184.9960  180.5780  144.3130 F   0  0  0  0  0  0  0  0  0  0  0  0
  189.1450  172.9870  139.4510 C   0  0  0  0  0  2  0  0  0  0  0  0
  190.4220  172.6300  138.7070 C   0  0  0  0  0  2  0  0  0  0  0  0
  189.4210  174.0410  136.9120 C   0  0  0  0  0  1  0  0  0  0  0  0
  190.2270  172.7880  137.2070 C   0  0  2  0  0  3  0  0  0  0  0  0
  189.5900  171.5510  136.5630 C   0  0  0  0  0  2  0  0  0  0  0  0
  191.5710  170.0300  136.6630 O   0  0  0  0  0  0  0  0  0  0  0  0
  190.2400  170.2700  136.9800 C   0  0  0  0  0  0  0  0  0  0  0  0
  189.5890  169.4180  137.6370 O   0  0  0  0  0  1  0  0  0  0  0  0
  1 13  1  0  0  0  0
  1  5  1  0  0  0  0
  2 14  1  1  0  0  0
  2  8  1  0  0  0  0
  2  6  1  0  0  0  0
  3 12  1  0  0  0  0
  3  8  1  0  0  0  0
  4 15  1  0  0  0  0
  4 18  1  0  0  0  0
  5 11  1  6  0  0  0
  6 11  1  6  0  0  0
  6  5  1  0  0  0  0
  7 18  1  0  0  0  0
  8  1  2  0  0  0  0
  9  7  1  0  0  0  0
 10  4  2  0  0  0  0
 12 19  1  0  0  0  0
 15 16  1  0  0  0  0
 16 22  1  0  0  0  0
 16 12  2  0  0  0  0
 17  9  2  0  0  0  0
 17 10  1  0  0  0  0
 18  3  2  0  0  0  0
 19 13  2  0  0  0  0
 20 21  1  0  0  0  0
 21 23  2  0  0  0  0
 22 25  2  0  0  0  0
 24 20  2  0  0  0  0
 24 22  1  0  0  0  0
 25 23  1  0  0  0  0
 26 20  1  0  0  0  0
 27 17  1  0  0  0  0
 28 27  1  0  0  0  0
 30 29  1  1  0  0  0
 30 28  1  0  0  0  0
 31 33  1  0  0  0  0
 31 30  1  0  0  0  0
 32 33  2  0  0  0  0
 33 34  1  0  0  0  0
M  END
>  <MODEL>
3

>  <REMARK>
 VINA RESULT:      -8.3      1.899      2.380
  Name = 
  6 active torsions:
  status: ('A' for Active; 'I' for Inactive)
    1  A    between atoms: C_3  and  C_13
    2  A    between atoms: C_3  and  C_29
    3  A    between atoms: C_12  and  C_28
    4  A    between atoms: C_13  and  C_33
    5  A    between atoms: C_20  and  C_22
    6  A    between atoms: C_22  and  C_33
                            x       y       z     vdW  Elec       q    Type
                         _______ _______ _______ _____ _____    ______ ____

>  <TORSDO>
F 6

$$$$
=
 OpenBabel11052418583D

 34 39  0  0  1  0  0  0  0  0999 V2000
  185.8590  177.4080  144.1490 C   0  0  0  0  0  0  0  0  0  0  0  0
  186.9620  177.9220  146.1490 C   0  0  2  0  0  3  0  0  0  0  0  0
  188.1190  176.4830  144.2550 C   0  0  0  0  0  0  0  0  0  0  0  0
  190.3540  175.4990  144.2380 C   0  0  1  0  0  3  0  0  0  0  0  0
  184.8830  178.2660  144.8620 C   0  0  1  0  0  3  0  0  0  0  0  0
  185.5880  178.6150  146.1720 C   0  0  2  0  0  3  0  0  0  0  0  0
  189.7610  177.2300  146.0290 C   0  0  0  0  0  3  0  0  0  0  0  0
  187.0460  177.2330  144.8230 C   0  0  0  0  0  0  0  0  0  0  0  0
  191.0100  176.7420  146.7130 C   0  0  0  0  0  3  0  0  0  0  0  0
  191.5240  175.2720  144.8330 C   0  0  0  0  0  3  0  0  0  0  0  0
  185.4560  179.6580  145.0770 C   0  0  0  0  0  2  0  0  0  0  0  0
  187.8740  175.8380  142.9900 C   0  0  0  0  0  0  0  0  0  0  0  0
  185.6180  176.7940  142.9310 C   0  0  0  0  0  3  0  0  0  0  0  0
  186.9750  176.8960  147.2700 C   0  0  0  0  0  1  0  0  0  0  0  0
  190.0630  174.8830  143.0290 O   0  0  0  0  0  0  0  0  0  0  0  0
  188.8330  175.0750  142.3910 C   0  0  0  0  0  0  0  0  0  0  0  0
  191.8480  175.8780  146.1350 C   0  0  0  0  0  0  0  0  0  0  0  0
  189.3370  176.3760  144.8530 C   0  0  0  0  0  0  0  0  0  0  0  0
  186.6190  176.0060  142.3690 C   0  0  0  0  0  3  0  0  0  0  0  0
  187.9760  174.5360  138.7470 C   0  0  0  0  0  0  0  0  0  0  0  0
  188.2200  173.1710  138.5870 C   0  0  0  0  0  3  0  0  0  0  0  0
  188.6650  174.4000  141.0760 C   0  0  0  0  0  0  0  0  0  0  0  0
  188.6740  172.4130  139.6690 C   0  0  0  0  0  3  0  0  0  0  0  0
  188.1910  175.1450  139.9870 C   0  0  0  0  0  3  0  0  0  0  0  0
  188.8890  173.0230  140.9080 C   0  0  0  0  0  3  0  0  0  0  0  0
  187.5270  175.2720  137.7020 F   0  0  0  0  0  0  0  0  0  0  0  0
  193.0810  175.4580  146.8540 C   0  0  0  0  0  2  0  0  0  0  0  0
  194.2290  176.3940  146.5130 C   0  0  0  0  0  2  0  0  0  0  0  0
  195.0630  176.1540  144.1760 C   0  0  0  0  0  1  0  0  0  0  0  0
  195.2380  175.6960  145.6130 C   0  0  2  0  0  3  0  0  0  0  0  0
  195.1670  174.1690  145.7240 C   0  0  0  0  0  2  0  0  0  0  0  0
  196.6370  172.1900  146.1380 O   0  0  0  0  0  1  0  0  0  0  0  0
  196.5140  173.5180  145.7490 C   0  0  0  0  0  0  0  0  0  0  0  0
  197.5330  174.1650  145.3960 O   0  0  0  0  0  0  0  0  0  0  0  0
  1  8  2  0  0  0  0
  1  5  1  0  0  0  0
  2  6  1  0  0  0  0
  2 14  1  1  0  0  0
  3  8  1  0  0  0  0
  3 18  2  0  0  0  0
  4 10  1  1  0  0  0
  4 18  1  0  0  0  0
  5 11  1  6  0  0  0
  5  6  1  0  0  0  0
  6 11  1  6  0  0  0
  7  9  2  0  0  0  0
  8  2  1  0  0  0  0
 10 17  2  0  0  0  0
 12  3  1  0  0  0  0
 13  1  1  0  0  0  0
 15  4  1  0  0  0  0
 16 12  2  0  0  0  0
 16 15  1  0  0  0  0
 17  9  1  0  0  0  0
 17 27  1  0  0  0  0
 18  7  1  0  0  0  0
 19 13  2  0  0  0  0
 19 12  1  0  0  0  0
 20 24  1  0  0  0  0
 21 20  2  0  0  0  0
 21 23  1  0  0  0  0
 22 16  1  0  0  0  0
 23 25  2  0  0  0  0
 24 22  2  0  0  0  0
 25 22  1  0  0  0  0
 26 20  1  0  0  0  0
 28 27  1  0  0  0  0
 30 29  1  6  0  0  0
 30 31  1  0  0  0  0
 30 28  1  0  0  0  0
 31 33  1  0  0  0  0
 33 32  1  0  0  0  0
 34 33  2  0  0  0  0
M  END
>  <MODEL>
4

>  <REMARK>
 VINA RESULT:      -8.3      3.148      7.849
  Name = 
  6 active torsions:
  status: ('A' for Active; 'I' for Inactive)
    1  A    between atoms: C_3  and  C_13
    2  A    between atoms: C_3  and  C_29
    3  A    between atoms: C_12  and  C_28
    4  A    between atoms: C_13  and  C_33
    5  A    between atoms: C_20  and  C_22
    6  A    between atoms: C_22  and  C_33
                            x       y       z     vdW  Elec       q    Type
                         _______ _______ _______ _____ _____    ______ ____

>  <TORSDO>
F 6

$$$$
=
 OpenBabel11052418583D

 34 39  0  0  1  0  0  0  0  0999 V2000
  185.5300  177.8660  143.7410 C   0  0  0  0  0  0  0  0  0  0  0  0
  186.5170  178.3240  145.8130 C   0  0  2  0  0  3  0  0  0  0  0  0
  187.7210  176.8150  144.0050 C   0  0  0  0  0  0  0  0  0  0  0  0
  189.8920  175.7060  144.1450 C   0  0  1  0  0  3  0  0  0  0  0  0
  184.5560  178.7800  144.3840 C   0  0  1  0  0  3  0  0  0  0  0  0
  185.1860  179.0940  145.7400 C   0  0  2  0  0  3  0  0  0  0  0  0
  189.2740  177.4740  145.8910 C   0  0  0  0  0  3  0  0  0  0  0  0
  186.6550  177.6260  144.4970 C   0  0  0  0  0  0  0  0  0  0  0  0
  190.4410  176.9190  146.6610 C   0  0  0  0  0  3  0  0  0  0  0  0
  191.0030  175.4160  144.8210 C   0  0  0  0  0  3  0  0  0  0  0  0
  185.1910  180.1390  144.6390 C   0  0  0  0  0  2  0  0  0  0  0  0
  187.5290  176.1800  142.7260 C   0  0  0  0  0  0  0  0  0  0  0  0
  185.3410  177.2620  142.5090 C   0  0  0  0  0  3  0  0  0  0  0  0
  186.3930  177.3020  146.9320 C   0  0  0  0  0  1  0  0  0  0  0  0
  189.6530  175.1030  142.9180 O   0  0  0  0  0  0  0  0  0  0  0  0
  188.4830  175.3620  142.1950 C   0  0  0  0  0  0  0  0  0  0  0  0
  191.2680  176.0070  146.1430 C   0  0  0  0  0  0  0  0  0  0  0  0
  188.8860  176.6410  144.6880 C   0  0  0  0  0  0  0  0  0  0  0  0
  186.3320  176.4180  142.0180 C   0  0  0  0  0  3  0  0  0  0  0  0
  188.8180  172.7410  139.4900 C   0  0  0  0  0  0  0  0  0  0  0  0
  188.2930  173.4000  138.3760 C   0  0  0  0  0  3  0  0  0  0  0  0
  188.3710  174.6930  140.8720 C   0  0  0  0  0  0  0  0  0  0  0  0
  187.8180  174.7080  138.5010 C   0  0  0  0  0  3  0  0  0  0  0  0
  188.8630  173.3880  140.7290 C   0  0  0  0  0  3  0  0  0  0  0  0
  187.8630  175.3530  139.7400 C   0  0  0  0  0  3  0  0  0  0  0  0
  189.2880  171.4770  139.3690 F   0  0  0  0  0  0  0  0  0  0  0  0
  192.4220  175.5200  146.9460 C   0  0  0  0  0  2  0  0  0  0  0  0
  193.4520  174.8670  146.0390 C   0  0  0  0  0  2  0  0  0  0  0  0
  194.5650  177.0940  146.1780 C   0  0  0  0  0  1  0  0  0  0  0  0
  194.7860  175.5920  146.1400 C   0  0  2  0  0  3  0  0  0  0  0  0
  195.7550  175.2000  145.0180 C   0  0  0  0  0  2  0  0  0  0  0  0
  196.5880  177.0160  143.5160 O   0  0  0  0  0  1  0  0  0  0  0  0
  195.6230  176.0580  143.8000 C   0  0  0  0  0  0  0  0  0  0  0  0
  194.6500  175.8980  143.0180 O   0  0  0  0  0  0  0  0  0  0  0  0
  1  5  1  0  0  0  0
  1  8  2  0  0  0  0
  2 14  1  1  0  0  0
  3  8  1  0  0  0  0
  3 18  2  0  0  0  0
  4 18  1  0  0  0  0
  4 10  1  1  0  0  0
  5 11  1  6  0  0  0
  5  6  1  0  0  0  0
  6 11  1  6  0  0  0
  6  2  1  0  0  0  0
  7  9  2  0  0  0  0
  8  2  1  0  0  0  0
 10 17  2  0  0  0  0
 12  3  1  0  0  0  0
 13  1  1  0  0  0  0
 15  4  1  0  0  0  0
 16 12  2  0  0  0  0
 16 15  1  0  0  0  0
 17  9  1  0  0  0  0
 17 27  1  0  0  0  0
 18  7  1  0  0  0  0
 19 13  2  0  0  0  0
 19 12  1  0  0  0  0
 20 24  1  0  0  0  0
 21 23  1  0  0  0  0
 21 20  2  0  0  0  0
 22 16  1  0  0  0  0
 23 25  2  0  0  0  0
 24 22  2  0  0  0  0
 25 22  1  0  0  0  0
 26 20  1  0  0  0  0
 28 30  1  0  0  0  0
 28 27  1  0  0  0  0
 30 29  1  6  0  0  0
 31 30  1  0  0  0  0
 32 33  1  0  0  0  0
 33 31  1  0  0  0  0
 34 33  2  0  0  0  0
M  END
>  <MODEL>
5

>  <REMARK>
 VINA RESULT:      -8.1      2.978      7.736
  Name = 
  6 active torsions:
  status: ('A' for Active; 'I' for Inactive)
    1  A    between atoms: C_3  and  C_13
    2  A    between atoms: C_3  and  C_29
    3  A    between atoms: C_12  and  C_28
    4  A    between atoms: C_13  and  C_33
    5  A    between atoms: C_20  and  C_22
    6  A    between atoms: C_22  and  C_33
                            x       y       z     vdW  Elec       q    Type
                         _______ _______ _______ _____ _____    ______ ____

>  <TORSDO>
F 6

$$$$
=
 OpenBabel11052418583D

 34 39  0  0  1  0  0  0  0  0999 V2000
  190.7190  172.8680  140.9950 C   0  0  0  0  0  0  0  0  0  0  0  0
  188.5560  173.4520  140.3160 C   0  0  2  0  0  3  0  0  0  0  0  0
  189.8890  174.8880  142.0920 C   0  0  0  0  0  0  0  0  0  0  0  0
  189.1770  176.9100  143.2620 C   0  0  0  0  0  0  0  0  0  0  0  0
  190.4020  171.8480  139.9670 C   0  0  1  0  0  3  0  0  0  0  0  0
  188.9910  172.2160  139.5080 C   0  0  2  0  0  3  0  0  0  0  0  0
  187.8150  176.0760  141.2610 C   0  0  0  0  0  2  0  0  0  0  0  0
  189.7250  173.8020  141.1820 C   0  0  0  0  0  0  0  0  0  0  0  0
  186.7620  177.0270  141.7600 C   0  0  0  0  0  3  0  0  0  0  0  0
  188.2580  177.8420  143.5090 C   0  0  0  0  0  3  0  0  0  0  0  0
  190.1830  172.5080  138.6140 C   0  0  0  0  0  2  0  0  0  0  0  0
  191.0960  174.9130  142.8780 C   0  0  0  0  0  0  0  0  0  0  0  0
  191.8840  172.8880  141.7440 C   0  0  0  0  0  3  0  0  0  0  0  0
  187.3750  173.0400  141.1790 C   0  0  0  0  0  1  0  0  0  0  0  0
  190.3470  176.8800  144.0080 O   0  0  0  0  0  0  0  0  0  0  0  0
  191.3200  175.8970  143.7960 C   0  0  0  0  0  0  0  0  0  0  0  0
  186.9880  177.8780  142.7650 C   0  0  0  0  0  0  0  0  0  0  0  0
  188.9660  175.8800  142.2250 C   0  0  0  0  0  0  0  0  0  0  0  0
  192.0580  173.8990  142.6850 C   0  0  0  0  0  3  0  0  0  0  0  0
  194.9330  176.4840  144.7470 C   0  0  0  0  0  0  0  0  0  0  0  0
  194.9420  176.1320  146.0980 C   0  0  0  0  0  3  0  0  0  0  0  0
  192.5510  176.0060  144.6240 C   0  0  0  0  0  0  0  0  0  0  0  0
  193.7630  175.7050  146.7140 C   0  0  0  0  0  3  0  0  0  0  0  0
  193.7450  176.4140  144.0130 C   0  0  0  0  0  3  0  0  0  0  0  0
  192.5760  175.6360  145.9790 C   0  0  0  0  0  3  0  0  0  0  0  0
  196.0760  176.8910  144.1450 F   0  0  0  0  0  0  0  0  0  0  0  0
  185.9130  178.8140  143.1910 C   0  0  0  0  0  2  0  0  0  0  0  0
  185.9270  178.9710  144.7030 C   0  0  0  0  0  2  0  0  0  0  0  0
  183.9150  178.6660  146.1440 C   0  0  0  0  0  1  0  0  0  0  0  0
  184.9980  177.9550  145.3520 C   0  0  2  0  0  3  0  0  0  0  0  0
  185.7510  176.9420  146.2220 C   0  0  0  0  0  2  0  0  0  0  0  0
  186.5900  178.5130  147.9760 O   0  0  0  0  0  1  0  0  0  0  0  0
  186.8660  177.5550  147.0090 C   0  0  0  0  0  0  0  0  0  0  0  0
  188.0530  177.1880  146.8110 O   0  0  0  0  0  0  0  0  0  0  0  0
  1  8  2  0  0  0  0
  1 13  1  0  0  0  0
  2 14  1  1  0  0  0
  2  8  1  0  0  0  0
  3 18  2  0  0  0  0
  3 12  1  0  0  0  0
  4 10  2  0  0  0  0
  4 15  1  0  0  0  0
  5 11  1  6  0  0  0
  5  1  1  0  0  0  0
  6 11  1  6  0  0  0
  6  5  1  0  0  0  0
  6  2  1  0  0  0  0
  7  9  1  0  0  0  0
  7 18  1  0  0  0  0
  8  3  1  0  0  0  0
  9 17  2  0  0  0  0
 12 16  2  0  0  0  0
 13 19  2  0  0  0  0
 16 15  1  0  0  0  0
 16 22  1  0  0  0  0
 17 27  1  0  0  0  0
 17 10  1  0  0  0  0
 18  4  1  0  0  0  0
 19 12  1  0  0  0  0
 20 21  1  0  0  0  0
 21 23  2  0  0  0  0
 22 25  2  0  0  0  0
 24 22  1  0  0  0  0
 24 20  2  0  0  0  0
 25 23  1  0  0  0  0
 26 20  1  0  0  0  0
 27 28  1  0  0  0  0
 28 30  1  0  0  0  0
 30 29  1  1  0  0  0
 30 31  1  0  0  0  0
 31 33  1  0  0  0  0
 33 32  1  0  0  0  0
 34 33  2  0  0  0  0
M  END
>  <MODEL>
6

>  <REMARK>
 VINA RESULT:      -7.9      3.310      7.607
  Name = 
  6 active torsions:
  status: ('A' for Active; 'I' for Inactive)
    1  A    between atoms: C_3  and  C_13
    2  A    between atoms: C_3  and  C_29
    3  A    between atoms: C_12  and  C_28
    4  A    between atoms: C_13  and  C_33
    5  A    between atoms: C_20  and  C_22
    6  A    between atoms: C_22  and  C_33
                            x       y       z     vdW  Elec       q    Type
                         _______ _______ _______ _____ _____    ______ ____

>  <TORSDO>
F 6

$$$$
=
 OpenBabel11052418583D

 34 39  0  0  1  0  0  0  0  0999 V2000
  190.8490  173.2480  140.3210 C   0  0  0  0  0  0  0  0  0  0  0  0
  188.6120  173.7640  140.7780 C   0  0  2  0  0  3  0  0  0  0  0  0
  190.5780  174.6040  142.3360 C   0  0  0  0  0  0  0  0  0  0  0  0
  190.4430  175.9510  144.3690 C   0  0  0  0  0  0  0  0  0  0  0  0
  190.1230  172.6450  139.1780 C   0  0  1  0  0  3  0  0  0  0  0  0
  188.6570  172.9750  139.4570 C   0  0  2  0  0  3  0  0  0  0  0  0
  188.3810  175.7440  142.8650 C   0  0  0  0  0  2  0  0  0  0  0  0
  190.0370  173.9160  141.2090 C   0  0  0  0  0  0  0  0  0  0  0  0
  187.6380  176.3070  144.0460 C   0  0  0  0  0  3  0  0  0  0  0  0
  189.7230  176.6050  145.2790 C   0  0  0  0  0  3  0  0  0  0  0  0
  189.4130  173.7220  138.3720 C   0  0  0  0  0  2  0  0  0  0  0  0
  191.9960  174.4900  142.5590 C   0  0  0  0  0  0  0  0  0  0  0  0
  192.2140  173.1370  140.5270 C   0  0  0  0  0  3  0  0  0  0  0  0
  187.8510  172.9210  141.7880 C   0  0  0  0  0  1  0  0  0  0  0  0
  191.8100  175.7960  144.5510 O   0  0  0  0  0  0  0  0  0  0  0  0
  192.5920  175.0890  143.6300 C   0  0  0  0  0  0  0  0  0  0  0  0
  188.2660  176.7520  145.1380 C   0  0  0  0  0  0  0  0  0  0  0  0
  189.8110  175.3550  143.1740 C   0  0  0  0  0  0  0  0  0  0  0  0
  192.7740  173.7470  141.6460 C   0  0  0  0  0  3  0  0  0  0  0  0
  196.2450  176.0660  143.6800 C   0  0  0  0  0  0  0  0  0  0  0  0
  196.8330  174.9690  144.3150 C   0  0  0  0  0  3  0  0  0  0  0  0
  194.0510  175.0400  143.9130 C   0  0  0  0  0  0  0  0  0  0  0  0
  196.0390  173.9010  144.7390 C   0  0  0  0  0  3  0  0  0  0  0  0
  194.8630  176.0960  143.4750 C   0  0  0  0  0  3  0  0  0  0  0  0
  194.6570  173.9340  144.5330 C   0  0  0  0  0  3  0  0  0  0  0  0
  197.0150  177.0980  143.2600 F   0  0  0  0  0  0  0  0  0  0  0  0
  187.4730  177.3240  146.2590 C   0  0  0  0  0  2  0  0  0  0  0  0
  185.9870  177.1470  145.9920 C   0  0  0  0  0  2  0  0  0  0  0  0
  184.6370  178.6700  147.4310 C   0  0  0  0  0  1  0  0  0  0  0  0
  185.2690  178.4860  146.0630 C   0  0  2  0  0  3  0  0  0  0  0  0
  184.2360  178.6600  144.9440 C   0  0  0  0  0  2  0  0  0  0  0  0
  184.3440  177.8220  142.5910 O   0  0  0  0  0  0  0  0  0  0  0  0
  184.8440  178.6630  143.5770 C   0  0  0  0  0  0  0  0  0  0  0  0
  185.7950  179.4440  143.3120 O   0  0  0  0  0  1  0  0  0  0  0  0
  1 13  1  0  0  0  0
  1  8  2  0  0  0  0
  2  8  1  0  0  0  0
  2 14  1  1  0  0  0
  3 12  1  0  0  0  0
  3 18  2  0  0  0  0
  4 15  1  0  0  0  0
  4 10  2  0  0  0  0
  5 11  1  6  0  0  0
  5  6  1  0  0  0  0
  5  1  1  0  0  0  0
  6 11  1  6  0  0  0
  6  2  1  0  0  0  0
  7 18  1  0  0  0  0
  7  9  1  0  0  0  0
  8  3  1  0  0  0  0
  9 17  2  0  0  0  0
 12 16  2  0  0  0  0
 13 19  2  0  0  0  0
 16 22  1  0  0  0  0
 16 15  1  0  0  0  0
 17 10  1  0  0  0  0
 17 27  1  0  0  0  0
 18  4  1  0  0  0  0
 19 12  1  0  0  0  0
 20 21  1  0  0  0  0
 21 23  2  0  0  0  0
 22 25  2  0  0  0  0
 24 20  2  0  0  0  0
 24 22  1  0  0  0  0
 25 23  1  0  0  0  0
 26 20  1  0  0  0  0
 28 30  1  0  0  0  0
 28 27  1  0  0  0  0
 30 29  1  1  0  0  0
 31 30  1  0  0  0  0
 32 33  2  0  0  0  0
 33 31  1  0  0  0  0
 34 33  1  0  0  0  0
M  END
>  <MODEL>
7

>  <REMARK>
 VINA RESULT:      -7.9      3.203      7.853
  Name = 
  6 active torsions:
  status: ('A' for Active; 'I' for Inactive)
    1  A    between atoms: C_3  and  C_13
    2  A    between atoms: C_3  and  C_29
    3  A    between atoms: C_12  and  C_28
    4  A    between atoms: C_13  and  C_33
    5  A    between atoms: C_20  and  C_22
    6  A    between atoms: C_22  and  C_33
                            x       y       z     vdW  Elec       q    Type
                         _______ _______ _______ _____ _____    ______ ____

>  <TORSDO>
F 6

$$$$
=
 OpenBabel11052418583D

 34 39  0  0  1  0  0  0  0  0999 V2000
  186.4230  176.7410  144.1860 C   0  0  0  0  0  0  0  0  0  0  0  0
  187.6680  177.2940  146.0900 C   0  0  2  0  0  3  0  0  0  0  0  0
  188.7460  175.9920  144.0560 C   0  0  0  0  0  0  0  0  0  0  0  0
  191.0380  175.1860  143.8040 C   0  0  1  0  0  3  0  0  0  0  0  0
  185.4570  177.5040  145.0110 C   0  0  1  0  0  3  0  0  0  0  0  0
  186.2530  177.8780  146.2600 C   0  0  2  0  0  3  0  0  0  0  0  0
  190.4870  176.8250  145.6930 C   0  0  0  0  0  3  0  0  0  0  0  0
  187.6780  176.6430  144.7420 C   0  0  0  0  0  0  0  0  0  0  0  0
  191.8270  176.4200  146.2440 C   0  0  0  0  0  3  0  0  0  0  0  0
  192.2720  175.0380  144.2820 C   0  0  0  0  0  3  0  0  0  0  0  0
  185.9410  178.9310  145.2130 C   0  0  0  0  0  2  0  0  0  0  0  0
  188.4330  175.3590  142.8010 C   0  0  0  0  0  0  0  0  0  0  0  0
  186.1160  176.1370  142.9780 C   0  0  0  0  0  3  0  0  0  0  0  0
  187.8630  176.2470  147.1740 C   0  0  0  0  0  1  0  0  0  0  0  0
  190.6820  174.5760  142.6090 O   0  0  0  0  0  0  0  0  0  0  0  0
  189.3860  174.6860  142.0930 C   0  0  0  0  0  0  0  0  0  0  0  0
  192.6710  175.6370  145.5660 C   0  0  0  0  0  0  0  0  0  0  0  0
  190.0200  175.9670  144.5360 C   0  0  0  0  0  0  0  0  0  0  0  0
  187.1160  175.4430  142.3020 C   0  0  0  0  0  3  0  0  0  0  0  0
  188.1540  174.1300  138.5610 C   0  0  0  0  0  0  0  0  0  0  0  0
  188.5620  172.8180  138.3110 C   0  0  0  0  0  3  0  0  0  0  0  0
  189.1470  174.0300  140.7800 C   0  0  0  0  0  0  0  0  0  0  0  0
  189.2510  172.1040  139.2950 C   0  0  0  0  0  3  0  0  0  0  0  0
  188.4400  174.7300  139.7910 C   0  0  0  0  0  3  0  0  0  0  0  0
  189.5350  172.7040  140.5240 C   0  0  0  0  0  3  0  0  0  0  0  0
  187.4790  174.8220  137.6120 F   0  0  0  0  0  0  0  0  0  0  0  0
  193.9940  175.2980  146.1560 C   0  0  0  0  0  2  0  0  0  0  0  0
  194.4570  173.9400  145.6530 C   0  0  0  0  0  2  0  0  0  0  0  0
  196.8990  173.6690  146.0760 C   0  0  0  0  0  1  0  0  0  0  0  0
  195.8480  174.0420  145.0460 C   0  0  2  0  0  3  0  0  0  0  0  0
  196.1260  175.4230  144.4420 C   0  0  0  0  0  2  0  0  0  0  0  0
  195.7390  174.2860  142.2500 O   0  0  0  0  0  0  0  0  0  0  0  0
  195.9490  175.4630  142.9570 C   0  0  0  0  0  0  0  0  0  0  0  0
  195.9670  176.5650  142.3490 O   0  0  0  0  0  1  0  0  0  0  0  0
  1  8  2  0  0  0  0
  1  5  1  0  0  0  0
  2  6  1  0  0  0  0
  2 14  1  1  0  0  0
  3 18  2  0  0  0  0
  3  8  1  0  0  0  0
  4 10  1  1  0  0  0
  4 18  1  0  0  0  0
  5 11  1  6  0  0  0
  5  6  1  0  0  0  0
  6 11  1  6  0  0  0
  7  9  2  0  0  0  0
  8  2  1  0  0  0  0
 10 17  2  0  0  0  0
 12  3  1  0  0  0  0
 13  1  1  0  0  0  0
 15  4  1  0  0  0  0
 16 15  1  0  0  0  0
 16 12  2  0  0  0  0
 17 27  1  0  0  0  0
 17  9  1  0  0  0  0
 18  7  1  0  0  0  0
 19 12  1  0  0  0  0
 19 13  2  0  0  0  0
 20 24  1  0  0  0  0
 21 20  2  0  0  0  0
 21 23  1  0  0  0  0
 22 16  1  0  0  0  0
 23 25  2  0  0  0  0
 24 22  2  0  0  0  0
 25 22  1  0  0  0  0
 26 20  1  0  0  0  0
 28 27  1  0  0  0  0
 30 28  1  0  0  0  0
 30 29  1  1  0  0  0
 31 30  1  0  0  0  0
 32 33  2  0  0  0  0
 33 31  1  0  0  0  0
 34 33  1  0  0  0  0
M  END
>  <MODEL>
8

>  <REMARK>
 VINA RESULT:      -7.9      2.984      7.387
  Name = 
  6 active torsions:
  status: ('A' for Active; 'I' for Inactive)
    1  A    between atoms: C_3  and  C_13
    2  A    between atoms: C_3  and  C_29
    3  A    between atoms: C_12  and  C_28
    4  A    between atoms: C_13  and  C_33
    5  A    between atoms: C_20  and  C_22
    6  A    between atoms: C_22  and  C_33
                            x       y       z     vdW  Elec       q    Type
                         _______ _______ _______ _____ _____    ______ ____

>  <TORSDO>
F 6

$$$$
=
 OpenBabel11052418583D

 34 39  0  0  1  0  0  0  0  0999 V2000
  185.6630  177.2790  145.1230 C   0  0  0  0  0  0  0  0  0  0  0  0
  187.2180  177.2550  146.8730 C   0  0  2  0  0  3  0  0  0  0  0  0
  187.9350  176.7800  144.3720 C   0  0  0  0  0  0  0  0  0  0  0  0
  190.1550  176.2650  143.4930 C   0  0  1  0  0  3  0  0  0  0  0  0
  184.8490  177.6560  146.3030 C   0  0  1  0  0  3  0  0  0  0  0  0
  185.8490  177.6490  147.4580 C   0  0  2  0  0  3  0  0  0  0  0  0
  189.9280  177.1420  145.8880 C   0  0  0  0  0  3  0  0  0  0  0  0
  186.9980  177.0900  145.4020 C   0  0  0  0  0  0  0  0  0  0  0  0
  191.3490  176.6720  146.0440 C   0  0  0  0  0  3  0  0  0  0  0  0
  191.4560  176.0530  143.6860 C   0  0  0  0  0  3  0  0  0  0  0  0
  185.3450  178.9660  146.8940 C   0  0  0  0  0  2  0  0  0  0  0  0
  187.4120  176.5780  143.0440 C   0  0  0  0  0  0  0  0  0  0  0  0
  185.1540  177.0900  143.8480 C   0  0  0  0  0  3  0  0  0  0  0  0
  187.6130  175.9240  147.4910 C   0  0  0  0  0  1  0  0  0  0  0  0
  189.6010  176.0620  142.2370 O   0  0  0  0  0  0  0  0  0  0  0  0
  188.2330  176.2470  142.0060 C   0  0  0  0  0  0  0  0  0  0  0  0
  192.0680  176.2190  145.0140 C   0  0  0  0  0  0  0  0  0  0  0  0
  189.2740  176.6860  144.6010 C   0  0  0  0  0  0  0  0  0  0  0  0
  186.0270  176.7310  142.8250 C   0  0  0  0  0  3  0  0  0  0  0  0
  187.7970  174.6880  138.5880 C   0  0  0  0  0  0  0  0  0  0  0  0
  187.0360  175.6500  137.9220 C   0  0  0  0  0  3  0  0  0  0  0  0
  187.7730  176.0480  140.6060 C   0  0  0  0  0  0  0  0  0  0  0  0
  186.6520  176.8170  138.5860 C   0  0  0  0  0  3  0  0  0  0  0  0
  188.1690  174.8900  139.9210 C   0  0  0  0  0  3  0  0  0  0  0  0
  187.0240  177.0180  139.9180 C   0  0  0  0  0  3  0  0  0  0  0  0
  188.1780  173.5600  137.9430 F   0  0  0  0  0  0  0  0  0  0  0  0
  193.4780  175.7970  145.2310 C   0  0  0  0  0  2  0  0  0  0  0  0
  193.5170  174.4270  145.8900 C   0  0  0  0  0  2  0  0  0  0  0  0
  194.4260  172.1210  145.6210 C   0  0  0  0  0  1  0  0  0  0  0  0
  194.6510  173.5920  145.3160 C   0  0  2  0  0  3  0  0  0  0  0  0
  196.0290  174.0570  145.8010 C   0  0  0  0  0  2  0  0  0  0  0  0
  197.9410  173.3870  144.3370 O   0  0  0  0  0  1  0  0  0  0  0  0
  196.9850  174.3320  144.6840 C   0  0  0  0  0  0  0  0  0  0  0  0
  196.9080  175.4120  144.0410 O   0  0  0  0  0  0  0  0  0  0  0  0
  1  8  2  0  0  0  0
  1  5  1  0  0  0  0
  2  6  1  0  0  0  0
  2 14  1  1  0  0  0
  3 18  2  0  0  0  0
  3  8  1  0  0  0  0
  4 10  1  1  0  0  0
  4 18  1  0  0  0  0
  5 11  1  6  0  0  0
  5  6  1  0  0  0  0
  6 11  1  6  0  0  0
  7  9  2  0  0  0  0
  8  2  1  0  0  0  0
 10 17  2  0  0  0  0
 12  3  1  0  0  0  0
 13  1  1  0  0  0  0
 15  4  1  0  0  0  0
 16 15  1  0  0  0  0
 16 12  2  0  0  0  0
 17 27  1  0  0  0  0
 17  9  1  0  0  0  0
 18  7  1  0  0  0  0
 19 12  1  0  0  0  0
 19 13  2  0  0  0  0
 20 24  1  0  0  0  0
 21 23  1  0  0  0  0
 21 20  2  0  0  0  0
 22 16  1  0  0  0  0
 23 25  2  0  0  0  0
 24 22  2  0  0  0  0
 25 22  1  0  0  0  0
 26 20  1  0  0  0  0
 27 28  1  0  0  0  0
 30 29  1  1  0  0  0
 30 31  1  0  0  0  0
 30 28  1  0  0  0  0
 32 33  1  0  0  0  0
 33 31  1  0  0  0  0
 34 33  2  0  0  0  0
M  END
>  <MODEL>
9

>  <REMARK>
 VINA RESULT:      -7.7      3.333      7.501
  Name = 
  6 active torsions:
  status: ('A' for Active; 'I' for Inactive)
    1  A    between atoms: C_3  and  C_13
    2  A    between atoms: C_3  and  C_29
    3  A    between atoms: C_12  and  C_28
    4  A    between atoms: C_13  and  C_33
    5  A    between atoms: C_20  and  C_22
    6  A    between atoms: C_22  and  C_33
                            x       y       z     vdW  Elec       q    Type
                         _______ _______ _______ _____ _____    ______ ____

>  <TORSDO>
F 6

$$$$
