=
 OpenBabel11052420383D

 34 39  0  0  1  0  0  0  0  0999 V2000
  190.5440  173.3660  144.6790 N   0  0  0  0  0  0  0  0  0  0  0  0
  191.9840  175.0700  145.8400 C   0  0  0  0  0  0  0  0  0  0  0  0
  193.3400  173.6370  144.1980 C   0  0  0  0  0  2  0  0  0  0  0  0
  189.6630  172.3630  144.9160 O   0  0  0  0  0  1  0  0  0  0  0  0
  190.0830  173.6730  142.2610 C   0  0  0  0  0  0  0  0  0  0  0  0
  191.9260  173.9850  140.7140 C   0  0  0  0  0  3  0  0  0  0  0  0
  190.5560  173.8760  140.9600 C   0  0  0  0  0  3  0  0  0  0  0  0
  192.3710  173.7000  143.0750 C   0  0  0  0  0  0  0  0  0  0  0  0
  190.9990  173.5750  143.3330 C   0  0  0  0  0  0  0  0  0  0  0  0
  192.8320  173.9020  141.7720 C   0  0  0  0  0  3  0  0  0  0  0  0
  192.0840  176.0740  146.8110 C   0  0  0  0  0  3  0  0  0  0  0  0
  191.0130  176.3610  147.6580 C   0  0  0  0  0  0  0  0  0  0  0  0
  189.8270  175.6380  147.5490 C   0  0  0  0  0  3  0  0  0  0  0  0
  193.1590  174.7910  145.0640 N   0  0  0  0  0  2  0  0  0  0  0  0
  189.7060  174.6440  146.5770 C   0  0  0  0  0  3  0  0  0  0  0  0
  190.7640  174.3530  145.7040 C   0  0  0  0  0  0  0  0  0  0  0  0
  191.1390  177.4090  148.6640 C   0  0  0  0  0  0  0  0  0  0  0  0
  190.7850  178.6350  149.1310 O   0  0  0  0  0  0  0  0  0  0  0  0
  191.6820  177.8630  149.7910 N   0  0  0  0  0  0  0  0  0  0  0  0
  188.6000  173.6390  142.4750 C   0  0  0  0  0  2  0  0  0  0  0  0
  187.9660  175.0110  142.2550 C   0  0  0  0  0  2  0  0  0  0  0  0
  188.5120  177.2390  142.5250 N   0  0  0  0  0  0  0  0  0  0  0  0
  187.5500  176.0850  144.3040 C   0  0  0  0  0  2  0  0  0  0  0  0
  185.2940  179.0060  143.4560 C   0  0  2  0  0  3  0  0  0  0  0  0
  185.0600  178.0210  144.5180 N   0  0  0  0  0  0  0  0  0  0  0  0
  186.4020  178.5160  142.5300 C   0  0  1  0  0  3  0  0  0  0  0  0
  184.0210  178.4650  145.2660 O   0  0  0  0  0  1  0  0  0  0  0  0
  187.7040  178.1860  143.2980 C   0  0  1  0  0  3  0  0  0  0  0  0
  185.6140  180.2640  143.9830 O   0  0  0  0  0  1  0  0  0  0  0  0
  186.2220  177.9530  145.3990 C   0  0  0  0  0  2  0  0  0  0  0  0
  187.4890  177.5340  144.6470 C   0  0  1  0  0  3  0  0  0  0  0  0
  185.9380  177.4140  141.8070 O   0  0  0  0  0  1  0  0  0  0  0  0
  188.4960  175.9910  143.1940 N   0  0  0  0  0  0  0  0  0  0  0  0
  189.8850  177.7210  142.5520 C   0  0  0  0  0  1  0  0  0  0  0  0
  1  4  1  0  0  0  0
  1 16  1  0  0  0  0
  2 11  1  0  0  0  0
  3 14  1  0  0  0  0
  5 20  1  0  0  0  0
  5  9  1  0  0  0  0
  6  7  1  0  0  0  0
  6 10  2  0  0  0  0
  7  5  2  0  0  0  0
  8  9  2  0  0  0  0
  8  3  1  0  0  0  0
  9  1  1  0  0  0  0
 10  8  1  0  0  0  0
 11 12  2  0  0  0  0
 12 17  1  0  0  0  0
 13 12  1  0  0  0  0
 14  2  1  0  0  0  0
 15 13  2  0  0  0  0
 16  2  2  0  0  0  0
 16 15  1  0  0  0  0
 17 18  1  0  0  0  0
 17 19  2  0  0  0  0
 18 19  1  0  0  0  0
 21 20  1  0  0  0  0
 21 33  1  0  0  0  0
 22 34  1  0  0  0  0
 22 33  1  0  0  0  0
 24 29  1  1  0  0  0
 24 25  1  0  0  0  0
 25 27  1  0  0  0  0
 25 30  1  0  0  0  0
 26 32  1  1  0  0  0
 26 28  1  0  0  0  0
 26 24  1  0  0  0  0
 28 22  1  6  0  0  0
 28 31  1  0  0  0  0
 31 23  1  6  0  0  0
 31 30  1  0  0  0  0
 33 23  1  0  0  0  0
M  END
>  <MODEL>
1

>  <REMARK>
 VINA RESULT:      -8.1      0.000      0.000
  Name = 
  4 active torsions:
  status: ('A' for Active; 'I' for Inactive)
    1  A    between atoms: C_3  and  C_25
    2  A    between atoms: C_8  and  C_10
    3  A    between atoms: C_8  and  C_18
    4  A    between atoms: C_18  and  N_30
                            x       y       z     vdW  Elec       q    Type
                         _______ _______ _______ _____ _____    ______ ____

>  <TORSDO>
F 4

$$$$
=
 OpenBabel11052420383D

 34 39  0  0  1  0  0  0  0  0999 V2000
  190.6880  177.7650  144.7200 N   0  0  0  0  0  0  0  0  0  0  0  0
  191.9760  176.2980  146.3070 C   0  0  0  0  0  0  0  0  0  0  0  0
  190.0670  177.5410  147.4910 C   0  0  0  0  0  2  0  0  0  0  0  0
  190.8430  178.7540  143.8060 O   0  0  0  0  0  1  0  0  0  0  0  0
  188.3700  177.1040  144.1320 C   0  0  0  0  0  0  0  0  0  0  0  0
  186.7640  176.6530  145.8930 C   0  0  0  0  0  3  0  0  0  0  0  0
  187.0810  176.7400  144.5360 C   0  0  0  0  0  3  0  0  0  0  0  0
  189.0290  177.2830  146.4630 C   0  0  0  0  0  0  0  0  0  0  0  0
  189.3570  177.3880  145.1040 C   0  0  0  0  0  0  0  0  0  0  0  0
  187.7390  176.9200  146.8550 C   0  0  0  0  0  3  0  0  0  0  0  0
  193.0660  175.4460  146.5130 C   0  0  0  0  0  3  0  0  0  0  0  0
  194.0130  175.2370  145.5100 C   0  0  0  0  0  0  0  0  0  0  0  0
  193.8830  175.8890  144.2850 C   0  0  0  0  0  3  0  0  0  0  0  0
  191.0940  176.5130  147.4190 N   0  0  0  0  0  2  0  0  0  0  0  0
  192.7950  176.7320  144.0580 C   0  0  0  0  0  3  0  0  0  0  0  0
  191.8220  176.9400  145.0480 C   0  0  0  0  0  0  0  0  0  0  0  0
  195.1420  174.3460  145.7460 C   0  0  0  0  0  0  0  0  0  0  0  0
  196.4300  174.1620  146.1380 O   0  0  0  0  0  0  0  0  0  0  0  0
  195.6640  173.1210  145.7340 N   0  0  0  0  0  0  0  0  0  0  0  0
  188.6750  177.1080  142.6640 C   0  0  0  0  0  2  0  0  0  0  0  0
  188.8510  175.6920  142.1200 C   0  0  0  0  0  2  0  0  0  0  0  0
  189.5040  173.7710  143.2250 N   0  0  0  0  0  0  0  0  0  0  0  0
  190.9750  174.7680  141.7210 C   0  0  0  0  0  2  0  0  0  0  0  0
  190.3150  171.2320  140.5340 C   0  0  2  0  0  3  0  0  0  0  0  0
  191.1880  172.2100  139.8740 N   0  0  0  0  0  0  0  0  0  0  0  0
  189.4580  171.9290  141.5840 C   0  0  1  0  0  3  0  0  0  0  0  0
  191.8720  171.5580  138.9030 O   0  0  0  0  0  1  0  0  0  0  0  0
  190.3110  172.7140  142.6100 C   0  0  1  0  0  3  0  0  0  0  0  0
  191.0530  170.1910  141.1120 O   0  0  0  0  0  1  0  0  0  0  0  0
  192.1750  172.7160  140.8240 C   0  0  0  0  0  2  0  0  0  0  0  0
  191.5170  173.4120  142.0190 C   0  0  1  0  0  3  0  0  0  0  0  0
  188.5340  172.7590  140.9430 O   0  0  0  0  0  1  0  0  0  0  0  0
  189.9770  175.0210  142.7580 N   0  0  0  0  0  0  0  0  0  0  0  0
  189.7540  173.7270  144.6570 C   0  0  0  0  0  1  0  0  0  0  0  0
  1 16  1  0  0  0  0
  1  9  1  0  0  0  0
  2 11  1  0  0  0  0
  2 14  1  0  0  0  0
  4  1  1  0  0  0  0
  5  7  2  0  0  0  0
  5  9  1  0  0  0  0
  6 10  2  0  0  0  0
  7  6  1  0  0  0  0
  8 10  1  0  0  0  0
  8  3  1  0  0  0  0
  9  8  2  0  0  0  0
 12 17  1  0  0  0  0
 12 11  2  0  0  0  0
 13 12  1  0  0  0  0
 14  3  1  0  0  0  0
 15 13  2  0  0  0  0
 15 16  1  0  0  0  0
 16  2  2  0  0  0  0
 17 18  1  0  0  0  0
 19 17  2  0  0  0  0
 19 18  1  0  0  0  0
 20  5  1  0  0  0  0
 21 20  1  0  0  0  0
 21 33  1  0  0  0  0
 22 34  1  0  0  0  0
 23 31  1  0  0  0  0
 23 33  1  0  0  0  0
 24 29  1  1  0  0  0
 24 26  1  0  0  0  0
 25 24  1  0  0  0  0
 25 30  1  0  0  0  0
 26 32  1  6  0  0  0
 26 28  1  0  0  0  0
 27 25  1  0  0  0  0
 28 22  1  6  0  0  0
 31 30  1  6  0  0  0
 31 28  1  0  0  0  0
 33 22  1  0  0  0  0
M  END
>  <MODEL>
2

>  <REMARK>
 VINA RESULT:      -7.7      2.914      6.313
  Name = 
  4 active torsions:
  status: ('A' for Active; 'I' for Inactive)
    1  A    between atoms: C_3  and  C_25
    2  A    between atoms: C_8  and  C_10
    3  A    between atoms: C_8  and  C_18
    4  A    between atoms: C_18  and  N_30
                            x       y       z     vdW  Elec       q    Type
                         _______ _______ _______ _____ _____    ______ ____

>  <TORSDO>
F 4

$$$$
=
 OpenBabel11052420383D

 34 39  0  0  1  0  0  0  0  0999 V2000
  189.9080  174.9530  144.5740 N   0  0  0  0  0  0  0  0  0  0  0  0
  187.7790  176.1200  145.2340 C   0  0  0  0  0  0  0  0  0  0  0  0
  188.9520  175.0590  147.2560 C   0  0  0  0  0  2  0  0  0  0  0  0
  190.4030  174.0190  143.7250 O   0  0  0  0  0  1  0  0  0  0  0  0
  192.0630  175.9550  145.2870 C   0  0  0  0  0  0  0  0  0  0  0  0
  192.4270  176.4880  147.6260 C   0  0  0  0  0  3  0  0  0  0  0  0
  192.8810  176.4560  146.3060 C   0  0  0  0  0  3  0  0  0  0  0  0
  190.3220  175.5250  146.9250 C   0  0  0  0  0  0  0  0  0  0  0  0
  190.7700  175.4740  145.5980 C   0  0  0  0  0  0  0  0  0  0  0  0
  191.1470  176.0270  147.9340 C   0  0  0  0  0  3  0  0  0  0  0  0
  186.6280  176.8040  144.8280 C   0  0  0  0  0  3  0  0  0  0  0  0
  186.3240  176.9570  143.4750 C   0  0  0  0  0  0  0  0  0  0  0  0
  187.1690  176.4160  142.5080 C   0  0  0  0  0  3  0  0  0  0  0  0
  187.9730  175.9450  146.6450 N   0  0  0  0  0  2  0  0  0  0  0  0
  188.3280  175.7430  142.8950 C   0  0  0  0  0  3  0  0  0  0  0  0
  188.6610  175.5960  144.2500 C   0  0  0  0  0  0  0  0  0  0  0  0
  185.1190  177.6720  143.0730 C   0  0  0  0  0  0  0  0  0  0  0  0
  184.1160  177.8710  142.1790 O   0  0  0  0  0  0  0  0  0  0  0  0
  184.2000  178.6040  143.3150 N   0  0  0  0  0  0  0  0  0  0  0  0
  192.5730  176.0150  143.8790 C   0  0  0  0  0  2  0  0  0  0  0  0
  194.0700  176.3110  143.8330 C   0  0  0  0  0  2  0  0  0  0  0  0
  196.1200  175.3420  143.3920 N   0  0  0  0  0  0  0  0  0  0  0  0
  194.1950  174.0410  143.2370 C   0  0  0  0  0  2  0  0  0  0  0  0
  196.4670  172.4580  145.8210 C   0  0  2  0  0  3  0  0  0  0  0  0
  195.1490  171.9570  145.4150 N   0  0  0  0  0  0  0  0  0  0  0  0
  196.6650  173.8770  145.2990 C   0  0  1  0  0  3  0  0  0  0  0  0
  194.9920  170.7290  145.9640 O   0  0  0  0  0  1  0  0  0  0  0  0
  196.4680  173.9700  143.7670 C   0  0  1  0  0  3  0  0  0  0  0  0
  197.4960  171.6200  145.3730 O   0  0  0  0  0  1  0  0  0  0  0  0
  195.1080  171.7850  143.9660 C   0  0  0  0  0  2  0  0  0  0  0  0
  195.3530  173.1020  143.2240 C   0  0  1  0  0  3  0  0  0  0  0  0
  195.8020  174.7390  145.9810 O   0  0  0  0  0  1  0  0  0  0  0  0
  194.7670  175.3610  142.9760 N   0  0  0  0  0  0  0  0  0  0  0  0
  196.9280  175.6910  142.2330 C   0  0  0  0  0  1  0  0  0  0  0  0
  1  9  1  0  0  0  0
  2 14  1  0  0  0  0
  4  1  1  0  0  0  0
  5  9  2  0  0  0  0
  5  7  1  0  0  0  0
  6 10  1  0  0  0  0
  7  6  2  0  0  0  0
  8  3  1  0  0  0  0
  8 10  2  0  0  0  0
  9  8  1  0  0  0  0
 11  2  1  0  0  0  0
 12 11  2  0  0  0  0
 13 15  2  0  0  0  0
 13 12  1  0  0  0  0
 14  3  1  0  0  0  0
 15 16  1  0  0  0  0
 16  1  1  0  0  0  0
 16  2  2  0  0  0  0
 17 19  2  0  0  0  0
 17 12  1  0  0  0  0
 18 17  1  0  0  0  0
 18 19  1  0  0  0  0
 20  5  1  0  0  0  0
 21 20  1  0  0  0  0
 24 29  1  6  0  0  0
 25 24  1  0  0  0  0
 25 27  1  0  0  0  0
 26 24  1  0  0  0  0
 26 32  1  1  0  0  0
 28 22  1  1  0  0  0
 28 26  1  0  0  0  0
 30 25  1  0  0  0  0
 31 23  1  1  0  0  0
 31 28  1  0  0  0  0
 31 30  1  0  0  0  0
 33 23  1  0  0  0  0
 33 22  1  0  0  0  0
 33 21  1  0  0  0  0
 34 22  1  0  0  0  0
M  END
>  <MODEL>
3

>  <REMARK>
 VINA RESULT:      -7.5      2.960      8.052
  Name = 
  4 active torsions:
  status: ('A' for Active; 'I' for Inactive)
    1  A    between atoms: C_3  and  C_25
    2  A    between atoms: C_8  and  C_10
    3  A    between atoms: C_8  and  C_18
    4  A    between atoms: C_18  and  N_30
                            x       y       z     vdW  Elec       q    Type
                         _______ _______ _______ _____ _____    ______ ____

>  <TORSDO>
F 4

$$$$
=
 OpenBabel11052420383D

 34 39  0  0  1  0  0  0  0  0999 V2000
  189.6730  176.1570  143.0960 N   0  0  0  0  0  0  0  0  0  0  0  0
  187.2210  176.6510  143.3660 C   0  0  0  0  0  0  0  0  0  0  0  0
  187.8160  176.0780  140.9360 C   0  0  0  0  0  2  0  0  0  0  0  0
  190.9060  176.6680  143.3380 O   0  0  0  0  0  1  0  0  0  0  0  0
  190.3510  173.8190  142.6180 C   0  0  0  0  0  0  0  0  0  0  0  0
  189.3390  172.6270  140.7630 C   0  0  0  0  0  3  0  0  0  0  0  0
  190.2300  172.6640  141.8380 C   0  0  0  0  0  3  0  0  0  0  0  0
  188.6700  174.9020  141.2410 C   0  0  0  0  0  0  0  0  0  0  0  0
  189.5700  174.9570  142.3140 C   0  0  0  0  0  0  0  0  0  0  0  0
  188.5570  173.7440  140.4680 C   0  0  0  0  0  3  0  0  0  0  0  0
  186.1830  177.0700  144.2060 C   0  0  0  0  0  3  0  0  0  0  0  0
  186.4420  177.5070  145.5050 C   0  0  0  0  0  0  0  0  0  0  0  0
  187.7520  177.5380  145.9790 C   0  0  0  0  0  3  0  0  0  0  0  0
  186.8720  176.2900  142.0220 N   0  0  0  0  0  2  0  0  0  0  0  0
  188.7980  177.1110  145.1610 C   0  0  0  0  0  3  0  0  0  0  0  0
  188.5550  176.6500  143.8590 C   0  0  0  0  0  0  0  0  0  0  0  0
  185.3450  177.9410  146.3620 C   0  0  0  0  0  0  0  0  0  0  0  0
  184.8840  178.2920  147.5910 O   0  0  0  0  0  0  0  0  0  0  0  0
  184.0670  178.2810  146.5110 N   0  0  0  0  0  0  0  0  0  0  0  0
  191.2660  173.7750  143.8040 C   0  0  0  0  0  2  0  0  0  0  0  0
  191.9730  172.4260  143.9240 C   0  0  0  0  0  2  0  0  0  0  0  0
  194.1620  171.9500  144.4860 N   0  0  0  0  0  0  0  0  0  0  0  0
  193.1400  173.8300  145.4040 C   0  0  0  0  0  2  0  0  0  0  0  0
  196.1930  174.9850  143.4830 C   0  0  2  0  0  3  0  0  0  0  0  0
  195.2620  175.8500  144.2170 N   0  0  0  0  0  0  0  0  0  0  0  0
  195.5920  173.5930  143.3280 C   0  0  1  0  0  3  0  0  0  0  0  0
  195.8060  177.0900  144.2620 O   0  0  0  0  0  1  0  0  0  0  0  0
  195.1900  172.9730  144.6890 C   0  0  1  0  0  3  0  0  0  0  0  0
  197.4390  174.9150  144.1180 O   0  0  0  0  0  1  0  0  0  0  0  0
  195.1360  175.3890  145.5960 C   0  0  0  0  0  2  0  0  0  0  0  0
  194.6000  173.9570  145.6760 C   0  0  1  0  0  3  0  0  0  0  0  0
  194.5040  173.6590  142.4530 O   0  0  0  0  0  1  0  0  0  0  0  0
  192.9410  172.4360  145.0130 N   0  0  0  0  0  0  0  0  0  0  0  0
  194.5410  170.7930  145.2840 C   0  0  0  0  0  1  0  0  0  0  0  0
  1  4  1  0  0  0  0
  1 16  1  0  0  0  0
  2 16  2  0  0  0  0
  2 11  1  0  0  0  0
  3  8  1  0  0  0  0
  3 14  1  0  0  0  0
  5 20  1  0  0  0  0
  6  7  1  0  0  0  0
  7  5  2  0  0  0  0
  8  9  2  0  0  0  0
  9  5  1  0  0  0  0
  9  1  1  0  0  0  0
 10  6  2  0  0  0  0
 10  8  1  0  0  0  0
 11 12  2  0  0  0  0
 12 13  1  0  0  0  0
 12 17  1  0  0  0  0
 14  2  1  0  0  0  0
 15 13  2  0  0  0  0
 16 15  1  0  0  0  0
 17 19  2  0  0  0  0
 17 18  1  0  0  0  0
 19 18  1  0  0  0  0
 20 21  1  0  0  0  0
 21 33  1  0  0  0  0
 22 33  1  0  0  0  0
 22 34  1  0  0  0  0
 24 29  1  1  0  0  0
 24 25  1  0  0  0  0
 25 27  1  0  0  0  0
 25 30  1  0  0  0  0
 26 32  1  6  0  0  0
 26 24  1  0  0  0  0
 26 28  1  0  0  0  0
 28 22  1  6  0  0  0
 28 31  1  0  0  0  0
 30 31  1  0  0  0  0
 31 23  1  6  0  0  0
 33 23  1  0  0  0  0
M  END
>  <MODEL>
4

>  <REMARK>
 VINA RESULT:      -7.2      2.905      7.073
  Name = 
  4 active torsions:
  status: ('A' for Active; 'I' for Inactive)
    1  A    between atoms: C_3  and  C_25
    2  A    between atoms: C_8  and  C_10
    3  A    between atoms: C_8  and  C_18
    4  A    between atoms: C_18  and  N_30
                            x       y       z     vdW  Elec       q    Type
                         _______ _______ _______ _____ _____    ______ ____

>  <TORSDO>
F 4

$$$$
=
 OpenBabel11052420383D

 34 39  0  0  1  0  0  0  0  0999 V2000
  191.5410  176.3410  143.8130 N   0  0  0  0  0  0  0  0  0  0  0  0
  192.0920  173.8970  143.5890 C   0  0  0  0  0  0  0  0  0  0  0  0
  193.6130  175.0640  145.2950 C   0  0  0  0  0  2  0  0  0  0  0  0
  191.3830  177.4770  143.0910 O   0  0  0  0  0  1  0  0  0  0  0  0
  190.4900  177.1170  145.9220 C   0  0  0  0  0  0  0  0  0  0  0  0
  191.5270  176.5860  148.0500 C   0  0  0  0  0  3  0  0  0  0  0  0
  190.5020  177.1890  147.3190 C   0  0  0  0  0  3  0  0  0  0  0  0
  192.5420  175.8190  145.9920 C   0  0  0  0  0  0  0  0  0  0  0  0
  191.5260  176.4310  145.2460 C   0  0  0  0  0  0  0  0  0  0  0  0
  192.5440  175.8980  147.3870 C   0  0  0  0  0  3  0  0  0  0  0  0
  191.8570  172.6850  142.9290 C   0  0  0  0  0  3  0  0  0  0  0  0
  191.0000  172.6210  141.8300 C   0  0  0  0  0  0  0  0  0  0  0  0
  190.3710  173.7760  141.3710 C   0  0  0  0  0  3  0  0  0  0  0  0
  193.0450  173.8840  144.6610 N   0  0  0  0  0  2  0  0  0  0  0  0
  190.5820  174.9900  142.0250 C   0  0  0  0  0  3  0  0  0  0  0  0
  191.4250  175.0710  143.1440 C   0  0  0  0  0  0  0  0  0  0  0  0
  190.7710  171.3480  141.1560 C   0  0  0  0  0  0  0  0  0  0  0  0
  190.4770  170.0230  141.2190 O   0  0  0  0  0  0  0  0  0  0  0  0
  190.6960  170.6380  140.0330 N   0  0  0  0  0  0  0  0  0  0  0  0
  189.3250  177.7160  145.1950 C   0  0  0  0  0  2  0  0  0  0  0  0
  188.0630  177.7210  146.0550 C   0  0  0  0  0  2  0  0  0  0  0  0
  185.8350  177.3870  145.5450 N   0  0  0  0  0  0  0  0  0  0  0  0
  187.4650  176.4090  144.1990 C   0  0  0  0  0  2  0  0  0  0  0  0
  185.3590  178.6760  142.0150 C   0  0  2  0  0  3  0  0  0  0  0  0
  186.4970  177.8670  141.5650 N   0  0  0  0  0  0  0  0  0  0  0  0
  185.3330  178.7320  143.5390 C   0  0  1  0  0  3  0  0  0  0  0  0
  186.5200  177.9100  140.2120 O   0  0  0  0  0  1  0  0  0  0  0  0
  185.3160  177.3220  144.1770 C   0  0  1  0  0  3  0  0  0  0  0  0
  184.1460  178.1790  141.5200 O   0  0  0  0  0  1  0  0  0  0  0  0
  186.2960  176.4710  141.9450 C   0  0  0  0  0  2  0  0  0  0  0  0
  186.1740  176.3000  143.4610 C   0  0  1  0  0  3  0  0  0  0  0  0
  186.4210  179.4860  143.9870 O   0  0  0  0  0  1  0  0  0  0  0  0
  187.0960  176.7430  145.5730 N   0  0  0  0  0  0  0  0  0  0  0  0
  184.9380  176.6080  146.3850 C   0  0  0  0  0  1  0  0  0  0  0  0
  1  9  1  0  0  0  0
  2 14  1  0  0  0  0
  3  8  1  0  0  0  0
  4  1  1  0  0  0  0
  5  7  1  0  0  0  0
  7  6  2  0  0  0  0
  8 10  2  0  0  0  0
  9  5  2  0  0  0  0
  9  8  1  0  0  0  0
 10  6  1  0  0  0  0
 11  2  2  0  0  0  0
 12 11  1  0  0  0  0
 13 12  2  0  0  0  0
 13 15  1  0  0  0  0
 14  3  1  0  0  0  0
 15 16  2  0  0  0  0
 16  2  1  0  0  0  0
 16  1  1  0  0  0  0
 17 18  1  0  0  0  0
 17 12  1  0  0  0  0
 19 17  2  0  0  0  0
 19 18  1  0  0  0  0
 20  5  1  0  0  0  0
 20 21  1  0  0  0  0
 22 33  1  0  0  0  0
 22 34  1  0  0  0  0
 23 33  1  0  0  0  0
 24 29  1  1  0  0  0
 24 26  1  0  0  0  0
 25 30  1  0  0  0  0
 25 24  1  0  0  0  0
 26 32  1  1  0  0  0
 26 28  1  0  0  0  0
 27 25  1  0  0  0  0
 28 22  1  1  0  0  0
 31 30  1  6  0  0  0
 31 28  1  0  0  0  0
 31 23  1  0  0  0  0
 33 21  1  0  0  0  0
M  END
>  <MODEL>
5

>  <REMARK>
 VINA RESULT:      -7.2      2.354      5.376
  Name = 
  4 active torsions:
  status: ('A' for Active; 'I' for Inactive)
    1  A    between atoms: C_3  and  C_25
    2  A    between atoms: C_8  and  C_10
    3  A    between atoms: C_8  and  C_18
    4  A    between atoms: C_18  and  N_30
                            x       y       z     vdW  Elec       q    Type
                         _______ _______ _______ _____ _____    ______ ____

>  <TORSDO>
F 4

$$$$
=
 OpenBabel11052420383D

 34 39  0  0  1  0  0  0  0  0999 V2000
  190.2820  172.9010  143.1450 N   0  0  0  0  0  0  0  0  0  0  0  0
  192.5290  174.0230  143.2750 C   0  0  0  0  0  0  0  0  0  0  0  0
  192.4730  172.2080  141.4610 C   0  0  0  0  0  2  0  0  0  0  0  0
  189.3570  172.2570  143.8990 O   0  0  0  0  0  1  0  0  0  0  0  0
  188.8680  173.3340  141.1530 C   0  0  0  0  0  0  0  0  0  0  0  0
  189.7830  172.9970  138.9310 C   0  0  0  0  0  3  0  0  0  0  0  0
  188.7210  173.3590  139.7620 C   0  0  0  0  0  3  0  0  0  0  0  0
  191.1630  172.5890  140.8760 C   0  0  0  0  0  0  0  0  0  0  0  0
  190.1000  172.9370  141.7210 C   0  0  0  0  0  0  0  0  0  0  0  0
  191.0050  172.6170  139.4880 C   0  0  0  0  0  3  0  0  0  0  0  0
  193.3610  174.9380  143.9310 C   0  0  0  0  0  3  0  0  0  0  0  0
  192.9450  175.5750  145.1000 C   0  0  0  0  0  0  0  0  0  0  0  0
  191.6890  175.2960  145.6340 C   0  0  0  0  0  3  0  0  0  0  0  0
  193.0670  173.3600  142.1220 N   0  0  0  0  0  2  0  0  0  0  0  0
  190.8420  174.3970  144.9860 C   0  0  0  0  0  3  0  0  0  0  0  0
  191.2340  173.7610  143.7990 C   0  0  0  0  0  0  0  0  0  0  0  0
  193.8280  176.5240  145.7680 C   0  0  0  0  0  0  0  0  0  0  0  0
  194.4870  176.9260  146.8860 O   0  0  0  0  0  0  0  0  0  0  0  0
  194.5740  177.6250  145.7290 N   0  0  0  0  0  0  0  0  0  0  0  0
  187.7200  173.8060  141.9920 C   0  0  0  0  0  2  0  0  0  0  0  0
  187.4890  175.3080  141.8410 C   0  0  0  0  0  2  0  0  0  0  0  0
  188.0510  177.4300  142.5580 N   0  0  0  0  0  0  0  0  0  0  0  0
  187.5830  175.7870  144.1400 C   0  0  0  0  0  2  0  0  0  0  0  0
  185.1430  178.6360  144.6640 C   0  0  2  0  0  3  0  0  0  0  0  0
  185.1970  177.3970  145.4490 N   0  0  0  0  0  0  0  0  0  0  0  0
  185.9900  178.4880  143.4050 C   0  0  1  0  0  3  0  0  0  0  0  0
  184.3730  177.5500  146.5130 O   0  0  0  0  0  1  0  0  0  0  0  0
  187.4490  178.0800  143.7240 C   0  0  1  0  0  3  0  0  0  0  0  0
  185.5660  179.7390  145.4160 O   0  0  0  0  0  1  0  0  0  0  0  0
  186.5440  177.2010  145.9770 C   0  0  0  0  0  2  0  0  0  0  0  0
  187.5880  177.0910  144.8620 C   0  0  1  0  0  3  0  0  0  0  0  0
  185.3770  177.5730  142.5460 O   0  0  0  0  0  1  0  0  0  0  0  0
  188.2220  176.0560  142.8530 N   0  0  0  0  0  0  0  0  0  0  0  0
  189.3790  177.9990  142.3850 C   0  0  0  0  0  1  0  0  0  0  0  0
  1 16  1  0  0  0  0
  1  4  1  0  0  0  0
  2 16  2  0  0  0  0
  2 11  1  0  0  0  0
  3 14  1  0  0  0  0
  5  9  1  0  0  0  0
  5 20  1  0  0  0  0
  6 10  2  0  0  0  0
  6  7  1  0  0  0  0
  7  5  2  0  0  0  0
  8  3  1  0  0  0  0
  8  9  2  0  0  0  0
  9  1  1  0  0  0  0
 10  8  1  0  0  0  0
 11 12  2  0  0  0  0
 12 13  1  0  0  0  0
 12 17  1  0  0  0  0
 14  2  1  0  0  0  0
 15 13  2  0  0  0  0
 16 15  1  0  0  0  0
 17 18  1  0  0  0  0
 19 17  2  0  0  0  0
 19 18  1  0  0  0  0
 21 20  1  0  0  0  0
 21 33  1  0  0  0  0
 22 33  1  0  0  0  0
 24 29  1  1  0  0  0
 24 25  1  0  0  0  0
 25 30  1  0  0  0  0
 25 27  1  0  0  0  0
 26 32  1  6  0  0  0
 26 28  1  0  0  0  0
 26 24  1  0  0  0  0
 28 22  1  6  0  0  0
 28 31  1  0  0  0  0
 31 23  1  6  0  0  0
 31 30  1  0  0  0  0
 33 23  1  0  0  0  0
 34 22  1  0  0  0  0
M  END
>  <MODEL>
6

>  <REMARK>
 VINA RESULT:      -7.1      1.852      2.332
  Name = 
  4 active torsions:
  status: ('A' for Active; 'I' for Inactive)
    1  A    between atoms: C_3  and  C_25
    2  A    between atoms: C_8  and  C_10
    3  A    between atoms: C_8  and  C_18
    4  A    between atoms: C_18  and  N_30
                            x       y       z     vdW  Elec       q    Type
                         _______ _______ _______ _____ _____    ______ ____

>  <TORSDO>
F 4

$$$$
=
 OpenBabel11052420383D

 34 39  0  0  1  0  0  0  0  0999 V2000
  189.9980  172.2170  143.1000 N   0  0  0  0  0  0  0  0  0  0  0  0
  192.4850  172.5950  143.1220 C   0  0  0  0  0  0  0  0  0  0  0  0
  191.8100  170.7810  141.4350 C   0  0  0  0  0  2  0  0  0  0  0  0
  188.9460  171.9370  143.9090 O   0  0  0  0  0  1  0  0  0  0  0  0
  188.7190  172.9470  141.1040 C   0  0  0  0  0  0  0  0  0  0  0  0
  189.4080  172.2120  138.8970 C   0  0  0  0  0  3  0  0  0  0  0  0
  188.5380  172.9340  139.7170 C   0  0  0  0  0  3  0  0  0  0  0  0
  190.6620  171.5140  140.8450 C   0  0  0  0  0  0  0  0  0  0  0  0
  189.7870  172.2230  141.6800 C   0  0  0  0  0  0  0  0  0  0  0  0
  190.4720  171.5070  139.4610 C   0  0  0  0  0  3  0  0  0  0  0  0
  193.5790  173.2450  143.7030 C   0  0  0  0  0  3  0  0  0  0  0  0
  193.4200  174.0470  144.8330 C   0  0  0  0  0  0  0  0  0  0  0  0
  192.1580  174.2030  145.4030 C   0  0  0  0  0  3  0  0  0  0  0  0
  192.7520  171.7300  142.0080 N   0  0  0  0  0  2  0  0  0  0  0  0
  191.0540  173.5730  144.8290 C   0  0  0  0  0  3  0  0  0  0  0  0
  191.1900  172.7780  143.6810 C   0  0  0  0  0  0  0  0  0  0  0  0
  194.5740  174.7150  145.4230 C   0  0  0  0  0  0  0  0  0  0  0  0
  195.1060  175.4950  146.4000 O   0  0  0  0  0  0  0  0  0  0  0  0
  195.8740  175.0030  145.3990 N   0  0  0  0  0  0  0  0  0  0  0  0
  187.8000  173.8000  141.9260 C   0  0  0  0  0  2  0  0  0  0  0  0
  187.9820  175.2850  141.6190 C   0  0  0  0  0  2  0  0  0  0  0  0
  188.4280  177.3420  142.5710 N   0  0  0  0  0  0  0  0  0  0  0  0
  188.1340  175.4930  143.9550 C   0  0  0  0  0  2  0  0  0  0  0  0
  185.5310  178.0780  144.8960 C   0  0  2  0  0  3  0  0  0  0  0  0
  185.6980  176.7620  145.5220 N   0  0  0  0  0  0  0  0  0  0  0  0
  186.3360  178.1420  143.6030 C   0  0  1  0  0  3  0  0  0  0  0  0
  184.9080  176.7290  146.6220 O   0  0  0  0  0  1  0  0  0  0  0  0
  187.8300  177.8040  143.8250 C   0  0  1  0  0  3  0  0  0  0  0  0
  185.9080  179.1120  145.7620 O   0  0  0  0  0  1  0  0  0  0  0  0
  187.0750  176.6020  145.9810 C   0  0  0  0  0  2  0  0  0  0  0  0
  188.0790  176.6990  144.8290 C   0  0  1  0  0  3  0  0  0  0  0  0
  185.7520  177.2940  142.6580 O   0  0  0  0  0  1  0  0  0  0  0  0
  188.7030  175.9580  142.6920 N   0  0  0  0  0  0  0  0  0  0  0  0
  189.7070  178.0200  142.4270 C   0  0  0  0  0  1  0  0  0  0  0  0
  1 16  1  0  0  0  0
  1  4  1  0  0  0  0
  2 16  2  0  0  0  0
  2 11  1  0  0  0  0
  3 14  1  0  0  0  0
  5  9  1  0  0  0  0
  5 20  1  0  0  0  0
  6 10  2  0  0  0  0
  6  7  1  0  0  0  0
  7  5  2  0  0  0  0
  8  3  1  0  0  0  0
  8  9  2  0  0  0  0
  9  1  1  0  0  0  0
 10  8  1  0  0  0  0
 11 12  2  0  0  0  0
 12 13  1  0  0  0  0
 12 17  1  0  0  0  0
 14  2  1  0  0  0  0
 15 13  2  0  0  0  0
 16 15  1  0  0  0  0
 17 18  1  0  0  0  0
 19 17  2  0  0  0  0
 19 18  1  0  0  0  0
 21 20  1  0  0  0  0
 21 33  1  0  0  0  0
 22 33  1  0  0  0  0
 24 25  1  0  0  0  0
 24 29  1  1  0  0  0
 25 30  1  0  0  0  0
 25 27  1  0  0  0  0
 26 32  1  6  0  0  0
 26 28  1  0  0  0  0
 26 24  1  0  0  0  0
 28 22  1  6  0  0  0
 28 31  1  0  0  0  0
 31 23  1  6  0  0  0
 31 30  1  0  0  0  0
 33 23  1  0  0  0  0
 34 22  1  0  0  0  0
M  END
>  <MODEL>
7

>  <REMARK>
 VINA RESULT:      -7.1      2.379      3.043
  Name = 
  4 active torsions:
  status: ('A' for Active; 'I' for Inactive)
    1  A    between atoms: C_3  and  C_25
    2  A    between atoms: C_8  and  C_10
    3  A    between atoms: C_8  and  C_18
    4  A    between atoms: C_18  and  N_30
                            x       y       z     vdW  Elec       q    Type
                         _______ _______ _______ _____ _____    ______ ____

>  <TORSDO>
F 4

$$$$
=
 OpenBabel11052420383D

 34 39  0  0  1  0  0  0  0  0999 V2000
  189.2560  174.7510  144.3970 N   0  0  0  0  0  0  0  0  0  0  0  0
  189.1460  173.1130  142.4910 C   0  0  0  0  0  0  0  0  0  0  0  0
  187.3640  174.9470  142.2760 C   0  0  0  0  0  2  0  0  0  0  0  0
  189.2530  174.8260  145.7510 O   0  0  0  0  0  1  0  0  0  0  0  0
  190.0520  177.0520  143.9210 C   0  0  0  0  0  0  0  0  0  0  0  0
  189.0170  178.3400  142.1440 C   0  0  0  0  0  3  0  0  0  0  0  0
  189.9580  178.2280  143.1690 C   0  0  0  0  0  3  0  0  0  0  0  0
  188.2530  176.0900  142.6020 C   0  0  0  0  0  0  0  0  0  0  0  0
  189.1850  175.9710  143.6420 C   0  0  0  0  0  0  0  0  0  0  0  0
  188.1680  177.2700  141.8580 C   0  0  0  0  0  3  0  0  0  0  0  0
  189.6190  171.9250  141.9210 C   0  0  0  0  0  3  0  0  0  0  0  0
  190.5280  171.1150  142.6010 C   0  0  0  0  0  0  0  0  0  0  0  0
  190.9710  171.4800  143.8700 C   0  0  0  0  0  3  0  0  0  0  0  0
  188.1570  173.8450  141.7540 N   0  0  0  0  0  2  0  0  0  0  0  0
  190.5210  172.6680  144.4480 C   0  0  0  0  0  3  0  0  0  0  0  0
  189.6220  173.5060  143.7720 C   0  0  0  0  0  0  0  0  0  0  0  0
  191.0050  169.8810  141.9890 C   0  0  0  0  0  0  0  0  0  0  0  0
  190.8980  168.5370  141.8190 O   0  0  0  0  0  0  0  0  0  0  0  0
  191.8630  169.2490  141.1900 N   0  0  0  0  0  0  0  0  0  0  0  0
  191.1310  176.9610  144.9560 C   0  0  0  0  0  2  0  0  0  0  0  0
  192.5090  176.7840  144.3230 C   0  0  0  0  0  2  0  0  0  0  0  0
  193.6970  175.4610  142.8480 N   0  0  0  0  0  0  0  0  0  0  0  0
  193.2200  174.6410  144.9750 C   0  0  0  0  0  2  0  0  0  0  0  0
  196.9840  174.6700  144.5560 C   0  0  2  0  0  3  0  0  0  0  0  0
  196.2570  174.2250  145.7500 N   0  0  0  0  0  0  0  0  0  0  0  0
  196.0380  175.4190  143.6230 C   0  0  1  0  0  3  0  0  0  0  0  0
  197.1520  173.6340  146.5780 O   0  0  0  0  0  1  0  0  0  0  0  0
  194.7940  174.5770  143.2510 C   0  0  1  0  0  3  0  0  0  0  0  0
  197.5840  173.5940  143.8890 O   0  0  0  0  0  1  0  0  0  0  0  0
  195.2760  173.2070  145.3850 C   0  0  0  0  0  2  0  0  0  0  0  0
  194.2450  173.7350  144.3840 C   0  0  1  0  0  3  0  0  0  0  0  0
  195.6800  176.6330  144.2140 O   0  0  0  0  0  1  0  0  0  0  0  0
  192.6990  175.4180  143.8520 N   0  0  0  0  0  0  0  0  0  0  0  0
  193.1120  174.8990  141.6400 C   0  0  0  0  0  1  0  0  0  0  0  0
  1  4  1  0  0  0  0
  2 16  1  0  0  0  0
  3  8  1  0  0  0  0
  5 20  1  0  0  0  0
  6  7  1  0  0  0  0
  7  5  2  0  0  0  0
  8  9  2  0  0  0  0
  9  5  1  0  0  0  0
  9  1  1  0  0  0  0
 10  6  2  0  0  0  0
 10  8  1  0  0  0  0
 11  2  2  0  0  0  0
 11 12  1  0  0  0  0
 12 13  2  0  0  0  0
 13 15  1  0  0  0  0
 14  3  1  0  0  0  0
 14  2  1  0  0  0  0
 16  1  1  0  0  0  0
 16 15  2  0  0  0  0
 17 12  1  0  0  0  0
 18 17  1  0  0  0  0
 19 18  1  0  0  0  0
 19 17  2  0  0  0  0
 21 20  1  0  0  0  0
 22 33  1  0  0  0  0
 24 29  1  6  0  0  0
 24 25  1  0  0  0  0
 25 27  1  0  0  0  0
 26 32  1  1  0  0  0
 26 24  1  0  0  0  0
 28 22  1  1  0  0  0
 28 26  1  0  0  0  0
 28 31  1  0  0  0  0
 30 25  1  0  0  0  0
 31 23  1  1  0  0  0
 31 30  1  0  0  0  0
 33 21  1  0  0  0  0
 33 23  1  0  0  0  0
 34 22  1  0  0  0  0
M  END
>  <MODEL>
8

>  <REMARK>
 VINA RESULT:      -7.0      3.281      7.798
  Name = 
  4 active torsions:
  status: ('A' for Active; 'I' for Inactive)
    1  A    between atoms: C_3  and  C_25
    2  A    between atoms: C_8  and  C_10
    3  A    between atoms: C_8  and  C_18
    4  A    between atoms: C_18  and  N_30
                            x       y       z     vdW  Elec       q    Type
                         _______ _______ _______ _____ _____    ______ ____

>  <TORSDO>
F 4

$$$$
=
 OpenBabel11052420383D

 34 39  0  0  1  0  0  0  0  0999 V2000
  189.9160  174.6180  144.7780 N   0  0  0  0  0  0  0  0  0  0  0  0
  188.0800  176.2400  144.2100 C   0  0  0  0  0  0  0  0  0  0  0  0
  188.2530  175.8450  146.7400 C   0  0  0  0  0  2  0  0  0  0  0  0
  190.3770  173.3740  144.4940 O   0  0  0  0  0  1  0  0  0  0  0  0
  191.9360  175.4880  145.9240 C   0  0  0  0  0  0  0  0  0  0  0  0
  191.7000  176.7900  147.9570 C   0  0  0  0  0  3  0  0  0  0  0  0
  192.5080  176.2070  146.9790 C   0  0  0  0  0  3  0  0  0  0  0  0
  189.7310  175.9520  146.8290 C   0  0  0  0  0  0  0  0  0  0  0  0
  190.5320  175.3500  145.8490 C   0  0  0  0  0  0  0  0  0  0  0  0
  190.3130  176.6660  147.8790 C   0  0  0  0  0  3  0  0  0  0  0  0
  187.3330  176.8850  143.2160 C   0  0  0  0  0  3  0  0  0  0  0  0
  187.5080  176.5680  141.8690 C   0  0  0  0  0  0  0  0  0  0  0  0
  188.4300  175.5920  141.4980 C   0  0  0  0  0  3  0  0  0  0  0  0
  187.7810  176.5740  145.5730 N   0  0  0  0  0  2  0  0  0  0  0  0
  189.1930  174.9490  142.4740 C   0  0  0  0  0  3  0  0  0  0  0  0
  189.0450  175.2680  143.8330 C   0  0  0  0  0  0  0  0  0  0  0  0
  186.7190  177.2500  140.8500 C   0  0  0  0  0  0  0  0  0  0  0  0
  186.3930  177.4310  139.5430 O   0  0  0  0  0  0  0  0  0  0  0  0
  185.7930  178.1490  140.5220 N   0  0  0  0  0  0  0  0  0  0  0  0
  192.8470  174.9490  144.8630 C   0  0  0  0  0  2  0  0  0  0  0  0
  193.6570  173.7560  145.3660 C   0  0  0  0  0  2  0  0  0  0  0  0
  195.8240  173.1410  144.8560 N   0  0  0  0  0  0  0  0  0  0  0  0
  195.2660  175.4010  144.8930 C   0  0  0  0  0  2  0  0  0  0  0  0
  196.5460  174.5760  141.4260 C   0  0  2  0  0  3  0  0  0  0  0  0
  196.0870  175.8930  141.8790 N   0  0  0  0  0  0  0  0  0  0  0  0
  196.1410  173.5090  142.4370 C   0  0  1  0  0  3  0  0  0  0  0  0
  196.4030  176.7900  140.9150 O   0  0  0  0  0  1  0  0  0  0  0  0
  196.6520  173.8300  143.8630 C   0  0  1  0  0  3  0  0  0  0  0  0
  197.9310  174.5570  141.2180 O   0  0  0  0  0  1  0  0  0  0  0  0
  196.8140  176.2860  143.0830 C   0  0  0  0  0  2  0  0  0  0  0  0
  196.5990  175.2970  144.2320 C   0  0  1  0  0  3  0  0  0  0  0  0
  194.7520  173.3580  142.4110 O   0  0  0  0  0  1  0  0  0  0  0  0
  195.0580  174.1110  145.5470 N   0  0  0  0  0  0  0  0  0  0  0  0
  196.7260  172.5380  145.8260 C   0  0  0  0  0  1  0  0  0  0  0  0
  1  9  1  0  0  0  0
  2 14  1  0  0  0  0
  3  8  1  0  0  0  0
  4  1  1  0  0  0  0
  5  7  1  0  0  0  0
  7  6  2  0  0  0  0
  8 10  2  0  0  0  0
  9  5  2  0  0  0  0
  9  8  1  0  0  0  0
 10  6  1  0  0  0  0
 11  2  2  0  0  0  0
 12 11  1  0  0  0  0
 13 12  2  0  0  0  0
 13 15  1  0  0  0  0
 14  3  1  0  0  0  0
 15 16  2  0  0  0  0
 16  2  1  0  0  0  0
 16  1  1  0  0  0  0
 17 12  1  0  0  0  0
 18 19  1  0  0  0  0
 18 17  1  0  0  0  0
 19 17  2  0  0  0  0
 20 21  1  0  0  0  0
 20  5  1  0  0  0  0
 21 33  1  0  0  0  0
 22 33  1  0  0  0  0
 22 34  1  0  0  0  0
 23 33  1  0  0  0  0
 24 29  1  1  0  0  0
 24 25  1  0  0  0  0
 24 26  1  0  0  0  0
 25 30  1  0  0  0  0
 26 32  1  1  0  0  0
 26 28  1  0  0  0  0
 27 25  1  0  0  0  0
 28 31  1  0  0  0  0
 28 22  1  1  0  0  0
 31 30  1  6  0  0  0
 31 23  1  0  0  0  0
M  END
>  <MODEL>
9

>  <REMARK>
 VINA RESULT:      -7.0      3.347      8.187
  Name = 
  4 active torsions:
  status: ('A' for Active; 'I' for Inactive)
    1  A    between atoms: C_3  and  C_25
    2  A    between atoms: C_8  and  C_10
    3  A    between atoms: C_8  and  C_18
    4  A    between atoms: C_18  and  N_30
                            x       y       z     vdW  Elec       q    Type
                         _______ _______ _______ _____ _____    ______ ____

>  <TORSDO>
F 4

$$$$
