=
 OpenBabel11052418413D

 34 38  0  0  1  0  0  0  0  0999 V2000
  192.2950  173.8860  140.7910 C   0  0  0  0  0  0  0  0  0  0  0  0
  190.8280  175.2100  142.3670 C   0  0  0  0  0  0  0  0  0  0  0  0
  192.2080  175.6070  146.4750 C   0  0  0  0  0  0  0  0  0  0  0  0
  193.3300  175.2830  142.5070 C   0  0  0  0  0  0  0  0  0  0  0  0
  195.2430  176.6570  144.7700 C   0  0  0  0  0  2  0  0  0  0  0  0
  193.7450  172.4970  139.2850 C   0  0  0  0  0  1  0  0  0  0  0  0
  189.7640  174.9320  141.7500 O   0  0  0  0  0  0  0  0  0  0  0  0
  191.8260  177.0280  143.6560 C   0  0  0  0  0  2  0  0  0  0  0  0
  189.0250  174.6100  147.4920 C   0  0  0  0  0  1  0  0  0  0  0  0
  190.8480  176.0340  146.6560 N   0  0  0  0  0  0  0  0  0  0  0  0
  189.7750  175.1140  146.2730 C   0  0  2  0  0  3  0  0  0  0  0  0
  192.1630  174.7930  141.8600 C   0  0  0  0  0  0  0  0  0  0  0  0
  192.5200  174.4020  146.6700 O   0  0  0  0  0  0  0  0  0  0  0  0
  193.9110  176.0490  144.7880 N   0  0  1  0  0  0  0  0  0  0  0  0
  191.1760  173.4060  140.1130 O   0  0  0  0  0  1  0  0  0  0  0  0
  189.4330  176.4870  144.0840 C   0  0  0  0  0  2  0  0  0  0  0  0
  194.5880  174.7380  142.1440 C   0  0  0  0  0  0  0  0  0  0  0  0
  193.5680  173.4540  140.4120 C   0  0  0  0  0  0  0  0  0  0  0  0
  190.7890  175.9270  143.6770 C   0  0  1  0  0  3  0  0  0  0  0  0
  196.0200  176.3930  143.4670 C   0  0  0  0  0  2  0  0  0  0  0  0
  195.8650  174.9610  142.9350 C   0  0  1  0  0  3  0  0  0  0  0  0
  193.2550  176.5650  145.9940 C   0  0  0  0  0  2  0  0  0  0  0  0
  193.2310  176.4130  143.5280 C   0  0  1  0  0  3  0  0  0  0  0  0
  194.6590  173.8630  141.1060 N   0  0  0  0  0  0  0  0  0  0  0  0
  188.7960  175.7150  145.2500 C   0  0  0  0  0  2  0  0  0  0  0  0
  195.3210  171.7690  145.0740 C   0  0  1  0  0  3  0  0  0  0  0  0
  196.4830  171.1040  144.6400 O   0  0  0  0  0  0  0  0  0  0  0  0
  196.1030  173.8840  144.0110 C   0  0  1  0  0  3  0  0  0  0  0  0
  197.5500  172.0080  144.7900 C   0  0  0  0  0  2  0  0  0  0  0  0
  194.9540  172.8740  144.0840 C   0  0  0  0  0  2  0  0  0  0  0  0
  197.4210  173.1400  143.7700 C   0  0  0  0  0  2  0  0  0  0  0  0
  194.1780  170.7800  145.1690 C   0  0  0  0  0  1  0  0  0  0  0  0
  191.3060  177.3620  148.6720 C   0  0  0  0  0  1  0  0  0  0  0  0
  190.5410  177.2770  147.3640 C   0  0  0  0  0  2  0  0  0  0  0  0
  1 12  1  0  0  0  0
  2 19  1  0  0  0  0
  3 10  1  0  0  0  0
  3 13  2  0  0  0  0
  4 23  1  0  0  0  0
  6 18  1  0  0  0  0
  7  2  2  0  0  0  0
 10 34  1  0  0  0  0
 11 10  1  0  0  0  0
 11  9  1  1  0  0  0
 12  2  1  0  0  0  0
 12  4  2  0  0  0  0
 14  5  1  6  0  0  0
 14 22  1  0  0  0  0
 15  1  1  0  0  0  0
 16 25  1  0  0  0  0
 17  4  1  0  0  0  0
 17 21  1  0  0  0  0
 18  1  2  0  0  0  0
 18 24  1  0  0  0  0
 19  8  1  6  0  0  0
 19 16  1  0  0  0  0
 20  5  1  0  0  0  0
 21 20  1  1  0  0  0
 21 28  1  0  0  0  0
 22  3  1  0  0  0  0
 23  8  1  1  0  0  0
 23 14  1  0  0  0  0
 24 17  2  0  0  0  0
 25 11  1  0  0  0  0
 26 32  1  6  0  0  0
 27 29  1  0  0  0  0
 27 26  1  0  0  0  0
 28 31  1  6  0  0  0
 28 30  1  0  0  0  0
 30 26  1  0  0  0  0
 31 29  1  0  0  0  0
 34 33  1  0  0  0  0
M  END
>  <MODEL>
1

>  <REMARK>
 VINA RESULT:      -7.1      0.000      0.000
  Name = 
  2 active torsions:
  status: ('A' for Active; 'I' for Inactive)
    1  A    between atoms: C_12  and  C_28
    2  A    between atoms: N_13  and  C_33
                            x       y       z     vdW  Elec       q    Type
                         _______ _______ _______ _____ _____    ______ ____

>  <TORSDO>
F 2

$$$$
=
 OpenBabel11052418413D

 34 38  0  0  1  0  0  0  0  0999 V2000
  188.1930  176.5450  142.8250 C   0  0  0  0  0  0  0  0  0  0  0  0
  188.1140  175.2000  140.6870 C   0  0  0  0  0  0  0  0  0  0  0  0
  191.4390  172.4940  139.9390 C   0  0  0  0  0  0  0  0  0  0  0  0
  189.0440  174.2550  142.8140 C   0  0  0  0  0  0  0  0  0  0  0  0
  190.6200  171.4400  143.3200 C   0  0  0  0  0  2  0  0  0  0  0  0
  188.3550  177.9160  144.9220 C   0  0  0  0  0  1  0  0  0  0  0  0
  187.4410  176.0650  140.0640 O   0  0  0  0  0  0  0  0  0  0  0  0
  188.3940  172.7770  140.8100 C   0  0  0  0  0  2  0  0  0  0  0  0
  191.6630  173.8770  136.7450 C   0  0  0  0  0  1  0  0  0  0  0  0
  190.8610  172.5040  138.6230 N   0  0  0  0  0  0  0  0  0  0  0  0
  190.7250  173.7910  137.9360 C   0  0  2  0  0  3  0  0  0  0  0  0
  188.4330  175.3430  142.1330 C   0  0  0  0  0  0  0  0  0  0  0  0
  192.3750  173.2890  140.2210 O   0  0  0  0  0  0  0  0  0  0  0  0
  190.5160  172.3660  142.1920 N   0  0  1  0  0  0  0  0  0  0  0  0
  187.5700  177.6230  142.2000 O   0  0  0  0  0  1  0  0  0  0  0  0
  188.1910  173.8040  138.5490 C   0  0  0  0  0  2  0  0  0  0  0  0
  189.5160  174.4600  144.1360 C   0  0  0  0  0  0  0  0  0  0  0  0
  188.5950  176.6600  144.1580 C   0  0  0  0  0  0  0  0  0  0  0  0
  188.6740  174.0100  139.9780 C   0  0  1  0  0  3  0  0  0  0  0  0
  190.0630  172.0130  144.6370 C   0  0  0  0  0  2  0  0  0  0  0  0
  190.4240  173.4880  144.8690 C   0  0  1  0  0  3  0  0  0  0  0  0
  190.8990  171.5910  141.0060 C   0  0  0  0  0  2  0  0  0  0  0  0
  189.1330  172.8810  142.1560 C   0  0  1  0  0  3  0  0  0  0  0  0
  189.2600  175.6410  144.7580 N   0  0  0  0  0  0  0  0  0  0  0  0
  189.2810  174.0980  137.5060 C   0  0  0  0  0  2  0  0  0  0  0  0
  193.6490  175.1050  143.4400 C   0  0  1  0  0  3  0  0  0  0  0  0
  194.0400  175.7310  144.6380 O   0  0  0  0  0  0  0  0  0  0  0  0
  191.9210  173.7880  144.6620 C   0  0  1  0  0  3  0  0  0  0  0  0
  194.0030  174.7470  145.6420 C   0  0  0  0  0  2  0  0  0  0  0  0
  192.1630  174.7540  143.4980 C   0  0  0  0  0  2  0  0  0  0  0  0
  192.5540  174.3560  145.9360 C   0  0  0  0  0  2  0  0  0  0  0  0
  193.8980  176.0420  142.2760 C   0  0  0  0  0  1  0  0  0  0  0  0
  191.8440  170.4320  137.7450 C   0  0  0  0  0  1  0  0  0  0  0  0
  190.5810  171.2540  137.9190 C   0  0  0  0  0  2  0  0  0  0  0  0
  1 18  1  0  0  0  0
  2 12  1  0  0  0  0
  3 13  2  0  0  0  0
  3 22  1  0  0  0  0
  4 17  2  0  0  0  0
  5 20  1  0  0  0  0
  7  2  2  0  0  0  0
 10  3  1  0  0  0  0
 11  9  1  6  0  0  0
 11 10  1  0  0  0  0
 12  4  1  0  0  0  0
 12  1  2  0  0  0  0
 14 22  1  6  0  0  0
 14  5  1  0  0  0  0
 15  1  1  0  0  0  0
 17 24  1  0  0  0  0
 17 21  1  0  0  0  0
 18 24  2  0  0  0  0
 18  6  1  0  0  0  0
 19 16  1  6  0  0  0
 19  2  1  0  0  0  0
 19  8  1  0  0  0  0
 21 20  1  6  0  0  0
 23  8  1  6  0  0  0
 23 14  1  0  0  0  0
 23  4  1  0  0  0  0
 25 11  1  0  0  0  0
 25 16  1  0  0  0  0
 26 32  1  6  0  0  0
 26 30  1  0  0  0  0
 26 27  1  0  0  0  0
 27 29  1  0  0  0  0
 28 30  1  6  0  0  0
 28 21  1  0  0  0  0
 28 31  1  0  0  0  0
 29 31  1  0  0  0  0
 33 34  1  0  0  0  0
 34 10  1  0  0  0  0
M  END
>  <MODEL>
2

>  <REMARK>
 VINA RESULT:      -6.9      2.949      6.807
  Name = 
  2 active torsions:
  status: ('A' for Active; 'I' for Inactive)
    1  A    between atoms: C_12  and  C_28
    2  A    between atoms: N_13  and  C_33
                            x       y       z     vdW  Elec       q    Type
                         _______ _______ _______ _____ _____    ______ ____

>  <TORSDO>
F 2

$$$$
=
 OpenBabel11052418413D

 34 38  0  0  1  0  0  0  0  0999 V2000
  186.4780  177.0580  147.0680 C   0  0  0  0  0  0  0  0  0  0  0  0
  188.4700  175.6660  146.3770 C   0  0  0  0  0  0  0  0  0  0  0  0
  188.8230  174.6960  142.1500 C   0  0  0  0  0  0  0  0  0  0  0  0
  187.5600  177.4920  144.9230 C   0  0  0  0  0  0  0  0  0  0  0  0
  188.3450  178.2870  141.8530 C   0  0  0  0  0  2  0  0  0  0  0  0
  184.4420  178.3750  147.7170 C   0  0  0  0  0  1  0  0  0  0  0  0
  188.5600  175.0830  147.4910 O   0  0  0  0  0  0  0  0  0  0  0  0
  189.8940  176.4680  144.5630 C   0  0  0  0  0  2  0  0  0  0  0  0
  189.3170  171.3760  143.0970 C   0  0  0  0  0  1  0  0  0  0  0  0
  189.7760  173.7550  142.6730 N   0  0  0  0  0  0  0  0  0  0  0  0
  189.3160  172.7830  143.6670 C   0  0  2  0  0  3  0  0  0  0  0  0
  187.4940  176.7630  146.1400 C   0  0  0  0  0  0  0  0  0  0  0  0
  187.6310  174.3390  141.9540 O   0  0  0  0  0  0  0  0  0  0  0  0
  188.3250  177.0360  142.6130 N   0  0  1  0  0  0  0  0  0  0  0  0
  186.3970  176.3840  148.2860 O   0  0  0  0  0  1  0  0  0  0  0  0
  190.4110  174.2340  145.5350 C   0  0  0  0  0  2  0  0  0  0  0  0
  186.5180  178.4050  144.6190 C   0  0  0  0  0  0  0  0  0  0  0  0
  185.5290  178.0350  146.7580 C   0  0  0  0  0  0  0  0  0  0  0  0
  189.3100  175.2360  145.2180 C   0  0  1  0  0  3  0  0  0  0  0  0
  187.6250  179.4490  142.5640 C   0  0  0  0  0  2  0  0  0  0  0  0
  186.3160  179.0340  143.2520 C   0  0  1  0  0  3  0  0  0  0  0  0
  189.2140  176.1190  141.8910 C   0  0  0  0  0  2  0  0  0  0  0  0
  188.7600  177.3390  143.9920 C   0  0  1  0  0  3  0  0  0  0  0  0
  185.5580  178.6510  145.5500 N   0  0  0  0  0  0  0  0  0  0  0  0
  190.1170  172.8320  144.9790 C   0  0  0  0  0  2  0  0  0  0  0  0
  183.0840  177.8810  141.4390 C   0  0  1  0  0  3  0  0  0  0  0  0
  183.5380  178.1700  140.1380 O   0  0  0  0  0  0  0  0  0  0  0  0
  185.3850  178.2110  142.3410 C   0  0  1  0  0  3  0  0  0  0  0  0
  184.8020  177.5670  140.0040 C   0  0  0  0  0  2  0  0  0  0  0  0
  183.9220  178.6470  142.4620 C   0  0  0  0  0  2  0  0  0  0  0  0
  185.8230  178.2990  140.8750 C   0  0  0  0  0  2  0  0  0  0  0  0
  181.6330  178.2910  141.5700 C   0  0  0  0  0  1  0  0  0  0  0  0
  191.0600  173.3360  140.6220 C   0  0  0  0  0  1  0  0  0  0  0  0
  191.1190  173.6550  142.1040 C   0  0  0  0  0  2  0  0  0  0  0  0
  1 15  1  0  0  0  0
  2  7  2  0  0  0  0
  3 10  1  0  0  0  0
  4 12  1  0  0  0  0
  5 20  1  0  0  0  0
 10 11  1  0  0  0  0
 11  9  1  6  0  0  0
 11 25  1  0  0  0  0
 12  2  1  0  0  0  0
 12  1  2  0  0  0  0
 13  3  2  0  0  0  0
 14  5  1  6  0  0  0
 14 23  1  0  0  0  0
 17  4  2  0  0  0  0
 17 24  1  0  0  0  0
 18  1  1  0  0  0  0
 18  6  1  0  0  0  0
 19  8  1  1  0  0  0
 19 16  1  0  0  0  0
 19  2  1  0  0  0  0
 21 20  1  6  0  0  0
 21 17  1  0  0  0  0
 22  3  1  0  0  0  0
 22 14  1  0  0  0  0
 23  8  1  1  0  0  0
 23  4  1  0  0  0  0
 24 18  2  0  0  0  0
 25 16  1  0  0  0  0
 26 32  1  6  0  0  0
 26 30  1  0  0  0  0
 27 26  1  0  0  0  0
 28 31  1  6  0  0  0
 28 30  1  0  0  0  0
 28 21  1  0  0  0  0
 29 27  1  0  0  0  0
 29 31  1  0  0  0  0
 33 34  1  0  0  0  0
 34 10  1  0  0  0  0
M  END
>  <MODEL>
3

>  <REMARK>
 VINA RESULT:      -6.7      4.268      9.123
  Name = 
  2 active torsions:
  status: ('A' for Active; 'I' for Inactive)
    1  A    between atoms: C_12  and  C_28
    2  A    between atoms: N_13  and  C_33
                            x       y       z     vdW  Elec       q    Type
                         _______ _______ _______ _____ _____    ______ ____

>  <TORSDO>
F 2

$$$$
=
 OpenBabel11052418413D

 34 38  0  0  1  0  0  0  0  0999 V2000
  190.9400  175.4810  145.6820 C   0  0  0  0  0  0  0  0  0  0  0  0
  189.7640  174.2150  143.8380 C   0  0  0  0  0  0  0  0  0  0  0  0
  192.2820  172.2160  140.9060 C   0  0  0  0  0  0  0  0  0  0  0  0
  191.9050  173.3970  144.8520 C   0  0  0  0  0  0  0  0  0  0  0  0
  193.8230  170.9180  143.9320 C   0  0  0  0  0  2  0  0  0  0  0  0
  192.1520  176.7910  147.4470 C   0  0  0  0  0  1  0  0  0  0  0  0
  188.7440  174.9550  143.8600 O   0  0  0  0  0  0  0  0  0  0  0  0
  190.3790  171.8870  143.4320 C   0  0  0  0  0  2  0  0  0  0  0  0
  190.3430  173.7170  138.4260 C   0  0  0  0  0  1  0  0  0  0  0  0
  191.0310  172.1580  140.2000 N   0  0  0  0  0  0  0  0  0  0  0  0
  190.3370  173.4160  139.9140 C   0  0  2  0  0  3  0  0  0  0  0  0
  190.8690  174.3700  144.8210 C   0  0  0  0  0  0  0  0  0  0  0  0
  193.0820  173.1650  140.6890 O   0  0  0  0  0  0  0  0  0  0  0  0
  192.9360  171.8430  143.2240 N   0  0  1  0  0  0  0  0  0  0  0  0
  189.9290  176.4400  145.7020 O   0  0  0  0  0  1  0  0  0  0  0  0
  188.7170  172.9270  141.8960 C   0  0  0  0  0  2  0  0  0  0  0  0
  193.0480  173.6460  145.6540 C   0  0  0  0  0  0  0  0  0  0  0  0
  192.0460  175.6280  146.5220 C   0  0  0  0  0  0  0  0  0  0  0  0
  189.9330  173.1760  142.7780 C   0  0  1  0  0  3  0  0  0  0  0  0
  194.1060  171.3330  145.3880 C   0  0  0  0  0  2  0  0  0  0  0  0
  194.3330  172.8420  145.5660 C   0  0  1  0  0  3  0  0  0  0  0  0
  192.6230  171.1930  141.9470 C   0  0  0  0  0  2  0  0  0  0  0  0
  191.7590  172.0870  144.0830 C   0  0  1  0  0  3  0  0  0  0  0  0
  193.0660  174.7370  146.4650 N   0  0  0  0  0  0  0  0  0  0  0  0
  188.9020  173.4560  140.4650 C   0  0  0  0  0  2  0  0  0  0  0  0
  195.8630  175.2200  142.9080 C   0  0  1  0  0  3  0  0  0  0  0  0
  196.9190  175.6800  143.7170 O   0  0  0  0  0  0  0  0  0  0  0  0
  195.3440  173.4270  144.5620 C   0  0  1  0  0  3  0  0  0  0  0  0
  197.5530  174.5410  144.2460 C   0  0  0  0  0  2  0  0  0  0  0  0
  194.7660  174.6130  143.7830 C   0  0  0  0  0  2  0  0  0  0  0  0
  196.6360  173.8600  145.2630 C   0  0  0  0  0  2  0  0  0  0  0  0
  195.2910  176.3780  142.1170 C   0  0  0  0  0  1  0  0  0  0  0  0
  191.5400  170.3460  138.6220 C   0  0  0  0  0  1  0  0  0  0  0  0
  190.5510  170.9000  139.6300 C   0  0  0  0  0  2  0  0  0  0  0  0
  1 15  1  0  0  0  0
  1 18  1  0  0  0  0
  2  7  2  0  0  0  0
  2 12  1  0  0  0  0
  3 22  1  0  0  0  0
  4 17  2  0  0  0  0
  5 20  1  0  0  0  0
 10  3  1  0  0  0  0
 11  9  1  6  0  0  0
 11 10  1  0  0  0  0
 11 25  1  0  0  0  0
 12  4  1  0  0  0  0
 12  1  2  0  0  0  0
 13  3  2  0  0  0  0
 14 22  1  6  0  0  0
 14  5  1  0  0  0  0
 14 23  1  0  0  0  0
 17 24  1  0  0  0  0
 18  6  1  0  0  0  0
 19 16  1  1  0  0  0
 19  8  1  0  0  0  0
 19  2  1  0  0  0  0
 21 20  1  6  0  0  0
 21 17  1  0  0  0  0
 23  8  1  6  0  0  0
 23  4  1  0  0  0  0
 24 18  2  0  0  0  0
 25 16  1  0  0  0  0
 26 32  1  1  0  0  0
 26 27  1  0  0  0  0
 26 30  1  0  0  0  0
 27 29  1  0  0  0  0
 28 30  1  1  0  0  0
 28 31  1  0  0  0  0
 28 21  1  0  0  0  0
 29 31  1  0  0  0  0
 33 34  1  0  0  0  0
 34 10  1  0  0  0  0
M  END
>  <MODEL>
4

>  <REMARK>
 VINA RESULT:      -6.6      2.486      5.807
  Name = 
  2 active torsions:
  status: ('A' for Active; 'I' for Inactive)
    1  A    between atoms: C_12  and  C_28
    2  A    between atoms: N_13  and  C_33
                            x       y       z     vdW  Elec       q    Type
                         _______ _______ _______ _____ _____    ______ ____

>  <TORSDO>
F 2

$$$$
=
 OpenBabel11052418413D

 34 38  0  0  1  0  0  0  0  0999 V2000
  193.4940  170.1160  143.3050 C   0  0  0  0  0  0  0  0  0  0  0  0
  194.7650  171.9480  144.4950 C   0  0  0  0  0  0  0  0  0  0  0  0
  193.5330  176.0430  143.6910 C   0  0  0  0  0  0  0  0  0  0  0  0
  192.3030  172.1110  144.0590 C   0  0  0  0  0  0  0  0  0  0  0  0
  190.2790  174.6370  144.5010 C   0  0  0  0  0  2  0  0  0  0  0  0
  192.2530  168.3370  142.0410 C   0  0  0  0  0  1  0  0  0  0  0  0
  195.8310  171.2790  144.5700 O   0  0  0  0  0  0  0  0  0  0  0  0
  193.5130  173.6230  145.7540 C   0  0  0  0  0  2  0  0  0  0  0  0
  196.8890  176.7910  143.1130 C   0  0  0  0  0  1  0  0  0  0  0  0
  194.7990  176.3110  144.3170 N   0  0  0  0  0  0  0  0  0  0  0  0
  196.0030  175.7220  143.7260 C   0  0  2  0  0  3  0  0  0  0  0  0
  193.5070  171.3640  143.9570 C   0  0  0  0  0  0  0  0  0  0  0  0
  193.4570  175.9580  142.4360 O   0  0  0  0  0  0  0  0  0  0  0  0
  191.7000  174.5090  144.1690 N   0  0  1  0  0  0  0  0  0  0  0  0
  194.6480  169.3410  143.2110 O   0  0  0  0  0  1  0  0  0  0  0  0
  195.9830  173.9060  145.5950 C   0  0  0  0  0  2  0  0  0  0  0  0
  191.1500  171.6380  143.3810 C   0  0  0  0  0  0  0  0  0  0  0  0
  192.3050  169.6530  142.7360 C   0  0  0  0  0  0  0  0  0  0  0  0
  194.7350  173.3870  144.8940 C   0  0  1  0  0  3  0  0  0  0  0  0
  189.5030  173.3110  144.3950 C   0  0  0  0  0  2  0  0  0  0  0  0
  189.8930  172.4640  143.1740 C   0  0  1  0  0  3  0  0  0  0  0  0
  192.3060  175.7990  144.5160 C   0  0  0  0  0  2  0  0  0  0  0  0
  192.2400  173.3630  144.9290 C   0  0  1  0  0  3  0  0  0  0  0  0
  191.1910  170.4280  142.7640 N   0  0  0  0  0  0  0  0  0  0  0  0
  196.8050  174.8610  144.7160 C   0  0  0  0  0  2  0  0  0  0  0  0
  190.6290  173.3740  139.4740 C   0  0  1  0  0  3  0  0  0  0  0  0
  189.2860  173.3620  139.0530 O   0  0  0  0  0  0  0  0  0  0  0  0
  189.9080  173.2660  141.8580 C   0  0  1  0  0  3  0  0  0  0  0  0
  188.5680  174.1640  139.9570 C   0  0  0  0  0  2  0  0  0  0  0  0
  190.7690  172.5970  140.7830 C   0  0  0  0  0  2  0  0  0  0  0  0
  188.4890  173.4730  141.3190 C   0  0  0  0  0  2  0  0  0  0  0  0
  191.4970  172.7320  138.4130 C   0  0  0  0  0  1  0  0  0  0  0  0
  194.1910  176.7910  146.6480 C   0  0  0  0  0  1  0  0  0  0  0  0
  194.9050  177.2840  145.4030 C   0  0  0  0  0  2  0  0  0  0  0  0
  1 12  1  0  0  0  0
  2  7  2  0  0  0  0
  2 19  1  0  0  0  0
  3 10  1  0  0  0  0
  3 22  1  0  0  0  0
  4 23  1  0  0  0  0
  6 18  1  0  0  0  0
 10 34  1  0  0  0  0
 11  9  1  1  0  0  0
 11 10  1  0  0  0  0
 11 25  1  0  0  0  0
 12  4  2  0  0  0  0
 12  2  1  0  0  0  0
 13  3  2  0  0  0  0
 14  5  1  1  0  0  0
 14 22  1  0  0  0  0
 14 23  1  0  0  0  0
 15  1  1  0  0  0  0
 17  4  1  0  0  0  0
 18 24  1  0  0  0  0
 18  1  2  0  0  0  0
 19 16  1  1  0  0  0
 19  8  1  0  0  0  0
 20  5  1  0  0  0  0
 21 17  1  0  0  0  0
 21 20  1  1  0  0  0
 23  8  1  6  0  0  0
 24 17  2  0  0  0  0
 25 16  1  0  0  0  0
 26 32  1  6  0  0  0
 26 30  1  0  0  0  0
 27 26  1  0  0  0  0
 27 29  1  0  0  0  0
 28 30  1  6  0  0  0
 28 21  1  0  0  0  0
 29 31  1  0  0  0  0
 31 28  1  0  0  0  0
 34 33  1  0  0  0  0
M  END
>  <MODEL>
5

>  <REMARK>
 VINA RESULT:      -6.3      2.458      6.115
  Name = 
  2 active torsions:
  status: ('A' for Active; 'I' for Inactive)
    1  A    between atoms: C_12  and  C_28
    2  A    between atoms: N_13  and  C_33
                            x       y       z     vdW  Elec       q    Type
                         _______ _______ _______ _____ _____    ______ ____

>  <TORSDO>
F 2

$$$$
=
 OpenBabel11052418413D

 34 38  0  0  1  0  0  0  0  0999 V2000
  195.2150  174.9310  144.0220 C   0  0  0  0  0  0  0  0  0  0  0  0
  193.0810  176.1200  144.6720 C   0  0  0  0  0  0  0  0  0  0  0  0
  189.4480  174.9160  142.6020 C   0  0  0  0  0  0  0  0  0  0  0  0
  193.1140  173.6870  144.0710 C   0  0  0  0  0  0  0  0  0  0  0  0
  190.6190  171.6280  143.6170 C   0  0  0  0  0  2  0  0  0  0  0  0
  197.3200  173.7780  143.2870 C   0  0  0  0  0  1  0  0  0  0  0  0
  193.6720  177.1830  145.0050 O   0  0  0  0  0  0  0  0  0  0  0  0
  191.1340  174.7860  145.2950 C   0  0  0  0  0  2  0  0  0  0  0  0
  188.8310  178.2980  142.0130 C   0  0  0  0  0  1  0  0  0  0  0  0
  188.9740  176.1410  143.1870 N   0  0  0  0  0  0  0  0  0  0  0  0
  189.6860  177.3810  142.8700 C   0  0  2  0  0  3  0  0  0  0  0  0
  193.8290  174.8990  144.2670 C   0  0  0  0  0  0  0  0  0  0  0  0
  189.9080  174.9170  141.4300 O   0  0  0  0  0  0  0  0  0  0  0  0
  190.8080  173.0660  143.4190 N   0  0  1  0  0  0  0  0  0  0  0  0
  195.9550  176.0930  144.2300 O   0  0  0  0  0  1  0  0  0  0  0  0
  190.8550  177.2590  145.1960 C   0  0  0  0  0  2  0  0  0  0  0  0
  193.7950  172.5790  143.5050 C   0  0  0  0  0  0  0  0  0  0  0  0
  195.8550  173.7810  143.5540 C   0  0  0  0  0  0  0  0  0  0  0  0
  191.5900  176.0580  144.6150 C   0  0  1  0  0  3  0  0  0  0  0  0
  191.9330  170.8660  143.8730 C   0  0  0  0  0  2  0  0  0  0  0  0
  193.0990  171.3330  142.9890 C   0  0  1  0  0  3  0  0  0  0  0  0
  189.4600  173.6440  143.3930 C   0  0  0  0  0  2  0  0  0  0  0  0
  191.6590  173.5660  144.5180 C   0  0  1  0  0  3  0  0  0  0  0  0
  195.1340  172.6640  143.2850 N   0  0  0  0  0  0  0  0  0  0  0  0
  190.1900  178.1270  144.1160 C   0  0  0  0  0  2  0  0  0  0  0  0
  192.7800  172.7680  139.3970 C   0  0  1  0  0  3  0  0  0  0  0  0
  193.6080  171.8090  138.7840 O   0  0  0  0  0  0  0  0  0  0  0  0
  192.7310  171.4220  141.4950 C   0  0  1  0  0  3  0  0  0  0  0  0
  193.1430  170.5470  139.1970 C   0  0  0  0  0  2  0  0  0  0  0  0
  193.0470  172.7980  140.9020 C   0  0  0  0  0  2  0  0  0  0  0  0
  193.4470  170.3400  140.6810 C   0  0  0  0  0  2  0  0  0  0  0  0
  193.0680  174.1340  138.8090 C   0  0  0  0  0  1  0  0  0  0  0  0
  186.5280  176.0080  143.0070 C   0  0  0  0  0  1  0  0  0  0  0  0
  187.7170  176.1770  143.9330 C   0  0  0  0  0  2  0  0  0  0  0  0
  1 15  1  0  0  0  0
  1 12  1  0  0  0  0
  2  7  2  0  0  0  0
  3 10  1  0  0  0  0
  3 22  1  0  0  0  0
  4 12  2  0  0  0  0
  4 23  1  0  0  0  0
  5 20  1  0  0  0  0
  6 18  1  0  0  0  0
 10 34  1  0  0  0  0
 11  9  1  1  0  0  0
 11 10  1  0  0  0  0
 11 25  1  0  0  0  0
 12  2  1  0  0  0  0
 13  3  2  0  0  0  0
 14 22  1  1  0  0  0
 14  5  1  0  0  0  0
 14 23  1  0  0  0  0
 17  4  1  0  0  0  0
 18  1  2  0  0  0  0
 19  2  1  0  0  0  0
 19 16  1  1  0  0  0
 19  8  1  0  0  0  0
 21 17  1  0  0  0  0
 21 20  1  1  0  0  0
 23  8  1  6  0  0  0
 24 17  2  0  0  0  0
 24 18  1  0  0  0  0
 25 16  1  0  0  0  0
 26 32  1  6  0  0  0
 26 30  1  0  0  0  0
 27 29  1  0  0  0  0
 27 26  1  0  0  0  0
 28 31  1  6  0  0  0
 28 21  1  0  0  0  0
 29 31  1  0  0  0  0
 30 28  1  0  0  0  0
 33 34  1  0  0  0  0
M  END
>  <MODEL>
6

>  <REMARK>
 VINA RESULT:      -6.3      2.396      5.009
  Name = 
  2 active torsions:
  status: ('A' for Active; 'I' for Inactive)
    1  A    between atoms: C_12  and  C_28
    2  A    between atoms: N_13  and  C_33
                            x       y       z     vdW  Elec       q    Type
                         _______ _______ _______ _____ _____    ______ ____

>  <TORSDO>
F 2

$$$$
=
 OpenBabel11052418413D

 34 38  0  0  1  0  0  0  0  0999 V2000
  190.2760  177.0020  142.9270 C   0  0  0  0  0  0  0  0  0  0  0  0
  189.4150  174.8660  141.8860 C   0  0  0  0  0  0  0  0  0  0  0  0
  192.3360  171.7340  141.1160 C   0  0  0  0  0  0  0  0  0  0  0  0
  191.2510  174.8630  143.5920 C   0  0  0  0  0  0  0  0  0  0  0  0
  193.1490  172.4010  144.5960 C   0  0  0  0  0  2  0  0  0  0  0  0
  191.1910  179.1320  143.8880 C   0  0  0  0  0  1  0  0  0  0  0  0
  188.4620  175.4370  141.2900 O   0  0  0  0  0  0  0  0  0  0  0  0
  189.9460  172.7370  142.9580 C   0  0  0  0  0  2  0  0  0  0  0  0
  191.0390  171.5120  137.8860 C   0  0  0  0  0  1  0  0  0  0  0  0
  191.2520  171.2260  140.3200 N   0  0  0  0  0  0  0  0  0  0  0  0
  190.7140  172.0780  139.2570 C   0  0  2  0  0  3  0  0  0  0  0  0
  190.3080  175.5980  142.8240 C   0  0  0  0  0  0  0  0  0  0  0  0
  193.2240  172.4520  140.5840 O   0  0  0  0  0  0  0  0  0  0  0  0
  192.4840  172.7330  143.3340 N   0  0  1  0  0  0  0  0  0  0  0  0
  189.3470  177.7540  142.2110 O   0  0  0  0  0  1  0  0  0  0  0  0
  188.6990  172.6660  140.8030 C   0  0  0  0  0  2  0  0  0  0  0  0
  192.2220  175.5760  144.3400 C   0  0  0  0  0  0  0  0  0  0  0  0
  191.1970  177.6490  143.7530 C   0  0  0  0  0  0  0  0  0  0  0  0
  189.7260  173.4270  141.6300 C   0  0  1  0  0  3  0  0  0  0  0  0
  193.1590  173.5630  145.6070 C   0  0  0  0  0  2  0  0  0  0  0  0
  193.4430  174.9320  144.9720 C   0  0  1  0  0  3  0  0  0  0  0  0
  192.3930  171.4720  142.5900 C   0  0  0  0  0  2  0  0  0  0  0  0
  191.1770  173.3400  143.6570 C   0  0  1  0  0  3  0  0  0  0  0  0
  192.1480  176.9330  144.4030 N   0  0  0  0  0  0  0  0  0  0  0  0
  189.2030  172.3310  139.3900 C   0  0  0  0  0  2  0  0  0  0  0  0
  195.5810  175.3630  141.7620 C   0  0  1  0  0  3  0  0  0  0  0  0
  196.3960  176.3930  142.2680 O   0  0  0  0  0  0  0  0  0  0  0  0
  194.6720  174.9270  144.0420 C   0  0  1  0  0  3  0  0  0  0  0  0
  196.8820  175.9520  143.5130 C   0  0  0  0  0  2  0  0  0  0  0  0
  194.3030  175.2570  142.5920 C   0  0  0  0  0  2  0  0  0  0  0  0
  195.7420  175.9080  144.5310 C   0  0  0  0  0  2  0  0  0  0  0  0
  195.2210  175.6660  140.3220 C   0  0  0  0  0  1  0  0  0  0  0  0
  191.9580  168.8780  140.1670 C   0  0  0  0  0  1  0  0  0  0  0  0
  190.8160  169.8360  140.4500 C   0  0  0  0  0  2  0  0  0  0  0  0
  1 18  1  0  0  0  0
  2 12  1  0  0  0  0
  3 22  1  0  0  0  0
  4 23  1  0  0  0  0
  4 17  2  0  0  0  0
  5 20  1  0  0  0  0
  7  2  2  0  0  0  0
 10 34  1  0  0  0  0
 10  3  1  0  0  0  0
 11  9  1  6  0  0  0
 11 25  1  0  0  0  0
 11 10  1  0  0  0  0
 12  1  2  0  0  0  0
 12  4  1  0  0  0  0
 13  3  2  0  0  0  0
 14 22  1  6  0  0  0
 14 23  1  0  0  0  0
 14  5  1  0  0  0  0
 15  1  1  0  0  0  0
 17 24  1  0  0  0  0
 17 21  1  0  0  0  0
 18  6  1  0  0  0  0
 18 24  2  0  0  0  0
 19 16  1  1  0  0  0
 19  2  1  0  0  0  0
 19  8  1  0  0  0  0
 21 20  1  6  0  0  0
 23  8  1  6  0  0  0
 25 16  1  0  0  0  0
 26 32  1  6  0  0  0
 26 27  1  0  0  0  0
 26 30  1  0  0  0  0
 27 29  1  0  0  0  0
 28 30  1  6  0  0  0
 28 31  1  0  0  0  0
 28 21  1  0  0  0  0
 29 31  1  0  0  0  0
 33 34  1  0  0  0  0
M  END
>  <MODEL>
7

>  <REMARK>
 VINA RESULT:      -6.3      2.728      5.786
  Name = 
  2 active torsions:
  status: ('A' for Active; 'I' for Inactive)
    1  A    between atoms: C_12  and  C_28
    2  A    between atoms: N_13  and  C_33
                            x       y       z     vdW  Elec       q    Type
                         _______ _______ _______ _____ _____    ______ ____

>  <TORSDO>
F 2

$$$$
=
 OpenBabel11052418413D

 34 38  0  0  1  0  0  0  0  0999 V2000
  187.1320  177.0320  141.8280 C   0  0  0  0  0  0  0  0  0  0  0  0
  188.1110  175.0600  140.5870 C   0  0  0  0  0  0  0  0  0  0  0  0
  192.0430  173.6930  141.8510 C   0  0  0  0  0  0  0  0  0  0  0  0
  188.4650  175.3870  143.0460 C   0  0  0  0  0  0  0  0  0  0  0  0
  190.4110  173.7530  145.0990 C   0  0  0  0  0  2  0  0  0  0  0  0
  186.2360  179.0410  143.0370 C   0  0  0  0  0  1  0  0  0  0  0  0
  187.4990  175.3200  139.5150 O   0  0  0  0  0  0  0  0  0  0  0  0
  188.9120  173.1430  141.8690 C   0  0  0  0  0  2  0  0  0  0  0  0
  192.9920  173.7650  138.4960 C   0  0  0  0  0  1  0  0  0  0  0  0
  191.9610  173.0000  140.5940 N   0  0  0  0  0  0  0  0  0  0  0  0
  191.7570  173.7910  139.3780 C   0  0  2  0  0  3  0  0  0  0  0  0
  187.8760  175.8370  141.8330 C   0  0  0  0  0  0  0  0  0  0  0  0
  192.6060  174.8190  141.9120 O   0  0  0  0  0  0  0  0  0  0  0  0
  190.4730  174.0840  143.6740 N   0  0  1  0  0  0  0  0  0  0  0  0
  186.5150  177.4900  140.6660 O   0  0  0  0  0  1  0  0  0  0  0  0
  189.2440  173.1020  139.4000 C   0  0  0  0  0  2  0  0  0  0  0  0
  188.3970  176.2270  144.1870 C   0  0  0  0  0  0  0  0  0  0  0  0
  187.0180  177.7730  143.0060 C   0  0  0  0  0  0  0  0  0  0  0  0
  189.1480  173.9870  140.6360 C   0  0  1  0  0  3  0  0  0  0  0  0
  189.3200  174.5280  145.8610 C   0  0  0  0  0  2  0  0  0  0  0  0
  189.2100  176.0040  145.4500 C   0  0  1  0  0  3  0  0  0  0  0  0
  191.4110  173.1230  143.0840 C   0  0  0  0  0  2  0  0  0  0  0  0
  189.1020  174.0030  143.1300 C   0  0  1  0  0  3  0  0  0  0  0  0
  187.6670  177.3730  144.1270 N   0  0  0  0  0  0  0  0  0  0  0  0
  190.5150  173.3630  138.5790 C   0  0  0  0  0  2  0  0  0  0  0  0
  193.0180  176.6170  145.8770 C   0  0  1  0  0  3  0  0  0  0  0  0
  193.2910  176.7910  144.5070 O   0  0  0  0  0  0  0  0  0  0  0  0
  190.5690  176.7320  145.4290 C   0  0  1  0  0  3  0  0  0  0  0  0
  192.3680  177.7350  144.0250 C   0  0  0  0  0  2  0  0  0  0  0  0
  191.6860  175.8900  146.0530 C   0  0  0  0  0  2  0  0  0  0  0  0
  190.9640  177.1280  144.0030 C   0  0  0  0  0  2  0  0  0  0  0  0
  194.1240  175.8010  146.5130 C   0  0  0  0  0  1  0  0  0  0  0  0
  193.6530  171.2650  140.9950 C   0  0  0  0  0  1  0  0  0  0  0  0
  192.2490  171.5690  140.5090 C   0  0  0  0  0  2  0  0  0  0  0  0
  1 12  2  0  0  0  0
  1 18  1  0  0  0  0
  2 19  1  0  0  0  0
  2 12  1  0  0  0  0
  3 13  2  0  0  0  0
  3 22  1  0  0  0  0
  4 23  1  0  0  0  0
  4 17  2  0  0  0  0
  5 20  1  0  0  0  0
  7  2  2  0  0  0  0
 10  3  1  0  0  0  0
 11  9  1  6  0  0  0
 11 10  1  0  0  0  0
 12  4  1  0  0  0  0
 14 22  1  6  0  0  0
 14  5  1  0  0  0  0
 15  1  1  0  0  0  0
 17 21  1  0  0  0  0
 18  6  1  0  0  0  0
 18 24  2  0  0  0  0
 19 16  1  6  0  0  0
 19  8  1  0  0  0  0
 21 20  1  6  0  0  0
 23  8  1  6  0  0  0
 23 14  1  0  0  0  0
 24 17  1  0  0  0  0
 25 11  1  0  0  0  0
 25 16  1  0  0  0  0
 26 30  1  0  0  0  0
 26 32  1  6  0  0  0
 27 26  1  0  0  0  0
 28 31  1  6  0  0  0
 28 21  1  0  0  0  0
 28 30  1  0  0  0  0
 29 27  1  0  0  0  0
 31 29  1  0  0  0  0
 34 10  1  0  0  0  0
 34 33  1  0  0  0  0
M  END
>  <MODEL>
8

>  <REMARK>
 VINA RESULT:      -6.2      2.991      6.595
  Name = 
  2 active torsions:
  status: ('A' for Active; 'I' for Inactive)
    1  A    between atoms: C_12  and  C_28
    2  A    between atoms: N_13  and  C_33
                            x       y       z     vdW  Elec       q    Type
                         _______ _______ _______ _____ _____    ______ ____

>  <TORSDO>
F 2

$$$$
=
 OpenBabel11052418413D

 34 38  0  0  1  0  0  0  0  0999 V2000
  192.7650  176.3300  144.8630 C   0  0  0  0  0  0  0  0  0  0  0  0
  194.8890  175.0500  145.3460 C   0  0  0  0  0  0  0  0  0  0  0  0
  195.4310  171.2710  143.2580 C   0  0  0  0  0  0  0  0  0  0  0  0
  193.8560  175.0900  143.0630 C   0  0  0  0  0  0  0  0  0  0  0  0
  194.6420  173.3720  140.3980 C   0  0  0  0  0  2  0  0  0  0  0  0
  190.6040  177.5240  144.4100 C   0  0  0  0  0  1  0  0  0  0  0  0
  195.0040  175.5090  146.5150 O   0  0  0  0  0  0  0  0  0  0  0  0
  196.2800  174.3280  143.4740 C   0  0  0  0  0  2  0  0  0  0  0  0
  196.1960  169.8370  146.3440 C   0  0  0  0  0  1  0  0  0  0  0  0
  196.4510  171.1190  144.2600 N   0  0  0  0  0  0  0  0  0  0  0  0
  196.0550  171.1890  145.6680 C   0  0  2  0  0  3  0  0  0  0  0  0
  193.8260  175.5190  144.4180 C   0  0  0  0  0  0  0  0  0  0  0  0
  194.2810  170.7980  143.4560 O   0  0  0  0  0  0  0  0  0  0  0  0
  194.7160  173.1190  141.8380 N   0  0  1  0  0  0  0  0  0  0  0  0
  192.7150  176.7930  146.1750 O   0  0  0  0  0  1  0  0  0  0  0  0
  196.9710  173.6280  145.7620 C   0  0  0  0  0  2  0  0  0  0  0  0
  192.7440  175.3820  142.2320 C   0  0  0  0  0  0  0  0  0  0  0  0
  191.7410  176.6660  143.9740 C   0  0  0  0  0  0  0  0  0  0  0  0
  195.7920  173.9640  144.8590 C   0  0  1  0  0  3  0  0  0  0  0  0
  193.8050  174.6130  140.0360 C   0  0  0  0  0  2  0  0  0  0  0  0
  192.5210  174.7550  140.8680 C   0  0  1  0  0  3  0  0  0  0  0  0
  195.6990  172.0430  142.0020 C   0  0  0  0  0  2  0  0  0  0  0  0
  195.0880  174.3840  142.5020 C   0  0  1  0  0  3  0  0  0  0  0  0
  191.7440  176.1680  142.7130 N   0  0  0  0  0  0  0  0  0  0  0  0
  196.8160  172.2670  146.4580 C   0  0  0  0  0  2  0  0  0  0  0  0
  190.0410  172.0790  142.1910 C   0  0  1  0  0  3  0  0  0  0  0  0
  189.1010  172.2280  141.1550 O   0  0  0  0  0  0  0  0  0  0  0  0
  191.6900  173.4590  140.9290 C   0  0  1  0  0  3  0  0  0  0  0  0
  189.8130  172.1460  139.9440 C   0  0  0  0  0  2  0  0  0  0  0  0
  190.9410  173.3120  142.2570 C   0  0  0  0  0  2  0  0  0  0  0  0
  190.6900  173.3860  139.7700 C   0  0  0  0  0  2  0  0  0  0  0  0
  189.3160  171.9160  143.5110 C   0  0  0  0  0  1  0  0  0  0  0  0
  197.8210  169.3880  143.1830 C   0  0  0  0  0  1  0  0  0  0  0  0
  197.8110  170.7300  143.8900 C   0  0  0  0  0  2  0  0  0  0  0  0
  1 15  1  0  0  0  0
  2  7  2  0  0  0  0
  3 13  2  0  0  0  0
  3 10  1  0  0  0  0
  4 12  2  0  0  0  0
 10 11  1  0  0  0  0
 11  9  1  1  0  0  0
 11 25  1  0  0  0  0
 12  1  1  0  0  0  0
 12  2  1  0  0  0  0
 14  5  1  6  0  0  0
 14 22  1  0  0  0  0
 14 23  1  0  0  0  0
 16 25  1  0  0  0  0
 17 24  2  0  0  0  0
 17  4  1  0  0  0  0
 18  6  1  0  0  0  0
 18  1  2  0  0  0  0
 19  8  1  6  0  0  0
 19  2  1  0  0  0  0
 19 16  1  0  0  0  0
 20  5  1  0  0  0  0
 21 20  1  1  0  0  0
 21 28  1  0  0  0  0
 21 17  1  0  0  0  0
 22  3  1  0  0  0  0
 23  4  1  0  0  0  0
 23  8  1  1  0  0  0
 24 18  1  0  0  0  0
 26 30  1  0  0  0  0
 26 32  1  1  0  0  0
 27 26  1  0  0  0  0
 28 31  1  6  0  0  0
 28 30  1  0  0  0  0
 29 27  1  0  0  0  0
 31 29  1  0  0  0  0
 33 34  1  0  0  0  0
 34 10  1  0  0  0  0
M  END
>  <MODEL>
9

>  <REMARK>
 VINA RESULT:      -6.1      2.175      6.491
  Name = 
  2 active torsions:
  status: ('A' for Active; 'I' for Inactive)
    1  A    between atoms: C_12  and  C_28
    2  A    between atoms: N_13  and  C_33
                            x       y       z     vdW  Elec       q    Type
                         _______ _______ _______ _____ _____    ______ ____

>  <TORSDO>
F 2

$$$$
