=
 OpenBabel11052417293D

 25 26  0  0  1  0  0  0  0  0999 V2000
  188.0020  177.1340  144.8640 N   0  0  0  0  0  0  0  0  0  0  0  0
  189.3300  177.2160  144.6710 C   0  0  0  0  0  0  0  0  0  0  0  0
  189.0180  174.9320  147.2820 C   0  0  0  0  0  1  0  0  0  0  0  0
  188.9340  175.8090  146.2880 C   0  0  0  0  0  0  0  0  0  0  0  0
  191.3240  176.1680  145.6920 C   0  0  2  0  0  3  0  0  0  0  0  0
  191.8780  175.1800  146.6650 C   0  0  0  0  0  1  0  0  0  0  0  0
  189.8760  177.9370  143.7450 N   0  0  0  0  0  1  0  0  0  0  0  0
  187.7500  176.2840  145.8470 N   0  0  0  0  0  0  0  0  0  0  0  0
  189.9910  176.3780  145.5650 C   0  0  0  0  0  0  0  0  0  0  0  0
  186.9770  177.8550  144.1160 C   0  0  1  0  0  3  0  0  0  0  0  0
  184.1740  178.6160  143.6890 C   0  0  0  0  0  2  0  0  0  0  0  0
  185.9720  176.8800  143.4900 C   0  0  1  0  0  3  0  0  0  0  0  0
  184.8790  177.6440  142.7470 C   0  0  0  0  0  2  0  0  0  0  0  0
  185.1820  179.6020  144.2700 C   0  0  0  0  0  2  0  0  0  0  0  0
  186.6520  175.9990  142.5560 N   0  0  0  0  0  1  0  0  0  0  0  0
  186.2660  178.8500  145.0360 C   0  0  0  0  0  2  0  0  0  0  0  0
  192.3270  176.8950  144.8520 C   0  0  0  0  0  2  0  0  0  0  0  0
  193.1750  175.9010  144.0720 C   0  0  0  0  0  2  0  0  0  0  0  0
  192.4660  175.4810  142.7950 C   0  0  0  0  0  2  0  0  0  0  0  0
  190.5430  173.8690  143.0770 N   0  0  0  0  0  2  0  0  0  0  0  0
  191.9450  174.0890  142.9140 C   0  0  0  0  0  0  0  0  0  0  0  0
  192.7510  173.1200  142.8980 O   0  0  0  0  0  0  0  0  0  0  0  0
  189.7500  172.2510  144.6960 C   0  0  0  0  0  1  0  0  0  0  0  0
  188.6410  172.4640  142.4980 C   0  0  0  0  0  1  0  0  0  0  0  0
  189.9690  172.5390  143.2260 C   0  0  0  0  0  3  0  0  0  0  0  0
  1  8  1  0  0  0  0
  2  1  1  0  0  0  0
  2  9  2  0  0  0  0
  4  3  1  0  0  0  0
  5  6  1  6  0  0  0
  7  2  1  0  0  0  0
  8  4  2  0  0  0  0
  9  5  1  0  0  0  0
  9  4  1  0  0  0  0
 10  1  1  1  0  0  0
 10 16  1  0  0  0  0
 11 14  1  0  0  0  0
 12 15  1  6  0  0  0
 12 10  1  0  0  0  0
 13 12  1  0  0  0  0
 13 11  1  0  0  0  0
 14 16  1  0  0  0  0
 17  5  1  0  0  0  0
 18 17  1  0  0  0  0
 19 21  1  0  0  0  0
 19 18  1  0  0  0  0
 20 25  1  0  0  0  0
 21 20  1  0  0  0  0
 22 21  2  0  0  0  0
 24 25  1  0  0  0  0
 25 23  1  0  0  0  0
M  END
>  <MODEL>
1

>  <REMARK>
 VINA RESULT:      -6.6      0.000      0.000
  Name = 
  6 active torsions:
  status: ('A' for Active; 'I' for Inactive)
    1  A    between atoms: N_1  and  C_5
    2  A    between atoms: N_2  and  C_21
    3  A    between atoms: C_6  and  C_15
    4  A    between atoms: C_6  and  C_23
    5  A    between atoms: C_13  and  C_20
    6  A    between atoms: C_20  and  C_23
                            x       y       z     vdW  Elec       q    Type
                         _______ _______ _______ _____ _____    ______ ____

>  <TORSDO>
F 6

$$$$
=
 OpenBabel11052417293D

 25 26  0  0  1  0  0  0  0  0999 V2000
  188.0990  177.0000  145.0860 N   0  0  0  0  0  0  0  0  0  0  0  0
  189.4330  177.0790  144.9370 C   0  0  0  0  0  0  0  0  0  0  0  0
  189.0260  174.7320  147.4780 C   0  0  0  0  0  1  0  0  0  0  0  0
  188.9780  175.6340  146.5050 C   0  0  0  0  0  0  0  0  0  0  0  0
  191.3890  175.9950  145.9950 C   0  0  2  0  0  3  0  0  0  0  0  0
  191.9060  174.9800  146.9590 C   0  0  0  0  0  1  0  0  0  0  0  0
  190.0120  177.8200  144.0480 N   0  0  0  0  0  1  0  0  0  0  0  0
  187.8120  176.1270  146.0380 N   0  0  0  0  0  0  0  0  0  0  0  0
  190.0620  176.2150  145.8310 C   0  0  0  0  0  0  0  0  0  0  0  0
  187.1020  177.7460  144.3240 C   0  0  1  0  0  3  0  0  0  0  0  0
  184.3170  178.5270  143.8220 C   0  0  0  0  0  2  0  0  0  0  0  0
  186.1180  176.7920  143.6350 C   0  0  1  0  0  3  0  0  0  0  0  0
  185.0520  177.5810  142.8780 C   0  0  0  0  0  2  0  0  0  0  0  0
  185.3060  179.4920  144.4670 C   0  0  0  0  0  2  0  0  0  0  0  0
  186.8290  175.9360  142.7000 N   0  0  0  0  0  1  0  0  0  0  0  0
  186.3610  178.7150  145.2470 C   0  0  0  0  0  2  0  0  0  0  0  0
  192.4210  176.7360  145.2060 C   0  0  0  0  0  2  0  0  0  0  0  0
  193.7280  176.8000  145.9820 C   0  0  0  0  0  2  0  0  0  0  0  0
  194.9140  176.8230  145.0320 C   0  0  0  0  0  2  0  0  0  0  0  0
  195.2920  174.3890  145.5900 N   0  0  0  0  0  2  0  0  0  0  0  0
  195.2880  175.4390  144.6210 C   0  0  0  0  0  0  0  0  0  0  0  0
  195.6250  175.2150  143.4270 O   0  0  0  0  0  0  0  0  0  0  0  0
  196.8770  172.6270  146.0900 C   0  0  0  0  0  1  0  0  0  0  0  0
  194.5240  172.0790  145.5700 C   0  0  0  0  0  1  0  0  0  0  0  0
  195.6720  173.0220  145.2630 C   0  0  0  0  0  3  0  0  0  0  0  0
  1  8  1  0  0  0  0
  2  1  1  0  0  0  0
  2  9  2  0  0  0  0
  4  3  1  0  0  0  0
  5  6  1  6  0  0  0
  7  2  1  0  0  0  0
  8  4  2  0  0  0  0
  9  5  1  0  0  0  0
  9  4  1  0  0  0  0
 10  1  1  1  0  0  0
 10 16  1  0  0  0  0
 11 14  1  0  0  0  0
 12 15  1  6  0  0  0
 12 10  1  0  0  0  0
 13 12  1  0  0  0  0
 13 11  1  0  0  0  0
 14 16  1  0  0  0  0
 17 18  1  0  0  0  0
 17  5  1  0  0  0  0
 19 18  1  0  0  0  0
 21 19  1  0  0  0  0
 21 20  1  0  0  0  0
 22 21  2  0  0  0  0
 25 24  1  0  0  0  0
 25 20  1  0  0  0  0
 25 23  1  0  0  0  0
M  END
>  <MODEL>
2

>  <REMARK>
 VINA RESULT:      -6.5      2.179      2.905
  Name = 
  6 active torsions:
  status: ('A' for Active; 'I' for Inactive)
    1  A    between atoms: N_1  and  C_5
    2  A    between atoms: N_2  and  C_21
    3  A    between atoms: C_6  and  C_15
    4  A    between atoms: C_6  and  C_23
    5  A    between atoms: C_13  and  C_20
    6  A    between atoms: C_20  and  C_23
                            x       y       z     vdW  Elec       q    Type
                         _______ _______ _______ _____ _____    ______ ____

>  <TORSDO>
F 6

$$$$
=
 OpenBabel11052417293D

 25 26  0  0  1  0  0  0  0  0999 V2000
  188.1270  176.9990  145.0270 N   0  0  0  0  0  0  0  0  0  0  0  0
  189.4650  177.1000  144.9550 C   0  0  0  0  0  0  0  0  0  0  0  0
  188.9540  174.7150  147.4410 C   0  0  0  0  0  1  0  0  0  0  0  0
  188.9470  175.6290  146.4770 C   0  0  0  0  0  0  0  0  0  0  0  0
  191.3760  176.0330  146.1080 C   0  0  2  0  0  3  0  0  0  0  0  0
  191.8540  175.0130  147.0870 C   0  0  0  0  0  1  0  0  0  0  0  0
  190.0810  177.8610  144.1080 N   0  0  0  0  0  1  0  0  0  0  0  0
  187.8000  176.1100  145.9520 N   0  0  0  0  0  0  0  0  0  0  0  0
  190.0570  176.2350  145.8720 C   0  0  0  0  0  0  0  0  0  0  0  0
  187.1620  177.7390  144.2190 C   0  0  1  0  0  3  0  0  0  0  0  0
  184.3980  178.4910  143.5770 C   0  0  0  0  0  2  0  0  0  0  0  0
  186.2280  176.7790  143.4720 C   0  0  1  0  0  3  0  0  0  0  0  0
  185.1940  177.5610  142.6650 C   0  0  0  0  0  2  0  0  0  0  0  0
  185.3400  179.4620  144.2800 C   0  0  0  0  0  2  0  0  0  0  0  0
  186.9980  175.9400  142.5690 N   0  0  0  0  0  1  0  0  0  0  0  0
  186.3610  178.6910  145.1090 C   0  0  0  0  0  2  0  0  0  0  0  0
  192.4390  176.8000  145.3870 C   0  0  0  0  0  2  0  0  0  0  0  0
  193.7250  176.8030  146.2000 C   0  0  0  0  0  2  0  0  0  0  0  0
  194.8800  177.3430  145.3720 C   0  0  0  0  0  2  0  0  0  0  0  0
  195.9230  176.5810  143.2020 N   0  0  0  0  0  2  0  0  0  0  0  0
  195.4650  176.2690  144.5190 C   0  0  0  0  0  0  0  0  0  0  0  0
  195.5240  175.0890  144.9570 O   0  0  0  0  0  0  0  0  0  0  0  0
  196.3580  176.0600  140.8760 C   0  0  0  0  0  1  0  0  0  0  0  0
  197.9410  175.3460  142.6330 C   0  0  0  0  0  1  0  0  0  0  0  0
  196.4790  175.5770  142.3060 C   0  0  0  0  0  3  0  0  0  0  0  0
  1  8  1  0  0  0  0
  2  1  1  0  0  0  0
  2  9  2  0  0  0  0
  4  3  1  0  0  0  0
  5  6  1  6  0  0  0
  7  2  1  0  0  0  0
  8  4  2  0  0  0  0
  9  5  1  0  0  0  0
  9  4  1  0  0  0  0
 10  1  1  1  0  0  0
 10 16  1  0  0  0  0
 11 14  1  0  0  0  0
 12 15  1  6  0  0  0
 12 10  1  0  0  0  0
 13 12  1  0  0  0  0
 13 11  1  0  0  0  0
 14 16  1  0  0  0  0
 17  5  1  0  0  0  0
 17 18  1  0  0  0  0
 19 18  1  0  0  0  0
 20 21  1  0  0  0  0
 21 22  2  0  0  0  0
 21 19  1  0  0  0  0
 23 25  1  0  0  0  0
 25 24  1  0  0  0  0
 25 20  1  0  0  0  0
M  END
>  <MODEL>
3

>  <REMARK>
 VINA RESULT:      -6.2      2.267      3.552
  Name = 
  6 active torsions:
  status: ('A' for Active; 'I' for Inactive)
    1  A    between atoms: N_1  and  C_5
    2  A    between atoms: N_2  and  C_21
    3  A    between atoms: C_6  and  C_15
    4  A    between atoms: C_6  and  C_23
    5  A    between atoms: C_13  and  C_20
    6  A    between atoms: C_20  and  C_23
                            x       y       z     vdW  Elec       q    Type
                         _______ _______ _______ _____ _____    ______ ____

>  <TORSDO>
F 6

$$$$
=
 OpenBabel11052417293D

 25 26  0  0  1  0  0  0  0  0999 V2000
  187.7030  176.9320  144.0750 N   0  0  0  0  0  0  0  0  0  0  0  0
  189.0330  177.0190  143.8960 C   0  0  0  0  0  0  0  0  0  0  0  0
  188.1490  174.1670  142.1040 C   0  0  0  0  0  1  0  0  0  0  0  0
  188.2880  175.2700  142.8290 C   0  0  0  0  0  0  0  0  0  0  0  0
  190.7360  175.7010  142.6800 C   0  0  2  0  0  3  0  0  0  0  0  0
  191.0380  174.5620  141.7620 C   0  0  0  0  0  1  0  0  0  0  0  0
  189.7570  177.9810  144.3700 N   0  0  0  0  0  1  0  0  0  0  0  0
  187.2400  175.8710  143.4320 N   0  0  0  0  0  0  0  0  0  0  0  0
  189.4740  175.9680  143.0960 C   0  0  0  0  0  0  0  0  0  0  0  0
  186.8750  177.8540  144.8460 C   0  0  1  0  0  3  0  0  0  0  0  0
  184.3220  178.5620  146.1080 C   0  0  0  0  0  2  0  0  0  0  0  0
  185.6820  178.3400  144.0130 C   0  0  1  0  0  3  0  0  0  0  0  0
  184.7970  179.2690  144.8420 C   0  0  0  0  0  2  0  0  0  0  0  0
  185.5210  178.1210  146.9410 C   0  0  0  0  0  2  0  0  0  0  0  0
  186.1540  179.0570  142.8410 N   0  0  0  0  0  1  0  0  0  0  0  0
  186.3980  177.1730  146.1300 C   0  0  0  0  0  2  0  0  0  0  0  0
  191.9040  176.5390  143.0920 C   0  0  0  0  0  2  0  0  0  0  0  0
  193.1340  175.6660  143.2870 C   0  0  0  0  0  2  0  0  0  0  0  0
  193.8250  175.9980  144.5990 C   0  0  0  0  0  2  0  0  0  0  0  0
  192.2110  176.4160  146.4960 N   0  0  0  0  0  2  0  0  0  0  0  0
  193.0250  175.5040  145.7560 C   0  0  0  0  0  0  0  0  0  0  0  0
  193.0960  174.2900  146.0880 O   0  0  0  0  0  0  0  0  0  0  0  0
  191.3320  177.1610  148.6280 C   0  0  0  0  0  1  0  0  0  0  0  0
  190.0300  175.6070  147.2150 C   0  0  0  0  0  1  0  0  0  0  0  0
  191.4260  176.0060  147.6520 C   0  0  0  0  0  3  0  0  0  0  0  0
  2  1  1  0  0  0  0
  2  7  1  0  0  0  0
  3  4  1  0  0  0  0
  4  9  1  0  0  0  0
  4  8  2  0  0  0  0
  5  6  1  6  0  0  0
  5 17  1  0  0  0  0
  5  9  1  0  0  0  0
  8  1  1  0  0  0  0
  9  2  2  0  0  0  0
 10  1  1  6  0  0  0
 10 16  1  0  0  0  0
 11 14  1  0  0  0  0
 12 15  1  6  0  0  0
 12 13  1  0  0  0  0
 12 10  1  0  0  0  0
 13 11  1  0  0  0  0
 16 14  1  0  0  0  0
 17 18  1  0  0  0  0
 18 19  1  0  0  0  0
 19 21  1  0  0  0  0
 20 25  1  0  0  0  0
 21 22  2  0  0  0  0
 21 20  1  0  0  0  0
 24 25  1  0  0  0  0
 25 23  1  0  0  0  0
M  END
>  <MODEL>
4

>  <REMARK>
 VINA RESULT:      -6.1      1.936      3.421
  Name = 
  6 active torsions:
  status: ('A' for Active; 'I' for Inactive)
    1  A    between atoms: N_1  and  C_5
    2  A    between atoms: N_2  and  C_21
    3  A    between atoms: C_6  and  C_15
    4  A    between atoms: C_6  and  C_23
    5  A    between atoms: C_13  and  C_20
    6  A    between atoms: C_20  and  C_23
                            x       y       z     vdW  Elec       q    Type
                         _______ _______ _______ _____ _____    ______ ____

>  <TORSDO>
F 6

$$$$
=
 OpenBabel11052417293D

 25 26  0  0  1  0  0  0  0  0999 V2000
  187.4710  176.7990  144.1090 N   0  0  0  0  0  0  0  0  0  0  0  0
  188.7980  176.6260  144.2390 C   0  0  0  0  0  0  0  0  0  0  0  0
  187.8920  174.2650  141.8440 C   0  0  0  0  0  1  0  0  0  0  0  0
  188.0410  175.2180  142.7560 C   0  0  0  0  0  0  0  0  0  0  0  0
  190.4870  175.1380  143.2140 C   0  0  2  0  0  3  0  0  0  0  0  0
  190.8000  174.0830  142.2050 C   0  0  0  0  0  1  0  0  0  0  0  0
  189.5420  177.3490  145.0130 N   0  0  0  0  0  1  0  0  0  0  0  0
  187.0000  175.9470  143.2120 N   0  0  0  0  0  0  0  0  0  0  0  0
  189.2300  175.6120  143.3860 C   0  0  0  0  0  0  0  0  0  0  0  0
  186.6550  177.7730  144.8270 C   0  0  1  0  0  3  0  0  0  0  0  0
  184.0660  178.6670  145.8810 C   0  0  0  0  0  2  0  0  0  0  0  0
  185.5820  178.3690  143.9070 C   0  0  1  0  0  3  0  0  0  0  0  0
  184.7050  179.3530  144.6780 C   0  0  0  0  0  2  0  0  0  0  0  0
  185.1480  178.1160  146.8030 C   0  0  0  0  0  2  0  0  0  0  0  0
  186.2110  179.0650  142.7960 N   0  0  0  0  0  1  0  0  0  0  0  0
  186.0150  177.1130  146.0490 C   0  0  0  0  0  2  0  0  0  0  0  0
  191.6480  175.6550  144.0030 C   0  0  0  0  0  2  0  0  0  0  0  0
  191.9560  174.7150  145.1590 C   0  0  0  0  0  2  0  0  0  0  0  0
  192.5340  175.4850  146.3350 C   0  0  0  0  0  2  0  0  0  0  0  0
  194.7880  174.4970  145.7670 N   0  0  0  0  0  2  0  0  0  0  0  0
  194.0140  175.6150  146.2050 C   0  0  0  0  0  0  0  0  0  0  0  0
  194.5710  176.7040  146.5090 O   0  0  0  0  0  0  0  0  0  0  0  0
  196.8260  173.2330  146.1130 C   0  0  0  0  0  1  0  0  0  0  0  0
  196.6250  174.7780  144.1960 C   0  0  0  0  0  1  0  0  0  0  0  0
  196.2380  174.5470  145.6430 C   0  0  0  0  0  3  0  0  0  0  0  0
  1  2  1  0  0  0  0
  2  7  1  0  0  0  0
  3  4  1  0  0  0  0
  4  8  2  0  0  0  0
  4  9  1  0  0  0  0
  5  6  1  6  0  0  0
  5  9  1  0  0  0  0
  5 17  1  0  0  0  0
  8  1  1  0  0  0  0
  9  2  2  0  0  0  0
 10  1  1  6  0  0  0
 10 16  1  0  0  0  0
 11 14  1  0  0  0  0
 12 15  1  6  0  0  0
 12 13  1  0  0  0  0
 12 10  1  0  0  0  0
 13 11  1  0  0  0  0
 16 14  1  0  0  0  0
 17 18  1  0  0  0  0
 18 19  1  0  0  0  0
 20 21  1  0  0  0  0
 21 19  1  0  0  0  0
 21 22  2  0  0  0  0
 24 25  1  0  0  0  0
 25 20  1  0  0  0  0
 25 23  1  0  0  0  0
M  END
>  <MODEL>
5

>  <REMARK>
 VINA RESULT:      -6.0      2.596      3.976
  Name = 
  6 active torsions:
  status: ('A' for Active; 'I' for Inactive)
    1  A    between atoms: N_1  and  C_5
    2  A    between atoms: N_2  and  C_21
    3  A    between atoms: C_6  and  C_15
    4  A    between atoms: C_6  and  C_23
    5  A    between atoms: C_13  and  C_20
    6  A    between atoms: C_20  and  C_23
                            x       y       z     vdW  Elec       q    Type
                         _______ _______ _______ _____ _____    ______ ____

>  <TORSDO>
F 6

$$$$
=
 OpenBabel11052417293D

 25 26  0  0  1  0  0  0  0  0999 V2000
  193.1130  174.7520  145.6070 N   0  0  0  0  0  0  0  0  0  0  0  0
  192.1250  175.2150  144.8210 C   0  0  0  0  0  0  0  0  0  0  0  0
  191.1910  176.2510  148.0130 C   0  0  0  0  0  1  0  0  0  0  0  0
  191.7110  175.7780  146.8860 C   0  0  0  0  0  0  0  0  0  0  0  0
  190.0460  176.5050  145.1840 C   0  0  2  0  0  3  0  0  0  0  0  0
  189.1670  177.2490  146.1340 C   0  0  0  0  0  1  0  0  0  0  0  0
  192.1100  175.0790  143.5340 N   0  0  0  0  0  1  0  0  0  0  0  0
  192.8700  175.0860  146.8640 N   0  0  0  0  0  0  0  0  0  0  0  0
  191.1830  175.8910  145.5930 C   0  0  0  0  0  0  0  0  0  0  0  0
  194.2840  174.0010  145.1650 C   0  0  1  0  0  3  0  0  0  0  0  0
  196.7520  172.5230  145.7510 C   0  0  0  0  0  2  0  0  0  0  0  0
  195.5770  174.7300  145.5550 C   0  0  1  0  0  3  0  0  0  0  0  0
  196.7970  173.9160  145.1300 C   0  0  0  0  0  2  0  0  0  0  0  0
  195.4800  171.8010  145.3200 C   0  0  0  0  0  2  0  0  0  0  0  0
  195.6270  176.0310  144.9110 N   0  0  0  0  0  1  0  0  0  0  0  0
  194.2540  172.5930  145.7630 C   0  0  0  0  0  2  0  0  0  0  0  0
  189.6090  176.4990  143.7540 C   0  0  0  0  0  2  0  0  0  0  0  0
  189.2950  177.9160  143.2960 C   0  0  0  0  0  2  0  0  0  0  0  0
  188.1330  177.9160  142.3150 C   0  0  0  0  0  2  0  0  0  0  0  0
  186.3820  178.1990  144.1130 N   0  0  0  0  0  2  0  0  0  0  0  0
  186.8770  177.4730  142.9860 C   0  0  0  0  0  0  0  0  0  0  0  0
  186.2780  176.4460  142.5690 O   0  0  0  0  0  0  0  0  0  0  0  0
  185.5560  176.9140  145.9940 C   0  0  0  0  0  1  0  0  0  0  0  0
  184.4660  179.0380  145.3580 C   0  0  0  0  0  1  0  0  0  0  0  0
  185.1780  177.8070  144.8310 C   0  0  0  0  0  3  0  0  0  0  0  0
  1  8  1  0  0  0  0
  2  9  2  0  0  0  0
  2  1  1  0  0  0  0
  4  3  1  0  0  0  0
  5  9  1  0  0  0  0
  5  6  1  6  0  0  0
  7  2  1  0  0  0  0
  8  4  2  0  0  0  0
  9  4  1  0  0  0  0
 10 12  1  0  0  0  0
 10  1  1  1  0  0  0
 10 16  1  0  0  0  0
 12 15  1  6  0  0  0
 13 12  1  0  0  0  0
 13 11  1  0  0  0  0
 14 11  1  0  0  0  0
 14 16  1  0  0  0  0
 17  5  1  0  0  0  0
 18 17  1  0  0  0  0
 19 21  1  0  0  0  0
 19 18  1  0  0  0  0
 20 25  1  0  0  0  0
 21 20  1  0  0  0  0
 22 21  2  0  0  0  0
 25 24  1  0  0  0  0
 25 23  1  0  0  0  0
M  END
>  <MODEL>
6

>  <REMARK>
 VINA RESULT:      -5.9      3.194      7.348
  Name = 
  6 active torsions:
  status: ('A' for Active; 'I' for Inactive)
    1  A    between atoms: N_1  and  C_5
    2  A    between atoms: N_2  and  C_21
    3  A    between atoms: C_6  and  C_15
    4  A    between atoms: C_6  and  C_23
    5  A    between atoms: C_13  and  C_20
    6  A    between atoms: C_20  and  C_23
                            x       y       z     vdW  Elec       q    Type
                         _______ _______ _______ _____ _____    ______ ____

>  <TORSDO>
F 6

$$$$
=
 OpenBabel11052417293D

 25 26  0  0  1  0  0  0  0  0999 V2000
  188.0650  176.9580  144.4300 N   0  0  0  0  0  0  0  0  0  0  0  0
  189.3850  177.0220  144.6790 C   0  0  0  0  0  0  0  0  0  0  0  0
  189.0290  174.0580  142.8850 C   0  0  0  0  0  1  0  0  0  0  0  0
  188.9640  175.2090  143.5440 C   0  0  0  0  0  0  0  0  0  0  0  0
  191.3450  175.6090  144.1540 C   0  0  2  0  0  3  0  0  0  0  0  0
  191.8890  174.4070  143.4550 C   0  0  0  0  0  1  0  0  0  0  0  0
  189.9500  178.0100  145.2960 N   0  0  0  0  0  1  0  0  0  0  0  0
  187.7980  175.8580  143.7440 N   0  0  0  0  0  0  0  0  0  0  0  0
  190.0250  175.9150  144.1290 C   0  0  0  0  0  0  0  0  0  0  0  0
  187.0630  177.9380  144.8370 C   0  0  1  0  0  3  0  0  0  0  0  0
  184.2790  178.6710  145.4120 C   0  0  0  0  0  2  0  0  0  0  0  0
  186.0550  178.1880  143.7080 C   0  0  1  0  0  3  0  0  0  0  0  0
  184.9850  179.1800  144.1580 C   0  0  0  0  0  2  0  0  0  0  0  0
  185.2920  178.4670  146.5340 C   0  0  0  0  0  2  0  0  0  0  0  0
  186.7380  178.7230  142.5430 N   0  0  0  0  0  1  0  0  0  0  0  0
  186.3510  177.4580  146.1040 C   0  0  0  0  0  2  0  0  0  0  0  0
  192.3470  176.4650  144.8620 C   0  0  0  0  0  2  0  0  0  0  0  0
  192.7860  175.7980  146.1570 C   0  0  0  0  0  2  0  0  0  0  0  0
  194.2520  176.0820  146.4350 C   0  0  0  0  0  2  0  0  0  0  0  0
  195.2020  173.8690  145.6760 N   0  0  0  0  0  2  0  0  0  0  0  0
  195.1260  175.2880  145.5250 C   0  0  0  0  0  0  0  0  0  0  0  0
  195.8110  175.8790  144.6470 O   0  0  0  0  0  0  0  0  0  0  0  0
  196.7480  172.0040  145.7040 C   0  0  0  0  0  1  0  0  0  0  0  0
  195.2180  172.3280  143.7920 C   0  0  0  0  0  1  0  0  0  0  0  0
  196.0550  173.0350  144.8400 C   0  0  0  0  0  3  0  0  0  0  0  0
  1  2  1  0  0  0  0
  2  7  1  0  0  0  0
  3  4  1  0  0  0  0
  4  8  2  0  0  0  0
  4  9  1  0  0  0  0
  5  6  1  6  0  0  0
  5 17  1  0  0  0  0
  8  1  1  0  0  0  0
  9  5  1  0  0  0  0
  9  2  2  0  0  0  0
 10  1  1  6  0  0  0
 10 16  1  0  0  0  0
 11 14  1  0  0  0  0
 12 15  1  6  0  0  0
 12 13  1  0  0  0  0
 12 10  1  0  0  0  0
 13 11  1  0  0  0  0
 16 14  1  0  0  0  0
 17 18  1  0  0  0  0
 18 19  1  0  0  0  0
 21 20  1  0  0  0  0
 21 19  1  0  0  0  0
 22 21  2  0  0  0  0
 24 25  1  0  0  0  0
 25 20  1  0  0  0  0
 25 23  1  0  0  0  0
M  END
>  <MODEL>
7

>  <REMARK>
 VINA RESULT:      -5.8      2.554      3.470
  Name = 
  6 active torsions:
  status: ('A' for Active; 'I' for Inactive)
    1  A    between atoms: N_1  and  C_5
    2  A    between atoms: N_2  and  C_21
    3  A    between atoms: C_6  and  C_15
    4  A    between atoms: C_6  and  C_23
    5  A    between atoms: C_13  and  C_20
    6  A    between atoms: C_20  and  C_23
                            x       y       z     vdW  Elec       q    Type
                         _______ _______ _______ _____ _____    ______ ____

>  <TORSDO>
F 6

$$$$
=
 OpenBabel11052417293D

 25 26  0  0  1  0  0  0  0  0999 V2000
  187.7720  176.6160  144.4820 N   0  0  0  0  0  0  0  0  0  0  0  0
  188.7470  176.2700  145.3400 C   0  0  0  0  0  0  0  0  0  0  0  0
  189.1470  174.0360  142.6980 C   0  0  0  0  0  1  0  0  0  0  0  0
  188.8420  174.9650  143.5960 C   0  0  0  0  0  0  0  0  0  0  0  0
  190.5410  174.5670  145.3720 C   0  0  2  0  0  3  0  0  0  0  0  0
  191.2630  173.4740  144.6550 C   0  0  0  0  0  1  0  0  0  0  0  0
  188.9770  176.8930  146.4510 N   0  0  0  0  0  1  0  0  0  0  0  0
  187.8180  175.8270  143.4190 N   0  0  0  0  0  0  0  0  0  0  0  0
  189.4780  175.2040  144.8220 C   0  0  0  0  0  0  0  0  0  0  0  0
  186.8040  177.6920  144.6660 C   0  0  1  0  0  3  0  0  0  0  0  0
  184.0760  178.7520  144.4440 C   0  0  0  0  0  2  0  0  0  0  0  0
  186.2330  178.1480  143.3170 C   0  0  1  0  0  3  0  0  0  0  0  0
  185.1890  179.2440  143.5230 C   0  0  0  0  0  2  0  0  0  0  0  0
  184.6580  178.3410  145.7920 C   0  0  0  0  0  2  0  0  0  0  0  0
  187.3000  178.6630  142.4750 N   0  0  0  0  0  1  0  0  0  0  0  0
  185.6840  177.2300  145.6000 C   0  0  0  0  0  2  0  0  0  0  0  0
  191.0750  174.9310  146.7210 C   0  0  0  0  0  2  0  0  0  0  0  0
  192.5930  175.0260  146.6750 C   0  0  0  0  0  2  0  0  0  0  0  0
  193.0350  176.4740  146.5430 C   0  0  0  0  0  2  0  0  0  0  0  0
  194.6490  175.4660  144.8820 N   0  0  0  0  0  2  0  0  0  0  0  0
  194.2520  176.5780  145.6880 C   0  0  0  0  0  0  0  0  0  0  0  0
  194.9360  177.6370  145.7040 O   0  0  0  0  0  0  0  0  0  0  0  0
  196.8830  174.5620  144.6320 C   0  0  0  0  0  1  0  0  0  0  0  0
  195.4950  175.0290  142.6420 C   0  0  0  0  0  1  0  0  0  0  0  0
  195.8400  175.4900  144.0450 C   0  0  0  0  0  3  0  0  0  0  0  0
  1  2  1  0  0  0  0
  2  7  1  0  0  0  0
  3  4  1  0  0  0  0
  4  9  1  0  0  0  0
  5  6  1  6  0  0  0
  5 17  1  0  0  0  0
  8  4  2  0  0  0  0
  8  1  1  0  0  0  0
  9  2  2  0  0  0  0
  9  5  1  0  0  0  0
 10  1  1  6  0  0  0
 10 16  1  0  0  0  0
 11 14  1  0  0  0  0
 12 15  1  6  0  0  0
 12 13  1  0  0  0  0
 12 10  1  0  0  0  0
 13 11  1  0  0  0  0
 16 14  1  0  0  0  0
 18 17  1  0  0  0  0
 19 18  1  0  0  0  0
 20 21  1  0  0  0  0
 21 22  2  0  0  0  0
 21 19  1  0  0  0  0
 24 25  1  0  0  0  0
 25 23  1  0  0  0  0
 25 20  1  0  0  0  0
M  END
>  <MODEL>
8

>  <REMARK>
 VINA RESULT:      -5.7      2.342      3.697
  Name = 
  6 active torsions:
  status: ('A' for Active; 'I' for Inactive)
    1  A    between atoms: N_1  and  C_5
    2  A    between atoms: N_2  and  C_21
    3  A    between atoms: C_6  and  C_15
    4  A    between atoms: C_6  and  C_23
    5  A    between atoms: C_13  and  C_20
    6  A    between atoms: C_20  and  C_23
                            x       y       z     vdW  Elec       q    Type
                         _______ _______ _______ _____ _____    ______ ____

>  <TORSDO>
F 6

$$$$
=
 OpenBabel11052417293D

 25 26  0  0  1  0  0  0  0  0999 V2000
  191.7000  175.4180  145.4310 N   0  0  0  0  0  0  0  0  0  0  0  0
  190.8050  176.3080  144.9700 C   0  0  0  0  0  0  0  0  0  0  0  0
  189.0330  174.5390  147.3910 C   0  0  0  0  0  1  0  0  0  0  0  0
  189.8650  175.0960  146.5190 C   0  0  0  0  0  0  0  0  0  0  0  0
  188.4440  176.8510  145.4700 C   0  0  2  0  0  3  0  0  0  0  0  0
  187.2390  176.6010  146.3160 C   0  0  0  0  0  1  0  0  0  0  0  0
  191.0790  177.2010  144.0740 N   0  0  0  0  0  1  0  0  0  0  0  0
  191.1390  174.6740  146.3710 N   0  0  0  0  0  0  0  0  0  0  0  0
  189.5920  176.1500  145.6360 C   0  0  0  0  0  0  0  0  0  0  0  0
  193.0830  175.2780  144.9860 C   0  0  1  0  0  3  0  0  0  0  0  0
  195.6690  173.8900  145.0520 C   0  0  0  0  0  2  0  0  0  0  0  0
  194.0540  175.4550  146.1610 C   0  0  1  0  0  3  0  0  0  0  0  0
  195.4950  175.2620  145.6960 C   0  0  0  0  0  2  0  0  0  0  0  0
  194.7240  173.7480  143.8640 C   0  0  0  0  0  2  0  0  0  0  0  0
  193.9120  176.7860  146.7260 N   0  0  0  0  0  1  0  0  0  0  0  0
  193.2800  173.9140  144.3220 C   0  0  0  0  0  2  0  0  0  0  0  0
  188.3140  177.9340  144.4460 C   0  0  0  0  0  2  0  0  0  0  0  0
  187.1920  177.6030  143.4730 C   0  0  0  0  0  2  0  0  0  0  0  0
  187.6720  177.7360  142.0370 C   0  0  0  0  0  2  0  0  0  0  0  0
  188.8580  175.5080  142.1270 N   0  0  0  0  0  2  0  0  0  0  0  0
  187.9640  176.3960  141.4520 C   0  0  0  0  0  0  0  0  0  0  0  0
  187.4410  176.0700  140.3530 O   0  0  0  0  0  0  0  0  0  0  0  0
  190.6930  174.1550  141.3090 C   0  0  0  0  0  1  0  0  0  0  0  0
  188.8660  173.1230  142.6140 C   0  0  0  0  0  1  0  0  0  0  0  0
  189.2080  174.1970  141.6000 C   0  0  0  0  0  3  0  0  0  0  0  0
  1  8  1  0  0  0  0
  2  1  1  0  0  0  0
  2  9  2  0  0  0  0
  4  3  1  0  0  0  0
  5  9  1  0  0  0  0
  5  6  1  1  0  0  0
  7  2  1  0  0  0  0
  8  4  2  0  0  0  0
  9  4  1  0  0  0  0
 10 16  1  1  0  0  0
 10  1  1  0  0  0  0
 10 12  1  0  0  0  0
 11 13  1  0  0  0  0
 12 15  1  6  0  0  0
 13 12  1  0  0  0  0
 14 16  1  0  0  0  0
 14 11  1  0  0  0  0
 17  5  1  0  0  0  0
 18 17  1  0  0  0  0
 19 18  1  0  0  0  0
 21 19  1  0  0  0  0
 21 20  1  0  0  0  0
 22 21  2  0  0  0  0
 23 25  1  0  0  0  0
 25 20  1  0  0  0  0
 25 24  1  0  0  0  0
M  END
>  <MODEL>
9

>  <REMARK>
 VINA RESULT:      -5.7      2.584      6.080
  Name = 
  6 active torsions:
  status: ('A' for Active; 'I' for Inactive)
    1  A    between atoms: N_1  and  C_5
    2  A    between atoms: N_2  and  C_21
    3  A    between atoms: C_6  and  C_15
    4  A    between atoms: C_6  and  C_23
    5  A    between atoms: C_13  and  C_20
    6  A    between atoms: C_20  and  C_23
                            x       y       z     vdW  Elec       q    Type
                         _______ _______ _______ _____ _____    ______ ____

>  <TORSDO>
F 6

$$$$
