=
 OpenBabel11052418113D

 28 32  0  0  1  0  0  0  0  0999 V2000
  187.7020  177.0100  146.8530 N   0  0  0  0  0  0  0  0  0  0  0  0
  188.9120  175.7900  141.9730 C   0  0  0  0  0  2  0  0  0  0  0  0
  185.3230  180.2940  144.0130 C   0  0  0  0  0  1  0  0  0  0  0  0
  186.9870  176.8010  140.7280 C   0  0  0  0  0  0  0  0  0  0  0  0
  187.1990  177.2820  143.1070 C   0  0  0  0  0  0  0  0  0  0  0  0
  188.1080  174.7970  139.7970 C   0  0  0  0  0  0  0  0  0  0  0  0
  187.6670  176.6350  141.9480 C   0  0  0  0  0  0  0  0  0  0  0  0
  185.3900  178.2580  141.8090 C   0  0  0  0  0  3  0  0  0  0  0  0
  187.4900  176.1330  139.4820 C   0  0  0  0  0  2  0  0  0  0  0  0
  186.3090  178.5920  145.5430 C   0  0  1  0  0  3  0  0  0  0  0  0
  187.9320  177.1230  144.4060 C   0  0  0  0  0  2  0  0  0  0  0  0
  185.8540  177.6110  140.6640 C   0  0  0  0  0  3  0  0  0  0  0  0
  186.1920  178.5390  148.0350 C   0  0  0  0  0  2  0  0  0  0  0  0
  185.4910  178.8010  144.2590 C   0  0  2  0  0  3  0  0  0  0  0  0
  185.4090  178.7960  146.7590 C   0  0  0  0  0  2  0  0  0  0  0  0
  188.1110  173.9260  138.9440 O   0  0  0  0  0  0  0  0  0  0  0  0
  188.7420  174.5190  141.1360 C   0  0  0  0  0  2  0  0  0  0  0  0
  186.0630  178.1200  143.0320 C   0  0  0  0  0  0  0  0  0  0  0  0
  186.7720  177.1330  147.9770 C   0  0  0  0  0  2  0  0  0  0  0  0
  186.9690  177.2030  145.5890 C   0  0  1  0  0  3  0  0  0  0  0  0
  188.1780  175.6330  146.9000 C   0  0  0  0  0  2  0  0  0  0  0  0
  189.6650  175.6050  146.8080 C   0  0  0  0  0  0  0  0  0  0  0  0
  192.4580  175.5240  146.6730 C   0  0  0  0  0  0  0  0  0  0  0  0
  190.2990  174.6730  145.9780 C   0  0  0  0  0  3  0  0  0  0  0  0
  190.4290  176.4910  147.5750 C   0  0  0  0  0  3  0  0  0  0  0  0
  191.8250  176.4510  147.5060 C   0  0  0  0  0  3  0  0  0  0  0  0
  193.8110  175.4870  146.6060 F   0  0  0  0  0  0  0  0  0  0  0  0
  191.6950  174.6350  145.9100 C   0  0  0  0  0  3  0  0  0  0  0  0
  1 21  1  0  0  0  0
  1 19  1  0  0  0  0
  4  7  1  0  0  0  0
  5 11  1  0  0  0  0
  6 17  1  0  0  0  0
  7  2  1  0  0  0  0
  7  5  2  0  0  0  0
  8 18  2  0  0  0  0
  9  6  1  0  0  0  0
  9  4  1  0  0  0  0
 10 20  1  0  0  0  0
 10 15  1  1  0  0  0
 12  4  2  0  0  0  0
 12  8  1  0  0  0  0
 14  3  1  6  0  0  0
 14 10  1  0  0  0  0
 15 13  1  0  0  0  0
 16  6  2  0  0  0  0
 17  2  1  0  0  0  0
 18  5  1  0  0  0  0
 18 14  1  0  0  0  0
 19 13  1  0  0  0  0
 20 11  1  6  0  0  0
 20  1  1  0  0  0  0
 22 21  1  0  0  0  0
 22 25  1  0  0  0  0
 23 26  1  0  0  0  0
 24 22  2  0  0  0  0
 26 25  2  0  0  0  0
 27 23  1  0  0  0  0
 28 24  1  0  0  0  0
 28 23  2  0  0  0  0
M  END
>  <MODEL>
1

>  <REMARK>
 VINA RESULT:      -8.2      0.000      0.000
  Name = 
  2 active torsions:
  status: ('A' for Active; 'I' for Inactive)
    1  A    between atoms: N_1  and  C_2
    2  A    between atoms: C_2  and  C_3
                            x       y       z     vdW  Elec       q    Type
                         _______ _______ _______ _____ _____    ______ ____

>  <TORSDO>
F 2

$$$$
=
 OpenBabel11052418113D

 28 32  0  0  1  0  0  0  0  0999 V2000
  192.0300  175.3500  144.0930 N   0  0  0  0  0  0  0  0  0  0  0  0
  188.2570  177.9460  141.6870 C   0  0  0  0  0  2  0  0  0  0  0  0
  189.6310  177.8370  147.6380 C   0  0  0  0  0  1  0  0  0  0  0  0
  186.6390  178.3040  143.5660 C   0  0  0  0  0  0  0  0  0  0  0  0
  188.8300  177.3800  144.0940 C   0  0  0  0  0  0  0  0  0  0  0  0
  185.7770  178.1200  141.2500 C   0  0  0  0  0  0  0  0  0  0  0  0
  187.9060  177.8600  143.1480 C   0  0  0  0  0  0  0  0  0  0  0  0
  187.2140  177.8050  145.8600 C   0  0  0  0  0  3  0  0  0  0  0  0
  185.6550  178.8380  142.5670 C   0  0  0  0  0  2  0  0  0  0  0  0
  190.8020  176.3870  145.9840 C   0  0  1  0  0  3  0  0  0  0  0  0
  190.1900  176.9240  143.6550 C   0  0  0  0  0  2  0  0  0  0  0  0
  186.2990  178.2750  144.9180 C   0  0  0  0  0  3  0  0  0  0  0  0
  192.7540  174.8860  146.3890 C   0  0  0  0  0  2  0  0  0  0  0  0
  189.4300  176.8240  146.5200 C   0  0  2  0  0  3  0  0  0  0  0  0
  191.4200  175.3670  146.9360 C   0  0  0  0  0  2  0  0  0  0  0  0
  184.8040  178.0420  140.5200 O   0  0  0  0  0  0  0  0  0  0  0  0
  187.0830  177.5130  140.8040 C   0  0  0  0  0  2  0  0  0  0  0  0
  188.4900  177.3740  145.4670 C   0  0  0  0  0  0  0  0  0  0  0  0
  192.5330  174.3140  144.9960 C   0  0  0  0  0  2  0  0  0  0  0  0
  190.7100  175.8100  144.5600 C   0  0  1  0  0  3  0  0  0  0  0  0
  191.8540  174.6840  142.8080 C   0  0  0  0  0  2  0  0  0  0  0  0
  193.0180  174.9680  141.9230 C   0  0  0  0  0  0  0  0  0  0  0  0
  195.1760  175.5260  140.2320 C   0  0  0  0  0  0  0  0  0  0  0  0
  193.8130  176.0980  142.1510 C   0  0  0  0  0  3  0  0  0  0  0  0
  193.2990  174.1230  140.8440 C   0  0  0  0  0  3  0  0  0  0  0  0
  194.3780  174.4000  140.0000 C   0  0  0  0  0  3  0  0  0  0  0  0
  196.2220  175.7930  139.4140 F   0  0  0  0  0  0  0  0  0  0  0  0
  194.8930  176.3740  141.3060 C   0  0  0  0  0  3  0  0  0  0  0  0
  1 20  1  0  0  0  0
  1 19  1  0  0  0  0
  2  7  1  0  0  0  0
  4 12  1  0  0  0  0
  5 18  2  0  0  0  0
  6  9  1  0  0  0  0
  7  4  2  0  0  0  0
  7  5  1  0  0  0  0
  9  4  1  0  0  0  0
 10 14  1  0  0  0  0
 10 15  1  1  0  0  0
 11  5  1  0  0  0  0
 12  8  2  0  0  0  0
 13 15  1  0  0  0  0
 14  3  1  1  0  0  0
 16  6  2  0  0  0  0
 17  6  1  0  0  0  0
 17  2  1  0  0  0  0
 18  8  1  0  0  0  0
 18 14  1  0  0  0  0
 19 13  1  0  0  0  0
 20 11  1  6  0  0  0
 20 10  1  0  0  0  0
 21  1  1  0  0  0  0
 22 24  1  0  0  0  0
 22 21  1  0  0  0  0
 23 28  1  0  0  0  0
 25 22  2  0  0  0  0
 26 23  2  0  0  0  0
 26 25  1  0  0  0  0
 27 23  1  0  0  0  0
 28 24  2  0  0  0  0
M  END
>  <MODEL>
2

>  <REMARK>
 VINA RESULT:      -8.0      3.402      5.390
  Name = 
  2 active torsions:
  status: ('A' for Active; 'I' for Inactive)
    1  A    between atoms: N_1  and  C_2
    2  A    between atoms: C_2  and  C_3
                            x       y       z     vdW  Elec       q    Type
                         _______ _______ _______ _____ _____    ______ ____

>  <TORSDO>
F 2

$$$$
=
 OpenBabel11052418113D

 28 32  0  0  1  0  0  0  0  0999 V2000
  186.0840  177.3210  141.6340 N   0  0  0  0  0  0  0  0  0  0  0  0
  190.6080  175.9490  143.7350 C   0  0  0  0  0  2  0  0  0  0  0  0
  185.2760  177.0390  146.5100 C   0  0  0  0  0  1  0  0  0  0  0  0
  190.3260  176.7810  146.0810 C   0  0  0  0  0  0  0  0  0  0  0  0
  188.3930  176.8400  144.6000 C   0  0  0  0  0  0  0  0  0  0  0  0
  192.5990  176.6880  145.0990 C   0  0  0  0  0  0  0  0  0  0  0  0
  189.7520  176.5480  144.8190 C   0  0  0  0  0  0  0  0  0  0  0  0
  188.2000  177.5830  146.9060 C   0  0  0  0  0  3  0  0  0  0  0  0
  191.7680  176.4520  146.3320 C   0  0  0  0  0  2  0  0  0  0  0  0
  185.5930  177.4030  144.0650 C   0  0  1  0  0  3  0  0  0  0  0  0
  187.7730  176.5740  143.2600 C   0  0  0  0  0  2  0  0  0  0  0  0
  189.5480  177.2970  147.1180 C   0  0  0  0  0  3  0  0  0  0  0  0
  183.8600  178.0320  142.3840 C   0  0  0  0  0  2  0  0  0  0  0  0
  186.1490  177.7160  145.4630 C   0  0  2  0  0  3  0  0  0  0  0  0
  184.3860  178.2950  143.7850 C   0  0  0  0  0  2  0  0  0  0  0  0
  193.7810  176.9610  145.2190 O   0  0  0  0  0  0  0  0  0  0  0  0
  192.0060  176.5740  143.7170 C   0  0  0  0  0  2  0  0  0  0  0  0
  187.6030  177.3410  145.6600 C   0  0  0  0  0  0  0  0  0  0  0  0
  184.9880  178.2600  141.3880 C   0  0  0  0  0  2  0  0  0  0  0  0
  186.6570  177.5750  142.9670 C   0  0  1  0  0  3  0  0  0  0  0  0
  187.0940  177.6410  140.6330 C   0  0  0  0  0  2  0  0  0  0  0  0
  187.3830  176.4400  139.8000 C   0  0  0  0  0  0  0  0  0  0  0  0
  187.9670  174.2050  138.2200 C   0  0  0  0  0  0  0  0  0  0  0  0
  188.0730  175.3540  140.3510 C   0  0  0  0  0  3  0  0  0  0  0  0
  186.9930  176.4100  138.4560 C   0  0  0  0  0  3  0  0  0  0  0  0
  187.2830  175.2930  137.6680 C   0  0  0  0  0  3  0  0  0  0  0  0
  188.2470  173.1230  137.4550 F   0  0  0  0  0  0  0  0  0  0  0  0
  188.3620  174.2360  139.5610 C   0  0  0  0  0  3  0  0  0  0  0  0
  1 20  1  0  0  0  0
  2  7  1  0  0  0  0
  4  9  1  0  0  0  0
  4 12  1  0  0  0  0
  5  7  1  0  0  0  0
  5 18  2  0  0  0  0
  6 16  2  0  0  0  0
  6  9  1  0  0  0  0
  7  4  2  0  0  0  0
  8 12  2  0  0  0  0
 10 15  1  6  0  0  0
 10 14  1  0  0  0  0
 11  5  1  0  0  0  0
 13 15  1  0  0  0  0
 14 18  1  0  0  0  0
 14  3  1  1  0  0  0
 17  2  1  0  0  0  0
 17  6  1  0  0  0  0
 18  8  1  0  0  0  0
 19  1  1  0  0  0  0
 19 13  1  0  0  0  0
 20 11  1  1  0  0  0
 20 10  1  0  0  0  0
 21  1  1  0  0  0  0
 22 24  1  0  0  0  0
 22 21  1  0  0  0  0
 23 28  1  0  0  0  0
 25 22  2  0  0  0  0
 26 23  2  0  0  0  0
 26 25  1  0  0  0  0
 27 23  1  0  0  0  0
 28 24  2  0  0  0  0
M  END
>  <MODEL>
3

>  <REMARK>
 VINA RESULT:      -7.7      3.190      6.423
  Name = 
  2 active torsions:
  status: ('A' for Active; 'I' for Inactive)
    1  A    between atoms: N_1  and  C_2
    2  A    between atoms: C_2  and  C_3
                            x       y       z     vdW  Elec       q    Type
                         _______ _______ _______ _____ _____    ______ ____

>  <TORSDO>
F 2

$$$$
=
 OpenBabel11052418113D

 28 32  0  0  1  0  0  0  0  0999 V2000
  189.7010  173.2650  142.0180 N   0  0  0  0  0  0  0  0  0  0  0  0
  186.8280  177.5200  142.6600 C   0  0  0  0  0  2  0  0  0  0  0  0
  190.8500  175.0030  146.5090 C   0  0  0  0  0  1  0  0  0  0  0  0
  186.7600  177.6870  145.1590 C   0  0  0  0  0  0  0  0  0  0  0  0
  188.2390  176.0310  144.1570 C   0  0  0  0  0  0  0  0  0  0  0  0
  184.8540  178.5610  143.8380 C   0  0  0  0  0  0  0  0  0  0  0  0
  187.2830  177.0540  144.0170 C   0  0  0  0  0  0  0  0  0  0  0  0
  188.1430  176.2960  146.5710 C   0  0  0  0  0  3  0  0  0  0  0  0
  185.7570  178.7940  145.0200 C   0  0  0  0  0  2  0  0  0  0  0  0
  190.2250  173.9190  144.3550 C   0  0  1  0  0  3  0  0  0  0  0  0
  188.8130  175.3660  142.9410 C   0  0  0  0  0  2  0  0  0  0  0  0
  187.1920  177.3060  146.4290 C   0  0  0  0  0  3  0  0  0  0  0  0
  191.2100  171.8600  143.3460 C   0  0  0  0  0  2  0  0  0  0  0  0
  189.6820  174.5360  145.6530 C   0  0  2  0  0  3  0  0  0  0  0  0
  190.7200  172.5020  144.6330 C   0  0  0  0  0  2  0  0  0  0  0  0
  183.7280  179.0280  143.8460 O   0  0  0  0  0  0  0  0  0  0  0  0
  185.3200  177.7800  142.6350 C   0  0  0  0  0  2  0  0  0  0  0  0
  188.6910  175.6630  145.4460 C   0  0  0  0  0  0  0  0  0  0  0  0
  190.0800  171.8850  142.3270 C   0  0  0  0  0  2  0  0  0  0  0  0
  189.1720  173.9100  143.2330 C   0  0  1  0  0  3  0  0  0  0  0  0
  188.6180  173.1560  141.0490 C   0  0  0  0  0  2  0  0  0  0  0  0
  189.1250  173.4670  139.6830 C   0  0  0  0  0  0  0  0  0  0  0  0
  190.0740  174.0030  137.1060 C   0  0  0  0  0  0  0  0  0  0  0  0
  188.2310  173.8280  138.6680 C   0  0  0  0  0  3  0  0  0  0  0  0
  190.4930  173.3670  139.4050 C   0  0  0  0  0  3  0  0  0  0  0  0
  190.9670  173.6370  138.1180 C   0  0  0  0  0  3  0  0  0  0  0  0
  190.5350  174.2660  135.8590 F   0  0  0  0  0  0  0  0  0  0  0  0
  188.7070  174.0980  137.3810 C   0  0  0  0  0  3  0  0  0  0  0  0
  1 19  1  0  0  0  0
  1 20  1  0  0  0  0
  2  7  1  0  0  0  0
  4 12  1  0  0  0  0
  5 18  2  0  0  0  0
  6 16  2  0  0  0  0
  6  9  1  0  0  0  0
  7  5  1  0  0  0  0
  7  4  2  0  0  0  0
  9  4  1  0  0  0  0
 10 15  1  1  0  0  0
 10 14  1  0  0  0  0
 11  5  1  0  0  0  0
 12  8  2  0  0  0  0
 13 15  1  0  0  0  0
 14  3  1  1  0  0  0
 17  2  1  0  0  0  0
 17  6  1  0  0  0  0
 18 14  1  0  0  0  0
 18  8  1  0  0  0  0
 19 13  1  0  0  0  0
 20 11  1  6  0  0  0
 20 10  1  0  0  0  0
 21  1  1  0  0  0  0
 22 21  1  0  0  0  0
 23 28  2  0  0  0  0
 23 26  1  0  0  0  0
 24 22  2  0  0  0  0
 25 22  1  0  0  0  0
 26 25  2  0  0  0  0
 27 23  1  0  0  0  0
 28 24  1  0  0  0  0
M  END
>  <MODEL>
4

>  <REMARK>
 VINA RESULT:      -7.7      3.453      7.025
  Name = 
  2 active torsions:
  status: ('A' for Active; 'I' for Inactive)
    1  A    between atoms: N_1  and  C_2
    2  A    between atoms: C_2  and  C_3
                            x       y       z     vdW  Elec       q    Type
                         _______ _______ _______ _____ _____    ______ ____

>  <TORSDO>
F 2

$$$$
=
 OpenBabel11052418113D

 28 32  0  0  1  0  0  0  0  0999 V2000
  186.7990  177.5650  145.3980 N   0  0  0  0  0  0  0  0  0  0  0  0
  190.1230  173.9060  143.8700 C   0  0  0  0  0  2  0  0  0  0  0  0
  187.0170  177.9160  140.4640 C   0  0  0  0  0  1  0  0  0  0  0  0
  189.4030  173.5570  141.4960 C   0  0  0  0  0  0  0  0  0  0  0  0
  188.4200  175.4090  142.7350 C   0  0  0  0  0  0  0  0  0  0  0  0
  190.4050  171.6650  142.7440 C   0  0  0  0  0  0  0  0  0  0  0  0
  189.2840  174.3000  142.6840 C   0  0  0  0  0  0  0  0  0  0  0  0
  187.8160  175.0240  140.4130 C   0  0  0  0  0  3  0  0  0  0  0  0
  190.3370  172.3850  141.4240 C   0  0  0  0  0  2  0  0  0  0  0  0
  186.6700  177.7210  142.9240 C   0  0  1  0  0  3  0  0  0  0  0  0
  188.3050  176.2160  143.9950 C   0  0  0  0  0  2  0  0  0  0  0  0
  188.6690  173.9220  140.3670 C   0  0  0  0  0  3  0  0  0  0  0  0
  185.2470  179.1660  144.3780 C   0  0  0  0  0  2  0  0  0  0  0  0
  186.7180  176.9460  141.5980 C   0  0  2  0  0  3  0  0  0  0  0  0
  185.3280  178.4400  143.0460 C   0  0  0  0  0  2  0  0  0  0  0  0
  190.6780  170.4770  142.7620 O   0  0  0  0  0  0  0  0  0  0  0  0
  190.1620  172.3850  144.0460 C   0  0  0  0  0  2  0  0  0  0  0  0
  187.6960  175.7890  141.5810 C   0  0  0  0  0  0  0  0  0  0  0  0
  185.4650  178.1590  145.4980 C   0  0  0  0  0  2  0  0  0  0  0  0
  186.9040  176.8060  144.1390 C   0  0  1  0  0  3  0  0  0  0  0  0
  186.8830  176.6240  146.5080 C   0  0  0  0  0  2  0  0  0  0  0  0
  188.3080  176.4120  146.8880 C   0  0  0  0  0  0  0  0  0  0  0  0
  190.9940  176.0040  147.5570 C   0  0  0  0  0  0  0  0  0  0  0  0
  189.1850  177.5000  146.9590 C   0  0  0  0  0  3  0  0  0  0  0  0
  188.7780  175.1190  147.1450 C   0  0  0  0  0  3  0  0  0  0  0  0
  190.1190  174.9160  147.4810 C   0  0  0  0  0  3  0  0  0  0  0  0
  192.2940  175.8070  147.8840 F   0  0  0  0  0  0  0  0  0  0  0  0
  190.5270  177.2960  147.2960 C   0  0  0  0  0  3  0  0  0  0  0  0
  1 19  1  0  0  0  0
  1 21  1  0  0  0  0
  2 17  1  0  0  0  0
  4  7  1  0  0  0  0
  5 11  1  0  0  0  0
  6 16  2  0  0  0  0
  6 17  1  0  0  0  0
  7  5  2  0  0  0  0
  7  2  1  0  0  0  0
  8 18  2  0  0  0  0
  9  4  1  0  0  0  0
  9  6  1  0  0  0  0
 10 15  1  1  0  0  0
 10 20  1  0  0  0  0
 12  8  1  0  0  0  0
 12  4  2  0  0  0  0
 13 19  1  0  0  0  0
 14  3  1  6  0  0  0
 14 10  1  0  0  0  0
 15 13  1  0  0  0  0
 18 14  1  0  0  0  0
 18  5  1  0  0  0  0
 20 11  1  6  0  0  0
 20  1  1  0  0  0  0
 21 22  1  0  0  0  0
 22 24  2  0  0  0  0
 22 25  1  0  0  0  0
 23 27  1  0  0  0  0
 24 28  1  0  0  0  0
 25 26  2  0  0  0  0
 26 23  1  0  0  0  0
 28 23  2  0  0  0  0
M  END
>  <MODEL>
5

>  <REMARK>
 VINA RESULT:      -7.7      1.863      3.356
  Name = 
  2 active torsions:
  status: ('A' for Active; 'I' for Inactive)
    1  A    between atoms: N_1  and  C_2
    2  A    between atoms: C_2  and  C_3
                            x       y       z     vdW  Elec       q    Type
                         _______ _______ _______ _____ _____    ______ ____

>  <TORSDO>
F 2

$$$$
=
 OpenBabel11052418113D

 28 32  0  0  1  0  0  0  0  0999 V2000
  192.2080  175.5280  143.7470 N   0  0  0  0  0  0  0  0  0  0  0  0
  188.1480  178.1830  141.9490 C   0  0  0  0  0  2  0  0  0  0  0  0
  190.0460  177.5400  147.7210 C   0  0  0  0  0  1  0  0  0  0  0  0
  186.6910  178.2800  143.9850 C   0  0  0  0  0  0  0  0  0  0  0  0
  188.9510  177.4050  144.2290 C   0  0  0  0  0  0  0  0  0  0  0  0
  185.6350  178.2910  141.7430 C   0  0  0  0  0  0  0  0  0  0  0  0
  187.9310  177.9360  143.4180 C   0  0  0  0  0  0  0  0  0  0  0  0
  187.4840  177.5800  146.1580 C   0  0  0  0  0  3  0  0  0  0  0  0
  185.6040  178.8670  143.1330 C   0  0  0  0  0  2  0  0  0  0  0  0
  191.1160  176.3160  145.8320 C   0  0  1  0  0  3  0  0  0  0  0  0
  190.2820  177.0550  143.6310 C   0  0  0  0  0  2  0  0  0  0  0  0
  186.4730  178.1010  145.3510 C   0  0  0  0  0  3  0  0  0  0  0  0
  193.1470  174.8690  145.9140 C   0  0  0  0  0  2  0  0  0  0  0  0
  189.7820  176.6360  146.5240 C   0  0  2  0  0  3  0  0  0  0  0  0
  191.8520  175.2340  146.6180 C   0  0  0  0  0  2  0  0  0  0  0  0
  184.6040  178.2440  141.0940 O   0  0  0  0  0  0  0  0  0  0  0  0
  186.9170  177.7890  141.1280 C   0  0  0  0  0  2  0  0  0  0  0  0
  188.7340  177.2470  145.6170 C   0  0  0  0  0  0  0  0  0  0  0  0
  192.8250  174.4300  144.4940 C   0  0  0  0  0  2  0  0  0  0  0  0
  190.9200  175.8800  144.3700 C   0  0  1  0  0  3  0  0  0  0  0  0
  191.9430  174.9870  142.4200 C   0  0  0  0  0  2  0  0  0  0  0  0
  190.6520  174.2440  142.4220 C   0  0  0  0  0  0  0  0  0  0  0  0
  188.2400  172.8250  142.3880 C   0  0  0  0  0  0  0  0  0  0  0  0
  190.5230  173.0650  143.1650 C   0  0  0  0  0  3  0  0  0  0  0  0
  189.5760  174.7090  141.6570 C   0  0  0  0  0  3  0  0  0  0  0  0
  188.3710  174.0010  141.6410 C   0  0  0  0  0  3  0  0  0  0  0  0
  187.0710  172.1400  142.3730 F   0  0  0  0  0  0  0  0  0  0  0  0
  189.3160  172.3580  143.1490 C   0  0  0  0  0  3  0  0  0  0  0  0
  1 20  1  0  0  0  0
  1 19  1  0  0  0  0
  2  7  1  0  0  0  0
  4 12  1  0  0  0  0
  5 18  2  0  0  0  0
  6  9  1  0  0  0  0
  7  4  2  0  0  0  0
  7  5  1  0  0  0  0
  9  4  1  0  0  0  0
 10 14  1  0  0  0  0
 10 15  1  1  0  0  0
 11  5  1  0  0  0  0
 12  8  2  0  0  0  0
 13 15  1  0  0  0  0
 14  3  1  1  0  0  0
 16  6  2  0  0  0  0
 17  6  1  0  0  0  0
 17  2  1  0  0  0  0
 18  8  1  0  0  0  0
 18 14  1  0  0  0  0
 19 13  1  0  0  0  0
 20 11  1  6  0  0  0
 20 10  1  0  0  0  0
 21 22  1  0  0  0  0
 21  1  1  0  0  0  0
 22 24  1  0  0  0  0
 23 28  1  0  0  0  0
 25 22  2  0  0  0  0
 26 25  1  0  0  0  0
 26 23  2  0  0  0  0
 27 23  1  0  0  0  0
 28 24  2  0  0  0  0
M  END
>  <MODEL>
6

>  <REMARK>
 VINA RESULT:      -7.6      2.772      5.390
  Name = 
  2 active torsions:
  status: ('A' for Active; 'I' for Inactive)
    1  A    between atoms: N_1  and  C_2
    2  A    between atoms: C_2  and  C_3
                            x       y       z     vdW  Elec       q    Type
                         _______ _______ _______ _____ _____    ______ ____

>  <TORSDO>
F 2

$$$$
=
 OpenBabel11052418113D

 28 32  0  0  1  0  0  0  0  0999 V2000
  186.9260  176.2130  142.4790 N   0  0  0  0  0  0  0  0  0  0  0  0
  191.2680  174.6780  144.8360 C   0  0  0  0  0  2  0  0  0  0  0  0
  186.4470  177.5820  147.2130 C   0  0  0  0  0  1  0  0  0  0  0  0
  191.3190  176.2180  146.8110 C   0  0  0  0  0  0  0  0  0  0  0  0
  189.3240  176.2060  145.4130 C   0  0  0  0  0  0  0  0  0  0  0  0
  193.4560  175.3880  145.8730 C   0  0  0  0  0  0  0  0  0  0  0  0
  190.6190  175.7320  145.6930 C   0  0  0  0  0  0  0  0  0  0  0  0
  189.4430  177.6340  147.3770 C   0  0  0  0  0  3  0  0  0  0  0  0
  192.6910  175.7040  147.1310 C   0  0  0  0  0  2  0  0  0  0  0  0
  186.6410  177.1200  144.7710 C   0  0  1  0  0  3  0  0  0  0  0  0
  188.5670  175.6750  144.2320 C   0  0  0  0  0  2  0  0  0  0  0  0
  190.7280  177.1660  147.6480 C   0  0  0  0  0  3  0  0  0  0  0  0
  184.9320  177.5410  143.0030 C   0  0  0  0  0  2  0  0  0  0  0  0
  187.3480  177.7260  145.9940 C   0  0  2  0  0  3  0  0  0  0  0  0
  185.6000  178.1050  144.2450 C   0  0  0  0  0  2  0  0  0  0  0  0
  194.6740  175.4460  145.8860 O   0  0  0  0  0  0  0  0  0  0  0  0
  192.7510  174.9810  144.6050 C   0  0  0  0  0  2  0  0  0  0  0  0
  188.7200  177.1490  146.2770 C   0  0  0  0  0  0  0  0  0  0  0  0
  186.0050  177.2310  141.9700 C   0  0  0  0  0  2  0  0  0  0  0  0
  187.6340  176.7400  143.6590 C   0  0  1  0  0  3  0  0  0  0  0  0
  187.9000  176.0110  141.4130 C   0  0  0  0  0  2  0  0  0  0  0  0
  188.5060  174.6550  141.5280 C   0  0  0  0  0  0  0  0  0  0  0  0
  189.6550  172.1170  141.7890 C   0  0  0  0  0  0  0  0  0  0  0  0
  187.7110  173.5590  141.8850 C   0  0  0  0  0  3  0  0  0  0  0  0
  189.8770  174.4800  141.3100 C   0  0  0  0  0  3  0  0  0  0  0  0
  190.4510  173.2120  141.4390 C   0  0  0  0  0  3  0  0  0  0  0  0
  190.2110  170.8880  141.9130 F   0  0  0  0  0  0  0  0  0  0  0  0
  188.2860  172.2910  142.0130 C   0  0  0  0  0  3  0  0  0  0  0  0
  1 20  1  0  0  0  0
  2  7  1  0  0  0  0
  4  9  1  0  0  0  0
  4 12  1  0  0  0  0
  5  7  1  0  0  0  0
  5 18  2  0  0  0  0
  6 16  2  0  0  0  0
  6  9  1  0  0  0  0
  7  4  2  0  0  0  0
  8 12  2  0  0  0  0
 10 15  1  6  0  0  0
 10 14  1  0  0  0  0
 11  5  1  0  0  0  0
 13 15  1  0  0  0  0
 14 18  1  0  0  0  0
 14  3  1  1  0  0  0
 17  2  1  0  0  0  0
 17  6  1  0  0  0  0
 18  8  1  0  0  0  0
 19  1  1  0  0  0  0
 19 13  1  0  0  0  0
 20 11  1  1  0  0  0
 20 10  1  0  0  0  0
 21 22  1  0  0  0  0
 21  1  1  0  0  0  0
 22 24  1  0  0  0  0
 23 27  1  0  0  0  0
 23 28  1  0  0  0  0
 24 28  2  0  0  0  0
 25 26  1  0  0  0  0
 25 22  2  0  0  0  0
 26 23  2  0  0  0  0
M  END
>  <MODEL>
7

>  <REMARK>
 VINA RESULT:      -7.5      2.792      5.843
  Name = 
  2 active torsions:
  status: ('A' for Active; 'I' for Inactive)
    1  A    between atoms: N_1  and  C_2
    2  A    between atoms: C_2  and  C_3
                            x       y       z     vdW  Elec       q    Type
                         _______ _______ _______ _____ _____    ______ ____

>  <TORSDO>
F 2

$$$$
=
 OpenBabel11052418113D

 28 32  0  0  1  0  0  0  0  0999 V2000
  189.0720  176.5800  144.8860 N   0  0  0  0  0  0  0  0  0  0  0  0
  188.5590  173.8010  140.5520 C   0  0  0  0  0  2  0  0  0  0  0  0
  192.6900  173.2020  145.0130 C   0  0  0  0  0  1  0  0  0  0  0  0
  190.8760  172.8880  140.2830 C   0  0  0  0  0  0  0  0  0  0  0  0
  190.3370  174.0690  142.3440 C   0  0  0  0  0  0  0  0  0  0  0  0
  189.4950  173.2870  138.2660 C   0  0  0  0  0  0  0  0  0  0  0  0
  189.9550  173.5970  141.0750 C   0  0  0  0  0  0  0  0  0  0  0  0
  192.5460  173.1090  142.0170 C   0  0  0  0  0  3  0  0  0  0  0  0
  190.4720  172.3610  138.9380 C   0  0  0  0  0  2  0  0  0  0  0  0
  191.0390  175.0680  144.9810 C   0  0  1  0  0  3  0  0  0  0  0  0
  189.3520  174.8100  143.2000 C   0  0  0  0  0  2  0  0  0  0  0  0
  192.1660  172.6470  140.7570 C   0  0  0  0  0  3  0  0  0  0  0  0
  190.6570  176.7910  146.7450 C   0  0  0  0  0  2  0  0  0  0  0  0
  192.1140  174.3300  144.1680 C   0  0  2  0  0  3  0  0  0  0  0  0
  191.7100  176.0150  145.9730 C   0  0  0  0  0  2  0  0  0  0  0  0
  189.4400  173.3150  137.0480 O   0  0  0  0  0  0  0  0  0  0  0  0
  188.5660  174.1660  139.0650 C   0  0  0  0  0  2  0  0  0  0  0  0
  191.6380  173.8030  142.8300 C   0  0  0  0  0  0  0  0  0  0  0  0
  189.7700  177.5300  145.7540 C   0  0  0  0  0  2  0  0  0  0  0  0
  190.0580  175.8390  144.0790 C   0  0  1  0  0  3  0  0  0  0  0  0
  188.2700  177.4000  143.9870 C   0  0  0  0  0  2  0  0  0  0  0  0
  186.9710  177.7410  144.6320 C   0  0  0  0  0  0  0  0  0  0  0  0
  184.5090  178.3630  145.8080 C   0  0  0  0  0  0  0  0  0  0  0  0
  186.3900  176.8580  145.5490 C   0  0  0  0  0  3  0  0  0  0  0  0
  186.3160  178.9320  144.2990 C   0  0  0  0  0  3  0  0  0  0  0  0
  185.0870  179.2430  144.8870 C   0  0  0  0  0  3  0  0  0  0  0  0
  183.3180  178.6660  146.3780 F   0  0  0  0  0  0  0  0  0  0  0  0
  185.1600  177.1700  146.1370 C   0  0  0  0  0  3  0  0  0  0  0  0
  1 19  1  0  0  0  0
  2  7  1  0  0  0  0
  4 12  2  0  0  0  0
  4  7  1  0  0  0  0
  5 18  1  0  0  0  0
  5 11  1  0  0  0  0
  6  9  1  0  0  0  0
  6 17  1  0  0  0  0
  7  5  2  0  0  0  0
  8 18  2  0  0  0  0
  9  4  1  0  0  0  0
 10 15  1  1  0  0  0
 12  8  1  0  0  0  0
 14 10  1  0  0  0  0
 14  3  1  1  0  0  0
 15 13  1  0  0  0  0
 16  6  2  0  0  0  0
 17  2  1  0  0  0  0
 18 14  1  0  0  0  0
 19 13  1  0  0  0  0
 20 11  1  6  0  0  0
 20  1  1  0  0  0  0
 20 10  1  0  0  0  0
 21 22  1  0  0  0  0
 21  1  1  0  0  0  0
 22 24  1  0  0  0  0
 23 28  1  0  0  0  0
 23 27  1  0  0  0  0
 24 28  2  0  0  0  0
 25 22  2  0  0  0  0
 25 26  1  0  0  0  0
 26 23  2  0  0  0  0
M  END
>  <MODEL>
8

>  <REMARK>
 VINA RESULT:      -7.5      2.938      6.000
  Name = 
  2 active torsions:
  status: ('A' for Active; 'I' for Inactive)
    1  A    between atoms: N_1  and  C_2
    2  A    between atoms: C_2  and  C_3
                            x       y       z     vdW  Elec       q    Type
                         _______ _______ _______ _____ _____    ______ ____

>  <TORSDO>
F 2

$$$$
=
 OpenBabel11052418113D

 28 32  0  0  1  0  0  0  0  0999 V2000
  190.2630  176.2240  145.8260 N   0  0  0  0  0  0  0  0  0  0  0  0
  188.0870  174.5750  141.4310 C   0  0  0  0  0  2  0  0  0  0  0  0
  192.5950  172.0140  144.6630 C   0  0  0  0  0  1  0  0  0  0  0  0
  189.9050  173.1210  140.5040 C   0  0  0  0  0  0  0  0  0  0  0  0
  190.1680  173.9920  142.7640 C   0  0  0  0  0  0  0  0  0  0  0  0
  188.3600  174.2650  138.9410 C   0  0  0  0  0  0  0  0  0  0  0  0
  189.4220  173.8950  141.5750 C   0  0  0  0  0  0  0  0  0  0  0  0
  191.8590  172.5360  141.8010 C   0  0  0  0  0  3  0  0  0  0  0  0
  189.1080  172.9930  139.2400 C   0  0  0  0  0  2  0  0  0  0  0  0
  191.6370  174.2360  145.2590 C   0  0  1  0  0  3  0  0  0  0  0  0
  189.6470  174.8010  143.9160 C   0  0  0  0  0  2  0  0  0  0  0  0
  191.1200  172.4460  140.6220 C   0  0  0  0  0  3  0  0  0  0  0  0
  192.1590  175.6290  147.2620 C   0  0  0  0  0  2  0  0  0  0  0  0
  192.2510  173.3970  144.1280 C   0  0  2  0  0  3  0  0  0  0  0  0
  192.7480  174.7530  146.1700 C   0  0  0  0  0  2  0  0  0  0  0  0
  188.0850  174.5380  137.7850 O   0  0  0  0  0  0  0  0  0  0  0  0
  187.9240  175.1980  140.0420 C   0  0  0  0  0  2  0  0  0  0  0  0
  191.3880  173.2870  142.8880 C   0  0  0  0  0  0  0  0  0  0  0  0
  191.3760  176.7600  146.6120 C   0  0  0  0  0  2  0  0  0  0  0  0
  190.7950  175.4060  144.7210 C   0  0  1  0  0  3  0  0  0  0  0  0
  189.6020  177.3910  145.2530 C   0  0  0  0  0  2  0  0  0  0  0  0
  188.1570  177.3860  145.6150 C   0  0  0  0  0  0  0  0  0  0  0  0
  185.4380  177.3340  146.2730 C   0  0  0  0  0  0  0  0  0  0  0  0
  187.7460  176.8720  146.8500 C   0  0  0  0  0  3  0  0  0  0  0  0
  187.2070  177.8660  144.7070 C   0  0  0  0  0  3  0  0  0  0  0  0
  185.8490  177.8410  145.0360 C   0  0  0  0  0  3  0  0  0  0  0  0
  184.1220  177.3110  146.5920 F   0  0  0  0  0  0  0  0  0  0  0  0
  186.3860  176.8480  147.1790 C   0  0  0  0  0  3  0  0  0  0  0  0
  1 19  1  0  0  0  0
  2  7  1  0  0  0  0
  4 12  2  0  0  0  0
  4  7  1  0  0  0  0
  5 18  1  0  0  0  0
  5 11  1  0  0  0  0
  6  9  1  0  0  0  0
  6 17  1  0  0  0  0
  7  5  2  0  0  0  0
  8 18  2  0  0  0  0
  9  4  1  0  0  0  0
 10 15  1  1  0  0  0
 12  8  1  0  0  0  0
 14  3  1  1  0  0  0
 14 10  1  0  0  0  0
 15 13  1  0  0  0  0
 16  6  2  0  0  0  0
 17  2  1  0  0  0  0
 18 14  1  0  0  0  0
 19 13  1  0  0  0  0
 20 11  1  1  0  0  0
 20 10  1  0  0  0  0
 20  1  1  0  0  0  0
 21 22  1  0  0  0  0
 21  1  1  0  0  0  0
 22 24  1  0  0  0  0
 23 27  1  0  0  0  0
 23 28  1  0  0  0  0
 24 28  2  0  0  0  0
 25 26  1  0  0  0  0
 25 22  2  0  0  0  0
 26 23  2  0  0  0  0
M  END
>  <MODEL>
9

>  <REMARK>
 VINA RESULT:      -7.5      2.640      5.816
  Name = 
  2 active torsions:
  status: ('A' for Active; 'I' for Inactive)
    1  A    between atoms: N_1  and  C_2
    2  A    between atoms: C_2  and  C_3
                            x       y       z     vdW  Elec       q    Type
                         _______ _______ _______ _____ _____    ______ ____

>  <TORSDO>
F 2

$$$$
