=
 OpenBabel11052417533D

 31 35  0  0  1  0  0  0  0  0999 V2000
  189.1480  172.9060  142.2970 C   0  0  0  0  0  0  0  0  0  0  0  0
  189.4630  174.1370  142.9820 N   0  0  0  0  0  0  0  0  0  0  0  0
  189.9610  171.9430  142.3120 O   0  0  0  0  0  0  0  0  0  0  0  0
  190.6360  174.2320  143.8560 C   0  0  1  0  0  0  0  0  0  0  0  0
  190.5480  175.3350  144.7980 C   0  0  1  0  0  3  0  0  0  0  0  0
  189.4650  174.1940  146.4480 C   0  0  0  0  0  2  0  0  0  0  0  0
  190.4940  173.9160  145.3610 C   0  0  1  0  0  3  0  0  0  0  0  0
  192.8100  175.2840  144.1220 N   0  0  0  0  0  2  0  0  0  0  0  0
  189.9980  175.2350  147.4810 C   0  0  0  0  0  2  0  0  0  0  0  0
  192.0380  174.3740  143.2580 C   0  0  0  0  0  2  0  0  0  0  0  0
  191.5430  175.3460  147.5870 C   0  0  0  0  0  2  0  0  0  0  0  0
  193.2700  176.7320  146.6640 O   0  0  0  0  0  0  0  0  0  0  0  0
  191.8810  175.7820  145.0490 N   0  0  0  0  0  0  0  0  0  0  0  0
  192.2560  176.0270  146.4190 C   0  0  0  0  0  0  0  0  0  0  0  0
  188.0290  172.8380  140.2210 O   0  0  0  0  0  1  0  0  0  0  0  0
  187.8420  172.7240  141.5980 C   0  0  0  0  0  2  0  0  0  0  0  0
  188.5130  175.2480  142.9660 C   0  0  0  0  0  2  0  0  0  0  0  0
  188.8390  176.2180  141.8410 C   0  0  0  0  0  2  0  0  0  0  0  0
  187.6330  176.4400  140.9510 C   0  0  0  0  0  2  0  0  0  0  0  0
  186.4920  176.5730  141.7440 O   0  0  0  0  0  0  0  0  0  0  0  0
  186.2880  177.9520  141.8570 C   0  0  0  0  0  2  0  0  0  0  0  0
  186.3780  178.3570  147.1290 C   0  0  0  0  0  0  0  0  0  0  0  0
  187.3660  178.0010  144.8050 C   0  0  0  0  0  2  0  0  0  0  0  0
  183.8370  178.9120  144.4030 C   0  0  0  0  0  3  0  0  0  0  0  0
  184.2350  178.6550  143.0890 C   0  0  0  0  0  3  0  0  0  0  0  0
  186.6120  178.5700  148.3450 O   0  0  0  0  0  0  0  0  0  0  0  0
  185.5240  178.2520  143.0610 N   0  0  0  0  0  0  0  0  0  0  0  0
  187.3820  177.5940  146.2920 C   0  0  0  0  0  2  0  0  0  0  0  0
  184.9610  178.6370  145.1530 C   0  0  0  0  0  0  0  0  0  0  0  0
  185.9640  178.2300  144.3270 C   0  0  0  0  0  0  0  0  0  0  0  0
  185.1280  178.7750  146.5610 N   0  0  0  0  0  2  0  0  0  0  0  0
  1  3  2  0  0  0  0
  1  2  1  0  0  0  0
  4  2  1  6  0  0  0
  4  5  1  0  0  0  0
  4  7  1  0  0  0  0
  5 13  1  1  0  0  0
  5  7  1  0  0  0  0
  6  9  1  0  0  0  0
  7  6  1  6  0  0  0
  8 13  1  0  0  0  0
  9 11  1  0  0  0  0
 10  4  1  0  0  0  0
 10  8  1  0  0  0  0
 13 14  1  0  0  0  0
 14 12  2  0  0  0  0
 14 11  1  0  0  0  0
 15 16  1  0  0  0  0
 16  1  1  0  0  0  0
 17  2  1  0  0  0  0
 18 17  1  0  0  0  0
 19 20  1  0  0  0  0
 19 18  1  0  0  0  0
 20 21  1  0  0  0  0
 21 27  1  0  0  0  0
 22 26  2  0  0  0  0
 23 28  1  0  0  0  0
 24 29  1  0  0  0  0
 25 24  2  0  0  0  0
 27 25  1  0  0  0  0
 27 30  1  0  0  0  0
 28 22  1  0  0  0  0
 29 31  1  0  0  0  0
 30 23  1  0  0  0  0
 30 29  2  0  0  0  0
 31 22  1  0  0  0  0
M  END
>  <MODEL>
1

>  <REMARK>
 VINA RESULT:      -6.9      0.000      0.000
  Name = 
  8 active torsions:
  status: ('A' for Active; 'I' for Inactive)
    1  A    between atoms: C_2  and  C_28
    2  A    between atoms: C_4  and  N_12
    3  A    between atoms: N_9  and  C_23
    4  A    between atoms: N_12  and  C_25
    5  A    between atoms: O_15  and  C_20
    6  A    between atoms: O_15  and  C_23
    7  A    between atoms: C_20  and  C_27
    8  A    between atoms: C_25  and  C_27
                            x       y       z     vdW  Elec       q    Type
                         _______ _______ _______ _____ _____    ______ ____

>  <TORSDO>
F 8

$$$$
=
 OpenBabel11052417533D

 31 35  0  0  1  0  0  0  0  0999 V2000
  193.6390  175.6840  145.2260 C   0  0  0  0  0  0  0  0  0  0  0  0
  192.1980  175.7460  145.2350 N   0  0  0  0  0  0  0  0  0  0  0  0
  194.2450  175.0820  144.2990 O   0  0  0  0  0  0  0  0  0  0  0  0
  191.4170  175.2770  144.0860 C   0  0  1  0  0  0  0  0  0  0  0  0
  190.0570  175.7890  144.0830 C   0  0  1  0  0  3  0  0  0  0  0  0
  190.4970  177.7140  142.9440 C   0  0  0  0  0  2  0  0  0  0  0  0
  191.0010  176.2790  142.9860 C   0  0  1  0  0  3  0  0  0  0  0  0
  189.8770  173.5600  143.3240 N   0  0  0  0  0  2  0  0  0  0  0  0
  188.9960  177.7770  142.5230 C   0  0  0  0  0  2  0  0  0  0  0  0
  191.2430  173.7790  143.8270 C   0  0  0  0  0  2  0  0  0  0  0  0
  188.4790  176.5650  141.7010 C   0  0  0  0  0  2  0  0  0  0  0  0
  187.3300  174.5060  142.1450 O   0  0  0  0  0  0  0  0  0  0  0  0
  189.2380  174.8030  143.4520 N   0  0  0  0  0  0  0  0  0  0  0  0
  188.2880  175.2570  142.4680 C   0  0  0  0  0  0  0  0  0  0  0  0
  194.7700  177.6560  145.8590 O   0  0  0  0  0  1  0  0  0  0  0  0
  194.4490  176.3660  146.2790 C   0  0  0  0  0  2  0  0  0  0  0  0
  191.5020  176.4510  146.3100 C   0  0  0  0  0  2  0  0  0  0  0  0
  191.1270  175.4920  147.4290 C   0  0  0  0  0  2  0  0  0  0  0  0
  189.6370  175.2180  147.4300 C   0  0  0  0  0  2  0  0  0  0  0  0
  188.9520  176.3860  147.0960 O   0  0  0  0  0  0  0  0  0  0  0  0
  187.5990  176.0330  147.1190 C   0  0  0  0  0  2  0  0  0  0  0  0
  184.3010  178.5250  143.8220 C   0  0  0  0  0  0  0  0  0  0  0  0
  185.7810  176.6100  144.6260 C   0  0  0  0  0  2  0  0  0  0  0  0
  185.6690  179.1410  147.2780 C   0  0  0  0  0  3  0  0  0  0  0  0
  186.5700  178.2060  147.7900 C   0  0  0  0  0  3  0  0  0  0  0  0
  183.4170  178.8950  143.0070 O   0  0  0  0  0  0  0  0  0  0  0  0
  186.7660  177.2090  146.8990 N   0  0  0  0  0  0  0  0  0  0  0  0
  185.2790  177.4400  143.4270 C   0  0  0  0  0  2  0  0  0  0  0  0
  185.3430  178.6450  146.0320 C   0  0  0  0  0  0  0  0  0  0  0  0
  186.0240  177.4860  145.8190 C   0  0  0  0  0  0  0  0  0  0  0  0
  184.4220  179.1840  145.0900 N   0  0  0  0  0  2  0  0  0  0  0  0
  1  2  1  0  0  0  0
  1 16  1  0  0  0  0
  2 17  1  0  0  0  0
  3  1  2  0  0  0  0
  4  2  1  1  0  0  0
  5 13  1  6  0  0  0
  5  4  1  0  0  0  0
  7  6  1  1  0  0  0
  7  5  1  0  0  0  0
  7  4  1  0  0  0  0
  8 13  1  0  0  0  0
  8 10  1  0  0  0  0
  9  6  1  0  0  0  0
 10  4  1  0  0  0  0
 11 14  1  0  0  0  0
 11  9  1  0  0  0  0
 12 14  2  0  0  0  0
 14 13  1  0  0  0  0
 15 16  1  0  0  0  0
 17 18  1  0  0  0  0
 18 19  1  0  0  0  0
 20 21  1  0  0  0  0
 20 19  1  0  0  0  0
 22 31  1  0  0  0  0
 23 30  1  0  0  0  0
 24 25  2  0  0  0  0
 26 22  2  0  0  0  0
 27 21  1  0  0  0  0
 27 25  1  0  0  0  0
 28 22  1  0  0  0  0
 28 23  1  0  0  0  0
 29 24  1  0  0  0  0
 30 29  2  0  0  0  0
 30 27  1  0  0  0  0
 31 29  1  0  0  0  0
M  END
>  <MODEL>
2

>  <REMARK>
 VINA RESULT:      -6.8      1.754      5.098
  Name = 
  8 active torsions:
  status: ('A' for Active; 'I' for Inactive)
    1  A    between atoms: C_2  and  C_28
    2  A    between atoms: C_4  and  N_12
    3  A    between atoms: N_9  and  C_23
    4  A    between atoms: N_12  and  C_25
    5  A    between atoms: O_15  and  C_20
    6  A    between atoms: O_15  and  C_23
    7  A    between atoms: C_20  and  C_27
    8  A    between atoms: C_25  and  C_27
                            x       y       z     vdW  Elec       q    Type
                         _______ _______ _______ _____ _____    ______ ____

>  <TORSDO>
F 8

$$$$
=
 OpenBabel11052417533D

 31 35  0  0  1  0  0  0  0  0999 V2000
  193.5770  175.1380  142.5130 C   0  0  0  0  0  0  0  0  0  0  0  0
  192.2600  175.2020  143.0990 N   0  0  0  0  0  0  0  0  0  0  0  0
  194.3950  176.0830  142.6790 O   0  0  0  0  0  0  0  0  0  0  0  0
  191.9080  176.2680  144.0430 C   0  0  1  0  0  0  0  0  0  0  0  0
  191.0250  175.8110  145.1030 C   0  0  1  0  0  3  0  0  0  0  0  0
  192.6580  175.1340  146.5410 C   0  0  0  0  0  2  0  0  0  0  0  0
  192.4470  176.2130  145.4900 C   0  0  1  0  0  3  0  0  0  0  0  0
  190.2580  177.9750  144.5540 N   0  0  0  0  0  2  0  0  0  0  0  0
  191.6460  175.2820  147.7190 C   0  0  0  0  0  2  0  0  0  0  0  0
  191.2470  177.5550  143.5470 C   0  0  0  0  0  2  0  0  0  0  0  0
  191.0590  176.7060  147.9250 C   0  0  0  0  0  2  0  0  0  0  0  0
  189.0840  177.9010  147.2720 O   0  0  0  0  0  0  0  0  0  0  0  0
  190.2100  176.9220  145.4800 N   0  0  0  0  0  0  0  0  0  0  0  0
  190.0390  177.1750  146.8890 C   0  0  0  0  0  0  0  0  0  0  0  0
  195.2150  174.2270  141.0800 O   0  0  0  0  0  1  0  0  0  0  0  0
  194.0220  173.9400  141.7410 C   0  0  0  0  0  2  0  0  0  0  0  0
  191.3190  174.1000  142.9070 C   0  0  0  0  0  2  0  0  0  0  0  0
  190.2380  174.4840  141.9090 C   0  0  0  0  0  2  0  0  0  0  0  0
  188.8580  174.2820  142.5010 C   0  0  0  0  0  2  0  0  0  0  0  0
  187.9050  174.8620  141.6620 O   0  0  0  0  0  0  0  0  0  0  0  0
  188.1490  176.2360  141.7320 C   0  0  0  0  0  2  0  0  0  0  0  0
  184.6540  178.0290  145.2720 C   0  0  0  0  0  0  0  0  0  0  0  0
  186.8110  176.9170  144.4900 C   0  0  0  0  0  2  0  0  0  0  0  0
  185.0640  178.2010  141.5310 C   0  0  0  0  0  3  0  0  0  0  0  0
  186.1620  177.5430  140.9730 C   0  0  0  0  0  3  0  0  0  0  0  0
  184.0230  178.5240  146.2400 O   0  0  0  0  0  0  0  0  0  0  0  0
  186.9020  176.9600  141.9430 N   0  0  0  0  0  0  0  0  0  0  0  0
  185.6630  176.9280  145.5180 C   0  0  0  0  0  2  0  0  0  0  0  0
  185.1920  177.9740  142.8860 C   0  0  0  0  0  0  0  0  0  0  0  0
  186.2990  177.2150  143.1120 C   0  0  0  0  0  0  0  0  0  0  0  0
  184.3610  178.4590  143.9360 N   0  0  0  0  0  2  0  0  0  0  0  0
  1  3  2  0  0  0  0
  1  2  1  0  0  0  0
  4  2  1  6  0  0  0
  4  5  1  0  0  0  0
  4  7  1  0  0  0  0
  5 13  1  1  0  0  0
  5  7  1  0  0  0  0
  6  9  1  0  0  0  0
  7  6  1  6  0  0  0
  8 13  1  0  0  0  0
  9 11  1  0  0  0  0
 10  4  1  0  0  0  0
 10  8  1  0  0  0  0
 13 14  1  0  0  0  0
 14 12  2  0  0  0  0
 14 11  1  0  0  0  0
 15 16  1  0  0  0  0
 16  1  1  0  0  0  0
 17  2  1  0  0  0  0
 18 19  1  0  0  0  0
 18 17  1  0  0  0  0
 20 21  1  0  0  0  0
 20 19  1  0  0  0  0
 21 27  1  0  0  0  0
 22 28  1  0  0  0  0
 22 26  2  0  0  0  0
 23 28  1  0  0  0  0
 24 29  1  0  0  0  0
 25 24  2  0  0  0  0
 25 27  1  0  0  0  0
 27 30  1  0  0  0  0
 29 30  2  0  0  0  0
 29 31  1  0  0  0  0
 30 23  1  0  0  0  0
 31 22  1  0  0  0  0
M  END
>  <MODEL>
3

>  <REMARK>
 VINA RESULT:      -6.7      2.146      3.353
  Name = 
  8 active torsions:
  status: ('A' for Active; 'I' for Inactive)
    1  A    between atoms: C_2  and  C_28
    2  A    between atoms: C_4  and  N_12
    3  A    between atoms: N_9  and  C_23
    4  A    between atoms: N_12  and  C_25
    5  A    between atoms: O_15  and  C_20
    6  A    between atoms: O_15  and  C_23
    7  A    between atoms: C_20  and  C_27
    8  A    between atoms: C_25  and  C_27
                            x       y       z     vdW  Elec       q    Type
                         _______ _______ _______ _____ _____    ______ ____

>  <TORSDO>
F 8

$$$$
=
 OpenBabel11052417533D

 31 35  0  0  1  0  0  0  0  0999 V2000
  188.3910  174.8030  142.7390 C   0  0  0  0  0  0  0  0  0  0  0  0
  188.6610  175.8290  143.7170 N   0  0  0  0  0  0  0  0  0  0  0  0
  187.3350  174.8420  142.0520 O   0  0  0  0  0  0  0  0  0  0  0  0
  187.8180  177.0250  143.8050 C   0  0  1  0  0  0  0  0  0  0  0  0
  186.4250  176.7130  144.0760 C   0  0  1  0  0  3  0  0  0  0  0  0
  186.5870  176.7120  146.3500 C   0  0  0  0  0  2  0  0  0  0  0  0
  187.2140  177.4350  145.1670 C   0  0  1  0  0  3  0  0  0  0  0  0
  186.3660  178.5040  142.5390 N   0  0  0  0  0  2  0  0  0  0  0  0
  185.0520  176.9850  146.4320 C   0  0  0  0  0  2  0  0  0  0  0  0
  187.7500  178.0130  142.6380 C   0  0  0  0  0  2  0  0  0  0  0  0
  184.5650  178.2940  145.7530 C   0  0  0  0  0  2  0  0  0  0  0  0
  183.6470  178.9320  143.6310 O   0  0  0  0  0  0  0  0  0  0  0  0
  185.6370  177.7300  143.4550 N   0  0  0  0  0  0  0  0  0  0  0  0
  184.5620  178.3040  144.2250 C   0  0  0  0  0  0  0  0  0  0  0  0
  188.7390  172.4710  142.6540 O   0  0  0  0  0  1  0  0  0  0  0  0
  189.3670  173.7030  142.4820 C   0  0  0  0  0  2  0  0  0  0  0  0
  189.8900  175.7810  144.5070 C   0  0  0  0  0  2  0  0  0  0  0  0
  189.6880  174.9560  145.7690 C   0  0  0  0  0  2  0  0  0  0  0  0
  190.3170  175.6370  146.9680 C   0  0  0  0  0  2  0  0  0  0  0  0
  191.2070  176.6180  146.5280 O   0  0  0  0  0  0  0  0  0  0  0  0
  192.4090  176.3370  147.1840 C   0  0  0  0  0  2  0  0  0  0  0  0
  195.0160  172.8950  144.1310 C   0  0  0  0  0  0  0  0  0  0  0  0
  193.2010  173.6580  145.7520 C   0  0  0  0  0  2  0  0  0  0  0  0
  195.1400  176.6080  144.7580 C   0  0  0  0  0  3  0  0  0  0  0  0
  194.2550  177.1310  145.7020 C   0  0  0  0  0  3  0  0  0  0  0  0
  195.4110  171.9910  143.3520 O   0  0  0  0  0  0  0  0  0  0  0  0
  193.4820  176.1480  146.2150 N   0  0  0  0  0  0  0  0  0  0  0  0
  194.1680  172.5340  145.3320 C   0  0  0  0  0  2  0  0  0  0  0  0
  194.8520  175.2590  144.7410 C   0  0  0  0  0  0  0  0  0  0  0  0
  193.8570  175.0010  145.6340 C   0  0  0  0  0  0  0  0  0  0  0  0
  195.4310  174.2510  143.9180 N   0  0  0  0  0  2  0  0  0  0  0  0
  1  2  1  0  0  0  0
  2 17  1  0  0  0  0
  3  1  2  0  0  0  0
  4  2  1  6  0  0  0
  4  5  1  0  0  0  0
  4  7  1  0  0  0  0
  5 13  1  6  0  0  0
  5  7  1  0  0  0  0
  6  9  1  0  0  0  0
  7  6  1  1  0  0  0
  8 10  1  0  0  0  0
  8 13  1  0  0  0  0
 10  4  1  0  0  0  0
 11  9  1  0  0  0  0
 12 14  2  0  0  0  0
 13 14  1  0  0  0  0
 14 11  1  0  0  0  0
 16 15  1  0  0  0  0
 16  1  1  0  0  0  0
 17 18  1  0  0  0  0
 18 19  1  0  0  0  0
 20 19  1  0  0  0  0
 20 21  1  0  0  0  0
 22 28  1  0  0  0  0
 24 25  2  0  0  0  0
 25 27  1  0  0  0  0
 26 22  2  0  0  0  0
 27 21  1  0  0  0  0
 28 23  1  0  0  0  0
 29 24  1  0  0  0  0
 29 30  2  0  0  0  0
 30 23  1  0  0  0  0
 30 27  1  0  0  0  0
 31 22  1  0  0  0  0
 31 29  1  0  0  0  0
M  END
>  <MODEL>
4

>  <REMARK>
 VINA RESULT:      -6.4      2.252      7.422
  Name = 
  8 active torsions:
  status: ('A' for Active; 'I' for Inactive)
    1  A    between atoms: C_2  and  C_28
    2  A    between atoms: C_4  and  N_12
    3  A    between atoms: N_9  and  C_23
    4  A    between atoms: N_12  and  C_25
    5  A    between atoms: O_15  and  C_20
    6  A    between atoms: O_15  and  C_23
    7  A    between atoms: C_20  and  C_27
    8  A    between atoms: C_25  and  C_27
                            x       y       z     vdW  Elec       q    Type
                         _______ _______ _______ _____ _____    ______ ____

>  <TORSDO>
F 8

$$$$
=
 OpenBabel11052417533D

 31 35  0  0  1  0  0  0  0  0999 V2000
  189.8910  177.5390  142.8480 C   0  0  0  0  0  0  0  0  0  0  0  0
  188.5660  176.9700  142.8150 N   0  0  0  0  0  0  0  0  0  0  0  0
  190.1020  178.6880  142.3730 O   0  0  0  0  0  0  0  0  0  0  0  0
  187.4110  177.7740  142.4040 C   0  0  1  0  0  0  0  0  0  0  0  0
  186.1670  177.3210  143.0040 C   0  0  1  0  0  3  0  0  0  0  0  0
  186.3120  178.5760  144.9010 C   0  0  0  0  0  2  0  0  0  0  0  0
  186.7080  178.6830  143.4360 C   0  0  1  0  0  3  0  0  0  0  0  0
  185.5970  177.9310  140.7950 N   0  0  0  0  0  2  0  0  0  0  0  0
  184.7640  178.4590  145.0640 C   0  0  0  0  0  2  0  0  0  0  0  0
  187.0640  177.9310  140.9220 C   0  0  0  0  0  2  0  0  0  0  0  0
  183.9210  179.0330  143.8930 C   0  0  0  0  0  2  0  0  0  0  0  0
  182.8660  178.1860  141.9110 O   0  0  0  0  0  0  0  0  0  0  0  0
  185.1210  177.6150  142.0770 N   0  0  0  0  0  0  0  0  0  0  0  0
  183.9210  178.2230  142.5970 C   0  0  0  0  0  0  0  0  0  0  0  0
  191.8260  176.2380  142.4920 O   0  0  0  0  0  1  0  0  0  0  0  0
  191.0300  176.8120  143.4810 C   0  0  0  0  0  2  0  0  0  0  0  0
  188.3270  175.6390  143.3730 C   0  0  0  0  0  2  0  0  0  0  0  0
  188.5420  174.5670  142.3170 C   0  0  0  0  0  2  0  0  0  0  0  0
  188.8250  173.2240  142.9590 C   0  0  0  0  0  2  0  0  0  0  0  0
  190.1760  172.9120  142.8040 O   0  0  0  0  0  0  0  0  0  0  0  0
  190.5690  172.3770  144.0340 C   0  0  0  0  0  2  0  0  0  0  0  0
  191.2540  176.2870  147.5270 C   0  0  0  0  0  0  0  0  0  0  0  0
  189.9410  174.5180  146.2420 C   0  0  0  0  0  2  0  0  0  0  0  0
  193.4790  174.1760  145.3390 C   0  0  0  0  0  3  0  0  0  0  0  0
  192.8630  173.2330  144.5140 C   0  0  0  0  0  3  0  0  0  0  0  0
  191.2610  177.0870  148.4970 O   0  0  0  0  0  0  0  0  0  0  0  0
  191.5240  173.2610  144.6890 N   0  0  0  0  0  0  0  0  0  0  0  0
  189.9450  175.9320  146.8540 C   0  0  0  0  0  2  0  0  0  0  0  0
  192.4310  174.7670  146.0120 C   0  0  0  0  0  0  0  0  0  0  0  0
  191.2600  174.2100  145.5980 C   0  0  0  0  0  0  0  0  0  0  0  0
  192.4930  175.7730  147.0180 N   0  0  0  0  0  2  0  0  0  0  0  0
  1 16  1  0  0  0  0
  2  1  1  0  0  0  0
  2 17  1  0  0  0  0
  3  1  2  0  0  0  0
  4  2  1  1  0  0  0
  4  5  1  0  0  0  0
  4  7  1  0  0  0  0
  5 13  1  6  0  0  0
  5  7  1  0  0  0  0
  6  9  1  0  0  0  0
  7  6  1  1  0  0  0
  8 10  1  0  0  0  0
  8 13  1  0  0  0  0
 10  4  1  0  0  0  0
 11  9  1  0  0  0  0
 12 14  2  0  0  0  0
 13 14  1  0  0  0  0
 14 11  1  0  0  0  0
 15 16  1  0  0  0  0
 18 19  1  0  0  0  0
 18 17  1  0  0  0  0
 20 19  1  0  0  0  0
 20 21  1  0  0  0  0
 21 27  1  0  0  0  0
 22 26  2  0  0  0  0
 23 28  1  0  0  0  0
 24 29  1  0  0  0  0
 25 27  1  0  0  0  0
 25 24  2  0  0  0  0
 27 30  1  0  0  0  0
 28 22  1  0  0  0  0
 29 31  1  0  0  0  0
 30 29  2  0  0  0  0
 30 23  1  0  0  0  0
 31 22  1  0  0  0  0
M  END
>  <MODEL>
5

>  <REMARK>
 VINA RESULT:      -6.3      2.110      6.802
  Name = 
  8 active torsions:
  status: ('A' for Active; 'I' for Inactive)
    1  A    between atoms: C_2  and  C_28
    2  A    between atoms: C_4  and  N_12
    3  A    between atoms: N_9  and  C_23
    4  A    between atoms: N_12  and  C_25
    5  A    between atoms: O_15  and  C_20
    6  A    between atoms: O_15  and  C_23
    7  A    between atoms: C_20  and  C_27
    8  A    between atoms: C_25  and  C_27
                            x       y       z     vdW  Elec       q    Type
                         _______ _______ _______ _____ _____    ______ ____

>  <TORSDO>
F 8

$$$$
=
 OpenBabel11052417533D

 31 35  0  0  1  0  0  0  0  0999 V2000
  189.8780  177.5600  144.0140 C   0  0  0  0  0  0  0  0  0  0  0  0
  188.5810  177.2280  143.4760 N   0  0  0  0  0  0  0  0  0  0  0  0
  190.0060  177.8430  145.2360 O   0  0  0  0  0  0  0  0  0  0  0  0
  187.4270  177.0320  144.3590 C   0  0  1  0  0  0  0  0  0  0  0  0
  186.9440  178.2740  144.9380 C   0  0  1  0  0  3  0  0  0  0  0  0
  185.5070  178.8140  143.2530 C   0  0  0  0  0  2  0  0  0  0  0  0
  186.0410  177.5620  143.9330 C   0  0  1  0  0  3  0  0  0  0  0  0
  186.7570  176.6770  146.6670 N   0  0  0  0  0  2  0  0  0  0  0  0
  184.7120  179.7090  144.2540 C   0  0  0  0  0  2  0  0  0  0  0  0
  187.5220  176.0840  145.5570 C   0  0  0  0  0  2  0  0  0  0  0  0
  184.1200  178.9730  145.4880 C   0  0  0  0  0  2  0  0  0  0  0  0
  184.7610  178.5700  147.7640 O   0  0  0  0  0  0  0  0  0  0  0  0
  186.3960  177.9570  146.2180 N   0  0  0  0  0  0  0  0  0  0  0  0
  185.1180  178.5320  146.5570 C   0  0  0  0  0  0  0  0  0  0  0  0
  192.2360  177.6160  143.9620 O   0  0  0  0  0  1  0  0  0  0  0  0
  191.1000  177.5330  143.1580 C   0  0  0  0  0  2  0  0  0  0  0  0
  188.4400  176.8960  142.0590 C   0  0  0  0  0  2  0  0  0  0  0  0
  187.9120  175.4800  141.8890 C   0  0  0  0  0  2  0  0  0  0  0  0
  188.8790  174.6350  141.0830 C   0  0  0  0  0  2  0  0  0  0  0  0
  189.2910  173.5450  141.8500 O   0  0  0  0  0  0  0  0  0  0  0  0
  190.6710  173.7100  142.0010 C   0  0  0  0  0  2  0  0  0  0  0  0
  194.5090  174.6700  145.5100 C   0  0  0  0  0  0  0  0  0  0  0  0
  193.5010  174.3770  143.1860 C   0  0  0  0  0  2  0  0  0  0  0  0
  190.7760  174.1740  145.6330 C   0  0  0  0  0  3  0  0  0  0  0  0
  190.1220  173.9080  144.4280 C   0  0  0  0  0  3  0  0  0  0  0  0
  195.4950  175.0670  146.1810 O   0  0  0  0  0  0  0  0  0  0  0  0
  191.0070  173.8980  143.4070 N   0  0  0  0  0  0  0  0  0  0  0  0
  194.7170  174.1490  144.1040 C   0  0  0  0  0  2  0  0  0  0  0  0
  192.0990  174.3180  145.2700 C   0  0  0  0  0  0  0  0  0  0  0  0
  192.2190  174.1370  143.9260 C   0  0  0  0  0  0  0  0  0  0  0  0
  193.2050  174.6440  146.1060 N   0  0  0  0  0  2  0  0  0  0  0  0
  1  3  2  0  0  0  0
  2  1  1  0  0  0  0
  4  2  1  6  0  0  0
  4  5  1  0  0  0  0
  4 10  1  0  0  0  0
  5 13  1  1  0  0  0
  6  9  1  0  0  0  0
  7  6  1  6  0  0  0
  7  4  1  0  0  0  0
  7  5  1  0  0  0  0
  9 11  1  0  0  0  0
 10  8  1  0  0  0  0
 11 14  1  0  0  0  0
 13 14  1  0  0  0  0
 13  8  1  0  0  0  0
 14 12  2  0  0  0  0
 16 15  1  0  0  0  0
 16  1  1  0  0  0  0
 17  2  1  0  0  0  0
 18 17  1  0  0  0  0
 19 20  1  0  0  0  0
 19 18  1  0  0  0  0
 20 21  1  0  0  0  0
 21 27  1  0  0  0  0
 22 31  1  0  0  0  0
 22 26  2  0  0  0  0
 23 30  1  0  0  0  0
 23 28  1  0  0  0  0
 25 24  2  0  0  0  0
 27 30  1  0  0  0  0
 27 25  1  0  0  0  0
 28 22  1  0  0  0  0
 29 24  1  0  0  0  0
 29 31  1  0  0  0  0
 30 29  2  0  0  0  0
M  END
>  <MODEL>
6

>  <REMARK>
 VINA RESULT:      -6.2      1.965      6.772
  Name = 
  8 active torsions:
  status: ('A' for Active; 'I' for Inactive)
    1  A    between atoms: C_2  and  C_28
    2  A    between atoms: C_4  and  N_12
    3  A    between atoms: N_9  and  C_23
    4  A    between atoms: N_12  and  C_25
    5  A    between atoms: O_15  and  C_20
    6  A    between atoms: O_15  and  C_23
    7  A    between atoms: C_20  and  C_27
    8  A    between atoms: C_25  and  C_27
                            x       y       z     vdW  Elec       q    Type
                         _______ _______ _______ _____ _____    ______ ____

>  <TORSDO>
F 8

$$$$
=
 OpenBabel11052417533D

 31 35  0  0  1  0  0  0  0  0999 V2000
  191.0400  172.3970  142.7650 C   0  0  0  0  0  0  0  0  0  0  0  0
  191.5060  173.7620  142.7780 N   0  0  0  0  0  0  0  0  0  0  0  0
  191.6370  171.5130  143.4370 O   0  0  0  0  0  0  0  0  0  0  0  0
  192.5600  174.1880  143.7040 C   0  0  1  0  0  0  0  0  0  0  0  0
  192.3390  175.5240  144.2320 C   0  0  1  0  0  3  0  0  0  0  0  0
  191.0750  174.9000  146.0230 C   0  0  0  0  0  2  0  0  0  0  0  0
  192.2350  174.3520  145.2050 C   0  0  1  0  0  3  0  0  0  0  0  0
  194.6680  175.3840  143.8680 N   0  0  0  0  0  2  0  0  0  0  0  0
  191.4590  176.2390  146.7260 C   0  0  0  0  0  2  0  0  0  0  0  0
  194.0230  174.2100  143.2560 C   0  0  0  0  0  2  0  0  0  0  0  0
  192.9770  176.4600  146.9670 C   0  0  0  0  0  2  0  0  0  0  0  0
  194.7860  177.5770  145.8550 O   0  0  0  0  0  0  0  0  0  0  0  0
  193.6240  176.0980  144.4780 N   0  0  0  0  0  0  0  0  0  0  0  0
  193.8210  176.7780  145.7330 C   0  0  0  0  0  0  0  0  0  0  0  0
  190.1880  171.4960  140.7570 O   0  0  0  0  0  1  0  0  0  0  0  0
  189.8180  172.0040  142.0010 C   0  0  0  0  0  2  0  0  0  0  0  0
  190.8050  174.7830  142.0010 C   0  0  0  0  0  2  0  0  0  0  0  0
  189.5100  175.1860  142.6880 C   0  0  0  0  0  2  0  0  0  0  0  0
  189.2710  176.6770  142.5600 C   0  0  0  0  0  2  0  0  0  0  0  0
  188.2090  176.9010  141.6830 O   0  0  0  0  0  0  0  0  0  0  0  0
  187.1660  176.1040  142.1650 C   0  0  0  0  0  2  0  0  0  0  0  0
  184.7440  178.0600  146.4400 C   0  0  0  0  0  0  0  0  0  0  0  0
  186.5440  176.7770  145.1680 C   0  0  0  0  0  2  0  0  0  0  0  0
  184.3470  178.3790  142.7070 C   0  0  0  0  0  3  0  0  0  0  0  0
  185.2180  177.6420  141.9010 C   0  0  0  0  0  3  0  0  0  0  0  0
  184.3970  178.5670  147.5370 O   0  0  0  0  0  0  0  0  0  0  0  0
  186.0820  176.9390  142.6670 N   0  0  0  0  0  0  0  0  0  0  0  0
  185.6560  176.8520  146.4250 C   0  0  0  0  0  2  0  0  0  0  0  0
  184.7400  178.0720  143.9930 C   0  0  0  0  0  0  0  0  0  0  0  0
  185.7800  177.1940  143.9470 C   0  0  0  0  0  0  0  0  0  0  0  0
  184.2170  178.5850  145.2130 N   0  0  0  0  0  2  0  0  0  0  0  0
  1  2  1  0  0  0  0
  1  3  2  0  0  0  0
  4  2  1  6  0  0  0
  4  5  1  0  0  0  0
  4  7  1  0  0  0  0
  5 13  1  1  0  0  0
  5  7  1  0  0  0  0
  6  9  1  0  0  0  0
  7  6  1  6  0  0  0
  8 13  1  0  0  0  0
  9 11  1  0  0  0  0
 10  4  1  0  0  0  0
 10  8  1  0  0  0  0
 13 14  1  0  0  0  0
 14 12  2  0  0  0  0
 14 11  1  0  0  0  0
 15 16  1  0  0  0  0
 16  1  1  0  0  0  0
 17 18  1  0  0  0  0
 17  2  1  0  0  0  0
 19 18  1  0  0  0  0
 20 21  1  0  0  0  0
 20 19  1  0  0  0  0
 21 27  1  0  0  0  0
 22 26  2  0  0  0  0
 23 28  1  0  0  0  0
 24 29  1  0  0  0  0
 25 27  1  0  0  0  0
 25 24  2  0  0  0  0
 27 30  1  0  0  0  0
 28 22  1  0  0  0  0
 29 31  1  0  0  0  0
 30 29  2  0  0  0  0
 30 23  1  0  0  0  0
 31 22  1  0  0  0  0
M  END
>  <MODEL>
7

>  <REMARK>
 VINA RESULT:      -6.2      1.572      1.917
  Name = 
  8 active torsions:
  status: ('A' for Active; 'I' for Inactive)
    1  A    between atoms: C_2  and  C_28
    2  A    between atoms: C_4  and  N_12
    3  A    between atoms: N_9  and  C_23
    4  A    between atoms: N_12  and  C_25
    5  A    between atoms: O_15  and  C_20
    6  A    between atoms: O_15  and  C_23
    7  A    between atoms: C_20  and  C_27
    8  A    between atoms: C_25  and  C_27
                            x       y       z     vdW  Elec       q    Type
                         _______ _______ _______ _____ _____    ______ ____

>  <TORSDO>
F 8

$$$$
=
 OpenBabel11052417533D

 31 35  0  0  1  0  0  0  0  0999 V2000
  191.5070  171.8050  143.0290 C   0  0  0  0  0  0  0  0  0  0  0  0
  190.7600  173.0370  142.9580 N   0  0  0  0  0  0  0  0  0  0  0  0
  192.6150  171.7660  143.6290 O   0  0  0  0  0  0  0  0  0  0  0  0
  191.1740  174.2140  143.7280 C   0  0  1  0  0  0  0  0  0  0  0  0
  190.0500  175.0300  144.1570 C   0  0  1  0  0  3  0  0  0  0  0  0
  189.6590  173.9370  146.1180 C   0  0  0  0  0  2  0  0  0  0  0  0
  190.8450  174.2940  145.2350 C   0  0  1  0  0  3  0  0  0  0  0  0
  191.7380  176.5710  143.5650 N   0  0  0  0  0  2  0  0  0  0  0  0
  188.9470  175.2170  146.6580 C   0  0  0  0  0  2  0  0  0  0  0  0
  192.1520  175.2270  143.1280 C   0  0  0  0  0  2  0  0  0  0  0  0
  189.8230  176.4970  146.7180 C   0  0  0  0  0  2  0  0  0  0  0  0
  190.2310  178.4100  145.3290 O   0  0  0  0  0  0  0  0  0  0  0  0
  190.5090  176.3810  144.2160 N   0  0  0  0  0  0  0  0  0  0  0  0
  190.1560  177.1550  145.3800 C   0  0  0  0  0  0  0  0  0  0  0  0
  191.3250  170.4640  141.0960 O   0  0  0  0  0  1  0  0  0  0  0  0
  190.9720  170.5410  142.4420 C   0  0  0  0  0  2  0  0  0  0  0  0
  189.4720  173.0730  142.2660 C   0  0  0  0  0  2  0  0  0  0  0  0
  189.6180  173.7070  140.8910 C   0  0  0  0  0  2  0  0  0  0  0  0
  188.3840  174.5100  140.5320 C   0  0  0  0  0  2  0  0  0  0  0  0
  187.8960  175.1440  141.6750 O   0  0  0  0  0  0  0  0  0  0  0  0
  187.9800  176.5110  141.3950 C   0  0  0  0  0  2  0  0  0  0  0  0
  184.5630  178.2800  145.0230 C   0  0  0  0  0  0  0  0  0  0  0  0
  186.7510  177.2770  144.1810 C   0  0  0  0  0  2  0  0  0  0  0  0
  184.7480  178.2290  141.2600 C   0  0  0  0  0  3  0  0  0  0  0  0
  185.8590  177.6160  140.6780 C   0  0  0  0  0  3  0  0  0  0  0  0
  183.9510  178.7930  145.9940 O   0  0  0  0  0  0  0  0  0  0  0  0
  186.6940  177.1550  141.6360 N   0  0  0  0  0  0  0  0  0  0  0  0
  185.6650  177.2740  145.2750 C   0  0  0  0  0  2  0  0  0  0  0  0
  184.9680  178.1040  142.6160 C   0  0  0  0  0  0  0  0  0  0  0  0
  186.1410  177.4440  142.8210 C   0  0  0  0  0  0  0  0  0  0  0  0
  184.1630  178.5970  143.6820 N   0  0  0  0  0  2  0  0  0  0  0  0
  1  3  2  0  0  0  0
  2  1  1  0  0  0  0
  4  2  1  6  0  0  0
  4  5  1  0  0  0  0
  4  7  1  0  0  0  0
  5 13  1  1  0  0  0
  5  7  1  0  0  0  0
  6  9  1  0  0  0  0
  7  6  1  6  0  0  0
  8 13  1  0  0  0  0
  9 11  1  0  0  0  0
 10  8  1  0  0  0  0
 10  4  1  0  0  0  0
 12 14  2  0  0  0  0
 13 14  1  0  0  0  0
 14 11  1  0  0  0  0
 15 16  1  0  0  0  0
 16  1  1  0  0  0  0
 17  2  1  0  0  0  0
 18 17  1  0  0  0  0
 19 18  1  0  0  0  0
 19 20  1  0  0  0  0
 21 27  1  0  0  0  0
 21 20  1  0  0  0  0
 22 28  1  0  0  0  0
 22 26  2  0  0  0  0
 23 28  1  0  0  0  0
 24 29  1  0  0  0  0
 25 24  2  0  0  0  0
 25 27  1  0  0  0  0
 27 30  1  0  0  0  0
 29 30  2  0  0  0  0
 29 31  1  0  0  0  0
 30 23  1  0  0  0  0
 31 22  1  0  0  0  0
M  END
>  <MODEL>
8

>  <REMARK>
 VINA RESULT:      -6.2      1.832      2.442
  Name = 
  8 active torsions:
  status: ('A' for Active; 'I' for Inactive)
    1  A    between atoms: C_2  and  C_28
    2  A    between atoms: C_4  and  N_12
    3  A    between atoms: N_9  and  C_23
    4  A    between atoms: N_12  and  C_25
    5  A    between atoms: O_15  and  C_20
    6  A    between atoms: O_15  and  C_23
    7  A    between atoms: C_20  and  C_27
    8  A    between atoms: C_25  and  C_27
                            x       y       z     vdW  Elec       q    Type
                         _______ _______ _______ _____ _____    ______ ____

>  <TORSDO>
F 8

$$$$
=
 OpenBabel11052417533D

 31 35  0  0  1  0  0  0  0  0999 V2000
  191.2640  172.9240  143.6600 C   0  0  0  0  0  0  0  0  0  0  0  0
  192.0170  174.0910  144.0510 N   0  0  0  0  0  0  0  0  0  0  0  0
  191.5880  172.2730  142.6300 O   0  0  0  0  0  0  0  0  0  0  0  0
  193.2720  174.4380  143.3760 C   0  0  1  0  0  0  0  0  0  0  0  0
  194.2050  175.1340  144.2460 C   0  0  1  0  0  3  0  0  0  0  0  0
  195.2220  173.2770  145.0900 C   0  0  0  0  0  2  0  0  0  0  0  0
  194.5800  173.7270  143.7850 C   0  0  1  0  0  3  0  0  0  0  0  0
  194.4230  176.1870  142.1440 N   0  0  0  0  0  2  0  0  0  0  0  0
  196.4660  174.1500  145.4420 C   0  0  0  0  0  2  0  0  0  0  0  0
  193.2570  175.2880  142.1030 C   0  0  0  0  0  2  0  0  0  0  0  0
  197.1530  174.8560  144.2400 C   0  0  0  0  0  2  0  0  0  0  0  0
  197.0680  177.0110  143.1900 O   0  0  0  0  0  0  0  0  0  0  0  0
  194.9750  176.0110  143.4230 N   0  0  0  0  0  0  0  0  0  0  0  0
  196.4010  176.0370  143.6280 C   0  0  0  0  0  0  0  0  0  0  0  0
  189.1290  171.9210  143.6460 O   0  0  0  0  0  1  0  0  0  0  0  0
  190.1210  172.4300  144.4820 C   0  0  0  0  0  2  0  0  0  0  0  0
  191.6390  174.8380  145.2500 C   0  0  0  0  0  2  0  0  0  0  0  0
  190.5590  175.8580  144.9290 C   0  0  0  0  0  2  0  0  0  0  0  0
  191.1670  177.2120  144.6220 C   0  0  0  0  0  2  0  0  0  0  0  0
  190.2620  177.9670  143.8760 O   0  0  0  0  0  0  0  0  0  0  0  0
  189.3410  177.0410  143.3780 C   0  0  0  0  0  2  0  0  0  0  0  0
  184.8880  177.9950  146.0670 C   0  0  0  0  0  0  0  0  0  0  0  0
  187.2860  177.1870  145.7470 C   0  0  0  0  0  2  0  0  0  0  0  0
  186.2010  178.7670  142.6210 C   0  0  0  0  0  3  0  0  0  0  0  0
  187.4710  178.2900  142.2930 C   0  0  0  0  0  3  0  0  0  0  0  0
  183.9820  178.2870  146.8880 O   0  0  0  0  0  0  0  0  0  0  0  0
  188.0060  177.6250  143.3420 N   0  0  0  0  0  0  0  0  0  0  0  0
  185.9240  176.9520  146.4280 C   0  0  0  0  0  2  0  0  0  0  0  0
  186.0090  178.3470  143.9200 C   0  0  0  0  0  0  0  0  0  0  0  0
  187.1040  177.6510  144.3330 C   0  0  0  0  0  0  0  0  0  0  0  0
  184.8920  178.6000  144.7660 N   0  0  0  0  0  2  0  0  0  0  0  0
  1  2  1  0  0  0  0
  1 16  1  0  0  0  0
  2 17  1  0  0  0  0
  3  1  2  0  0  0  0
  4  7  1  0  0  0  0
  4  2  1  1  0  0  0
  4  5  1  0  0  0  0
  5 13  1  6  0  0  0
  6  9  1  0  0  0  0
  7  5  1  0  0  0  0
  7  6  1  1  0  0  0
  8 13  1  0  0  0  0
 10  8  1  0  0  0  0
 10  4  1  0  0  0  0
 11  9  1  0  0  0  0
 12 14  2  0  0  0  0
 13 14  1  0  0  0  0
 14 11  1  0  0  0  0
 15 16  1  0  0  0  0
 18 17  1  0  0  0  0
 19 18  1  0  0  0  0
 20 19  1  0  0  0  0
 21 20  1  0  0  0  0
 22 28  1  0  0  0  0
 22 26  2  0  0  0  0
 23 28  1  0  0  0  0
 24 29  1  0  0  0  0
 25 24  2  0  0  0  0
 25 27  1  0  0  0  0
 27 21  1  0  0  0  0
 27 30  1  0  0  0  0
 29 30  2  0  0  0  0
 29 31  1  0  0  0  0
 30 23  1  0  0  0  0
 31 22  1  0  0  0  0
M  END
>  <MODEL>
9

>  <REMARK>
 VINA RESULT:      -6.1      2.612      3.697
  Name = 
  8 active torsions:
  status: ('A' for Active; 'I' for Inactive)
    1  A    between atoms: C_2  and  C_28
    2  A    between atoms: C_4  and  N_12
    3  A    between atoms: N_9  and  C_23
    4  A    between atoms: N_12  and  C_25
    5  A    between atoms: O_15  and  C_20
    6  A    between atoms: O_15  and  C_23
    7  A    between atoms: C_20  and  C_27
    8  A    between atoms: C_25  and  C_27
                            x       y       z     vdW  Elec       q    Type
                         _______ _______ _______ _____ _____    ______ ____

>  <TORSDO>
F 8

$$$$
