=
 OpenBabel11052418293D

 27 31  0  0  1  0  0  0  0  0999 V2000
  190.6480  173.7410  144.7480 C   0  0  0  0  0  2  0  0  0  0  0  0
  189.0210  175.3670  143.8520 C   0  0  0  0  0  0  0  0  0  0  0  0
  189.9070  176.2490  146.0460 N   0  0  0  0  0  2  0  0  0  0  0  0
  185.4280  177.4630  144.5320 C   0  0  0  0  0  3  0  0  0  0  0  0
  184.0660  178.8920  145.9180 O   0  0  0  0  0  1  0  0  0  0  0  0
  187.9730  175.3510  142.9150 C   0  0  0  0  0  3  0  0  0  0  0  0
  187.4710  177.5710  146.4390 C   0  0  0  0  0  3  0  0  0  0  0  0
  193.3400  176.7910  146.6780 C   0  0  0  0  0  3  0  0  0  0  0  0
  186.2750  178.2610  146.6530 C   0  0  0  0  0  3  0  0  0  0  0  0
  194.2520  175.9860  146.1370 C   0  0  0  0  0  3  0  0  0  0  0  0
  187.6620  176.8190  145.2690 C   0  0  0  0  0  0  0  0  0  0  0  0
  190.2890  174.6060  143.5610 C   0  0  2  0  0  3  0  0  0  0  0  0
  185.2540  178.2060  145.7020 C   0  0  0  0  0  0  0  0  0  0  0  0
  186.6220  176.7710  144.3110 C   0  0  0  0  0  0  0  0  0  0  0  0
  191.5820  174.4990  145.6160 C   0  0  0  0  0  0  0  0  0  0  0  0
  188.8690  176.1190  145.0470 C   0  0  0  0  0  0  0  0  0  0  0  0
  192.0700  176.2740  147.2630 C   0  0  0  0  0  2  0  0  0  0  0  0
  186.7870  176.0410  143.1400 C   0  0  0  0  0  3  0  0  0  0  0  0
  194.0830  174.5300  145.9770 C   0  0  0  0  0  3  0  0  0  0  0  0
  192.9250  173.8920  145.7630 C   0  0  0  0  0  3  0  0  0  0  0  0
  191.2000  175.6420  146.2250 C   0  0  0  0  0  0  0  0  0  0  0  0
  190.2920  172.2890  139.9610 C   0  0  0  0  0  3  0  0  0  0  0  0
  190.2850  173.8010  142.2900 C   0  0  0  0  0  0  0  0  0  0  0  0
  190.8780  174.2800  141.1130 C   0  0  0  0  0  3  0  0  0  0  0  0
  190.8680  173.5210  139.9850 N   0  0  0  0  0  0  0  0  0  0  0  0
  189.6910  171.7730  141.1130 C   0  0  0  0  0  3  0  0  0  0  0  0
  189.6920  172.5370  142.2820 C   0  0  0  0  0  3  0  0  0  0  0  0
  1 15  1  0  0  0  0
  2 16  1  0  0  0  0
  3 21  1  0  0  0  0
  4 13  2  0  0  0  0
  6 18  1  0  0  0  0
  6  2  2  0  0  0  0
  7  9  2  0  0  0  0
  8 17  1  0  0  0  0
 10  8  2  0  0  0  0
 11  7  1  0  0  0  0
 12 23  1  6  0  0  0
 12  2  1  0  0  0  0
 12  1  1  0  0  0  0
 13  5  1  0  0  0  0
 13  9  1  0  0  0  0
 14  4  1  0  0  0  0
 14 11  1  0  0  0  0
 15 20  1  0  0  0  0
 15 21  2  0  0  0  0
 16 11  2  0  0  0  0
 16  3  1  0  0  0  0
 18 14  2  0  0  0  0
 19 10  1  0  0  0  0
 20 19  2  0  0  0  0
 21 17  1  0  0  0  0
 22 25  2  0  0  0  0
 22 26  1  0  0  0  0
 24 23  2  0  0  0  0
 25 24  1  0  0  0  0
 26 27  2  0  0  0  0
 27 23  1  0  0  0  0
M  END
>  <MODEL>
1

>  <REMARK>
 VINA RESULT:      -8.2      0.000      0.000
  Name = 
  1 active torsions:
  status: ('A' for Active; 'I' for Inactive)
    1  A    between atoms: C_9  and  C_15
                            x       y       z     vdW  Elec       q    Type
                         _______ _______ _______ _____ _____    ______ ____

>  <TORSDO>
F 1

$$$$
=
 OpenBabel11052418293D

 27 31  0  0  1  0  0  0  0  0999 V2000
  189.1360  177.7920  145.2930 C   0  0  0  0  0  2  0  0  0  0  0  0
  188.1330  176.1320  143.7650 C   0  0  0  0  0  0  0  0  0  0  0  0
  190.5530  175.5150  144.1380 N   0  0  0  0  0  2  0  0  0  0  0  0
  188.3180  174.3040  139.9720 C   0  0  0  0  0  3  0  0  0  0  0  0
  189.5610  173.1350  138.2680 O   0  0  0  0  0  1  0  0  0  0  0  0
  187.0070  176.0680  142.9250 C   0  0  0  0  0  3  0  0  0  0  0  0
  190.6000  174.3640  141.5870 C   0  0  0  0  0  3  0  0  0  0  0  0
  191.9340  174.9160  147.3340 C   0  0  0  0  0  3  0  0  0  0  0  0
  190.6490  173.7620  140.3270 C   0  0  0  0  0  3  0  0  0  0  0  0
  191.4960  175.6010  148.3880 C   0  0  0  0  0  3  0  0  0  0  0  0
  189.4100  174.9440  142.0560 C   0  0  0  0  0  0  0  0  0  0  0  0
  188.0160  176.7920  145.1150 C   0  0  2  0  0  3  0  0  0  0  0  0
  189.5100  173.7330  139.5200 C   0  0  0  0  0  0  0  0  0  0  0  0
  188.2620  174.9080  141.2310 C   0  0  0  0  0  0  0  0  0  0  0  0
  190.2630  177.1180  145.9820 C   0  0  0  0  0  0  0  0  0  0  0  0
  189.3560  175.5550  143.3290 C   0  0  0  0  0  0  0  0  0  0  0  0
  192.1790  175.5600  146.0130 C   0  0  0  0  0  2  0  0  0  0  0  0
  187.0680  175.4660  141.6730 C   0  0  0  0  0  3  0  0  0  0  0  0
  191.1280  177.0270  148.3550 C   0  0  0  0  0  3  0  0  0  0  0  0
  190.6050  177.6810  147.3090 C   0  0  0  0  0  3  0  0  0  0  0  0
  190.9160  176.0840  145.4100 C   0  0  0  0  0  0  0  0  0  0  0  0
  184.2360  178.6040  145.9850 C   0  0  0  0  0  3  0  0  0  0  0  0
  186.6820  177.4190  145.4170 C   0  0  0  0  0  0  0  0  0  0  0  0
  185.7450  176.7910  146.2500 C   0  0  0  0  0  3  0  0  0  0  0  0
  184.5530  177.3910  146.5130 N   0  0  0  0  0  0  0  0  0  0  0  0
  185.1420  179.2650  145.1510 C   0  0  0  0  0  3  0  0  0  0  0  0
  186.3710  178.6650  144.8700 C   0  0  0  0  0  3  0  0  0  0  0  0
  1 15  1  0  0  0  0
  2 12  1  0  0  0  0
  3 21  1  0  0  0  0
  4 14  1  0  0  0  0
  5 13  1  0  0  0  0
  6  2  2  0  0  0  0
  7 11  1  0  0  0  0
  8 10  2  0  0  0  0
  9  7  2  0  0  0  0
 11 16  2  0  0  0  0
 12  1  1  0  0  0  0
 12 23  1  6  0  0  0
 13  4  2  0  0  0  0
 13  9  1  0  0  0  0
 14 18  2  0  0  0  0
 14 11  1  0  0  0  0
 15 20  1  0  0  0  0
 16  2  1  0  0  0  0
 16  3  1  0  0  0  0
 17  8  1  0  0  0  0
 18  6  1  0  0  0  0
 19 10  1  0  0  0  0
 20 19  2  0  0  0  0
 21 15  2  0  0  0  0
 21 17  1  0  0  0  0
 22 25  1  0  0  0  0
 23 24  1  0  0  0  0
 24 25  2  0  0  0  0
 26 22  2  0  0  0  0
 27 26  1  0  0  0  0
 27 23  2  0  0  0  0
M  END
>  <MODEL>
2

>  <REMARK>
 VINA RESULT:      -8.0      2.760      5.977
  Name = 
  1 active torsions:
  status: ('A' for Active; 'I' for Inactive)
    1  A    between atoms: C_9  and  C_15
                            x       y       z     vdW  Elec       q    Type
                         _______ _______ _______ _____ _____    ______ ____

>  <TORSDO>
F 1

$$$$
=
 OpenBabel11052418293D

 27 31  0  0  1  0  0  0  0  0999 V2000
  191.0010  175.9990  142.9820 C   0  0  0  0  0  2  0  0  0  0  0  0
  189.9020  176.2420  145.1790 C   0  0  0  0  0  0  0  0  0  0  0  0
  188.1850  175.4390  143.5110 N   0  0  0  0  0  2  0  0  0  0  0  0
  186.8170  178.1050  147.3640 C   0  0  0  0  0  3  0  0  0  0  0  0
  184.4880  178.6660  147.6380 O   0  0  0  0  0  1  0  0  0  0  0  0
  190.1630  176.9260  146.3800 C   0  0  0  0  0  3  0  0  0  0  0  0
  186.2050  176.7440  144.9990 C   0  0  0  0  0  3  0  0  0  0  0  0
  188.5490  172.4760  141.6220 C   0  0  0  0  0  3  0  0  0  0  0  0
  185.1910  177.3670  145.7310 C   0  0  0  0  0  3  0  0  0  0  0  0
  189.7560  172.0880  141.2180 C   0  0  0  0  0  3  0  0  0  0  0  0
  187.5380  176.7940  145.4380 C   0  0  0  0  0  0  0  0  0  0  0  0
  191.0390  175.5870  144.4360 C   0  0  2  0  0  3  0  0  0  0  0  0
  185.4970  178.0470  146.9120 C   0  0  0  0  0  0  0  0  0  0  0  0
  187.8360  177.4840  146.6360 C   0  0  0  0  0  0  0  0  0  0  0  0
  190.2310  174.9810  142.2250 C   0  0  0  0  0  0  0  0  0  0  0  0
  188.5670  176.1660  144.7010 C   0  0  0  0  0  0  0  0  0  0  0  0
  188.1110  173.9000  141.5650 C   0  0  0  0  0  2  0  0  0  0  0  0
  189.1450  177.5410  147.1000 C   0  0  0  0  0  3  0  0  0  0  0  0
  190.8120  173.0070  140.7580 C   0  0  0  0  0  3  0  0  0  0  0  0
  191.0070  174.2600  141.1890 C   0  0  0  0  0  3  0  0  0  0  0  0
  188.9230  174.7640  142.4750 C   0  0  0  0  0  0  0  0  0  0  0  0
  194.9190  176.2000  146.1380 C   0  0  0  0  0  3  0  0  0  0  0  0
  192.4070  175.8050  145.0220 C   0  0  0  0  0  0  0  0  0  0  0  0
  193.1190  176.9940  144.8090 C   0  0  0  0  0  3  0  0  0  0  0  0
  194.3480  177.1640  145.3660 N   0  0  0  0  0  0  0  0  0  0  0  0
  194.2420  175.0010  146.3770 C   0  0  0  0  0  3  0  0  0  0  0  0
  192.9790  174.8080  145.8150 C   0  0  0  0  0  3  0  0  0  0  0  0
  1 12  1  0  0  0  0
  2  6  1  0  0  0  0
  3 16  1  0  0  0  0
  6 18  2  0  0  0  0
  7 11  2  0  0  0  0
  7  9  1  0  0  0  0
  9 13  2  0  0  0  0
 10  8  2  0  0  0  0
 11 14  1  0  0  0  0
 12 23  1  1  0  0  0
 12  2  1  0  0  0  0
 13  4  1  0  0  0  0
 13  5  1  0  0  0  0
 14 18  1  0  0  0  0
 14  4  2  0  0  0  0
 15 21  2  0  0  0  0
 15  1  1  0  0  0  0
 16  2  2  0  0  0  0
 16 11  1  0  0  0  0
 17  8  1  0  0  0  0
 17 21  1  0  0  0  0
 19 20  2  0  0  0  0
 19 10  1  0  0  0  0
 20 15  1  0  0  0  0
 21  3  1  0  0  0  0
 22 26  1  0  0  0  0
 23 27  1  0  0  0  0
 24 23  2  0  0  0  0
 24 25  1  0  0  0  0
 25 22  2  0  0  0  0
 27 26  2  0  0  0  0
M  END
>  <MODEL>
3

>  <REMARK>
 VINA RESULT:      -8.0      1.634      4.847
  Name = 
  1 active torsions:
  status: ('A' for Active; 'I' for Inactive)
    1  A    between atoms: C_9  and  C_15
                            x       y       z     vdW  Elec       q    Type
                         _______ _______ _______ _____ _____    ______ ____

>  <TORSDO>
F 1

$$$$
=
 OpenBabel11052418293D

 27 31  0  0  1  0  0  0  0  0999 V2000
  188.8510  175.6180  144.8730 C   0  0  0  0  0  2  0  0  0  0  0  0
  190.1750  175.2200  142.8280 C   0  0  0  0  0  0  0  0  0  0  0  0
  187.7620  175.5570  142.1650 N   0  0  0  0  0  2  0  0  0  0  0  0
  190.7070  172.8000  139.4170 C   0  0  0  0  0  3  0  0  0  0  0  0
  189.8200  171.7460  137.4370 O   0  0  0  0  0  1  0  0  0  0  0  0
  191.4240  174.6560  142.5150 C   0  0  0  0  0  3  0  0  0  0  0  0
  188.1910  173.9010  139.9500 C   0  0  0  0  0  3  0  0  0  0  0  0
  185.9100  178.4530  142.9810 C   0  0  0  0  0  3  0  0  0  0  0  0
  188.3800  173.0960  138.8230 C   0  0  0  0  0  3  0  0  0  0  0  0
  186.1340  179.0840  144.1300 C   0  0  0  0  0  3  0  0  0  0  0  0
  189.2570  174.1660  140.8250 C   0  0  0  0  0  0  0  0  0  0  0  0
  190.0350  176.0820  144.0560 C   0  0  2  0  0  3  0  0  0  0  0  0
  189.6360  172.5460  138.5570 C   0  0  0  0  0  0  0  0  0  0  0  0
  190.5250  173.6040  140.5460 C   0  0  0  0  0  0  0  0  0  0  0  0
  187.6630  176.4100  144.4700 C   0  0  0  0  0  0  0  0  0  0  0  0
  189.0710  174.9780  141.9660 C   0  0  0  0  0  0  0  0  0  0  0  0
  185.8510  176.9660  142.8880 C   0  0  0  0  0  2  0  0  0  0  0  0
  191.6000  173.8570  141.3900 C   0  0  0  0  0  3  0  0  0  0  0  0
  186.4280  178.4070  145.4050 C   0  0  0  0  0  3  0  0  0  0  0  0
  187.0810  177.2450  145.5460 C   0  0  0  0  0  3  0  0  0  0  0  0
  187.1670  176.3390  143.2170 C   0  0  0  0  0  0  0  0  0  0  0  0
  193.5230  176.4160  146.5150 C   0  0  0  0  0  3  0  0  0  0  0  0
  191.2680  176.1960  144.9100 C   0  0  0  0  0  0  0  0  0  0  0  0
  192.3190  177.0630  144.5750 C   0  0  0  0  0  3  0  0  0  0  0  0
  193.4130  177.1520  145.3770 N   0  0  0  0  0  0  0  0  0  0  0  0
  192.4980  175.5420  146.8870 C   0  0  0  0  0  3  0  0  0  0  0  0
  191.3660  175.4360  146.0770 C   0  0  0  0  0  3  0  0  0  0  0  0
  2 12  1  0  0  0  0
  3 21  1  0  0  0  0
  4 14  1  0  0  0  0
  5 13  1  0  0  0  0
  6  2  1  0  0  0  0
  7 11  1  0  0  0  0
  8 10  2  0  0  0  0
  9  7  2  0  0  0  0
 10 19  1  0  0  0  0
 11 16  1  0  0  0  0
 12  1  1  0  0  0  0
 12 23  1  1  0  0  0
 13  9  1  0  0  0  0
 13  4  2  0  0  0  0
 14 11  2  0  0  0  0
 14 18  1  0  0  0  0
 15  1  1  0  0  0  0
 15 20  1  0  0  0  0
 16  3  1  0  0  0  0
 16  2  2  0  0  0  0
 17  8  1  0  0  0  0
 17 21  1  0  0  0  0
 18  6  2  0  0  0  0
 19 20  2  0  0  0  0
 21 15  2  0  0  0  0
 22 26  1  0  0  0  0
 23 27  1  0  0  0  0
 24 23  2  0  0  0  0
 24 25  1  0  0  0  0
 25 22  2  0  0  0  0
 27 26  2  0  0  0  0
M  END
>  <MODEL>
4

>  <REMARK>
 VINA RESULT:      -7.7      2.957      6.799
  Name = 
  1 active torsions:
  status: ('A' for Active; 'I' for Inactive)
    1  A    between atoms: C_9  and  C_15
                            x       y       z     vdW  Elec       q    Type
                         _______ _______ _______ _____ _____    ______ ____

>  <TORSDO>
F 1

$$$$
=
 OpenBabel11052418293D

 27 31  0  0  1  0  0  0  0  0999 V2000
  187.7430  178.0570  143.3040 C   0  0  0  0  0  2  0  0  0  0  0  0
  189.4810  176.3040  143.3220 C   0  0  0  0  0  0  0  0  0  0  0  0
  189.0830  177.0600  145.6980 N   0  0  0  0  0  2  0  0  0  0  0  0
  193.4420  175.3110  144.3690 C   0  0  0  0  0  3  0  0  0  0  0  0
  195.2130  175.2040  146.0020 O   0  0  0  0  0  1  0  0  0  0  0  0
  190.3670  175.7360  142.3900 C   0  0  0  0  0  3  0  0  0  0  0  0
  191.7410  176.4160  146.2950 C   0  0  0  0  0  3  0  0  0  0  0  0
  185.9200  176.9470  147.2680 C   0  0  0  0  0  3  0  0  0  0  0  0
  193.0570  176.0830  146.6290 C   0  0  0  0  0  3  0  0  0  0  0  0
  184.8160  177.1610  146.5570 C   0  0  0  0  0  3  0  0  0  0  0  0
  191.2590  176.2010  144.9940 C   0  0  0  0  0  0  0  0  0  0  0  0
  188.0730  176.6380  142.9020 C   0  0  2  0  0  3  0  0  0  0  0  0
  193.9060  175.5330  145.6670 C   0  0  0  0  0  0  0  0  0  0  0  0
  192.1270  175.6410  144.0280 C   0  0  0  0  0  0  0  0  0  0  0  0
  187.0880  178.0280  144.6340 C   0  0  0  0  0  0  0  0  0  0  0  0
  189.9300  176.5350  144.6500 C   0  0  0  0  0  0  0  0  0  0  0  0
  187.1530  177.7670  147.0890 C   0  0  0  0  0  2  0  0  0  0  0  0
  191.6740  175.4090  142.7340 C   0  0  0  0  0  3  0  0  0  0  0  0
  184.7070  178.1530  145.4720 C   0  0  0  0  0  3  0  0  0  0  0  0
  185.6950  178.5320  144.6510 C   0  0  0  0  0  3  0  0  0  0  0  0
  187.7430  177.5860  145.7280 C   0  0  0  0  0  0  0  0  0  0  0  0
  187.1400  175.9720  138.7770 C   0  0  0  0  0  3  0  0  0  0  0  0
  187.7570  176.4020  141.4500 C   0  0  0  0  0  0  0  0  0  0  0  0
  188.1290  175.2160  140.7990 C   0  0  0  0  0  3  0  0  0  0  0  0
  187.8160  175.0290  139.4880 N   0  0  0  0  0  0  0  0  0  0  0  0
  186.7500  177.1660  139.3880 C   0  0  0  0  0  3  0  0  0  0  0  0
  187.0610  177.3760  140.7330 C   0  0  0  0  0  3  0  0  0  0  0  0
  1 15  1  0  0  0  0
  2 16  1  0  0  0  0
  3 21  1  0  0  0  0
  4 13  2  0  0  0  0
  6 18  1  0  0  0  0
  6  2  2  0  0  0  0
  7  9  2  0  0  0  0
 10  8  2  0  0  0  0
 11  7  1  0  0  0  0
 12 23  1  6  0  0  0
 12  1  1  0  0  0  0
 12  2  1  0  0  0  0
 13  5  1  0  0  0  0
 13  9  1  0  0  0  0
 14  4  1  0  0  0  0
 14 11  1  0  0  0  0
 15 20  1  0  0  0  0
 15 21  2  0  0  0  0
 16 11  2  0  0  0  0
 16  3  1  0  0  0  0
 17  8  1  0  0  0  0
 18 14  2  0  0  0  0
 19 10  1  0  0  0  0
 20 19  2  0  0  0  0
 21 17  1  0  0  0  0
 22 26  2  0  0  0  0
 22 25  1  0  0  0  0
 24 23  1  0  0  0  0
 25 24  2  0  0  0  0
 26 27  1  0  0  0  0
 27 23  2  0  0  0  0
M  END
>  <MODEL>
5

>  <REMARK>
 VINA RESULT:      -7.7      2.950      6.112
  Name = 
  1 active torsions:
  status: ('A' for Active; 'I' for Inactive)
    1  A    between atoms: C_9  and  C_15
                            x       y       z     vdW  Elec       q    Type
                         _______ _______ _______ _____ _____    ______ ____

>  <TORSDO>
F 1

$$$$
=
 OpenBabel11052418293D

 27 31  0  0  1  0  0  0  0  0999 V2000
  190.1990  176.0480  143.2670 C   0  0  0  0  0  2  0  0  0  0  0  0
  188.0450  176.3760  144.4270 C   0  0  0  0  0  0  0  0  0  0  0  0
  187.5750  175.8420  142.0040 N   0  0  0  0  0  2  0  0  0  0  0  0
  184.4460  178.5660  144.5750 C   0  0  0  0  0  3  0  0  0  0  0  0
  182.4650  179.4150  143.4950 O   0  0  0  0  0  1  0  0  0  0  0  0
  187.6080  176.9910  145.6130 C   0  0  0  0  0  3  0  0  0  0  0  0
  185.2260  177.3540  142.1780 C   0  0  0  0  0  3  0  0  0  0  0  0
  188.7150  172.9040  140.4060 C   0  0  0  0  0  3  0  0  0  0  0  0
  184.0360  178.0840  142.2400 C   0  0  0  0  0  3  0  0  0  0  0  0
  189.8880  172.3740  140.7450 C   0  0  0  0  0  3  0  0  0  0  0  0
  186.0420  177.2210  143.3130 C   0  0  0  0  0  0  0  0  0  0  0  0
  189.3370  175.5990  144.4240 C   0  0  2  0  0  3  0  0  0  0  0  0
  183.6470  178.6900  143.4360 C   0  0  0  0  0  0  0  0  0  0  0  0
  185.6380  177.8370  144.5200 C   0  0  0  0  0  0  0  0  0  0  0  0
  189.9350  175.1560  142.1110 C   0  0  0  0  0  0  0  0  0  0  0  0
  187.2470  176.4840  143.2560 C   0  0  0  0  0  0  0  0  0  0  0  0
  188.5240  174.3730  140.2420 C   0  0  0  0  0  2  0  0  0  0  0  0
  186.4220  177.7150  145.6620 C   0  0  0  0  0  3  0  0  0  0  0  0
  191.0890  173.1600  141.0750 C   0  0  0  0  0  3  0  0  0  0  0  0
  191.1040  174.3670  141.6560 C   0  0  0  0  0  3  0  0  0  0  0  0
  188.7180  175.1030  141.5310 C   0  0  0  0  0  0  0  0  0  0  0  0
  191.5660  175.6610  148.0780 C   0  0  0  0  0  3  0  0  0  0  0  0
  190.1100  175.6250  145.7140 C   0  0  0  0  0  0  0  0  0  0  0  0
  189.7030  174.8810  146.8320 C   0  0  0  0  0  3  0  0  0  0  0  0
  190.4330  174.9160  147.9790 N   0  0  0  0  0  0  0  0  0  0  0  0
  192.0080  176.4150  146.9880 C   0  0  0  0  0  3  0  0  0  0  0  0
  191.2730  176.3920  145.8010 C   0  0  0  0  0  3  0  0  0  0  0  0
  1 12  1  0  0  0  0
  2  6  1  0  0  0  0
  3 16  1  0  0  0  0
  6 18  2  0  0  0  0
  7  9  2  0  0  0  0
  7 11  1  0  0  0  0
  8 10  2  0  0  0  0
  9 13  1  0  0  0  0
 10 19  1  0  0  0  0
 11 14  2  0  0  0  0
 12  2  1  0  0  0  0
 12 23  1  1  0  0  0
 13  5  1  0  0  0  0
 13  4  2  0  0  0  0
 14  4  1  0  0  0  0
 14 18  1  0  0  0  0
 15  1  1  0  0  0  0
 16 11  1  0  0  0  0
 16  2  2  0  0  0  0
 17  8  1  0  0  0  0
 17 21  1  0  0  0  0
 19 20  2  0  0  0  0
 20 15  1  0  0  0  0
 21  3  1  0  0  0  0
 21 15  2  0  0  0  0
 23 27  2  0  0  0  0
 23 24  1  0  0  0  0
 24 25  2  0  0  0  0
 25 22  1  0  0  0  0
 26 22  2  0  0  0  0
 27 26  1  0  0  0  0
M  END
>  <MODEL>
6

>  <REMARK>
 VINA RESULT:      -7.5      1.791      5.173
  Name = 
  1 active torsions:
  status: ('A' for Active; 'I' for Inactive)
    1  A    between atoms: C_9  and  C_15
                            x       y       z     vdW  Elec       q    Type
                         _______ _______ _______ _____ _____    ______ ____

>  <TORSDO>
F 1

$$$$
=
 OpenBabel11052418293D

 27 31  0  0  1  0  0  0  0  0999 V2000
  188.2590  177.1030  142.2430 C   0  0  0  0  0  2  0  0  0  0  0  0
  189.0160  175.9920  144.3140 C   0  0  0  0  0  0  0  0  0  0  0  0
  187.7450  178.0810  144.9450 N   0  0  0  0  0  2  0  0  0  0  0  0
  191.2560  176.3580  147.8650 C   0  0  0  0  0  3  0  0  0  0  0  0
  191.7780  177.5420  149.9000 O   0  0  0  0  0  1  0  0  0  0  0  0
  189.9950  175.0470  144.6650 C   0  0  0  0  0  3  0  0  0  0  0  0
  189.3110  178.2730  147.2570 C   0  0  0  0  0  3  0  0  0  0  0  0
  184.4120  178.7020  143.9510 C   0  0  0  0  0  3  0  0  0  0  0  0
  190.0610  178.3840  148.4310 C   0  0  0  0  0  3  0  0  0  0  0  0
  183.9810  178.2760  142.7660 C   0  0  0  0  0  3  0  0  0  0  0  0
  189.5230  177.2040  146.3720 C   0  0  0  0  0  0  0  0  0  0  0  0
  188.2360  175.8160  143.0350 C   0  0  2  0  0  3  0  0  0  0  0  0
  191.0330  177.4290  148.7340 C   0  0  0  0  0  0  0  0  0  0  0  0
  190.5100  176.2410  146.6890 C   0  0  0  0  0  0  0  0  0  0  0  0
  187.0510  177.8900  142.5920 C   0  0  0  0  0  0  0  0  0  0  0  0
  188.7680  177.0870  145.1840 C   0  0  0  0  0  0  0  0  0  0  0  0
  185.7550  179.3220  144.1320 C   0  0  0  0  0  2  0  0  0  0  0  0
  190.7350  175.1680  145.8350 C   0  0  0  0  0  3  0  0  0  0  0  0
  184.7910  178.2870  141.5350 C   0  0  0  0  0  3  0  0  0  0  0  0
  186.1190  178.1300  141.4660 C   0  0  0  0  0  3  0  0  0  0  0  0
  186.8550  178.3520  143.8460 C   0  0  0  0  0  0  0  0  0  0  0  0
  189.4200  172.5180  140.5750 C   0  0  0  0  0  3  0  0  0  0  0  0
  188.6510  174.6490  142.1810 C   0  0  0  0  0  0  0  0  0  0  0  0
  187.8240  173.5280  142.0130 C   0  0  0  0  0  3  0  0  0  0  0  0
  188.2230  172.4970  141.2220 N   0  0  0  0  0  0  0  0  0  0  0  0
  190.2720  173.6160  140.7130 C   0  0  0  0  0  3  0  0  0  0  0  0
  189.8800  174.6860  141.5200 C   0  0  0  0  0  3  0  0  0  0  0  0
  1 15  1  0  0  0  0
  1 12  1  0  0  0  0
  2  6  2  0  0  0  0
  2 16  1  0  0  0  0
  3 16  1  0  0  0  0
  4 13  2  0  0  0  0
  6 18  1  0  0  0  0
  7  9  2  0  0  0  0
  8 17  1  0  0  0  0
  9 13  1  0  0  0  0
 10  8  2  0  0  0  0
 11 14  1  0  0  0  0
 11  7  1  0  0  0  0
 12 23  1  6  0  0  0
 12  2  1  0  0  0  0
 13  5  1  0  0  0  0
 14  4  1  0  0  0  0
 15 21  2  0  0  0  0
 16 11  2  0  0  0  0
 18 14  2  0  0  0  0
 19 10  1  0  0  0  0
 20 19  2  0  0  0  0
 20 15  1  0  0  0  0
 21 17  1  0  0  0  0
 21  3  1  0  0  0  0
 22 26  2  0  0  0  0
 22 25  1  0  0  0  0
 24 23  1  0  0  0  0
 25 24  2  0  0  0  0
 26 27  1  0  0  0  0
 27 23  2  0  0  0  0
M  END
>  <MODEL>
7

>  <REMARK>
 VINA RESULT:      -7.5      2.535      5.668
  Name = 
  1 active torsions:
  status: ('A' for Active; 'I' for Inactive)
    1  A    between atoms: C_9  and  C_15
                            x       y       z     vdW  Elec       q    Type
                         _______ _______ _______ _____ _____    ______ ____

>  <TORSDO>
F 1

$$$$
=
 OpenBabel11052418293D

 27 31  0  0  1  0  0  0  0  0999 V2000
  187.4620  174.6560  142.1300 C   0  0  0  0  0  2  0  0  0  0  0  0
  188.3940  176.4690  143.5210 C   0  0  0  0  0  0  0  0  0  0  0  0
  190.1090  174.6230  143.3610 N   0  0  0  0  0  2  0  0  0  0  0  0
  189.9870  177.5360  147.2750 C   0  0  0  0  0  3  0  0  0  0  0  0
  191.5660  177.1710  149.0610 O   0  0  0  0  0  1  0  0  0  0  0  0
  187.8870  177.5580  144.2520 C   0  0  0  0  0  3  0  0  0  0  0  0
  191.0740  175.3690  145.8800 C   0  0  0  0  0  3  0  0  0  0  0  0
  191.3810  173.4150  140.2940 C   0  0  0  0  0  3  0  0  0  0  0  0
  191.5930  175.7320  147.1260 C   0  0  0  0  0  3  0  0  0  0  0  0
  190.5980  173.3700  139.2200 C   0  0  0  0  0  3  0  0  0  0  0  0
  190.0060  176.0840  145.3150 C   0  0  0  0  0  0  0  0  0  0  0  0
  187.7950  176.1290  142.1810 C   0  0  2  0  0  3  0  0  0  0  0  0
  191.0500  176.8130  147.8230 C   0  0  0  0  0  0  0  0  0  0  0  0
  189.4640  177.1780  146.0290 C   0  0  0  0  0  0  0  0  0  0  0  0
  188.6130  173.9350  141.5330 C   0  0  0  0  0  0  0  0  0  0  0  0
  189.4770  175.7210  144.0560 C   0  0  0  0  0  0  0  0  0  0  0  0
  190.9010  173.0110  141.6470 C   0  0  0  0  0  2  0  0  0  0  0  0
  188.4110  177.9090  145.4910 C   0  0  0  0  0  3  0  0  0  0  0  0
  189.1700  173.0070  139.2490 C   0  0  0  0  0  3  0  0  0  0  0  0
  188.3190  173.2440  140.2560 C   0  0  0  0  0  3  0  0  0  0  0  0
  189.8180  173.9150  142.1410 C   0  0  0  0  0  0  0  0  0  0  0  0
  184.4060  178.4750  141.0210 C   0  0  0  0  0  3  0  0  0  0  0  0
  186.6120  176.9630  141.7710 C   0  0  0  0  0  0  0  0  0  0  0  0
  186.5240  177.5400  140.4950 C   0  0  0  0  0  3  0  0  0  0  0  0
  185.4330  178.2770  140.1520 N   0  0  0  0  0  0  0  0  0  0  0  0
  184.4530  177.9170  142.3010 C   0  0  0  0  0  3  0  0  0  0  0  0
  185.5630  177.1560  142.6720 C   0  0  0  0  0  3  0  0  0  0  0  0
  1 12  1  0  0  0  0
  2 16  2  0  0  0  0
  2  6  1  0  0  0  0
  3 16  1  0  0  0  0
  4 13  1  0  0  0  0
  6 18  2  0  0  0  0
  7  9  1  0  0  0  0
  8 17  1  0  0  0  0
  9 13  2  0  0  0  0
 10 19  1  0  0  0  0
 10  8  2  0  0  0  0
 11  7  2  0  0  0  0
 11 14  1  0  0  0  0
 12 23  1  1  0  0  0
 12  2  1  0  0  0  0
 13  5  1  0  0  0  0
 14  4  2  0  0  0  0
 15  1  1  0  0  0  0
 15 21  2  0  0  0  0
 16 11  1  0  0  0  0
 17 21  1  0  0  0  0
 18 14  1  0  0  0  0
 19 20  2  0  0  0  0
 20 15  1  0  0  0  0
 21  3  1  0  0  0  0
 22 26  1  0  0  0  0
 23 27  1  0  0  0  0
 24 23  2  0  0  0  0
 25 24  1  0  0  0  0
 25 22  2  0  0  0  0
 26 27  2  0  0  0  0
M  END
>  <MODEL>
8

>  <REMARK>
 VINA RESULT:      -7.5      2.739      5.745
  Name = 
  1 active torsions:
  status: ('A' for Active; 'I' for Inactive)
    1  A    between atoms: C_9  and  C_15
                            x       y       z     vdW  Elec       q    Type
                         _______ _______ _______ _____ _____    ______ ____

>  <TORSDO>
F 1

$$$$
=
 OpenBabel11052418293D

 27 31  0  0  1  0  0  0  0  0999 V2000
  188.6070  176.4840  142.7460 C   0  0  0  0  0  2  0  0  0  0  0  0
  190.3460  174.8400  143.3520 C   0  0  0  0  0  0  0  0  0  0  0  0
  189.9800  176.3780  145.3200 N   0  0  0  0  0  2  0  0  0  0  0  0
  194.3210  174.2570  144.6290 C   0  0  0  0  0  3  0  0  0  0  0  0
  196.1130  174.7180  146.1740 O   0  0  0  0  0  1  0  0  0  0  0  0
  191.2190  173.9790  142.6650 C   0  0  0  0  0  3  0  0  0  0  0  0
  192.6450  175.9710  146.0700 C   0  0  0  0  0  3  0  0  0  0  0  0
  186.8380  176.8330  146.8710 C   0  0  0  0  0  3  0  0  0  0  0  0
  193.9650  175.7700  146.4830 C   0  0  0  0  0  3  0  0  0  0  0  0
  185.7240  176.7910  146.1430 C   0  0  0  0  0  3  0  0  0  0  0  0
  192.1460  175.3180  144.9320 C   0  0  0  0  0  0  0  0  0  0  0  0
  188.9320  175.0120  142.8590 C   0  0  2  0  0  3  0  0  0  0  0  0
  194.8020  174.9150  145.7630 C   0  0  0  0  0  0  0  0  0  0  0  0
  193.0010  174.4530  144.2100 C   0  0  0  0  0  0  0  0  0  0  0  0
  187.9700  176.9240  144.0110 C   0  0  0  0  0  0  0  0  0  0  0  0
  190.8120  175.5180  144.5100 C   0  0  0  0  0  0  0  0  0  0  0  0
  188.0670  177.5330  146.4020 C   0  0  0  0  0  2  0  0  0  0  0  0
  192.5310  173.7870  143.0850 C   0  0  0  0  0  3  0  0  0  0  0  0
  185.6000  177.3430  144.7830 C   0  0  0  0  0  3  0  0  0  0  0  0
  186.5770  177.4080  143.8680 C   0  0  0  0  0  3  0  0  0  0  0  0
  188.6400  176.8880  145.1820 C   0  0  0  0  0  0  0  0  0  0  0  0
  187.9530  172.9700  139.2260 C   0  0  0  0  0  3  0  0  0  0  0  0
  188.5970  174.2870  141.5850 C   0  0  0  0  0  0  0  0  0  0  0  0
  188.3110  172.9140  141.5720 C   0  0  0  0  0  3  0  0  0  0  0  0
  187.9990  172.2910  140.4040 N   0  0  0  0  0  0  0  0  0  0  0  0
  188.2290  174.3400  139.1950 C   0  0  0  0  0  3  0  0  0  0  0  0
  188.5510  174.9970  140.3830 C   0  0  0  0  0  3  0  0  0  0  0  0
  1 12  1  0  0  0  0
  1 15  1  0  0  0  0
  2 16  1  0  0  0  0
  4 13  2  0  0  0  0
  6 18  1  0  0  0  0
  6  2  2  0  0  0  0
  7  9  2  0  0  0  0
 10  8  2  0  0  0  0
 11  7  1  0  0  0  0
 12 23  1  6  0  0  0
 12  2  1  0  0  0  0
 13  5  1  0  0  0  0
 13  9  1  0  0  0  0
 14  4  1  0  0  0  0
 14 11  1  0  0  0  0
 15 21  2  0  0  0  0
 16 11  2  0  0  0  0
 16  3  1  0  0  0  0
 17  8  1  0  0  0  0
 18 14  2  0  0  0  0
 19 10  1  0  0  0  0
 20 15  1  0  0  0  0
 20 19  2  0  0  0  0
 21  3  1  0  0  0  0
 21 17  1  0  0  0  0
 22 25  1  0  0  0  0
 24 23  1  0  0  0  0
 25 24  2  0  0  0  0
 26 22  2  0  0  0  0
 26 27  1  0  0  0  0
 27 23  2  0  0  0  0
M  END
>  <MODEL>
9

>  <REMARK>
 VINA RESULT:      -7.3      2.907      5.924
  Name = 
  1 active torsions:
  status: ('A' for Active; 'I' for Inactive)
    1  A    between atoms: C_9  and  C_15
                            x       y       z     vdW  Elec       q    Type
                         _______ _______ _______ _____ _____    ______ ____

>  <TORSDO>
F 1

$$$$
