=
 OpenBabel11052419173D

 32 37  0  0  1  0  0  0  0  0999 V2000
  190.8870  176.1440  145.0710 C   0  0  1  0  0  0  0  0  0  0  0  0
  192.1310  174.0550  144.6930 C   0  0  1  0  0  3  0  0  0  0  0  0
  190.5400  177.3760  145.8820 C   0  0  0  0  0  2  0  0  0  0  0  0
  191.7160  175.0530  145.7720 C   0  0  1  0  0  3  0  0  0  0  0  0
  193.2250  173.1040  145.1990 C   0  0  1  0  0  3  0  0  0  0  0  0
  190.7220  170.3790  140.5270 C   0  0  0  0  0  1  0  0  0  0  0  0
  190.8640  173.3480  144.2020 C   0  0  1  0  0  3  0  0  0  0  0  0
  192.3450  169.9180  142.6820 S   0  0  0  0  0  0  0  0  0  0  0  0
  192.1470  171.2780  143.8560 C   0  0  1  0  0  3  0  0  0  0  0  0
  192.8810  175.5200  146.6710 C   0  0  0  0  0  2  0  0  0  0  0  0
  193.4720  171.9280  144.2370 C   0  0  0  0  0  2  0  0  0  0  0  0
  194.2430  175.3510  145.9990 C   0  0  0  0  0  2  0  0  0  0  0  0
  191.1380  178.2560  143.6260 C   0  0  0  0  0  1  0  0  0  0  0  0
  189.8750  174.3590  143.6560 C   0  0  0  0  0  3  0  0  0  0  0  0
  189.8320  175.6440  144.0770 C   0  0  0  0  0  0  0  0  0  0  0  0
  191.2470  172.2840  143.1820 C   0  0  1  0  0  3  0  0  0  0  0  0
  194.5120  173.9030  145.5410 C   0  0  2  0  0  3  0  0  0  0  0  0
  191.6350  177.4580  144.8200 C   0  0  2  0  0  3  0  0  0  0  0  0
  190.6600  170.2140  142.0310 C   0  0  1  0  0  3  0  0  0  0  0  0
  190.0800  171.4760  142.6640 C   0  0  0  0  0  2  0  0  0  0  0  0
  186.1690  176.8780  144.1790 N   0  0  0  0  0  0  0  0  0  0  0  0
  185.8180  178.8340  141.6080 O   0  0  0  0  0  0  0  0  0  0  0  0
  185.2910  177.2280  145.1490 O   0  0  0  0  0  1  0  0  0  0  0  0
  187.8100  177.5900  141.5340 C   0  0  0  0  0  2  0  0  0  0  0  0
  188.6860  176.5240  143.6310 C   0  0  1  0  0  3  0  0  0  0  0  0
  185.6750  176.8200  142.8100 C   0  0  0  0  0  2  0  0  0  0  0  0
  188.3910  176.3220  142.1470 C   0  0  0  0  0  2  0  0  0  0  0  0
  187.4830  176.4300  144.5600 C   0  0  0  0  0  0  0  0  0  0  0  0
  187.6680  176.0650  145.7530 O   0  0  0  0  0  0  0  0  0  0  0  0
  186.3910  177.8150  141.9550 C   0  0  0  0  0  0  0  0  0  0  0  0
  195.5770  173.9000  144.4380 C   0  0  0  0  0  2  0  0  0  0  0  0
  195.5470  175.1760  143.6070 C   0  0  0  0  0  1  0  0  0  0  0  0
  1  4  1  0  0  0  0
  1  3  1  1  0  0  0
  2  5  1  0  0  0  0
  2  4  1  0  0  0  0
  4 10  1  0  0  0  0
  5 17  1  0  0  0  0
  6 19  1  0  0  0  0
  7  2  1  0  0  0  0
  8  9  1  0  0  0  0
  9 11  1  0  0  0  0
 11  5  1  0  0  0  0
 12 10  1  0  0  0  0
 13 18  1  0  0  0  0
 14 15  2  0  0  0  0
 14  7  1  0  0  0  0
 15  1  1  0  0  0  0
 16  9  1  0  0  0  0
 16  7  1  0  0  0  0
 17 12  1  0  0  0  0
 18  1  1  0  0  0  0
 18  3  1  0  0  0  0
 19 20  1  0  0  0  0
 19  8  1  0  0  0  0
 20 16  1  0  0  0  0
 21 28  1  0  0  0  0
 21 23  1  0  0  0  0
 22 30  2  0  0  0  0
 24 30  1  0  0  0  0
 24 27  1  0  0  0  0
 25 15  1  0  0  0  0
 25 28  1  0  0  0  0
 26 21  1  0  0  0  0
 27 25  1  0  0  0  0
 28 29  2  0  0  0  0
 30 26  1  0  0  0  0
 31 17  1  0  0  0  0
 32 31  1  0  0  0  0
M  END
>  <MODEL>
1

>  <REMARK>
 VINA RESULT:      -8.0      0.000      0.000
  Name = 
  2 active torsions:
  status: ('A' for Active; 'I' for Inactive)
    1  A    between atoms: C_13  and  C_29
    2  A    between atoms: C_16  and  C_27
                            x       y       z     vdW  Elec       q    Type
                         _______ _______ _______ _____ _____    ______ ____

>  <TORSDO>
F 2

$$$$
=
 OpenBabel11052419173D

 32 37  0  0  1  0  0  0  0  0999 V2000
  189.3870  176.5730  146.0980 C   0  0  1  0  0  0  0  0  0  0  0  0
  187.5070  177.6770  144.9560 C   0  0  1  0  0  3  0  0  0  0  0  0
  190.3580  176.4190  147.2500 C   0  0  0  0  0  2  0  0  0  0  0  0
  188.5590  177.8690  146.0460 C   0  0  1  0  0  3  0  0  0  0  0  0
  186.4200  178.7590  145.0270 C   0  0  1  0  0  3  0  0  0  0  0  0
  186.1650  176.5430  139.5000 C   0  0  0  0  0  1  0  0  0  0  0  0
  188.2380  177.6100  143.6120 C   0  0  1  0  0  3  0  0  0  0  0  0
  185.3360  178.6660  141.0170 S   0  0  0  0  0  0  0  0  0  0  0  0
  186.3410  178.7300  142.5180 C   0  0  1  0  0  3  0  0  0  0  0  0
  187.9860  178.3950  147.3800 C   0  0  0  0  0  2  0  0  0  0  0  0
  185.5020  178.7520  143.7900 C   0  0  0  0  0  2  0  0  0  0  0  0
  186.4940  178.0980  147.5330 C   0  0  0  0  0  2  0  0  0  0  0  0
  189.3160  174.1660  146.9990 C   0  0  0  0  0  1  0  0  0  0  0  0
  189.2360  176.4690  143.6110 C   0  0  0  0  0  3  0  0  0  0  0  0
  189.8190  176.0040  144.7410 C   0  0  0  0  0  0  0  0  0  0  0  0
  187.2140  177.5000  142.4900 C   0  0  1  0  0  3  0  0  0  0  0  0
  185.6480  178.6550  146.3700 C   0  0  2  0  0  3  0  0  0  0  0  0
  189.0450  175.6380  147.2630 C   0  0  2  0  0  3  0  0  0  0  0  0
  186.6920  177.8180  140.1270 C   0  0  1  0  0  3  0  0  0  0  0  0
  187.8160  177.4840  141.1030 C   0  0  0  0  0  2  0  0  0  0  0  0
  193.3940  174.9220  143.7380 N   0  0  0  0  0  0  0  0  0  0  0  0
  193.4750  171.6930  144.0870 O   0  0  0  0  0  0  0  0  0  0  0  0
  194.6390  175.4350  143.8860 O   0  0  0  0  0  1  0  0  0  0  0  0
  191.2940  172.5600  144.1910 C   0  0  0  0  0  2  0  0  0  0  0  0
  190.9510  175.0080  144.6250 C   0  0  1  0  0  3  0  0  0  0  0  0
  193.2490  173.7230  142.9260 C   0  0  0  0  0  2  0  0  0  0  0  0
  190.5390  173.8140  143.7690 C   0  0  0  0  0  2  0  0  0  0  0  0
  192.2710  175.6660  144.2470 C   0  0  0  0  0  0  0  0  0  0  0  0
  192.4330  176.8890  144.5090 O   0  0  0  0  0  0  0  0  0  0  0  0
  192.7240  172.5930  143.7510 C   0  0  0  0  0  0  0  0  0  0  0  0
  184.3210  177.8910  146.2860 C   0  0  0  0  0  2  0  0  0  0  0  0
  184.4840  176.4160  146.6270 C   0  0  0  0  0  1  0  0  0  0  0  0
  1  3  1  1  0  0  0
  1 18  1  0  0  0  0
  2  5  1  0  0  0  0
  2  4  1  0  0  0  0
  3 18  1  0  0  0  0
  4  1  1  0  0  0  0
  4 10  1  0  0  0  0
  5 17  1  0  0  0  0
  6 19  1  0  0  0  0
  7  2  1  0  0  0  0
  8  9  1  0  0  0  0
  9 11  1  0  0  0  0
 10 12  1  0  0  0  0
 11  5  1  0  0  0  0
 13 18  1  0  0  0  0
 14  7  1  0  0  0  0
 14 15  2  0  0  0  0
 15  1  1  0  0  0  0
 16  9  1  0  0  0  0
 16  7  1  0  0  0  0
 17 12  1  0  0  0  0
 19  8  1  0  0  0  0
 19 20  1  0  0  0  0
 20 16  1  0  0  0  0
 21 23  1  0  0  0  0
 21 28  1  0  0  0  0
 25 15  1  0  0  0  0
 26 21  1  0  0  0  0
 26 30  1  0  0  0  0
 27 24  1  0  0  0  0
 27 25  1  0  0  0  0
 28 29  2  0  0  0  0
 28 25  1  0  0  0  0
 30 22  2  0  0  0  0
 30 24  1  0  0  0  0
 31 17  1  0  0  0  0
 31 32  1  0  0  0  0
M  END
>  <MODEL>
2

>  <REMARK>
 VINA RESULT:      -7.5      3.727      7.437
  Name = 
  2 active torsions:
  status: ('A' for Active; 'I' for Inactive)
    1  A    between atoms: C_13  and  C_29
    2  A    between atoms: C_16  and  C_27
                            x       y       z     vdW  Elec       q    Type
                         _______ _______ _______ _____ _____    ______ ____

>  <TORSDO>
F 2

$$$$
=
 OpenBabel11052419173D

 32 37  0  0  1  0  0  0  0  0999 V2000
  190.7100  176.1690  144.2600 C   0  0  1  0  0  0  0  0  0  0  0  0
  191.4570  174.4980  142.6160 C   0  0  1  0  0  3  0  0  0  0  0  0
  190.8120  176.8880  145.5900 C   0  0  0  0  0  2  0  0  0  0  0  0
  191.5420  174.8860  144.0900 C   0  0  1  0  0  3  0  0  0  0  0  0
  192.4990  173.4310  142.2540 C   0  0  1  0  0  3  0  0  0  0  0  0
  188.3200  173.1340  138.0160 C   0  0  0  0  0  1  0  0  0  0  0  0
  190.0100  174.0840  142.3270 C   0  0  1  0  0  3  0  0  0  0  0  0
  190.4340  171.7490  139.0660 S   0  0  0  0  0  0  0  0  0  0  0  0
  190.8060  172.4160  140.7040 C   0  0  1  0  0  3  0  0  0  0  0  0
  192.9810  174.8970  144.6500 C   0  0  0  0  0  2  0  0  0  0  0  0
  192.2650  172.8300  140.8560 C   0  0  0  0  0  2  0  0  0  0  0  0
  194.0330  175.0690  143.5550 C   0  0  0  0  0  2  0  0  0  0  0  0
  190.8190  178.7110  143.8880 C   0  0  0  0  0  1  0  0  0  0  0  0
  189.0630  175.2240  142.6450 C   0  0  0  0  0  3  0  0  0  0  0  0
  189.3410  176.1720  143.5700 C   0  0  0  0  0  0  0  0  0  0  0  0
  189.9030  173.6110  140.8830 C   0  0  1  0  0  3  0  0  0  0  0  0
  193.9330  173.9950  142.4520 C   0  0  2  0  0  3  0  0  0  0  0  0
  191.5310  177.4580  144.3690 C   0  0  2  0  0  3  0  0  0  0  0  0
  188.6950  172.2960  139.2210 C   0  0  1  0  0  3  0  0  0  0  0  0
  188.5280  173.1200  140.4940 C   0  0  0  0  0  2  0  0  0  0  0  0
  186.1180  177.1940  145.4470 N   0  0  0  0  0  0  0  0  0  0  0  0
  185.2770  180.0960  144.2520 O   0  0  0  0  0  0  0  0  0  0  0  0
  185.6490  177.0610  146.7110 O   0  0  0  0  0  1  0  0  0  0  0  0
  186.9380  179.0370  142.9710 C   0  0  0  0  0  2  0  0  0  0  0  0
  188.2560  177.1480  143.9680 C   0  0  1  0  0  3  0  0  0  0  0  0
  185.2190  177.7550  144.4490 C   0  0  0  0  0  2  0  0  0  0  0  0
  187.4860  177.6340  142.7430 C   0  0  0  0  0  2  0  0  0  0  0  0
  187.4040  176.6350  145.1210 C   0  0  0  0  0  0  0  0  0  0  0  0
  187.8960  175.7730  145.8990 O   0  0  0  0  0  0  0  0  0  0  0  0
  185.7720  179.0360  143.9100 C   0  0  0  0  0  0  0  0  0  0  0  0
  194.5990  174.5080  141.1700 C   0  0  0  0  0  2  0  0  0  0  0  0
  194.5700  176.0280  141.0760 C   0  0  0  0  0  1  0  0  0  0  0  0
  1 18  1  0  0  0  0
  1  3  1  1  0  0  0
  2  4  1  0  0  0  0
  4  1  1  0  0  0  0
  4 10  1  0  0  0  0
  5 17  1  0  0  0  0
  5  2  1  0  0  0  0
  6 19  1  0  0  0  0
  7  2  1  0  0  0  0
  7 14  1  0  0  0  0
  8 19  1  0  0  0  0
  8  9  1  0  0  0  0
  9 11  1  0  0  0  0
  9 16  1  0  0  0  0
 11  5  1  0  0  0  0
 12 10  1  0  0  0  0
 13 18  1  0  0  0  0
 14 15  2  0  0  0  0
 15 25  1  0  0  0  0
 15  1  1  0  0  0  0
 16  7  1  0  0  0  0
 17 12  1  0  0  0  0
 18  3  1  0  0  0  0
 19 20  1  0  0  0  0
 20 16  1  0  0  0  0
 21 23  1  0  0  0  0
 24 30  1  0  0  0  0
 25 28  1  0  0  0  0
 26 21  1  0  0  0  0
 27 24  1  0  0  0  0
 27 25  1  0  0  0  0
 28 21  1  0  0  0  0
 28 29  2  0  0  0  0
 30 22  2  0  0  0  0
 30 26  1  0  0  0  0
 31 17  1  0  0  0  0
 32 31  1  0  0  0  0
M  END
>  <MODEL>
3

>  <REMARK>
 VINA RESULT:      -7.5      2.130      2.502
  Name = 
  2 active torsions:
  status: ('A' for Active; 'I' for Inactive)
    1  A    between atoms: C_13  and  C_29
    2  A    between atoms: C_16  and  C_27
                            x       y       z     vdW  Elec       q    Type
                         _______ _______ _______ _____ _____    ______ ____

>  <TORSDO>
F 2

$$$$
=
 OpenBabel11052419173D

 32 37  0  0  1  0  0  0  0  0999 V2000
  189.9110  175.1900  144.6190 C   0  0  1  0  0  0  0  0  0  0  0  0
  187.9960  176.6610  144.1460 C   0  0  1  0  0  3  0  0  0  0  0  0
  191.0740  174.7280  145.4710 C   0  0  0  0  0  2  0  0  0  0  0  0
  189.2710  176.5420  144.9780 C   0  0  1  0  0  3  0  0  0  0  0  0
  187.1020  177.8040  144.6470 C   0  0  1  0  0  3  0  0  0  0  0  0
  185.3900  176.7280  139.0420 C   0  0  0  0  0  1  0  0  0  0  0  0
  188.4100  176.7870  142.6770 C   0  0  1  0  0  3  0  0  0  0  0  0
  185.1910  178.5860  141.0420 S   0  0  0  0  0  0  0  0  0  0  0  0
  186.4910  178.2670  142.2570 C   0  0  1  0  0  3  0  0  0  0  0  0
  189.0680  176.8520  146.4770 C   0  0  0  0  0  2  0  0  0  0  0  0
  185.9510  178.1200  143.6750 C   0  0  0  0  0  2  0  0  0  0  0  0
  187.6170  176.6690  146.9210 C   0  0  0  0  0  2  0  0  0  0  0  0
  189.7140  172.6710  145.0970 C   0  0  0  0  0  1  0  0  0  0  0  0
  189.2250  175.5810  142.2540 C   0  0  0  0  0  3  0  0  0  0  0  0
  189.9660  174.8560  143.1230 C   0  0  0  0  0  0  0  0  0  0  0  0
  187.1670  176.9910  141.8220 C   0  0  1  0  0  3  0  0  0  0  0  0
  186.6250  177.5150  146.0970 C   0  0  2  0  0  3  0  0  0  0  0  0
  189.7030  174.0830  145.6580 C   0  0  2  0  0  3  0  0  0  0  0  0
  186.2030  177.8040  139.7330 C   0  0  1  0  0  3  0  0  0  0  0  0
  187.4530  177.1860  140.3500 C   0  0  0  0  0  2  0  0  0  0  0  0
  193.0530  173.6610  141.1240 N   0  0  0  0  0  0  0  0  0  0  0  0
  192.7950  170.4260  140.9410 O   0  0  0  0  0  0  0  0  0  0  0  0
  194.3550  174.0260  141.0410 O   0  0  0  0  0  1  0  0  0  0  0  0
  190.8240  171.4500  141.7060 C   0  0  0  0  0  2  0  0  0  0  0  0
  190.9060  173.8010  142.5830 C   0  0  1  0  0  3  0  0  0  0  0  0
  192.5760  172.6440  140.1960 C   0  0  0  0  0  2  0  0  0  0  0  0
  190.1610  172.8210  141.6800 C   0  0  0  0  0  2  0  0  0  0  0  0
  192.1800  174.3960  142.0000 C   0  0  0  0  0  0  0  0  0  0  0  0
  192.5520  175.5340  142.3990 O   0  0  0  0  0  0  0  0  0  0  0  0
  192.1100  171.4350  140.9420 C   0  0  0  0  0  0  0  0  0  0  0  0
  185.2220  176.9080  146.1970 C   0  0  0  0  0  2  0  0  0  0  0  0
  184.2080  177.8910  146.7670 C   0  0  0  0  0  1  0  0  0  0  0  0
  1  4  1  0  0  0  0
  1  3  1  1  0  0  0
  1 18  1  0  0  0  0
  2  5  1  0  0  0  0
  2  4  1  0  0  0  0
  3 18  1  0  0  0  0
  4 10  1  0  0  0  0
  5 17  1  0  0  0  0
  6 19  1  0  0  0  0
  7  2  1  0  0  0  0
  8  9  1  0  0  0  0
  9 11  1  0  0  0  0
 10 12  1  0  0  0  0
 11  5  1  0  0  0  0
 13 18  1  0  0  0  0
 14  7  1  0  0  0  0
 14 15  2  0  0  0  0
 15  1  1  0  0  0  0
 16  9  1  0  0  0  0
 16  7  1  0  0  0  0
 17 31  1  0  0  0  0
 17 12  1  0  0  0  0
 19 20  1  0  0  0  0
 19  8  1  0  0  0  0
 20 16  1  0  0  0  0
 21 28  1  0  0  0  0
 22 30  2  0  0  0  0
 23 21  1  0  0  0  0
 25 15  1  0  0  0  0
 26 30  1  0  0  0  0
 26 21  1  0  0  0  0
 27 24  1  0  0  0  0
 27 25  1  0  0  0  0
 28 29  2  0  0  0  0
 28 25  1  0  0  0  0
 30 24  1  0  0  0  0
 31 32  1  0  0  0  0
M  END
>  <MODEL>
4

>  <REMARK>
 VINA RESULT:      -7.4      3.886      7.324
  Name = 
  2 active torsions:
  status: ('A' for Active; 'I' for Inactive)
    1  A    between atoms: C_13  and  C_29
    2  A    between atoms: C_16  and  C_27
                            x       y       z     vdW  Elec       q    Type
                         _______ _______ _______ _____ _____    ______ ____

>  <TORSDO>
F 2

$$$$
=
 OpenBabel11052419173D

 32 37  0  0  1  0  0  0  0  0999 V2000
  192.0510  176.0990  144.4620 C   0  0  1  0  0  0  0  0  0  0  0  0
  190.1860  175.7560  142.8940 C   0  0  1  0  0  3  0  0  0  0  0  0
  192.8790  176.9510  145.4010 C   0  0  0  0  0  2  0  0  0  0  0  0
  191.0490  176.8310  143.5510 C   0  0  1  0  0  3  0  0  0  0  0  0
  188.9470  176.3640  142.2210 C   0  0  1  0  0  3  0  0  0  0  0  0
  189.7350  171.0310  139.6800 C   0  0  0  0  0  1  0  0  0  0  0  0
  191.0830  174.9540  141.9470 C   0  0  1  0  0  3  0  0  0  0  0  0
  188.4080  173.4040  139.3570 S   0  0  0  0  0  0  0  0  0  0  0  0
  189.1930  174.6510  140.4020 C   0  0  1  0  0  3  0  0  0  0  0  0
  190.2380  177.9860  144.1770 C   0  0  0  0  0  2  0  0  0  0  0  0
  188.2060  175.3510  141.3290 C   0  0  0  0  0  2  0  0  0  0  0  0
  188.8020  177.5800  144.5070 C   0  0  0  0  0  2  0  0  0  0  0  0
  192.2330  174.9620  146.7610 C   0  0  0  0  0  1  0  0  0  0  0  0
  192.2350  174.3330  142.7120 C   0  0  0  0  0  3  0  0  0  0  0  0
  192.7330  174.8700  143.8500 C   0  0  0  0  0  0  0  0  0  0  0  0
  190.2390  173.9230  141.2090 C   0  0  1  0  0  3  0  0  0  0  0  0
  188.0350  177.0350  143.2840 C   0  0  2  0  0  3  0  0  0  0  0  0
  191.7100  176.1400  145.9560 C   0  0  2  0  0  3  0  0  0  0  0  0
  189.9790  172.4690  139.2670 C   0  0  1  0  0  3  0  0  0  0  0  0
  191.0070  173.1030  140.1980 C   0  0  0  0  0  2  0  0  0  0  0  0
  196.5500  174.2520  143.8850 N   0  0  0  0  0  0  0  0  0  0  0  0
  197.0700  172.0350  146.2030 O   0  0  0  0  0  0  0  0  0  0  0  0
  197.6570  175.0160  143.7190 O   0  0  0  0  0  1  0  0  0  0  0  0
  194.7950  172.2580  145.6580 C   0  0  0  0  0  2  0  0  0  0  0  0
  194.0090  174.3020  144.4310 C   0  0  1  0  0  3  0  0  0  0  0  0
  196.7350  172.8130  144.0110 C   0  0  0  0  0  2  0  0  0  0  0  0
  193.9390  172.7790  144.5100 C   0  0  0  0  0  2  0  0  0  0  0  0
  195.2560  174.8710  143.7690 C   0  0  0  0  0  0  0  0  0  0  0  0
  195.1790  175.9950  143.2020 O   0  0  0  0  0  0  0  0  0  0  0  0
  196.2570  172.3410  145.3470 C   0  0  0  0  0  0  0  0  0  0  0  0
  186.8620  176.1690  143.7550 C   0  0  0  0  0  2  0  0  0  0  0  0
  186.0680  176.8330  144.8720 C   0  0  0  0  0  1  0  0  0  0  0  0
  1  3  1  6  0  0  0
  1 18  1  0  0  0  0
  2  4  1  0  0  0  0
  3 18  1  0  0  0  0
  4 10  1  0  0  0  0
  4  1  1  0  0  0  0
  5  2  1  0  0  0  0
  5 17  1  0  0  0  0
  7 14  1  0  0  0  0
  7  2  1  0  0  0  0
  8  9  1  0  0  0  0
  9 16  1  0  0  0  0
  9 11  1  0  0  0  0
 10 12  1  0  0  0  0
 11  5  1  0  0  0  0
 14 15  2  0  0  0  0
 15 25  1  0  0  0  0
 15  1  1  0  0  0  0
 16  7  1  0  0  0  0
 17 31  1  0  0  0  0
 17 12  1  0  0  0  0
 18 13  1  0  0  0  0
 19  8  1  0  0  0  0
 19  6  1  0  0  0  0
 19 20  1  0  0  0  0
 20 16  1  0  0  0  0
 21 26  1  0  0  0  0
 23 21  1  0  0  0  0
 25 27  1  0  0  0  0
 26 30  1  0  0  0  0
 27 24  1  0  0  0  0
 28 21  1  0  0  0  0
 28 25  1  0  0  0  0
 29 28  2  0  0  0  0
 30 24  1  0  0  0  0
 30 22  2  0  0  0  0
 31 32  1  0  0  0  0
M  END
>  <MODEL>
5

>  <REMARK>
 VINA RESULT:      -7.1      3.939      7.077
  Name = 
  2 active torsions:
  status: ('A' for Active; 'I' for Inactive)
    1  A    between atoms: C_13  and  C_29
    2  A    between atoms: C_16  and  C_27
                            x       y       z     vdW  Elec       q    Type
                         _______ _______ _______ _____ _____    ______ ____

>  <TORSDO>
F 2

$$$$
=
 OpenBabel11052419173D

 32 37  0  0  1  0  0  0  0  0999 V2000
  192.9200  173.5970  143.4820 C   0  0  1  0  0  0  0  0  0  0  0  0
  191.5780  175.4440  144.4030 C   0  0  1  0  0  3  0  0  0  0  0  0
  194.2320  172.8890  143.2190 C   0  0  0  0  0  2  0  0  0  0  0  0
  192.9940  175.0480  143.9900 C   0  0  1  0  0  3  0  0  0  0  0  0
  191.5740  176.7410  145.2230 C   0  0  1  0  0  3  0  0  0  0  0  0
  186.0400  176.1330  143.0990 C   0  0  0  0  0  1  0  0  0  0  0  0
  190.7240  175.5030  143.1330 C   0  0  1  0  0  3  0  0  0  0  0  0
  187.7250  177.9600  144.2460 S   0  0  0  0  0  0  0  0  0  0  0  0
  189.4220  177.3580  144.0890 C   0  0  1  0  0  3  0  0  0  0  0  0
  194.0670  175.3700  145.0530 C   0  0  0  0  0  2  0  0  0  0  0  0
  190.1560  177.3060  145.4240 C   0  0  0  0  0  2  0  0  0  0  0  0
  193.4790  175.4880  146.4590 C   0  0  0  0  0  2  0  0  0  0  0  0
  192.7990  171.1680  144.3180 C   0  0  0  0  0  1  0  0  0  0  0  0
  190.7300  174.1600  142.4300 C   0  0  0  0  0  3  0  0  0  0  0  0
  191.7550  173.2820  142.5360 C   0  0  0  0  0  0  0  0  0  0  0  0
  189.3220  175.9750  143.4940 C   0  0  1  0  0  3  0  0  0  0  0  0
  192.3510  176.5360  146.5530 C   0  0  2  0  0  3  0  0  0  0  0  0
  193.4290  172.5430  144.4710 C   0  0  2  0  0  3  0  0  0  0  0  0
  187.2330  177.0040  142.7640 C   0  0  1  0  0  3  0  0  0  0  0  0
  188.3960  176.1290  142.3090 C   0  0  0  0  0  2  0  0  0  0  0  0
  191.9470  171.4990  139.1100 N   0  0  0  0  0  0  0  0  0  0  0  0
  191.1970  168.3900  139.6840 O   0  0  0  0  0  0  0  0  0  0  0  0
  192.7380  171.5890  138.0130 O   0  0  0  0  0  1  0  0  0  0  0  0
  190.7140  169.7880  141.5080 C   0  0  0  0  0  2  0  0  0  0  0  0
  191.7700  172.0620  141.6420 C   0  0  1  0  0  3  0  0  0  0  0  0
  190.7940  170.6130  139.0400 C   0  0  0  0  0  2  0  0  0  0  0  0
  190.4740  171.2680  141.7850 C   0  0  0  0  0  2  0  0  0  0  0  0
  192.1880  172.3890  140.2150 C   0  0  0  0  0  0  0  0  0  0  0  0
  192.8850  173.4210  140.0110 O   0  0  0  0  0  0  0  0  0  0  0  0
  190.9150  169.5180  140.0500 C   0  0  0  0  0  0  0  0  0  0  0  0
  191.4660  176.2340  147.7680 C   0  0  0  0  0  2  0  0  0  0  0  0
  191.5470  177.3280  148.8240 C   0  0  0  0  0  1  0  0  0  0  0  0
  1  3  1  6  0  0  0
  1  4  1  0  0  0  0
  1 18  1  0  0  0  0
  2  5  1  0  0  0  0
  3 18  1  0  0  0  0
  4  2  1  0  0  0  0
  4 10  1  0  0  0  0
  5 11  1  0  0  0  0
  5 17  1  0  0  0  0
  7 16  1  0  0  0  0
  7  2  1  0  0  0  0
  9  8  1  0  0  0  0
  9 11  1  0  0  0  0
 10 12  1  0  0  0  0
 12 17  1  0  0  0  0
 13 18  1  0  0  0  0
 14 15  2  0  0  0  0
 14  7  1  0  0  0  0
 15  1  1  0  0  0  0
 16  9  1  0  0  0  0
 17 31  1  0  0  0  0
 19  6  1  0  0  0  0
 19  8  1  0  0  0  0
 20 19  1  0  0  0  0
 20 16  1  0  0  0  0
 21 28  1  0  0  0  0
 22 30  2  0  0  0  0
 23 21  1  0  0  0  0
 24 27  1  0  0  0  0
 25 27  1  0  0  0  0
 25 15  1  0  0  0  0
 26 21  1  0  0  0  0
 26 30  1  0  0  0  0
 28 25  1  0  0  0  0
 29 28  2  0  0  0  0
 30 24  1  0  0  0  0
 31 32  1  0  0  0  0
M  END
>  <MODEL>
6

>  <REMARK>
 VINA RESULT:      -6.7      3.986      6.638
  Name = 
  2 active torsions:
  status: ('A' for Active; 'I' for Inactive)
    1  A    between atoms: C_13  and  C_29
    2  A    between atoms: C_16  and  C_27
                            x       y       z     vdW  Elec       q    Type
                         _______ _______ _______ _____ _____    ______ ____

>  <TORSDO>
F 2

$$$$
=
 OpenBabel11052419173D

 32 37  0  0  1  0  0  0  0  0999 V2000
  192.8660  175.2700  144.4480 C   0  0  1  0  0  0  0  0  0  0  0  0
  190.7280  176.3880  144.9300 C   0  0  1  0  0  3  0  0  0  0  0  0
  194.2890  174.8820  144.7920 C   0  0  0  0  0  2  0  0  0  0  0  0
  192.2050  176.3550  145.3170 C   0  0  1  0  0  3  0  0  0  0  0  0
  189.9000  177.1910  145.9430 C   0  0  1  0  0  3  0  0  0  0  0  0
  186.6520  177.0190  140.9500 C   0  0  0  0  0  1  0  0  0  0  0  0
  190.6350  176.9080  143.4930 C   0  0  1  0  0  3  0  0  0  0  0  0
  186.8600  178.3230  143.3480 S   0  0  0  0  0  0  0  0  0  0  0  0
  188.5080  178.0220  144.0270 C   0  0  1  0  0  3  0  0  0  0  0  0
  192.4500  176.2870  146.8390 C   0  0  0  0  0  2  0  0  0  0  0  0
  188.4690  177.4670  145.4460 C   0  0  0  0  0  2  0  0  0  0  0  0
  191.2500  175.7220  147.6000 C   0  0  0  0  0  2  0  0  0  0  0  0
  193.1570  172.7210  144.2730 C   0  0  0  0  0  1  0  0  0  0  0  0
  191.4220  176.0120  142.5560 C   0  0  0  0  0  3  0  0  0  0  0  0
  192.4870  175.2840  142.9630 C   0  0  0  0  0  0  0  0  0  0  0  0
  189.1690  177.0330  143.0990 C   0  0  1  0  0  3  0  0  0  0  0  0
  189.9480  176.5060  147.3370 C   0  0  2  0  0  3  0  0  0  0  0  0
  193.1420  173.9470  145.1710 C   0  0  2  0  0  3  0  0  0  0  0  0
  187.4960  178.0630  141.6510 C   0  0  1  0  0  3  0  0  0  0  0  0
  188.9470  177.5940  141.7130 C   0  0  0  0  0  2  0  0  0  0  0  0
  195.0230  175.1950  140.0440 N   0  0  0  0  0  0  0  0  0  0  0  0
  194.9960  172.1410  138.9360 O   0  0  0  0  0  0  0  0  0  0  0  0
  196.2210  175.7710  139.7830 O   0  0  0  0  0  1  0  0  0  0  0  0
  193.2190  172.5850  140.4070 C   0  0  0  0  0  2  0  0  0  0  0  0
  193.3340  174.5830  141.9240 C   0  0  1  0  0  3  0  0  0  0  0  0
  194.4030  174.4140  138.9820 C   0  0  0  0  0  2  0  0  0  0  0  0
  192.4610  173.7870  140.9570 C   0  0  0  0  0  2  0  0  0  0  0  0
  194.3540  175.5110  141.2790 C   0  0  0  0  0  0  0  0  0  0  0  0
  194.7230  176.5370  141.9130 O   0  0  0  0  0  0  0  0  0  0  0  0
  194.2540  172.9880  139.4030 C   0  0  0  0  0  0  0  0  0  0  0  0
  188.7390  175.6190  147.6540 C   0  0  0  0  0  2  0  0  0  0  0  0
  188.9830  174.1610  147.2850 C   0  0  0  0  0  1  0  0  0  0  0  0
  1  3  1  6  0  0  0
  1 18  1  0  0  0  0
  1  4  1  0  0  0  0
  2  4  1  0  0  0  0
  2  5  1  0  0  0  0
  3 18  1  0  0  0  0
  4 10  1  0  0  0  0
  5 17  1  0  0  0  0
  6 19  1  0  0  0  0
  7  2  1  0  0  0  0
  8  9  1  0  0  0  0
  9 11  1  0  0  0  0
 10 12  1  0  0  0  0
 11  5  1  0  0  0  0
 13 18  1  0  0  0  0
 14 15  2  0  0  0  0
 14  7  1  0  0  0  0
 15  1  1  0  0  0  0
 16  7  1  0  0  0  0
 16  9  1  0  0  0  0
 17 12  1  0  0  0  0
 17 31  1  0  0  0  0
 19 20  1  0  0  0  0
 19  8  1  0  0  0  0
 20 16  1  0  0  0  0
 21 28  1  0  0  0  0
 22 30  2  0  0  0  0
 23 21  1  0  0  0  0
 24 27  1  0  0  0  0
 25 15  1  0  0  0  0
 26 30  1  0  0  0  0
 26 21  1  0  0  0  0
 27 25  1  0  0  0  0
 28 29  2  0  0  0  0
 28 25  1  0  0  0  0
 30 24  1  0  0  0  0
 32 31  1  0  0  0  0
M  END
>  <MODEL>
7

>  <REMARK>
 VINA RESULT:      -6.7      4.414      6.902
  Name = 
  2 active torsions:
  status: ('A' for Active; 'I' for Inactive)
    1  A    between atoms: C_13  and  C_29
    2  A    between atoms: C_16  and  C_27
                            x       y       z     vdW  Elec       q    Type
                         _______ _______ _______ _____ _____    ______ ____

>  <TORSDO>
F 2

$$$$
=
 OpenBabel11052419173D

 32 37  0  0  1  0  0  0  0  0999 V2000
  189.9700  173.0870  142.7490 C   0  0  1  0  0  0  0  0  0  0  0  0
  191.7430  174.2310  144.0140 C   0  0  1  0  0  3  0  0  0  0  0  0
  188.7080  172.2550  142.6540 C   0  0  0  0  0  2  0  0  0  0  0  0
  190.6600  173.1600  144.1230 C   0  0  1  0  0  3  0  0  0  0  0  0
  192.2810  174.6280  145.3960 C   0  0  1  0  0  3  0  0  0  0  0  0
  196.4570  176.2840  141.4800 C   0  0  0  0  0  1  0  0  0  0  0  0
  192.8140  173.7130  143.0500 C   0  0  1  0  0  3  0  0  0  0  0  0
  196.0510  175.8520  144.1520 S   0  0  0  0  0  0  0  0  0  0  0  0
  194.5540  174.8610  144.3560 C   0  0  1  0  0  3  0  0  0  0  0  0
  189.7520  173.3140  145.3620 C   0  0  0  0  0  2  0  0  0  0  0  0
  193.5470  175.5000  145.3060 C   0  0  0  0  0  2  0  0  0  0  0  0
  189.7410  174.7430  145.9040 C   0  0  0  0  0  2  0  0  0  0  0  0
  188.2210  174.2930  141.3000 C   0  0  0  0  0  1  0  0  0  0  0  0
  192.2040  173.4180  141.6940 C   0  0  0  0  0  3  0  0  0  0  0  0
  190.9040  173.0780  141.5340 C   0  0  0  0  0  0  0  0  0  0  0  0
  193.9540  174.7200  142.9790 C   0  0  1  0  0  3  0  0  0  0  0  0
  191.1500  175.2670  146.2480 C   0  0  2  0  0  3  0  0  0  0  0  0
  188.6040  173.7790  142.6780 C   0  0  2  0  0  3  0  0  0  0  0  0
  196.3030  175.1550  142.4790 C   0  0  1  0  0  3  0  0  0  0  0  0
  195.1050  174.2910  142.0970 C   0  0  0  0  0  2  0  0  0  0  0  0
  190.6910  170.5200  138.6410 N   0  0  0  0  0  0  0  0  0  0  0  0
  189.2760  172.0880  136.1710 O   0  0  0  0  0  0  0  0  0  0  0  0
  190.4570  169.1900  138.5390 O   0  0  0  0  0  1  0  0  0  0  0  0
  189.9410  173.5340  137.8990 C   0  0  0  0  0  2  0  0  0  0  0  0
  190.4330  172.6020  140.1770 C   0  0  1  0  0  3  0  0  0  0  0  0
  191.0680  171.2340  137.4290 C   0  0  0  0  0  2  0  0  0  0  0  0
  190.9100  173.5440  139.0750 C   0  0  0  0  0  2  0  0  0  0  0  0
  190.7140  171.1230  139.9480 C   0  0  0  0  0  0  0  0  0  0  0  0
  190.8470  170.3700  140.9510 O   0  0  0  0  0  0  0  0  0  0  0  0
  190.0460  172.2740  137.0980 C   0  0  0  0  0  0  0  0  0  0  0  0
  191.1440  176.8000  146.2510 C   0  0  0  0  0  2  0  0  0  0  0  0
  190.1490  177.3740  145.2500 C   0  0  0  0  0  1  0  0  0  0  0  0
  1  3  1  1  0  0  0
  1  4  1  0  0  0  0
  2  4  1  0  0  0  0
  2  5  1  0  0  0  0
  3 18  1  0  0  0  0
  4 10  1  0  0  0  0
  5 17  1  0  0  0  0
  6 19  1  0  0  0  0
  7  2  1  0  0  0  0
  8  9  1  0  0  0  0
  9 11  1  0  0  0  0
 10 12  1  0  0  0  0
 11  5  1  0  0  0  0
 12 17  1  0  0  0  0
 13 18  1  0  0  0  0
 14  7  1  0  0  0  0
 15 14  2  0  0  0  0
 15  1  1  0  0  0  0
 16  7  1  0  0  0  0
 16  9  1  0  0  0  0
 17 31  1  0  0  0  0
 18  1  1  0  0  0  0
 19  8  1  0  0  0  0
 20 19  1  0  0  0  0
 20 16  1  0  0  0  0
 21 28  1  0  0  0  0
 22 30  2  0  0  0  0
 23 21  1  0  0  0  0
 24 27  1  0  0  0  0
 25 15  1  0  0  0  0
 26 21  1  0  0  0  0
 27 25  1  0  0  0  0
 28 25  1  0  0  0  0
 28 29  2  0  0  0  0
 30 26  1  0  0  0  0
 30 24  1  0  0  0  0
 32 31  1  0  0  0  0
M  END
>  <MODEL>
8

>  <REMARK>
 VINA RESULT:      -6.7      4.014      6.154
  Name = 
  2 active torsions:
  status: ('A' for Active; 'I' for Inactive)
    1  A    between atoms: C_13  and  C_29
    2  A    between atoms: C_16  and  C_27
                            x       y       z     vdW  Elec       q    Type
                         _______ _______ _______ _____ _____    ______ ____

>  <TORSDO>
F 2

$$$$
=
 OpenBabel11052419173D

 32 37  0  0  1  0  0  0  0  0999 V2000
  190.0370  173.0230  141.9600 C   0  0  1  0  0  0  0  0  0  0  0  0
  192.3090  173.0190  141.0150 C   0  0  1  0  0  3  0  0  0  0  0  0
  188.5770  172.6200  141.9560 C   0  0  0  0  0  2  0  0  0  0  0  0
  190.8430  172.7550  140.6770 C   0  0  1  0  0  3  0  0  0  0  0  0
  193.2430  172.4780  139.9240 C   0  0  1  0  0  3  0  0  0  0  0  0
  196.4070  176.5480  142.9130 C   0  0  0  0  0  1  0  0  0  0  0  0
  192.4610  174.5190  141.2830 C   0  0  1  0  0  3  0  0  0  0  0  0
  196.3900  175.1080  140.5850 S   0  0  0  0  0  0  0  0  0  0  0  0
  194.7220  174.4680  140.3140 C   0  0  1  0  0  3  0  0  0  0  0  0
  190.6010  171.4100  139.9580 C   0  0  0  0  0  2  0  0  0  0  0  0
  194.6950  172.9590  140.1000 C   0  0  0  0  0  2  0  0  0  0  0  0
  191.7190  170.4000  140.2150 C   0  0  0  0  0  2  0  0  0  0  0  0
  189.4070  171.9500  144.2110 C   0  0  0  0  0  1  0  0  0  0  0  0
  191.5560  174.9460  142.4210 C   0  0  0  0  0  3  0  0  0  0  0  0
  190.4050  174.3010  142.7230 C   0  0  0  0  0  0  0  0  0  0  0  0
  193.9290  174.8350  141.5430 C   0  0  1  0  0  3  0  0  0  0  0  0
  193.1130  170.9330  139.8240 C   0  0  2  0  0  3  0  0  0  0  0  0
  189.5910  171.7650  142.7140 C   0  0  2  0  0  3  0  0  0  0  0  0
  195.7150  176.4970  141.5660 C   0  0  1  0  0  3  0  0  0  0  0  0
  194.2150  176.3020  141.7670 C   0  0  0  0  0  2  0  0  0  0  0  0
  188.0150  177.0560  144.0090 N   0  0  0  0  0  0  0  0  0  0  0  0
  187.4280  176.3400  147.1240 O   0  0  0  0  0  0  0  0  0  0  0  0
  186.9780  177.7570  143.4920 O   0  0  0  0  0  1  0  0  0  0  0  0
  189.2050  175.0910  146.2280 C   0  0  0  0  0  2  0  0  0  0  0  0
  189.4650  174.9150  143.7370 C   0  0  1  0  0  3  0  0  0  0  0  0
  188.4900  177.4300  145.3330 C   0  0  0  0  0  2  0  0  0  0  0  0
  190.1820  175.1650  145.0610 C   0  0  0  0  0  2  0  0  0  0  0  0
  188.6910  176.0990  143.1730 C   0  0  0  0  0  0  0  0  0  0  0  0
  188.5280  176.1740  141.9250 O   0  0  0  0  0  0  0  0  0  0  0  0
  188.3170  176.2940  146.2900 C   0  0  0  0  0  0  0  0  0  0  0  0
  194.1940  170.1520  140.5790 C   0  0  0  0  0  2  0  0  0  0  0  0
  193.7320  169.7210  141.9650 C   0  0  0  0  0  1  0  0  0  0  0  0
  1  3  1  6  0  0  0
  1 18  1  0  0  0  0
  1 15  1  0  0  0  0
  2  7  1  0  0  0  0
  3 18  1  0  0  0  0
  4  2  1  0  0  0  0
  4  1  1  0  0  0  0
  5 11  1  0  0  0  0
  5  2  1  0  0  0  0
  7 16  1  0  0  0  0
  7 14  1  0  0  0  0
  8 19  1  0  0  0  0
  9  8  1  0  0  0  0
  9 16  1  0  0  0  0
 10 12  1  0  0  0  0
 10  4  1  0  0  0  0
 11  9  1  0  0  0  0
 14 15  2  0  0  0  0
 15 25  1  0  0  0  0
 16 20  1  0  0  0  0
 17  5  1  0  0  0  0
 17 12  1  0  0  0  0
 17 31  1  0  0  0  0
 18 13  1  0  0  0  0
 19 20  1  0  0  0  0
 19  6  1  0  0  0  0
 21 26  1  0  0  0  0
 23 21  1  0  0  0  0
 24 30  1  0  0  0  0
 25 27  1  0  0  0  0
 26 30  1  0  0  0  0
 27 24  1  0  0  0  0
 28 25  1  0  0  0  0
 28 21  1  0  0  0  0
 29 28  2  0  0  0  0
 30 22  2  0  0  0  0
 31 32  1  0  0  0  0
M  END
>  <MODEL>
9

>  <REMARK>
 VINA RESULT:      -6.6      2.666      5.399
  Name = 
  2 active torsions:
  status: ('A' for Active; 'I' for Inactive)
    1  A    between atoms: C_13  and  C_29
    2  A    between atoms: C_16  and  C_27
                            x       y       z     vdW  Elec       q    Type
                         _______ _______ _______ _____ _____    ______ ____

>  <TORSDO>
F 2

$$$$
