=
 OpenBabel11052417583D

 31 34  0  0  1  0  0  0  0  0999 V2000
  188.2860  176.9650  144.8370 C   0  0  2  0  0  3  0  0  0  0  0  0
  187.0960  177.7080  145.4710 C   0  0  2  0  0  3  0  0  0  0  0  0
  185.0670  177.5610  146.8960 C   0  0  0  0  0  2  0  0  0  0  0  0
  186.1810  176.7560  146.2470 C   0  0  0  0  0  2  0  0  0  0  0  0
  186.3840  177.8070  143.0020 C   0  0  0  0  0  2  0  0  0  0  0  0
  184.3120  178.3520  145.8690 C   0  0  0  0  0  3  0  0  0  0  0  0
  187.8740  175.9620  143.8320 N   0  0  1  0  0  0  0  0  0  0  0  0
  184.1040  179.6060  143.8630 N   0  0  0  0  0  1  0  0  0  0  0  0
  186.6200  176.2970  143.1190 C   0  0  0  0  0  2  0  0  0  0  0  0
  186.3120  178.4770  144.3810 C   0  0  1  0  0  3  0  0  0  0  0  0
  184.8830  178.8110  144.7510 C   0  0  0  0  0  0  0  0  0  0  0  0
  191.3130  176.4420  147.0660 C   0  0  0  0  0  0  0  0  0  0  0  0
  189.2010  176.3770  145.8760 C   0  0  0  0  0  0  0  0  0  0  0  0
  190.9290  175.3280  147.8180 C   0  0  0  0  0  3  0  0  0  0  0  0
  192.5220  177.0170  147.2790 F   0  0  0  0  0  0  0  0  0  0  0  0
  190.4510  176.9650  146.0980 C   0  0  0  0  0  3  0  0  0  0  0  0
  188.8160  175.2600  146.6360 C   0  0  0  0  0  3  0  0  0  0  0  0
  189.6790  174.7370  147.6050 C   0  0  0  0  0  3  0  0  0  0  0  0
  189.6930  173.5490  142.1860 C   0  0  2  0  0  3  0  0  0  0  0  0
  189.2290  174.3760  141.0020 C   0  0  2  0  0  3  0  0  0  0  0  0
  188.9850  175.7340  142.8960 C   0  0  1  0  0  3  0  0  0  0  0  0
  189.8070  174.5330  143.3210 C   0  0  0  0  0  2  0  0  0  0  0  0
  188.5200  175.5370  141.5210 N   0  0  0  0  0  2  0  0  0  0  0  0
  188.5590  173.8730  138.6500 C   0  0  0  0  0  1  0  0  0  0  0  0
  188.2960  173.5710  140.1130 C   0  0  0  0  0  2  0  0  0  0  0  0
  190.9430  172.9820  141.9220 O   0  0  0  0  0  0  0  0  0  0  0  0
  192.0020  174.3210  141.7120 S   0  0  0  0  0  0  0  0  0  0  0  0
  193.3260  173.5360  142.6950 C   0  0  0  0  0  2  0  0  0  0  0  0
  193.6000  174.2680  144.0070 C   0  0  0  0  0  3  0  0  0  0  0  0
  193.2220  175.7370  143.9200 C   0  0  0  0  0  1  0  0  0  0  0  0
  192.8910  173.6020  145.1730 C   0  0  0  0  0  1  0  0  0  0  0  0
  1  2  1  0  0  0  0
  1 13  1  1  0  0  0
  2  4  1  6  0  0  0
  4  3  1  0  0  0  0
  5  9  1  0  0  0  0
  6  3  1  0  0  0  0
  7  9  1  6  0  0  0
  7  1  1  0  0  0  0
  8 11  1  0  0  0  0
 10  5  1  6  0  0  0
 10 11  1  0  0  0  0
 10  2  1  0  0  0  0
 11  6  2  0  0  0  0
 12 15  1  0  0  0  0
 12 14  1  0  0  0  0
 13 16  1  0  0  0  0
 13 17  2  0  0  0  0
 16 12  2  0  0  0  0
 17 18  1  0  0  0  0
 18 14  2  0  0  0  0
 19 26  1  6  0  0  0
 19 22  1  0  0  0  0
 20 25  1  6  0  0  0
 20 23  1  0  0  0  0
 20 19  1  0  0  0  0
 21 22  1  1  0  0  0
 21  7  1  0  0  0  0
 23 21  1  0  0  0  0
 24 25  1  0  0  0  0
 27 26  1  0  0  0  0
 27 28  1  0  0  0  0
 28 29  1  0  0  0  0
 29 31  1  0  0  0  0
 30 29  1  0  0  0  0
M  END
>  <MODEL>
1

>  <REMARK>
 VINA RESULT:      -7.4      0.000      0.000
  Name = 
  7 active torsions:
  status: ('A' for Active; 'I' for Inactive)
    1  A    between atoms: C_1  and  C_24
    2  A    between atoms: C_4  and  C_12
    3  A    between atoms: O_6  and  C_7
    4  A    between atoms: O_6  and  S_19
    5  A    between atoms: C_9  and  C_22
    6  A    between atoms: C_15  and  N_21
    7  A    between atoms: S_19  and  C_24
                            x       y       z     vdW  Elec       q    Type
                         _______ _______ _______ _____ _____    ______ ____

>  <TORSDO>
F 7

$$$$
=
 OpenBabel11052417583D

 31 34  0  0  1  0  0  0  0  0999 V2000
  188.3210  176.8680  144.6880 C   0  0  2  0  0  3  0  0  0  0  0  0
  187.1450  177.6410  145.3130 C   0  0  2  0  0  3  0  0  0  0  0  0
  185.1420  177.5590  146.7800 C   0  0  0  0  0  2  0  0  0  0  0  0
  186.2420  176.7240  146.1450 C   0  0  0  0  0  2  0  0  0  0  0  0
  186.3870  177.6400  142.8560 C   0  0  0  0  0  2  0  0  0  0  0  0
  184.3690  178.3090  145.7350 C   0  0  0  0  0  3  0  0  0  0  0  0
  187.8880  175.8260  143.7330 N   0  0  1  0  0  0  0  0  0  0  0  0
  184.1270  179.4800  143.6830 N   0  0  0  0  0  1  0  0  0  0  0  0
  186.6210  176.1350  143.0300 C   0  0  0  0  0  2  0  0  0  0  0  0
  186.3420  178.3660  144.2060 C   0  0  1  0  0  3  0  0  0  0  0  0
  184.9210  178.7200  144.5880 C   0  0  0  0  0  0  0  0  0  0  0  0
  191.4130  176.3850  146.8340 C   0  0  0  0  0  0  0  0  0  0  0  0
  189.2540  176.3210  145.7330 C   0  0  0  0  0  0  0  0  0  0  0  0
  191.0160  175.3470  147.6830 C   0  0  0  0  0  3  0  0  0  0  0  0
  192.6510  176.9220  146.9570 F   0  0  0  0  0  0  0  0  0  0  0  0
  190.5340  176.8710  145.8630 C   0  0  0  0  0  3  0  0  0  0  0  0
  188.8560  175.2810  146.5910 C   0  0  0  0  0  3  0  0  0  0  0  0
  189.7370  174.7960  147.5630 C   0  0  0  0  0  3  0  0  0  0  0  0
  189.4880  173.3640  141.9380 C   0  0  2  0  0  3  0  0  0  0  0  0
  189.1140  174.3050  140.8100 C   0  0  2  0  0  3  0  0  0  0  0  0
  188.9800  175.5550  142.7870 C   0  0  1  0  0  3  0  0  0  0  0  0
  189.6830  174.2580  143.1350 C   0  0  0  0  0  2  0  0  0  0  0  0
  188.5110  175.4920  141.4010 N   0  0  0  0  0  2  0  0  0  0  0  0
  188.4480  173.9820  138.4260 C   0  0  0  0  0  1  0  0  0  0  0  0
  188.1170  173.6500  139.8680 C   0  0  0  0  0  2  0  0  0  0  0  0
  190.6820  172.7010  141.6420 O   0  0  0  0  0  0  0  0  0  0  0  0
  190.4040  171.0640  142.0920 S   0  0  0  0  0  0  0  0  0  0  0  0
  191.2140  170.4230  140.5860 C   0  0  0  0  0  2  0  0  0  0  0  0
  190.8100  171.1880  139.3280 C   0  0  0  0  0  3  0  0  0  0  0  0
  192.0220  171.6360  138.5300 C   0  0  0  0  0  1  0  0  0  0  0  0
  189.8700  170.3720  138.4600 C   0  0  0  0  0  1  0  0  0  0  0  0
  1  2  1  0  0  0  0
  1 13  1  1  0  0  0
  2  4  1  6  0  0  0
  4  3  1  0  0  0  0
  5  9  1  0  0  0  0
  6  3  1  0  0  0  0
  7  9  1  6  0  0  0
  7  1  1  0  0  0  0
  8 11  1  0  0  0  0
 10  5  1  6  0  0  0
 10 11  1  0  0  0  0
 10  2  1  0  0  0  0
 11  6  2  0  0  0  0
 12 15  1  0  0  0  0
 12 14  1  0  0  0  0
 13 16  1  0  0  0  0
 13 17  2  0  0  0  0
 16 12  2  0  0  0  0
 17 18  1  0  0  0  0
 18 14  2  0  0  0  0
 19 26  1  6  0  0  0
 19 22  1  0  0  0  0
 20 25  1  6  0  0  0
 20 23  1  0  0  0  0
 20 19  1  0  0  0  0
 21 22  1  1  0  0  0
 21  7  1  0  0  0  0
 23 21  1  0  0  0  0
 24 25  1  0  0  0  0
 26 27  1  0  0  0  0
 28 27  1  0  0  0  0
 29 28  1  0  0  0  0
 30 29  1  0  0  0  0
 31 29  1  0  0  0  0
M  END
>  <MODEL>
2

>  <REMARK>
 VINA RESULT:      -7.0      1.535      2.439
  Name = 
  7 active torsions:
  status: ('A' for Active; 'I' for Inactive)
    1  A    between atoms: C_1  and  C_24
    2  A    between atoms: C_4  and  C_12
    3  A    between atoms: O_6  and  C_7
    4  A    between atoms: O_6  and  S_19
    5  A    between atoms: C_9  and  C_22
    6  A    between atoms: C_15  and  N_21
    7  A    between atoms: S_19  and  C_24
                            x       y       z     vdW  Elec       q    Type
                         _______ _______ _______ _____ _____    ______ ____

>  <TORSDO>
F 7

$$$$
=
 OpenBabel11052417583D

 31 34  0  0  1  0  0  0  0  0999 V2000
  188.8790  175.5750  143.1870 C   0  0  2  0  0  3  0  0  0  0  0  0
  187.5980  176.3980  142.9620 C   0  0  2  0  0  3  0  0  0  0  0  0
  186.3710  177.9880  141.4990 C   0  0  0  0  0  2  0  0  0  0  0  0
  187.6880  177.2520  141.6930 C   0  0  0  0  0  2  0  0  0  0  0  0
  188.5720  177.6800  144.9660 C   0  0  0  0  0  2  0  0  0  0  0  0
  186.0360  178.8120  142.7080 C   0  0  0  0  0  3  0  0  0  0  0  0
  190.0760  176.4140  143.4020 N   0  0  1  0  0  0  0  0  0  0  0  0
  185.9970  179.2750  145.0370 N   0  0  0  0  0  1  0  0  0  0  0  0
  189.7960  177.7190  144.0440 C   0  0  0  0  0  2  0  0  0  0  0  0
  187.3040  177.2690  144.2070 C   0  0  1  0  0  3  0  0  0  0  0  0
  186.4150  178.4650  143.9430 C   0  0  0  0  0  0  0  0  0  0  0  0
  190.5380  173.5910  140.4100 C   0  0  0  0  0  0  0  0  0  0  0  0
  189.0930  174.5580  142.1000 C   0  0  0  0  0  0  0  0  0  0  0  0
  189.5440  172.6630  140.0840 C   0  0  0  0  0  3  0  0  0  0  0  0
  191.7230  173.5720  139.7510 F   0  0  0  0  0  0  0  0  0  0  0  0
  190.3130  174.5350  141.4160 C   0  0  0  0  0  3  0  0  0  0  0  0
  188.0980  173.6210  141.7730 C   0  0  0  0  0  3  0  0  0  0  0  0
  188.3240  172.6770  140.7660 C   0  0  0  0  0  3  0  0  0  0  0  0
  192.0500  176.3960  146.2210 C   0  0  2  0  0  3  0  0  0  0  0  0
  191.2980  175.0950  146.4240 C   0  0  2  0  0  3  0  0  0  0  0  0
  191.0760  175.6430  144.1570 C   0  0  1  0  0  3  0  0  0  0  0  0
  192.1420  176.5580  144.7260 C   0  0  0  0  0  2  0  0  0  0  0  0
  190.4740  174.8690  145.2450 N   0  0  0  0  0  2  0  0  0  0  0  0
  188.9850  174.7820  147.3070 C   0  0  0  0  0  1  0  0  0  0  0  0
  190.4090  175.1710  147.6530 C   0  0  0  0  0  2  0  0  0  0  0  0
  193.3330  176.3060  146.7680 O   0  0  0  0  0  0  0  0  0  0  0  0
  194.4000  176.4980  145.4320 S   0  0  0  0  0  0  0  0  0  0  0  0
  195.3760  175.0240  145.8910 C   0  0  0  0  0  2  0  0  0  0  0  0
  195.1160  173.8340  144.9700 C   0  0  0  0  0  3  0  0  0  0  0  0
  194.0190  172.9340  145.5110 C   0  0  0  0  0  1  0  0  0  0  0  0
  194.7900  174.2860  143.5580 C   0  0  0  0  0  1  0  0  0  0  0  0
  1 13  1  6  0  0  0
  1  7  1  0  0  0  0
  2  4  1  6  0  0  0
  2  1  1  0  0  0  0
  2 10  1  0  0  0  0
  3  4  1  0  0  0  0
  3  6  1  0  0  0  0
  6 11  2  0  0  0  0
  7  9  1  1  0  0  0
  7 21  1  0  0  0  0
  9  5  1  0  0  0  0
 10  5  1  6  0  0  0
 11 10  1  0  0  0  0
 11  8  1  0  0  0  0
 12 16  1  0  0  0  0
 14 12  2  0  0  0  0
 14 18  1  0  0  0  0
 15 12  1  0  0  0  0
 16 13  2  0  0  0  0
 17 13  1  0  0  0  0
 18 17  2  0  0  0  0
 19 20  1  0  0  0  0
 19 26  1  6  0  0  0
 20 25  1  1  0  0  0
 21 22  1  1  0  0  0
 21 23  1  0  0  0  0
 22 19  1  0  0  0  0
 23 20  1  0  0  0  0
 24 25  1  0  0  0  0
 27 28  1  0  0  0  0
 27 26  1  0  0  0  0
 29 30  1  0  0  0  0
 29 28  1  0  0  0  0
 31 29  1  0  0  0  0
M  END
>  <MODEL>
3

>  <REMARK>
 VINA RESULT:      -7.0      2.618      5.004
  Name = 
  7 active torsions:
  status: ('A' for Active; 'I' for Inactive)
    1  A    between atoms: C_1  and  C_24
    2  A    between atoms: C_4  and  C_12
    3  A    between atoms: O_6  and  C_7
    4  A    between atoms: O_6  and  S_19
    5  A    between atoms: C_9  and  C_22
    6  A    between atoms: C_15  and  N_21
    7  A    between atoms: S_19  and  C_24
                            x       y       z     vdW  Elec       q    Type
                         _______ _______ _______ _____ _____    ______ ____

>  <TORSDO>
F 7

$$$$
=
 OpenBabel11052417583D

 31 34  0  0  1  0  0  0  0  0999 V2000
  188.1480  177.0380  144.8850 C   0  0  2  0  0  3  0  0  0  0  0  0
  186.9990  177.8350  145.5290 C   0  0  2  0  0  3  0  0  0  0  0  0
  184.9920  177.7860  146.9930 C   0  0  0  0  0  2  0  0  0  0  0  0
  186.0630  176.9290  146.3360 C   0  0  0  0  0  2  0  0  0  0  0  0
  186.2450  177.9250  143.0720 C   0  0  0  0  0  2  0  0  0  0  0  0
  184.2480  178.5900  145.9670 C   0  0  0  0  0  3  0  0  0  0  0  0
  187.6800  176.0380  143.9030 N   0  0  1  0  0  0  0  0  0  0  0  0
  184.0500  179.8220  143.9470 N   0  0  0  0  0  1  0  0  0  0  0  0
  186.4260  176.4100  143.2070 C   0  0  0  0  0  2  0  0  0  0  0  0
  186.2240  178.6180  144.4420 C   0  0  1  0  0  3  0  0  0  0  0  0
  184.8160  179.0110  144.8320 C   0  0  0  0  0  0  0  0  0  0  0  0
  190.8810  176.6910  147.4950 C   0  0  0  0  0  0  0  0  0  0  0  0
  189.0590  176.4310  145.9160 C   0  0  0  0  0  0  0  0  0  0  0  0
  190.7630  175.3460  147.8590 C   0  0  0  0  0  3  0  0  0  0  0  0
  191.8190  177.4720  148.0850 F   0  0  0  0  0  0  0  0  0  0  0  0
  190.0310  177.2320  146.5260 C   0  0  0  0  0  3  0  0  0  0  0  0
  188.9400  175.0810  146.2870 C   0  0  0  0  0  3  0  0  0  0  0  0
  189.7920  174.5410  147.2570 C   0  0  0  0  0  3  0  0  0  0  0  0
  191.0430  175.3720  143.6110 C   0  0  2  0  0  3  0  0  0  0  0  0
  190.4770  174.1560  142.9040 C   0  0  2  0  0  3  0  0  0  0  0  0
  188.7640  175.7540  142.9500 C   0  0  1  0  0  3  0  0  0  0  0  0
  190.0380  176.4650  143.3590 C   0  0  0  0  0  2  0  0  0  0  0  0
  189.0320  174.3190  142.8260 N   0  0  0  0  0  2  0  0  0  0  0  0
  191.9270  173.1280  144.6560 C   0  0  0  0  0  1  0  0  0  0  0  0
  190.8000  172.8850  143.6720 C   0  0  0  0  0  2  0  0  0  0  0  0
  192.2760  175.7250  143.0560 O   0  0  0  0  0  0  0  0  0  0  0  0
  192.9880  176.7940  144.2020 S   0  0  0  0  0  0  0  0  0  0  0  0
  194.6410  176.0410  144.0040 C   0  0  0  0  0  2  0  0  0  0  0  0
  195.2450  175.5870  145.3310 C   0  0  0  0  0  3  0  0  0  0  0  0
  194.3990  176.0300  146.5130 C   0  0  0  0  0  1  0  0  0  0  0  0
  195.4590  174.0850  145.3590 C   0  0  0  0  0  1  0  0  0  0  0  0
  1  2  1  0  0  0  0
  1 13  1  1  0  0  0
  2  4  1  6  0  0  0
  4  3  1  0  0  0  0
  5  9  1  0  0  0  0
  6  3  1  0  0  0  0
  7  9  1  6  0  0  0
  7  1  1  0  0  0  0
  8 11  1  0  0  0  0
 10  5  1  6  0  0  0
 10 11  1  0  0  0  0
 10  2  1  0  0  0  0
 11  6  2  0  0  0  0
 12 14  1  0  0  0  0
 12 15  1  0  0  0  0
 13 17  2  0  0  0  0
 13 16  1  0  0  0  0
 16 12  2  0  0  0  0
 17 18  1  0  0  0  0
 18 14  2  0  0  0  0
 19 26  1  6  0  0  0
 20 19  1  0  0  0  0
 20 25  1  1  0  0  0
 21 22  1  1  0  0  0
 21  7  1  0  0  0  0
 22 19  1  0  0  0  0
 23 20  1  0  0  0  0
 23 21  1  0  0  0  0
 25 24  1  0  0  0  0
 26 27  1  0  0  0  0
 28 27  1  0  0  0  0
 28 29  1  0  0  0  0
 29 31  1  0  0  0  0
 29 30  1  0  0  0  0
M  END
>  <MODEL>
4

>  <REMARK>
 VINA RESULT:      -6.9      1.670      2.163
  Name = 
  7 active torsions:
  status: ('A' for Active; 'I' for Inactive)
    1  A    between atoms: C_1  and  C_24
    2  A    between atoms: C_4  and  C_12
    3  A    between atoms: O_6  and  C_7
    4  A    between atoms: O_6  and  S_19
    5  A    between atoms: C_9  and  C_22
    6  A    between atoms: C_15  and  N_21
    7  A    between atoms: S_19  and  C_24
                            x       y       z     vdW  Elec       q    Type
                         _______ _______ _______ _____ _____    ______ ____

>  <TORSDO>
F 7

$$$$
=
 OpenBabel11052417583D

 31 34  0  0  1  0  0  0  0  0999 V2000
  188.7650  176.4640  143.7090 C   0  0  2  0  0  3  0  0  0  0  0  0
  187.5210  177.3650  143.8070 C   0  0  2  0  0  3  0  0  0  0  0  0
  185.2390  177.6740  144.7390 C   0  0  0  0  0  2  0  0  0  0  0  0
  186.4090  176.7090  144.6300 C   0  0  0  0  0  2  0  0  0  0  0  0
  187.3340  176.6600  141.3410 C   0  0  0  0  0  2  0  0  0  0  0  0
  184.7610  178.0890  143.3780 C   0  0  0  0  0  3  0  0  0  0  0  0
  188.5030  175.1890  143.0080 N   0  0  1  0  0  0  0  0  0  0  0  0
  185.0460  178.6290  141.0830 N   0  0  0  0  0  1  0  0  0  0  0  0
  187.4440  175.2700  141.9760 C   0  0  0  0  0  2  0  0  0  0  0  0
  187.0260  177.7380  142.3890 C   0  0  1  0  0  3  0  0  0  0  0  0
  185.5760  178.1660  142.3210 C   0  0  0  0  0  0  0  0  0  0  0  0
  189.4160  175.1250  147.2000 C   0  0  0  0  0  0  0  0  0  0  0  0
  189.4110  176.2460  145.0500 C   0  0  0  0  0  0  0  0  0  0  0  0
  190.5930  175.7930  147.5500 C   0  0  0  0  0  3  0  0  0  0  0  0
  188.8480  174.2540  148.0690 F   0  0  0  0  0  0  0  0  0  0  0  0
  188.8270  175.3500  145.9520 C   0  0  0  0  0  3  0  0  0  0  0  0
  190.5960  176.9120  145.4030 C   0  0  0  0  0  3  0  0  0  0  0  0
  191.1850  176.6860  146.6520 C   0  0  0  0  0  3  0  0  0  0  0  0
  190.2630  172.3350  142.2330 C   0  0  2  0  0  3  0  0  0  0  0  0
  190.2610  173.0130  140.8770 C   0  0  2  0  0  3  0  0  0  0  0  0
  189.7640  174.6760  142.4510 C   0  0  1  0  0  3  0  0  0  0  0  0
  190.2420  173.4660  143.2290 C   0  0  0  0  0  2  0  0  0  0  0  0
  189.6420  174.3220  141.0350 N   0  0  0  0  0  2  0  0  0  0  0  0
  188.4210  173.0620  139.1910 C   0  0  0  0  0  1  0  0  0  0  0  0
  189.4690  172.2000  139.8680 C   0  0  0  0  0  2  0  0  0  0  0  0
  191.4290  171.5820  142.3970 O   0  0  0  0  0  0  0  0  0  0  0  0
  191.8380  171.7520  144.0600 S   0  0  0  0  0  0  0  0  0  0  0  0
  193.5510  172.2550  143.6740 C   0  0  0  0  0  2  0  0  0  0  0  0
  193.9310  173.5900  144.3110 C   0  0  0  0  0  3  0  0  0  0  0  0
  193.6340  174.7580  143.3870 C   0  0  0  0  0  1  0  0  0  0  0  0
  193.2450  173.7800  145.6520 C   0  0  0  0  0  1  0  0  0  0  0  0
  1  2  1  0  0  0  0
  1 13  1  1  0  0  0
  2  4  1  6  0  0  0
  4  3  1  0  0  0  0
  5  9  1  0  0  0  0
  6  3  1  0  0  0  0
  7  9  1  6  0  0  0
  7  1  1  0  0  0  0
  8 11  1  0  0  0  0
 10  5  1  6  0  0  0
 10  2  1  0  0  0  0
 11 10  1  0  0  0  0
 11  6  2  0  0  0  0
 12 14  1  0  0  0  0
 12 15  1  0  0  0  0
 13 17  2  0  0  0  0
 13 16  1  0  0  0  0
 16 12  2  0  0  0  0
 17 18  1  0  0  0  0
 18 14  2  0  0  0  0
 19 26  1  1  0  0  0
 19 22  1  0  0  0  0
 20 25  1  6  0  0  0
 20 23  1  0  0  0  0
 20 19  1  0  0  0  0
 21  7  1  0  0  0  0
 21 22  1  1  0  0  0
 23 21  1  0  0  0  0
 24 25  1  0  0  0  0
 26 27  1  0  0  0  0
 28 27  1  0  0  0  0
 28 29  1  0  0  0  0
 29 31  1  0  0  0  0
 30 29  1  0  0  0  0
M  END
>  <MODEL>
5

>  <REMARK>
 VINA RESULT:      -6.9      1.666      2.068
  Name = 
  7 active torsions:
  status: ('A' for Active; 'I' for Inactive)
    1  A    between atoms: C_1  and  C_24
    2  A    between atoms: C_4  and  C_12
    3  A    between atoms: O_6  and  C_7
    4  A    between atoms: O_6  and  S_19
    5  A    between atoms: C_9  and  C_22
    6  A    between atoms: C_15  and  N_21
    7  A    between atoms: S_19  and  C_24
                            x       y       z     vdW  Elec       q    Type
                         _______ _______ _______ _____ _____    ______ ____

>  <TORSDO>
F 7

$$$$
=
 OpenBabel11052417583D

 31 34  0  0  1  0  0  0  0  0999 V2000
  191.6320  175.0670  143.8720 C   0  0  2  0  0  3  0  0  0  0  0  0
  191.4610  174.1550  142.6430 C   0  0  2  0  0  3  0  0  0  0  0  0
  192.0780  173.7070  140.2780 C   0  0  0  0  0  2  0  0  0  0  0  0
  192.2380  174.6830  141.4330 C   0  0  0  0  0  2  0  0  0  0  0  0
  189.1140  175.2010  142.7160 C   0  0  0  0  0  2  0  0  0  0  0  0
  190.6270  173.4870  139.9620 C   0  0  0  0  0  3  0  0  0  0  0  0
  191.0910  176.4270  143.6630 N   0  0  1  0  0  0  0  0  0  0  0  0
  188.3260  173.2780  140.5110 N   0  0  0  0  0  1  0  0  0  0  0  0
  189.9450  176.4880  142.7270 C   0  0  0  0  0  2  0  0  0  0  0  0
  189.9580  173.9840  142.3150 C   0  0  1  0  0  3  0  0  0  0  0  0
  189.6680  173.5640  140.8910 C   0  0  0  0  0  0  0  0  0  0  0  0
  195.1810  176.2500  144.5080 C   0  0  0  0  0  0  0  0  0  0  0  0
  193.0540  175.0950  144.3600 C   0  0  0  0  0  0  0  0  0  0  0  0
  195.7030  175.2000  145.2700 C   0  0  0  0  0  3  0  0  0  0  0  0
  195.9570  177.3210  144.2110 F   0  0  0  0  0  0  0  0  0  0  0  0
  193.8590  176.1970  144.0550 C   0  0  0  0  0  3  0  0  0  0  0  0
  193.5800  174.0440  145.1300 C   0  0  0  0  0  3  0  0  0  0  0  0
  194.9020  174.0980  145.5830 C   0  0  0  0  0  3  0  0  0  0  0  0
  188.5780  176.8720  145.9700 C   0  0  2  0  0  3  0  0  0  0  0  0
  189.6200  176.2080  146.8490 C   0  0  2  0  0  3  0  0  0  0  0  0
  190.7570  177.0180  144.9670 C   0  0  1  0  0  3  0  0  0  0  0  0
  189.3720  177.6320  144.9400 C   0  0  0  0  0  2  0  0  0  0  0  0
  190.8290  176.0400  146.0550 N   0  0  0  0  0  2  0  0  0  0  0  0
  189.4800  173.7740  146.3120 C   0  0  0  0  0  1  0  0  0  0  0  0
  189.1370  174.8490  147.3260 C   0  0  0  0  0  2  0  0  0  0  0  0
  187.8040  177.7610  146.7230 O   0  0  0  0  0  0  0  0  0  0  0  0
  186.2340  177.0580  146.7630 S   0  0  0  0  0  0  0  0  0  0  0  0
  185.4260  178.6300  146.3040 C   0  0  0  0  0  2  0  0  0  0  0  0
  184.9970  178.6670  144.8380 C   0  0  0  0  0  3  0  0  0  0  0  0
  185.5200  179.9050  144.1310 C   0  0  0  0  0  1  0  0  0  0  0  0
  185.4260  177.4090  144.1040 C   0  0  0  0  0  1  0  0  0  0  0  0
  1 13  1  6  0  0  0
  2  4  1  6  0  0  0
  2  1  1  0  0  0  0
  3  4  1  0  0  0  0
  5  9  1  0  0  0  0
  6  3  1  0  0  0  0
  6 11  2  0  0  0  0
  7  9  1  6  0  0  0
  7  1  1  0  0  0  0
  7 21  1  0  0  0  0
  8 11  1  0  0  0  0
 10  2  1  0  0  0  0
 10  5  1  6  0  0  0
 11 10  1  0  0  0  0
 12 14  1  0  0  0  0
 13 17  2  0  0  0  0
 14 18  2  0  0  0  0
 15 12  1  0  0  0  0
 16 13  1  0  0  0  0
 16 12  2  0  0  0  0
 17 18  1  0  0  0  0
 19 26  1  1  0  0  0
 19 20  1  0  0  0  0
 20 25  1  6  0  0  0
 21 22  1  6  0  0  0
 21 23  1  0  0  0  0
 22 19  1  0  0  0  0
 23 20  1  0  0  0  0
 24 25  1  0  0  0  0
 26 27  1  0  0  0  0
 28 27  1  0  0  0  0
 29 28  1  0  0  0  0
 30 29  1  0  0  0  0
 31 29  1  0  0  0  0
M  END
>  <MODEL>
6

>  <REMARK>
 VINA RESULT:      -6.7      2.929      6.699
  Name = 
  7 active torsions:
  status: ('A' for Active; 'I' for Inactive)
    1  A    between atoms: C_1  and  C_24
    2  A    between atoms: C_4  and  C_12
    3  A    between atoms: O_6  and  C_7
    4  A    between atoms: O_6  and  S_19
    5  A    between atoms: C_9  and  C_22
    6  A    between atoms: C_15  and  N_21
    7  A    between atoms: S_19  and  C_24
                            x       y       z     vdW  Elec       q    Type
                         _______ _______ _______ _____ _____    ______ ____

>  <TORSDO>
F 7

$$$$
=
 OpenBabel11052417583D

 31 34  0  0  1  0  0  0  0  0999 V2000
  188.9680  176.2960  144.0380 C   0  0  2  0  0  3  0  0  0  0  0  0
  187.7490  177.2100  144.2570 C   0  0  2  0  0  3  0  0  0  0  0  0
  185.5280  177.5000  145.3330 C   0  0  0  0  0  2  0  0  0  0  0  0
  186.6710  176.5240  145.1040 C   0  0  0  0  0  2  0  0  0  0  0  0
  187.4120  176.6520  141.7700 C   0  0  0  0  0  2  0  0  0  0  0  0
  184.9830  178.0000  144.0270 C   0  0  0  0  0  3  0  0  0  0  0  0
  188.6430  175.0680  143.2810 N   0  0  1  0  0  0  0  0  0  0  0  0
  185.1500  178.6690  141.7550 N   0  0  0  0  0  1  0  0  0  0  0  0
  187.5310  175.2260  142.3170 C   0  0  0  0  0  2  0  0  0  0  0  0
  187.1820  177.6720  142.8930 C   0  0  1  0  0  3  0  0  0  0  0  0
  185.7390  178.1260  142.9320 C   0  0  0  0  0  0  0  0  0  0  0  0
  191.6120  176.3060  146.7600 C   0  0  0  0  0  0  0  0  0  0  0  0
  189.6830  175.9910  145.3260 C   0  0  0  0  0  0  0  0  0  0  0  0
  191.0390  175.4680  147.7220 C   0  0  0  0  0  3  0  0  0  0  0  0
  192.8240  176.8680  146.9890 F   0  0  0  0  0  0  0  0  0  0  0  0
  190.9350  176.5670  145.5660 C   0  0  0  0  0  3  0  0  0  0  0  0
  189.1070  175.1540  146.2960 C   0  0  0  0  0  3  0  0  0  0  0  0
  189.7860  174.8930  147.4910 C   0  0  0  0  0  3  0  0  0  0  0  0
  190.2920  172.2390  142.2220 C   0  0  2  0  0  3  0  0  0  0  0  0
  190.2380  173.0100  140.9180 C   0  0  2  0  0  3  0  0  0  0  0  0
  189.8620  174.5700  142.6260 C   0  0  1  0  0  3  0  0  0  0  0  0
  190.3480  173.2980  143.2920 C   0  0  0  0  0  2  0  0  0  0  0  0
  189.6600  174.3180  141.1970 N   0  0  0  0  0  2  0  0  0  0  0  0
  188.3590  173.2320  139.2890 C   0  0  0  0  0  1  0  0  0  0  0  0
  189.3760  172.2860  139.8980 C   0  0  0  0  0  2  0  0  0  0  0  0
  191.4450  171.4520  142.2730 O   0  0  0  0  0  0  0  0  0  0  0  0
  192.7310  172.5640  142.5380 S   0  0  0  0  0  0  0  0  0  0  0  0
  193.6680  171.3700  143.5530 C   0  0  0  0  0  2  0  0  0  0  0  0
  193.6690  171.7290  145.0370 C   0  0  0  0  0  3  0  0  0  0  0  0
  194.9460  171.2770  145.7240 C   0  0  0  0  0  1  0  0  0  0  0  0
  193.4440  173.2160  145.2480 C   0  0  0  0  0  1  0  0  0  0  0  0
  1  2  1  0  0  0  0
  1 13  1  1  0  0  0
  2  4  1  6  0  0  0
  4  3  1  0  0  0  0
  5  9  1  0  0  0  0
  6  3  1  0  0  0  0
  7  9  1  6  0  0  0
  7  1  1  0  0  0  0
  8 11  1  0  0  0  0
 10  5  1  6  0  0  0
 10 11  1  0  0  0  0
 10  2  1  0  0  0  0
 11  6  2  0  0  0  0
 12 15  1  0  0  0  0
 12 14  1  0  0  0  0
 13 16  1  0  0  0  0
 13 17  2  0  0  0  0
 16 12  2  0  0  0  0
 17 18  1  0  0  0  0
 18 14  2  0  0  0  0
 19 26  1  6  0  0  0
 19 22  1  0  0  0  0
 20 25  1  6  0  0  0
 20 23  1  0  0  0  0
 20 19  1  0  0  0  0
 21  7  1  0  0  0  0
 21 22  1  1  0  0  0
 23 21  1  0  0  0  0
 24 25  1  0  0  0  0
 26 27  1  0  0  0  0
 27 28  1  0  0  0  0
 28 29  1  0  0  0  0
 29 31  1  0  0  0  0
 29 30  1  0  0  0  0
M  END
>  <MODEL>
7

>  <REMARK>
 VINA RESULT:      -6.7      1.431      1.787
  Name = 
  7 active torsions:
  status: ('A' for Active; 'I' for Inactive)
    1  A    between atoms: C_1  and  C_24
    2  A    between atoms: C_4  and  C_12
    3  A    between atoms: O_6  and  C_7
    4  A    between atoms: O_6  and  S_19
    5  A    between atoms: C_9  and  C_22
    6  A    between atoms: C_15  and  N_21
    7  A    between atoms: S_19  and  C_24
                            x       y       z     vdW  Elec       q    Type
                         _______ _______ _______ _____ _____    ______ ____

>  <TORSDO>
F 7

$$$$
=
 OpenBabel11052417583D

 31 34  0  0  1  0  0  0  0  0999 V2000
  190.4050  173.3160  143.6470 C   0  0  2  0  0  3  0  0  0  0  0  0
  190.8760  171.8530  143.7390 C   0  0  2  0  0  3  0  0  0  0  0  0
  192.7520  170.2920  144.2010 C   0  0  0  0  0  2  0  0  0  0  0  0
  192.3700  171.7570  144.0630 C   0  0  0  0  0  2  0  0  0  0  0  0
  190.5270  172.0200  141.1970 C   0  0  0  0  0  2  0  0  0  0  0  0
  192.3970  169.5280  142.9590 C   0  0  0  0  0  3  0  0  0  0  0  0
  191.0590  174.0660  142.5540 N   0  0  1  0  0  0  0  0  0  0  0  0
  191.0640  169.0410  141.0550 N   0  0  0  0  0  1  0  0  0  0  0  0
  191.4420  173.2340  141.3900 C   0  0  0  0  0  2  0  0  0  0  0  0
  190.5350  171.1040  142.4280 C   0  0  1  0  0  3  0  0  0  0  0  0
  191.3640  169.8620  142.1790 C   0  0  0  0  0  0  0  0  0  0  0  0
  189.5510  174.5980  147.1150 C   0  0  0  0  0  0  0  0  0  0  0  0
  190.5190  174.0290  144.9660 C   0  0  0  0  0  0  0  0  0  0  0  0
  190.7000  175.3230  147.4450 C   0  0  0  0  0  3  0  0  0  0  0  0
  188.5250  174.5180  147.9960 F   0  0  0  0  0  0  0  0  0  0  0  0
  189.4620  173.9510  145.8790 C   0  0  0  0  0  3  0  0  0  0  0  0
  191.6740  174.7550  145.3030 C   0  0  0  0  0  3  0  0  0  0  0  0
  191.7620  175.4010  146.5400 C   0  0  0  0  0  3  0  0  0  0  0  0
  188.2490  175.8660  143.3930 C   0  0  2  0  0  3  0  0  0  0  0  0
  189.2660  176.9880  143.3350 C   0  0  2  0  0  3  0  0  0  0  0  0
  190.1960  175.1890  142.1570 C   0  0  1  0  0  3  0  0  0  0  0  0
  188.7370  174.8530  142.3900 C   0  0  0  0  0  2  0  0  0  0  0  0
  190.5260  176.4230  142.8730 N   0  0  0  0  0  2  0  0  0  0  0  0
  188.2060  177.4750  145.5420 C   0  0  0  0  0  1  0  0  0  0  0  0
  189.4650  177.6080  144.7070 C   0  0  0  0  0  2  0  0  0  0  0  0
  186.9870  176.3350  143.0170 O   0  0  0  0  0  0  0  0  0  0  0  0
  187.1740  176.8570  141.3880 S   0  0  0  0  0  0  0  0  0  0  0  0
  186.2360  178.3960  141.6840 C   0  0  0  0  0  2  0  0  0  0  0  0
  185.4280  178.3540  142.9790 C   0  0  0  0  0  3  0  0  0  0  0  0
  185.6670  179.5890  143.8310 C   0  0  0  0  0  1  0  0  0  0  0  0
  183.9460  178.1730  142.7030 C   0  0  0  0  0  1  0  0  0  0  0  0
  1  2  1  0  0  0  0
  1 13  1  1  0  0  0
  2  4  1  6  0  0  0
  4  3  1  0  0  0  0
  5  9  1  0  0  0  0
  6  3  1  0  0  0  0
  7  9  1  6  0  0  0
  7  1  1  0  0  0  0
  8 11  1  0  0  0  0
 10  5  1  6  0  0  0
 10  2  1  0  0  0  0
 11 10  1  0  0  0  0
 11  6  2  0  0  0  0
 12 14  1  0  0  0  0
 12 15  1  0  0  0  0
 13 17  2  0  0  0  0
 13 16  1  0  0  0  0
 16 12  2  0  0  0  0
 17 18  1  0  0  0  0
 18 14  2  0  0  0  0
 19 26  1  6  0  0  0
 20 19  1  0  0  0  0
 20 25  1  1  0  0  0
 21 22  1  1  0  0  0
 21  7  1  0  0  0  0
 21 23  1  0  0  0  0
 22 19  1  0  0  0  0
 23 20  1  0  0  0  0
 25 24  1  0  0  0  0
 27 28  1  0  0  0  0
 27 26  1  0  0  0  0
 28 29  1  0  0  0  0
 29 30  1  0  0  0  0
 31 29  1  0  0  0  0
M  END
>  <MODEL>
8

>  <REMARK>
 VINA RESULT:      -6.5      2.836      6.907
  Name = 
  7 active torsions:
  status: ('A' for Active; 'I' for Inactive)
    1  A    between atoms: C_1  and  C_24
    2  A    between atoms: C_4  and  C_12
    3  A    between atoms: O_6  and  C_7
    4  A    between atoms: O_6  and  S_19
    5  A    between atoms: C_9  and  C_22
    6  A    between atoms: C_15  and  N_21
    7  A    between atoms: S_19  and  C_24
                            x       y       z     vdW  Elec       q    Type
                         _______ _______ _______ _____ _____    ______ ____

>  <TORSDO>
F 7

$$$$
=
 OpenBabel11052417583D

 31 34  0  0  1  0  0  0  0  0999 V2000
  188.6600  176.7070  143.6070 C   0  0  2  0  0  3  0  0  0  0  0  0
  187.3630  177.5330  143.5400 C   0  0  2  0  0  3  0  0  0  0  0  0
  184.9780  177.7270  144.2070 C   0  0  0  0  0  2  0  0  0  0  0  0
  186.2060  176.8320  144.2580 C   0  0  0  0  0  2  0  0  0  0  0  0
  187.4900  176.7560  141.0920 C   0  0  0  0  0  2  0  0  0  0  0  0
  184.6300  178.0770  142.7900 C   0  0  0  0  0  3  0  0  0  0  0  0
  188.5500  175.4010  142.9230 N   0  0  1  0  0  0  0  0  0  0  0  0
  185.1350  178.5750  140.5240 N   0  0  0  0  0  1  0  0  0  0  0  0
  187.6100  175.3910  141.7790 C   0  0  0  0  0  2  0  0  0  0  0  0
  187.0070  177.8390  142.0650 C   0  0  1  0  0  3  0  0  0  0  0  0
  185.5510  178.1770  141.8260 C   0  0  0  0  0  0  0  0  0  0  0  0
  189.2820  175.2680  147.0630 C   0  0  0  0  0  0  0  0  0  0  0  0
  189.1650  176.5630  145.0160 C   0  0  0  0  0  0  0  0  0  0  0  0
  190.1030  176.2440  147.6380 C   0  0  0  0  0  3  0  0  0  0  0  0
  188.9420  174.1650  147.7740 F   0  0  0  0  0  0  0  0  0  0  0  0
  188.8150  175.4280  145.7550 C   0  0  0  0  0  3  0  0  0  0  0  0
  189.9930  177.5390  145.5950 C   0  0  0  0  0  3  0  0  0  0  0  0
  190.4600  177.3790  146.9040 C   0  0  0  0  0  3  0  0  0  0  0  0
  191.9170  175.7520  143.5440 C   0  0  2  0  0  3  0  0  0  0  0  0
  191.7740  174.2540  143.7330 C   0  0  2  0  0  3  0  0  0  0  0  0
  189.8930  174.9520  142.5230 C   0  0  1  0  0  3  0  0  0  0  0  0
  190.8690  176.1120  142.5240 C   0  0  0  0  0  2  0  0  0  0  0  0
  190.4050  173.8910  143.3930 N   0  0  0  0  0  2  0  0  0  0  0  0
  192.9520  174.8890  145.8410 C   0  0  0  0  0  1  0  0  0  0  0  0
  192.0570  173.8620  145.1740 C   0  0  0  0  0  2  0  0  0  0  0  0
  193.1870  176.0600  143.0480 O   0  0  0  0  0  0  0  0  0  0  0  0
  193.5270  174.8240  141.9010 S   0  0  0  0  0  0  0  0  0  0  0  0
  195.3260  175.1290  141.9780 C   0  0  0  0  0  2  0  0  0  0  0  0
  195.7690  175.7080  143.3200 C   0  0  0  0  0  3  0  0  0  0  0  0
  196.2740  174.6260  144.2590 C   0  0  0  0  0  1  0  0  0  0  0  0
  196.8170  176.7910  143.1380 C   0  0  0  0  0  1  0  0  0  0  0  0
  1 13  1  1  0  0  0
  2  1  1  0  0  0  0
  2  4  1  6  0  0  0
  3  4  1  0  0  0  0
  5  9  1  0  0  0  0
  6  3  1  0  0  0  0
  7  9  1  6  0  0  0
  7  1  1  0  0  0  0
  8 11  1  0  0  0  0
 10  5  1  6  0  0  0
 10  2  1  0  0  0  0
 11 10  1  0  0  0  0
 11  6  2  0  0  0  0
 12 14  1  0  0  0  0
 12 15  1  0  0  0  0
 13 17  2  0  0  0  0
 13 16  1  0  0  0  0
 16 12  2  0  0  0  0
 17 18  1  0  0  0  0
 18 14  2  0  0  0  0
 19 26  1  6  0  0  0
 19 20  1  0  0  0  0
 20 25  1  1  0  0  0
 21 22  1  1  0  0  0
 21  7  1  0  0  0  0
 21 23  1  0  0  0  0
 22 19  1  0  0  0  0
 23 20  1  0  0  0  0
 25 24  1  0  0  0  0
 27 28  1  0  0  0  0
 27 26  1  0  0  0  0
 28 29  1  0  0  0  0
 29 30  1  0  0  0  0
 31 29  1  0  0  0  0
M  END
>  <MODEL>
9

>  <REMARK>
 VINA RESULT:      -6.4      2.119      3.324
  Name = 
  7 active torsions:
  status: ('A' for Active; 'I' for Inactive)
    1  A    between atoms: C_1  and  C_24
    2  A    between atoms: C_4  and  C_12
    3  A    between atoms: O_6  and  C_7
    4  A    between atoms: O_6  and  S_19
    5  A    between atoms: C_9  and  C_22
    6  A    between atoms: C_15  and  N_21
    7  A    between atoms: S_19  and  C_24
                            x       y       z     vdW  Elec       q    Type
                         _______ _______ _______ _____ _____    ______ ____

>  <TORSDO>
F 7

$$$$
