=
 OpenBabel11052420333D

 34 39  0  0  1  0  0  0  0  0999 V2000
  194.1910  173.4740  144.6870 C   0  0  2  0  0  3  0  0  0  0  0  0
  197.2830  171.6160  145.4690 C   0  0  0  0  0  3  0  0  0  0  0  0
  197.0540  173.5150  144.0270 C   0  0  0  0  0  2  0  0  0  0  0  0
  194.5360  176.0440  144.2680 C   0  0  0  0  0  0  0  0  0  0  0  0
  195.6180  176.7890  143.9620 N   0  0  0  0  0  0  0  0  0  0  0  0
  193.2860  176.5990  144.6590 N   0  0  0  0  0  1  0  0  0  0  0  0
  196.2220  174.7060  144.0450 N   0  0  0  0  0  0  0  0  0  0  0  0
  194.9130  174.7140  144.3130 C   0  0  0  0  0  0  0  0  0  0  0  0
  196.6320  175.9430  143.8210 N   0  0  0  0  0  0  0  0  0  0  0  0
  197.0440  170.4750  146.3590 C   0  0  0  0  0  2  0  0  0  0  0  0
  195.9250  169.7880  146.6000 C   0  0  0  0  0  0  0  0  0  0  0  0
  194.6350  170.0380  145.9350 C   0  0  0  0  0  3  0  0  0  0  0  0
  196.4240  172.4350  144.8690 C   0  0  0  0  0  0  0  0  0  0  0  0
  194.2170  171.1130  145.2740 C   0  0  0  0  0  3  0  0  0  0  0  0
  194.9310  172.3730  144.9890 C   0  0  0  0  0  0  0  0  0  0  0  0
  196.0000  168.6820  147.5140 N   0  0  0  0  0  0  0  0  0  0  0  0
  194.8580  168.1660  148.0840 O   0  0  0  0  0  0  0  0  0  0  0  0
  197.1020  168.1670  147.7960 O   0  0  0  0  0  0  0  0  0  0  0  0
  192.0160  173.5540  143.6020 N   0  0  0  0  0  0  0  0  0  0  0  0
  192.7130  173.4020  144.6810 C   0  0  0  0  0  3  0  0  0  0  0  0
  190.5620  173.4660  143.6280 C   0  0  0  0  0  2  0  0  0  0  0  0
  189.0120  175.5300  146.4970 C   0  0  0  0  0  2  0  0  0  0  0  0
  188.7860  175.2570  143.5260 C   0  0  0  0  0  2  0  0  0  0  0  0
  186.4450  178.1870  145.6470 C   0  0  0  0  0  0  0  0  0  0  0  0
  187.2850  177.3260  146.3620 C   0  0  0  0  0  3  0  0  0  0  0  0
  188.0630  176.3760  145.6950 C   0  0  0  0  0  0  0  0  0  0  0  0
  187.1560  177.1440  143.5760 C   0  0  0  0  0  3  0  0  0  0  0  0
  188.0170  176.3000  144.2850 C   0  0  0  0  0  0  0  0  0  0  0  0
  186.3740  178.0830  144.2520 C   0  0  0  0  0  3  0  0  0  0  0  0
  189.9270  174.6560  144.3490 C   0  0  1  0  0  3  0  0  0  0  0  0
  189.4420  174.2760  145.7440 C   0  0  0  0  0  2  0  0  0  0  0  0
  185.5830  179.1700  146.3750 C   0  0  2  0  0  3  0  0  0  0  0  0
  184.8390  178.5040  147.3690 O   0  0  0  0  0  0  0  0  0  0  0  0
  184.1480  178.8480  146.1960 C   0  0  0  0  0  2  0  0  0  0  0  0
  1 20  1  6  0  0  0
  1 15  1  0  0  0  0
  2 10  1  0  0  0  0
  3  7  1  0  0  0  0
  3 13  1  0  0  0  0
  4  8  2  0  0  0  0
  4  6  1  0  0  0  0
  5  4  1  0  0  0  0
  7  8  1  0  0  0  0
  8  1  1  0  0  0  0
  9  5  2  0  0  0  0
  9  7  1  0  0  0  0
 10 11  1  0  0  0  0
 11 16  1  0  0  0  0
 12 11  2  0  0  0  0
 13 15  1  0  0  0  0
 13  2  2  0  0  0  0
 14 12  1  0  0  0  0
 15 14  2  0  0  0  0
 16 18  2  0  0  0  0
 16 17  2  0  0  0  0
 19 21  1  0  0  0  0
 19 20  2  0  0  0  0
 23 28  1  0  0  0  0
 23 30  1  0  0  0  0
 24 25  1  0  0  0  0
 26 25  2  0  0  0  0
 26 22  1  0  0  0  0
 27 29  1  0  0  0  0
 27 28  2  0  0  0  0
 28 26  1  0  0  0  0
 29 24  2  0  0  0  0
 30 21  1  6  0  0  0
 30 31  1  0  0  0  0
 31 22  1  0  0  0  0
 32 24  1  6  0  0  0
 32 33  1  0  0  0  0
 34 32  1  0  0  0  0
 34 33  1  0  0  0  0
M  END
>  <MODEL>
1

>  <REMARK>
 VINA RESULT:      -8.4      0.000      0.000
  Name = 
  5 active torsions:
  status: ('A' for Active; 'I' for Inactive)
    1  A    between atoms: C_1  and  C_9
    2  A    between atoms: N_3  and  C_25
    3  A    between atoms: C_7  and  C_11
    4  A    between atoms: N_8  and  C_18
    5  A    between atoms: C_18  and  C_30
                            x       y       z     vdW  Elec       q    Type
                         _______ _______ _______ _____ _____    ______ ____

>  <TORSDO>
F 5

$$$$
=
 OpenBabel11052420333D

 34 39  0  0  1  0  0  0  0  0999 V2000
  193.6770  174.7750  143.6520 C   0  0  2  0  0  3  0  0  0  0  0  0
  193.2750  174.4600  139.9960 C   0  0  0  0  0  3  0  0  0  0  0  0
  194.9810  175.6620  141.1720 C   0  0  0  0  0  2  0  0  0  0  0  0
  196.1680  174.9380  144.4680 C   0  0  0  0  0  0  0  0  0  0  0  0
  197.3220  175.2490  143.8430 N   0  0  0  0  0  0  0  0  0  0  0  0
  196.1080  174.3860  145.7780 N   0  0  0  0  0  1  0  0  0  0  0  0
  195.6980  175.4450  142.4180 N   0  0  0  0  0  0  0  0  0  0  0  0
  195.1280  175.0710  143.5670 C   0  0  0  0  0  0  0  0  0  0  0  0
  197.0030  175.5650  142.5940 N   0  0  0  0  0  0  0  0  0  0  0  0
  192.0870  173.6830  139.6260 C   0  0  0  0  0  3  0  0  0  0  0  0
  190.9740  173.4270  140.3160 C   0  0  0  0  0  0  0  0  0  0  0  0
  190.6890  173.9520  141.6630 C   0  0  0  0  0  3  0  0  0  0  0  0
  193.6840  174.8940  141.1850 C   0  0  2  0  0  3  0  0  0  0  0  0
  191.5220  174.4540  142.5690 C   0  0  0  0  0  3  0  0  0  0  0  0
  192.9820  174.6580  142.4890 C   0  0  0  0  0  0  0  0  0  0  0  0
  189.9500  172.6490  139.6750 N   0  0  0  0  0  0  0  0  0  0  0  0
  188.6440  172.7170  140.1070 O   0  0  0  0  0  0  0  0  0  0  0  0
  190.2290  171.9070  138.7100 O   0  0  0  0  0  0  0  0  0  0  0  0
  192.7800  175.6890  145.7190 N   0  0  0  0  0  0  0  0  0  0  0  0
  192.9790  174.6670  144.9530 C   0  0  0  0  0  3  0  0  0  0  0  0
  192.0800  175.5510  146.9890 C   0  0  0  0  0  2  0  0  0  0  0  0
  188.2340  175.5380  147.3170 C   0  0  0  0  0  2  0  0  0  0  0  0
  190.3520  176.6980  145.5500 C   0  0  0  0  0  2  0  0  0  0  0  0
  186.1910  177.5940  144.8740 C   0  0  0  0  0  0  0  0  0  0  0  0
  186.5500  176.7160  145.9030 C   0  0  0  0  0  3  0  0  0  0  0  0
  187.8930  176.4200  146.1490 C   0  0  0  0  0  0  0  0  0  0  0  0
  188.5350  177.8860  144.3210 C   0  0  0  0  0  3  0  0  0  0  0  0
  188.8990  177.0300  145.3660 C   0  0  0  0  0  0  0  0  0  0  0  0
  187.1890  178.1670  144.0760 C   0  0  0  0  0  3  0  0  0  0  0  0
  190.6380  176.0570  146.9090 C   0  0  1  0  0  3  0  0  0  0  0  0
  189.6350  174.9470  147.2020 C   0  0  0  0  0  2  0  0  0  0  0  0
  184.7480  177.8690  144.5910 C   0  0  2  0  0  3  0  0  0  0  0  0
  184.5830  179.2230  144.2360 O   0  0  0  0  0  0  0  0  0  0  0  0
  184.2050  178.8680  145.5410 C   0  0  0  0  0  2  0  0  0  0  0  0
  1 20  1  1  0  0  0
  3 13  1  0  0  0  0
  3  7  1  0  0  0  0
  4  6  1  0  0  0  0
  5  4  1  0  0  0  0
  7  9  1  0  0  0  0
  7  8  1  0  0  0  0
  8  1  1  0  0  0  0
  8  4  2  0  0  0  0
  9  5  2  0  0  0  0
 10  2  2  0  0  0  0
 10 11  1  0  0  0  0
 11 12  2  0  0  0  0
 12 14  1  0  0  0  0
 13  2  1  1  0  0  0
 13 15  1  0  0  0  0
 15 14  2  0  0  0  0
 15  1  1  0  0  0  0
 16 17  2  0  0  0  0
 16 11  1  0  0  0  0
 18 16  2  0  0  0  0
 19 21  1  0  0  0  0
 20 19  2  0  0  0  0
 23 30  1  0  0  0  0
 24 25  1  0  0  0  0
 25 26  2  0  0  0  0
 26 22  1  0  0  0  0
 27 28  2  0  0  0  0
 28 23  1  0  0  0  0
 28 26  1  0  0  0  0
 29 27  1  0  0  0  0
 29 24  2  0  0  0  0
 30 21  1  6  0  0  0
 30 31  1  0  0  0  0
 31 22  1  0  0  0  0
 32 24  1  1  0  0  0
 32 34  1  0  0  0  0
 33 32  1  0  0  0  0
 33 34  1  0  0  0  0
M  END
>  <MODEL>
2

>  <REMARK>
 VINA RESULT:      -8.2      3.810      4.954
  Name = 
  5 active torsions:
  status: ('A' for Active; 'I' for Inactive)
    1  A    between atoms: C_1  and  C_9
    2  A    between atoms: N_3  and  C_25
    3  A    between atoms: C_7  and  C_11
    4  A    between atoms: N_8  and  C_18
    5  A    between atoms: C_18  and  C_30
                            x       y       z     vdW  Elec       q    Type
                         _______ _______ _______ _____ _____    ______ ____

>  <TORSDO>
F 5

$$$$
=
 OpenBabel11052420333D

 34 39  0  0  1  0  0  0  0  0999 V2000
  194.4250  174.8700  142.7510 C   0  0  2  0  0  3  0  0  0  0  0  0
  192.7980  174.1380  139.5200 C   0  0  0  0  0  3  0  0  0  0  0  0
  194.8630  175.2970  139.8780 C   0  0  0  0  0  2  0  0  0  0  0  0
  197.0500  174.8780  142.6770 C   0  0  0  0  0  0  0  0  0  0  0  0
  197.9410  174.9870  141.6700 N   0  0  0  0  0  0  0  0  0  0  0  0
  197.4050  174.5050  144.0030 N   0  0  0  0  0  1  0  0  0  0  0  0
  195.9450  175.1670  140.8390 N   0  0  0  0  0  0  0  0  0  0  0  0
  195.7760  175.0010  142.1540 C   0  0  0  0  0  0  0  0  0  0  0  0
  197.2370  175.1740  140.5600 N   0  0  0  0  0  0  0  0  0  0  0  0
  191.5140  173.4460  139.6810 C   0  0  0  0  0  3  0  0  0  0  0  0
  190.6870  173.3950  140.7260 C   0  0  0  0  0  0  0  0  0  0  0  0
  190.9010  174.1120  141.9950 C   0  0  0  0  0  3  0  0  0  0  0  0
  193.6060  174.6740  140.4300 C   0  0  2  0  0  3  0  0  0  0  0  0
  192.0170  174.6370  142.4920 C   0  0  0  0  0  3  0  0  0  0  0  0
  193.3730  174.6780  141.9110 C   0  0  0  0  0  0  0  0  0  0  0  0
  189.4660  172.6510  140.5810 N   0  0  0  0  0  0  0  0  0  0  0  0
  188.9230  172.4310  139.3340 O   0  0  0  0  0  0  0  0  0  0  0  0
  188.8850  172.1840  141.5830 O   0  0  0  0  0  0  0  0  0  0  0  0
  194.1550  176.1460  144.8040 N   0  0  0  0  0  0  0  0  0  0  0  0
  194.2020  174.9990  144.2090 C   0  0  0  0  0  3  0  0  0  0  0  0
  193.9230  176.2390  146.2390 C   0  0  0  0  0  2  0  0  0  0  0  0
  190.4240  175.3990  147.6340 C   0  0  0  0  0  2  0  0  0  0  0  0
  191.6520  176.8960  145.3530 C   0  0  0  0  0  2  0  0  0  0  0  0
  187.3760  176.8170  145.8800 C   0  0  0  0  0  0  0  0  0  0  0  0
  188.1930  176.0980  146.7600 C   0  0  0  0  0  3  0  0  0  0  0  0
  189.5830  176.1180  146.6160 C   0  0  0  0  0  0  0  0  0  0  0  0
  189.3470  177.5850  144.6940 C   0  0  0  0  0  3  0  0  0  0  0  0
  190.1690  176.8900  145.5870 C   0  0  0  0  0  0  0  0  0  0  0  0
  187.9580  177.5500  144.8390 C   0  0  0  0  0  3  0  0  0  0  0  0
  192.4390  176.4100  146.5710 C   0  0  1  0  0  3  0  0  0  0  0  0
  191.8340  175.1250  147.1250 C   0  0  0  0  0  2  0  0  0  0  0  0
  185.8880  176.7510  146.0160 C   0  0  2  0  0  3  0  0  0  0  0  0
  185.3210  177.9810  145.6240 O   0  0  0  0  0  0  0  0  0  0  0  0
  185.4040  177.7430  147.0060 C   0  0  0  0  0  2  0  0  0  0  0  0
  1 20  1  6  0  0  0
  2 10  2  0  0  0  0
  3 13  1  0  0  0  0
  3  7  1  0  0  0  0
  4  6  1  0  0  0  0
  5  4  1  0  0  0  0
  7  8  1  0  0  0  0
  8  4  2  0  0  0  0
  8  1  1  0  0  0  0
  9  7  1  0  0  0  0
  9  5  2  0  0  0  0
 10 11  1  0  0  0  0
 11 12  2  0  0  0  0
 12 14  1  0  0  0  0
 13  2  1  1  0  0  0
 13 15  1  0  0  0  0
 15 14  2  0  0  0  0
 15  1  1  0  0  0  0
 16 11  1  0  0  0  0
 16 18  2  0  0  0  0
 17 16  2  0  0  0  0
 19 21  1  0  0  0  0
 20 19  2  0  0  0  0
 23 28  1  0  0  0  0
 23 30  1  0  0  0  0
 24 25  1  0  0  0  0
 26 25  2  0  0  0  0
 26 22  1  0  0  0  0
 27 29  1  0  0  0  0
 27 28  2  0  0  0  0
 28 26  1  0  0  0  0
 29 24  2  0  0  0  0
 30 21  1  6  0  0  0
 30 31  1  0  0  0  0
 31 22  1  0  0  0  0
 32 24  1  1  0  0  0
 32 34  1  0  0  0  0
 33 32  1  0  0  0  0
 33 34  1  0  0  0  0
M  END
>  <MODEL>
3

>  <REMARK>
 VINA RESULT:      -8.0      3.802      5.220
  Name = 
  5 active torsions:
  status: ('A' for Active; 'I' for Inactive)
    1  A    between atoms: C_1  and  C_9
    2  A    between atoms: N_3  and  C_25
    3  A    between atoms: C_7  and  C_11
    4  A    between atoms: N_8  and  C_18
    5  A    between atoms: C_18  and  C_30
                            x       y       z     vdW  Elec       q    Type
                         _______ _______ _______ _____ _____    ______ ____

>  <TORSDO>
F 5

$$$$
=
 OpenBabel11052420333D

 34 39  0  0  1  0  0  0  0  0999 V2000
  195.6500  174.1530  143.9120 C   0  0  2  0  0  3  0  0  0  0  0  0
  196.5150  170.5770  143.6260 C   0  0  0  0  0  3  0  0  0  0  0  0
  196.6320  172.2420  141.9080 C   0  0  0  0  0  2  0  0  0  0  0  0
  197.0980  175.7520  142.4140 C   0  0  0  0  0  0  0  0  0  0  0  0
  197.8730  175.5450  141.3290 N   0  0  0  0  0  0  0  0  0  0  0  0
  197.0790  176.9730  143.1440 N   0  0  0  0  0  1  0  0  0  0  0  0
  196.9610  173.6580  141.8890 N   0  0  0  0  0  0  0  0  0  0  0  0
  196.5060  174.5540  142.7690 C   0  0  0  0  0  0  0  0  0  0  0  0
  197.7610  174.2570  141.0250 N   0  0  0  0  0  0  0  0  0  0  0  0
  196.2780  169.8400  144.8710 C   0  0  0  0  0  2  0  0  0  0  0  0
  195.4790  170.1210  145.9020 C   0  0  0  0  0  0  0  0  0  0  0  0
  194.5850  171.2900  145.9690 C   0  0  0  0  0  3  0  0  0  0  0  0
  196.2130  171.8290  143.2960 C   0  0  0  0  0  0  0  0  0  0  0  0
  194.6120  172.4170  145.2640 C   0  0  0  0  0  3  0  0  0  0  0  0
  195.5340  172.8260  144.1870 C   0  0  0  0  0  0  0  0  0  0  0  0
  195.4300  169.1830  146.9900 N   0  0  0  0  0  0  0  0  0  0  0  0
  196.5610  168.8990  147.7220 O   0  0  0  0  0  0  0  0  0  0  0  0
  194.3570  168.6210  147.2940 O   0  0  0  0  0  0  0  0  0  0  0  0
  193.9040  175.8220  144.2060 N   0  0  0  0  0  0  0  0  0  0  0  0
  194.8900  175.1490  144.7020 C   0  0  0  0  0  3  0  0  0  0  0  0
  193.1700  176.7860  145.0140 C   0  0  0  0  0  2  0  0  0  0  0  0
  189.8460  177.8780  143.3870 C   0  0  0  0  0  2  0  0  0  0  0  0
  190.8290  176.7000  145.9550 C   0  0  0  0  0  2  0  0  0  0  0  0
  186.6200  177.3600  145.3110 C   0  0  0  0  0  0  0  0  0  0  0  0
  187.5370  177.7430  144.3250 C   0  0  0  0  0  3  0  0  0  0  0  0
  188.9060  177.5270  144.5070 C   0  0  0  0  0  0  0  0  0  0  0  0
  188.4480  176.5420  146.6800 C   0  0  0  0  0  3  0  0  0  0  0  0
  189.3650  176.8980  145.6860 C   0  0  0  0  0  0  0  0  0  0  0  0
  187.0820  176.7710  146.4940 C   0  0  0  0  0  3  0  0  0  0  0  0
  191.6760  176.7930  144.6850 C   0  0  1  0  0  3  0  0  0  0  0  0
  191.2860  178.0180  143.8670 C   0  0  0  0  0  2  0  0  0  0  0  0
  185.1610  177.6370  145.1260 C   0  0  2  0  0  3  0  0  0  0  0  0
  184.9940  178.8120  144.3660 O   0  0  0  0  0  0  0  0  0  0  0  0
  184.7840  178.9260  145.7500 C   0  0  0  0  0  2  0  0  0  0  0  0
  1 15  1  0  0  0  0
  1 20  1  6  0  0  0
  2 10  1  0  0  0  0
  3 13  1  0  0  0  0
  4  8  2  0  0  0  0
  4  6  1  0  0  0  0
  5  4  1  0  0  0  0
  7  3  1  0  0  0  0
  7  8  1  0  0  0  0
  8  1  1  0  0  0  0
  9  5  2  0  0  0  0
  9  7  1  0  0  0  0
 10 11  1  0  0  0  0
 11 12  2  0  0  0  0
 11 16  1  0  0  0  0
 13  2  2  0  0  0  0
 13 15  1  0  0  0  0
 14 12  1  0  0  0  0
 15 14  2  0  0  0  0
 16 18  2  0  0  0  0
 16 17  2  0  0  0  0
 19 20  2  0  0  0  0
 19 21  1  0  0  0  0
 22 31  1  0  0  0  0
 22 26  1  0  0  0  0
 24 29  1  0  0  0  0
 25 26  1  0  0  0  0
 25 24  2  0  0  0  0
 26 28  2  0  0  0  0
 28 23  1  0  0  0  0
 28 27  1  0  0  0  0
 29 27  2  0  0  0  0
 30 21  1  1  0  0  0
 30 23  1  0  0  0  0
 31 30  1  0  0  0  0
 32 24  1  1  0  0  0
 32 34  1  0  0  0  0
 33 32  1  0  0  0  0
 33 34  1  0  0  0  0
M  END
>  <MODEL>
4

>  <REMARK>
 VINA RESULT:      -7.9      1.870      2.662
  Name = 
  5 active torsions:
  status: ('A' for Active; 'I' for Inactive)
    1  A    between atoms: C_1  and  C_9
    2  A    between atoms: N_3  and  C_25
    3  A    between atoms: C_7  and  C_11
    4  A    between atoms: N_8  and  C_18
    5  A    between atoms: C_18  and  C_30
                            x       y       z     vdW  Elec       q    Type
                         _______ _______ _______ _____ _____    ______ ____

>  <TORSDO>
F 5

$$$$
=
 OpenBabel11052420333D

 34 39  0  0  1  0  0  0  0  0999 V2000
  187.2830  177.3610  145.9390 C   0  0  2  0  0  3  0  0  0  0  0  0
  184.6560  178.8450  143.8130 C   0  0  0  0  0  3  0  0  0  0  0  0
  184.8000  178.9070  146.2030 C   0  0  0  0  0  2  0  0  0  0  0  0
  187.8040  178.7050  148.1330 C   0  0  0  0  0  0  0  0  0  0  0  0
  187.1200  179.6420  148.8230 N   0  0  0  0  0  0  0  0  0  0  0  0
  189.1680  178.3850  148.3850 N   0  0  0  0  0  1  0  0  0  0  0  0
  185.8980  178.9930  147.1510 N   0  0  0  0  0  0  0  0  0  0  0  0
  187.0260  178.2820  147.0720 C   0  0  0  0  0  0  0  0  0  0  0  0
  185.9540  179.7890  148.2050 N   0  0  0  0  0  0  0  0  0  0  0  0
  184.8660  178.5720  142.3870 C   0  0  0  0  0  3  0  0  0  0  0  0
  185.5650  177.6070  141.7870 C   0  0  0  0  0  0  0  0  0  0  0  0
  186.2760  176.5290  142.4950 C   0  0  0  0  0  3  0  0  0  0  0  0
  185.3000  178.3830  144.8810 C   0  0  2  0  0  3  0  0  0  0  0  0
  186.6560  176.4590  143.7670 C   0  0  0  0  0  3  0  0  0  0  0  0
  186.4600  177.4340  144.8580 C   0  0  0  0  0  0  0  0  0  0  0  0
  185.5650  177.5730  140.3500 N   0  0  0  0  0  0  0  0  0  0  0  0
  186.7140  177.2630  139.6570 O   0  0  0  0  0  0  0  0  0  0  0  0
  184.5200  177.8130  139.7110 O   0  0  0  0  0  0  0  0  0  0  0  0
  188.4020  175.4230  146.8920 N   0  0  0  0  0  0  0  0  0  0  0  0
  188.3610  176.3460  145.9880 C   0  0  0  0  0  3  0  0  0  0  0  0
  189.4710  174.4330  146.9070 C   0  0  0  0  0  2  0  0  0  0  0  0
  191.8050  174.1050  143.8520 C   0  0  0  0  0  2  0  0  0  0  0  0
  191.8760  175.1560  146.6520 C   0  0  0  0  0  2  0  0  0  0  0  0
  195.3140  175.5250  144.0800 C   0  0  0  0  0  0  0  0  0  0  0  0
  194.1700  174.8670  143.6130 C   0  0  0  0  0  3  0  0  0  0  0  0
  193.0380  174.7460  144.4250 C   0  0  0  0  0  0  0  0  0  0  0  0
  194.1970  175.9450  146.1920 C   0  0  0  0  0  3  0  0  0  0  0  0
  193.0430  175.3120  145.7200 C   0  0  0  0  0  0  0  0  0  0  0  0
  195.3270  176.0510  145.3770 C   0  0  0  0  0  3  0  0  0  0  0  0
  190.5870  174.7780  145.9200 C   0  0  1  0  0  3  0  0  0  0  0  0
  190.8410  173.6400  144.9370 C   0  0  0  0  0  2  0  0  0  0  0  0
  196.5340  175.6090  143.2190 C   0  0  2  0  0  3  0  0  0  0  0  0
  197.1420  176.8710  143.3790 O   0  0  0  0  0  0  0  0  0  0  0  0
  196.3920  176.6820  142.2060 C   0  0  0  0  0  2  0  0  0  0  0  0
  1 20  1  1  0  0  0
  1  8  1  0  0  0  0
  3  7  1  0  0  0  0
  4  6  1  0  0  0  0
  4  5  1  0  0  0  0
  7  9  1  0  0  0  0
  8  7  1  0  0  0  0
  8  4  2  0  0  0  0
  9  5  2  0  0  0  0
 10  2  2  0  0  0  0
 11 10  1  0  0  0  0
 11 12  2  0  0  0  0
 12 14  1  0  0  0  0
 13  2  1  6  0  0  0
 13  3  1  0  0  0  0
 14 15  2  0  0  0  0
 15 13  1  0  0  0  0
 15  1  1  0  0  0  0
 16 11  1  0  0  0  0
 17 16  2  0  0  0  0
 18 16  2  0  0  0  0
 19 21  1  0  0  0  0
 20 19  2  0  0  0  0
 22 26  1  0  0  0  0
 22 31  1  0  0  0  0
 24 29  1  0  0  0  0
 25 24  2  0  0  0  0
 25 26  1  0  0  0  0
 26 28  2  0  0  0  0
 28 27  1  0  0  0  0
 28 23  1  0  0  0  0
 29 27  2  0  0  0  0
 30 23  1  0  0  0  0
 30 21  1  1  0  0  0
 31 30  1  0  0  0  0
 32 33  1  0  0  0  0
 32 24  1  1  0  0  0
 34 32  1  0  0  0  0
 34 33  1  0  0  0  0
M  END
>  <MODEL>
5

>  <REMARK>
 VINA RESULT:      -7.9      4.895     10.352
  Name = 
  5 active torsions:
  status: ('A' for Active; 'I' for Inactive)
    1  A    between atoms: C_1  and  C_9
    2  A    between atoms: N_3  and  C_25
    3  A    between atoms: C_7  and  C_11
    4  A    between atoms: N_8  and  C_18
    5  A    between atoms: C_18  and  C_30
                            x       y       z     vdW  Elec       q    Type
                         _______ _______ _______ _____ _____    ______ ____

>  <TORSDO>
F 5

$$$$
=
 OpenBabel11052420333D

 34 39  0  0  1  0  0  0  0  0999 V2000
  191.0700  176.2400  144.7580 C   0  0  2  0  0  3  0  0  0  0  0  0
  192.5110  174.6360  141.7630 C   0  0  0  0  0  3  0  0  0  0  0  0
  193.6250  176.0800  143.3160 C   0  0  0  0  0  2  0  0  0  0  0  0
  192.7510  176.5400  146.7540 C   0  0  0  0  0  0  0  0  0  0  0  0
  194.0980  176.5310  146.8320 N   0  0  0  0  0  0  0  0  0  0  0  0
  191.8980  176.5100  147.8930 N   0  0  0  0  0  1  0  0  0  0  0  0
  193.5300  176.2910  144.7510 N   0  0  0  0  0  0  0  0  0  0  0  0
  192.3840  176.3970  145.4290 C   0  0  0  0  0  0  0  0  0  0  0  0
  194.5470  176.3880  145.5910 N   0  0  0  0  0  0  0  0  0  0  0  0
  191.5230  173.8510  141.0160 C   0  0  0  0  0  3  0  0  0  0  0  0
  190.1920  173.9320  140.9970 C   0  0  0  0  0  0  0  0  0  0  0  0
  189.4070  174.9280  141.7460 C   0  0  0  0  0  3  0  0  0  0  0  0
  192.3550  175.4490  142.8040 C   0  0  2  0  0  3  0  0  0  0  0  0
  189.7610  175.6760  142.7860 C   0  0  0  0  0  3  0  0  0  0  0  0
  191.0560  175.7480  143.4900 C   0  0  0  0  0  0  0  0  0  0  0  0
  189.4760  173.0360  140.1300 N   0  0  0  0  0  0  0  0  0  0  0  0
  188.1790  172.6720  140.4160 O   0  0  0  0  0  0  0  0  0  0  0  0
  190.0170  172.5840  139.1000 O   0  0  0  0  0  0  0  0  0  0  0  0
  189.1460  175.8780  146.2020 N   0  0  0  0  0  0  0  0  0  0  0  0
  189.8080  176.6570  145.4110 C   0  0  0  0  0  3  0  0  0  0  0  0
  187.9130  176.3230  146.8370 C   0  0  0  0  0  2  0  0  0  0  0  0
  184.7740  178.1070  145.4740 C   0  0  0  0  0  2  0  0  0  0  0  0
  187.1320  176.5760  144.4500 C   0  0  0  0  0  2  0  0  0  0  0  0
  184.2380  178.2380  141.7230 C   0  0  0  0  0  0  0  0  0  0  0  0
  184.0470  178.3790  143.1030 C   0  0  0  0  0  3  0  0  0  0  0  0
  184.9780  177.8590  144.0060 C   0  0  0  0  0  0  0  0  0  0  0  0
  186.3070  177.0430  142.1430 C   0  0  0  0  0  3  0  0  0  0  0  0
  186.1330  177.2050  143.5210 C   0  0  0  0  0  0  0  0  0  0  0  0
  185.3650  177.5570  141.2480 C   0  0  0  0  0  3  0  0  0  0  0  0
  187.0270  177.1180  145.8760 C   0  0  1  0  0  3  0  0  0  0  0  0
  185.5730  177.1380  146.3380 C   0  0  0  0  0  2  0  0  0  0  0  0
  183.2120  178.7590  140.7670 C   0  0  2  0  0  3  0  0  0  0  0  0
  182.0200  179.0480  141.4610 O   0  0  0  0  0  0  0  0  0  0  0  0
  182.0360  177.8600  140.7130 C   0  0  0  0  0  2  0  0  0  0  0  0
  1 20  1  6  0  0  0
  1  8  1  0  0  0  0
  3  7  1  0  0  0  0
  4  5  1  0  0  0  0
  4  6  1  0  0  0  0
  7  8  1  0  0  0  0
  7  9  1  0  0  0  0
  8  4  2  0  0  0  0
  9  5  2  0  0  0  0
 10  2  2  0  0  0  0
 11 10  1  0  0  0  0
 11 12  2  0  0  0  0
 12 14  1  0  0  0  0
 13  2  1  1  0  0  0
 13  3  1  0  0  0  0
 13 15  1  0  0  0  0
 14 15  2  0  0  0  0
 15  1  1  0  0  0  0
 16 17  2  0  0  0  0
 16 11  1  0  0  0  0
 18 16  2  0  0  0  0
 19 21  1  0  0  0  0
 20 19  2  0  0  0  0
 22 31  1  0  0  0  0
 23 30  1  0  0  0  0
 24 25  1  0  0  0  0
 25 26  2  0  0  0  0
 26 22  1  0  0  0  0
 27 28  2  0  0  0  0
 28 26  1  0  0  0  0
 28 23  1  0  0  0  0
 29 24  2  0  0  0  0
 29 27  1  0  0  0  0
 30 31  1  0  0  0  0
 30 21  1  1  0  0  0
 32 33  1  0  0  0  0
 32 24  1  1  0  0  0
 34 32  1  0  0  0  0
 34 33  1  0  0  0  0
M  END
>  <MODEL>
6

>  <REMARK>
 VINA RESULT:      -7.9      4.657      5.896
  Name = 
  5 active torsions:
  status: ('A' for Active; 'I' for Inactive)
    1  A    between atoms: C_1  and  C_9
    2  A    between atoms: N_3  and  C_25
    3  A    between atoms: C_7  and  C_11
    4  A    between atoms: N_8  and  C_18
    5  A    between atoms: C_18  and  C_30
                            x       y       z     vdW  Elec       q    Type
                         _______ _______ _______ _____ _____    ______ ____

>  <TORSDO>
F 5

$$$$
=
 OpenBabel11052420333D

 34 39  0  0  1  0  0  0  0  0999 V2000
  194.8950  174.1220  143.1410 C   0  0  2  0  0  3  0  0  0  0  0  0
  197.6650  175.3820  141.0530 C   0  0  0  0  0  3  0  0  0  0  0  0
  197.5550  175.3310  143.4450 C   0  0  0  0  0  2  0  0  0  0  0  0
  195.6430  173.0340  145.4120 C   0  0  0  0  0  0  0  0  0  0  0  0
  196.7780  173.1100  146.1380 N   0  0  0  0  0  0  0  0  0  0  0  0
  194.6070  172.0930  145.6680 N   0  0  0  0  0  1  0  0  0  0  0  0
  196.9800  174.4130  144.4140 N   0  0  0  0  0  0  0  0  0  0  0  0
  195.7630  173.8700  144.3170 C   0  0  0  0  0  0  0  0  0  0  0  0
  197.5720  173.9680  145.5090 N   0  0  0  0  0  0  0  0  0  0  0  0
  197.3700  175.2990  139.6190 C   0  0  0  0  0  3  0  0  0  0  0  0
  196.2010  175.2310  138.9800 C   0  0  0  0  0  0  0  0  0  0  0  0
  194.8860  175.2730  139.6430 C   0  0  0  0  0  3  0  0  0  0  0  0
  196.8860  175.1510  142.1060 C   0  0  2  0  0  3  0  0  0  0  0  0
  194.5720  175.0510  140.9160 C   0  0  0  0  0  3  0  0  0  0  0  0
  195.4520  174.7170  142.0530 C   0  0  0  0  0  0  0  0  0  0  0  0
  196.2210  175.1880  137.5440 N   0  0  0  0  0  0  0  0  0  0  0  0
  197.1220  175.9490  136.8330 O   0  0  0  0  0  0  0  0  0  0  0  0
  195.4270  174.4520  136.9210 O   0  0  0  0  0  0  0  0  0  0  0  0
  192.6100  174.4070  143.9240 N   0  0  0  0  0  0  0  0  0  0  0  0
  193.4500  173.7950  143.1560 C   0  0  0  0  0  3  0  0  0  0  0  0
  191.1920  174.0690  143.9070 C   0  0  0  0  0  2  0  0  0  0  0  0
  189.0000  175.5500  146.7160 C   0  0  0  0  0  2  0  0  0  0  0  0
  189.3300  175.7670  143.7510 C   0  0  0  0  0  2  0  0  0  0  0  0
  186.4280  178.1880  145.8210 C   0  0  0  0  0  0  0  0  0  0  0  0
  187.1910  177.2600  146.5390 C   0  0  0  0  0  3  0  0  0  0  0  0
  188.1470  176.4730  145.8920 C   0  0  0  0  0  0  0  0  0  0  0  0
  187.5770  177.5400  143.7850 C   0  0  0  0  0  3  0  0  0  0  0  0
  188.3600  176.6310  144.5030 C   0  0  0  0  0  0  0  0  0  0  0  0
  186.6160  178.3150  144.4390 C   0  0  0  0  0  3  0  0  0  0  0  0
  190.3490  175.0910  144.6700 C   0  0  1  0  0  3  0  0  0  0  0  0
  189.6530  174.4610  145.8720 C   0  0  0  0  0  2  0  0  0  0  0  0
  185.3780  178.9940  146.5170 C   0  0  2  0  0  3  0  0  0  0  0  0
  184.8890  178.2780  147.6290 O   0  0  0  0  0  0  0  0  0  0  0  0
  184.0710  178.2950  146.4870 C   0  0  0  0  0  2  0  0  0  0  0  0
  1 20  1  1  0  0  0
  1  8  1  0  0  0  0
  3  7  1  0  0  0  0
  4  6  1  0  0  0  0
  4  5  1  0  0  0  0
  7  9  1  0  0  0  0
  8  7  1  0  0  0  0
  8  4  2  0  0  0  0
  9  5  2  0  0  0  0
 10  2  2  0  0  0  0
 11 10  1  0  0  0  0
 11 12  2  0  0  0  0
 12 14  1  0  0  0  0
 13  2  1  6  0  0  0
 13  3  1  0  0  0  0
 14 15  2  0  0  0  0
 15 13  1  0  0  0  0
 15  1  1  0  0  0  0
 16 11  1  0  0  0  0
 17 16  2  0  0  0  0
 18 16  2  0  0  0  0
 20 19  2  0  0  0  0
 21 19  1  0  0  0  0
 23 28  1  0  0  0  0
 23 30  1  0  0  0  0
 24 25  1  0  0  0  0
 26 25  2  0  0  0  0
 26 22  1  0  0  0  0
 27 29  1  0  0  0  0
 27 28  2  0  0  0  0
 28 26  1  0  0  0  0
 29 24  2  0  0  0  0
 30 21  1  6  0  0  0
 30 31  1  0  0  0  0
 31 22  1  0  0  0  0
 32 24  1  6  0  0  0
 32 33  1  0  0  0  0
 34 32  1  0  0  0  0
 34 33  1  0  0  0  0
M  END
>  <MODEL>
7

>  <REMARK>
 VINA RESULT:      -7.9      3.957      5.132
  Name = 
  5 active torsions:
  status: ('A' for Active; 'I' for Inactive)
    1  A    between atoms: C_1  and  C_9
    2  A    between atoms: N_3  and  C_25
    3  A    between atoms: C_7  and  C_11
    4  A    between atoms: N_8  and  C_18
    5  A    between atoms: C_18  and  C_30
                            x       y       z     vdW  Elec       q    Type
                         _______ _______ _______ _____ _____    ______ ____

>  <TORSDO>
F 5

$$$$
=
 OpenBabel11052420333D

 34 39  0  0  1  0  0  0  0  0999 V2000
  193.7920  174.8900  142.4280 C   0  0  2  0  0  3  0  0  0  0  0  0
  197.1640  176.0030  141.4220 C   0  0  0  0  0  3  0  0  0  0  0  0
  196.0130  176.5150  143.4590 C   0  0  0  0  0  2  0  0  0  0  0  0
  193.4920  174.5040  145.0080 C   0  0  0  0  0  0  0  0  0  0  0  0
  194.1890  174.9190  146.0870 N   0  0  0  0  0  0  0  0  0  0  0  0
  192.4750  173.5110  145.0640 N   0  0  0  0  0  1  0  0  0  0  0  0
  195.0950  175.7830  144.3150 N   0  0  0  0  0  0  0  0  0  0  0  0
  194.0600  175.0600  143.8770 C   0  0  0  0  0  0  0  0  0  0  0  0
  195.1560  175.7070  145.6340 N   0  0  0  0  0  0  0  0  0  0  0  0
  197.5350  175.5350  140.0820 C   0  0  0  0  0  3  0  0  0  0  0  0
  196.7680  175.1440  139.0620 C   0  0  0  0  0  0  0  0  0  0  0  0
  195.2950  175.1510  139.0760 C   0  0  0  0  0  3  0  0  0  0  0  0
  196.0080  175.9210  142.0730 C   0  0  2  0  0  3  0  0  0  0  0  0
  194.4590  175.1990  140.1080 C   0  0  0  0  0  3  0  0  0  0  0  0
  194.7560  175.2810  141.5520 C   0  0  0  0  0  0  0  0  0  0  0  0
  197.4200  174.7600  137.8400 N   0  0  0  0  0  0  0  0  0  0  0  0
  197.8120  173.4560  137.6350 O   0  0  0  0  0  0  0  0  0  0  0  0
  197.6310  175.6030  136.9430 O   0  0  0  0  0  0  0  0  0  0  0  0
  191.3850  175.0020  142.1020 N   0  0  0  0  0  0  0  0  0  0  0  0
  192.4990  174.3690  141.9310 C   0  0  0  0  0  3  0  0  0  0  0  0
  190.1300  174.4660  141.5900 C   0  0  0  0  0  2  0  0  0  0  0  0
  186.8390  176.2200  142.5820 C   0  0  0  0  0  2  0  0  0  0  0  0
  189.3830  175.2930  143.8550 C   0  0  0  0  0  2  0  0  0  0  0  0
  186.2730  177.1050  146.2250 C   0  0  0  0  0  0  0  0  0  0  0  0
  186.1070  176.9900  144.8400 C   0  0  0  0  0  3  0  0  0  0  0  0
  187.0960  176.3950  144.0520 C   0  0  0  0  0  0  0  0  0  0  0  0
  188.4370  176.0250  146.0440 C   0  0  0  0  0  3  0  0  0  0  0  0
  188.2640  175.8850  144.6640 C   0  0  0  0  0  0  0  0  0  0  0  0
  187.4480  176.6310  146.8220 C   0  0  0  0  0  3  0  0  0  0  0  0
  188.9360  174.8780  142.4520 C   0  0  1  0  0  3  0  0  0  0  0  0
  188.1240  175.9900  141.7960 C   0  0  0  0  0  2  0  0  0  0  0  0
  185.2270  177.7830  147.0520 C   0  0  2  0  0  3  0  0  0  0  0  0
  184.7060  178.8860  146.3470 O   0  0  0  0  0  0  0  0  0  0  0  0
  185.6250  179.1750  147.3690 C   0  0  0  0  0  2  0  0  0  0  0  0
  1 20  1  6  0  0  0
  1  8  1  0  0  0  0
  3  7  1  0  0  0  0
  4  6  1  0  0  0  0
  4  5  1  0  0  0  0
  7  9  1  0  0  0  0
  8  7  1  0  0  0  0
  8  4  2  0  0  0  0
  9  5  2  0  0  0  0
 10  2  2  0  0  0  0
 11 12  2  0  0  0  0
 11 10  1  0  0  0  0
 12 14  1  0  0  0  0
 13  2  1  1  0  0  0
 13  3  1  0  0  0  0
 14 15  2  0  0  0  0
 15 13  1  0  0  0  0
 15  1  1  0  0  0  0
 16 11  1  0  0  0  0
 17 16  2  0  0  0  0
 18 16  2  0  0  0  0
 20 19  2  0  0  0  0
 21 19  1  0  0  0  0
 22 26  1  0  0  0  0
 23 28  1  0  0  0  0
 24 29  1  0  0  0  0
 25 24  2  0  0  0  0
 26 28  2  0  0  0  0
 26 25  1  0  0  0  0
 27 29  2  0  0  0  0
 28 27  1  0  0  0  0
 30 21  1  6  0  0  0
 30 23  1  0  0  0  0
 31 30  1  0  0  0  0
 31 22  1  0  0  0  0
 32 24  1  6  0  0  0
 32 34  1  0  0  0  0
 33 32  1  0  0  0  0
 33 34  1  0  0  0  0
M  END
>  <MODEL>
8

>  <REMARK>
 VINA RESULT:      -7.8      3.922      5.279
  Name = 
  5 active torsions:
  status: ('A' for Active; 'I' for Inactive)
    1  A    between atoms: C_1  and  C_9
    2  A    between atoms: N_3  and  C_25
    3  A    between atoms: C_7  and  C_11
    4  A    between atoms: N_8  and  C_18
    5  A    between atoms: C_18  and  C_30
                            x       y       z     vdW  Elec       q    Type
                         _______ _______ _______ _____ _____    ______ ____

>  <TORSDO>
F 5

$$$$
=
 OpenBabel11052420333D

 34 39  0  0  1  0  0  0  0  0999 V2000
  191.4580  173.5020  140.6440 C   0  0  2  0  0  3  0  0  0  0  0  0
  193.8130  174.4030  137.9480 C   0  0  0  0  0  3  0  0  0  0  0  0
  191.6600  173.3800  137.7160 C   0  0  0  0  0  2  0  0  0  0  0  0
  188.9220  173.7050  139.9940 C   0  0  0  0  0  0  0  0  0  0  0  0
  188.2770  173.7590  138.8100 N   0  0  0  0  0  0  0  0  0  0  0  0
  188.2960  173.9780  141.2430 N   0  0  0  0  0  1  0  0  0  0  0  0
  190.3970  173.5030  138.4240 N   0  0  0  0  0  0  0  0  0  0  0  0
  190.2730  173.5320  139.7540 C   0  0  0  0  0  0  0  0  0  0  0  0
  189.2030  173.6220  137.8690 N   0  0  0  0  0  0  0  0  0  0  0  0
  195.0620  174.9750  138.4610 C   0  0  0  0  0  3  0  0  0  0  0  0
  195.6330  174.8630  139.6620 C   0  0  0  0  0  0  0  0  0  0  0  0
  195.0980  174.0500  140.7670 C   0  0  0  0  0  3  0  0  0  0  0  0
  192.7910  173.8490  138.5940 C   0  0  2  0  0  3  0  0  0  0  0  0
  193.8720  173.5700  140.9470 C   0  0  0  0  0  3  0  0  0  0  0  0
  192.6830  173.6890  140.0810 C   0  0  0  0  0  0  0  0  0  0  0  0
  196.8940  175.5210  139.8690 N   0  0  0  0  0  0  0  0  0  0  0  0
  197.8020  175.6390  138.8400 O   0  0  0  0  0  0  0  0  0  0  0  0
  197.1800  176.0040  140.9850 O   0  0  0  0  0  0  0  0  0  0  0  0
  191.3250  174.1580  142.9820 N   0  0  0  0  0  0  0  0  0  0  0  0
  191.3380  173.2200  142.0930 C   0  0  0  0  0  3  0  0  0  0  0  0
  191.1940  173.8470  144.4000 C   0  0  0  0  0  2  0  0  0  0  0  0
  188.7610  175.2760  147.0320 C   0  0  0  0  0  2  0  0  0  0  0  0
  189.4730  175.6770  144.1540 C   0  0  0  0  0  2  0  0  0  0  0  0
  186.4870  178.1440  146.0430 C   0  0  0  0  0  0  0  0  0  0  0  0
  187.0960  177.1160  146.7730 C   0  0  0  0  0  3  0  0  0  0  0  0
  188.0760  176.3120  146.1850 C   0  0  0  0  0  0  0  0  0  0  0  0
  187.8400  177.5620  144.1150 C   0  0  0  0  0  3  0  0  0  0  0  0
  188.4700  176.5520  144.8490 C   0  0  0  0  0  0  0  0  0  0  0  0
  186.8540  178.3540  144.7080 C   0  0  0  0  0  3  0  0  0  0  0  0
  190.3250  174.8690  145.1340 C   0  0  1  0  0  3  0  0  0  0  0  0
  189.4470  174.2070  146.1900 C   0  0  0  0  0  2  0  0  0  0  0  0
  185.4070  178.9700  146.6680 C   0  0  2  0  0  3  0  0  0  0  0  0
  184.4860  178.1290  147.3250 O   0  0  0  0  0  0  0  0  0  0  0  0
  184.0860  178.6440  146.0810 C   0  0  0  0  0  2  0  0  0  0  0  0
  1 20  1  6  0  0  0
  2 10  2  0  0  0  0
  2 13  1  0  0  0  0
  3  7  1  0  0  0  0
  4  6  1  0  0  0  0
  5  4  1  0  0  0  0
  7  8  1  0  0  0  0
  8  4  2  0  0  0  0
  8  1  1  0  0  0  0
  9  7  1  0  0  0  0
  9  5  2  0  0  0  0
 10 11  1  0  0  0  0
 11 16  1  0  0  0  0
 11 12  2  0  0  0  0
 12 14  1  0  0  0  0
 13  3  1  1  0  0  0
 13 15  1  0  0  0  0
 15  1  1  0  0  0  0
 15 14  2  0  0  0  0
 16 18  2  0  0  0  0
 17 16  2  0  0  0  0
 19 21  1  0  0  0  0
 20 19  2  0  0  0  0
 23 28  1  0  0  0  0
 23 30  1  0  0  0  0
 24 25  1  0  0  0  0
 26 25  2  0  0  0  0
 26 22  1  0  0  0  0
 27 29  1  0  0  0  0
 27 28  2  0  0  0  0
 28 26  1  0  0  0  0
 29 24  2  0  0  0  0
 30 21  1  6  0  0  0
 30 31  1  0  0  0  0
 31 22  1  0  0  0  0
 32 24  1  6  0  0  0
 32 33  1  0  0  0  0
 34 32  1  0  0  0  0
 34 33  1  0  0  0  0
M  END
>  <MODEL>
9

>  <REMARK>
 VINA RESULT:      -7.6      4.361      6.084
  Name = 
  5 active torsions:
  status: ('A' for Active; 'I' for Inactive)
    1  A    between atoms: C_1  and  C_9
    2  A    between atoms: N_3  and  C_25
    3  A    between atoms: C_7  and  C_11
    4  A    between atoms: N_8  and  C_18
    5  A    between atoms: C_18  and  C_30
                            x       y       z     vdW  Elec       q    Type
                         _______ _______ _______ _____ _____    ______ ____

>  <TORSDO>
F 5

$$$$
