=
 OpenBabel11052419203D

 32 35  0  0  1  0  0  0  0  0999 V2000
  189.6980  174.5230  145.4110 O   0  0  0  0  0  0  0  0  0  0  0  0
  190.9240  174.0170  144.9130 C   0  0  2  0  0  3  0  0  0  0  0  0
  189.7400  175.9330  145.4210 C   0  0  2  0  0  3  0  0  0  0  0  0
  190.7890  176.4420  146.4080 C   0  0  0  0  0  2  0  0  0  0  0  0
  192.1680  174.4840  145.6890 C   0  0  0  0  0  2  0  0  0  0  0  0
  192.1540  175.9920  145.9080 C   0  0  2  0  0  3  0  0  0  0  0  0
  188.3920  176.4870  145.7370 C   0  0  0  0  0  0  0  0  0  0  0  0
  187.7340  176.0750  146.9010 C   0  0  0  0  0  3  0  0  0  0  0  0
  184.6340  179.3760  144.7730 C   0  0  0  0  0  3  0  0  0  0  0  0
  187.7780  177.4270  144.9010 C   0  0  0  0  0  3  0  0  0  0  0  0
  184.6390  177.9990  146.7690 C   0  0  0  0  0  3  0  0  0  0  0  0
  185.8940  177.4940  146.4190 C   0  0  0  0  0  0  0  0  0  0  0  0
  186.5110  176.5810  147.2170 N   0  0  0  0  0  0  0  0  0  0  0  0
  186.5240  177.9370  145.2360 C   0  0  0  0  0  0  0  0  0  0  0  0
  184.0110  178.9410  145.9470 C   0  0  0  0  0  3  0  0  0  0  0  0
  185.8900  178.8730  144.4160 C   0  0  0  0  0  3  0  0  0  0  0  0
  191.0190  173.9720  143.3780 C   0  0  2  0  0  3  0  0  0  0  0  0
  192.3490  174.0010  142.9560 O   0  0  0  0  0  1  0  0  0  0  0  0
  190.1570  174.9830  142.6130 C   0  0  0  0  0  2  0  0  0  0  0  0
  188.8770  174.3960  142.0260 C   0  0  2  0  0  3  0  0  0  0  0  0
  189.0840  174.1230  140.5440 C   0  0  1  0  0  3  0  0  0  0  0  0
  190.0270  172.9530  140.3600 C   0  0  0  0  0  2  0  0  0  0  0  0
  188.5360  172.7510  140.2060 C   0  0  2  0  0  3  0  0  0  0  0  0
  188.2140  172.7130  138.8500 O   0  0  0  0  0  1  0  0  0  0  0  0
  187.8160  175.2910  142.1900 O   0  0  0  0  0  0  0  0  0  0  0  0
  187.7830  176.0330  141.0050 C   0  0  0  0  0  2  0  0  0  0  0  0
  188.6190  178.2810  141.6640 C   0  0  0  0  0  1  0  0  0  0  0  0
  187.3910  177.4690  141.3030 C   0  0  0  0  0  2  0  0  0  0  0  0
  193.1900  176.3600  146.8570 N   0  0  0  0  0  2  0  0  0  0  0  0
  194.4550  175.8950  146.3100 C   0  0  0  0  0  2  0  0  0  0  0  0
  195.0320  178.1240  145.6800 O   0  0  0  0  0  1  0  0  0  0  0  0
  194.9090  176.8210  145.1970 C   0  0  0  0  0  2  0  0  0  0  0  0
  1  3  1  0  0  0  0
  2 17  1  6  0  0  0
  2  1  1  0  0  0  0
  2  5  1  0  0  0  0
  3  7  1  1  0  0  0
  3  4  1  0  0  0  0
  5  6  1  0  0  0  0
  6  4  1  0  0  0  0
  6 29  1  1  0  0  0
  7  8  1  0  0  0  0
  8 13  2  0  0  0  0
  9 15  1  0  0  0  0
 10 14  1  0  0  0  0
 10  7  2  0  0  0  0
 12 11  1  0  0  0  0
 12 13  1  0  0  0  0
 14 12  2  0  0  0  0
 15 11  2  0  0  0  0
 16  9  2  0  0  0  0
 16 14  1  0  0  0  0
 17 18  1  1  0  0  0
 19 17  1  0  0  0  0
 20 25  1  0  0  0  0
 20 19  1  6  0  0  0
 21 20  1  1  0  0  0
 22 21  1  0  0  0  0
 23 24  1  6  0  0  0
 23 22  1  0  0  0  0
 23 21  1  0  0  0  0
 26 28  1  0  0  0  0
 26 25  1  0  0  0  0
 28 27  1  0  0  0  0
 30 29  1  0  0  0  0
 32 31  1  0  0  0  0
 32 30  1  0  0  0  0
M  END
>  <MODEL>
1

>  <REMARK>
 VINA RESULT:      -6.9      0.000      0.000
  Name = 
  11 active torsions:
  status: ('A' for Active; 'I' for Inactive)
    1  A    between atoms: C_2  and  C_5
    2  A    between atoms: C_3  and  C_20
    3  A    between atoms: C_4  and  C_24
    4  A    between atoms: C_13  and  N_18
    5  A    between atoms: C_13  and  C_29
    6  A    between atoms: O_15  and  C_20
    7  A    between atoms: O_15  and  C_26
    8  A    between atoms: C_16  and  C_20
    9  A    between atoms: C_16  and  C_24
   10  A    between atoms: N_18  and  C_30
   11  A    between atoms: C_19  and  C_26
                            x       y       z     vdW  Elec       q    Type
                         _______ _______ _______ _____ _____    ______ ____

>  <TORSDO>
F 11

$$$$
=
 OpenBabel11052419203D

 32 35  0  0  1  0  0  0  0  0999 V2000
  189.7720  174.5270  145.4160 O   0  0  0  0  0  0  0  0  0  0  0  0
  191.0090  174.0050  144.9640 C   0  0  2  0  0  3  0  0  0  0  0  0
  189.8180  175.9370  145.3890 C   0  0  2  0  0  3  0  0  0  0  0  0
  190.8410  176.4700  146.3900 C   0  0  0  0  0  2  0  0  0  0  0  0
  192.2340  174.4910  145.7600 C   0  0  0  0  0  2  0  0  0  0  0  0
  192.2170  176.0050  145.9380 C   0  0  2  0  0  3  0  0  0  0  0  0
  188.4620  176.5010  145.6540 C   0  0  0  0  0  0  0  0  0  0  0  0
  187.7540  176.0880  146.7870 C   0  0  0  0  0  3  0  0  0  0  0  0
  184.7740  179.4340  144.5600 C   0  0  0  0  0  3  0  0  0  0  0  0
  187.8920  177.4540  144.8010 C   0  0  0  0  0  3  0  0  0  0  0  0
  184.6850  178.0420  146.5440 C   0  0  0  0  0  3  0  0  0  0  0  0
  185.9480  177.5280  146.2420 C   0  0  0  0  0  0  0  0  0  0  0  0
  186.5240  176.6030  147.0570 N   0  0  0  0  0  0  0  0  0  0  0  0
  186.6300  177.9730  145.0890 C   0  0  0  0  0  0  0  0  0  0  0  0
  184.1000  178.9960  145.7050 C   0  0  0  0  0  3  0  0  0  0  0  0
  186.0390  178.9220  144.2510 C   0  0  0  0  0  3  0  0  0  0  0  0
  191.1450  173.9200  143.4340 C   0  0  2  0  0  3  0  0  0  0  0  0
  191.8630  175.0060  142.9310 O   0  0  0  0  0  1  0  0  0  0  0  0
  189.8510  173.6800  142.6480 C   0  0  0  0  0  2  0  0  0  0  0  0
  189.7770  174.4300  141.3210 C   0  0  2  0  0  3  0  0  0  0  0  0
  188.3250  174.7550  141.0080 C   0  0  1  0  0  3  0  0  0  0  0  0
  187.5820  175.0880  142.2850 C   0  0  0  0  0  2  0  0  0  0  0  0
  188.0450  176.2000  141.3690 C   0  0  2  0  0  3  0  0  0  0  0  0
  186.9650  176.6550  140.6140 O   0  0  0  0  0  1  0  0  0  0  0  0
  190.3100  173.6460  140.2940 O   0  0  0  0  0  0  0  0  0  0  0  0
  189.2400  172.8680  139.8410 C   0  0  0  0  0  2  0  0  0  0  0  0
  190.7860  170.9310  140.0500 C   0  0  0  0  0  1  0  0  0  0  0  0
  189.7590  171.6120  139.1660 C   0  0  0  0  0  2  0  0  0  0  0  0
  193.2290  176.3960  146.9040 N   0  0  0  0  0  2  0  0  0  0  0  0
  194.5150  175.9750  146.3700 C   0  0  0  0  0  2  0  0  0  0  0  0
  195.0600  178.1900  145.6660 O   0  0  0  0  0  1  0  0  0  0  0  0
  194.9170  176.8760  145.2190 C   0  0  0  0  0  2  0  0  0  0  0  0
  2 17  1  6  0  0  0
  2  1  1  0  0  0  0
  2  5  1  0  0  0  0
  3  1  1  0  0  0  0
  3  7  1  1  0  0  0
  3  4  1  0  0  0  0
  5  6  1  0  0  0  0
  6  4  1  0  0  0  0
  6 29  1  1  0  0  0
  7  8  1  0  0  0  0
  8 13  2  0  0  0  0
  9 15  1  0  0  0  0
 10 14  1  0  0  0  0
 10  7  2  0  0  0  0
 12 11  1  0  0  0  0
 12 13  1  0  0  0  0
 14 12  2  0  0  0  0
 15 11  2  0  0  0  0
 16  9  2  0  0  0  0
 16 14  1  0  0  0  0
 17 18  1  6  0  0  0
 19 17  1  0  0  0  0
 20 19  1  1  0  0  0
 21 20  1  1  0  0  0
 21 23  1  0  0  0  0
 21 22  1  0  0  0  0
 23 24  1  6  0  0  0
 23 22  1  0  0  0  0
 25 20  1  0  0  0  0
 26 25  1  0  0  0  0
 28 26  1  0  0  0  0
 28 27  1  0  0  0  0
 30 29  1  0  0  0  0
 32 31  1  0  0  0  0
 32 30  1  0  0  0  0
M  END
>  <MODEL>
2

>  <REMARK>
 VINA RESULT:      -6.8      0.959      2.410
  Name = 
  11 active torsions:
  status: ('A' for Active; 'I' for Inactive)
    1  A    between atoms: C_2  and  C_5
    2  A    between atoms: C_3  and  C_20
    3  A    between atoms: C_4  and  C_24
    4  A    between atoms: C_13  and  N_18
    5  A    between atoms: C_13  and  C_29
    6  A    between atoms: O_15  and  C_20
    7  A    between atoms: O_15  and  C_26
    8  A    between atoms: C_16  and  C_20
    9  A    between atoms: C_16  and  C_24
   10  A    between atoms: N_18  and  C_30
   11  A    between atoms: C_19  and  C_26
                            x       y       z     vdW  Elec       q    Type
                         _______ _______ _______ _____ _____    ______ ____

>  <TORSDO>
F 11

$$$$
=
 OpenBabel11052419203D

 32 35  0  0  1  0  0  0  0  0999 V2000
  190.0960  176.4350  142.5260 O   0  0  0  0  0  0  0  0  0  0  0  0
  191.2560  175.6400  142.3500 C   0  0  2  0  0  3  0  0  0  0  0  0
  189.1590  175.7330  143.3120 C   0  0  2  0  0  3  0  0  0  0  0  0
  188.6570  174.4890  142.5820 C   0  0  0  0  0  2  0  0  0  0  0  0
  190.9920  174.2620  141.7180 C   0  0  0  0  0  2  0  0  0  0  0  0
  189.8380  173.5450  142.4080 C   0  0  2  0  0  3  0  0  0  0  0  0
  188.0270  176.6290  143.6880 C   0  0  0  0  0  0  0  0  0  0  0  0
  187.6970  177.7060  142.8580 C   0  0  0  0  0  3  0  0  0  0  0  0
  184.3800  177.9020  146.6000 C   0  0  0  0  0  3  0  0  0  0  0  0
  187.2720  176.4010  144.8450 C   0  0  0  0  0  3  0  0  0  0  0  0
  184.8470  179.1800  144.5920 C   0  0  0  0  0  3  0  0  0  0  0  0
  185.9120  178.3250  144.2940 C   0  0  0  0  0  0  0  0  0  0  0  0
  186.6570  178.5250  143.1740 N   0  0  0  0  0  0  0  0  0  0  0  0
  186.2100  177.2480  145.1570 C   0  0  0  0  0  0  0  0  0  0  0  0
  184.0810  178.9660  145.7430 C   0  0  0  0  0  3  0  0  0  0  0  0
  185.4460  177.0430  146.3080 C   0  0  0  0  0  3  0  0  0  0  0  0
  192.2590  175.7080  143.5130 C   0  0  2  0  0  3  0  0  0  0  0  0
  193.4560  176.3040  143.1110 O   0  0  0  0  0  1  0  0  0  0  0  0
  192.5020  174.4030  144.2800 C   0  0  0  0  0  2  0  0  0  0  0  0
  192.6580  174.5820  145.7870 C   0  0  2  0  0  3  0  0  0  0  0  0
  191.7100  175.6720  146.2630 C   0  0  1  0  0  3  0  0  0  0  0  0
  190.3920  175.0610  146.6920 C   0  0  0  0  0  2  0  0  0  0  0  0
  191.4100  175.4680  147.7350 C   0  0  2  0  0  3  0  0  0  0  0  0
  191.0330  176.6880  148.2940 O   0  0  0  0  0  1  0  0  0  0  0  0
  193.9730  174.9410  146.0970 O   0  0  0  0  0  0  0  0  0  0  0  0
  194.7630  173.9320  145.5390 C   0  0  0  0  0  2  0  0  0  0  0  0
  197.0430  173.2290  146.2450 C   0  0  0  0  0  1  0  0  0  0  0  0
  196.2270  174.3290  145.5940 C   0  0  0  0  0  2  0  0  0  0  0  0
  189.4480  172.3810  141.6310 N   0  0  0  0  0  2  0  0  0  0  0  0
  189.7340  172.6820  140.2370 C   0  0  0  0  0  2  0  0  0  0  0  0
  188.1930  173.8830  138.8660 O   0  0  0  0  0  1  0  0  0  0  0  0
  188.4560  172.6300  139.4230 C   0  0  0  0  0  2  0  0  0  0  0  0
  1  3  1  0  0  0  0
  2  1  1  0  0  0  0
  2 17  1  1  0  0  0
  3  7  1  6  0  0  0
  4  3  1  0  0  0  0
  5  2  1  0  0  0  0
  5  6  1  0  0  0  0
  6 29  1  6  0  0  0
  6  4  1  0  0  0  0
  7 10  1  0  0  0  0
  8 13  1  0  0  0  0
  8  7  2  0  0  0  0
 10 14  2  0  0  0  0
 11 15  2  0  0  0  0
 12 11  1  0  0  0  0
 12 14  1  0  0  0  0
 13 12  2  0  0  0  0
 14 16  1  0  0  0  0
 15  9  1  0  0  0  0
 16  9  2  0  0  0  0
 17 18  1  6  0  0  0
 17 19  1  0  0  0  0
 20 19  1  6  0  0  0
 20 25  1  0  0  0  0
 21 20  1  6  0  0  0
 21 22  1  0  0  0  0
 21 23  1  0  0  0  0
 22 23  1  0  0  0  0
 23 24  1  1  0  0  0
 26 28  1  0  0  0  0
 26 25  1  0  0  0  0
 28 27  1  0  0  0  0
 30 29  1  0  0  0  0
 31 32  1  0  0  0  0
 32 30  1  0  0  0  0
M  END
>  <MODEL>
3

>  <REMARK>
 VINA RESULT:      -6.7      2.315      6.023
  Name = 
  11 active torsions:
  status: ('A' for Active; 'I' for Inactive)
    1  A    between atoms: C_2  and  C_5
    2  A    between atoms: C_3  and  C_20
    3  A    between atoms: C_4  and  C_24
    4  A    between atoms: C_13  and  N_18
    5  A    between atoms: C_13  and  C_29
    6  A    between atoms: O_15  and  C_20
    7  A    between atoms: O_15  and  C_26
    8  A    between atoms: C_16  and  C_20
    9  A    between atoms: C_16  and  C_24
   10  A    between atoms: N_18  and  C_30
   11  A    between atoms: C_19  and  C_26
                            x       y       z     vdW  Elec       q    Type
                         _______ _______ _______ _____ _____    ______ ____

>  <TORSDO>
F 11

$$$$
=
 OpenBabel11052419203D

 32 35  0  0  1  0  0  0  0  0999 V2000
  190.3050  175.8050  143.5190 O   0  0  0  0  0  0  0  0  0  0  0  0
  191.2380  174.7620  143.2970 C   0  0  2  0  0  3  0  0  0  0  0  0
  189.0110  175.3590  143.1760 C   0  0  2  0  0  3  0  0  0  0  0  0
  188.9100  175.0740  141.6790 C   0  0  0  0  0  2  0  0  0  0  0  0
  191.2520  174.2160  141.8590 C   0  0  0  0  0  2  0  0  0  0  0  0
  189.8430  173.9130  141.3640 C   0  0  2  0  0  3  0  0  0  0  0  0
  187.9910  176.3620  143.6010 C   0  0  0  0  0  0  0  0  0  0  0  0
  187.8370  177.5410  142.8650 C   0  0  0  0  0  3  0  0  0  0  0  0
  184.4300  177.8500  146.5170 C   0  0  0  0  0  3  0  0  0  0  0  0
  187.1690  176.1370  144.7120 C   0  0  0  0  0  3  0  0  0  0  0  0
  185.1380  179.2250  144.6480 C   0  0  0  0  0  3  0  0  0  0  0  0
  186.0930  178.2650  144.3020 C   0  0  0  0  0  0  0  0  0  0  0  0
  186.9010  178.4600  143.2260 N   0  0  0  0  0  0  0  0  0  0  0  0
  186.2150  177.0880  145.0710 C   0  0  0  0  0  0  0  0  0  0  0  0
  184.3060  179.0160  145.7540 C   0  0  0  0  0  3  0  0  0  0  0  0
  185.3860  176.8860  146.1770 C   0  0  0  0  0  3  0  0  0  0  0  0
  191.3410  173.7430  144.4460 C   0  0  2  0  0  3  0  0  0  0  0  0
  190.1230  173.6140  145.1140 O   0  0  0  0  0  1  0  0  0  0  0  0
  192.5080  173.9340  145.4210 C   0  0  0  0  0  2  0  0  0  0  0  0
  192.4680  175.2470  146.1970 C   0  0  2  0  0  3  0  0  0  0  0  0
  193.8650  175.8460  146.2430 C   0  0  1  0  0  3  0  0  0  0  0  0
  194.5030  175.7800  144.8710 C   0  0  0  0  0  2  0  0  0  0  0  0
  193.9110  177.0810  145.3670 C   0  0  2  0  0  3  0  0  0  0  0  0
  194.9360  177.9150  145.8110 O   0  0  0  0  0  1  0  0  0  0  0  0
  192.0130  175.0250  147.5000 O   0  0  0  0  0  0  0  0  0  0  0  0
  191.3230  176.1910  147.8450 C   0  0  0  0  0  2  0  0  0  0  0  0
  189.5000  177.6920  147.0630 C   0  0  0  0  0  1  0  0  0  0  0  0
  190.0160  176.2670  147.0770 C   0  0  0  0  0  2  0  0  0  0  0  0
  189.8690  173.6540  139.9350 N   0  0  0  0  0  2  0  0  0  0  0  0
  188.6070  174.1310  139.3920 C   0  0  0  0  0  2  0  0  0  0  0  0
  188.3650  174.5770  137.0590 O   0  0  0  0  0  1  0  0  0  0  0  0
  188.3880  173.5530  138.0070 C   0  0  0  0  0  2  0  0  0  0  0  0
  2  1  1  0  0  0  0
  2 17  1  1  0  0  0
  3  1  1  0  0  0  0
  3  7  1  6  0  0  0
  4  3  1  0  0  0  0
  5  2  1  0  0  0  0
  6 29  1  6  0  0  0
  6  4  1  0  0  0  0
  6  5  1  0  0  0  0
  7 10  1  0  0  0  0
  8 13  1  0  0  0  0
  8  7  2  0  0  0  0
 10 14  2  0  0  0  0
 11 15  2  0  0  0  0
 12 11  1  0  0  0  0
 12 14  1  0  0  0  0
 13 12  2  0  0  0  0
 14 16  1  0  0  0  0
 15  9  1  0  0  0  0
 16  9  2  0  0  0  0
 17 18  1  1  0  0  0
 17 19  1  0  0  0  0
 20 19  1  6  0  0  0
 20 25  1  0  0  0  0
 21 20  1  6  0  0  0
 22 23  1  0  0  0  0
 22 21  1  0  0  0  0
 23 24  1  1  0  0  0
 23 21  1  0  0  0  0
 25 26  1  0  0  0  0
 27 28  1  0  0  0  0
 28 26  1  0  0  0  0
 30 29  1  0  0  0  0
 31 32  1  0  0  0  0
 32 30  1  0  0  0  0
M  END
>  <MODEL>
4

>  <REMARK>
 VINA RESULT:      -6.7      2.127      5.813
  Name = 
  11 active torsions:
  status: ('A' for Active; 'I' for Inactive)
    1  A    between atoms: C_2  and  C_5
    2  A    between atoms: C_3  and  C_20
    3  A    between atoms: C_4  and  C_24
    4  A    between atoms: C_13  and  N_18
    5  A    between atoms: C_13  and  C_29
    6  A    between atoms: O_15  and  C_20
    7  A    between atoms: O_15  and  C_26
    8  A    between atoms: C_16  and  C_20
    9  A    between atoms: C_16  and  C_24
   10  A    between atoms: N_18  and  C_30
   11  A    between atoms: C_19  and  C_26
                            x       y       z     vdW  Elec       q    Type
                         _______ _______ _______ _____ _____    ______ ____

>  <TORSDO>
F 11

$$$$
=
 OpenBabel11052419203D

 32 35  0  0  1  0  0  0  0  0999 V2000
  189.8070  176.0750  143.3790 O   0  0  0  0  0  0  0  0  0  0  0  0
  191.1060  175.6820  142.9730 C   0  0  2  0  0  3  0  0  0  0  0  0
  189.5910  175.6770  144.7150 C   0  0  2  0  0  3  0  0  0  0  0  0
  189.5800  174.1540  144.8370 C   0  0  0  0  0  2  0  0  0  0  0  0
  191.3850  174.1740  143.1070 C   0  0  0  0  0  2  0  0  0  0  0  0
  190.9690  173.6500  144.4770 C   0  0  2  0  0  3  0  0  0  0  0  0
  188.3190  176.2660  145.2290 C   0  0  0  0  0  0  0  0  0  0  0  0
  187.9510  176.0510  146.5620 C   0  0  0  0  0  3  0  0  0  0  0  0
  184.3150  178.9200  144.6670 C   0  0  0  0  0  3  0  0  0  0  0  0
  187.4960  177.0460  144.4090 C   0  0  0  0  0  3  0  0  0  0  0  0
  184.8170  177.9000  146.8090 C   0  0  0  0  0  3  0  0  0  0  0  0
  185.9870  177.3540  146.2760 C   0  0  0  0  0  0  0  0  0  0  0  0
  186.8040  176.5940  147.0540 N   0  0  0  0  0  0  0  0  0  0  0  0
  186.3230  177.5950  144.9270 C   0  0  0  0  0  0  0  0  0  0  0  0
  183.9840  178.6850  146.0050 C   0  0  0  0  0  3  0  0  0  0  0  0
  185.4850  178.3740  144.1260 C   0  0  0  0  0  3  0  0  0  0  0  0
  192.2260  176.6520  143.3890 C   0  0  2  0  0  3  0  0  0  0  0  0
  192.1350  177.8540  142.6870 O   0  0  0  0  0  1  0  0  0  0  0  0
  193.6520  176.0900  143.3750 C   0  0  0  0  0  2  0  0  0  0  0  0
  194.4020  176.2560  144.6930 C   0  0  2  0  0  3  0  0  0  0  0  0
  194.7130  174.8830  145.2690 C   0  0  1  0  0  3  0  0  0  0  0  0
  195.2590  173.9780  144.1850 C   0  0  0  0  0  2  0  0  0  0  0  0
  196.2040  174.6250  145.1740 C   0  0  2  0  0  3  0  0  0  0  0  0
  196.5650  173.6920  146.1450 O   0  0  0  0  0  1  0  0  0  0  0  0
  193.6250  176.9770  145.6040 O   0  0  0  0  0  0  0  0  0  0  0  0
  193.2660  176.0490  146.5860 C   0  0  0  0  0  2  0  0  0  0  0  0
  191.3450  175.3000  147.9790 C   0  0  0  0  0  1  0  0  0  0  0  0
  191.9730  176.4760  147.2560 C   0  0  0  0  0  2  0  0  0  0  0  0
  191.0000  172.1980  144.4780 N   0  0  0  0  0  2  0  0  0  0  0  0
  190.5550  171.7610  143.1640 C   0  0  0  0  0  2  0  0  0  0  0  0
  190.6180  169.8090  141.7910 O   0  0  0  0  0  1  0  0  0  0  0  0
  191.3480  170.5450  142.7260 C   0  0  0  0  0  2  0  0  0  0  0  0
  1  3  1  0  0  0  0
  2  5  1  0  0  0  0
  2  1  1  0  0  0  0
  2 17  1  1  0  0  0
  3  4  1  0  0  0  0
  3  7  1  6  0  0  0
  5  6  1  0  0  0  0
  6 29  1  6  0  0  0
  6  4  1  0  0  0  0
  7  8  1  0  0  0  0
  8 13  2  0  0  0  0
  9 15  1  0  0  0  0
 10 14  1  0  0  0  0
 10  7  2  0  0  0  0
 12 11  1  0  0  0  0
 12 13  1  0  0  0  0
 14 12  2  0  0  0  0
 15 11  2  0  0  0  0
 16  9  2  0  0  0  0
 16 14  1  0  0  0  0
 17 18  1  6  0  0  0
 19 17  1  0  0  0  0
 20 19  1  6  0  0  0
 20 25  1  0  0  0  0
 21 20  1  6  0  0  0
 22 23  1  0  0  0  0
 22 21  1  0  0  0  0
 23 21  1  0  0  0  0
 23 24  1  1  0  0  0
 25 26  1  0  0  0  0
 26 28  1  0  0  0  0
 28 27  1  0  0  0  0
 30 29  1  0  0  0  0
 31 32  1  0  0  0  0
 32 30  1  0  0  0  0
M  END
>  <MODEL>
5

>  <REMARK>
 VINA RESULT:      -6.7      2.290      5.255
  Name = 
  11 active torsions:
  status: ('A' for Active; 'I' for Inactive)
    1  A    between atoms: C_2  and  C_5
    2  A    between atoms: C_3  and  C_20
    3  A    between atoms: C_4  and  C_24
    4  A    between atoms: C_13  and  N_18
    5  A    between atoms: C_13  and  C_29
    6  A    between atoms: O_15  and  C_20
    7  A    between atoms: O_15  and  C_26
    8  A    between atoms: C_16  and  C_20
    9  A    between atoms: C_16  and  C_24
   10  A    between atoms: N_18  and  C_30
   11  A    between atoms: C_19  and  C_26
                            x       y       z     vdW  Elec       q    Type
                         _______ _______ _______ _____ _____    ______ ____

>  <TORSDO>
F 11

$$$$
=
 OpenBabel11052419203D

 32 35  0  0  1  0  0  0  0  0999 V2000
  190.5620  176.6740  144.3640 O   0  0  0  0  0  0  0  0  0  0  0  0
  191.7790  176.0580  143.9820 C   0  0  2  0  0  3  0  0  0  0  0  0
  189.5470  175.6980  144.4500 C   0  0  2  0  0  3  0  0  0  0  0  0
  189.2520  175.0940  143.0780 C   0  0  0  0  0  2  0  0  0  0  0  0
  191.7100  175.2780  142.6580 C   0  0  0  0  0  2  0  0  0  0  0  0
  190.4990  174.3530  142.6200 C   0  0  2  0  0  3  0  0  0  0  0  0
  188.3160  176.2860  145.0540 C   0  0  0  0  0  0  0  0  0  0  0  0
  188.0680  176.1090  146.4200 C   0  0  0  0  0  3  0  0  0  0  0  0
  184.2370  178.8680  144.7620 C   0  0  0  0  0  3  0  0  0  0  0  0
  187.4130  177.0290  144.2850 C   0  0  0  0  0  3  0  0  0  0  0  0
  184.9380  177.9230  146.8830 C   0  0  0  0  0  3  0  0  0  0  0  0
  186.0660  177.3750  146.2660 C   0  0  0  0  0  0  0  0  0  0  0  0
  186.9600  176.6510  146.9930 N   0  0  0  0  0  0  0  0  0  0  0  0
  186.2810  177.5780  144.8860 C   0  0  0  0  0  0  0  0  0  0  0  0
  184.0260  178.6710  146.1300 C   0  0  0  0  0  3  0  0  0  0  0  0
  185.3630  178.3210  144.1380 C   0  0  0  0  0  3  0  0  0  0  0  0
  192.5630  175.4210  145.1420 C   0  0  2  0  0  3  0  0  0  0  0  0
  192.8270  176.3560  146.1440 O   0  0  0  0  0  1  0  0  0  0  0  0
  193.8180  174.6270  144.7610 C   0  0  0  0  0  2  0  0  0  0  0  0
  195.1300  175.3220  145.1150 C   0  0  2  0  0  3  0  0  0  0  0  0
  196.0510  175.3000  143.9050 C   0  0  1  0  0  3  0  0  0  0  0  0
  195.3710  175.9610  142.7240 C   0  0  0  0  0  2  0  0  0  0  0  0
  196.4070  176.7220  143.5200 C   0  0  2  0  0  3  0  0  0  0  0  0
  197.6170  176.7150  142.8280 O   0  0  0  0  0  1  0  0  0  0  0  0
  195.7500  174.6680  146.1830 O   0  0  0  0  0  0  0  0  0  0  0  0
  196.7960  173.9430  145.6040 C   0  0  0  0  0  2  0  0  0  0  0  0
  196.2360  171.5680  145.1200 C   0  0  0  0  0  1  0  0  0  0  0  0
  196.8090  172.5260  146.1460 C   0  0  0  0  0  2  0  0  0  0  0  0
  190.3180  173.8360  141.2740 N   0  0  0  0  0  2  0  0  0  0  0  0
  188.8960  173.9100  140.9760 C   0  0  0  0  0  2  0  0  0  0  0  0
  188.1410  174.5190  138.7950 O   0  0  0  0  0  1  0  0  0  0  0  0
  188.6410  173.4580  139.5510 C   0  0  0  0  0  2  0  0  0  0  0  0
  1  3  1  0  0  0  0
  2  1  1  0  0  0  0
  2 17  1  1  0  0  0
  3  7  1  6  0  0  0
  4  3  1  0  0  0  0
  5  2  1  0  0  0  0
  6 29  1  6  0  0  0
  6  5  1  0  0  0  0
  6  4  1  0  0  0  0
  7  8  1  0  0  0  0
  8 13  2  0  0  0  0
  9 15  1  0  0  0  0
 10 14  1  0  0  0  0
 10  7  2  0  0  0  0
 12 11  1  0  0  0  0
 12 13  1  0  0  0  0
 14 12  2  0  0  0  0
 15 11  2  0  0  0  0
 16  9  2  0  0  0  0
 16 14  1  0  0  0  0
 17 18  1  1  0  0  0
 19 17  1  0  0  0  0
 20 19  1  6  0  0  0
 20 25  1  0  0  0  0
 21 20  1  1  0  0  0
 22 23  1  0  0  0  0
 22 21  1  0  0  0  0
 23 24  1  6  0  0  0
 23 21  1  0  0  0  0
 26 28  1  0  0  0  0
 26 25  1  0  0  0  0
 27 28  1  0  0  0  0
 30 29  1  0  0  0  0
 31 32  1  0  0  0  0
 32 30  1  0  0  0  0
M  END
>  <MODEL>
6

>  <REMARK>
 VINA RESULT:      -6.6      2.380      6.123
  Name = 
  11 active torsions:
  status: ('A' for Active; 'I' for Inactive)
    1  A    between atoms: C_2  and  C_5
    2  A    between atoms: C_3  and  C_20
    3  A    between atoms: C_4  and  C_24
    4  A    between atoms: C_13  and  N_18
    5  A    between atoms: C_13  and  C_29
    6  A    between atoms: O_15  and  C_20
    7  A    between atoms: O_15  and  C_26
    8  A    between atoms: C_16  and  C_20
    9  A    between atoms: C_16  and  C_24
   10  A    between atoms: N_18  and  C_30
   11  A    between atoms: C_19  and  C_26
                            x       y       z     vdW  Elec       q    Type
                         _______ _______ _______ _____ _____    ______ ____

>  <TORSDO>
F 11

$$$$
=
 OpenBabel11052419203D

 32 35  0  0  1  0  0  0  0  0999 V2000
  190.2410  176.8460  142.8540 O   0  0  0  0  0  0  0  0  0  0  0  0
  191.4510  176.1130  142.7710 C   0  0  2  0  0  3  0  0  0  0  0  0
  189.2670  176.0720  143.5190 C   0  0  2  0  0  3  0  0  0  0  0  0
  188.9030  174.8330  142.7030 C   0  0  0  0  0  2  0  0  0  0  0  0
  191.3210  174.7480  142.0720 C   0  0  0  0  0  2  0  0  0  0  0  0
  190.1410  173.9530  142.6190 C   0  0  2  0  0  3  0  0  0  0  0  0
  188.0590  176.9000  143.8060 C   0  0  0  0  0  0  0  0  0  0  0  0
  187.6890  177.9100  142.9120 C   0  0  0  0  0  3  0  0  0  0  0  0
  184.2160  178.0420  146.5120 C   0  0  0  0  0  3  0  0  0  0  0  0
  187.2770  176.6740  144.9450 C   0  0  0  0  0  3  0  0  0  0  0  0
  184.6730  179.2530  144.4610 C   0  0  0  0  0  3  0  0  0  0  0  0
  185.8060  178.4650  144.2470 C   0  0  0  0  0  0  0  0  0  0  0  0
  186.5810  178.6650  143.1470 N   0  0  0  0  0  0  0  0  0  0  0  0
  186.1450  177.4550  145.1730 C   0  0  0  0  0  0  0  0  0  0  0  0
  183.8780  179.0390  145.5920 C   0  0  0  0  0  3  0  0  0  0  0  0
  185.3510  177.2500  146.3040 C   0  0  0  0  0  3  0  0  0  0  0  0
  192.3290  176.1860  144.0310 C   0  0  2  0  0  3  0  0  0  0  0  0
  192.9110  177.4470  144.1670 O   0  0  0  0  0  1  0  0  0  0  0  0
  193.3580  175.0630  144.2100 C   0  0  0  0  0  2  0  0  0  0  0  0
  193.0780  174.1410  145.3940 C   0  0  2  0  0  3  0  0  0  0  0  0
  193.2950  172.6970  144.9680 C   0  0  1  0  0  3  0  0  0  0  0  0
  194.5940  172.5730  144.2000 C   0  0  0  0  0  2  0  0  0  0  0  0
  194.5320  172.1520  145.6520 C   0  0  2  0  0  3  0  0  0  0  0  0
  194.4340  170.7630  145.7260 O   0  0  0  0  0  1  0  0  0  0  0  0
  191.7610  174.3040  145.8320 O   0  0  0  0  0  0  0  0  0  0  0  0
  191.8710  174.9130  147.0860 C   0  0  0  0  0  2  0  0  0  0  0  0
  189.3910  174.8340  147.2630 C   0  0  0  0  0  1  0  0  0  0  0  0
  190.6190  175.7160  147.3850 C   0  0  0  0  0  2  0  0  0  0  0  0
  189.8890  172.8010  141.7710 N   0  0  0  0  0  2  0  0  0  0  0  0
  188.7160  173.1090  140.9690 C   0  0  0  0  0  2  0  0  0  0  0  0
  188.2100  173.3580  138.6490 O   0  0  0  0  0  1  0  0  0  0  0  0
  188.8860  172.5540  139.5680 C   0  0  0  0  0  2  0  0  0  0  0  0
  1  3  1  0  0  0  0
  2  1  1  0  0  0  0
  2 17  1  1  0  0  0
  3  7  1  6  0  0  0
  4  3  1  0  0  0  0
  5  6  1  0  0  0  0
  5  2  1  0  0  0  0
  6 29  1  6  0  0  0
  6  4  1  0  0  0  0
  7 10  1  0  0  0  0
  8 13  1  0  0  0  0
  8  7  2  0  0  0  0
 10 14  2  0  0  0  0
 11 15  2  0  0  0  0
 12 11  1  0  0  0  0
 12 14  1  0  0  0  0
 13 12  2  0  0  0  0
 14 16  1  0  0  0  0
 15  9  1  0  0  0  0
 16  9  2  0  0  0  0
 17 18  1  6  0  0  0
 17 19  1  0  0  0  0
 20 19  1  6  0  0  0
 20 25  1  0  0  0  0
 21 20  1  1  0  0  0
 21 23  1  0  0  0  0
 22 21  1  0  0  0  0
 22 23  1  0  0  0  0
 23 24  1  6  0  0  0
 25 26  1  0  0  0  0
 26 28  1  0  0  0  0
 27 28  1  0  0  0  0
 30 29  1  0  0  0  0
 31 32  1  0  0  0  0
 32 30  1  0  0  0  0
M  END
>  <MODEL>
7

>  <REMARK>
 VINA RESULT:      -6.5      2.339      5.430
  Name = 
  11 active torsions:
  status: ('A' for Active; 'I' for Inactive)
    1  A    between atoms: C_2  and  C_5
    2  A    between atoms: C_3  and  C_20
    3  A    between atoms: C_4  and  C_24
    4  A    between atoms: C_13  and  N_18
    5  A    between atoms: C_13  and  C_29
    6  A    between atoms: O_15  and  C_20
    7  A    between atoms: O_15  and  C_26
    8  A    between atoms: C_16  and  C_20
    9  A    between atoms: C_16  and  C_24
   10  A    between atoms: N_18  and  C_30
   11  A    between atoms: C_19  and  C_26
                            x       y       z     vdW  Elec       q    Type
                         _______ _______ _______ _____ _____    ______ ____

>  <TORSDO>
F 11

$$$$
=
 OpenBabel11052419203D

 32 35  0  0  1  0  0  0  0  0999 V2000
  190.5080  176.9390  143.2490 O   0  0  0  0  0  0  0  0  0  0  0  0
  191.6760  176.1440  143.1430 C   0  0  2  0  0  3  0  0  0  0  0  0
  189.3850  176.1040  143.4290 C   0  0  2  0  0  3  0  0  0  0  0  0
  189.1440  175.2390  142.1930 C   0  0  0  0  0  2  0  0  0  0  0  0
  191.6340  175.0970  142.0160 C   0  0  0  0  0  2  0  0  0  0  0  0
  190.3340  174.3020  142.0430 C   0  0  2  0  0  3  0  0  0  0  0  0
  188.1810  176.9220  143.7550 C   0  0  0  0  0  0  0  0  0  0  0  0
  187.7590  177.9120  142.8610 C   0  0  0  0  0  3  0  0  0  0  0  0
  184.4440  178.0630  146.6070 C   0  0  0  0  0  3  0  0  0  0  0  0
  187.4510  176.7050  144.9300 C   0  0  0  0  0  3  0  0  0  0  0  0
  184.7970  179.2460  144.5190 C   0  0  0  0  0  3  0  0  0  0  0  0
  185.9300  178.4670  144.2680 C   0  0  0  0  0  0  0  0  0  0  0  0
  186.6540  178.6580  143.1320 N   0  0  0  0  0  0  0  0  0  0  0  0
  186.3210  177.4770  145.1950 C   0  0  0  0  0  0  0  0  0  0  0  0
  184.0540  179.0410  145.6860 C   0  0  0  0  0  3  0  0  0  0  0  0
  185.5780  177.2810  146.3620 C   0  0  0  0  0  3  0  0  0  0  0  0
  192.2780  175.7130  144.4920 C   0  0  2  0  0  3  0  0  0  0  0  0
  192.4100  176.8020  145.3550 O   0  0  0  0  0  1  0  0  0  0  0  0
  193.5630  174.8790  144.4270 C   0  0  0  0  0  2  0  0  0  0  0  0
  194.8430  175.7060  144.3500 C   0  0  2  0  0  3  0  0  0  0  0  0
  195.6260  175.3040  143.1100 C   0  0  1  0  0  3  0  0  0  0  0  0
  195.2380  176.1880  141.9430 C   0  0  0  0  0  2  0  0  0  0  0  0
  196.5260  176.4500  142.6920 C   0  0  2  0  0  3  0  0  0  0  0  0
  197.5960  175.9410  141.9590 O   0  0  0  0  0  1  0  0  0  0  0  0
  195.6270  175.4880  145.4870 O   0  0  0  0  0  0  0  0  0  0  0  0
  195.4720  174.1290  145.7770 C   0  0  0  0  0  2  0  0  0  0  0  0
  196.8330  172.0470  145.7540 C   0  0  0  0  0  1  0  0  0  0  0  0
  196.8150  173.5170  146.1280 C   0  0  0  0  0  2  0  0  0  0  0  0
  190.2130  173.5170  140.8260 N   0  0  0  0  0  2  0  0  0  0  0  0
  188.8540  173.0020  140.7840 C   0  0  0  0  0  2  0  0  0  0  0  0
  189.0680  173.7920  138.5410 O   0  0  0  0  0  1  0  0  0  0  0  0
  188.3950  172.8700  139.3440 C   0  0  0  0  0  2  0  0  0  0  0  0
  1  3  1  0  0  0  0
  2  1  1  0  0  0  0
  2 17  1  1  0  0  0
  3  7  1  6  0  0  0
  4  3  1  0  0  0  0
  5  6  1  0  0  0  0
  5  2  1  0  0  0  0
  6 29  1  6  0  0  0
  6  4  1  0  0  0  0
  7 10  1  0  0  0  0
  8 13  1  0  0  0  0
  8  7  2  0  0  0  0
 10 14  2  0  0  0  0
 11 15  2  0  0  0  0
 12 11  1  0  0  0  0
 12 14  1  0  0  0  0
 13 12  2  0  0  0  0
 14 16  1  0  0  0  0
 15  9  1  0  0  0  0
 16  9  2  0  0  0  0
 17 18  1  1  0  0  0
 19 17  1  0  0  0  0
 20 19  1  1  0  0  0
 20 25  1  0  0  0  0
 21 20  1  1  0  0  0
 22 23  1  0  0  0  0
 22 21  1  0  0  0  0
 23 24  1  6  0  0  0
 23 21  1  0  0  0  0
 25 26  1  0  0  0  0
 26 28  1  0  0  0  0
 27 28  1  0  0  0  0
 30 29  1  0  0  0  0
 31 32  1  0  0  0  0
 32 30  1  0  0  0  0
M  END
>  <MODEL>
8

>  <REMARK>
 VINA RESULT:      -6.5      2.608      6.224
  Name = 
  11 active torsions:
  status: ('A' for Active; 'I' for Inactive)
    1  A    between atoms: C_2  and  C_5
    2  A    between atoms: C_3  and  C_20
    3  A    between atoms: C_4  and  C_24
    4  A    between atoms: C_13  and  N_18
    5  A    between atoms: C_13  and  C_29
    6  A    between atoms: O_15  and  C_20
    7  A    between atoms: O_15  and  C_26
    8  A    between atoms: C_16  and  C_20
    9  A    between atoms: C_16  and  C_24
   10  A    between atoms: N_18  and  C_30
   11  A    between atoms: C_19  and  C_26
                            x       y       z     vdW  Elec       q    Type
                         _______ _______ _______ _____ _____    ______ ____

>  <TORSDO>
F 11

$$$$
=
 OpenBabel11052419203D

 32 35  0  0  1  0  0  0  0  0999 V2000
  188.8020  177.9690  142.8290 O   0  0  0  0  0  0  0  0  0  0  0  0
  187.6650  177.9990  141.9840 C   0  0  2  0  0  3  0  0  0  0  0  0
  188.6030  177.0170  143.8510 C   0  0  2  0  0  3  0  0  0  0  0  0
  187.4580  177.4360  144.7730 C   0  0  0  0  0  2  0  0  0  0  0  0
  186.3410  178.3000  142.7090 C   0  0  0  0  0  2  0  0  0  0  0  0
  186.1770  177.4320  143.9510 C   0  0  2  0  0  3  0  0  0  0  0  0
  189.8650  176.8160  144.6210 C   0  0  0  0  0  0  0  0  0  0  0  0
  189.8110  176.7080  146.0150 C   0  0  0  0  0  3  0  0  0  0  0  0
  194.6560  176.1970  144.8710 C   0  0  0  0  0  3  0  0  0  0  0  0
  191.1030  176.7140  143.9740 C   0  0  0  0  0  3  0  0  0  0  0  0
  193.3150  176.1980  146.8920 C   0  0  0  0  0  3  0  0  0  0  0  0
  192.1630  176.4070  146.1280 C   0  0  0  0  0  0  0  0  0  0  0  0
  190.9490  176.5070  146.7340 N   0  0  0  0  0  0  0  0  0  0  0  0
  192.2610  176.5100  144.7240 C   0  0  0  0  0  0  0  0  0  0  0  0
  194.5590  176.0910  146.2620 C   0  0  0  0  0  3  0  0  0  0  0  0
  193.5070  176.4070  144.1010 C   0  0  0  0  0  3  0  0  0  0  0  0
  187.6490  176.9110  140.8970 C   0  0  2  0  0  3  0  0  0  0  0  0
  186.6190  177.1310  139.9810 O   0  0  0  0  0  1  0  0  0  0  0  0
  187.6750  175.4590  141.3870 C   0  0  0  0  0  2  0  0  0  0  0  0
  188.9270  174.6850  140.9840 C   0  0  2  0  0  3  0  0  0  0  0  0
  188.5390  173.5620  140.0350 C   0  0  1  0  0  3  0  0  0  0  0  0
  188.1990  174.1290  138.6730 C   0  0  0  0  0  2  0  0  0  0  0  0
  189.5480  173.4870  138.9070 C   0  0  2  0  0  3  0  0  0  0  0  0
  189.5430  172.1970  138.3790 O   0  0  0  0  0  1  0  0  0  0  0  0
  189.5460  174.1460  142.1150 O   0  0  0  0  0  0  0  0  0  0  0  0
  188.7690  173.0340  142.4560 C   0  0  0  0  0  2  0  0  0  0  0  0
  190.0750  173.1410  144.5700 C   0  0  0  0  0  1  0  0  0  0  0  0
  189.4690  172.2210  143.5290 C   0  0  0  0  0  2  0  0  0  0  0  0
  185.0620  177.9180  144.7460 N   0  0  0  0  0  2  0  0  0  0  0  0
  185.2900  177.4800  146.1140 C   0  0  0  0  0  2  0  0  0  0  0  0
  185.8970  179.2180  147.6350 O   0  0  0  0  0  1  0  0  0  0  0  0
  184.8070  178.5410  147.0840 C   0  0  0  0  0  2  0  0  0  0  0  0
  1  3  1  0  0  0  0
  2 17  1  1  0  0  0
  2  5  1  0  0  0  0
  2  1  1  0  0  0  0
  3  7  1  1  0  0  0
  3  4  1  0  0  0  0
  5  6  1  0  0  0  0
  6 29  1  1  0  0  0
  6  4  1  0  0  0  0
  7  8  1  0  0  0  0
  8 13  2  0  0  0  0
  9 15  1  0  0  0  0
 10  7  2  0  0  0  0
 10 14  1  0  0  0  0
 12 13  1  0  0  0  0
 12 11  1  0  0  0  0
 14 12  2  0  0  0  0
 15 11  2  0  0  0  0
 16 14  1  0  0  0  0
 16  9  2  0  0  0  0
 17 18  1  1  0  0  0
 17 19  1  0  0  0  0
 20 19  1  1  0  0  0
 20 25  1  0  0  0  0
 21 20  1  1  0  0  0
 22 23  1  0  0  0  0
 22 21  1  0  0  0  0
 23 24  1  6  0  0  0
 23 21  1  0  0  0  0
 25 26  1  0  0  0  0
 26 28  1  0  0  0  0
 28 27  1  0  0  0  0
 29 30  1  0  0  0  0
 30 32  1  0  0  0  0
 32 31  1  0  0  0  0
M  END
>  <MODEL>
9

>  <REMARK>
 VINA RESULT:      -6.5      2.026      6.150
  Name = 
  11 active torsions:
  status: ('A' for Active; 'I' for Inactive)
    1  A    between atoms: C_2  and  C_5
    2  A    between atoms: C_3  and  C_20
    3  A    between atoms: C_4  and  C_24
    4  A    between atoms: C_13  and  N_18
    5  A    between atoms: C_13  and  C_29
    6  A    between atoms: O_15  and  C_20
    7  A    between atoms: O_15  and  C_26
    8  A    between atoms: C_16  and  C_20
    9  A    between atoms: C_16  and  C_24
   10  A    between atoms: N_18  and  C_30
   11  A    between atoms: C_19  and  C_26
                            x       y       z     vdW  Elec       q    Type
                         _______ _______ _______ _____ _____    ______ ____

>  <TORSDO>
F 11

$$$$
