=
 OpenBabel11052420323D

 34 39  0  0  1  0  0  0  0  0999 V2000
  186.6260  177.7930  144.1800 C   0  0  0  0  0  0  0  0  0  0  0  0
  183.2520  178.5500  142.8030 C   0  0  0  0  0  3  0  0  0  0  0  0
  184.0760  178.5980  145.0710 C   0  0  0  0  0  3  0  0  0  0  0  0
  188.8110  177.4230  146.0720 C   0  0  0  0  0  3  0  0  0  0  0  0
  187.9680  177.3730  143.7350 C   0  0  0  0  0  3  0  0  0  0  0  0
  187.4290  177.8510  146.4870 C   0  0  0  0  0  0  0  0  0  0  0  0
  185.9110  178.4820  148.2730 C   0  0  0  0  0  3  0  0  0  0  0  0
  187.1790  178.0830  147.8430 C   0  0  0  0  0  3  0  0  0  0  0  0
  188.9890  177.1960  144.5860 C   0  0  0  0  0  0  0  0  0  0  0  0
  185.1110  178.4250  145.9890 C   0  0  0  0  0  0  0  0  0  0  0  0
  186.3930  178.0210  145.5490 C   0  0  1  0  0  3  0  0  0  0  0  0
  184.8790  178.6520  147.3480 C   0  0  0  0  0  3  0  0  0  0  0  0
  183.4510  178.3320  141.4370 C   0  0  0  0  0  0  0  0  0  0  0  0
  184.7160  177.9310  140.9830 C   0  0  0  0  0  3  0  0  0  0  0  0
  184.2980  178.3740  143.7120 C   0  0  0  0  0  0  0  0  0  0  0  0
  185.7690  177.7510  141.8820 C   0  0  0  0  0  3  0  0  0  0  0  0
  185.5760  177.9690  143.2550 C   0  0  0  0  0  0  0  0  0  0  0  0
  191.6840  175.7140  142.3530 C   0  0  0  0  0  3  0  0  0  0  0  0
  191.4750  177.0230  144.8220 C   0  0  0  0  0  3  0  0  0  0  0  0
  195.2410  175.8280  143.3840 C   0  0  0  0  0  0  0  0  0  0  0  0
  194.0860  175.5730  142.6290 C   0  0  0  0  0  3  0  0  0  0  0  0
  192.8340  175.9680  143.1040 C   0  0  0  0  0  0  0  0  0  0  0  0
  193.8770  176.8820  145.1000 C   0  0  0  0  0  3  0  0  0  0  0  0
  192.7290  176.6280  144.3480 C   0  0  0  0  0  0  0  0  0  0  0  0
  195.1280  176.4840  144.6190 C   0  0  0  0  0  3  0  0  0  0  0  0
  190.3150  176.7710  144.0730 C   0  0  0  0  0  0  0  0  0  0  0  0
  190.4340  176.1130  142.8350 C   0  0  0  0  0  3  0  0  0  0  0  0
  196.5580  175.4080  142.8780 C   0  0  0  0  0  0  0  0  0  0  0  0
  196.6790  174.3410  142.2200 O   0  0  0  0  0  0  0  0  0  0  0  0
  197.6830  176.1870  143.1220 O   0  0  0  0  0  1  0  0  0  0  0  0
  180.9640  178.2840  140.8210 C   0  0  0  0  0  0  0  0  0  0  0  0
  179.9530  178.5410  139.7620 C   0  0  0  0  0  1  0  0  0  0  0  0
  180.5860  177.8590  141.9440 O   0  0  0  0  0  0  0  0  0  0  0  0
  182.3480  178.5250  140.5410 N   0  0  0  0  0  2  0  0  0  0  0  0
  2 15  1  0  0  0  0
  3 10  1  0  0  0  0
  4  6  2  0  0  0  0
  5  1  1  0  0  0  0
  5  9  2  0  0  0  0
  6  8  1  0  0  0  0
  8  7  2  0  0  0  0
  9  4  1  0  0  0  0
 10 12  2  0  0  0  0
 11  1  1  6  0  0  0
 11 10  1  0  0  0  0
 11  6  1  0  0  0  0
 12  7  1  0  0  0  0
 13  2  2  0  0  0  0
 14 13  1  0  0  0  0
 14 16  2  0  0  0  0
 15  3  2  0  0  0  0
 16 17  1  0  0  0  0
 17 15  1  0  0  0  0
 17  1  2  0  0  0  0
 18 27  2  0  0  0  0
 18 22  1  0  0  0  0
 20 25  1  0  0  0  0
 21 22  1  0  0  0  0
 21 20  2  0  0  0  0
 22 24  2  0  0  0  0
 24 19  1  0  0  0  0
 24 23  1  0  0  0  0
 25 23  2  0  0  0  0
 26  9  1  0  0  0  0
 26 19  2  0  0  0  0
 27 26  1  0  0  0  0
 28 30  1  0  0  0  0
 28 20  1  0  0  0  0
 29 28  2  0  0  0  0
 31 33  2  0  0  0  0
 32 31  1  0  0  0  0
 34 31  1  0  0  0  0
 34 13  1  0  0  0  0
M  END
>  <MODEL>
1

>  <REMARK>
 VINA RESULT:      -9.4      0.000      0.000
  Name = 
  3 active torsions:
  status: ('A' for Active; 'I' for Inactive)
    1  A    between atoms: C_7  and  C_11
    2  A    between atoms: C_18  and  C_30
    3  A    between atoms: C_23  and  N_25
                            x       y       z     vdW  Elec       q    Type
                         _______ _______ _______ _____ _____    ______ ____

>  <TORSDO>
F 3

$$$$
=
 OpenBabel11052420323D

 34 39  0  0  1  0  0  0  0  0999 V2000
  185.7460  177.4460  143.5850 C   0  0  0  0  0  0  0  0  0  0  0  0
  182.4650  179.1550  143.1740 C   0  0  0  0  0  3  0  0  0  0  0  0
  183.9100  178.9590  145.0970 C   0  0  0  0  0  3  0  0  0  0  0  0
  188.2040  176.4540  144.7950 C   0  0  0  0  0  3  0  0  0  0  0  0
  186.7210  176.6530  142.8110 C   0  0  0  0  0  3  0  0  0  0  0  0
  187.1870  177.2660  145.5500 C   0  0  0  0  0  0  0  0  0  0  0  0
  186.5120  178.3090  147.6350 C   0  0  0  0  0  3  0  0  0  0  0  0
  187.4300  177.5590  146.8960 C   0  0  0  0  0  3  0  0  0  0  0  0
  187.8580  176.1860  143.3460 C   0  0  0  0  0  0  0  0  0  0  0  0
  185.0820  178.4910  145.6910 C   0  0  0  0  0  0  0  0  0  0  0  0
  186.0070  177.7310  144.9370 C   0  0  1  0  0  3  0  0  0  0  0  0
  185.3400  178.7740  147.0340 C   0  0  0  0  0  3  0  0  0  0  0  0
  182.1760  178.8890  141.8320 C   0  0  0  0  0  0  0  0  0  0  0  0
  183.0830  178.1370  141.0700 C   0  0  0  0  0  3  0  0  0  0  0  0
  183.6430  178.6810  143.7560 C   0  0  0  0  0  0  0  0  0  0  0  0
  184.2640  177.6580  141.6420 C   0  0  0  0  0  3  0  0  0  0  0  0
  184.5600  177.9210  142.9880 C   0  0  0  0  0  0  0  0  0  0  0  0
  191.0140  174.4570  142.1230 C   0  0  0  0  0  3  0  0  0  0  0  0
  188.3560  174.8170  141.3100 C   0  0  0  0  0  3  0  0  0  0  0  0
  190.9990  172.5670  138.9360 C   0  0  0  0  0  0  0  0  0  0  0  0
  191.4450  173.1390  140.1370 C   0  0  0  0  0  3  0  0  0  0  0  0
  190.5700  173.8870  140.9280 C   0  0  0  0  0  0  0  0  0  0  0  0
  188.7860  173.5000  139.3240 C   0  0  0  0  0  3  0  0  0  0  0  0
  189.2310  174.0680  140.5180 C   0  0  0  0  0  0  0  0  0  0  0  0
  189.6670  172.7520  138.5370 C   0  0  0  0  0  3  0  0  0  0  0  0
  188.7960  175.3930  142.5130 C   0  0  0  0  0  0  0  0  0  0  0  0
  190.1330  175.2040  142.9100 C   0  0  0  0  0  3  0  0  0  0  0  0
  191.9260  171.7800  138.1070 C   0  0  0  0  0  0  0  0  0  0  0  0
  192.4170  172.2720  137.0570 O   0  0  0  0  0  0  0  0  0  0  0  0
  192.2690  170.4850  138.4760 O   0  0  0  0  0  1  0  0  0  0  0  0
  179.6710  178.7610  141.3070 C   0  0  0  0  0  0  0  0  0  0  0  0
  178.5100  179.4380  140.6740 C   0  0  0  0  0  1  0  0  0  0  0  0
  179.5070  177.6400  141.8580 O   0  0  0  0  0  0  0  0  0  0  0  0
  180.9550  179.3960  141.2760 N   0  0  0  0  0  2  0  0  0  0  0  0
  2 15  1  0  0  0  0
  3 10  1  0  0  0  0
  4  6  2  0  0  0  0
  5  9  2  0  0  0  0
  5  1  1  0  0  0  0
  6  8  1  0  0  0  0
  8  7  2  0  0  0  0
  9  4  1  0  0  0  0
 10 12  2  0  0  0  0
 11  1  1  6  0  0  0
 11  6  1  0  0  0  0
 11 10  1  0  0  0  0
 12  7  1  0  0  0  0
 13  2  2  0  0  0  0
 14 16  2  0  0  0  0
 14 13  1  0  0  0  0
 15  3  2  0  0  0  0
 16 17  1  0  0  0  0
 17  1  2  0  0  0  0
 17 15  1  0  0  0  0
 18 27  1  0  0  0  0
 19 26  1  0  0  0  0
 20 21  2  0  0  0  0
 21 22  1  0  0  0  0
 22 18  2  0  0  0  0
 23 24  1  0  0  0  0
 24 22  1  0  0  0  0
 24 19  2  0  0  0  0
 25 20  1  0  0  0  0
 25 23  2  0  0  0  0
 26 27  2  0  0  0  0
 26  9  1  0  0  0  0
 28 30  1  0  0  0  0
 28 20  1  0  0  0  0
 29 28  2  0  0  0  0
 31 33  2  0  0  0  0
 32 31  1  0  0  0  0
 34 31  1  0  0  0  0
 34 13  1  0  0  0  0
M  END
>  <MODEL>
2

>  <REMARK>
 VINA RESULT:      -8.8      2.961      3.943
  Name = 
  3 active torsions:
  status: ('A' for Active; 'I' for Inactive)
    1  A    between atoms: C_7  and  C_11
    2  A    between atoms: C_18  and  C_30
    3  A    between atoms: C_23  and  N_25
                            x       y       z     vdW  Elec       q    Type
                         _______ _______ _______ _____ _____    ______ ____

>  <TORSDO>
F 3

$$$$
=
 OpenBabel11052420323D

 34 39  0  0  1  0  0  0  0  0999 V2000
  194.9320  175.2240  142.8760 C   0  0  0  0  0  0  0  0  0  0  0  0
  197.3910  174.6190  140.1490 C   0  0  0  0  0  3  0  0  0  0  0  0
  197.5360  174.2060  142.5220 C   0  0  0  0  0  3  0  0  0  0  0  0
  193.7250  175.3250  145.5270 C   0  0  0  0  0  3  0  0  0  0  0  0
  193.5700  175.7520  143.0840 C   0  0  0  0  0  3  0  0  0  0  0  0
  195.1100  174.7930  145.2750 C   0  0  0  0  0  0  0  0  0  0  0  0
  197.1460  173.8230  146.1740 C   0  0  0  0  0  3  0  0  0  0  0  0
  195.8550  174.3250  146.3620 C   0  0  0  0  0  3  0  0  0  0  0  0
  192.9940  175.8090  144.2930 C   0  0  0  0  0  0  0  0  0  0  0  0
  196.9730  174.2480  143.7970 C   0  0  0  0  0  0  0  0  0  0  0  0
  195.6660  174.7570  143.9820 C   0  0  2  0  0  3  0  0  0  0  0  0
  197.7040  173.7850  144.8940 C   0  0  0  0  0  3  0  0  0  0  0  0
  196.6870  175.0740  139.0300 C   0  0  0  0  0  0  0  0  0  0  0  0
  195.3900  175.5820  139.1950 C   0  0  0  0  0  3  0  0  0  0  0  0
  196.8150  174.6660  141.4200 C   0  0  0  0  0  0  0  0  0  0  0  0
  194.8040  175.6350  140.4620 C   0  0  0  0  0  3  0  0  0  0  0  0
  195.5050  175.1800  141.5890 C   0  0  0  0  0  0  0  0  0  0  0  0
  189.8490  177.8570  143.6920 C   0  0  0  0  0  3  0  0  0  0  0  0
  190.7730  175.8770  145.4470 C   0  0  0  0  0  3  0  0  0  0  0  0
  186.8780  177.4050  145.8590 C   0  0  0  0  0  0  0  0  0  0  0  0
  187.7180  177.8850  144.8430 C   0  0  0  0  0  3  0  0  0  0  0  0
  189.0120  177.3800  144.7030 C   0  0  0  0  0  0  0  0  0  0  0  0
  188.6430  175.9040  146.5990 C   0  0  0  0  0  3  0  0  0  0  0  0
  189.4780  176.3820  145.5870 C   0  0  0  0  0  0  0  0  0  0  0  0
  187.3480  176.4140  146.7330 C   0  0  0  0  0  3  0  0  0  0  0  0
  191.6200  176.3530  144.4330 C   0  0  0  0  0  0  0  0  0  0  0  0
  191.1440  177.3470  143.5590 C   0  0  0  0  0  3  0  0  0  0  0  0
  185.5140  177.9420  146.0010 C   0  0  0  0  0  0  0  0  0  0  0  0
  184.5800  177.2070  146.4180 O   0  0  0  0  0  1  0  0  0  0  0  0
  185.2450  179.2650  145.6760 O   0  0  0  0  0  0  0  0  0  0  0  0
  197.2110  173.9420  136.7920 C   0  0  0  0  0  0  0  0  0  0  0  0
  197.9410  174.0440  135.5020 C   0  0  0  0  0  1  0  0  0  0  0  0
  196.5100  172.9220  137.0250 O   0  0  0  0  0  0  0  0  0  0  0  0
  197.3190  175.0070  137.7440 N   0  0  0  0  0  2  0  0  0  0  0  0
  1  5  1  0  0  0  0
  2 15  1  0  0  0  0
  3 10  1  0  0  0  0
  5  9  2  0  0  0  0
  6  4  2  0  0  0  0
  6  8  1  0  0  0  0
  7  8  2  0  0  0  0
  9 26  1  0  0  0  0
  9  4  1  0  0  0  0
 10 11  1  0  0  0  0
 10 12  2  0  0  0  0
 11  1  1  1  0  0  0
 11  6  1  0  0  0  0
 12  7  1  0  0  0  0
 13 14  1  0  0  0  0
 13  2  2  0  0  0  0
 14 16  2  0  0  0  0
 15 17  1  0  0  0  0
 15  3  2  0  0  0  0
 16 17  1  0  0  0  0
 17  1  2  0  0  0  0
 18 22  1  0  0  0  0
 19 24  1  0  0  0  0
 20 28  1  0  0  0  0
 20 25  1  0  0  0  0
 21 20  2  0  0  0  0
 22 21  1  0  0  0  0
 22 24  2  0  0  0  0
 23 25  2  0  0  0  0
 24 23  1  0  0  0  0
 26 19  2  0  0  0  0
 27 18  2  0  0  0  0
 27 26  1  0  0  0  0
 28 29  1  0  0  0  0
 30 28  2  0  0  0  0
 31 33  2  0  0  0  0
 31 34  1  0  0  0  0
 32 31  1  0  0  0  0
 34 13  1  0  0  0  0
M  END
>  <MODEL>
3

>  <REMARK>
 VINA RESULT:      -8.7      4.237     10.855
  Name = 
  3 active torsions:
  status: ('A' for Active; 'I' for Inactive)
    1  A    between atoms: C_7  and  C_11
    2  A    between atoms: C_18  and  C_30
    3  A    between atoms: C_23  and  N_25
                            x       y       z     vdW  Elec       q    Type
                         _______ _______ _______ _____ _____    ______ ____

>  <TORSDO>
F 3

$$$$
=
 OpenBabel11052420323D

 34 39  0  0  1  0  0  0  0  0999 V2000
  186.4570  177.7560  143.8700 C   0  0  0  0  0  0  0  0  0  0  0  0
  183.0380  178.6620  142.7130 C   0  0  0  0  0  3  0  0  0  0  0  0
  184.0060  178.6660  144.9230 C   0  0  0  0  0  3  0  0  0  0  0  0
  188.7410  177.2860  145.6180 C   0  0  0  0  0  3  0  0  0  0  0  0
  187.7490  177.2800  143.3390 C   0  0  0  0  0  3  0  0  0  0  0  0
  187.4080  177.7710  146.1210 C   0  0  0  0  0  0  0  0  0  0  0  0
  186.0360  178.4580  148.0010 C   0  0  0  0  0  3  0  0  0  0  0  0
  187.2560  178.0080  147.4910 C   0  0  0  0  0  3  0  0  0  0  0  0
  188.8140  177.0570  144.1230 C   0  0  0  0  0  0  0  0  0  0  0  0
  185.0900  178.4450  145.7730 C   0  0  0  0  0  0  0  0  0  0  0  0
  186.3230  177.9890  145.2510 C   0  0  2  0  0  3  0  0  0  0  0  0
  184.9550  178.6760  147.1440 C   0  0  0  0  0  3  0  0  0  0  0  0
  183.1390  178.4410  141.3360 C   0  0  0  0  0  0  0  0  0  0  0  0
  184.3550  177.9880  140.8020 C   0  0  0  0  0  3  0  0  0  0  0  0
  184.1310  178.4380  143.5530 C   0  0  0  0  0  0  0  0  0  0  0  0
  185.4540  177.7600  141.6320 C   0  0  0  0  0  3  0  0  0  0  0  0
  185.3590  177.9800  143.0140 C   0  0  0  0  0  0  0  0  0  0  0  0
  192.4940  176.7900  143.2130 C   0  0  0  0  0  3  0  0  0  0  0  0
  190.0910  175.4440  142.6970 C   0  0  0  0  0  3  0  0  0  0  0  0
  193.6830  174.0700  140.9960 C   0  0  0  0  0  0  0  0  0  0  0  0
  193.6840  175.2030  141.8230 C   0  0  0  0  0  3  0  0  0  0  0  0
  192.4930  175.6620  142.3900 C   0  0  0  0  0  0  0  0  0  0  0  0
  191.2800  173.8560  141.3070 C   0  0  0  0  0  3  0  0  0  0  0  0
  191.2830  174.9840  142.1300 C   0  0  0  0  0  0  0  0  0  0  0  0
  192.4760  173.4010  140.7430 C   0  0  0  0  0  3  0  0  0  0  0  0
  190.0840  176.5780  143.5260 C   0  0  0  0  0  0  0  0  0  0  0  0
  191.2980  177.2440  143.7770 C   0  0  0  0  0  3  0  0  0  0  0  0
  194.9410  173.5910  140.4020 C   0  0  0  0  0  0  0  0  0  0  0  0
  195.9410  173.3540  141.1300 O   0  0  0  0  0  1  0  0  0  0  0  0
  195.0390  173.3960  139.0300 O   0  0  0  0  0  0  0  0  0  0  0  0
  180.6240  178.4160  140.8470 C   0  0  0  0  0  0  0  0  0  0  0  0
  179.5590  178.7350  139.8620 C   0  0  0  0  0  1  0  0  0  0  0  0
  180.3070  177.9150  141.9580 O   0  0  0  0  0  0  0  0  0  0  0  0
  181.9910  178.6840  140.5130 N   0  0  0  0  0  2  0  0  0  0  0  0
  2 15  1  0  0  0  0
  3 10  1  0  0  0  0
  4  6  2  0  0  0  0
  5  1  1  0  0  0  0
  5  9  2  0  0  0  0
  6  8  1  0  0  0  0
  8  7  2  0  0  0  0
  9  4  1  0  0  0  0
 10 12  2  0  0  0  0
 11  1  1  1  0  0  0
 11 10  1  0  0  0  0
 11  6  1  0  0  0  0
 12  7  1  0  0  0  0
 13  2  2  0  0  0  0
 14 13  1  0  0  0  0
 14 16  2  0  0  0  0
 15  3  2  0  0  0  0
 16 17  1  0  0  0  0
 17 15  1  0  0  0  0
 17  1  2  0  0  0  0
 18 27  1  0  0  0  0
 19 26  1  0  0  0  0
 20 21  2  0  0  0  0
 21 22  1  0  0  0  0
 22 18  2  0  0  0  0
 23 24  1  0  0  0  0
 24 22  1  0  0  0  0
 24 19  2  0  0  0  0
 25 20  1  0  0  0  0
 25 23  2  0  0  0  0
 26 27  2  0  0  0  0
 26  9  1  0  0  0  0
 28 20  1  0  0  0  0
 28 29  1  0  0  0  0
 30 28  2  0  0  0  0
 31 33  2  0  0  0  0
 32 31  1  0  0  0  0
 34 31  1  0  0  0  0
 34 13  1  0  0  0  0
M  END
>  <MODEL>
4

>  <REMARK>
 VINA RESULT:      -8.7      1.276      2.088
  Name = 
  3 active torsions:
  status: ('A' for Active; 'I' for Inactive)
    1  A    between atoms: C_7  and  C_11
    2  A    between atoms: C_18  and  C_30
    3  A    between atoms: C_23  and  N_25
                            x       y       z     vdW  Elec       q    Type
                         _______ _______ _______ _____ _____    ______ ____

>  <TORSDO>
F 3

$$$$
=
 OpenBabel11052420323D

 34 39  0  0  1  0  0  0  0  0999 V2000
  194.8690  175.1420  142.7300 C   0  0  0  0  0  0  0  0  0  0  0  0
  197.3060  174.4470  140.0050 C   0  0  0  0  0  3  0  0  0  0  0  0
  197.4680  174.1060  142.3880 C   0  0  0  0  0  3  0  0  0  0  0  0
  193.6820  175.3270  145.3860 C   0  0  0  0  0  3  0  0  0  0  0  0
  193.5090  175.6800  142.9310 C   0  0  0  0  0  3  0  0  0  0  0  0
  195.0640  174.7840  145.1400 C   0  0  0  0  0  0  0  0  0  0  0  0
  197.1040  173.8360  146.0530 C   0  0  0  0  0  3  0  0  0  0  0  0
  195.8160  174.3470  146.2350 C   0  0  0  0  0  3  0  0  0  0  0  0
  192.9430  175.7750  144.1430 C   0  0  0  0  0  0  0  0  0  0  0  0
  196.9140  174.1890  143.6660 C   0  0  0  0  0  0  0  0  0  0  0  0
  195.6100  174.7070  143.8440 C   0  0  2  0  0  3  0  0  0  0  0  0
  197.6520  173.7570  144.7710 C   0  0  0  0  0  3  0  0  0  0  0  0
  196.5950  174.8700  138.8780 C   0  0  0  0  0  0  0  0  0  0  0  0
  195.3000  175.3870  139.0370 C   0  0  0  0  0  3  0  0  0  0  0  0
  196.7390  174.5350  141.2780 C   0  0  0  0  0  0  0  0  0  0  0  0
  194.7240  175.4790  140.3050 C   0  0  0  0  0  3  0  0  0  0  0  0
  195.4320  175.0570  141.4400 C   0  0  0  0  0  0  0  0  0  0  0  0
  189.6710  176.9740  145.6620 C   0  0  0  0  0  3  0  0  0  0  0  0
  190.8610  176.7330  143.1360 C   0  0  0  0  0  3  0  0  0  0  0  0
  186.9750  178.3000  143.4940 C   0  0  0  0  0  0  0  0  0  0  0  0
  187.6800  177.8970  144.6380 C   0  0  0  0  0  3  0  0  0  0  0  0
  188.9700  177.3760  144.5230 C   0  0  0  0  0  0  0  0  0  0  0  0
  188.8700  177.6550  142.1110 C   0  0  0  0  0  3  0  0  0  0  0  0
  189.5690  177.2550  143.2510 C   0  0  0  0  0  0  0  0  0  0  0  0
  187.5780  178.1760  142.2330 C   0  0  0  0  0  3  0  0  0  0  0  0
  191.5720  176.3270  144.2760 C   0  0  0  0  0  0  0  0  0  0  0  0
  190.9630  176.4540  145.5390 C   0  0  0  0  0  3  0  0  0  0  0  0
  185.6150  178.8480  143.6220 C   0  0  0  0  0  0  0  0  0  0  0  0
  185.4410  180.0640  143.9030 O   0  0  0  0  0  1  0  0  0  0  0  0
  184.5090  178.0290  143.4340 O   0  0  0  0  0  0  0  0  0  0  0  0
  197.2440  173.6030  136.7470 C   0  0  0  0  0  0  0  0  0  0  0  0
  197.9410  173.6750  135.4370 C   0  0  0  0  0  1  0  0  0  0  0  0
  196.6920  172.5260  137.0930 O   0  0  0  0  0  0  0  0  0  0  0  0
  197.2160  174.7620  137.5900 N   0  0  0  0  0  2  0  0  0  0  0  0
  1  5  1  0  0  0  0
  2 15  1  0  0  0  0
  3 10  1  0  0  0  0
  5  9  2  0  0  0  0
  6  4  2  0  0  0  0
  6  8  1  0  0  0  0
  7  8  2  0  0  0  0
  9 26  1  0  0  0  0
  9  4  1  0  0  0  0
 10 11  1  0  0  0  0
 10 12  2  0  0  0  0
 11  1  1  1  0  0  0
 11  6  1  0  0  0  0
 12  7  1  0  0  0  0
 13 14  1  0  0  0  0
 13  2  2  0  0  0  0
 14 16  2  0  0  0  0
 15 17  1  0  0  0  0
 15  3  2  0  0  0  0
 16 17  1  0  0  0  0
 17  1  2  0  0  0  0
 19 24  2  0  0  0  0
 19 26  1  0  0  0  0
 20 28  1  0  0  0  0
 20 21  2  0  0  0  0
 22 21  1  0  0  0  0
 22 18  2  0  0  0  0
 23 25  2  0  0  0  0
 23 24  1  0  0  0  0
 24 22  1  0  0  0  0
 25 20  1  0  0  0  0
 26 27  2  0  0  0  0
 27 18  1  0  0  0  0
 28 29  1  0  0  0  0
 30 28  2  0  0  0  0
 31 33  2  0  0  0  0
 31 34  1  0  0  0  0
 32 31  1  0  0  0  0
 34 13  1  0  0  0  0
M  END
>  <MODEL>
5

>  <REMARK>
 VINA RESULT:      -8.6      3.967     10.875
  Name = 
  3 active torsions:
  status: ('A' for Active; 'I' for Inactive)
    1  A    between atoms: C_7  and  C_11
    2  A    between atoms: C_18  and  C_30
    3  A    between atoms: C_23  and  N_25
                            x       y       z     vdW  Elec       q    Type
                         _______ _______ _______ _____ _____    ______ ____

>  <TORSDO>
F 3

$$$$
=
 OpenBabel11052420323D

 34 39  0  0  1  0  0  0  0  0999 V2000
  189.5110  175.7870  144.0300 C   0  0  0  0  0  0  0  0  0  0  0  0
  192.1640  173.6160  142.5810 C   0  0  0  0  0  3  0  0  0  0  0  0
  192.0650  174.7910  144.6870 C   0  0  0  0  0  3  0  0  0  0  0  0
  188.0770  177.5270  145.8770 C   0  0  0  0  0  3  0  0  0  0  0  0
  188.1730  176.3190  143.7070 C   0  0  0  0  0  3  0  0  0  0  0  0
  189.4420  176.9650  146.1710 C   0  0  0  0  0  0  0  0  0  0  0  0
  191.3190  176.7920  147.6990 C   0  0  0  0  0  3  0  0  0  0  0  0
  190.0530  177.2910  147.3860 C   0  0  0  0  0  3  0  0  0  0  0  0
  187.4950  177.1210  144.5400 C   0  0  0  0  0  0  0  0  0  0  0  0
  191.3920  175.6230  145.5810 C   0  0  0  0  0  0  0  0  0  0  0  0
  190.1100  176.1260  145.2580 C   0  0  2  0  0  3  0  0  0  0  0  0
  191.9880  175.9600  146.7990 C   0  0  0  0  0  3  0  0  0  0  0  0
  191.5960  173.2600  141.3550 C   0  0  0  0  0  0  0  0  0  0  0  0
  190.3260  173.7500  141.0180 C   0  0  0  0  0  3  0  0  0  0  0  0
  191.4780  174.4490  143.4680 C   0  0  0  0  0  0  0  0  0  0  0  0
  189.6310  174.5840  141.8970 C   0  0  0  0  0  3  0  0  0  0  0  0
  190.1950  174.9460  143.1290 C   0  0  0  0  0  0  0  0  0  0  0  0
  184.0480  178.7120  144.7310 C   0  0  0  0  0  3  0  0  0  0  0  0
  185.7030  177.4870  142.8300 C   0  0  0  0  0  3  0  0  0  0  0  0
  181.9040  178.9030  141.7150 C   0  0  0  0  0  0  0  0  0  0  0  0
  182.3460  179.0420  143.0390 C   0  0  0  0  0  3  0  0  0  0  0  0
  183.6080  178.5730  143.4130 C   0  0  0  0  0  0  0  0  0  0  0  0
  184.0030  177.8170  141.1380 C   0  0  0  0  0  3  0  0  0  0  0  0
  184.4410  177.9570  142.4550 C   0  0  0  0  0  0  0  0  0  0  0  0
  182.7390  178.2890  140.7690 C   0  0  0  0  0  3  0  0  0  0  0  0
  186.1530  177.6230  144.1530 C   0  0  0  0  0  0  0  0  0  0  0  0
  185.3110  178.2390  145.0980 C   0  0  0  0  0  3  0  0  0  0  0  0
  180.5740  179.3990  141.3280 C   0  0  0  0  0  0  0  0  0  0  0  0
  179.5330  178.8150  141.7300 O   0  0  0  0  0  1  0  0  0  0  0  0
  180.4530  180.5190  140.5130 O   0  0  0  0  0  0  0  0  0  0  0  0
  191.9730  171.0780  140.0640 C   0  0  0  0  0  0  0  0  0  0  0  0
  192.8690  170.3320  139.1430 C   0  0  0  0  0  1  0  0  0  0  0  0
  190.9110  170.5340  140.4670 O   0  0  0  0  0  0  0  0  0  0  0  0
  192.3360  172.4020  140.4760 N   0  0  0  0  0  2  0  0  0  0  0  0
  2 15  1  0  0  0  0
  3 10  1  0  0  0  0
  4  6  2  0  0  0  0
  5  1  1  0  0  0  0
  5  9  2  0  0  0  0
  6  8  1  0  0  0  0
  8  7  2  0  0  0  0
  9  4  1  0  0  0  0
 10 12  2  0  0  0  0
 11  1  1  6  0  0  0
 11 10  1  0  0  0  0
 11  6  1  0  0  0  0
 12  7  1  0  0  0  0
 13  2  2  0  0  0  0
 14 13  1  0  0  0  0
 14 16  2  0  0  0  0
 15  3  2  0  0  0  0
 16 17  1  0  0  0  0
 17 15  1  0  0  0  0
 17  1  2  0  0  0  0
 18 27  1  0  0  0  0
 19 26  1  0  0  0  0
 20 21  2  0  0  0  0
 21 22  1  0  0  0  0
 22 18  2  0  0  0  0
 23 24  1  0  0  0  0
 24 19  2  0  0  0  0
 24 22  1  0  0  0  0
 25 23  2  0  0  0  0
 25 20  1  0  0  0  0
 26  9  1  0  0  0  0
 26 27  2  0  0  0  0
 28 20  1  0  0  0  0
 28 29  1  0  0  0  0
 30 28  2  0  0  0  0
 31 33  2  0  0  0  0
 31 34  1  0  0  0  0
 32 31  1  0  0  0  0
 34 13  1  0  0  0  0
M  END
>  <MODEL>
6

>  <REMARK>
 VINA RESULT:      -8.4      3.393      9.711
  Name = 
  3 active torsions:
  status: ('A' for Active; 'I' for Inactive)
    1  A    between atoms: C_7  and  C_11
    2  A    between atoms: C_18  and  C_30
    3  A    between atoms: C_23  and  N_25
                            x       y       z     vdW  Elec       q    Type
                         _______ _______ _______ _____ _____    ______ ____

>  <TORSDO>
F 3

$$$$
=
 OpenBabel11052420323D

 34 39  0  0  1  0  0  0  0  0999 V2000
  192.9220  173.2840  143.6720 C   0  0  0  0  0  0  0  0  0  0  0  0
  194.1730  170.9820  141.0290 C   0  0  0  0  0  3  0  0  0  0  0  0
  195.3420  172.1340  142.7980 C   0  0  0  0  0  3  0  0  0  0  0  0
  192.8760  175.0810  145.9660 C   0  0  0  0  0  3  0  0  0  0  0  0
  191.6660  173.8960  144.1470 C   0  0  0  0  0  3  0  0  0  0  0  0
  194.1360  174.4370  145.4530 C   0  0  0  0  0  0  0  0  0  0  0  0
  196.5350  174.1370  145.6620 C   0  0  0  0  0  3  0  0  0  0  0  0
  195.3420  174.7120  146.1050 C   0  0  0  0  0  3  0  0  0  0  0  0
  191.6200  174.7260  145.1990 C   0  0  0  0  0  0  0  0  0  0  0  0
  195.3370  172.9930  143.8970 C   0  0  0  0  0  0  0  0  0  0  0  0
  194.1260  173.5730  144.3410 C   0  0  1  0  0  3  0  0  0  0  0  0
  196.5330  173.2790  144.5600 C   0  0  0  0  0  3  0  0  0  0  0  0
  192.9940  170.6750  140.3440 C   0  0  0  0  0  0  0  0  0  0  0  0
  191.7840  171.2410  140.7710 C   0  0  0  0  0  3  0  0  0  0  0  0
  194.1530  171.8420  142.1290 C   0  0  0  0  0  0  0  0  0  0  0  0
  191.7520  172.1030  141.8690 C   0  0  0  0  0  3  0  0  0  0  0  0
  192.9320  172.4160  142.5610 C   0  0  0  0  0  0  0  0  0  0  0  0
  188.5090  175.4890  147.2450 C   0  0  0  0  0  3  0  0  0  0  0  0
  189.6700  176.2460  144.8090 C   0  0  0  0  0  3  0  0  0  0  0  0
  185.9960  177.9100  145.9990 C   0  0  0  0  0  0  0  0  0  0  0  0
  186.6440  176.9750  146.8200 C   0  0  0  0  0  3  0  0  0  0  0  0
  187.8640  176.4200  146.4270 C   0  0  0  0  0  0  0  0  0  0  0  0
  187.8050  177.7310  144.3820 C   0  0  0  0  0  3  0  0  0  0  0  0
  188.4490  176.8010  145.2010 C   0  0  0  0  0  0  0  0  0  0  0  0
  186.5840  178.2830  144.7800 C   0  0  0  0  0  3  0  0  0  0  0  0
  190.3240  175.3090  145.6250 C   0  0  0  0  0  0  0  0  0  0  0  0
  189.7300  174.9380  146.8460 C   0  0  0  0  0  3  0  0  0  0  0  0
  184.7100  178.4910  146.4170 C   0  0  0  0  0  0  0  0  0  0  0  0
  184.4520  178.6570  147.6390 O   0  0  0  0  0  1  0  0  0  0  0  0
  183.7670  178.8620  145.4670 O   0  0  0  0  0  0  0  0  0  0  0  0
  193.0900  170.1560  137.8360 C   0  0  0  0  0  0  0  0  0  0  0  0
  193.1600  169.0920  136.8010 C   0  0  0  0  0  1  0  0  0  0  0  0
  193.0560  171.3620  137.4780 O   0  0  0  0  0  0  0  0  0  0  0  0
  193.0610  169.7860  139.2200 N   0  0  0  0  0  2  0  0  0  0  0  0
  1  5  1  0  0  0  0
  2 15  1  0  0  0  0
  3 10  1  0  0  0  0
  5  9  2  0  0  0  0
  6  4  2  0  0  0  0
  6  8  1  0  0  0  0
  7  8  2  0  0  0  0
  9 26  1  0  0  0  0
  9  4  1  0  0  0  0
 10 11  1  0  0  0  0
 10 12  2  0  0  0  0
 11  1  1  1  0  0  0
 11  6  1  0  0  0  0
 12  7  1  0  0  0  0
 13 14  1  0  0  0  0
 13  2  2  0  0  0  0
 14 16  2  0  0  0  0
 15 17  1  0  0  0  0
 15  3  2  0  0  0  0
 16 17  1  0  0  0  0
 17  1  2  0  0  0  0
 19 24  2  0  0  0  0
 19 26  1  0  0  0  0
 20 28  1  0  0  0  0
 20 21  2  0  0  0  0
 22 21  1  0  0  0  0
 22 18  2  0  0  0  0
 23 25  2  0  0  0  0
 23 24  1  0  0  0  0
 24 22  1  0  0  0  0
 25 20  1  0  0  0  0
 26 27  2  0  0  0  0
 27 18  1  0  0  0  0
 28 29  1  0  0  0  0
 30 28  2  0  0  0  0
 31 34  1  0  0  0  0
 32 31  1  0  0  0  0
 33 31  2  0  0  0  0
 34 13  1  0  0  0  0
M  END
>  <MODEL>
7

>  <REMARK>
 VINA RESULT:      -8.4      4.400     10.230
  Name = 
  3 active torsions:
  status: ('A' for Active; 'I' for Inactive)
    1  A    between atoms: C_7  and  C_11
    2  A    between atoms: C_18  and  C_30
    3  A    between atoms: C_23  and  N_25
                            x       y       z     vdW  Elec       q    Type
                         _______ _______ _______ _____ _____    ______ ____

>  <TORSDO>
F 3

$$$$
=
 OpenBabel11052420323D

 34 39  0  0  1  0  0  0  0  0999 V2000
  190.9250  176.7250  144.8700 C   0  0  0  0  0  0  0  0  0  0  0  0
  194.3250  175.5870  143.8720 C   0  0  0  0  0  3  0  0  0  0  0  0
  193.4680  176.3050  146.0100 C   0  0  0  0  0  3  0  0  0  0  0  0
  188.7090  177.6900  146.4980 C   0  0  0  0  0  3  0  0  0  0  0  0
  189.5860  176.9500  144.2930 C   0  0  0  0  0  3  0  0  0  0  0  0
  190.0880  177.4470  147.0490 C   0  0  0  0  0  0  0  0  0  0  0  0
  191.5840  177.4850  148.9600 C   0  0  0  0  0  3  0  0  0  0  0  0
  190.3190  177.6960  148.4060 C   0  0  0  0  0  3  0  0  0  0  0  0
  188.5510  177.3940  145.0210 C   0  0  0  0  0  0  0  0  0  0  0  0
  192.4180  176.7680  146.8030 C   0  0  0  0  0  0  0  0  0  0  0  0
  191.1390  176.9800  146.2370 C   0  0  2  0  0  3  0  0  0  0  0  0
  192.6320  177.0220  148.1600 C   0  0  0  0  0  3  0  0  0  0  0  0
  194.1450  175.3230  142.5110 C   0  0  0  0  0  0  0  0  0  0  0  0
  192.8830  175.5270  141.9340 C   0  0  0  0  0  3  0  0  0  0  0  0
  193.2640  176.0490  144.6540 C   0  0  0  0  0  0  0  0  0  0  0  0
  191.8160  175.9900  142.7060 C   0  0  0  0  0  3  0  0  0  0  0  0
  191.9900  176.2570  144.0720 C   0  0  0  0  0  0  0  0  0  0  0  0
  184.8130  177.8920  144.5440 C   0  0  0  0  0  3  0  0  0  0  0  0
  187.1330  177.7050  142.9820 C   0  0  0  0  0  3  0  0  0  0  0  0
  183.3960  178.2920  141.1440 C   0  0  0  0  0  0  0  0  0  0  0  0
  183.4850  178.1890  142.5410 C   0  0  0  0  0  3  0  0  0  0  0  0
  184.7250  177.9940  143.1540 C   0  0  0  0  0  0  0  0  0  0  0  0
  185.8060  178.0010  140.9780 C   0  0  0  0  0  3  0  0  0  0  0  0
  185.8930  177.9000  142.3670 C   0  0  0  0  0  0  0  0  0  0  0  0
  184.5620  178.1970  140.3690 C   0  0  0  0  0  3  0  0  0  0  0  0
  187.2290  177.6000  144.3790 C   0  0  0  0  0  0  0  0  0  0  0  0
  186.0570  177.6970  145.1510 C   0  0  0  0  0  3  0  0  0  0  0  0
  182.0880  178.4970  140.5030 C   0  0  0  0  0  0  0  0  0  0  0  0
  181.5880  177.6020  139.7710 O   0  0  0  0  0  0  0  0  0  0  0  0
  181.3890  179.6820  140.7000 O   0  0  0  0  0  1  0  0  0  0  0  0
  196.3010  175.6460  141.1650 C   0  0  0  0  0  0  0  0  0  0  0  0
  197.3860  174.9780  140.4000 C   0  0  0  0  0  1  0  0  0  0  0  0
  196.3140  176.8990  141.2870 O   0  0  0  0  0  0  0  0  0  0  0  0
  195.2620  174.8490  141.7470 N   0  0  0  0  0  2  0  0  0  0  0  0
  2 15  1  0  0  0  0
  3 10  1  0  0  0  0
  4  6  2  0  0  0  0
  5  1  1  0  0  0  0
  5  9  2  0  0  0  0
  6  8  1  0  0  0  0
  8  7  2  0  0  0  0
  9  4  1  0  0  0  0
 10 12  2  0  0  0  0
 11  1  1  6  0  0  0
 11 10  1  0  0  0  0
 11  6  1  0  0  0  0
 12  7  1  0  0  0  0
 13  2  2  0  0  0  0
 14 13  1  0  0  0  0
 14 16  2  0  0  0  0
 15  3  2  0  0  0  0
 16 17  1  0  0  0  0
 17 15  1  0  0  0  0
 17  1  2  0  0  0  0
 18 27  1  0  0  0  0
 19 26  1  0  0  0  0
 20 21  2  0  0  0  0
 21 22  1  0  0  0  0
 22 18  2  0  0  0  0
 23 24  1  0  0  0  0
 24 19  2  0  0  0  0
 24 22  1  0  0  0  0
 25 23  2  0  0  0  0
 25 20  1  0  0  0  0
 26  9  1  0  0  0  0
 26 27  2  0  0  0  0
 28 30  1  0  0  0  0
 28 20  1  0  0  0  0
 29 28  2  0  0  0  0
 31 33  2  0  0  0  0
 31 34  1  0  0  0  0
 32 31  1  0  0  0  0
 34 13  1  0  0  0  0
M  END
>  <MODEL>
8

>  <REMARK>
 VINA RESULT:      -8.3      2.807      9.828
  Name = 
  3 active torsions:
  status: ('A' for Active; 'I' for Inactive)
    1  A    between atoms: C_7  and  C_11
    2  A    between atoms: C_18  and  C_30
    3  A    between atoms: C_23  and  N_25
                            x       y       z     vdW  Elec       q    Type
                         _______ _______ _______ _____ _____    ______ ____

>  <TORSDO>
F 3

$$$$
=
 OpenBabel11052420323D

 34 39  0  0  1  0  0  0  0  0999 V2000
  187.1800  177.3670  144.5880 C   0  0  0  0  0  0  0  0  0  0  0  0
  190.5770  175.8750  144.8790 C   0  0  0  0  0  3  0  0  0  0  0  0
  189.2680  177.1330  146.4680 C   0  0  0  0  0  3  0  0  0  0  0  0
  184.7310  178.7970  145.2610 C   0  0  0  0  0  3  0  0  0  0  0  0
  186.0750  177.5010  143.6200 C   0  0  0  0  0  3  0  0  0  0  0  0
  185.8790  178.6380  146.2210 C   0  0  0  0  0  0  0  0  0  0  0  0
  186.8100  179.0810  148.4180 C   0  0  0  0  0  3  0  0  0  0  0  0
  185.7680  179.2030  147.4960 C   0  0  0  0  0  3  0  0  0  0  0  0
  184.9390  178.1540  143.9060 C   0  0  0  0  0  0  0  0  0  0  0  0
  188.1020  177.8210  146.8050 C   0  0  0  0  0  0  0  0  0  0  0  0
  187.0510  177.9420  145.8660 C   0  0  1  0  0  3  0  0  0  0  0  0
  187.9750  178.3910  148.0740 C   0  0  0  0  0  3  0  0  0  0  0  0
  190.7370  175.2930  143.6180 C   0  0  0  0  0  0  0  0  0  0  0  0
  189.7040  175.4030  142.6750 C   0  0  0  0  0  3  0  0  0  0  0  0
  189.4040  176.5600  145.2030 C   0  0  0  0  0  0  0  0  0  0  0  0
  188.5270  176.0860  142.9890 C   0  0  0  0  0  3  0  0  0  0  0  0
  188.3600  176.6730  144.2520 C   0  0  0  0  0  0  0  0  0  0  0  0
  183.0970  178.0010  140.5850 C   0  0  0  0  0  3  0  0  0  0  0  0
  182.5840  178.6940  143.2510 C   0  0  0  0  0  3  0  0  0  0  0  0
  179.5300  178.9790  140.3750 C   0  0  0  0  0  0  0  0  0  0  0  0
  180.8080  178.5370  140.0030 C   0  0  0  0  0  3  0  0  0  0  0  0
  181.8250  178.4410  140.9550 C   0  0  0  0  0  0  0  0  0  0  0  0
  180.2950  179.2300  142.6710 C   0  0  0  0  0  3  0  0  0  0  0  0
  181.5660  178.7900  142.2990 C   0  0  0  0  0  0  0  0  0  0  0  0
  179.2810  179.3240  141.7120 C   0  0  0  0  0  3  0  0  0  0  0  0
  183.8660  178.2520  142.8860 C   0  0  0  0  0  0  0  0  0  0  0  0
  184.1100  177.9070  141.5440 C   0  0  0  0  0  3  0  0  0  0  0  0
  178.4630  179.0780  139.3670 C   0  0  0  0  0  0  0  0  0  0  0  0
  178.0830  180.2040  138.9480 O   0  0  0  0  0  1  0  0  0  0  0  0
  177.8640  177.9290  138.8650 O   0  0  0  0  0  0  0  0  0  0  0  0
  193.1700  175.1710  142.8230 C   0  0  0  0  0  0  0  0  0  0  0  0
  194.3430  174.2930  142.5800 C   0  0  0  0  0  1  0  0  0  0  0  0
  193.2610  176.4030  142.5790 O   0  0  0  0  0  0  0  0  0  0  0  0
  191.9580  174.5990  143.3290 N   0  0  0  0  0  2  0  0  0  0  0  0
  2 15  1  0  0  0  0
  3 10  1  0  0  0  0
  4  6  2  0  0  0  0
  5  9  2  0  0  0  0
  5  1  1  0  0  0  0
  6  8  1  0  0  0  0
  8  7  2  0  0  0  0
  9  4  1  0  0  0  0
 10 12  2  0  0  0  0
 11  1  1  1  0  0  0
 11  6  1  0  0  0  0
 11 10  1  0  0  0  0
 12  7  1  0  0  0  0
 13  2  2  0  0  0  0
 14 16  2  0  0  0  0
 14 13  1  0  0  0  0
 15  3  2  0  0  0  0
 16 17  1  0  0  0  0
 17  1  2  0  0  0  0
 17 15  1  0  0  0  0
 18 22  2  0  0  0  0
 18 27  1  0  0  0  0
 20 25  1  0  0  0  0
 21 20  2  0  0  0  0
 21 22  1  0  0  0  0
 22 24  1  0  0  0  0
 24 23  1  0  0  0  0
 24 19  2  0  0  0  0
 25 23  2  0  0  0  0
 26 19  1  0  0  0  0
 26  9  1  0  0  0  0
 27 26  2  0  0  0  0
 28 20  1  0  0  0  0
 29 28  1  0  0  0  0
 30 28  2  0  0  0  0
 31 34  1  0  0  0  0
 32 31  1  0  0  0  0
 33 31  2  0  0  0  0
 34 13  1  0  0  0  0
M  END
>  <MODEL>
9

>  <REMARK>
 VINA RESULT:      -8.3      2.573     10.285
  Name = 
  3 active torsions:
  status: ('A' for Active; 'I' for Inactive)
    1  A    between atoms: C_7  and  C_11
    2  A    between atoms: C_18  and  C_30
    3  A    between atoms: C_23  and  N_25
                            x       y       z     vdW  Elec       q    Type
                         _______ _______ _______ _____ _____    ______ ____

>  <TORSDO>
F 3

$$$$
