=
 OpenBabel11052417213D

 30 33  0  0  1  0  0  0  0  0999 V2000
  190.8730  176.4970  144.3820 C   0  0  0  0  0  0  0  0  0  0  0  0
  191.4600  175.7090  146.5740 C   0  0  0  0  0  3  0  0  0  0  0  0
  188.5030  178.6770  148.0420 O   0  0  0  0  0  0  0  0  0  0  0  0
  187.8930  176.2380  144.6680 C   0  0  0  0  0  2  0  0  0  0  0  0
  190.4330  177.6100  143.6020 N   0  0  0  0  0  2  0  0  0  0  0  0
  187.9640  175.9870  141.4300 C   0  0  1  0  0  3  0  0  0  0  0  0
  189.2350  176.1650  142.0400 O   0  0  0  0  0  0  0  0  0  0  0  0
  189.4080  178.4380  141.6880 O   0  0  0  0  0  0  0  0  0  0  0  0
  185.8760  178.5480  145.6240 C   0  0  2  0  0  3  0  0  0  0  0  0
  187.1660  178.2350  147.8740 C   0  0  1  0  0  3  0  0  0  0  0  0
  189.7070  177.4330  142.3860 C   0  0  0  0  0  0  0  0  0  0  0  0
  186.7580  176.4840  143.6560 C   0  0  2  0  0  3  0  0  0  0  0  0
  191.3690  175.5890  148.0550 C   0  0  0  0  0  2  0  0  0  0  0  0
  186.4010  179.0210  144.2620 C   0  0  0  0  0  2  0  0  0  0  0  0
  188.0700  174.9400  140.3420 C   0  0  0  0  0  1  0  0  0  0  0  0
  191.4590  175.5340  143.8130 O   0  0  0  0  0  0  0  0  0  0  0  0
  189.5790  177.9080  147.6030 C   0  0  0  0  0  0  0  0  0  0  0  0
  191.6130  176.9290  148.6590 C   0  0  0  0  0  3  0  0  0  0  0  0
  186.9250  175.5300  142.4660 C   0  0  0  0  0  2  0  0  0  0  0  0
  190.6270  176.4590  145.8400 C   0  0  0  0  0  0  0  0  0  0  0  0
  188.1760  177.3810  145.6430 C   0  0  1  0  0  3  0  0  0  0  0  0
  186.2010  179.2960  148.3790 C   0  0  0  0  0  1  0  0  0  0  0  0
  186.8990  177.7140  146.4460 C   0  0  2  0  0  3  0  0  0  0  0  0
  185.3550  177.9780  142.3890 O   0  0  0  0  0  1  0  0  0  0  0  0
  190.7910  177.9560  148.4490 C   0  0  0  0  0  3  0  0  0  0  0  0
  189.4620  177.1990  146.4500 C   0  0  0  0  0  0  0  0  0  0  0  0
  186.5040  177.9370  143.1800 C   0  0  2  0  0  3  0  0  0  0  0  0
  184.5340  177.9560  145.5040 N   0  0  0  0  0  0  0  0  0  0  0  0
  183.5680  179.0390  145.4980 C   0  0  0  0  0  1  0  0  0  0  0  0
  184.2580  177.1850  146.5860 O   0  0  0  0  0  1  0  0  0  0  0  0
  1 20  1  0  0  0  0
  2 13  1  0  0  0  0
  5  1  1  0  0  0  0
  6 15  1  6  0  0  0
  6  7  1  0  0  0  0
  6 19  1  0  0  0  0
  7 11  1  0  0  0  0
  8 11  2  0  0  0  0
  9 28  1  6  0  0  0
  9 23  1  0  0  0  0
 10  3  1  0  0  0  0
 10 22  1  6  0  0  0
 11  5  1  0  0  0  0
 12 19  1  6  0  0  0
 12  4  1  0  0  0  0
 13 18  1  0  0  0  0
 14  9  1  0  0  0  0
 16  1  2  0  0  0  0
 17  3  1  0  0  0  0
 17 25  1  0  0  0  0
 20 26  1  0  0  0  0
 20  2  2  0  0  0  0
 21  4  1  1  0  0  0
 21 23  1  0  0  0  0
 21 26  1  0  0  0  0
 23 10  1  0  0  0  0
 24 27  1  0  0  0  0
 25 18  2  0  0  0  0
 26 17  2  0  0  0  0
 27 12  1  0  0  0  0
 27 14  1  0  0  0  0
 28 30  1  0  0  0  0
 29 28  1  0  0  0  0
M  END
>  <MODEL>
1

>  <REMARK>
 VINA RESULT:      -7.9      0.000      0.000
  Name = 
  1 active torsions:
  status: ('A' for Active; 'I' for Inactive)
    1  A    between atoms: N_7  and  C_10
                            x       y       z     vdW  Elec       q    Type
                         _______ _______ _______ _____ _____    ______ ____

>  <TORSDO>
F 1

$$$$
=
 OpenBabel11052417213D

 30 33  0  0  1  0  0  0  0  0999 V2000
  188.3620  177.8160  144.3990 C   0  0  0  0  0  0  0  0  0  0  0  0
  186.0970  177.7640  143.6000 C   0  0  0  0  0  3  0  0  0  0  0  0
  187.8030  175.8970  139.9520 O   0  0  0  0  0  0  0  0  0  0  0  0
  189.0220  174.9340  143.8630 C   0  0  0  0  0  2  0  0  0  0  0  0
  189.7410  177.9210  144.0420 N   0  0  0  0  0  2  0  0  0  0  0  0
  191.2060  175.3660  146.2280 C   0  0  1  0  0  3  0  0  0  0  0  0
  190.4320  176.5160  145.9180 O   0  0  0  0  0  0  0  0  0  0  0  0
  191.9780  177.5430  144.5470 O   0  0  0  0  0  0  0  0  0  0  0  0
  190.3880  173.7680  141.2000 C   0  0  2  0  0  3  0  0  0  0  0  0
  188.1210  174.5280  140.1460 C   0  0  1  0  0  3  0  0  0  0  0  0
  190.7710  177.3590  144.8560 C   0  0  0  0  0  0  0  0  0  0  0  0
  190.2940  174.1180  144.1630 C   0  0  2  0  0  3  0  0  0  0  0  0
  184.9790  177.4280  142.6770 C   0  0  0  0  0  2  0  0  0  0  0  0
  191.4800  174.6150  141.8660 C   0  0  0  0  0  2  0  0  0  0  0  0
  191.3410  175.2410  147.7310 C   0  0  0  0  0  1  0  0  0  0  0  0
  188.0040  178.0910  145.5780 O   0  0  0  0  0  0  0  0  0  0  0  0
  187.2980  176.6750  140.9920 C   0  0  0  0  0  0  0  0  0  0  0  0
  185.2510  178.0500  141.3510 C   0  0  0  0  0  3  0  0  0  0  0  0
  190.5370  174.0980  145.6780 C   0  0  0  0  0  2  0  0  0  0  0  0
  187.3620  177.3700  143.4040 C   0  0  0  0  0  0  0  0  0  0  0  0
  188.8930  175.4680  142.4370 C   0  0  1  0  0  3  0  0  0  0  0  0
  188.7140  173.9480  138.8720 C   0  0  0  0  0  1  0  0  0  0  0  0
  188.9440  174.2960  141.4310 C   0  0  2  0  0  3  0  0  0  0  0  0
  192.5840  173.5400  143.6870 O   0  0  0  0  0  1  0  0  0  0  0  0
  186.2950  177.6900  140.6060 C   0  0  0  0  0  3  0  0  0  0  0  0
  187.7570  176.4740  142.2550 C   0  0  0  0  0  0  0  0  0  0  0  0
  191.5900  174.4730  143.3910 C   0  0  2  0  0  3  0  0  0  0  0  0
  190.5840  172.3340  141.4680 N   0  0  0  0  0  0  0  0  0  0  0  0
  191.0970  171.7210  140.2570 C   0  0  0  0  0  1  0  0  0  0  0  0
  189.3970  171.7380  141.7430 O   0  0  0  0  0  1  0  0  0  0  0  0
  1 16  2  0  0  0  0
  3 10  1  0  0  0  0
  3 17  1  0  0  0  0
  5  1  1  0  0  0  0
  5 11  1  0  0  0  0
  6 15  1  1  0  0  0
  7  6  1  0  0  0  0
  8 11  2  0  0  0  0
  9 23  1  0  0  0  0
  9 28  1  1  0  0  0
  9 14  1  0  0  0  0
 10 22  1  6  0  0  0
 10 23  1  0  0  0  0
 11  7  1  0  0  0  0
 12  4  1  1  0  0  0
 12 19  1  0  0  0  0
 13  2  1  0  0  0  0
 14 27  1  0  0  0  0
 17 26  2  0  0  0  0
 18 13  1  0  0  0  0
 19  6  1  0  0  0  0
 20  2  2  0  0  0  0
 20  1  1  0  0  0  0
 21  4  1  1  0  0  0
 23 21  1  0  0  0  0
 25 17  1  0  0  0  0
 25 18  2  0  0  0  0
 26 21  1  0  0  0  0
 26 20  1  0  0  0  0
 27 24  1  0  0  0  0
 27 12  1  0  0  0  0
 28 30  1  0  0  0  0
 29 28  1  0  0  0  0
M  END
>  <MODEL>
2

>  <REMARK>
 VINA RESULT:      -7.8      2.553      6.960
  Name = 
  1 active torsions:
  status: ('A' for Active; 'I' for Inactive)
    1  A    between atoms: N_7  and  C_10
                            x       y       z     vdW  Elec       q    Type
                         _______ _______ _______ _____ _____    ______ ____

>  <TORSDO>
F 1

$$$$
=
 OpenBabel11052417213D

 30 33  0  0  1  0  0  0  0  0999 V2000
  188.2250  174.5650  140.6770 C   0  0  0  0  0  0  0  0  0  0  0  0
  187.1790  176.7160  140.4540 C   0  0  0  0  0  3  0  0  0  0  0  0
  186.9070  176.6470  144.8840 O   0  0  0  0  0  0  0  0  0  0  0  0
  190.2780  175.3500  142.7260 C   0  0  0  0  0  2  0  0  0  0  0  0
  188.3080  173.3630  141.4440 N   0  0  0  0  0  2  0  0  0  0  0  0
  191.9380  172.8410  141.5000 C   0  0  1  0  0  3  0  0  0  0  0  0
  190.6700  173.0650  140.8980 O   0  0  0  0  0  0  0  0  0  0  0  0
  189.5000  171.4760  142.0930 O   0  0  0  0  0  0  0  0  0  0  0  0
  189.9620  175.1060  145.9130 C   0  0  2  0  0  3  0  0  0  0  0  0
  188.1480  176.9410  145.5050 C   0  0  1  0  0  3  0  0  0  0  0  0
  189.4950  172.5700  141.4680 C   0  0  0  0  0  0  0  0  0  0  0  0
  191.4200  174.5410  143.3700 C   0  0  2  0  0  3  0  0  0  0  0  0
  186.5860  178.0030  140.9090 C   0  0  0  0  0  2  0  0  0  0  0  0
  190.0070  173.6570  145.4080 C   0  0  0  0  0  2  0  0  0  0  0  0
  192.9570  172.5280  140.4250 C   0  0  0  0  0  1  0  0  0  0  0  0
  188.6150  174.5630  139.4770 O   0  0  0  0  0  0  0  0  0  0  0  0
  186.7930  176.5740  143.4970 C   0  0  0  0  0  0  0  0  0  0  0  0
  185.4040  177.7090  141.7660 C   0  0  0  0  0  3  0  0  0  0  0  0
  192.3960  174.0840  142.2770 C   0  0  0  0  0  2  0  0  0  0  0  0
  187.7050  175.8090  141.2870 C   0  0  0  0  0  0  0  0  0  0  0  0
  188.9950  175.4630  143.5490 C   0  0  1  0  0  3  0  0  0  0  0  0
  187.9970  176.8870  147.0170 C   0  0  0  0  0  1  0  0  0  0  0  0
  189.3050  176.1060  144.9200 C   0  0  2  0  0  3  0  0  0  0  0  0
  192.1990  172.8590  144.9090 O   0  0  0  0  0  1  0  0  0  0  0  0
  185.5200  177.0720  142.9310 C   0  0  0  0  0  3  0  0  0  0  0  0
  187.8150  176.0490  142.7730 C   0  0  0  0  0  0  0  0  0  0  0  0
  191.0460  173.3700  144.3130 C   0  0  2  0  0  3  0  0  0  0  0  0
  191.2630  175.5240  146.4580 N   0  0  0  0  0  0  0  0  0  0  0  0
  191.1800  175.4620  147.9060 C   0  0  0  0  0  1  0  0  0  0  0  0
  191.5210  176.8150  146.1310 O   0  0  0  0  0  1  0  0  0  0  0  0
  1 20  1  0  0  0  0
  1  5  1  0  0  0  0
  2 13  1  0  0  0  0
  2 20  2  0  0  0  0
  3 10  1  0  0  0  0
  4 12  1  0  0  0  0
  5 11  1  0  0  0  0
  6 15  1  6  0  0  0
  6 19  1  0  0  0  0
  7 11  1  0  0  0  0
  7  6  1  0  0  0  0
  9 28  1  6  0  0  0
 10 22  1  1  0  0  0
 11  8  2  0  0  0  0
 12 19  1  6  0  0  0
 12 27  1  0  0  0  0
 13 18  1  0  0  0  0
 14  9  1  0  0  0  0
 16  1  2  0  0  0  0
 17  3  1  0  0  0  0
 18 25  2  0  0  0  0
 20 26  1  0  0  0  0
 21  4  1  6  0  0  0
 21 23  1  0  0  0  0
 23 10  1  0  0  0  0
 23  9  1  0  0  0  0
 25 17  1  0  0  0  0
 26 17  2  0  0  0  0
 26 21  1  0  0  0  0
 27 24  1  0  0  0  0
 27 14  1  0  0  0  0
 28 29  1  0  0  0  0
 30 28  1  0  0  0  0
M  END
>  <MODEL>
3

>  <REMARK>
 VINA RESULT:      -7.7      2.791      5.988
  Name = 
  1 active torsions:
  status: ('A' for Active; 'I' for Inactive)
    1  A    between atoms: N_7  and  C_10
                            x       y       z     vdW  Elec       q    Type
                         _______ _______ _______ _____ _____    ______ ____

>  <TORSDO>
F 1

$$$$
=
 OpenBabel11052417213D

 30 33  0  0  1  0  0  0  0  0999 V2000
  188.2000  174.9140  142.3890 C   0  0  0  0  0  0  0  0  0  0  0  0
  187.0770  176.8970  143.1490 C   0  0  0  0  0  3  0  0  0  0  0  0
  189.4540  176.3890  146.8630 O   0  0  0  0  0  0  0  0  0  0  0  0
  191.0040  175.8070  142.9940 C   0  0  0  0  0  2  0  0  0  0  0  0
  188.7980  173.6730  142.7670 N   0  0  0  0  0  2  0  0  0  0  0  0
  191.7990  173.6940  140.6600 C   0  0  1  0  0  3  0  0  0  0  0  0
  190.4080  173.7800  140.9330 O   0  0  0  0  0  0  0  0  0  0  0  0
  190.2690  171.9340  142.3090 O   0  0  0  0  0  0  0  0  0  0  0  0
  192.6300  175.2320  145.7040 C   0  0  2  0  0  3  0  0  0  0  0  0
  190.8000  176.8070  146.7030 C   0  0  1  0  0  3  0  0  0  0  0  0
  189.8250  173.0670  141.9830 C   0  0  0  0  0  0  0  0  0  0  0  0
  192.3590  175.1220  142.7340 C   0  0  2  0  0  3  0  0  0  0  0  0
  186.7760  178.0350  144.0590 C   0  0  0  0  0  2  0  0  0  0  0  0
  192.4700  173.8580  145.0400 C   0  0  0  0  0  2  0  0  0  0  0  0
  192.0150  173.6340  139.1620 C   0  0  0  0  0  1  0  0  0  0  0  0
  187.8130  175.0780  141.1990 O   0  0  0  0  0  0  0  0  0  0  0  0
  188.5550  176.4250  145.7990 C   0  0  0  0  0  0  0  0  0  0  0  0
  186.3430  177.4920  145.3770 C   0  0  0  0  0  3  0  0  0  0  0  0
  192.5390  174.9160  141.2230 C   0  0  0  0  0  2  0  0  0  0  0  0
  188.0520  176.0070  143.3750 C   0  0  0  0  0  0  0  0  0  0  0  0
  190.4400  175.6540  144.4080 C   0  0  1  0  0  3  0  0  0  0  0  0
  191.5670  176.5950  147.9990 C   0  0  0  0  0  1  0  0  0  0  0  0
  191.4500  176.2090  145.4380 C   0  0  2  0  0  3  0  0  0  0  0  0
  194.0040  173.4420  143.2610 O   0  0  0  0  0  1  0  0  0  0  0  0
  187.1620  176.7780  146.1470 C   0  0  0  0  0  3  0  0  0  0  0  0
  188.9930  176.1250  144.5490 C   0  0  0  0  0  0  0  0  0  0  0  0
  192.6880  173.8280  143.5200 C   0  0  2  0  0  3  0  0  0  0  0  0
  193.9720  175.7880  145.4690 N   0  0  0  0  0  0  0  0  0  0  0  0
  194.8490  175.2910  146.5130 C   0  0  0  0  0  1  0  0  0  0  0  0
  193.9500  177.1400  145.5790 O   0  0  0  0  0  1  0  0  0  0  0  0
  1  5  1  0  0  0  0
  1 20  1  0  0  0  0
  2 20  2  0  0  0  0
  2 13  1  0  0  0  0
  6 15  1  6  0  0  0
  6  7  1  0  0  0  0
  6 19  1  0  0  0  0
  7 11  1  0  0  0  0
  9 28  1  6  0  0  0
 10  3  1  0  0  0  0
 10 22  1  1  0  0  0
 11  8  2  0  0  0  0
 11  5  1  0  0  0  0
 12 19  1  6  0  0  0
 12  4  1  0  0  0  0
 12 27  1  0  0  0  0
 13 18  1  0  0  0  0
 14  9  1  0  0  0  0
 16  1  2  0  0  0  0
 17 25  1  0  0  0  0
 17  3  1  0  0  0  0
 18 25  2  0  0  0  0
 20 26  1  0  0  0  0
 21  4  1  6  0  0  0
 21 26  1  0  0  0  0
 21 23  1  0  0  0  0
 23  9  1  0  0  0  0
 23 10  1  0  0  0  0
 24 27  1  0  0  0  0
 26 17  2  0  0  0  0
 27 14  1  0  0  0  0
 28 30  1  0  0  0  0
 28 29  1  0  0  0  0
M  END
>  <MODEL>
4

>  <REMARK>
 VINA RESULT:      -7.4      2.650      6.052
  Name = 
  1 active torsions:
  status: ('A' for Active; 'I' for Inactive)
    1  A    between atoms: N_7  and  C_10
                            x       y       z     vdW  Elec       q    Type
                         _______ _______ _______ _____ _____    ______ ____

>  <TORSDO>
F 1

$$$$
=
 OpenBabel11052417213D

 30 33  0  0  1  0  0  0  0  0999 V2000
  191.7760  176.4440  145.9300 C   0  0  0  0  0  0  0  0  0  0  0  0
  189.5630  176.3300  146.8580 C   0  0  0  0  0  3  0  0  0  0  0  0
  188.3080  175.0640  142.7930 O   0  0  0  0  0  0  0  0  0  0  0  0
  191.8110  173.7070  144.6900 C   0  0  0  0  0  2  0  0  0  0  0  0
  192.5580  176.6920  144.7600 N   0  0  0  0  0  2  0  0  0  0  0  0
  195.0300  173.9950  145.0100 C   0  0  1  0  0  3  0  0  0  0  0  0
  194.2860  175.1160  145.4660 O   0  0  0  0  0  0  0  0  0  0  0  0
  194.5380  176.4150  143.5760 O   0  0  0  0  0  0  0  0  0  0  0  0
  190.9900  172.9880  141.6690 C   0  0  2  0  0  3  0  0  0  0  0  0
  188.6300  173.7090  142.5270 C   0  0  1  0  0  3  0  0  0  0  0  0
  193.8480  176.1070  144.5840 C   0  0  0  0  0  0  0  0  0  0  0  0
  192.9260  172.9540  143.9400 C   0  0  2  0  0  3  0  0  0  0  0  0
  188.1050  176.0330  146.8880 C   0  0  0  0  0  2  0  0  0  0  0  0
  192.2720  173.8200  141.5420 C   0  0  0  0  0  2  0  0  0  0  0  0
  196.1370  173.6920  145.9970 C   0  0  0  0  0  1  0  0  0  0  0  0
  192.3140  176.5410  147.0680 O   0  0  0  0  0  0  0  0  0  0  0  0
  188.6600  175.6670  144.0000 C   0  0  0  0  0  0  0  0  0  0  0  0
  187.4320  176.8350  145.8270 C   0  0  0  0  0  3  0  0  0  0  0  0
  194.1250  172.7600  144.8790 C   0  0  0  0  0  2  0  0  0  0  0  0
  190.3530  176.0560  145.8120 C   0  0  0  0  0  0  0  0  0  0  0  0
  190.7720  174.4060  143.8120 C   0  0  1  0  0  3  0  0  0  0  0  0
  188.1910  173.3380  141.1190 C   0  0  0  0  0  1  0  0  0  0  0  0
  190.0950  173.3770  142.8790 C   0  0  2  0  0  3  0  0  0  0  0  0
  194.2790  172.6060  141.9770 O   0  0  0  0  0  1  0  0  0  0  0  0
  187.6910  176.6480  144.5330 C   0  0  0  0  0  3  0  0  0  0  0  0
  189.8420  175.3420  144.5840 C   0  0  0  0  0  0  0  0  0  0  0  0
  193.3750  173.4960  142.5600 C   0  0  2  0  0  3  0  0  0  0  0  0
  191.2690  171.5490  141.5300 N   0  0  0  0  0  0  0  0  0  0  0  0
  190.9770  171.1690  140.1610 C   0  0  0  0  0  1  0  0  0  0  0  0
  190.4420  170.8270  142.3270 O   0  0  0  0  0  1  0  0  0  0  0  0
  1 16  2  0  0  0  0
  2 13  1  0  0  0  0
  3 17  1  0  0  0  0
  5  1  1  0  0  0  0
  6  7  1  0  0  0  0
  6 15  1  1  0  0  0
  8 11  2  0  0  0  0
  9 28  1  1  0  0  0
  9 23  1  0  0  0  0
 10 22  1  6  0  0  0
 10  3  1  0  0  0  0
 10 23  1  0  0  0  0
 11  5  1  0  0  0  0
 11  7  1  0  0  0  0
 12  4  1  1  0  0  0
 12 19  1  0  0  0  0
 14  9  1  0  0  0  0
 14 27  1  0  0  0  0
 17 25  1  0  0  0  0
 17 26  2  0  0  0  0
 18 13  1  0  0  0  0
 19  6  1  0  0  0  0
 20  1  1  0  0  0  0
 20  2  2  0  0  0  0
 21 26  1  0  0  0  0
 21  4  1  1  0  0  0
 23 21  1  0  0  0  0
 24 27  1  0  0  0  0
 25 18  2  0  0  0  0
 26 20  1  0  0  0  0
 27 12  1  0  0  0  0
 28 30  1  0  0  0  0
 29 28  1  0  0  0  0
M  END
>  <MODEL>
5

>  <REMARK>
 VINA RESULT:      -7.3      3.348      6.886
  Name = 
  1 active torsions:
  status: ('A' for Active; 'I' for Inactive)
    1  A    between atoms: N_7  and  C_10
                            x       y       z     vdW  Elec       q    Type
                         _______ _______ _______ _____ _____    ______ ____

>  <TORSDO>
F 1

$$$$
=
 OpenBabel11052417213D

 30 33  0  0  1  0  0  0  0  0999 V2000
  191.2680  175.5400  146.4730 C   0  0  0  0  0  0  0  0  0  0  0  0
  188.9970  175.9430  147.1450 C   0  0  0  0  0  3  0  0  0  0  0  0
  188.2050  176.5720  142.8240 O   0  0  0  0  0  0  0  0  0  0  0  0
  190.6790  173.5190  144.3290 C   0  0  0  0  0  2  0  0  0  0  0  0
  192.2960  175.8460  145.5290 N   0  0  0  0  0  2  0  0  0  0  0  0
  193.7040  172.5110  144.9480 C   0  0  1  0  0  3  0  0  0  0  0  0
  193.2760  173.6180  145.7290 O   0  0  0  0  0  0  0  0  0  0  0  0
  194.2760  175.2660  144.4620 O   0  0  0  0  0  0  0  0  0  0  0  0
  190.2640  174.1400  141.2060 C   0  0  2  0  0  3  0  0  0  0  0  0
  188.1300  175.3500  142.1060 C   0  0  1  0  0  3  0  0  0  0  0  0
  193.3470  174.9250  145.2400 C   0  0  0  0  0  0  0  0  0  0  0  0
  191.6240  172.6940  143.4340 C   0  0  2  0  0  3  0  0  0  0  0  0
  187.5420  176.1980  146.9670 C   0  0  0  0  0  2  0  0  0  0  0  0
  191.7420  174.4490  141.4760 C   0  0  0  0  0  2  0  0  0  0  0  0
  194.4520  171.5330  145.8300 C   0  0  0  0  0  1  0  0  0  0  0  0
  191.5830  175.0710  147.6020 O   0  0  0  0  0  0  0  0  0  0  0  0
  188.4920  176.5910  144.1870 C   0  0  0  0  0  0  0  0  0  0  0  0
  187.3690  177.4790  146.2270 C   0  0  0  0  0  3  0  0  0  0  0  0
  192.5000  171.7950  144.3170 C   0  0  0  0  0  2  0  0  0  0  0  0
  189.8450  175.7490  146.1270 C   0  0  0  0  0  0  0  0  0  0  0  0
  190.0990  174.7840  143.6970 C   0  0  1  0  0  3  0  0  0  0  0  0
  187.8740  175.6290  140.6330 C   0  0  0  0  0  1  0  0  0  0  0  0
  189.3230  174.4200  142.4110 C   0  0  2  0  0  3  0  0  0  0  0  0
  193.1460  172.5240  141.5750 O   0  0  0  0  0  1  0  0  0  0  0  0
  187.7970  177.6320  144.9740 C   0  0  0  0  0  3  0  0  0  0  0  0
  189.3800  175.6960  144.6920 C   0  0  0  0  0  0  0  0  0  0  0  0
  192.4730  173.4450  142.3790 C   0  0  2  0  0  3  0  0  0  0  0  0
  190.0990  172.8210  140.5730 N   0  0  0  0  0  0  0  0  0  0  0  0
  190.0110  173.0230  139.1380 C   0  0  0  0  0  1  0  0  0  0  0  0
  188.9340  172.2500  140.9660 O   0  0  0  0  0  1  0  0  0  0  0  0
  1 16  2  0  0  0  0
  3 17  1  0  0  0  0
  5  1  1  0  0  0  0
  6  7  1  0  0  0  0
  6 15  1  1  0  0  0
  8 11  2  0  0  0  0
  9 28  1  1  0  0  0
  9 14  1  0  0  0  0
  9 23  1  0  0  0  0
 10 22  1  6  0  0  0
 10 23  1  0  0  0  0
 10  3  1  0  0  0  0
 11  5  1  0  0  0  0
 11  7  1  0  0  0  0
 12 19  1  1  0  0  0
 12  4  1  0  0  0  0
 13  2  1  0  0  0  0
 14 27  1  0  0  0  0
 17 26  2  0  0  0  0
 17 25  1  0  0  0  0
 18 13  1  0  0  0  0
 19  6  1  0  0  0  0
 20  1  1  0  0  0  0
 20  2  2  0  0  0  0
 21  4  1  1  0  0  0
 21 26  1  0  0  0  0
 23 21  1  0  0  0  0
 24 27  1  0  0  0  0
 25 18  2  0  0  0  0
 26 20  1  0  0  0  0
 27 12  1  0  0  0  0
 28 30  1  0  0  0  0
 29 28  1  0  0  0  0
M  END
>  <MODEL>
6

>  <REMARK>
 VINA RESULT:      -7.3      3.025      6.338
  Name = 
  1 active torsions:
  status: ('A' for Active; 'I' for Inactive)
    1  A    between atoms: N_7  and  C_10
                            x       y       z     vdW  Elec       q    Type
                         _______ _______ _______ _____ _____    ______ ____

>  <TORSDO>
F 1

$$$$
=
 OpenBabel11052417213D

 30 33  0  0  1  0  0  0  0  0999 V2000
  190.6440  174.0790  144.6670 C   0  0  0  0  0  0  0  0  0  0  0  0
  191.1550  174.0520  142.3190 C   0  0  0  0  0  3  0  0  0  0  0  0
  186.9480  175.3490  141.7520 O   0  0  0  0  0  0  0  0  0  0  0  0
  189.4710  176.8430  144.7710 C   0  0  0  0  0  2  0  0  0  0  0  0
  189.6330  173.9010  145.6600 N   0  0  0  0  0  2  0  0  0  0  0  0
  190.3690  176.7180  147.8900 C   0  0  1  0  0  3  0  0  0  0  0  0
  190.6640  175.5480  147.1400 O   0  0  0  0  0  0  0  0  0  0  0  0
  188.8340  174.3110  147.8030 O   0  0  0  0  0  0  0  0  0  0  0  0
  186.3620  177.5910  144.4720 C   0  0  2  0  0  3  0  0  0  0  0  0
  186.7650  176.7260  142.0400 C   0  0  1  0  0  3  0  0  0  0  0  0
  189.7040  174.5570  146.9260 C   0  0  0  0  0  0  0  0  0  0  0  0
  188.9480  177.6720  145.9600 C   0  0  2  0  0  3  0  0  0  0  0  0
  190.9220  174.2710  140.8660 C   0  0  0  0  0  2  0  0  0  0  0  0
  186.4580  176.8310  145.8010 C   0  0  0  0  0  2  0  0  0  0  0  0
  191.5450  177.0560  148.7810 C   0  0  0  0  0  1  0  0  0  0  0  0
  191.8590  173.9820  144.9940 O   0  0  0  0  0  0  0  0  0  0  0  0
  188.1900  174.7360  141.9130 C   0  0  0  0  0  0  0  0  0  0  0  0
  189.7460  173.4600  140.4430 C   0  0  0  0  0  3  0  0  0  0  0  0
  190.0920  177.9060  146.9560 C   0  0  0  0  0  2  0  0  0  0  0  0
  190.2750  174.3940  143.2690 C   0  0  0  0  0  0  0  0  0  0  0  0
  188.4080  176.1110  143.9500 C   0  0  1  0  0  3  0  0  0  0  0  0
  185.3060  177.1070  141.8440 C   0  0  0  0  0  1  0  0  0  0  0  0
  187.3830  177.1260  143.3960 C   0  0  2  0  0  3  0  0  0  0  0  0
  187.2700  178.1380  147.6240 O   0  0  0  0  0  1  0  0  0  0  0  0
  188.5240  173.6920  140.9210 C   0  0  0  0  0  3  0  0  0  0  0  0
  188.9840  175.1080  142.9500 C   0  0  0  0  0  0  0  0  0  0  0  0
  187.6650  177.1890  146.6810 C   0  0  2  0  0  3  0  0  0  0  0  0
  186.2970  179.0450  144.6900 N   0  0  0  0  0  0  0  0  0  0  0  0
  185.0240  179.3450  145.3190 C   0  0  0  0  0  1  0  0  0  0  0  0
  186.3170  179.7030  143.5040 O   0  0  0  0  0  1  0  0  0  0  0  0
  1 16  2  0  0  0  0
  1  5  1  0  0  0  0
  2 20  2  0  0  0  0
  3 17  1  0  0  0  0
  3 10  1  0  0  0  0
  5 11  1  0  0  0  0
  6 15  1  1  0  0  0
  7  6  1  0  0  0  0
  9 28  1  1  0  0  0
  9 14  1  0  0  0  0
 10 22  1  1  0  0  0
 10 23  1  0  0  0  0
 11  7  1  0  0  0  0
 11  8  2  0  0  0  0
 12  4  1  6  0  0  0
 12 27  1  0  0  0  0
 12 19  1  0  0  0  0
 13  2  1  0  0  0  0
 14 27  1  0  0  0  0
 17 26  2  0  0  0  0
 18 13  1  0  0  0  0
 18 25  2  0  0  0  0
 19  6  1  0  0  0  0
 20  1  1  0  0  0  0
 21  4  1  6  0  0  0
 23 21  1  0  0  0  0
 23  9  1  0  0  0  0
 25 17  1  0  0  0  0
 26 20  1  0  0  0  0
 26 21  1  0  0  0  0
 27 24  1  0  0  0  0
 28 29  1  0  0  0  0
 30 28  1  0  0  0  0
M  END
>  <MODEL>
7

>  <REMARK>
 VINA RESULT:      -7.2      2.151      5.388
  Name = 
  1 active torsions:
  status: ('A' for Active; 'I' for Inactive)
    1  A    between atoms: N_7  and  C_10
                            x       y       z     vdW  Elec       q    Type
                         _______ _______ _______ _____ _____    ______ ____

>  <TORSDO>
F 1

$$$$
=
 OpenBabel11052417213D

 30 33  0  0  1  0  0  0  0  0999 V2000
  188.1450  174.8160  141.9460 C   0  0  0  0  0  0  0  0  0  0  0  0
  189.0420  172.7380  141.1410 C   0  0  0  0  0  3  0  0  0  0  0  0
  193.0110  174.5180  142.0220 O   0  0  0  0  0  0  0  0  0  0  0  0
  189.6600  174.9070  144.5390 C   0  0  0  0  0  2  0  0  0  0  0  0
  188.3560  176.2220  142.0820 N   0  0  0  0  0  2  0  0  0  0  0  0
  187.1760  176.7580  145.5130 C   0  0  1  0  0  3  0  0  0  0  0  0
  187.0880  176.3070  144.1690 O   0  0  0  0  0  0  0  0  0  0  0  0
  187.8920  178.2240  143.1680 O   0  0  0  0  0  0  0  0  0  0  0  0
  192.4790  176.3650  145.0340 C   0  0  2  0  0  3  0  0  0  0  0  0
  193.3140  174.4990  143.4080 C   0  0  1  0  0  3  0  0  0  0  0  0
  187.7450  176.9730  143.1310 C   0  0  0  0  0  0  0  0  0  0  0  0
  189.6050  175.9130  145.7040 C   0  0  2  0  0  3  0  0  0  0  0  0
  190.0880  171.7230  140.8440 C   0  0  0  0  0  2  0  0  0  0  0  0
  191.4840  177.5050  144.7750 C   0  0  0  0  0  2  0  0  0  0  0  0
  185.8190  176.6390  146.1730 C   0  0  0  0  0  1  0  0  0  0  0  0
  186.9720  174.3560  142.0080 O   0  0  0  0  0  0  0  0  0  0  0  0
  191.7900  174.0460  141.5440 C   0  0  0  0  0  0  0  0  0  0  0  0
  191.0750  172.3160  139.8980 C   0  0  0  0  0  3  0  0  0  0  0  0
  188.1920  175.9180  146.3020 C   0  0  0  0  0  2  0  0  0  0  0  0
  189.2920  173.9020  141.7540 C   0  0  0  0  0  0  0  0  0  0  0  0
  190.7970  175.1100  143.5360 C   0  0  1  0  0  3  0  0  0  0  0  0
  194.6750  175.1340  143.6500 C   0  0  0  0  0  1  0  0  0  0  0  0
  192.1580  175.0530  144.2660 C   0  0  2  0  0  3  0  0  0  0  0  0
  190.1220  178.0670  146.6510 O   0  0  0  0  0  1  0  0  0  0  0  0
  191.8370  173.3560  140.2370 C   0  0  0  0  0  3  0  0  0  0  0  0
  190.6640  174.2580  142.2730 C   0  0  0  0  0  0  0  0  0  0  0  0
  190.1140  177.3540  145.4510 C   0  0  2  0  0  3  0  0  0  0  0  0
  192.7440  176.2040  146.4730 N   0  0  0  0  0  0  0  0  0  0  0  0
  194.0600  176.7510  146.7480 C   0  0  0  0  0  1  0  0  0  0  0  0
  192.7860  174.8880  146.8010 O   0  0  0  0  0  1  0  0  0  0  0  0
  1 16  2  0  0  0  0
  1  5  1  0  0  0  0
  2 20  2  0  0  0  0
  3 10  1  0  0  0  0
  5 11  1  0  0  0  0
  6 15  1  1  0  0  0
  6 19  1  0  0  0  0
  7  6  1  0  0  0  0
  9 28  1  1  0  0  0
 10 22  1  6  0  0  0
 10 23  1  0  0  0  0
 11  8  2  0  0  0  0
 11  7  1  0  0  0  0
 12  4  1  6  0  0  0
 12 19  1  0  0  0  0
 13  2  1  0  0  0  0
 14  9  1  0  0  0  0
 14 27  1  0  0  0  0
 17  3  1  0  0  0  0
 17 26  2  0  0  0  0
 18 25  2  0  0  0  0
 18 13  1  0  0  0  0
 20  1  1  0  0  0  0
 20 26  1  0  0  0  0
 21 23  1  0  0  0  0
 21  4  1  1  0  0  0
 23  9  1  0  0  0  0
 25 17  1  0  0  0  0
 26 21  1  0  0  0  0
 27 12  1  0  0  0  0
 27 24  1  0  0  0  0
 28 29  1  0  0  0  0
 28 30  1  0  0  0  0
M  END
>  <MODEL>
8

>  <REMARK>
 VINA RESULT:      -7.1      2.673      6.551
  Name = 
  1 active torsions:
  status: ('A' for Active; 'I' for Inactive)
    1  A    between atoms: N_7  and  C_10
                            x       y       z     vdW  Elec       q    Type
                         _______ _______ _______ _____ _____    ______ ____

>  <TORSDO>
F 1

$$$$
=
 OpenBabel11052417213D

 30 33  0  0  1  0  0  0  0  0999 V2000
  188.3290  175.3160  142.1760 C   0  0  0  0  0  0  0  0  0  0  0  0
  188.5490  173.3790  140.7720 C   0  0  0  0  0  3  0  0  0  0  0  0
  192.9220  174.0320  141.1640 O   0  0  0  0  0  0  0  0  0  0  0  0
  190.2020  174.4260  144.3500 C   0  0  0  0  0  2  0  0  0  0  0  0
  188.8980  176.5670  142.5650 N   0  0  0  0  0  2  0  0  0  0  0  0
  188.4330  176.4250  146.2000 C   0  0  1  0  0  3  0  0  0  0  0  0
  188.0300  176.3630  144.8390 O   0  0  0  0  0  0  0  0  0  0  0  0
  189.1170  178.2710  144.1300 O   0  0  0  0  0  0  0  0  0  0  0  0
  193.3350  175.1070  144.5460 C   0  0  2  0  0  3  0  0  0  0  0  0
  193.4220  173.5950  142.4170 C   0  0  1  0  0  3  0  0  0  0  0  0
  188.6610  177.1280  143.8560 C   0  0  0  0  0  0  0  0  0  0  0  0
  190.5780  175.0860  145.6900 C   0  0  2  0  0  3  0  0  0  0  0  0
  189.2540  172.2850  140.0500 C   0  0  0  0  0  2  0  0  0  0  0  0
  192.6250  176.4510  144.7530 C   0  0  0  0  0  2  0  0  0  0  0  0
  187.2070  176.4160  147.0890 C   0  0  0  0  0  1  0  0  0  0  0  0
  187.1020  175.1020  142.3820 O   0  0  0  0  0  0  0  0  0  0  0  0
  191.5630  173.9560  140.8620 C   0  0  0  0  0  0  0  0  0  0  0  0
  190.1980  172.8910  139.0690 C   0  0  0  0  0  3  0  0  0  0  0  0
  189.3190  175.2230  146.5580 C   0  0  0  0  0  2  0  0  0  0  0  0
  189.1710  174.2700  141.5550 C   0  0  0  0  0  0  0  0  0  0  0  0
  191.1840  174.6470  143.1990 C   0  0  1  0  0  3  0  0  0  0  0  0
  194.9170  173.8580  142.4990 C   0  0  0  0  0  1  0  0  0  0  0  0
  192.5850  174.1300  143.5980 C   0  0  2  0  0  3  0  0  0  0  0  0
  191.7500  176.7720  146.9500 O   0  0  0  0  0  1  0  0  0  0  0  0
  191.2350  173.6320  139.4570 C   0  0  0  0  0  3  0  0  0  0  0  0
  190.6510  174.1950  141.8400 C   0  0  0  0  0  0  0  0  0  0  0  0
  191.3810  176.4100  145.6530 C   0  0  2  0  0  3  0  0  0  0  0  0
  193.7710  174.5290  145.8280 N   0  0  0  0  0  0  0  0  0  0  0  0
  195.1460  174.9340  146.0540 C   0  0  0  0  0  1  0  0  0  0  0  0
  193.7630  173.1740  145.7630 O   0  0  0  0  0  1  0  0  0  0  0  0
  1 16  2  0  0  0  0
  1  5  1  0  0  0  0
  2 20  2  0  0  0  0
  3 10  1  0  0  0  0
  5 11  1  0  0  0  0
  6 19  1  0  0  0  0
  6 15  1  1  0  0  0
  7  6  1  0  0  0  0
  9 14  1  0  0  0  0
  9 28  1  1  0  0  0
 10 22  1  1  0  0  0
 10 23  1  0  0  0  0
 11  8  2  0  0  0  0
 11  7  1  0  0  0  0
 12  4  1  6  0  0  0
 12 19  1  0  0  0  0
 13  2  1  0  0  0  0
 14 27  1  0  0  0  0
 17  3  1  0  0  0  0
 17 26  2  0  0  0  0
 18 25  2  0  0  0  0
 18 13  1  0  0  0  0
 20 26  1  0  0  0  0
 20  1  1  0  0  0  0
 21 23  1  0  0  0  0
 21  4  1  1  0  0  0
 23  9  1  0  0  0  0
 25 17  1  0  0  0  0
 26 21  1  0  0  0  0
 27 12  1  0  0  0  0
 27 24  1  0  0  0  0
 28 29  1  0  0  0  0
 30 28  1  0  0  0  0
M  END
>  <MODEL>
9

>  <REMARK>
 VINA RESULT:      -7.1      2.899      7.302
  Name = 
  1 active torsions:
  status: ('A' for Active; 'I' for Inactive)
    1  A    between atoms: N_7  and  C_10
                            x       y       z     vdW  Elec       q    Type
                         _______ _______ _______ _____ _____    ______ ____

>  <TORSDO>
F 1

$$$$
