=
 OpenBabel11052417563D

 31 34  0  0  1  0  0  0  0  0999 V2000
  190.9050  173.0410  140.8630 C   0  0  0  0  0  0  0  0  0  0  0  0
  189.7670  175.2770  143.7520 C   0  0  0  0  0  0  0  0  0  0  0  0
  190.7470  175.1850  144.7780 C   0  0  0  0  0  0  0  0  0  0  0  0
  192.7400  174.1670  145.7460 C   0  0  0  0  0  3  0  0  0  0  0  0
  189.7720  174.4370  142.5070 C   0  0  0  0  0  0  0  0  0  0  0  0
  189.7270  172.9420  140.1210 C   0  0  0  0  0  3  0  0  0  0  0  0
  191.7910  174.2460  144.7270 C   0  0  0  0  0  3  0  0  0  0  0  0
  187.6580  176.3630  142.8450 C   0  0  2  0  0  3  0  0  0  0  0  0
  192.0280  172.4140  140.4370 F   0  0  0  0  0  0  0  0  0  0  0  0
  189.6190  176.9640  145.9810 C   0  0  0  0  0  3  0  0  0  0  0  0
  192.6600  175.0250  146.8420 C   0  0  0  0  0  3  0  0  0  0  0  0
  187.3390  175.0190  142.1940 C   0  0  0  0  0  2  0  0  0  0  0  0
  188.7090  176.2030  143.9200 C   0  0  0  0  0  0  0  0  0  0  0  0
  190.9260  173.7860  142.0430 C   0  0  0  0  0  3  0  0  0  0  0  0
  191.5870  176.8560  148.1250 C   0  0  0  0  0  1  0  0  0  0  0  0
  188.5950  174.3500  141.7330 C   0  0  0  0  0  0  0  0  0  0  0  0
  188.5720  173.5940  140.5560 C   0  0  0  0  0  3  0  0  0  0  0  0
  188.6830  177.0240  145.0040 N   0  0  0  0  0  0  0  0  0  0  0  0
  190.6670  176.0450  145.9040 C   0  0  0  0  0  0  0  0  0  0  0  0
  191.6310  175.9640  146.9290 C   0  0  0  0  0  0  0  0  0  0  0  0
  186.7040  179.0120  142.3530 O   0  0  0  0  0  0  0  0  0  0  0  0
  186.0120  178.2710  143.1040 C   0  0  0  0  0  0  0  0  0  0  0  0
  186.4380  176.9380  143.3980 N   0  0  0  0  0  2  0  0  0  0  0  0
  183.6400  178.2180  142.9740 O   0  0  0  0  0  1  0  0  0  0  0  0
  184.7220  178.7650  143.6700 C   0  0  1  0  0  3  0  0  0  0  0  0
  183.4060  178.9080  145.6790 O   0  0  0  0  0  1  0  0  0  0  0  0
  184.6250  178.4580  145.1650 C   0  0  2  0  0  3  0  0  0  0  0  0
  185.7690  179.1050  145.9310 C   0  0  0  0  0  2  0  0  0  0  0  0
  186.1470  178.2810  147.1130 C   0  0  0  0  0  0  0  0  0  0  0  0
  186.6330  178.8320  148.1350 O   0  0  0  0  0  1  0  0  0  0  0  0
  185.9330  176.9090  147.1010 O   0  0  0  0  0  0  0  0  0  0  0  0
  1 14  1  0  0  0  0
  2 13  2  0  0  0  0
  2  3  1  0  0  0  0
  3 19  1  0  0  0  0
  4 11  2  0  0  0  0
  5  2  1  0  0  0  0
  6 17  1  0  0  0  0
  6  1  2  0  0  0  0
  7  3  2  0  0  0  0
  7  4  1  0  0  0  0
  8 23  1  1  0  0  0
  8 13  1  0  0  0  0
  9  1  1  0  0  0  0
 11 20  1  0  0  0  0
 12  8  1  0  0  0  0
 13 18  1  0  0  0  0
 14  5  2  0  0  0  0
 16 12  1  0  0  0  0
 16  5  1  0  0  0  0
 17 16  2  0  0  0  0
 18 10  2  0  0  0  0
 19 10  1  0  0  0  0
 19 20  2  0  0  0  0
 20 15  1  0  0  0  0
 21 22  2  0  0  0  0
 22 23  1  0  0  0  0
 22 25  1  0  0  0  0
 25 24  1  6  0  0  0
 25 27  1  0  0  0  0
 27 26  1  1  0  0  0
 27 28  1  0  0  0  0
 28 29  1  0  0  0  0
 29 30  1  0  0  0  0
 31 29  2  0  0  0  0
M  END
>  <MODEL>
1

>  <REMARK>
 VINA RESULT:      -7.6      0.000      0.000
  Name = 
  5 active torsions:
  status: ('A' for Active; 'I' for Inactive)
    1  A    between atoms: C_1  and  C_24
    2  A    between atoms: C_9  and  C_22
    3  A    between atoms: C_15  and  N_23
    4  A    between atoms: C_19  and  C_22
    5  A    between atoms: C_19  and  C_24
                            x       y       z     vdW  Elec       q    Type
                         _______ _______ _______ _____ _____    ______ ____

>  <TORSDO>
F 5

$$$$
=
 OpenBabel11052417563D

 31 34  0  0  1  0  0  0  0  0999 V2000
  190.5690  176.8820  147.5610 C   0  0  0  0  0  0  0  0  0  0  0  0
  187.9950  176.4810  144.7590 C   0  0  0  0  0  0  0  0  0  0  0  0
  186.8940  177.3270  145.0630 C   0  0  0  0  0  0  0  0  0  0  0  0
  185.6870  178.8030  146.5830 C   0  0  0  0  0  3  0  0  0  0  0  0
  189.1530  176.2420  145.6840 C   0  0  0  0  0  0  0  0  0  0  0  0
  191.3860  175.7720  147.3350 C   0  0  0  0  0  3  0  0  0  0  0  0
  186.7780  177.9810  146.3000 C   0  0  0  0  0  3  0  0  0  0  0  0
  189.1550  174.9180  143.1270 C   0  0  2  0  0  3  0  0  0  0  0  0
  190.8490  177.7330  148.5770 F   0  0  0  0  0  0  0  0  0  0  0  0
  185.9500  176.8430  142.8810 C   0  0  0  0  0  3  0  0  0  0  0  0
  184.6860  178.9850  145.6310 C   0  0  0  0  0  3  0  0  0  0  0  0
  189.7010  174.1770  144.3460 C   0  0  0  0  0  2  0  0  0  0  0  0
  187.9940  175.8050  143.5140 C   0  0  0  0  0  0  0  0  0  0  0  0
  189.4650  177.1150  146.7390 C   0  0  0  0  0  3  0  0  0  0  0  0
  183.6630  178.5660  143.4110 C   0  0  0  0  0  1  0  0  0  0  0  0
  190.0020  175.1390  145.4510 C   0  0  0  0  0  0  0  0  0  0  0  0
  191.1010  174.9010  146.2820 C   0  0  0  0  0  3  0  0  0  0  0  0
  186.9960  176.0240  142.6160 N   0  0  0  0  0  0  0  0  0  0  0  0
  185.8620  177.5080  144.1050 C   0  0  0  0  0  0  0  0  0  0  0  0
  184.7640  178.3440  144.3940 C   0  0  0  0  0  0  0  0  0  0  0  0
  190.7850  174.0150  140.9590 O   0  0  0  0  0  0  0  0  0  0  0  0
  189.6210  173.5380  141.0550 C   0  0  0  0  0  0  0  0  0  0  0  0
  188.7520  173.9540  142.1110 N   0  0  0  0  0  2  0  0  0  0  0  0
  188.1130  173.0140  139.2950 O   0  0  0  0  0  1  0  0  0  0  0  0
  189.1470  172.5060  140.0860 C   0  0  1  0  0  3  0  0  0  0  0  0
  190.0320  172.2110  137.8680 O   0  0  0  0  0  1  0  0  0  0  0  0
  190.3000  171.9940  139.2220 C   0  0  2  0  0  3  0  0  0  0  0  0
  190.5450  170.5110  139.4600 C   0  0  0  0  0  2  0  0  0  0  0  0
  191.2260  170.2910  140.7670 C   0  0  0  0  0  0  0  0  0  0  0  0
  192.3700  170.7750  140.9700 O   0  0  0  0  0  0  0  0  0  0  0  0
  190.5860  169.5800  141.7730 O   0  0  0  0  0  1  0  0  0  0  0  0
  1  9  1  0  0  0  0
  2  3  1  0  0  0  0
  2  5  1  0  0  0  0
  3  7  1  0  0  0  0
  5 14  1  0  0  0  0
  6  1  1  0  0  0  0
  7  4  2  0  0  0  0
  8 23  1  6  0  0  0
  8 13  1  0  0  0  0
  8 12  1  0  0  0  0
 10 19  1  0  0  0  0
 11  4  1  0  0  0  0
 12 16  1  0  0  0  0
 13  2  2  0  0  0  0
 14  1  2  0  0  0  0
 15 20  1  0  0  0  0
 16  5  2  0  0  0  0
 16 17  1  0  0  0  0
 17  6  2  0  0  0  0
 18 10  2  0  0  0  0
 18 13  1  0  0  0  0
 19 20  1  0  0  0  0
 19  3  2  0  0  0  0
 20 11  2  0  0  0  0
 21 22  2  0  0  0  0
 22 23  1  0  0  0  0
 25 24  1  6  0  0  0
 25 22  1  0  0  0  0
 27 26  1  6  0  0  0
 27 28  1  0  0  0  0
 27 25  1  0  0  0  0
 28 29  1  0  0  0  0
 29 30  2  0  0  0  0
 29 31  1  0  0  0  0
M  END
>  <MODEL>
2

>  <REMARK>
 VINA RESULT:      -7.6      4.132      7.578
  Name = 
  5 active torsions:
  status: ('A' for Active; 'I' for Inactive)
    1  A    between atoms: C_1  and  C_24
    2  A    between atoms: C_9  and  C_22
    3  A    between atoms: C_15  and  N_23
    4  A    between atoms: C_19  and  C_22
    5  A    between atoms: C_19  and  C_24
                            x       y       z     vdW  Elec       q    Type
                         _______ _______ _______ _____ _____    ______ ____

>  <TORSDO>
F 5

$$$$
=
 OpenBabel11052417563D

 31 34  0  0  1  0  0  0  0  0999 V2000
  185.3580  178.3980  146.2360 C   0  0  0  0  0  0  0  0  0  0  0  0
  188.3530  176.4430  144.8780 C   0  0  0  0  0  0  0  0  0  0  0  0
  189.3940  176.5270  145.8430 C   0  0  0  0  0  0  0  0  0  0  0  0
  190.3430  177.4530  147.8900 C   0  0  0  0  0  3  0  0  0  0  0  0
  187.0580  177.1980  144.9700 C   0  0  0  0  0  0  0  0  0  0  0  0
  184.5840  178.5370  145.0830 C   0  0  0  0  0  3  0  0  0  0  0  0
  189.3090  177.3800  146.9560 C   0  0  0  0  0  3  0  0  0  0  0  0
  187.4680  175.4620  142.7100 C   0  0  2  0  0  3  0  0  0  0  0  0
  184.9200  178.9100  147.4120 F   0  0  0  0  0  0  0  0  0  0  0  0
  190.6790  174.9180  144.5610 C   0  0  0  0  0  3  0  0  0  0  0  0
  191.4880  176.6750  147.7250 C   0  0  0  0  0  3  0  0  0  0  0  0
  186.7260  176.7820  142.5060 C   0  0  0  0  0  2  0  0  0  0  0  0
  188.5540  175.6110  143.7500 C   0  0  0  0  0  0  0  0  0  0  0  0
  186.5820  177.7300  146.1790 C   0  0  0  0  0  3  0  0  0  0  0  0
  192.8570  175.0150  146.4910 C   0  0  0  0  0  1  0  0  0  0  0  0
  186.2540  177.3240  143.8170 C   0  0  0  0  0  0  0  0  0  0  0  0
  185.0320  178.0020  143.8740 C   0  0  0  0  0  3  0  0  0  0  0  0
  189.6870  174.8660  143.6410 N   0  0  0  0  0  0  0  0  0  0  0  0
  190.5690  175.7490  145.6770 C   0  0  0  0  0  0  0  0  0  0  0  0
  191.6100  175.8230  146.6260 C   0  0  0  0  0  0  0  0  0  0  0  0
  187.5450  172.7570  141.7910 O   0  0  0  0  0  0  0  0  0  0  0  0
  188.0260  173.6450  141.0360 C   0  0  0  0  0  0  0  0  0  0  0  0
  188.0270  175.0160  141.4400 N   0  0  0  0  0  2  0  0  0  0  0  0
  188.2030  174.2320  138.7400 O   0  0  0  0  0  1  0  0  0  0  0  0
  188.5720  173.2800  139.6950 C   0  0  1  0  0  3  0  0  0  0  0  0
  190.6790  173.6130  138.5810 O   0  0  0  0  0  1  0  0  0  0  0  0
  190.0910  173.1140  139.7460 C   0  0  2  0  0  3  0  0  0  0  0  0
  190.4740  171.6530  139.9230 C   0  0  0  0  0  2  0  0  0  0  0  0
  190.8130  171.3630  141.3460 C   0  0  0  0  0  0  0  0  0  0  0  0
  191.3440  172.2530  142.0600 O   0  0  0  0  0  1  0  0  0  0  0  0
  190.5130  170.1230  141.8930 O   0  0  0  0  0  0  0  0  0  0  0  0
  1  9  1  0  0  0  0
  2  5  1  0  0  0  0
  2  3  1  0  0  0  0
  3  7  1  0  0  0  0
  5 14  2  0  0  0  0
  6  1  2  0  0  0  0
  7  4  2  0  0  0  0
  8 23  1  6  0  0  0
  8 13  1  0  0  0  0
 10 19  1  0  0  0  0
 11  4  1  0  0  0  0
 12  8  1  0  0  0  0
 12 16  1  0  0  0  0
 13  2  2  0  0  0  0
 14  1  1  0  0  0  0
 15 20  1  0  0  0  0
 16 17  2  0  0  0  0
 16  5  1  0  0  0  0
 17  6  1  0  0  0  0
 18 13  1  0  0  0  0
 18 10  2  0  0  0  0
 19  3  2  0  0  0  0
 19 20  1  0  0  0  0
 20 11  2  0  0  0  0
 22 23  1  0  0  0  0
 22 21  2  0  0  0  0
 25 24  1  6  0  0  0
 25 27  1  0  0  0  0
 25 22  1  0  0  0  0
 27 26  1  6  0  0  0
 27 28  1  0  0  0  0
 28 29  1  0  0  0  0
 29 31  2  0  0  0  0
 29 30  1  0  0  0  0
M  END
>  <MODEL>
3

>  <REMARK>
 VINA RESULT:      -7.6      3.939      6.618
  Name = 
  5 active torsions:
  status: ('A' for Active; 'I' for Inactive)
    1  A    between atoms: C_1  and  C_24
    2  A    between atoms: C_9  and  C_22
    3  A    between atoms: C_15  and  N_23
    4  A    between atoms: C_19  and  C_22
    5  A    between atoms: C_19  and  C_24
                            x       y       z     vdW  Elec       q    Type
                         _______ _______ _______ _____ _____    ______ ____

>  <TORSDO>
F 5

$$$$
=
 OpenBabel11052417563D

 31 34  0  0  1  0  0  0  0  0999 V2000
  185.0990  178.3150  147.0140 C   0  0  0  0  0  0  0  0  0  0  0  0
  187.0080  177.3220  143.8510 C   0  0  0  0  0  0  0  0  0  0  0  0
  186.1490  177.5500  142.7410 C   0  0  0  0  0  0  0  0  0  0  0  0
  183.9640  178.0910  141.8050 C   0  0  0  0  0  3  0  0  0  0  0  0
  186.5830  177.4520  145.2850 C   0  0  0  0  0  0  0  0  0  0  0  0
  185.8860  177.7180  148.0000 C   0  0  0  0  0  3  0  0  0  0  0  0
  184.7930  177.8760  142.9060 C   0  0  0  0  0  3  0  0  0  0  0  0
  189.3080  176.7020  144.7330 C   0  0  2  0  0  3  0  0  0  0  0  0
  183.9970  179.0220  147.3630 F   0  0  0  0  0  0  0  0  0  0  0  0
  187.9980  177.0780  141.2430 C   0  0  0  0  0  3  0  0  0  0  0  0
  184.4760  177.9800  140.5130 C   0  0  0  0  0  3  0  0  0  0  0  0
  188.5940  176.0750  145.9300 C   0  0  0  0  0  2  0  0  0  0  0  0
  188.3440  176.9280  143.5910 C   0  0  0  0  0  0  0  0  0  0  0  0
  185.4490  178.1860  145.6690 C   0  0  0  0  0  3  0  0  0  0  0  0
  186.3170  177.5390  138.9100 C   0  0  0  0  0  1  0  0  0  0  0  0
  187.3830  176.8750  146.2940 C   0  0  0  0  0  0  0  0  0  0  0  0
  187.0260  176.9970  147.6400 C   0  0  0  0  0  3  0  0  0  0  0  0
  188.7970  176.8440  142.3120 N   0  0  0  0  0  0  0  0  0  0  0  0
  186.6580  177.4270  141.4220 C   0  0  0  0  0  0  0  0  0  0  0  0
  185.8180  177.6500  140.3130 C   0  0  0  0  0  0  0  0  0  0  0  0
  191.8860  177.6010  143.8890 O   0  0  0  0  0  0  0  0  0  0  0  0
  191.6790  176.3570  143.9130 C   0  0  0  0  0  0  0  0  0  0  0  0
  190.4080  175.8420  144.3180 N   0  0  0  0  0  2  0  0  0  0  0  0
  193.1990  175.6240  142.2410 O   0  0  0  0  0  1  0  0  0  0  0  0
  192.7700  175.4040  143.5530 C   0  0  1  0  0  3  0  0  0  0  0  0
  195.0020  174.7060  144.1190 O   0  0  0  0  0  1  0  0  0  0  0  0
  193.9360  175.5060  144.5370 C   0  0  2  0  0  3  0  0  0  0  0  0
  193.5070  175.0910  145.9360 C   0  0  0  0  0  2  0  0  0  0  0  0
  193.2990  176.2860  146.8020 C   0  0  0  0  0  0  0  0  0  0  0  0
  194.1950  177.1650  146.8880 O   0  0  0  0  0  0  0  0  0  0  0  0
  192.1020  176.4470  147.4880 O   0  0  0  0  0  1  0  0  0  0  0  0
  1  9  1  0  0  0  0
  1  6  1  0  0  0  0
  2  5  1  0  0  0  0
  3  7  1  0  0  0  0
  3  2  2  0  0  0  0
  4  7  2  0  0  0  0
  5 14  1  0  0  0  0
  5 16  2  0  0  0  0
  8 23  1  6  0  0  0
  8 12  1  0  0  0  0
 10 19  2  0  0  0  0
 10 18  1  0  0  0  0
 11  4  1  0  0  0  0
 12 16  1  0  0  0  0
 13  2  1  0  0  0  0
 13  8  1  0  0  0  0
 14  1  2  0  0  0  0
 15 20  1  0  0  0  0
 16 17  1  0  0  0  0
 17  6  2  0  0  0  0
 18 13  2  0  0  0  0
 19  3  1  0  0  0  0
 20 11  2  0  0  0  0
 20 19  1  0  0  0  0
 21 22  2  0  0  0  0
 22 23  1  0  0  0  0
 25 24  1  6  0  0  0
 25 22  1  0  0  0  0
 25 27  1  0  0  0  0
 27 26  1  6  0  0  0
 27 28  1  0  0  0  0
 28 29  1  0  0  0  0
 29 30  2  0  0  0  0
 29 31  1  0  0  0  0
M  END
>  <MODEL>
4

>  <REMARK>
 VINA RESULT:      -7.6      4.153      7.826
  Name = 
  5 active torsions:
  status: ('A' for Active; 'I' for Inactive)
    1  A    between atoms: C_1  and  C_24
    2  A    between atoms: C_9  and  C_22
    3  A    between atoms: C_15  and  N_23
    4  A    between atoms: C_19  and  C_22
    5  A    between atoms: C_19  and  C_24
                            x       y       z     vdW  Elec       q    Type
                         _______ _______ _______ _____ _____    ______ ____

>  <TORSDO>
F 5

$$$$
=
 OpenBabel11052417563D

 31 34  0  0  1  0  0  0  0  0999 V2000
  190.8240  176.7590  147.6390 C   0  0  0  0  0  0  0  0  0  0  0  0
  188.1400  176.5640  144.9190 C   0  0  0  0  0  0  0  0  0  0  0  0
  187.0470  177.3730  145.3360 C   0  0  0  0  0  0  0  0  0  0  0  0
  185.8950  178.7090  147.0180 C   0  0  0  0  0  3  0  0  0  0  0  0
  189.3350  176.2600  145.7750 C   0  0  0  0  0  0  0  0  0  0  0  0
  191.6360  175.6790  147.2910 C   0  0  0  0  0  3  0  0  0  0  0  0
  186.9780  177.9230  146.6260 C   0  0  0  0  0  3  0  0  0  0  0  0
  189.2410  175.1490  143.1200 C   0  0  2  0  0  3  0  0  0  0  0  0
  191.1400  177.5270  148.7090 F   0  0  0  0  0  0  0  0  0  0  0  0
  186.0180  177.0580  143.1610 C   0  0  0  0  0  3  0  0  0  0  0  0
  184.8540  178.9580  146.1250 C   0  0  0  0  0  3  0  0  0  0  0  0
  189.8410  174.3160  144.2520 C   0  0  0  0  0  2  0  0  0  0  0  0
  188.0920  175.9920  143.6250 C   0  0  0  0  0  0  0  0  0  0  0  0
  189.6850  177.0480  146.8840 C   0  0  0  0  0  3  0  0  0  0  0  0
  183.7440  178.7120  143.9210 C   0  0  0  0  0  1  0  0  0  0  0  0
  190.1810  175.1880  145.4190 C   0  0  0  0  0  0  0  0  0  0  0  0
  191.3140  174.8930  146.1830 C   0  0  0  0  0  3  0  0  0  0  0  0
  187.0570  176.2740  142.7890 N   0  0  0  0  0  0  0  0  0  0  0  0
  185.9760  177.6210  144.4380 C   0  0  0  0  0  0  0  0  0  0  0  0
  184.8850  178.4200  144.8380 C   0  0  0  0  0  0  0  0  0  0  0  0
  190.8910  174.1670  141.0040 O   0  0  0  0  0  0  0  0  0  0  0  0
  189.6830  173.8040  141.0200 C   0  0  0  0  0  0  0  0  0  0  0  0
  188.8020  174.2670  142.0470 N   0  0  0  0  0  2  0  0  0  0  0  0
  187.8170  172.5740  140.2160 O   0  0  0  0  0  1  0  0  0  0  0  0
  189.1650  172.8600  139.9870 C   0  0  1  0  0  3  0  0  0  0  0  0
  188.4140  174.3850  138.2840 O   0  0  0  0  0  1  0  0  0  0  0  0
  189.3770  173.4170  138.5780 C   0  0  2  0  0  3  0  0  0  0  0  0
  189.3190  172.3080  137.5380 C   0  0  0  0  0  2  0  0  0  0  0  0
  190.1940  171.1680  137.9310 C   0  0  0  0  0  0  0  0  0  0  0  0
  189.6920  170.0350  138.1500 O   0  0  0  0  0  1  0  0  0  0  0  0
  191.5680  171.3460  138.0240 O   0  0  0  0  0  0  0  0  0  0  0  0
  1  9  1  0  0  0  0
  2  3  1  0  0  0  0
  2  5  1  0  0  0  0
  3  7  1  0  0  0  0
  5 14  1  0  0  0  0
  6  1  1  0  0  0  0
  7  4  2  0  0  0  0
  8 23  1  6  0  0  0
  8 13  1  0  0  0  0
  8 12  1  0  0  0  0
 10 19  1  0  0  0  0
 11  4  1  0  0  0  0
 12 16  1  0  0  0  0
 13  2  2  0  0  0  0
 14  1  2  0  0  0  0
 15 20  1  0  0  0  0
 16  5  2  0  0  0  0
 16 17  1  0  0  0  0
 17  6  2  0  0  0  0
 18 10  2  0  0  0  0
 18 13  1  0  0  0  0
 19 20  1  0  0  0  0
 19  3  2  0  0  0  0
 20 11  2  0  0  0  0
 21 22  2  0  0  0  0
 22 23  1  0  0  0  0
 25 24  1  1  0  0  0
 25 22  1  0  0  0  0
 27 26  1  6  0  0  0
 27 25  1  0  0  0  0
 28 29  1  0  0  0  0
 28 27  1  0  0  0  0
 29 31  2  0  0  0  0
 29 30  1  0  0  0  0
M  END
>  <MODEL>
5

>  <REMARK>
 VINA RESULT:      -7.6      3.980      7.555
  Name = 
  5 active torsions:
  status: ('A' for Active; 'I' for Inactive)
    1  A    between atoms: C_1  and  C_24
    2  A    between atoms: C_9  and  C_22
    3  A    between atoms: C_15  and  N_23
    4  A    between atoms: C_19  and  C_22
    5  A    between atoms: C_19  and  C_24
                            x       y       z     vdW  Elec       q    Type
                         _______ _______ _______ _____ _____    ______ ____

>  <TORSDO>
F 5

$$$$
=
 OpenBabel11052417563D

 31 34  0  0  1  0  0  0  0  0999 V2000
  193.3690  174.6520  145.6000 C   0  0  0  0  0  0  0  0  0  0  0  0
  190.2890  175.0800  143.3710 C   0  0  0  0  0  0  0  0  0  0  0  0
  190.5450  174.4000  142.1490 C   0  0  0  0  0  0  0  0  0  0  0  0
  192.0480  173.2260  140.6300 C   0  0  0  0  0  3  0  0  0  0  0  0
  191.3070  175.2710  144.4580 C   0  0  0  0  0  0  0  0  0  0  0  0
  193.1380  175.6330  146.5660 C   0  0  0  0  0  3  0  0  0  0  0  0
  191.8140  173.8850  141.8370 C   0  0  0  0  0  3  0  0  0  0  0  0
  188.6630  176.3360  144.8650 C   0  0  2  0  0  3  0  0  0  0  0  0
  194.4760  173.8760  145.6750 F   0  0  0  0  0  0  0  0  0  0  0  0
  188.2440  174.7820  141.4830 C   0  0  0  0  0  3  0  0  0  0  0  0
  191.0150  173.0720  139.7080 C   0  0  0  0  0  3  0  0  0  0  0  0
  189.8670  177.1220  145.3830 C   0  0  0  0  0  2  0  0  0  0  0  0
  188.9990  175.6300  143.5720 C   0  0  0  0  0  0  0  0  0  0  0  0
  192.4580  174.4710  144.5580 C   0  0  0  0  0  3  0  0  0  0  0  0
  188.6720  173.3930  138.9590 C   0  0  0  0  0  1  0  0  0  0  0  0
  191.0740  176.2410  145.4560 C   0  0  0  0  0  0  0  0  0  0  0  0
  191.9930  176.4280  146.4930 C   0  0  0  0  0  3  0  0  0  0  0  0
  188.0230  175.4440  142.6430 N   0  0  0  0  0  0  0  0  0  0  0  0
  189.5030  174.2500  141.1980 C   0  0  0  0  0  0  0  0  0  0  0  0
  189.7430  173.5790  139.9810 C   0  0  0  0  0  0  0  0  0  0  0  0
  186.4070  176.5420  146.6080 O   0  0  0  0  0  0  0  0  0  0  0  0
  186.4390  177.2990  145.5990 C   0  0  0  0  0  0  0  0  0  0  0  0
  187.5350  177.2390  144.6830 N   0  0  0  0  0  2  0  0  0  0  0  0
  185.2990  179.2190  146.4090 O   0  0  0  0  0  1  0  0  0  0  0  0
  185.3470  178.2900  145.3660 C   0  0  1  0  0  3  0  0  0  0  0  0
  185.3590  180.3690  144.1550 O   0  0  0  0  0  1  0  0  0  0  0  0
  185.5180  178.9880  144.0160 C   0  0  2  0  0  3  0  0  0  0  0  0
  184.5180  178.4600  142.9990 C   0  0  0  0  0  2  0  0  0  0  0  0
  185.1330  178.3830  141.6430 C   0  0  0  0  0  0  0  0  0  0  0  0
  186.3810  178.2780  141.5240 O   0  0  0  0  0  1  0  0  0  0  0  0
  184.3270  178.3940  140.5130 O   0  0  0  0  0  0  0  0  0  0  0  0
  1  9  1  0  0  0  0
  1  6  1  0  0  0  0
  2 13  1  0  0  0  0
  2  5  1  0  0  0  0
  3  2  2  0  0  0  0
  4  7  2  0  0  0  0
  5 14  1  0  0  0  0
  5 16  2  0  0  0  0
  7  3  1  0  0  0  0
  8 23  1  6  0  0  0
  8 12  1  0  0  0  0
 10 18  1  0  0  0  0
 11 20  2  0  0  0  0
 11  4  1  0  0  0  0
 12 16  1  0  0  0  0
 13  8  1  0  0  0  0
 14  1  2  0  0  0  0
 15 20  1  0  0  0  0
 16 17  1  0  0  0  0
 17  6  2  0  0  0  0
 18 13  2  0  0  0  0
 19 10  2  0  0  0  0
 19  3  1  0  0  0  0
 20 19  1  0  0  0  0
 22 21  2  0  0  0  0
 23 22  1  0  0  0  0
 25 22  1  0  0  0  0
 25 24  1  1  0  0  0
 27 26  1  1  0  0  0
 27 25  1  0  0  0  0
 28 27  1  0  0  0  0
 29 28  1  0  0  0  0
 30 29  1  0  0  0  0
 31 29  2  0  0  0  0
M  END
>  <MODEL>
6

>  <REMARK>
 VINA RESULT:      -7.5      1.650      4.990
  Name = 
  5 active torsions:
  status: ('A' for Active; 'I' for Inactive)
    1  A    between atoms: C_1  and  C_24
    2  A    between atoms: C_9  and  C_22
    3  A    between atoms: C_15  and  N_23
    4  A    between atoms: C_19  and  C_22
    5  A    between atoms: C_19  and  C_24
                            x       y       z     vdW  Elec       q    Type
                         _______ _______ _______ _____ _____    ______ ____

>  <TORSDO>
F 5

$$$$
=
 OpenBabel11052417563D

 31 34  0  0  1  0  0  0  0  0999 V2000
  184.9440  178.2890  146.9050 C   0  0  0  0  0  0  0  0  0  0  0  0
  186.9830  177.2070  143.8530 C   0  0  0  0  0  0  0  0  0  0  0  0
  186.1920  177.4540  142.6980 C   0  0  0  0  0  0  0  0  0  0  0  0
  184.0770  178.0560  141.6440 C   0  0  0  0  0  3  0  0  0  0  0  0
  186.4880  177.3630  145.2620 C   0  0  0  0  0  0  0  0  0  0  0  0
  185.6580  177.6750  147.9350 C   0  0  0  0  0  3  0  0  0  0  0  0
  184.8400  177.8240  142.7890 C   0  0  0  0  0  3  0  0  0  0  0  0
  189.2120  176.5220  144.8600 C   0  0  2  0  0  3  0  0  0  0  0  0
  183.8490  179.0330  147.1900 F   0  0  0  0  0  0  0  0  0  0  0  0
  188.1010  176.9090  141.3040 C   0  0  0  0  0  3  0  0  0  0  0  0
  184.6530  177.9180  140.3820 C   0  0  0  0  0  3  0  0  0  0  0  0
  188.4170  175.9290  146.0220 C   0  0  0  0  0  2  0  0  0  0  0  0
  188.3170  176.7690  143.6680 C   0  0  0  0  0  0  0  0  0  0  0  0
  185.3600  178.1370  145.5800 C   0  0  0  0  0  3  0  0  0  0  0  0
  186.5600  177.4040  138.8820 C   0  0  0  0  0  1  0  0  0  0  0  0
  187.2150  176.7700  146.3160 C   0  0  0  0  0  0  0  0  0  0  0  0
  186.7920  176.9150  147.6410 C   0  0  0  0  0  3  0  0  0  0  0  0
  188.8340  176.6590  142.4140 N   0  0  0  0  0  0  0  0  0  0  0  0
  186.7650  177.3030  141.4090 C   0  0  0  0  0  0  0  0  0  0  0  0
  185.9920  177.5440  140.2550 C   0  0  0  0  0  0  0  0  0  0  0  0
  191.9220  176.7900  145.7280 O   0  0  0  0  0  0  0  0  0  0  0  0
  191.6390  175.8100  144.9850 C   0  0  0  0  0  0  0  0  0  0  0  0
  190.3040  175.6240  144.5090 N   0  0  0  0  0  2  0  0  0  0  0  0
  193.5260  174.5610  145.7120 O   0  0  0  0  0  1  0  0  0  0  0  0
  192.6890  174.8130  144.6210 C   0  0  1  0  0  3  0  0  0  0  0  0
  192.3870  172.4460  144.9330 O   0  0  0  0  0  1  0  0  0  0  0  0
  192.0600  173.5190  144.1000 C   0  0  2  0  0  3  0  0  0  0  0  0
  192.5220  173.2210  142.6820 C   0  0  0  0  0  2  0  0  0  0  0  0
  191.3740  173.2680  141.7320 C   0  0  0  0  0  0  0  0  0  0  0  0
  190.9750  174.3730  141.2810 O   0  0  0  0  0  0  0  0  0  0  0  0
  190.7670  172.0900  141.3170 O   0  0  0  0  0  1  0  0  0  0  0  0
  1  9  1  0  0  0  0
  1  6  1  0  0  0  0
  2  5  1  0  0  0  0
  3  7  1  0  0  0  0
  3  2  2  0  0  0  0
  4  7  2  0  0  0  0
  5 14  1  0  0  0  0
  5 16  2  0  0  0  0
  8 23  1  6  0  0  0
  8 12  1  0  0  0  0
 10 19  2  0  0  0  0
 10 18  1  0  0  0  0
 11  4  1  0  0  0  0
 12 16  1  0  0  0  0
 13  2  1  0  0  0  0
 13  8  1  0  0  0  0
 14  1  2  0  0  0  0
 15 20  1  0  0  0  0
 16 17  1  0  0  0  0
 17  6  2  0  0  0  0
 18 13  2  0  0  0  0
 19  3  1  0  0  0  0
 20 11  2  0  0  0  0
 20 19  1  0  0  0  0
 22 21  2  0  0  0  0
 23 22  1  0  0  0  0
 25 22  1  0  0  0  0
 25 24  1  1  0  0  0
 27 25  1  0  0  0  0
 27 26  1  1  0  0  0
 28 27  1  0  0  0  0
 29 28  1  0  0  0  0
 30 29  2  0  0  0  0
 31 29  1  0  0  0  0
M  END
>  <MODEL>
7

>  <REMARK>
 VINA RESULT:      -7.1      4.099      8.014
  Name = 
  5 active torsions:
  status: ('A' for Active; 'I' for Inactive)
    1  A    between atoms: C_1  and  C_24
    2  A    between atoms: C_9  and  C_22
    3  A    between atoms: C_15  and  N_23
    4  A    between atoms: C_19  and  C_22
    5  A    between atoms: C_19  and  C_24
                            x       y       z     vdW  Elec       q    Type
                         _______ _______ _______ _____ _____    ______ ____

>  <TORSDO>
F 5

$$$$
=
 OpenBabel11052417563D

 31 34  0  0  1  0  0  0  0  0999 V2000
  184.8910  178.2990  146.9210 C   0  0  0  0  0  0  0  0  0  0  0  0
  186.9840  177.2490  143.8950 C   0  0  0  0  0  0  0  0  0  0  0  0
  186.2100  177.5010  142.7290 C   0  0  0  0  0  0  0  0  0  0  0  0
  184.1110  178.1020  141.6450 C   0  0  0  0  0  3  0  0  0  0  0  0
  186.4650  177.3920  145.2970 C   0  0  0  0  0  0  0  0  0  0  0  0
  185.5900  177.6800  147.9580 C   0  0  0  0  0  3  0  0  0  0  0  0
  184.8560  177.8650  142.8000 C   0  0  0  0  0  3  0  0  0  0  0  0
  189.1990  176.5660  144.9340 C   0  0  2  0  0  3  0  0  0  0  0  0
  183.7880  179.0370  147.1940 F   0  0  0  0  0  0  0  0  0  0  0  0
  188.1440  176.9750  141.3620 C   0  0  0  0  0  3  0  0  0  0  0  0
  184.7080  177.9770  140.3920 C   0  0  0  0  0  3  0  0  0  0  0  0
  188.3870  175.9610  146.0780 C   0  0  0  0  0  2  0  0  0  0  0  0
  188.3230  176.8180  143.7280 C   0  0  0  0  0  0  0  0  0  0  0  0
  185.3280  178.1590  145.6020 C   0  0  0  0  0  3  0  0  0  0  0  0
  186.6420  177.4820  138.9190 C   0  0  0  0  0  1  0  0  0  0  0  0
  187.1780  176.7940  146.3580 C   0  0  0  0  0  0  0  0  0  0  0  0
  186.7320  176.9270  147.6770 C   0  0  0  0  0  3  0  0  0  0  0  0
  188.8610  176.7200  142.4830 N   0  0  0  0  0  0  0  0  0  0  0  0
  186.8060  177.3630  141.4490 C   0  0  0  0  0  0  0  0  0  0  0  0
  186.0500  177.6090  140.2840 C   0  0  0  0  0  0  0  0  0  0  0  0
  191.8600  176.7550  145.9590 O   0  0  0  0  0  0  0  0  0  0  0  0
  191.6100  175.8200  145.1500 C   0  0  0  0  0  0  0  0  0  0  0  0
  190.3010  175.6750  144.5940 N   0  0  0  0  0  2  0  0  0  0  0  0
  192.1070  173.7230  144.1500 O   0  0  0  0  0  1  0  0  0  0  0  0
  192.6690  174.8310  144.7900 C   0  0  1  0  0  3  0  0  0  0  0  0
  193.1780  176.3590  143.0020 O   0  0  0  0  0  1  0  0  0  0  0  0
  193.7500  175.4770  143.9220 C   0  0  2  0  0  3  0  0  0  0  0  0
  194.5570  174.4210  143.1810 C   0  0  0  0  0  2  0  0  0  0  0  0
  195.9320  174.3150  143.7440 C   0  0  0  0  0  0  0  0  0  0  0  0
  196.6730  173.3510  143.4190 O   0  0  0  0  0  0  0  0  0  0  0  0
  196.4090  175.2960  144.6030 O   0  0  0  0  0  1  0  0  0  0  0  0
  1  9  1  0  0  0  0
  1  6  1  0  0  0  0
  2  5  1  0  0  0  0
  3  7  1  0  0  0  0
  3  2  2  0  0  0  0
  4  7  2  0  0  0  0
  5 14  1  0  0  0  0
  5 16  2  0  0  0  0
  8 23  1  6  0  0  0
  8 12  1  0  0  0  0
 10 19  2  0  0  0  0
 10 18  1  0  0  0  0
 11  4  1  0  0  0  0
 12 16  1  0  0  0  0
 13  2  1  0  0  0  0
 13  8  1  0  0  0  0
 14  1  2  0  0  0  0
 15 20  1  0  0  0  0
 16 17  1  0  0  0  0
 17  6  2  0  0  0  0
 18 13  2  0  0  0  0
 19  3  1  0  0  0  0
 20 11  2  0  0  0  0
 20 19  1  0  0  0  0
 22 21  2  0  0  0  0
 23 22  1  0  0  0  0
 25 24  1  6  0  0  0
 25 22  1  0  0  0  0
 27 26  1  6  0  0  0
 27 25  1  0  0  0  0
 28 29  1  0  0  0  0
 28 27  1  0  0  0  0
 29 31  1  0  0  0  0
 30 29  2  0  0  0  0
M  END
>  <MODEL>
8

>  <REMARK>
 VINA RESULT:      -7.1      4.610      8.291
  Name = 
  5 active torsions:
  status: ('A' for Active; 'I' for Inactive)
    1  A    between atoms: C_1  and  C_24
    2  A    between atoms: C_9  and  C_22
    3  A    between atoms: C_15  and  N_23
    4  A    between atoms: C_19  and  C_22
    5  A    between atoms: C_19  and  C_24
                            x       y       z     vdW  Elec       q    Type
                         _______ _______ _______ _____ _____    ______ ____

>  <TORSDO>
F 5

$$$$
=
 OpenBabel11052417563D

 31 34  0  0  1  0  0  0  0  0999 V2000
  184.2540  178.3380  142.4130 C   0  0  0  0  0  0  0  0  0  0  0  0
  187.3730  176.2630  143.1890 C   0  0  0  0  0  0  0  0  0  0  0  0
  187.6660  176.4270  144.5710 C   0  0  0  0  0  0  0  0  0  0  0  0
  187.3030  177.5250  146.7170 C   0  0  0  0  0  3  0  0  0  0  0  0
  186.3070  177.0270  142.4580 C   0  0  0  0  0  0  0  0  0  0  0  0
  184.2990  178.3790  141.0190 C   0  0  0  0  0  3  0  0  0  0  0  0
  186.9980  177.3740  145.3650 C   0  0  0  0  0  3  0  0  0  0  0  0
  187.8550  175.0980  140.9840 C   0  0  2  0  0  3  0  0  0  0  0  0
  183.2450  178.9530  143.0760 F   0  0  0  0  0  0  0  0  0  0  0  0
  189.3680  174.7080  144.3890 C   0  0  0  0  0  3  0  0  0  0  0  0
  188.2880  176.7320  147.3030 C   0  0  0  0  0  3  0  0  0  0  0  0
  187.4410  176.3980  140.2960 C   0  0  0  0  0  2  0  0  0  0  0  0
  188.1450  175.3350  142.4480 C   0  0  0  0  0  0  0  0  0  0  0  0
  185.2480  177.6640  143.1250 C   0  0  0  0  0  3  0  0  0  0  0  0
  190.0280  174.9660  147.2140 C   0  0  0  0  0  1  0  0  0  0  0  0
  186.3260  177.0540  141.0470 C   0  0  0  0  0  0  0  0  0  0  0  0
  185.3350  177.7390  140.3370 C   0  0  0  0  0  3  0  0  0  0  0  0
  189.0900  174.5790  143.0700 N   0  0  0  0  0  0  0  0  0  0  0  0
  188.6770  175.6340  145.1730 C   0  0  0  0  0  0  0  0  0  0  0  0
  188.9780  175.7870  146.5420 C   0  0  0  0  0  0  0  0  0  0  0  0
  187.8770  172.7160  139.4040 O   0  0  0  0  0  0  0  0  0  0  0  0
  188.9620  173.3480  139.5260 C   0  0  0  0  0  0  0  0  0  0  0  0
  189.0220  174.5410  140.3110 N   0  0  0  0  0  2  0  0  0  0  0  0
  190.6340  173.8320  137.9090 O   0  0  0  0  0  1  0  0  0  0  0  0
  190.1920  172.8740  138.8260 C   0  0  1  0  0  3  0  0  0  0  0  0
  192.5040  172.3000  139.1660 O   0  0  0  0  0  1  0  0  0  0  0  0
  191.2940  172.5230  139.8270 C   0  0  2  0  0  3  0  0  0  0  0  0
  190.9230  171.2910  140.6380 C   0  0  0  0  0  2  0  0  0  0  0  0
  190.8320  171.6200  142.0880 C   0  0  0  0  0  0  0  0  0  0  0  0
  189.8470  171.2230  142.7640 O   0  0  0  0  0  1  0  0  0  0  0  0
  191.8510  172.3360  142.7030 O   0  0  0  0  0  0  0  0  0  0  0  0
  1  9  1  0  0  0  0
  1 14  1  0  0  0  0
  2  3  1  0  0  0  0
  3 19  2  0  0  0  0
  3  7  1  0  0  0  0
  4 11  1  0  0  0  0
  5 14  2  0  0  0  0
  5  2  1  0  0  0  0
  6  1  2  0  0  0  0
  7  4  2  0  0  0  0
  8 23  1  6  0  0  0
  8 13  1  0  0  0  0
 10 19  1  0  0  0  0
 12  8  1  0  0  0  0
 12 16  1  0  0  0  0
 13 18  1  0  0  0  0
 13  2  2  0  0  0  0
 16  5  1  0  0  0  0
 17  6  1  0  0  0  0
 17 16  2  0  0  0  0
 18 10  2  0  0  0  0
 19 20  1  0  0  0  0
 20 15  1  0  0  0  0
 20 11  2  0  0  0  0
 21 22  2  0  0  0  0
 22 23  1  0  0  0  0
 25 24  1  6  0  0  0
 25 22  1  0  0  0  0
 25 27  1  0  0  0  0
 27 26  1  6  0  0  0
 27 28  1  0  0  0  0
 28 29  1  0  0  0  0
 29 31  2  0  0  0  0
 29 30  1  0  0  0  0
M  END
>  <MODEL>
9

>  <REMARK>
 VINA RESULT:      -6.9      4.381      6.934
  Name = 
  5 active torsions:
  status: ('A' for Active; 'I' for Inactive)
    1  A    between atoms: C_1  and  C_24
    2  A    between atoms: C_9  and  C_22
    3  A    between atoms: C_15  and  N_23
    4  A    between atoms: C_19  and  C_22
    5  A    between atoms: C_19  and  C_24
                            x       y       z     vdW  Elec       q    Type
                         _______ _______ _______ _____ _____    ______ ____

>  <TORSDO>
F 5

$$$$
