=
 OpenBabel11052418373D

 34 37  0  0  1  0  0  0  0  0999 V2000
  189.5030  174.4120  142.8670 C   0  0  1  0  0  3  0  0  0  0  0  0
  189.8060  176.8870  142.7910 C   0  0  0  0  0  0  0  0  0  0  0  0
  187.8470  176.1500  141.8410 C   0  0  0  0  0  2  0  0  0  0  0  0
  189.2770  178.0100  142.2020 O   0  0  0  0  0  0  0  0  0  0  0  0
  190.7330  174.4380  143.7630 C   0  0  0  0  0  0  0  0  0  0  0  0
  190.9430  176.8360  143.4030 N   0  0  0  0  0  0  0  0  0  0  0  0
  191.4160  175.6030  143.9850 C   0  0  0  0  0  0  0  0  0  0  0  0
  188.0310  177.6700  141.5980 C   0  0  2  0  0  3  0  0  0  0  0  0
  188.9890  175.7610  142.6510 N   0  0  0  0  0  0  0  0  0  0  0  0
  190.8570  174.1170  140.8720 N   0  0  0  0  0  0  0  0  0  0  0  0
  188.9040  172.6440  141.0740 C   0  0  0  0  0  0  0  0  0  0  0  0
  190.3950  172.6590  139.0270 C   0  0  0  0  0  3  0  0  0  0  0  0
  189.1920  172.2650  139.6910 N   0  0  0  0  0  0  0  0  0  0  0  0
  189.8080  173.7540  141.5540 C   0  0  0  0  0  0  0  0  0  0  0  0
  191.2000  173.5450  139.6030 C   0  0  0  0  0  3  0  0  0  0  0  0
  189.0540  171.5390  141.8910 F   0  0  0  0  0  0  0  0  0  0  0  0
  192.6330  175.6950  144.8320 C   0  0  0  0  0  0  0  0  0  0  0  0
  193.6420  174.9780  144.5970 O   0  0  0  0  0  0  0  0  0  0  0  0
  192.0280  176.4630  147.0530 N   0  0  0  0  0  0  0  0  0  0  0  0
  192.6300  176.6190  145.9350 N   0  0  0  0  0  0  0  0  0  0  0  0
  191.1910  175.3200  147.4010 C   0  0  0  0  0  2  0  0  0  0  0  0
  189.7310  175.6600  147.1690 C   0  0  0  0  0  2  0  0  0  0  0  0
  188.9050  174.5370  147.5660 N   0  0  0  0  0  1  0  0  0  0  0  0
  189.9540  172.3810  144.9130 C   0  0  0  0  0  1  0  0  0  0  0  0
  191.1530  173.1210  144.3470 C   0  0  0  0  0  2  0  0  0  0  0  0
  186.9130  178.4490  142.2690 C   0  0  0  0  0  2  0  0  0  0  0  0
  185.8370  177.5020  142.7710 C   0  0  0  0  0  2  0  0  0  0  0  0
  183.6940  178.9980  143.8400 O   0  0  0  0  0  0  0  0  0  0  0  0
  185.6180  177.7040  144.1950 N   0  0  0  0  0  0  0  0  0  0  0  0
  184.4750  178.4470  144.6610 C   0  0  0  0  0  0  0  0  0  0  0  0
  185.4130  178.3660  146.9710 C   0  0  0  0  0  2  0  0  0  0  0  0
  186.2110  177.1500  146.5250 C   0  0  0  0  0  2  0  0  0  0  0  0
  186.7140  177.3710  145.1030 C   0  0  0  0  0  2  0  0  0  0  0  0
  184.1540  178.5050  146.1240 C   0  0  0  0  0  2  0  0  0  0  0  0
  1 14  1  6  0  0  0
  1  5  1  0  0  0  0
  2  6  2  0  0  0  0
  3  9  1  0  0  0  0
  4  2  1  0  0  0  0
  5  7  2  0  0  0  0
  5 25  1  0  0  0  0
  6  7  1  0  0  0  0
  7 17  1  0  0  0  0
  8  3  1  0  0  0  0
  8  4  1  0  0  0  0
  8 26  1  1  0  0  0
  9  2  1  0  0  0  0
  9  1  1  0  0  0  0
 10 14  1  0  0  0  0
 11 14  2  0  0  0  0
 11 16  1  0  0  0  0
 12 15  1  0  0  0  0
 12 13  2  0  0  0  0
 13 11  1  0  0  0  0
 15 10  2  0  0  0  0
 17 20  1  0  0  0  0
 18 17  2  0  0  0  0
 19 21  1  0  0  0  0
 20 19  2  0  0  0  0
 22 21  1  0  0  0  0
 22 23  1  0  0  0  0
 25 24  1  0  0  0  0
 26 27  1  0  0  0  0
 27 29  1  0  0  0  0
 28 30  2  0  0  0  0
 29 30  1  0  0  0  0
 29 33  1  0  0  0  0
 30 34  1  0  0  0  0
 32 31  1  0  0  0  0
 33 32  1  0  0  0  0
 34 31  1  0  0  0  0
M  END
>  <MODEL>
1

>  <REMARK>
 VINA RESULT:      -7.1      0.000      0.000
  Name = 
  9 active torsions:
  status: ('A' for Active; 'I' for Inactive)
    1  A    between atoms: C_3  and  N_13
    2  A    between atoms: C_3  and  C_17
    3  A    between atoms: C_4  and  C_15
    4  A    between atoms: C_7  and  C_8
    5  A    between atoms: C_8  and  N_16
    6  A    between atoms: C_12  and  N_27
    7  A    between atoms: C_12  and  C_28
    8  A    between atoms: C_17  and  C_29
    9  A    between atoms: C_21  and  C_32
                            x       y       z     vdW  Elec       q    Type
                         _______ _______ _______ _____ _____    ______ ____

>  <TORSDO>
F 9

$$$$
=
 OpenBabel11052418373D

 34 37  0  0  1  0  0  0  0  0999 V2000
  189.3990  174.3720  143.0040 C   0  0  1  0  0  3  0  0  0  0  0  0
  189.5840  176.8590  143.0470 C   0  0  0  0  0  0  0  0  0  0  0  0
  187.8100  176.0700  141.8160 C   0  0  0  0  0  2  0  0  0  0  0  0
  189.0830  177.9790  142.4290 O   0  0  0  0  0  0  0  0  0  0  0  0
  190.4940  174.4200  144.0590 C   0  0  0  0  0  0  0  0  0  0  0  0
  190.6290  176.8370  143.8070 N   0  0  0  0  0  0  0  0  0  0  0  0
  191.0810  175.6060  144.4080 C   0  0  0  0  0  0  0  0  0  0  0  0
  187.9480  177.6060  141.6490 C   0  0  2  0  0  3  0  0  0  0  0  0
  188.8520  175.7030  142.7620 N   0  0  0  0  0  0  0  0  0  0  0  0
  191.0180  174.2210  141.1990 N   0  0  0  0  0  0  0  0  0  0  0  0
  189.1420  172.6430  141.0950 C   0  0  0  0  0  0  0  0  0  0  0  0
  190.8850  172.8100  139.2660 C   0  0  0  0  0  3  0  0  0  0  0  0
  189.6290  172.3300  139.7520 N   0  0  0  0  0  0  0  0  0  0  0  0
  189.9100  173.7790  141.7230 C   0  0  0  0  0  0  0  0  0  0  0  0
  191.5560  173.7150  139.9710 C   0  0  0  0  0  3  0  0  0  0  0  0
  189.2440  171.5180  141.8920 F   0  0  0  0  0  0  0  0  0  0  0  0
  192.1670  175.7210  145.4160 C   0  0  0  0  0  0  0  0  0  0  0  0
  191.9900  175.3450  146.6050 O   0  0  0  0  0  0  0  0  0  0  0  0
  194.3940  175.6510  144.4550 N   0  0  0  0  0  0  0  0  0  0  0  0
  193.4260  176.2820  145.0030 N   0  0  0  0  0  0  0  0  0  0  0  0
  194.4120  174.2180  144.1830 C   0  0  0  0  0  2  0  0  0  0  0  0
  195.0700  173.4820  145.3350 C   0  0  0  0  0  2  0  0  0  0  0  0
  194.2530  172.3450  145.7100 N   0  0  0  0  0  1  0  0  0  0  0  0
  189.6730  172.3000  145.0530 C   0  0  0  0  0  1  0  0  0  0  0  0
  190.8980  173.1030  144.6520 C   0  0  0  0  0  2  0  0  0  0  0  0
  186.7120  178.3070  142.1860 C   0  0  0  0  0  2  0  0  0  0  0  0
  185.7390  177.2930  142.7620 C   0  0  0  0  0  2  0  0  0  0  0  0
  183.7010  179.0150  143.6870 O   0  0  0  0  0  0  0  0  0  0  0  0
  185.4930  177.5790  144.1670 N   0  0  0  0  0  0  0  0  0  0  0  0
  184.4050  178.4380  144.5590 C   0  0  0  0  0  0  0  0  0  0  0  0
  185.2570  178.3840  146.9030 C   0  0  0  0  0  2  0  0  0  0  0  0
  185.9590  177.0840  146.5390 C   0  0  0  0  0  2  0  0  0  0  0  0
  186.5260  177.1960  145.1280 C   0  0  0  0  0  2  0  0  0  0  0  0
  184.0420  178.5900  146.0050 C   0  0  0  0  0  2  0  0  0  0  0  0
  1 14  1  6  0  0  0
  1  5  1  0  0  0  0
  2  6  2  0  0  0  0
  3  9  1  0  0  0  0
  4  2  1  0  0  0  0
  5  7  2  0  0  0  0
  5 25  1  0  0  0  0
  6  7  1  0  0  0  0
  7 17  1  0  0  0  0
  8  3  1  0  0  0  0
  8 26  1  1  0  0  0
  8  4  1  0  0  0  0
  9  1  1  0  0  0  0
  9  2  1  0  0  0  0
 10 14  1  0  0  0  0
 11 14  2  0  0  0  0
 11 16  1  0  0  0  0
 12 13  2  0  0  0  0
 12 15  1  0  0  0  0
 13 11  1  0  0  0  0
 15 10  2  0  0  0  0
 17 18  2  0  0  0  0
 19 20  2  0  0  0  0
 20 17  1  0  0  0  0
 21 19  1  0  0  0  0
 21 22  1  0  0  0  0
 22 23  1  0  0  0  0
 25 24  1  0  0  0  0
 26 27  1  0  0  0  0
 27 29  1  0  0  0  0
 28 30  2  0  0  0  0
 29 30  1  0  0  0  0
 29 33  1  0  0  0  0
 30 34  1  0  0  0  0
 32 31  1  0  0  0  0
 33 32  1  0  0  0  0
 34 31  1  0  0  0  0
M  END
>  <MODEL>
2

>  <REMARK>
 VINA RESULT:      -6.7      1.282      1.881
  Name = 
  9 active torsions:
  status: ('A' for Active; 'I' for Inactive)
    1  A    between atoms: C_3  and  N_13
    2  A    between atoms: C_3  and  C_17
    3  A    between atoms: C_4  and  C_15
    4  A    between atoms: C_7  and  C_8
    5  A    between atoms: C_8  and  N_16
    6  A    between atoms: C_12  and  N_27
    7  A    between atoms: C_12  and  C_28
    8  A    between atoms: C_17  and  C_29
    9  A    between atoms: C_21  and  C_32
                            x       y       z     vdW  Elec       q    Type
                         _______ _______ _______ _____ _____    ______ ____

>  <TORSDO>
F 9

$$$$
=
 OpenBabel11052418373D

 34 37  0  0  1  0  0  0  0  0999 V2000
  190.4790  174.5820  144.9380 C   0  0  1  0  0  3  0  0  0  0  0  0
  189.6820  174.7840  142.5830 C   0  0  0  0  0  0  0  0  0  0  0  0
  191.2930  173.1750  142.8960 C   0  0  0  0  0  2  0  0  0  0  0  0
  189.9980  174.3770  141.3100 O   0  0  0  0  0  0  0  0  0  0  0  0
  189.3330  175.5340  145.2510 C   0  0  0  0  0  0  0  0  0  0  0  0
  188.8430  175.7230  142.8740 N   0  0  0  0  0  0  0  0  0  0  0  0
  188.5820  176.0830  144.2460 C   0  0  0  0  0  0  0  0  0  0  0  0
  190.9830  173.3470  141.3860 C   0  0  2  0  0  3  0  0  0  0  0  0
  190.3800  174.0830  143.5700 N   0  0  0  0  0  0  0  0  0  0  0  0
  192.1000  176.3400  144.5090 N   0  0  0  0  0  0  0  0  0  0  0  0
  192.7570  174.6510  146.1640 C   0  0  0  0  0  0  0  0  0  0  0  0
  194.3140  176.5010  145.4110 C   0  0  0  0  0  3  0  0  0  0  0  0
  194.0810  175.2680  146.0970 N   0  0  0  0  0  0  0  0  0  0  0  0
  191.8060  175.2480  145.1560 C   0  0  0  0  0  0  0  0  0  0  0  0
  193.3540  177.0190  144.6530 C   0  0  0  0  0  3  0  0  0  0  0  0
  192.2430  174.8090  147.4370 F   0  0  0  0  0  0  0  0  0  0  0  0
  187.4640  177.0320  144.4800 C   0  0  0  0  0  0  0  0  0  0  0  0
  187.6590  178.2770  144.4800 O   0  0  0  0  0  0  0  0  0  0  0  0
  185.4550  176.6300  145.7820 N   0  0  0  0  0  0  0  0  0  0  0  0
  186.1490  176.4960  144.7150 N   0  0  0  0  0  0  0  0  0  0  0  0
  185.8950  177.3270  146.9850 C   0  0  0  0  0  2  0  0  0  0  0  0
  185.1880  178.6640  147.0950 C   0  0  0  0  0  2  0  0  0  0  0  0
  184.0520  178.6850  146.1940 N   0  0  0  0  0  1  0  0  0  0  0  0
  188.9590  174.5680  147.5050 C   0  0  0  0  0  1  0  0  0  0  0  0
  189.1100  175.8460  146.7010 C   0  0  0  0  0  2  0  0  0  0  0  0
  190.4140  172.0590  140.8160 C   0  0  0  0  0  2  0  0  0  0  0  0
  189.1720  172.3500  139.9920 C   0  0  0  0  0  2  0  0  0  0  0  0
  188.6790  174.1090  137.8380 O   0  0  0  0  0  0  0  0  0  0  0  0
  189.4070  172.0120  138.5960 N   0  0  0  0  0  0  0  0  0  0  0  0
  189.1690  172.9820  137.5590 C   0  0  0  0  0  0  0  0  0  0  0  0
  189.5570  171.1990  135.8570 C   0  0  0  0  0  2  0  0  0  0  0  0
  190.3370  170.4500  136.9270 C   0  0  0  0  0  2  0  0  0  0  0  0
  189.6280  170.6040  138.2680 C   0  0  0  0  0  2  0  0  0  0  0  0
  189.5780  172.6960  136.1450 C   0  0  0  0  0  2  0  0  0  0  0  0
  1 14  1  6  0  0  0
  1  5  1  0  0  0  0
  2  6  2  0  0  0  0
  2  9  1  0  0  0  0
  3  9  1  0  0  0  0
  4  8  1  0  0  0  0
  4  2  1  0  0  0  0
  5 25  1  0  0  0  0
  6  7  1  0  0  0  0
  7 17  1  0  0  0  0
  7  5  2  0  0  0  0
  8 26  1  1  0  0  0
  8  3  1  0  0  0  0
  9  1  1  0  0  0  0
 10 15  2  0  0  0  0
 10 14  1  0  0  0  0
 11 16  1  0  0  0  0
 12 13  2  0  0  0  0
 13 11  1  0  0  0  0
 14 11  2  0  0  0  0
 15 12  1  0  0  0  0
 17 18  2  0  0  0  0
 17 20  1  0  0  0  0
 19 21  1  0  0  0  0
 20 19  2  0  0  0  0
 21 22  1  0  0  0  0
 23 22  1  0  0  0  0
 25 24  1  0  0  0  0
 27 26  1  0  0  0  0
 29 27  1  0  0  0  0
 30 28  2  0  0  0  0
 30 29  1  0  0  0  0
 31 34  1  0  0  0  0
 31 32  1  0  0  0  0
 32 33  1  0  0  0  0
 33 29  1  0  0  0  0
 34 30  1  0  0  0  0
M  END
>  <MODEL>
3

>  <REMARK>
 VINA RESULT:      -6.3      2.480      7.060
  Name = 
  9 active torsions:
  status: ('A' for Active; 'I' for Inactive)
    1  A    between atoms: C_3  and  N_13
    2  A    between atoms: C_3  and  C_17
    3  A    between atoms: C_4  and  C_15
    4  A    between atoms: C_7  and  C_8
    5  A    between atoms: C_8  and  N_16
    6  A    between atoms: C_12  and  N_27
    7  A    between atoms: C_12  and  C_28
    8  A    between atoms: C_17  and  C_29
    9  A    between atoms: C_21  and  C_32
                            x       y       z     vdW  Elec       q    Type
                         _______ _______ _______ _____ _____    ______ ____

>  <TORSDO>
F 9

$$$$
=
 OpenBabel11052418373D

 34 37  0  0  1  0  0  0  0  0999 V2000
  188.9070  176.3510  142.0140 C   0  0  1  0  0  3  0  0  0  0  0  0
  188.9620  173.8880  142.4020 C   0  0  0  0  0  0  0  0  0  0  0  0
  188.5480  174.4870  140.2220 C   0  0  0  0  0  2  0  0  0  0  0  0
  188.6480  172.7020  141.7840 O   0  0  0  0  0  0  0  0  0  0  0  0
  189.4150  176.4380  143.4460 C   0  0  0  0  0  0  0  0  0  0  0  0
  189.2200  174.0220  143.6610 N   0  0  0  0  0  0  0  0  0  0  0  0
  189.5340  175.3150  144.2190 C   0  0  0  0  0  0  0  0  0  0  0  0
  188.3960  172.9540  140.4030 C   0  0  2  0  0  3  0  0  0  0  0  0
  188.9640  174.9770  141.5260 N   0  0  0  0  0  0  0  0  0  0  0  0
  187.1650  177.6070  140.8760 N   0  0  0  0  0  0  0  0  0  0  0  0
  186.5130  176.5300  142.9830 C   0  0  0  0  0  0  0  0  0  0  0  0
  184.9450  178.0260  141.6740 C   0  0  0  0  0  3  0  0  0  0  0  0
  185.2770  177.3010  142.8610 N   0  0  0  0  0  0  0  0  0  0  0  0
  187.5090  176.8850  141.9060 C   0  0  0  0  0  0  0  0  0  0  0  0
  185.8550  178.1640  140.7160 C   0  0  0  0  0  3  0  0  0  0  0  0
  186.2190  175.1810  142.9150 F   0  0  0  0  0  0  0  0  0  0  0  0
  190.0050  175.3310  145.6280 C   0  0  0  0  0  0  0  0  0  0  0  0
  191.1720  175.7080  145.9160 O   0  0  0  0  0  0  0  0  0  0  0  0
  188.1190  175.5690  147.1380 N   0  0  0  0  0  0  0  0  0  0  0  0
  189.0970  174.8980  146.6570 N   0  0  0  0  0  0  0  0  0  0  0  0
  187.7680  176.9300  146.7510 C   0  0  0  0  0  2  0  0  0  0  0  0
  186.2600  177.0850  146.7170 C   0  0  0  0  0  2  0  0  0  0  0  0
  185.9220  178.4780  146.4980 N   0  0  0  0  0  1  0  0  0  0  0  0
  191.1210  178.2400  143.4880 C   0  0  0  0  0  1  0  0  0  0  0  0
  189.7390  177.8140  143.9490 C   0  0  0  0  0  2  0  0  0  0  0  0
  189.4220  172.2200  139.5580 C   0  0  0  0  0  2  0  0  0  0  0  0
  190.1520  173.1940  138.6490 C   0  0  0  0  0  2  0  0  0  0  0  0
  188.8950  174.7090  136.6250 O   0  0  0  0  0  0  0  0  0  0  0  0
  190.0400  172.7640  137.2630 N   0  0  0  0  0  0  0  0  0  0  0  0
  189.4190  173.6160  136.2820 C   0  0  0  0  0  0  0  0  0  0  0  0
  189.5380  171.7420  134.6390 C   0  0  0  0  0  2  0  0  0  0  0  0
  190.6600  171.1660  135.4890 C   0  0  0  0  0  2  0  0  0  0  0  0
  190.3260  171.3620  136.9640 C   0  0  0  0  0  2  0  0  0  0  0  0
  189.4620  173.2530  134.8280 C   0  0  0  0  0  2  0  0  0  0  0  0
  1 14  1  1  0  0  0
  1  5  1  0  0  0  0
  2  6  2  0  0  0  0
  3  8  1  0  0  0  0
  3  9  1  0  0  0  0
  4  2  1  0  0  0  0
  5 25  1  0  0  0  0
  5  7  2  0  0  0  0
  6  7  1  0  0  0  0
  7 17  1  0  0  0  0
  8 26  1  6  0  0  0
  8  4  1  0  0  0  0
  9  1  1  0  0  0  0
  9  2  1  0  0  0  0
 10 14  1  0  0  0  0
 12 13  2  0  0  0  0
 13 11  1  0  0  0  0
 14 11  2  0  0  0  0
 15 10  2  0  0  0  0
 15 12  1  0  0  0  0
 16 11  1  0  0  0  0
 17 18  2  0  0  0  0
 17 20  1  0  0  0  0
 20 19  2  0  0  0  0
 21 19  1  0  0  0  0
 22 21  1  0  0  0  0
 23 22  1  0  0  0  0
 24 25  1  0  0  0  0
 27 26  1  0  0  0  0
 29 27  1  0  0  0  0
 30 28  2  0  0  0  0
 30 29  1  0  0  0  0
 31 34  1  0  0  0  0
 31 32  1  0  0  0  0
 32 33  1  0  0  0  0
 33 29  1  0  0  0  0
 34 30  1  0  0  0  0
M  END
>  <MODEL>
4

>  <REMARK>
 VINA RESULT:      -6.2      2.700      6.900
  Name = 
  9 active torsions:
  status: ('A' for Active; 'I' for Inactive)
    1  A    between atoms: C_3  and  N_13
    2  A    between atoms: C_3  and  C_17
    3  A    between atoms: C_4  and  C_15
    4  A    between atoms: C_7  and  C_8
    5  A    between atoms: C_8  and  N_16
    6  A    between atoms: C_12  and  N_27
    7  A    between atoms: C_12  and  C_28
    8  A    between atoms: C_17  and  C_29
    9  A    between atoms: C_21  and  C_32
                            x       y       z     vdW  Elec       q    Type
                         _______ _______ _______ _____ _____    ______ ____

>  <TORSDO>
F 9

$$$$
=
 OpenBabel11052418373D

 34 37  0  0  1  0  0  0  0  0999 V2000
  190.3530  174.5880  144.9290 C   0  0  1  0  0  3  0  0  0  0  0  0
  189.5200  174.7760  142.5850 C   0  0  0  0  0  0  0  0  0  0  0  0
  191.1850  173.2170  142.8690 C   0  0  0  0  0  2  0  0  0  0  0  0
  189.8320  174.3850  141.3060 O   0  0  0  0  0  0  0  0  0  0  0  0
  189.1820  175.5010  145.2610 C   0  0  0  0  0  0  0  0  0  0  0  0
  188.6550  175.6860  142.8920 N   0  0  0  0  0  0  0  0  0  0  0  0
  188.4010  176.0310  144.2690 C   0  0  0  0  0  0  0  0  0  0  0  0
  190.8500  173.3870  141.3640 C   0  0  2  0  0  3  0  0  0  0  0  0
  190.2530  174.0920  143.5600 N   0  0  0  0  0  0  0  0  0  0  0  0
  191.9060  176.4070  144.4990 N   0  0  0  0  0  0  0  0  0  0  0  0
  192.6520  174.7140  146.1120 C   0  0  0  0  0  0  0  0  0  0  0  0
  194.1310  176.6280  145.3620 C   0  0  0  0  0  3  0  0  0  0  0  0
  193.9520  175.3770  146.0320 N   0  0  0  0  0  0  0  0  0  0  0  0
  191.6610  175.2950  145.1330 C   0  0  0  0  0  0  0  0  0  0  0  0
  193.1390  177.1260  144.6320 C   0  0  0  0  0  3  0  0  0  0  0  0
  192.1570  174.8340  147.3970 F   0  0  0  0  0  0  0  0  0  0  0  0
  187.2560  176.9420  144.5220 C   0  0  0  0  0  0  0  0  0  0  0  0
  186.3190  176.6070  145.2970 O   0  0  0  0  0  0  0  0  0  0  0  0
  186.5290  178.5260  142.8330 N   0  0  0  0  0  0  0  0  0  0  0  0
  187.2350  178.2170  143.8540 N   0  0  0  0  0  0  0  0  0  0  0  0
  185.6350  177.6160  142.1270 C   0  0  0  0  0  2  0  0  0  0  0  0
  184.2120  178.1390  142.1880 C   0  0  0  0  0  2  0  0  0  0  0  0
  183.9390  178.6410  143.5210 N   0  0  0  0  0  1  0  0  0  0  0  0
  188.9250  174.5140  147.5230 C   0  0  0  0  0  1  0  0  0  0  0  0
  188.9680  175.7990  146.7150 C   0  0  0  0  0  2  0  0  0  0  0  0
  190.3160  172.0840  140.7940 C   0  0  0  0  0  2  0  0  0  0  0  0
  189.0810  172.3450  139.9490 C   0  0  0  0  0  2  0  0  0  0  0  0
  188.5770  174.0840  137.7820 O   0  0  0  0  0  0  0  0  0  0  0  0
  189.3480  172.0100  138.5580 N   0  0  0  0  0  0  0  0  0  0  0  0
  189.1010  172.9700  137.5140 C   0  0  0  0  0  0  0  0  0  0  0  0
  189.5630  171.1930  135.8240 C   0  0  0  0  0  2  0  0  0  0  0  0
  190.3450  170.4690  136.9090 C   0  0  0  0  0  2  0  0  0  0  0  0
  189.6110  170.6080  138.2380 C   0  0  0  0  0  2  0  0  0  0  0  0
  189.5400  172.6910  136.1080 C   0  0  0  0  0  2  0  0  0  0  0  0
  1 14  1  6  0  0  0
  1  5  1  0  0  0  0
  2  6  2  0  0  0  0
  2  9  1  0  0  0  0
  3  9  1  0  0  0  0
  4  8  1  0  0  0  0
  4  2  1  0  0  0  0
  5 25  1  0  0  0  0
  6  7  1  0  0  0  0
  7 17  1  0  0  0  0
  7  5  2  0  0  0  0
  8 26  1  1  0  0  0
  8  3  1  0  0  0  0
  9  1  1  0  0  0  0
 10 15  2  0  0  0  0
 10 14  1  0  0  0  0
 11 16  1  0  0  0  0
 12 13  2  0  0  0  0
 13 11  1  0  0  0  0
 14 11  2  0  0  0  0
 15 12  1  0  0  0  0
 17 18  2  0  0  0  0
 19 20  2  0  0  0  0
 20 17  1  0  0  0  0
 21 22  1  0  0  0  0
 21 19  1  0  0  0  0
 22 23  1  0  0  0  0
 25 24  1  0  0  0  0
 27 26  1  0  0  0  0
 29 27  1  0  0  0  0
 30 28  2  0  0  0  0
 30 29  1  0  0  0  0
 31 34  1  0  0  0  0
 31 32  1  0  0  0  0
 32 33  1  0  0  0  0
 33 29  1  0  0  0  0
 34 30  1  0  0  0  0
M  END
>  <MODEL>
5

>  <REMARK>
 VINA RESULT:      -6.2      2.593      7.236
  Name = 
  9 active torsions:
  status: ('A' for Active; 'I' for Inactive)
    1  A    between atoms: C_3  and  N_13
    2  A    between atoms: C_3  and  C_17
    3  A    between atoms: C_4  and  C_15
    4  A    between atoms: C_7  and  C_8
    5  A    between atoms: C_8  and  N_16
    6  A    between atoms: C_12  and  N_27
    7  A    between atoms: C_12  and  C_28
    8  A    between atoms: C_17  and  C_29
    9  A    between atoms: C_21  and  C_32
                            x       y       z     vdW  Elec       q    Type
                         _______ _______ _______ _____ _____    ______ ____

>  <TORSDO>
F 9

$$$$
=
 OpenBabel11052418373D

 34 37  0  0  1  0  0  0  0  0999 V2000
  191.4000  174.0250  143.0830 C   0  0  1  0  0  3  0  0  0  0  0  0
  191.3060  176.5170  143.0260 C   0  0  0  0  0  0  0  0  0  0  0  0
  189.2510  175.4950  142.8900 C   0  0  0  0  0  2  0  0  0  0  0  0
  190.4380  177.5470  142.7570 O   0  0  0  0  0  0  0  0  0  0  0  0
  192.8690  174.2360  143.4200 C   0  0  0  0  0  0  0  0  0  0  0  0
  192.5880  176.6370  143.1370 N   0  0  0  0  0  0  0  0  0  0  0  0
  193.4170  175.4900  143.4160 C   0  0  0  0  0  0  0  0  0  0  0  0
  189.1130  177.0250  142.6760 C   0  0  2  0  0  3  0  0  0  0  0  0
  190.6640  175.2830  143.1610 N   0  0  0  0  0  0  0  0  0  0  0  0
  191.8450  173.9430  140.6960 N   0  0  0  0  0  0  0  0  0  0  0  0
  190.4180  172.1550  141.5860 C   0  0  0  0  0  0  0  0  0  0  0  0
  190.9130  172.4020  139.1150 C   0  0  0  0  0  3  0  0  0  0  0  0
  190.1710  171.8130  140.1860 N   0  0  0  0  0  0  0  0  0  0  0  0
  191.2430  173.4120  141.7220 C   0  0  0  0  0  0  0  0  0  0  0  0
  191.7250  173.4230  139.3660 C   0  0  0  0  0  3  0  0  0  0  0  0
  191.0690  171.1050  142.2050 F   0  0  0  0  0  0  0  0  0  0  0  0
  194.8460  175.7650  143.7170 C   0  0  0  0  0  0  0  0  0  0  0  0
  195.5740  176.3840  142.8950 O   0  0  0  0  0  0  0  0  0  0  0  0
  194.9400  175.5800  146.1350 N   0  0  0  0  0  0  0  0  0  0  0  0
  195.3830  175.2990  144.9680 N   0  0  0  0  0  0  0  0  0  0  0  0
  193.8190  176.4700  146.4130 C   0  0  0  0  0  2  0  0  0  0  0  0
  192.6250  175.6640  146.8880 C   0  0  0  0  0  2  0  0  0  0  0  0
  191.4100  176.4230  146.6630 N   0  0  0  0  0  1  0  0  0  0  0  0
  193.1890  172.3590  145.0110 C   0  0  0  0  0  1  0  0  0  0  0  0
  193.6630  172.9990  143.7180 C   0  0  0  0  0  2  0  0  0  0  0  0
  188.2600  177.6350  143.7750 C   0  0  0  0  0  2  0  0  0  0  0  0
  187.1690  176.6660  144.1950 C   0  0  0  0  0  2  0  0  0  0  0  0
  184.7280  178.0200  143.7670 O   0  0  0  0  0  0  0  0  0  0  0  0
  186.3650  177.2490  145.2590 N   0  0  0  0  0  0  0  0  0  0  0  0
  185.1100  177.8890  144.9610 C   0  0  0  0  0  0  0  0  0  0  0  0
  184.9920  178.6750  147.3250 C   0  0  0  0  0  2  0  0  0  0  0  0
  185.9420  177.5390  147.6730 C   0  0  0  0  0  2  0  0  0  0  0  0
  186.9890  177.4030  146.5730 C   0  0  0  0  0  2  0  0  0  0  0  0
  184.2020  178.3300  146.0690 C   0  0  0  0  0  2  0  0  0  0  0  0
  1 14  1  6  0  0  0
  1  9  1  0  0  0  0
  1  5  1  0  0  0  0
  2  6  2  0  0  0  0
  2  9  1  0  0  0  0
  3  9  1  0  0  0  0
  4  2  1  0  0  0  0
  5 25  1  0  0  0  0
  6  7  1  0  0  0  0
  7  5  2  0  0  0  0
  7 17  1  0  0  0  0
  8  4  1  0  0  0  0
  8  3  1  0  0  0  0
  8 26  1  1  0  0  0
 10 14  1  0  0  0  0
 11 14  2  0  0  0  0
 11 16  1  0  0  0  0
 12 15  1  0  0  0  0
 12 13  2  0  0  0  0
 13 11  1  0  0  0  0
 15 10  2  0  0  0  0
 17 20  1  0  0  0  0
 18 17  2  0  0  0  0
 19 21  1  0  0  0  0
 20 19  2  0  0  0  0
 21 22  1  0  0  0  0
 23 22  1  0  0  0  0
 25 24  1  0  0  0  0
 26 27  1  0  0  0  0
 27 29  1  0  0  0  0
 28 30  2  0  0  0  0
 29 33  1  0  0  0  0
 30 29  1  0  0  0  0
 30 34  1  0  0  0  0
 31 32  1  0  0  0  0
 33 32  1  0  0  0  0
 34 31  1  0  0  0  0
M  END
>  <MODEL>
6

>  <REMARK>
 VINA RESULT:      -6.2      1.669      2.035
  Name = 
  9 active torsions:
  status: ('A' for Active; 'I' for Inactive)
    1  A    between atoms: C_3  and  N_13
    2  A    between atoms: C_3  and  C_17
    3  A    between atoms: C_4  and  C_15
    4  A    between atoms: C_7  and  C_8
    5  A    between atoms: C_8  and  N_16
    6  A    between atoms: C_12  and  N_27
    7  A    between atoms: C_12  and  C_28
    8  A    between atoms: C_17  and  C_29
    9  A    between atoms: C_21  and  C_32
                            x       y       z     vdW  Elec       q    Type
                         _______ _______ _______ _____ _____    ______ ____

>  <TORSDO>
F 9

$$$$
=
 OpenBabel11052418373D

 34 37  0  0  1  0  0  0  0  0999 V2000
  189.0510  174.1040  141.7350 C   0  0  1  0  0  3  0  0  0  0  0  0
  189.6470  176.4380  142.3820 C   0  0  0  0  0  0  0  0  0  0  0  0
  187.6670  176.2590  141.2290 C   0  0  0  0  0  2  0  0  0  0  0  0
  189.2850  177.7400  142.1360 O   0  0  0  0  0  0  0  0  0  0  0  0
  190.2270  173.7160  142.6200 C   0  0  0  0  0  0  0  0  0  0  0  0
  190.7360  176.0700  142.9720 N   0  0  0  0  0  0  0  0  0  0  0  0
  191.0300  174.6730  143.1790 C   0  0  0  0  0  0  0  0  0  0  0  0
  188.0410  177.7490  141.4390 C   0  0  2  0  0  3  0  0  0  0  0  0
  188.7120  175.5130  141.9100 N   0  0  0  0  0  0  0  0  0  0  0  0
  190.5770  173.7910  139.8700 N   0  0  0  0  0  0  0  0  0  0  0  0
  188.1910  173.5090  139.3670 C   0  0  0  0  0  0  0  0  0  0  0  0
  189.9840  173.3960  137.5820 C   0  0  0  0  0  3  0  0  0  0  0  0
  188.6090  173.4760  137.9660 N   0  0  0  0  0  0  0  0  0  0  0  0
  189.3440  173.8140  140.2920 C   0  0  0  0  0  0  0  0  0  0  0  0
  190.9300  173.5390  138.5040 C   0  0  0  0  0  3  0  0  0  0  0  0
  187.6350  172.2900  139.7070 F   0  0  0  0  0  0  0  0  0  0  0  0
  192.2040  174.3640  144.0360 C   0  0  0  0  0  0  0  0  0  0  0  0
  193.2770  173.9360  143.5340 O   0  0  0  0  0  0  0  0  0  0  0  0
  192.4200  175.6030  146.1120 N   0  0  0  0  0  0  0  0  0  0  0  0
  192.0830  174.5570  145.4570 N   0  0  0  0  0  0  0  0  0  0  0  0
  193.0360  176.7910  145.5320 C   0  0  0  0  0  2  0  0  0  0  0  0
  194.5440  176.6340  145.5120 C   0  0  0  0  0  2  0  0  0  0  0  0
  194.9420  175.6620  146.5130 N   0  0  0  0  0  1  0  0  0  0  0  0
  189.6930  171.7320  144.0100 C   0  0  0  0  0  1  0  0  0  0  0  0
  190.4580  172.2460  142.8040 C   0  0  0  0  0  2  0  0  0  0  0  0
  186.9890  178.4400  142.2890 C   0  0  0  0  0  2  0  0  0  0  0  0
  186.0070  177.4230  142.8450 C   0  0  0  0  0  2  0  0  0  0  0  0
  187.4830  176.4080  145.0270 O   0  0  0  0  0  0  0  0  0  0  0  0
  185.7100  177.7250  144.2380 N   0  0  0  0  0  0  0  0  0  0  0  0
  186.5390  177.1990  145.2920 C   0  0  0  0  0  0  0  0  0  0  0  0
  184.8950  178.0600  146.9590 C   0  0  0  0  0  2  0  0  0  0  0  0
  184.4360  179.0410  145.8910 C   0  0  0  0  0  2  0  0  0  0  0  0
  184.4180  178.3390  144.5380 C   0  0  0  0  0  2  0  0  0  0  0  0
  186.3420  177.6520  146.7070 C   0  0  0  0  0  2  0  0  0  0  0  0
  1 14  1  6  0  0  0
  1  9  1  0  0  0  0
  1  5  1  0  0  0  0
  2  6  2  0  0  0  0
  3  8  1  0  0  0  0
  3  9  1  0  0  0  0
  4  2  1  0  0  0  0
  5 25  1  0  0  0  0
  5  7  2  0  0  0  0
  6  7  1  0  0  0  0
  7 17  1  0  0  0  0
  8  4  1  0  0  0  0
  8 26  1  1  0  0  0
  9  2  1  0  0  0  0
 10 14  1  0  0  0  0
 11 16  1  0  0  0  0
 11 14  2  0  0  0  0
 12 13  2  0  0  0  0
 12 15  1  0  0  0  0
 13 11  1  0  0  0  0
 15 10  2  0  0  0  0
 17 20  1  0  0  0  0
 18 17  2  0  0  0  0
 20 19  2  0  0  0  0
 21 19  1  0  0  0  0
 22 21  1  0  0  0  0
 22 23  1  0  0  0  0
 25 24  1  0  0  0  0
 26 27  1  0  0  0  0
 27 29  1  0  0  0  0
 28 30  2  0  0  0  0
 29 33  1  0  0  0  0
 29 30  1  0  0  0  0
 30 34  1  0  0  0  0
 32 31  1  0  0  0  0
 33 32  1  0  0  0  0
 34 31  1  0  0  0  0
M  END
>  <MODEL>
7

>  <REMARK>
 VINA RESULT:      -6.1      1.692      2.242
  Name = 
  9 active torsions:
  status: ('A' for Active; 'I' for Inactive)
    1  A    between atoms: C_3  and  N_13
    2  A    between atoms: C_3  and  C_17
    3  A    between atoms: C_4  and  C_15
    4  A    between atoms: C_7  and  C_8
    5  A    between atoms: C_8  and  N_16
    6  A    between atoms: C_12  and  N_27
    7  A    between atoms: C_12  and  C_28
    8  A    between atoms: C_17  and  C_29
    9  A    between atoms: C_21  and  C_32
                            x       y       z     vdW  Elec       q    Type
                         _______ _______ _______ _____ _____    ______ ____

>  <TORSDO>
F 9

$$$$
=
 OpenBabel11052418373D

 34 37  0  0  1  0  0  0  0  0999 V2000
  189.7860  176.3610  144.0530 C   0  0  1  0  0  3  0  0  0  0  0  0
  190.6260  175.8630  146.3480 C   0  0  0  0  0  0  0  0  0  0  0  0
  192.2310  175.7230  144.7090 C   0  0  0  0  0  2  0  0  0  0  0  0
  191.7190  175.3410  146.9960 O   0  0  0  0  0  0  0  0  0  0  0  0
  188.5140  176.7860  144.7710 C   0  0  0  0  0  0  0  0  0  0  0  0
  189.4700  176.0650  146.8900 N   0  0  0  0  0  0  0  0  0  0  0  0
  188.3790  176.6130  146.1220 C   0  0  0  0  0  0  0  0  0  0  0  0
  192.7970  175.2350  146.0670 C   0  0  2  0  0  3  0  0  0  0  0  0
  190.8740  176.1520  145.0030 N   0  0  0  0  0  0  0  0  0  0  0  0
  189.2590  173.9990  143.8360 N   0  0  0  0  0  0  0  0  0  0  0  0
  189.6350  175.2140  141.7370 C   0  0  0  0  0  0  0  0  0  0  0  0
  189.2260  172.7160  141.8120 C   0  0  0  0  0  3  0  0  0  0  0  0
  189.6180  173.8950  141.1050 N   0  0  0  0  0  0  0  0  0  0  0  0
  189.5570  175.1200  143.2420 C   0  0  0  0  0  0  0  0  0  0  0  0
  189.0450  172.7720  143.1280 C   0  0  0  0  0  3  0  0  0  0  0  0
  188.5730  175.9610  141.2640 F   0  0  0  0  0  0  0  0  0  0  0  0
  187.1580  176.9870  146.8820 C   0  0  0  0  0  0  0  0  0  0  0  0
  186.4130  176.1050  147.3880 O   0  0  0  0  0  0  0  0  0  0  0  0
  185.7280  178.9420  146.7210 N   0  0  0  0  0  0  0  0  0  0  0  0
  186.8400  178.3840  147.0200 N   0  0  0  0  0  0  0  0  0  0  0  0
  184.5790  178.2580  146.1390 C   0  0  0  0  0  2  0  0  0  0  0  0
  184.0600  179.0420  144.9490 C   0  0  0  0  0  2  0  0  0  0  0  0
  185.1410  179.8200  144.3750 N   0  0  0  0  0  1  0  0  0  0  0  0
  186.3600  176.3260  143.6270 C   0  0  0  0  0  1  0  0  0  0  0  0
  187.4300  177.3650  143.9100 C   0  0  0  0  0  2  0  0  0  0  0  0
  193.9400  176.1310  146.5130 C   0  0  0  0  0  2  0  0  0  0  0  0
  194.7330  176.6140  145.3110 C   0  0  0  0  0  2  0  0  0  0  0  0
  196.2630  176.6940  142.9390 O   0  0  0  0  0  0  0  0  0  0  0  0
  195.7830  175.6590  144.9890 N   0  0  0  0  0  0  0  0  0  0  0  0
  196.5460  175.7940  143.7750 C   0  0  0  0  0  0  0  0  0  0  0  0
  197.5950  173.5770  144.2340 C   0  0  0  0  0  2  0  0  0  0  0  0
  197.2320  173.7910  145.6960 C   0  0  0  0  0  2  0  0  0  0  0  0
  195.8520  174.4340  145.7830 C   0  0  0  0  0  2  0  0  0  0  0  0
  197.7400  174.9220  143.5300 C   0  0  0  0  0  2  0  0  0  0  0  0
  1 14  1  1  0  0  0
  1  5  1  0  0  0  0
  1  9  1  0  0  0  0
  2  6  2  0  0  0  0
  2  4  1  0  0  0  0
  3  9  1  0  0  0  0
  3  8  1  0  0  0  0
  5  7  2  0  0  0  0
  7 17  1  0  0  0  0
  7  6  1  0  0  0  0
  8 26  1  1  0  0  0
  8  4  1  0  0  0  0
  9  2  1  0  0  0  0
 11 14  2  0  0  0  0
 12 15  1  0  0  0  0
 13 11  1  0  0  0  0
 13 12  2  0  0  0  0
 14 10  1  0  0  0  0
 15 10  2  0  0  0  0
 16 11  1  0  0  0  0
 17 20  1  0  0  0  0
 17 18  2  0  0  0  0
 19 20  2  0  0  0  0
 21 19  1  0  0  0  0
 22 21  1  0  0  0  0
 23 22  1  0  0  0  0
 24 25  1  0  0  0  0
 25  5  1  0  0  0  0
 27 26  1  0  0  0  0
 28 30  2  0  0  0  0
 29 27  1  0  0  0  0
 29 33  1  0  0  0  0
 30 29  1  0  0  0  0
 31 32  1  0  0  0  0
 32 33  1  0  0  0  0
 34 30  1  0  0  0  0
 34 31  1  0  0  0  0
M  END
>  <MODEL>
8

>  <REMARK>
 VINA RESULT:      -6.1      2.795      7.376
  Name = 
  9 active torsions:
  status: ('A' for Active; 'I' for Inactive)
    1  A    between atoms: C_3  and  N_13
    2  A    between atoms: C_3  and  C_17
    3  A    between atoms: C_4  and  C_15
    4  A    between atoms: C_7  and  C_8
    5  A    between atoms: C_8  and  N_16
    6  A    between atoms: C_12  and  N_27
    7  A    between atoms: C_12  and  C_28
    8  A    between atoms: C_17  and  C_29
    9  A    between atoms: C_21  and  C_32
                            x       y       z     vdW  Elec       q    Type
                         _______ _______ _______ _____ _____    ______ ____

>  <TORSDO>
F 9

$$$$
=
 OpenBabel11052418373D

 34 37  0  0  1  0  0  0  0  0999 V2000
  188.7760  176.4070  141.9210 C   0  0  1  0  0  3  0  0  0  0  0  0
  188.8710  173.9390  142.2740 C   0  0  0  0  0  0  0  0  0  0  0  0
  188.4040  174.5620  140.1110 C   0  0  0  0  0  2  0  0  0  0  0  0
  188.5600  172.7570  141.6460 O   0  0  0  0  0  0  0  0  0  0  0  0
  189.3120  176.4810  143.3430 C   0  0  0  0  0  0  0  0  0  0  0  0
  189.1530  174.0600  143.5290 N   0  0  0  0  0  0  0  0  0  0  0  0
  189.4610  175.3490  144.0980 C   0  0  0  0  0  0  0  0  0  0  0  0
  188.2760  173.0250  140.2740 C   0  0  2  0  0  3  0  0  0  0  0  0
  188.8400  175.0400  141.4130 N   0  0  0  0  0  0  0  0  0  0  0  0
  186.9590  177.5470  140.7800 N   0  0  0  0  0  0  0  0  0  0  0  0
  186.4430  176.6640  143.0110 C   0  0  0  0  0  0  0  0  0  0  0  0
  184.7860  178.0290  141.6680 C   0  0  0  0  0  3  0  0  0  0  0  0
  185.1940  177.4170  142.8940 N   0  0  0  0  0  0  0  0  0  0  0  0
  187.3690  176.9240  141.8490 C   0  0  0  0  0  0  0  0  0  0  0  0
  185.6360  178.0820  140.6480 C   0  0  0  0  0  3  0  0  0  0  0  0
  186.1570  175.3140  143.0840 F   0  0  0  0  0  0  0  0  0  0  0  0
  189.9610  175.3530  145.4970 C   0  0  0  0  0  0  0  0  0  0  0  0
  191.1560  175.6550  145.7580 O   0  0  0  0  0  0  0  0  0  0  0  0
  188.2270  175.7760  147.1420 N   0  0  0  0  0  0  0  0  0  0  0  0
  189.0480  174.9940  146.5500 N   0  0  0  0  0  0  0  0  0  0  0  0
  188.0950  177.2050  146.8790 C   0  0  0  0  0  2  0  0  0  0  0  0
  186.6580  177.5350  146.5250 C   0  0  0  0  0  2  0  0  0  0  0  0
  185.9270  177.8650  147.7330 N   0  0  0  0  0  1  0  0  0  0  0  0
  191.0270  178.2720  143.4420 C   0  0  0  0  0  1  0  0  0  0  0  0
  189.6280  177.8540  143.8590 C   0  0  0  0  0  2  0  0  0  0  0  0
  189.2940  172.3160  139.3980 C   0  0  0  0  0  2  0  0  0  0  0  0
  190.3970  171.7150  140.2510 C   0  0  0  0  0  2  0  0  0  0  0  0
  191.9800  172.3080  142.5130 O   0  0  0  0  0  0  0  0  0  0  0  0
  191.5760  172.5670  140.2170 N   0  0  0  0  0  0  0  0  0  0  0  0
  192.3540  172.7870  141.4100 C   0  0  0  0  0  0  0  0  0  0  0  0
  193.6750  174.5110  140.1820 C   0  0  0  0  0  2  0  0  0  0  0  0
  193.2390  173.8250  138.8970 C   0  0  0  0  0  2  0  0  0  0  0  0
  191.7830  173.3910  139.0270 C   0  0  0  0  0  2  0  0  0  0  0  0
  193.6610  173.5160  141.3370 C   0  0  0  0  0  2  0  0  0  0  0  0
  1 14  1  1  0  0  0
  1  5  1  0  0  0  0
  2  6  2  0  0  0  0
  3  8  1  0  0  0  0
  3  9  1  0  0  0  0
  4  2  1  0  0  0  0
  5 25  1  0  0  0  0
  5  7  2  0  0  0  0
  6  7  1  0  0  0  0
  7 17  1  0  0  0  0
  8 26  1  6  0  0  0
  8  4  1  0  0  0  0
  9  1  1  0  0  0  0
  9  2  1  0  0  0  0
 10 14  1  0  0  0  0
 11 16  1  0  0  0  0
 12 13  2  0  0  0  0
 13 11  1  0  0  0  0
 14 11  2  0  0  0  0
 15 10  2  0  0  0  0
 15 12  1  0  0  0  0
 17 18  2  0  0  0  0
 17 20  1  0  0  0  0
 20 19  2  0  0  0  0
 21 19  1  0  0  0  0
 22 21  1  0  0  0  0
 22 23  1  0  0  0  0
 24 25  1  0  0  0  0
 26 27  1  0  0  0  0
 29 27  1  0  0  0  0
 29 30  1  0  0  0  0
 30 28  2  0  0  0  0
 31 34  1  0  0  0  0
 32 33  1  0  0  0  0
 32 31  1  0  0  0  0
 33 29  1  0  0  0  0
 34 30  1  0  0  0  0
M  END
>  <MODEL>
9

>  <REMARK>
 VINA RESULT:      -6.0      2.693      6.399
  Name = 
  9 active torsions:
  status: ('A' for Active; 'I' for Inactive)
    1  A    between atoms: C_3  and  N_13
    2  A    between atoms: C_3  and  C_17
    3  A    between atoms: C_4  and  C_15
    4  A    between atoms: C_7  and  C_8
    5  A    between atoms: C_8  and  N_16
    6  A    between atoms: C_12  and  N_27
    7  A    between atoms: C_12  and  C_28
    8  A    between atoms: C_17  and  C_29
    9  A    between atoms: C_21  and  C_32
                            x       y       z     vdW  Elec       q    Type
                         _______ _______ _______ _____ _____    ______ ____

>  <TORSDO>
F 9

$$$$
