=
 OpenBabel11052419103D

 32 38  0  0  1  0  0  0  0  0999 V2000
  188.8080  175.8050  143.0880 C   0  0  0  0  0  0  0  0  0  0  0  0
  187.5170  178.0040  143.0050 C   0  0  1  0  0  3  0  0  0  0  0  0
  189.2170  174.6290  142.4370 C   0  0  0  0  0  3  0  0  0  0  0  0
  187.9800  176.7140  142.3970 C   0  0  0  0  0  0  0  0  0  0  0  0
  186.0360  178.1520  142.6320 C   0  0  1  0  0  3  0  0  0  0  0  0
  185.4930  177.6500  147.5760 C   0  0  0  0  0  2  0  0  0  0  0  0
  187.8120  178.1850  144.5100 C   0  0  2  0  0  3  0  0  0  0  0  0
  184.1910  178.6610  145.6630 C   0  0  0  0  0  2  0  0  0  0  0  0
  185.5140  178.9950  144.9870 C   0  0  2  0  0  3  0  0  0  0  0  0
  187.5440  176.4220  141.0900 C   0  0  0  0  0  0  0  0  0  0  0  0
  185.3560  179.2440  143.4760 C   0  0  0  0  0  2  0  0  0  0  0  0
  186.4910  177.2690  140.3990 C   0  0  0  0  0  2  0  0  0  0  0  0
  187.9840  175.2580  140.4560 C   0  0  0  0  0  3  0  0  0  0  0  0
  189.0820  177.4680  144.9660 C   0  0  0  0  0  2  0  0  0  0  0  0
  189.0890  175.9930  144.5620 C   0  0  2  0  0  3  0  0  0  0  0  0
  186.5610  177.9260  145.3460 C   0  0  2  0  0  3  0  0  0  0  0  0
  185.9500  178.4010  141.1840 N   0  0  0  0  0  0  0  0  0  0  0  0
  188.8290  174.3700  141.1220 C   0  0  0  0  0  3  0  0  0  0  0  0
  184.3930  178.6400  147.1800 C   0  0  0  0  0  2  0  0  0  0  0  0
  186.8020  177.9670  146.8530 C   0  0  0  0  0  2  0  0  0  0  0  0
  191.6480  175.5220  147.3080 C   0  0  1  0  0  3  0  0  0  0  0  0
  194.3060  173.4370  145.5410 C   0  0  0  0  0  1  0  0  0  0  0  0
  191.6660  174.8900  148.5530 O   0  0  0  0  0  1  0  0  0  0  0  0
  192.9740  175.4680  145.0670 C   0  0  2  0  0  3  0  0  0  0  0  0
  190.3680  175.2830  145.0390 C   0  0  1  0  0  3  0  0  0  0  0  0
  192.9840  175.2540  146.5800 C   0  0  2  0  0  3  0  0  0  0  0  0
  191.6330  175.9690  144.4970 C   0  0  0  0  0  2  0  0  0  0  0  0
  190.4050  175.1440  146.5370 C   0  0  0  0  0  0  0  0  0  0  0  0
  189.4210  174.7250  147.1290 O   0  0  0  0  0  0  0  0  0  0  0  0
  192.9270  174.0570  145.6370 C   0  0  2  0  0  3  0  0  0  0  0  0
  184.5440  178.4970  140.8080 C   0  0  0  0  0  2  0  0  0  0  0  0
  184.2410  177.5030  139.7030 C   0  0  0  0  0  1  0  0  0  0  0  0
  1 15  1  0  0  0  0
  2  4  1  1  0  0  0
  2  7  1  0  0  0  0
  3  1  1  0  0  0  0
  4  1  2  0  0  0  0
  5  2  1  0  0  0  0
  5 11  1  1  0  0  0
  7 14  1  1  0  0  0
  7 16  1  0  0  0  0
  8 19  1  0  0  0  0
  9 11  1  6  0  0  0
  9 16  1  0  0  0  0
  9  8  1  0  0  0  0
 10  4  1  0  0  0  0
 12 10  1  0  0  0  0
 12 17  1  0  0  0  0
 13 10  2  0  0  0  0
 13 18  1  0  0  0  0
 15 14  1  6  0  0  0
 15 25  1  0  0  0  0
 16 20  1  1  0  0  0
 17  5  1  0  0  0  0
 18  3  2  0  0  0  0
 19  6  1  0  0  0  0
 20  6  1  0  0  0  0
 21 23  1  1  0  0  0
 22 30  1  0  0  0  0
 24 27  1  1  0  0  0
 24 30  1  0  0  0  0
 24 26  1  0  0  0  0
 25 27  1  1  0  0  0
 25 28  1  0  0  0  0
 26 21  1  0  0  0  0
 28 29  2  0  0  0  0
 28 21  1  0  0  0  0
 30 26  1  0  0  0  0
 31 17  1  0  0  0  0
 32 31  1  0  0  0  0
M  END
>  <MODEL>
1

>  <REMARK>
 VINA RESULT:      -9.7      0.000      0.000
  Name = 
  2 active torsions:
  status: ('A' for Active; 'I' for Inactive)
    1  A    between atoms: C_13  and  N_29
    2  A    between atoms: C_16  and  C_27
                            x       y       z     vdW  Elec       q    Type
                         _______ _______ _______ _____ _____    ______ ____

>  <TORSDO>
F 2

$$$$
=
 OpenBabel11052419103D

 32 38  0  0  1  0  0  0  0  0999 V2000
  189.7330  175.7400  145.4280 C   0  0  0  0  0  0  0  0  0  0  0  0
  191.7090  175.6710  143.8150 C   0  0  1  0  0  3  0  0  0  0  0  0
  189.2600  175.6710  146.7480 C   0  0  0  0  0  3  0  0  0  0  0  0
  191.1150  175.5870  145.1890 C   0  0  0  0  0  0  0  0  0  0  0  0
  192.7380  174.5380  143.7170 C   0  0  1  0  0  3  0  0  0  0  0  0
  189.4870  172.8630  140.3080 C   0  0  0  0  0  2  0  0  0  0  0  0
  190.7020  175.7140  142.6460 C   0  0  2  0  0  3  0  0  0  0  0  0
  191.9470  172.5900  140.8140 C   0  0  0  0  0  2  0  0  0  0  0  0
  191.9590  174.0190  141.3390 C   0  0  2  0  0  3  0  0  0  0  0  0
  191.9940  175.3310  146.2590 C   0  0  0  0  0  0  0  0  0  0  0  0
  193.1630  174.2960  142.2590 C   0  0  0  0  0  2  0  0  0  0  0  0
  193.4440  174.9560  146.0190 C   0  0  0  0  0  2  0  0  0  0  0  0
  191.5030  175.2910  147.5660 C   0  0  0  0  0  3  0  0  0  0  0  0
  189.3780  176.3840  143.0130 C   0  0  0  0  0  2  0  0  0  0  0  0
  188.7560  175.7800  144.2730 C   0  0  2  0  0  3  0  0  0  0  0  0
  190.5950  174.3510  141.9660 C   0  0  2  0  0  3  0  0  0  0  0  0
  193.8660  174.8640  144.6030 N   0  0  0  0  0  0  0  0  0  0  0  0
  190.1410  175.4730  147.8120 C   0  0  0  0  0  3  0  0  0  0  0  0
  190.8540  172.4560  139.7500 C   0  0  0  0  0  2  0  0  0  0  0  0
  189.5280  174.2820  140.8770 C   0  0  0  0  0  2  0  0  0  0  0  0
  185.7870  177.7980  143.0800 C   0  0  1  0  0  3  0  0  0  0  0  0
  184.0680  178.6660  146.3710 C   0  0  0  0  0  1  0  0  0  0  0  0
  184.6570  177.5410  142.3040 O   0  0  0  0  0  1  0  0  0  0  0  0
  186.3670  178.6980  145.4550 C   0  0  2  0  0  3  0  0  0  0  0  0
  187.4190  176.4570  144.6230 C   0  0  1  0  0  3  0  0  0  0  0  0
  185.3910  178.6900  144.2780 C   0  0  2  0  0  3  0  0  0  0  0  0
  187.6330  177.8450  145.2480 C   0  0  0  0  0  2  0  0  0  0  0  0
  186.4940  176.5120  143.4380 C   0  0  0  0  0  0  0  0  0  0  0  0
  186.3160  175.5080  142.7630 O   0  0  0  0  0  0  0  0  0  0  0  0
  185.0750  177.8960  145.5420 C   0  0  2  0  0  3  0  0  0  0  0  0
  194.8310  173.7720  144.5560 C   0  0  0  0  0  2  0  0  0  0  0  0
  194.3280  172.6080  145.3880 C   0  0  0  0  0  1  0  0  0  0  0  0
  1  3  1  0  0  0  0
  2  4  1  1  0  0  0
  3 18  2  0  0  0  0
  4  1  2  0  0  0  0
  4 10  1  0  0  0  0
  5 11  1  6  0  0  0
  5  2  1  0  0  0  0
  5 17  1  0  0  0  0
  6 20  1  0  0  0  0
  7 14  1  1  0  0  0
  7  2  1  0  0  0  0
  9  8  1  1  0  0  0
  9 16  1  0  0  0  0
  9 11  1  0  0  0  0
 10 13  2  0  0  0  0
 12 10  1  0  0  0  0
 13 18  1  0  0  0  0
 15 14  1  6  0  0  0
 15 25  1  0  0  0  0
 15  1  1  0  0  0  0
 16 20  1  6  0  0  0
 16  7  1  0  0  0  0
 17 12  1  0  0  0  0
 19  6  1  0  0  0  0
 19  8  1  0  0  0  0
 21 23  1  1  0  0  0
 21 28  1  0  0  0  0
 21 26  1  0  0  0  0
 24 27  1  6  0  0  0
 24 30  1  0  0  0  0
 25 27  1  6  0  0  0
 26 24  1  0  0  0  0
 26 30  1  0  0  0  0
 28 25  1  0  0  0  0
 29 28  2  0  0  0  0
 30 22  1  0  0  0  0
 31 17  1  0  0  0  0
 31 32  1  0  0  0  0
M  END
>  <MODEL>
2

>  <REMARK>
 VINA RESULT:      -8.4      2.783      7.846
  Name = 
  2 active torsions:
  status: ('A' for Active; 'I' for Inactive)
    1  A    between atoms: C_13  and  N_29
    2  A    between atoms: C_16  and  C_27
                            x       y       z     vdW  Elec       q    Type
                         _______ _______ _______ _____ _____    ______ ____

>  <TORSDO>
F 2

$$$$
=
 OpenBabel11052419103D

 32 38  0  0  1  0  0  0  0  0999 V2000
  190.5100  176.5850  145.7760 C   0  0  0  0  0  0  0  0  0  0  0  0
  192.2000  175.5330  144.1790 C   0  0  1  0  0  3  0  0  0  0  0  0
  190.2390  177.1500  147.0330 C   0  0  0  0  0  3  0  0  0  0  0  0
  191.8160  176.1260  145.5020 C   0  0  0  0  0  0  0  0  0  0  0  0
  193.0770  174.3140  144.4890 C   0  0  1  0  0  3  0  0  0  0  0  0
  189.1860  171.9160  142.4610 C   0  0  0  0  0  2  0  0  0  0  0  0
  191.0360  175.2460  143.2060 C   0  0  2  0  0  3  0  0  0  0  0  0
  191.6510  171.4870  142.8070 C   0  0  0  0  0  2  0  0  0  0  0  0
  191.8950  172.9820  142.6560 C   0  0  2  0  0  3  0  0  0  0  0  0
  192.8160  176.2030  146.4910 C   0  0  0  0  0  0  0  0  0  0  0  0
  193.2470  173.4210  143.2490 C   0  0  0  0  0  2  0  0  0  0  0  0
  194.1650  175.5340  146.3060 C   0  0  0  0  0  2  0  0  0  0  0  0
  192.5270  176.7910  147.7240 C   0  0  0  0  0  3  0  0  0  0  0  0
  189.8630  176.2110  143.3660 C   0  0  0  0  0  2  0  0  0  0  0  0
  189.3790  176.2960  144.8140 C   0  0  2  0  0  3  0  0  0  0  0  0
  190.6840  173.7600  143.1990 C   0  0  2  0  0  3  0  0  0  0  0  0
  194.3540  174.7940  145.0370 N   0  0  0  0  0  0  0  0  0  0  0  0
  191.2460  177.2750  147.9910 C   0  0  0  0  0  3  0  0  0  0  0  0
  190.4020  171.0990  142.0120 C   0  0  0  0  0  2  0  0  0  0  0  0
  189.4620  173.4160  142.3510 C   0  0  0  0  0  2  0  0  0  0  0  0
  185.6680  176.7320  145.4040 C   0  0  1  0  0  3  0  0  0  0  0  0
  185.1910  180.4360  144.6380 C   0  0  0  0  0  1  0  0  0  0  0  0
  184.8160  176.6240  146.5040 O   0  0  0  0  0  1  0  0  0  0  0  0
  186.3260  178.4960  143.6030 C   0  0  2  0  0  3  0  0  0  0  0  0
  188.1900  177.2630  144.9560 C   0  0  1  0  0  3  0  0  0  0  0  0
  185.2620  177.9620  144.5630 C   0  0  2  0  0  3  0  0  0  0  0  0
  187.6390  177.6890  143.5860 C   0  0  0  0  0  2  0  0  0  0  0  0
  187.1130  176.6970  145.8420 C   0  0  0  0  0  0  0  0  0  0  0  0
  187.4140  176.2060  146.9210 O   0  0  0  0  0  0  0  0  0  0  0  0
  186.0500  179.2200  144.9140 C   0  0  2  0  0  3  0  0  0  0  0  0
  195.1800  173.6420  145.3810 C   0  0  0  0  0  2  0  0  0  0  0  0
  196.5690  174.1050  145.7720 C   0  0  0  0  0  1  0  0  0  0  0  0
  1  3  1  0  0  0  0
  2  5  1  0  0  0  0
  2  4  1  1  0  0  0
  3 18  2  0  0  0  0
  4  1  2  0  0  0  0
  4 10  1  0  0  0  0
  5 11  1  6  0  0  0
  5 17  1  0  0  0  0
  7 14  1  1  0  0  0
  7  2  1  0  0  0  0
  9  8  1  1  0  0  0
  9 16  1  0  0  0  0
  9 11  1  0  0  0  0
 10 13  2  0  0  0  0
 12 10  1  0  0  0  0
 13 18  1  0  0  0  0
 15 14  1  6  0  0  0
 15 25  1  0  0  0  0
 15  1  1  0  0  0  0
 16 20  1  6  0  0  0
 16  7  1  0  0  0  0
 17 31  1  0  0  0  0
 17 12  1  0  0  0  0
 19  6  1  0  0  0  0
 19  8  1  0  0  0  0
 20  6  1  0  0  0  0
 21 28  1  0  0  0  0
 21 23  1  1  0  0  0
 22 30  1  0  0  0  0
 24 27  1  1  0  0  0
 24 26  1  0  0  0  0
 24 30  1  0  0  0  0
 25 27  1  6  0  0  0
 25 28  1  0  0  0  0
 26 30  1  0  0  0  0
 26 21  1  0  0  0  0
 28 29  2  0  0  0  0
 31 32  1  0  0  0  0
M  END
>  <MODEL>
3

>  <REMARK>
 VINA RESULT:      -8.2      2.710      7.876
  Name = 
  2 active torsions:
  status: ('A' for Active; 'I' for Inactive)
    1  A    between atoms: C_13  and  N_29
    2  A    between atoms: C_16  and  C_27
                            x       y       z     vdW  Elec       q    Type
                         _______ _______ _______ _____ _____    ______ ____

>  <TORSDO>
F 2

$$$$
=
 OpenBabel11052419103D

 32 38  0  0  1  0  0  0  0  0999 V2000
  188.7340  175.3980  143.3480 C   0  0  0  0  0  0  0  0  0  0  0  0
  190.3210  173.5270  144.0510 C   0  0  1  0  0  3  0  0  0  0  0  0
  187.9470  175.9890  142.3460 C   0  0  0  0  0  3  0  0  0  0  0  0
  189.4750  174.2380  143.0380 C   0  0  0  0  0  0  0  0  0  0  0  0
  191.6300  173.1580  143.3420 C   0  0  1  0  0  3  0  0  0  0  0  0
  193.4900  176.4160  146.6470 C   0  0  0  0  0  2  0  0  0  0  0  0
  190.5150  174.2570  145.3980 C   0  0  2  0  0  3  0  0  0  0  0  0
  194.3390  174.4550  145.2990 C   0  0  0  0  0  2  0  0  0  0  0  0
  192.9590  173.8220  145.4210 C   0  0  2  0  0  3  0  0  0  0  0  0
  189.4510  173.7100  141.7320 C   0  0  0  0  0  0  0  0  0  0  0  0
  192.7120  172.7410  144.3520 C   0  0  0  0  0  2  0  0  0  0  0  0
  190.3920  172.5970  141.3110 C   0  0  0  0  0  2  0  0  0  0  0  0
  188.6420  174.3030  140.7600 C   0  0  0  0  0  3  0  0  0  0  0  0
  189.3250  175.1340  145.7870 C   0  0  0  0  0  2  0  0  0  0  0  0
  188.9340  176.1030  144.6710 C   0  0  2  0  0  3  0  0  0  0  0  0
  191.8870  174.9240  145.4650 C   0  0  2  0  0  3  0  0  0  0  0  0
  191.3340  172.1160  142.3460 N   0  0  0  0  0  0  0  0  0  0  0  0
  187.8820  175.4310  141.0690 C   0  0  0  0  0  3  0  0  0  0  0  0
  194.5870  175.3550  146.5130 C   0  0  0  0  0  2  0  0  0  0  0  0
  192.1070  175.7670  146.7190 C   0  0  0  0  0  2  0  0  0  0  0  0
  186.9080  177.6330  147.4750 C   0  0  1  0  0  3  0  0  0  0  0  0
  183.9100  179.0410  145.5860 C   0  0  0  0  0  1  0  0  0  0  0  0
  187.0980  178.6720  148.3880 O   0  0  0  0  0  1  0  0  0  0  0  0
  185.1930  176.9250  145.6460 C   0  0  2  0  0  3  0  0  0  0  0  0
  187.7430  176.9860  145.0820 C   0  0  1  0  0  3  0  0  0  0  0  0
  185.4540  177.6720  146.9550 C   0  0  2  0  0  3  0  0  0  0  0  0
  186.4210  176.2010  145.0630 C   0  0  0  0  0  2  0  0  0  0  0  0
  187.9760  177.6580  146.4080 C   0  0  0  0  0  0  0  0  0  0  0  0
  189.0390  178.2250  146.6190 O   0  0  0  0  0  0  0  0  0  0  0  0
  185.3010  178.4450  145.6490 C   0  0  2  0  0  3  0  0  0  0  0  0
  192.5620  171.7890  141.6310 C   0  0  0  0  0  2  0  0  0  0  0  0
  192.8940  172.8960  140.6500 C   0  0  0  0  0  1  0  0  0  0  0  0
  1 15  1  0  0  0  0
  2  4  1  6  0  0  0
  2  7  1  0  0  0  0
  3  1  2  0  0  0  0
  4  1  1  0  0  0  0
  5  2  1  0  0  0  0
  5 11  1  1  0  0  0
  6 20  1  0  0  0  0
  7 16  1  0  0  0  0
  7 14  1  6  0  0  0
  8  9  1  0  0  0  0
  8 19  1  0  0  0  0
  9 11  1  6  0  0  0
  9 16  1  0  0  0  0
 10  4  2  0  0  0  0
 12 10  1  0  0  0  0
 12 17  1  0  0  0  0
 13 18  2  0  0  0  0
 13 10  1  0  0  0  0
 15 25  1  0  0  0  0
 15 14  1  1  0  0  0
 16 20  1  1  0  0  0
 17  5  1  0  0  0  0
 18  3  1  0  0  0  0
 19  6  1  0  0  0  0
 21 23  1  1  0  0  0
 22 30  1  0  0  0  0
 24 27  1  6  0  0  0
 24 30  1  0  0  0  0
 24 26  1  0  0  0  0
 25 27  1  1  0  0  0
 25 28  1  0  0  0  0
 26 21  1  0  0  0  0
 28 29  2  0  0  0  0
 28 21  1  0  0  0  0
 30 26  1  0  0  0  0
 31 17  1  0  0  0  0
 32 31  1  0  0  0  0
M  END
>  <MODEL>
4

>  <REMARK>
 VINA RESULT:      -8.0      2.440      6.793
  Name = 
  2 active torsions:
  status: ('A' for Active; 'I' for Inactive)
    1  A    between atoms: C_13  and  N_29
    2  A    between atoms: C_16  and  C_27
                            x       y       z     vdW  Elec       q    Type
                         _______ _______ _______ _____ _____    ______ ____

>  <TORSDO>
F 2

$$$$
=
 OpenBabel11052419103D

 32 38  0  0  1  0  0  0  0  0999 V2000
  190.7480  176.0010  145.4310 C   0  0  0  0  0  0  0  0  0  0  0  0
  192.6970  176.2360  143.8000 C   0  0  1  0  0  3  0  0  0  0  0  0
  190.2990  175.9180  146.7590 C   0  0  0  0  0  3  0  0  0  0  0  0
  192.1330  176.1170  145.1840 C   0  0  0  0  0  0  0  0  0  0  0  0
  193.9350  175.3310  143.7570 C   0  0  1  0  0  3  0  0  0  0  0  0
  191.0890  172.8280  140.4950 C   0  0  0  0  0  2  0  0  0  0  0  0
  191.7010  176.0030  142.6430 C   0  0  2  0  0  3  0  0  0  0  0  0
  193.5530  173.0900  140.9850 C   0  0  0  0  0  2  0  0  0  0  0  0
  193.2760  174.5210  141.4240 C   0  0  2  0  0  3  0  0  0  0  0  0
  193.0460  176.1100  146.2570 C   0  0  0  0  0  0  0  0  0  0  0  0
  194.3990  175.0920  142.3110 C   0  0  0  0  0  2  0  0  0  0  0  0
  194.5420  176.0220  146.0210 C   0  0  0  0  0  2  0  0  0  0  0  0
  192.5730  176.0500  147.5690 C   0  0  0  0  0  3  0  0  0  0  0  0
  190.2700  176.4130  142.9870 C   0  0  0  0  0  2  0  0  0  0  0  0
  189.7830  175.7730  144.2890 C   0  0  2  0  0  3  0  0  0  0  0  0
  191.8730  174.6080  142.0480 C   0  0  2  0  0  3  0  0  0  0  0  0
  194.9730  175.9320  144.6080 N   0  0  0  0  0  0  0  0  0  0  0  0
  191.2030  175.9680  147.8210 C   0  0  0  0  0  3  0  0  0  0  0  0
  192.5100  172.6730  139.9450 C   0  0  0  0  0  2  0  0  0  0  0  0
  190.8420  174.2580  140.9780 C   0  0  0  0  0  2  0  0  0  0  0  0
  186.5550  177.3320  143.0810 C   0  0  1  0  0  3  0  0  0  0  0  0
  184.5900  177.6600  146.3320 C   0  0  0  0  0  1  0  0  0  0  0  0
  185.5160  176.9400  142.2360 O   0  0  0  0  0  1  0  0  0  0  0  0
  186.8810  178.1490  145.5330 C   0  0  2  0  0  3  0  0  0  0  0  0
  188.3370  176.1850  144.6140 C   0  0  1  0  0  3  0  0  0  0  0  0
  185.9660  178.0560  144.3120 C   0  0  2  0  0  3  0  0  0  0  0  0
  188.2830  177.5420  145.3350 C   0  0  0  0  0  2  0  0  0  0  0  0
  187.4610  176.1640  143.3920 C   0  0  0  0  0  0  0  0  0  0  0  0
  187.4860  175.1940  142.6470 O   0  0  0  0  0  0  0  0  0  0  0  0
  185.7460  177.1340  145.5070 C   0  0  2  0  0  3  0  0  0  0  0  0
  196.1390  175.0560  144.6140 C   0  0  0  0  0  2  0  0  0  0  0  0
  196.1340  174.2040  145.8680 C   0  0  0  0  0  1  0  0  0  0  0  0
  1  3  1  0  0  0  0
  2  4  1  1  0  0  0
  3 18  2  0  0  0  0
  4  1  2  0  0  0  0
  4 10  1  0  0  0  0
  5 11  1  6  0  0  0
  5  2  1  0  0  0  0
  5 17  1  0  0  0  0
  6 20  1  0  0  0  0
  7 14  1  1  0  0  0
  7  2  1  0  0  0  0
  9  8  1  1  0  0  0
  9 16  1  0  0  0  0
  9 11  1  0  0  0  0
 10 13  2  0  0  0  0
 12 10  1  0  0  0  0
 13 18  1  0  0  0  0
 15 14  1  6  0  0  0
 15 25  1  0  0  0  0
 15  1  1  0  0  0  0
 16 20  1  6  0  0  0
 16  7  1  0  0  0  0
 17 31  1  0  0  0  0
 17 12  1  0  0  0  0
 19  6  1  0  0  0  0
 19  8  1  0  0  0  0
 21 23  1  6  0  0  0
 21 28  1  0  0  0  0
 21 26  1  0  0  0  0
 24 27  1  6  0  0  0
 25 27  1  6  0  0  0
 26 30  1  0  0  0  0
 26 24  1  0  0  0  0
 28 25  1  0  0  0  0
 29 28  2  0  0  0  0
 30 24  1  0  0  0  0
 30 22  1  0  0  0  0
 31 32  1  0  0  0  0
M  END
>  <MODEL>
5

>  <REMARK>
 VINA RESULT:      -7.8      3.003      8.100
  Name = 
  2 active torsions:
  status: ('A' for Active; 'I' for Inactive)
    1  A    between atoms: C_13  and  N_29
    2  A    between atoms: C_16  and  C_27
                            x       y       z     vdW  Elec       q    Type
                         _______ _______ _______ _____ _____    ______ ____

>  <TORSDO>
F 2

$$$$
=
 OpenBabel11052419103D

 32 38  0  0  1  0  0  0  0  0999 V2000
  189.9960  175.9440  144.8540 C   0  0  0  0  0  0  0  0  0  0  0  0
  187.4490  176.0360  144.7300 C   0  0  1  0  0  3  0  0  0  0  0  0
  191.1730  176.2260  145.5660 C   0  0  0  0  0  3  0  0  0  0  0  0
  188.7550  176.3210  145.4090 C   0  0  0  0  0  0  0  0  0  0  0  0
  186.5970  177.3030  144.8810 C   0  0  1  0  0  3  0  0  0  0  0  0
  187.1620  177.3970  139.9140 C   0  0  0  0  0  2  0  0  0  0  0  0
  187.5430  175.5060  143.2820 C   0  0  2  0  0  3  0  0  0  0  0  0
  185.5160  178.2910  141.6090 C   0  0  0  0  0  2  0  0  0  0  0  0
  185.7910  177.0640  142.4680 C   0  0  2  0  0  3  0  0  0  0  0  0
  188.7080  177.0030  146.6410 C   0  0  0  0  0  0  0  0  0  0  0  0
  185.3820  177.2730  143.9380 C   0  0  0  0  0  2  0  0  0  0  0  0
  187.4170  177.6040  147.1630 C   0  0  0  0  0  2  0  0  0  0  0  0
  189.8910  177.2500  147.3410 C   0  0  0  0  0  3  0  0  0  0  0  0
  188.8030  174.6820  143.0220 C   0  0  0  0  0  2  0  0  0  0  0  0
  190.0740  175.4260  143.4350 C   0  0  2  0  0  3  0  0  0  0  0  0
  187.2480  176.6140  142.2740 C   0  0  2  0  0  3  0  0  0  0  0  0
  186.2270  177.4400  146.2980 N   0  0  0  0  0  0  0  0  0  0  0  0
  191.1190  176.8520  146.8120 C   0  0  0  0  0  3  0  0  0  0  0  0
  185.7450  177.9360  140.1380 C   0  0  0  0  0  2  0  0  0  0  0  0
  187.4410  176.1960  140.8180 C   0  0  0  0  0  2  0  0  0  0  0  0
  192.8550  174.5410  141.0270 C   0  0  1  0  0  3  0  0  0  0  0  0
  194.4310  171.5210  142.7400 C   0  0  0  0  0  1  0  0  0  0  0  0
  194.0170  175.1680  140.5760 O   0  0  0  0  0  1  0  0  0  0  0  0
  192.1540  172.3100  142.1750 C   0  0  2  0  0  3  0  0  0  0  0  0
  191.3350  174.5880  143.1550 C   0  0  1  0  0  3  0  0  0  0  0  0
  193.1440  173.0430  141.2700 C   0  0  2  0  0  3  0  0  0  0  0  0
  190.9790  173.1720  142.6740 C   0  0  0  0  0  2  0  0  0  0  0  0
  192.2690  175.2850  142.2040 C   0  0  0  0  0  0  0  0  0  0  0  0
  192.5530  176.4600  142.3880 O   0  0  0  0  0  0  0  0  0  0  0  0
  193.5150  172.7270  142.7160 C   0  0  2  0  0  3  0  0  0  0  0  0
  185.4560  178.6670  146.4650 C   0  0  0  0  0  2  0  0  0  0  0  0
  185.9410  179.4160  147.6900 C   0  0  0  0  0  1  0  0  0  0  0  0
  1  4  2  0  0  0  0
  1  3  1  0  0  0  0
  2  5  1  0  0  0  0
  2  4  1  6  0  0  0
  3 18  2  0  0  0  0
  4 10  1  0  0  0  0
  5 11  1  6  0  0  0
  5 17  1  0  0  0  0
  6 19  1  0  0  0  0
  6 20  1  0  0  0  0
  7 14  1  6  0  0  0
  7  2  1  0  0  0  0
  9  8  1  6  0  0  0
  9 11  1  0  0  0  0
 10 12  1  0  0  0  0
 10 13  2  0  0  0  0
 15 14  1  1  0  0  0
 15  1  1  0  0  0  0
 16 20  1  6  0  0  0
 16  9  1  0  0  0  0
 16  7  1  0  0  0  0
 17 31  1  0  0  0  0
 17 12  1  0  0  0  0
 18 13  1  0  0  0  0
 19  8  1  0  0  0  0
 21 23  1  1  0  0  0
 21 26  1  0  0  0  0
 21 28  1  0  0  0  0
 24 27  1  1  0  0  0
 24 30  1  0  0  0  0
 25 27  1  6  0  0  0
 25 15  1  0  0  0  0
 26 24  1  0  0  0  0
 26 30  1  0  0  0  0
 28 29  2  0  0  0  0
 28 25  1  0  0  0  0
 30 22  1  0  0  0  0
 31 32  1  0  0  0  0
M  END
>  <MODEL>
6

>  <REMARK>
 VINA RESULT:      -7.7      2.772      5.099
  Name = 
  2 active torsions:
  status: ('A' for Active; 'I' for Inactive)
    1  A    between atoms: C_13  and  N_29
    2  A    between atoms: C_16  and  C_27
                            x       y       z     vdW  Elec       q    Type
                         _______ _______ _______ _____ _____    ______ ____

>  <TORSDO>
F 2

$$$$
=
 OpenBabel11052419103D

 32 38  0  0  1  0  0  0  0  0999 V2000
  191.3930  175.3550  143.7070 C   0  0  0  0  0  0  0  0  0  0  0  0
  189.9240  175.5920  145.7790 C   0  0  1  0  0  3  0  0  0  0  0  0
  192.6640  175.4680  143.1180 C   0  0  0  0  0  3  0  0  0  0  0  0
  191.2370  175.7060  145.0650 C   0  0  0  0  0  0  0  0  0  0  0  0
  189.7810  176.8620  146.6280 C   0  0  1  0  0  3  0  0  0  0  0  0
  185.9990  177.6760  143.4600 C   0  0  0  0  0  2  0  0  0  0  0  0
  188.6980  175.2820  144.8930 C   0  0  2  0  0  3  0  0  0  0  0  0
  186.6430  178.3850  145.7980 C   0  0  0  0  0  2  0  0  0  0  0  0
  187.3140  177.0300  145.9840 C   0  0  2  0  0  3  0  0  0  0  0  0
  192.3330  176.1950  145.8010 C   0  0  0  0  0  0  0  0  0  0  0  0
  188.3390  177.0350  147.1330 C   0  0  0  0  0  2  0  0  0  0  0  0
  192.1570  176.7750  147.1920 C   0  0  0  0  0  2  0  0  0  0  0  0
  193.5910  176.2750  145.1990 C   0  0  0  0  0  3  0  0  0  0  0  0
  189.0400  174.4450  143.6610 C   0  0  0  0  0  2  0  0  0  0  0  0
  190.1840  175.0540  142.8490 C   0  0  2  0  0  3  0  0  0  0  0  0
  187.8750  176.5430  144.6370 C   0  0  2  0  0  3  0  0  0  0  0  0
  190.7720  176.8020  147.7130 N   0  0  0  0  0  0  0  0  0  0  0  0
  193.7600  175.9010  143.8660 C   0  0  0  0  0  3  0  0  0  0  0  0
  185.4980  178.2440  144.7920 C   0  0  0  0  0  2  0  0  0  0  0  0
  186.7130  176.3400  143.6690 C   0  0  0  0  0  2  0  0  0  0  0  0
  188.9530  172.6100  140.2370 C   0  0  1  0  0  3  0  0  0  0  0  0
  192.2080  171.5990  138.5280 C   0  0  0  0  0  1  0  0  0  0  0  0
  188.1300  172.6870  139.1130 O   0  0  0  0  0  1  0  0  0  0  0  0
  191.3740  171.8630  140.8430 C   0  0  2  0  0  3  0  0  0  0  0  0
  190.5080  174.2060  141.6060 C   0  0  1  0  0  3  0  0  0  0  0  0
  190.1640  171.7050  139.9220 C   0  0  2  0  0  3  0  0  0  0  0  0
  191.1840  172.8790  141.9860 C   0  0  0  0  0  2  0  0  0  0  0  0
  189.2950  173.9910  140.7440 C   0  0  0  0  0  0  0  0  0  0  0  0
  188.5820  174.9430  140.4560 O   0  0  0  0  0  0  0  0  0  0  0  0
  191.3900  172.4790  139.4500 C   0  0  2  0  0  3  0  0  0  0  0  0
  190.6800  178.0270  148.5000 C   0  0  0  0  0  2  0  0  0  0  0  0
  191.5660  177.9170  149.7260 C   0  0  0  0  0  1  0  0  0  0  0  0
  1  4  1  0  0  0  0
  2  4  1  6  0  0  0
  2  5  1  0  0  0  0
  3  1  2  0  0  0  0
  3 18  1  0  0  0  0
  4 10  2  0  0  0  0
  5 11  1  1  0  0  0
  5 17  1  0  0  0  0
  6 20  1  0  0  0  0
  6 19  1  0  0  0  0
  7 14  1  6  0  0  0
  7  2  1  0  0  0  0
  9  8  1  6  0  0  0
  9 11  1  0  0  0  0
 10 12  1  0  0  0  0
 12 17  1  0  0  0  0
 13 10  1  0  0  0  0
 15 14  1  1  0  0  0
 15  1  1  0  0  0  0
 16 20  1  6  0  0  0
 16  7  1  0  0  0  0
 16  9  1  0  0  0  0
 17 31  1  0  0  0  0
 18 13  2  0  0  0  0
 19  8  1  0  0  0  0
 21 23  1  6  0  0  0
 21 28  1  0  0  0  0
 22 30  1  0  0  0  0
 24 27  1  1  0  0  0
 25 27  1  1  0  0  0
 25 15  1  0  0  0  0
 26 21  1  0  0  0  0
 26 24  1  0  0  0  0
 28 25  1  0  0  0  0
 29 28  2  0  0  0  0
 30 26  1  0  0  0  0
 30 24  1  0  0  0  0
 31 32  1  0  0  0  0
M  END
>  <MODEL>
7

>  <REMARK>
 VINA RESULT:      -7.3      3.120      6.153
  Name = 
  2 active torsions:
  status: ('A' for Active; 'I' for Inactive)
    1  A    between atoms: C_13  and  N_29
    2  A    between atoms: C_16  and  C_27
                            x       y       z     vdW  Elec       q    Type
                         _______ _______ _______ _____ _____    ______ ____

>  <TORSDO>
F 2

$$$$
=
 OpenBabel11052419103D

 32 38  0  0  1  0  0  0  0  0999 V2000
  190.0410  173.5490  143.9710 C   0  0  0  0  0  0  0  0  0  0  0  0
  192.2650  172.8420  145.0030 C   0  0  1  0  0  3  0  0  0  0  0  0
  188.9910  173.2740  143.0790 C   0  0  0  0  0  3  0  0  0  0  0  0
  191.1160  172.6400  144.0610 C   0  0  0  0  0  0  0  0  0  0  0  0
  193.5350  172.4850  144.2200 C   0  0  1  0  0  3  0  0  0  0  0  0
  194.4240  177.3630  144.8610 C   0  0  0  0  0  2  0  0  0  0  0  0
  192.3230  174.2120  145.7120 C   0  0  2  0  0  3  0  0  0  0  0  0
  195.7790  175.2720  144.4470 C   0  0  0  0  0  2  0  0  0  0  0  0
  194.7450  174.4890  145.2450 C   0  0  2  0  0  3  0  0  0  0  0  0
  191.1460  171.4960  143.2400 C   0  0  0  0  0  0  0  0  0  0  0  0
  194.7960  172.9780  144.9500 C   0  0  0  0  0  2  0  0  0  0  0  0
  192.3770  170.6120  143.1590 C   0  0  0  0  0  2  0  0  0  0  0  0
  190.0790  171.2320  142.3790 C   0  0  0  0  0  3  0  0  0  0  0  0
  190.9440  174.8270  145.9510 C   0  0  0  0  0  2  0  0  0  0  0  0
  190.1100  174.8890  144.6700 C   0  0  2  0  0  3  0  0  0  0  0  0
  193.3570  175.1240  145.0560 C   0  0  2  0  0  3  0  0  0  0  0  0
  193.5340  171.0330  143.9820 N   0  0  0  0  0  0  0  0  0  0  0  0
  188.9980  172.1110  142.3080 C   0  0  0  0  0  3  0  0  0  0  0  0
  195.8100  176.7180  144.9490 C   0  0  0  0  0  2  0  0  0  0  0  0
  193.3870  176.5400  145.6260 C   0  0  0  0  0  2  0  0  0  0  0  0
  187.8960  177.9430  144.4000 C   0  0  1  0  0  3  0  0  0  0  0  0
  184.8680  176.8910  146.4630 C   0  0  0  0  0  1  0  0  0  0  0  0
  187.2350  178.6040  143.3630 O   0  0  0  0  0  1  0  0  0  0  0  0
  187.3320  176.8420  146.6920 C   0  0  2  0  0  3  0  0  0  0  0  0
  188.7300  175.5210  144.9250 C   0  0  1  0  0  3  0  0  0  0  0  0
  186.9770  177.8930  145.6400 C   0  0  2  0  0  3  0  0  0  0  0  0
  188.5920  176.0140  146.3740 C   0  0  0  0  0  2  0  0  0  0  0  0
  188.4220  176.6070  143.9310 C   0  0  0  0  0  0  0  0  0  0  0  0
  188.6000  176.4040  142.7380 O   0  0  0  0  0  0  0  0  0  0  0  0
  186.1670  176.6050  145.7390 C   0  0  2  0  0  3  0  0  0  0  0  0
  194.7130  170.6860  143.1960 C   0  0  0  0  0  2  0  0  0  0  0  0
  194.5300  171.1490  141.7640 C   0  0  0  0  0  1  0  0  0  0  0  0
  1  4  1  0  0  0  0
  1 15  1  0  0  0  0
  2  4  1  6  0  0  0
  2  7  1  0  0  0  0
  3  1  2  0  0  0  0
  5 11  1  1  0  0  0
  5  2  1  0  0  0  0
  6 19  1  0  0  0  0
  6 20  1  0  0  0  0
  7 14  1  6  0  0  0
  8 19  1  0  0  0  0
  9  8  1  6  0  0  0
 10  4  2  0  0  0  0
 11  9  1  0  0  0  0
 12 10  1  0  0  0  0
 12 17  1  0  0  0  0
 13 10  1  0  0  0  0
 15 25  1  0  0  0  0
 15 14  1  1  0  0  0
 16  9  1  0  0  0  0
 16 20  1  1  0  0  0
 16  7  1  0  0  0  0
 17  5  1  0  0  0  0
 18 13  2  0  0  0  0
 18  3  1  0  0  0  0
 21 23  1  6  0  0  0
 21 26  1  0  0  0  0
 24 27  1  6  0  0  0
 25 27  1  1  0  0  0
 26 30  1  0  0  0  0
 26 24  1  0  0  0  0
 28 21  1  0  0  0  0
 28 25  1  0  0  0  0
 29 28  2  0  0  0  0
 30 22  1  0  0  0  0
 30 24  1  0  0  0  0
 31 17  1  0  0  0  0
 32 31  1  0  0  0  0
M  END
>  <MODEL>
8

>  <REMARK>
 VINA RESULT:      -7.2      3.278      7.743
  Name = 
  2 active torsions:
  status: ('A' for Active; 'I' for Inactive)
    1  A    between atoms: C_13  and  N_29
    2  A    between atoms: C_16  and  C_27
                            x       y       z     vdW  Elec       q    Type
                         _______ _______ _______ _____ _____    ______ ____

>  <TORSDO>
F 2

$$$$
=
 OpenBabel11052419103D

 32 38  0  0  1  0  0  0  0  0999 V2000
  192.1460  174.1290  144.3350 C   0  0  0  0  0  0  0  0  0  0  0  0
  190.2910  174.9080  145.9050 C   0  0  1  0  0  3  0  0  0  0  0  0
  193.5200  174.0110  144.0680 C   0  0  0  0  0  3  0  0  0  0  0  0
  191.7340  174.7610  145.5280 C   0  0  0  0  0  0  0  0  0  0  0  0
  190.1290  176.3310  146.4540 C   0  0  1  0  0  3  0  0  0  0  0  0
  187.3000  176.8040  142.3580 C   0  0  0  0  0  2  0  0  0  0  0  0
  189.2670  174.5300  144.8130 C   0  0  2  0  0  3  0  0  0  0  0  0
  187.4880  177.9160  144.6180 C   0  0  0  0  0  2  0  0  0  0  0  0
  187.9150  176.5750  145.2010 C   0  0  2  0  0  3  0  0  0  0  0  0
  192.6910  175.2940  146.4130 C   0  0  0  0  0  0  0  0  0  0  0  0
  188.6450  176.7260  146.5480 C   0  0  0  0  0  2  0  0  0  0  0  0
  192.2840  176.1570  147.5930 C   0  0  0  0  0  2  0  0  0  0  0  0
  194.0520  175.1420  146.1370 C   0  0  0  0  0  3  0  0  0  0  0  0
  189.7650  173.4330  143.8720 C   0  0  0  0  0  2  0  0  0  0  0  0
  191.1320  173.7640  143.2730 C   0  0  2  0  0  3  0  0  0  0  0  0
  188.6960  175.7780  144.1430 C   0  0  2  0  0  3  0  0  0  0  0  0
  190.8330  176.4090  147.7430 N   0  0  0  0  0  0  0  0  0  0  0  0
  194.4660  174.4910  144.9740 C   0  0  0  0  0  3  0  0  0  0  0  0
  186.5910  177.6720  143.4020 C   0  0  0  0  0  2  0  0  0  0  0  0
  187.7660  175.4820  142.9690 C   0  0  0  0  0  2  0  0  0  0  0  0
  190.4010  171.6060  140.2540 C   0  0  1  0  0  3  0  0  0  0  0  0
  193.2700  169.0980  140.3810 C   0  0  0  0  0  1  0  0  0  0  0  0
  190.3500  171.8100  138.8740 O   0  0  0  0  0  1  0  0  0  0  0  0
  191.6310  170.0700  141.9610 C   0  0  2  0  0  3  0  0  0  0  0  0
  191.6140  172.6570  142.3190 C   0  0  1  0  0  3  0  0  0  0  0  0
  191.0850  170.2520  140.5440 C   0  0  2  0  0  3  0  0  0  0  0  0
  191.3730  171.2570  142.9070 C   0  0  0  0  0  2  0  0  0  0  0  0
  191.0120  172.8000  140.9480 C   0  0  0  0  0  0  0  0  0  0  0  0
  191.0190  173.8920  140.3960 O   0  0  0  0  0  0  0  0  0  0  0  0
  192.5820  170.3770  140.8110 C   0  0  2  0  0  3  0  0  0  0  0  0
  190.7280  177.7710  148.2530 C   0  0  0  0  0  2  0  0  0  0  0  0
  191.5660  177.9160  149.5070 C   0  0  0  0  0  1  0  0  0  0  0  0
  1  4  1  0  0  0  0
  2  4  1  6  0  0  0
  2  5  1  0  0  0  0
  3  1  2  0  0  0  0
  3 18  1  0  0  0  0
  4 10  2  0  0  0  0
  5 11  1  1  0  0  0
  5 17  1  0  0  0  0
  6 20  1  0  0  0  0
  6 19  1  0  0  0  0
  7 14  1  6  0  0  0
  7  2  1  0  0  0  0
  9  8  1  6  0  0  0
  9 11  1  0  0  0  0
 10 12  1  0  0  0  0
 12 17  1  0  0  0  0
 13 10  1  0  0  0  0
 15 14  1  1  0  0  0
 15  1  1  0  0  0  0
 16 20  1  6  0  0  0
 16  7  1  0  0  0  0
 16  9  1  0  0  0  0
 17 31  1  0  0  0  0
 18 13  2  0  0  0  0
 19  8  1  0  0  0  0
 21 23  1  6  0  0  0
 21 26  1  0  0  0  0
 21 28  1  0  0  0  0
 22 30  1  0  0  0  0
 24 27  1  1  0  0  0
 25 27  1  1  0  0  0
 25 15  1  0  0  0  0
 26 30  1  0  0  0  0
 26 24  1  0  0  0  0
 28 25  1  0  0  0  0
 29 28  2  0  0  0  0
 30 24  1  0  0  0  0
 31 32  1  0  0  0  0
M  END
>  <MODEL>
9

>  <REMARK>
 VINA RESULT:      -7.2      3.608      6.530
  Name = 
  2 active torsions:
  status: ('A' for Active; 'I' for Inactive)
    1  A    between atoms: C_13  and  N_29
    2  A    between atoms: C_16  and  C_27
                            x       y       z     vdW  Elec       q    Type
                         _______ _______ _______ _____ _____    ______ ____

>  <TORSDO>
F 2

$$$$
