=
 OpenBabel11052421193D

 43 47  0  0  1  0  0  0  0  0999 V2000
  191.6670  177.7030  143.6640 C   0  0  0  0  0  2  0  0  0  0  0  0
  192.0070  176.7990  144.8590 C   0  0  1  0  0  3  0  0  0  0  0  0
  190.3270  177.3210  143.0440 C   0  0  0  0  0  2  0  0  0  0  0  0
  191.4160  175.3830  144.7600 C   0  0  0  0  0  2  0  0  0  0  0  0
  191.2670  174.9310  143.3080 C   0  0  0  0  0  2  0  0  0  0  0  0
  190.3640  175.8850  142.5000 C   0  0  1  0  0  3  0  0  0  0  0  0
  194.3320  176.1330  144.0960 N   0  0  0  0  0  2  0  0  0  0  0  0
  193.4820  176.7380  145.0760 C   0  0  0  0  0  0  0  0  0  0  0  0
  193.9650  177.1970  146.1450 O   0  0  0  0  0  0  0  0  0  0  0  0
  195.7770  176.0190  144.2560 C   0  0  0  0  0  2  0  0  0  0  0  0
  196.5460  173.6180  144.0550 N   0  0  0  0  0  2  0  0  0  0  0  0
  196.0760  174.6000  146.1360 O   0  0  0  0  0  0  0  0  0  0  0  0
  196.1340  174.7140  144.8840 C   0  0  0  0  0  0  0  0  0  0  0  0
  196.9330  172.3140  144.5020 C   0  0  0  0  0  0  0  0  0  0  0  0
  197.3280  171.4680  143.6570 O   0  0  0  0  0  0  0  0  0  0  0  0
  196.8700  171.9220  145.9440 C   0  0  0  0  0  2  0  0  0  0  0  0
  196.1590  170.6180  146.1060 C   0  0  0  0  0  0  0  0  0  0  0  0
  196.1410  168.2860  147.0060 C   0  0  0  0  0  2  0  0  0  0  0  0
  194.1810  169.0740  145.7130 C   0  0  0  0  0  2  0  0  0  0  0  0
  194.6190  168.3830  146.9970 C   0  0  0  0  0  2  0  0  0  0  0  0
  194.7110  170.5090  145.6830 C   0  0  0  0  0  2  0  0  0  0  0  0
  196.7780  169.6310  146.7770 C   0  0  0  0  0  3  0  0  0  0  0  0
  188.9460  175.3410  142.2730 C   0  0  2  0  0  3  0  0  0  0  0  0
  185.1230  177.8840  146.9090 C   0  0  0  0  0  0  0  0  0  0  0  0
  187.9030  175.9750  143.1540 C   0  0  0  0  0  0  0  0  0  0  0  0
  185.9340  177.2020  144.7320 C   0  0  0  0  0  0  0  0  0  0  0  0
  186.2640  177.3400  147.5090 C   0  0  0  0  0  3  0  0  0  0  0  0
  184.1770  178.4800  147.6720 F   0  0  0  0  0  0  0  0  0  0  0  0
  187.0870  176.6530  145.3380 C   0  0  0  0  0  0  0  0  0  0  0  0
  184.9580  177.8160  145.5210 C   0  0  0  0  0  3  0  0  0  0  0  0
  187.2460  176.7250  146.7240 C   0  0  0  0  0  3  0  0  0  0  0  0
  188.0650  176.0440  144.5470 C   0  0  0  0  0  3  0  0  0  0  0  0
  186.7590  176.5200  142.5610 C   0  0  0  0  0  3  0  0  0  0  0  0
  185.7760  177.1310  143.3450 C   0  0  0  0  0  3  0  0  0  0  0  0
  188.9180  173.8150  142.3230 C   0  0  0  0  0  2  0  0  0  0  0  0
  190.3650  171.1480  140.1400 C   0  0  0  0  0  2  0  0  0  0  0  0
  190.0420  171.8760  138.8290 C   0  0  1  0  0  3  0  0  0  0  0  0
  188.2230  172.9660  140.2540 C   0  0  0  0  0  2  0  0  0  0  0  0
  190.0680  171.9970  141.3910 C   0  0  0  0  0  2  0  0  0  0  0  0
  189.3990  173.2610  141.0690 N   0  0  0  0  0  0  0  0  0  0  0  0
  188.6390  172.4980  138.8570 C   0  0  0  0  0  2  0  0  0  0  0  0
  190.5890  173.4750  137.3970 C   0  0  0  0  0  1  0  0  0  0  0  0
  191.0000  172.8640  138.5830 O   0  0  0  0  0  0  0  0  0  0  0  0
  1  2  1  0  0  0  0
  2  8  1  6  0  0  0
  3  1  1  0  0  0  0
  4  2  1  0  0  0  0
  5  4  1  0  0  0  0
  6 23  1  1  0  0  0
  6  3  1  0  0  0  0
  6  5  1  0  0  0  0
  7 10  1  0  0  0  0
  7  8  1  0  0  0  0
  8  9  2  0  0  0  0
 10 13  1  0  0  0  0
 11 14  1  0  0  0  0
 11 13  1  0  0  0  0
 13 12  2  0  0  0  0
 14 16  1  0  0  0  0
 15 14  2  0  0  0  0
 16 17  1  0  0  0  0
 17 22  2  0  0  0  0
 19 20  1  0  0  0  0
 20 18  1  0  0  0  0
 21 19  1  0  0  0  0
 21 17  1  0  0  0  0
 22 18  1  0  0  0  0
 23 35  1  1  0  0  0
 23 25  1  0  0  0  0
 24 27  1  0  0  0  0
 24 28  1  0  0  0  0
 25 32  1  0  0  0  0
 26 29  1  0  0  0  0
 26 30  1  0  0  0  0
 29 31  1  0  0  0  0
 30 24  2  0  0  0  0
 31 27  2  0  0  0  0
 32 29  2  0  0  0  0
 33 25  2  0  0  0  0
 33 34  1  0  0  0  0
 34 26  2  0  0  0  0
 36 39  1  0  0  0  0
 37 43  1  1  0  0  0
 37 41  1  0  0  0  0
 37 36  1  0  0  0  0
 38 40  1  0  0  0  0
 40 39  1  0  0  0  0
 40 35  1  0  0  0  0
 41 38  1  0  0  0  0
 42 43  1  0  0  0  0
M  END
>  <MODEL>
1

>  <REMARK>
 VINA RESULT:      -8.6      0.000      0.000
  Name = 
  10 active torsions:
  status: ('A' for Active; 'I' for Inactive)
    1  A    between atoms: C_1  and  C_34
    2  A    between atoms: C_1  and  N_35
    3  A    between atoms: N_3  and  C_42
    4  A    between atoms: C_6  and  C_12
    5  A    between atoms: C_8  and  C_34
    6  A    between atoms: C_11  and  C_14
    7  A    between atoms: C_14  and  C_22
    8  A    between atoms: C_15  and  C_42
    9  A    between atoms: C_19  and  O_37
   10  A    between atoms: C_34  and  C_38
                            x       y       z     vdW  Elec       q    Type
                         _______ _______ _______ _____ _____    ______ ____

>  <TORSDO>
F 10

$$$$
=
 OpenBabel11052421193D

 43 47  0  0  1  0  0  0  0  0999 V2000
  189.2870  172.4030  143.2630 C   0  0  0  0  0  2  0  0  0  0  0  0
  188.6450  173.2900  142.1850 C   0  0  1  0  0  3  0  0  0  0  0  0
  189.6150  173.2050  144.5170 C   0  0  0  0  0  2  0  0  0  0  0  0
  189.0910  174.7600  142.2380 C   0  0  0  0  0  2  0  0  0  0  0  0
  190.5090  174.9030  142.7900 C   0  0  0  0  0  2  0  0  0  0  0  0
  190.6350  174.3130  144.2090 C   0  0  1  0  0  3  0  0  0  0  0  0
  190.1020  172.0510  140.5190 N   0  0  0  0  0  2  0  0  0  0  0  0
  188.8740  172.7210  140.8240 C   0  0  0  0  0  0  0  0  0  0  0  0
  187.9880  172.8650  139.9410 O   0  0  0  0  0  0  0  0  0  0  0  0
  190.4010  171.4940  139.2050 C   0  0  0  0  0  2  0  0  0  0  0  0
  191.7520  173.3570  138.1570 N   0  0  0  0  0  2  0  0  0  0  0  0
  192.7220  171.2990  138.7430 O   0  0  0  0  0  0  0  0  0  0  0  0
  191.6950  172.0270  138.6910 C   0  0  0  0  0  0  0  0  0  0  0  0
  192.9140  174.0150  137.6410 C   0  0  0  0  0  0  0  0  0  0  0  0
  192.8220  175.2120  137.2570 O   0  0  0  0  0  0  0  0  0  0  0  0
  194.2340  173.3200  137.5320 C   0  0  0  0  0  2  0  0  0  0  0  0
  195.2320  173.9310  138.4620 C   0  0  0  0  0  0  0  0  0  0  0  0
  197.2780  175.3280  138.7910 C   0  0  0  0  0  2  0  0  0  0  0  0
  196.1800  174.3450  140.7810 C   0  0  0  0  0  2  0  0  0  0  0  0
  196.7480  175.6270  140.1880 C   0  0  0  0  0  2  0  0  0  0  0  0
  194.9840  173.8690  139.9530 C   0  0  0  0  0  2  0  0  0  0  0  0
  196.2310  174.6610  137.9380 C   0  0  0  0  0  3  0  0  0  0  0  0
  190.6520  175.3760  145.3160 C   0  0  2  0  0  3  0  0  0  0  0  0
  184.9040  178.4490  145.6240 C   0  0  0  0  0  0  0  0  0  0  0  0
  189.3000  175.9690  145.6100 C   0  0  0  0  0  0  0  0  0  0  0  0
  186.7620  177.0090  146.2030 C   0  0  0  0  0  0  0  0  0  0  0  0
  185.5750  178.8550  144.4660 C   0  0  0  0  0  3  0  0  0  0  0  0
  183.6780  178.9490  145.9050 F   0  0  0  0  0  0  0  0  0  0  0  0
  187.4400  177.4190  145.0330 C   0  0  0  0  0  0  0  0  0  0  0  0
  185.4970  177.5260  146.4920 C   0  0  0  0  0  3  0  0  0  0  0  0
  186.8420  178.3410  144.1690 C   0  0  0  0  0  3  0  0  0  0  0  0
  188.7030  176.8970  144.7420 C   0  0  0  0  0  3  0  0  0  0  0  0
  188.6240  175.5690  146.7680 C   0  0  0  0  0  3  0  0  0  0  0  0
  187.3600  176.0860  147.0660 C   0  0  0  0  0  3  0  0  0  0  0  0
  191.7220  176.4340  145.0590 C   0  0  0  0  0  2  0  0  0  0  0  0
  195.2590  176.1830  143.8760 C   0  0  0  0  0  2  0  0  0  0  0  0
  195.6310  175.0560  144.8470 C   0  0  1  0  0  3  0  0  0  0  0  0
  193.7160  176.0400  146.2210 C   0  0  0  0  0  2  0  0  0  0  0  0
  193.7570  176.5280  143.8990 C   0  0  0  0  0  2  0  0  0  0  0  0
  193.0310  175.8120  144.9520 N   0  0  0  0  0  0  0  0  0  0  0  0
  195.0580  175.3040  146.2490 C   0  0  0  0  0  2  0  0  0  0  0  0
  195.6650  172.8780  145.2510 C   0  0  0  0  0  1  0  0  0  0  0  0
  195.1780  173.8300  144.3530 O   0  0  0  0  0  0  0  0  0  0  0  0
  1  3  1  0  0  0  0
  2  8  1  6  0  0  0
  2  4  1  0  0  0  0
  2  1  1  0  0  0  0
  4  5  1  0  0  0  0
  5  6  1  0  0  0  0
  6  3  1  0  0  0  0
  6 23  1  1  0  0  0
  7  8  1  0  0  0  0
  9  8  2  0  0  0  0
 10  7  1  0  0  0  0
 11 13  1  0  0  0  0
 13 12  2  0  0  0  0
 13 10  1  0  0  0  0
 14 11  1  0  0  0  0
 15 14  2  0  0  0  0
 16 14  1  0  0  0  0
 16 17  1  0  0  0  0
 17 21  1  0  0  0  0
 18 20  1  0  0  0  0
 20 19  1  0  0  0  0
 21 19  1  0  0  0  0
 22 17  2  0  0  0  0
 22 18  1  0  0  0  0
 23 35  1  6  0  0  0
 23 25  1  0  0  0  0
 24 28  1  0  0  0  0
 24 30  1  0  0  0  0
 25 33  1  0  0  0  0
 26 30  2  0  0  0  0
 26 34  1  0  0  0  0
 27 24  2  0  0  0  0
 29 26  1  0  0  0  0
 31 27  1  0  0  0  0
 31 29  2  0  0  0  0
 32 29  1  0  0  0  0
 32 25  2  0  0  0  0
 33 34  2  0  0  0  0
 36 39  1  0  0  0  0
 36 37  1  0  0  0  0
 37 43  1  6  0  0  0
 37 41  1  0  0  0  0
 38 41  1  0  0  0  0
 39 40  1  0  0  0  0
 40 35  1  0  0  0  0
 40 38  1  0  0  0  0
 43 42  1  0  0  0  0
M  END
>  <MODEL>
2

>  <REMARK>
 VINA RESULT:      -8.2      2.461      6.717
  Name = 
  10 active torsions:
  status: ('A' for Active; 'I' for Inactive)
    1  A    between atoms: C_1  and  C_34
    2  A    between atoms: C_1  and  N_35
    3  A    between atoms: N_3  and  C_42
    4  A    between atoms: C_6  and  C_12
    5  A    between atoms: C_8  and  C_34
    6  A    between atoms: C_11  and  C_14
    7  A    between atoms: C_14  and  C_22
    8  A    between atoms: C_15  and  C_42
    9  A    between atoms: C_19  and  O_37
   10  A    between atoms: C_34  and  C_38
                            x       y       z     vdW  Elec       q    Type
                         _______ _______ _______ _____ _____    ______ ____

>  <TORSDO>
F 10

$$$$
=
 OpenBabel11052421193D

 43 47  0  0  1  0  0  0  0  0999 V2000
  189.5170  174.1350  145.9610 C   0  0  0  0  0  2  0  0  0  0  0  0
  190.1440  175.4850  146.3440 C   0  0  1  0  0  3  0  0  0  0  0  0
  190.4040  173.3710  144.9850 C   0  0  0  0  0  2  0  0  0  0  0  0
  191.0340  176.0940  145.2500 C   0  0  0  0  0  2  0  0  0  0  0  0
  190.5750  175.6840  143.8510 C   0  0  0  0  0  2  0  0  0  0  0  0
  190.5770  174.1520  143.6730 C   0  0  1  0  0  3  0  0  0  0  0  0
  187.7360  176.0270  146.9320 N   0  0  0  0  0  2  0  0  0  0  0  0
  189.0930  176.4560  146.7680 C   0  0  0  0  0  0  0  0  0  0  0  0
  189.4070  177.6630  146.9470 O   0  0  0  0  0  0  0  0  0  0  0  0
  186.6570  176.9280  147.3190 C   0  0  0  0  0  2  0  0  0  0  0  0
  185.9270  178.8020  145.7870 N   0  0  0  0  0  2  0  0  0  0  0  0
  185.3000  176.5710  145.4030 O   0  0  0  0  0  0  0  0  0  0  0  0
  185.9160  177.4060  146.1160 C   0  0  0  0  0  0  0  0  0  0  0  0
  185.2810  179.4140  144.6650 C   0  0  0  0  0  0  0  0  0  0  0  0
  185.4270  180.6510  144.4720 O   0  0  0  0  0  0  0  0  0  0  0  0
  184.4260  178.6310  143.7200 C   0  0  0  0  0  2  0  0  0  0  0  0
  185.1540  178.3720  142.4400 C   0  0  0  0  0  0  0  0  0  0  0  0
  187.3020  177.8920  141.2570 C   0  0  0  0  0  2  0  0  0  0  0  0
  185.2330  178.1140  139.9150 C   0  0  0  0  0  2  0  0  0  0  0  0
  186.4590  177.2470  140.1630 C   0  0  0  0  0  2  0  0  0  0  0  0
  184.3590  178.1580  141.1700 C   0  0  0  0  0  2  0  0  0  0  0  0
  186.4820  178.1730  142.4880 C   0  0  0  0  0  3  0  0  0  0  0  0
  191.7750  173.6300  142.8690 C   0  0  2  0  0  3  0  0  0  0  0  0
  189.7080  171.4060  137.0940 C   0  0  0  0  0  0  0  0  0  0  0  0
  191.3920  172.8950  141.6120 C   0  0  0  0  0  0  0  0  0  0  0  0
  190.7420  171.4740  139.2820 C   0  0  0  0  0  0  0  0  0  0  0  0
  189.3200  172.7420  137.2310 C   0  0  0  0  0  3  0  0  0  0  0  0
  189.3960  170.7240  135.9660 F   0  0  0  0  0  0  0  0  0  0  0  0
  190.3490  172.8250  139.4210 C   0  0  0  0  0  0  0  0  0  0  0  0
  190.4190  170.7720  138.1190 C   0  0  0  0  0  3  0  0  0  0  0  0
  189.6400  173.4530  138.3940 C   0  0  0  0  0  3  0  0  0  0  0  0
  190.6770  173.5280  140.5830 C   0  0  0  0  0  3  0  0  0  0  0  0
  191.7760  171.5570  141.4690 C   0  0  0  0  0  3  0  0  0  0  0  0
  191.4520  170.8470  140.3100 C   0  0  0  0  0  3  0  0  0  0  0  0
  192.7370  172.8360  143.7510 C   0  0  0  0  0  2  0  0  0  0  0  0
  195.8340  173.7380  145.6390 C   0  0  0  0  0  2  0  0  0  0  0  0
  195.5960  175.2500  145.5470 C   0  0  1  0  0  3  0  0  0  0  0  0
  194.2610  174.5910  143.4710 C   0  0  0  0  0  2  0  0  0  0  0  0
  194.6550  172.9070  145.0970 C   0  0  0  0  0  2  0  0  0  0  0  0
  193.6230  173.7370  144.4690 N   0  0  0  0  0  0  0  0  0  0  0  0
  195.1170  175.6640  144.1500 C   0  0  0  0  0  2  0  0  0  0  0  0
  194.4750  177.0120  146.2880 C   0  0  0  0  0  1  0  0  0  0  0  0
  194.6640  175.6460  146.5110 O   0  0  0  0  0  0  0  0  0  0  0  0
  1  2  1  0  0  0  0
  2  8  1  6  0  0  0
  3  1  1  0  0  0  0
  4  2  1  0  0  0  0
  5  4  1  0  0  0  0
  6 23  1  1  0  0  0
  6  5  1  0  0  0  0
  6  3  1  0  0  0  0
  7 10  1  0  0  0  0
  8  7  1  0  0  0  0
  8  9  2  0  0  0  0
 11 13  1  0  0  0  0
 12 13  2  0  0  0  0
 13 10  1  0  0  0  0
 14 11  1  0  0  0  0
 15 14  2  0  0  0  0
 16 14  1  0  0  0  0
 17 22  2  0  0  0  0
 17 16  1  0  0  0  0
 18 22  1  0  0  0  0
 19 20  1  0  0  0  0
 19 21  1  0  0  0  0
 20 18  1  0  0  0  0
 21 17  1  0  0  0  0
 23 35  1  1  0  0  0
 24 27  2  0  0  0  0
 24 30  1  0  0  0  0
 25 23  1  0  0  0  0
 26 29  1  0  0  0  0
 26 34  1  0  0  0  0
 27 31  1  0  0  0  0
 28 24  1  0  0  0  0
 29 32  1  0  0  0  0
 30 26  2  0  0  0  0
 31 29  2  0  0  0  0
 32 25  2  0  0  0  0
 33 25  1  0  0  0  0
 34 33  2  0  0  0  0
 35 40  1  0  0  0  0
 37 36  1  0  0  0  0
 37 43  1  1  0  0  0
 38 41  1  0  0  0  0
 38 40  1  0  0  0  0
 39 36  1  0  0  0  0
 40 39  1  0  0  0  0
 41 37  1  0  0  0  0
 42 43  1  0  0  0  0
M  END
>  <MODEL>
3

>  <REMARK>
 VINA RESULT:      -8.2      3.867      9.701
  Name = 
  10 active torsions:
  status: ('A' for Active; 'I' for Inactive)
    1  A    between atoms: C_1  and  C_34
    2  A    between atoms: C_1  and  N_35
    3  A    between atoms: N_3  and  C_42
    4  A    between atoms: C_6  and  C_12
    5  A    between atoms: C_8  and  C_34
    6  A    between atoms: C_11  and  C_14
    7  A    between atoms: C_14  and  C_22
    8  A    between atoms: C_15  and  C_42
    9  A    between atoms: C_19  and  O_37
   10  A    between atoms: C_34  and  C_38
                            x       y       z     vdW  Elec       q    Type
                         _______ _______ _______ _____ _____    ______ ____

>  <TORSDO>
F 10

$$$$
=
 OpenBabel11052421193D

 43 47  0  0  1  0  0  0  0  0999 V2000
  189.1200  172.6020  142.8420 C   0  0  0  0  0  2  0  0  0  0  0  0
  188.6020  173.3870  141.6260 C   0  0  1  0  0  3  0  0  0  0  0  0
  189.3660  173.5250  144.0310 C   0  0  0  0  0  2  0  0  0  0  0  0
  189.0900  174.8430  141.5660 C   0  0  0  0  0  2  0  0  0  0  0  0
  190.4600  175.0100  142.2240 C   0  0  0  0  0  2  0  0  0  0  0  0
  190.4440  174.5690  143.7020 C   0  0  1  0  0  3  0  0  0  0  0  0
  190.1290  171.9000  140.2490 N   0  0  0  0  0  2  0  0  0  0  0  0
  188.9280  172.6720  140.3560 C   0  0  0  0  0  0  0  0  0  0  0  0
  188.1500  172.7830  139.3720 O   0  0  0  0  0  0  0  0  0  0  0  0
  190.5190  171.1980  139.0330 C   0  0  0  0  0  2  0  0  0  0  0  0
  191.7030  173.1670  137.9770 N   0  0  0  0  0  2  0  0  0  0  0  0
  192.7990  171.1270  138.3730 O   0  0  0  0  0  0  0  0  0  0  0  0
  191.7440  171.8110  138.4430 C   0  0  0  0  0  0  0  0  0  0  0  0
  192.7910  173.9000  137.4030 C   0  0  0  0  0  0  0  0  0  0  0  0
  192.6190  175.1080  137.0910 O   0  0  0  0  0  0  0  0  0  0  0  0
  194.1230  173.2700  137.1490 C   0  0  0  0  0  2  0  0  0  0  0  0
  195.1610  173.8440  138.0580 C   0  0  0  0  0  0  0  0  0  0  0  0
  197.1750  175.2920  138.3630 C   0  0  0  0  0  2  0  0  0  0  0  0
  196.2540  174.1110  140.3350 C   0  0  0  0  0  2  0  0  0  0  0  0
  196.7340  175.4570  139.8130 C   0  0  0  0  0  2  0  0  0  0  0  0
  195.0210  173.6540  139.5520 C   0  0  0  0  0  2  0  0  0  0  0  0
  196.0960  174.6530  137.5300 C   0  0  0  0  0  3  0  0  0  0  0  0
  190.4020  175.7420  144.6910 C   0  0  2  0  0  3  0  0  0  0  0  0
  184.5050  178.3560  145.6730 C   0  0  0  0  0  0  0  0  0  0  0  0
  189.0870  176.4760  144.7070 C   0  0  0  0  0  0  0  0  0  0  0  0
  186.6740  177.9070  144.6970 C   0  0  0  0  0  0  0  0  0  0  0  0
  184.7370  177.3800  146.6480 C   0  0  0  0  0  3  0  0  0  0  0  0
  183.3410  179.0480  145.6740 F   0  0  0  0  0  0  0  0  0  0  0  0
  186.9090  176.9210  145.6820 C   0  0  0  0  0  0  0  0  0  0  0  0
  185.4730  178.6200  144.6980 C   0  0  0  0  0  3  0  0  0  0  0  0
  185.9380  176.6630  146.6530 C   0  0  0  0  0  3  0  0  0  0  0  0
  188.1130  176.2130  145.6830 C   0  0  0  0  0  3  0  0  0  0  0  0
  188.8470  177.4530  143.7330 C   0  0  0  0  0  3  0  0  0  0  0  0
  187.6460  178.1660  143.7260 C   0  0  0  0  0  3  0  0  0  0  0  0
  191.5990  176.6720  144.5070 C   0  0  0  0  0  2  0  0  0  0  0  0
  195.1740  175.8180  143.8280 C   0  0  0  0  0  2  0  0  0  0  0  0
  195.3450  174.9880  145.1060 C   0  0  1  0  0  3  0  0  0  0  0  0
  193.4380  176.4690  145.9410 C   0  0  0  0  0  2  0  0  0  0  0  0
  193.7210  176.2720  143.5930 C   0  0  0  0  0  2  0  0  0  0  0  0
  192.8390  175.9440  144.7170 N   0  0  0  0  0  0  0  0  0  0  0  0
  194.6890  175.6670  146.3150 C   0  0  0  0  0  2  0  0  0  0  0  0
  195.5800  173.1370  143.9100 C   0  0  0  0  0  1  0  0  0  0  0  0
  194.8060  173.7120  144.9210 O   0  0  0  0  0  0  0  0  0  0  0  0
  1  3  1  0  0  0  0
  2  8  1  6  0  0  0
  2  1  1  0  0  0  0
  4  2  1  0  0  0  0
  4  5  1  0  0  0  0
  5  6  1  0  0  0  0
  6  3  1  0  0  0  0
  6 23  1  1  0  0  0
  7  8  1  0  0  0  0
  9  8  2  0  0  0  0
 10  7  1  0  0  0  0
 11 13  1  0  0  0  0
 12 13  2  0  0  0  0
 13 10  1  0  0  0  0
 14 11  1  0  0  0  0
 15 14  2  0  0  0  0
 16 14  1  0  0  0  0
 16 17  1  0  0  0  0
 17 21  1  0  0  0  0
 18 20  1  0  0  0  0
 20 19  1  0  0  0  0
 21 19  1  0  0  0  0
 22 17  2  0  0  0  0
 22 18  1  0  0  0  0
 23 35  1  6  0  0  0
 23 25  1  0  0  0  0
 24 28  1  0  0  0  0
 24 27  1  0  0  0  0
 25 32  1  0  0  0  0
 26 30  1  0  0  0  0
 26 29  1  0  0  0  0
 27 31  2  0  0  0  0
 29 32  2  0  0  0  0
 29 31  1  0  0  0  0
 30 24  2  0  0  0  0
 33 25  2  0  0  0  0
 34 33  1  0  0  0  0
 34 26  2  0  0  0  0
 35 40  1  0  0  0  0
 36 37  1  0  0  0  0
 37 43  1  6  0  0  0
 37 41  1  0  0  0  0
 38 41  1  0  0  0  0
 39 36  1  0  0  0  0
 39 40  1  0  0  0  0
 40 38  1  0  0  0  0
 42 43  1  0  0  0  0
M  END
>  <MODEL>
4

>  <REMARK>
 VINA RESULT:      -8.1      2.496      6.691
  Name = 
  10 active torsions:
  status: ('A' for Active; 'I' for Inactive)
    1  A    between atoms: C_1  and  C_34
    2  A    between atoms: C_1  and  N_35
    3  A    between atoms: N_3  and  C_42
    4  A    between atoms: C_6  and  C_12
    5  A    between atoms: C_8  and  C_34
    6  A    between atoms: C_11  and  C_14
    7  A    between atoms: C_14  and  C_22
    8  A    between atoms: C_15  and  C_42
    9  A    between atoms: C_19  and  O_37
   10  A    between atoms: C_34  and  C_38
                            x       y       z     vdW  Elec       q    Type
                         _______ _______ _______ _____ _____    ______ ____

>  <TORSDO>
F 10

$$$$
=
 OpenBabel11052421193D

 43 47  0  0  1  0  0  0  0  0999 V2000
  191.3800  177.7410  144.1130 C   0  0  0  0  0  2  0  0  0  0  0  0
  191.1490  176.8050  145.3100 C   0  0  1  0  0  3  0  0  0  0  0  0
  190.2290  177.6590  143.1170 C   0  0  0  0  0  2  0  0  0  0  0  0
  190.3170  175.5570  144.9760 C   0  0  0  0  0  2  0  0  0  0  0  0
  190.5010  175.1240  143.5220 C   0  0  0  0  0  2  0  0  0  0  0  0
  190.1050  176.2420  142.5350 C   0  0  1  0  0  3  0  0  0  0  0  0
  193.6490  176.4000  145.1620 N   0  0  0  0  0  2  0  0  0  0  0  0
  192.4460  176.4180  145.9390 C   0  0  0  0  0  0  0  0  0  0  0  0
  192.4640  176.0770  147.1510 O   0  0  0  0  0  0  0  0  0  0  0  0
  194.9430  176.0090  145.7060 C   0  0  0  0  0  2  0  0  0  0  0  0
  196.1280  174.1210  144.5150 N   0  0  0  0  0  2  0  0  0  0  0  0
  196.3320  176.3520  143.8110 O   0  0  0  0  0  0  0  0  0  0  0  0
  195.8440  175.5220  144.6220 C   0  0  0  0  0  0  0  0  0  0  0  0
  196.9560  173.4960  143.5270 C   0  0  0  0  0  0  0  0  0  0  0  0
  197.0680  172.2410  143.5250 O   0  0  0  0  0  0  0  0  0  0  0  0
  197.7030  174.2910  142.5040 C   0  0  0  0  0  2  0  0  0  0  0  0
  196.9370  174.3570  141.2230 C   0  0  0  0  0  0  0  0  0  0  0  0
  195.0520  173.5230  139.8100 C   0  0  0  0  0  2  0  0  0  0  0  0
  196.5250  175.2930  138.8980 C   0  0  0  0  0  2  0  0  0  0  0  0
  195.0760  174.8830  139.1210 C   0  0  0  0  0  2  0  0  0  0  0  0
  197.2320  175.4720  140.2430 C   0  0  0  0  0  2  0  0  0  0  0  0
  195.8950  173.5250  141.0570 C   0  0  0  0  0  3  0  0  0  0  0  0
  188.7320  176.0270  141.8840 C   0  0  2  0  0  3  0  0  0  0  0  0
  184.1170  178.5380  145.7530 C   0  0  0  0  0  0  0  0  0  0  0  0
  187.6100  176.7510  142.5790 C   0  0  0  0  0  0  0  0  0  0  0  0
  185.5310  178.1660  143.8240 C   0  0  0  0  0  0  0  0  0  0  0  0
  184.7660  177.5020  146.4340 C   0  0  0  0  0  3  0  0  0  0  0  0
  183.1170  179.2210  146.3590 F   0  0  0  0  0  0  0  0  0  0  0  0
  186.1870  177.1190  144.5110 C   0  0  0  0  0  0  0  0  0  0  0  0
  184.4990  178.8700  144.4490 C   0  0  0  0  0  3  0  0  0  0  0  0
  185.8010  176.7930  145.8140 C   0  0  0  0  0  3  0  0  0  0  0  0
  187.2220  176.4190  143.8870 C   0  0  0  0  0  3  0  0  0  0  0  0
  186.9540  177.7870  141.9030 C   0  0  0  0  0  3  0  0  0  0  0  0
  185.9180  178.4920  142.5210 C   0  0  0  0  0  3  0  0  0  0  0  0
  188.4400  174.5430  141.6720 C   0  0  0  0  0  2  0  0  0  0  0  0
  190.0170  171.8600  139.6020 C   0  0  0  0  0  2  0  0  0  0  0  0
  190.3460  172.7900  138.4270 C   0  0  1  0  0  3  0  0  0  0  0  0
  188.3910  174.1410  139.3650 C   0  0  0  0  0  2  0  0  0  0  0  0
  189.4620  172.6090  140.8280 C   0  0  0  0  0  2  0  0  0  0  0  0
  189.2240  174.0300  140.5600 N   0  0  0  0  0  0  0  0  0  0  0  0
  189.1840  173.7430  138.1170 C   0  0  0  0  0  2  0  0  0  0  0  0
  191.8200  174.1650  137.5090 C   0  0  0  0  0  1  0  0  0  0  0  0
  191.5040  173.5200  138.7070 O   0  0  0  0  0  0  0  0  0  0  0  0
  1  2  1  0  0  0  0
  2  8  1  6  0  0  0
  3  1  1  0  0  0  0
  4  2  1  0  0  0  0
  5  4  1  0  0  0  0
  6 23  1  1  0  0  0
  6  3  1  0  0  0  0
  6  5  1  0  0  0  0
  7 10  1  0  0  0  0
  7  8  1  0  0  0  0
  8  9  2  0  0  0  0
 11 13  1  0  0  0  0
 12 13  2  0  0  0  0
 13 10  1  0  0  0  0
 14 11  1  0  0  0  0
 15 14  2  0  0  0  0
 16 14  1  0  0  0  0
 17 16  1  0  0  0  0
 18 22  1  0  0  0  0
 19 20  1  0  0  0  0
 19 21  1  0  0  0  0
 20 18  1  0  0  0  0
 21 17  1  0  0  0  0
 22 17  2  0  0  0  0
 23 35  1  1  0  0  0
 23 25  1  0  0  0  0
 24 28  1  0  0  0  0
 24 27  1  0  0  0  0
 25 32  1  0  0  0  0
 26 30  1  0  0  0  0
 26 29  1  0  0  0  0
 29 31  1  0  0  0  0
 30 24  2  0  0  0  0
 31 27  2  0  0  0  0
 32 29  2  0  0  0  0
 33 34  1  0  0  0  0
 33 25  2  0  0  0  0
 34 26  2  0  0  0  0
 36 39  1  0  0  0  0
 37 43  1  1  0  0  0
 37 36  1  0  0  0  0
 38 40  1  0  0  0  0
 40 39  1  0  0  0  0
 40 35  1  0  0  0  0
 41 37  1  0  0  0  0
 41 38  1  0  0  0  0
 42 43  1  0  0  0  0
M  END
>  <MODEL>
5

>  <REMARK>
 VINA RESULT:      -8.0      2.353      3.435
  Name = 
  10 active torsions:
  status: ('A' for Active; 'I' for Inactive)
    1  A    between atoms: C_1  and  C_34
    2  A    between atoms: C_1  and  N_35
    3  A    between atoms: N_3  and  C_42
    4  A    between atoms: C_6  and  C_12
    5  A    between atoms: C_8  and  C_34
    6  A    between atoms: C_11  and  C_14
    7  A    between atoms: C_14  and  C_22
    8  A    between atoms: C_15  and  C_42
    9  A    between atoms: C_19  and  O_37
   10  A    between atoms: C_34  and  C_38
                            x       y       z     vdW  Elec       q    Type
                         _______ _______ _______ _____ _____    ______ ____

>  <TORSDO>
F 10

$$$$
=
 OpenBabel11052421193D

 43 47  0  0  1  0  0  0  0  0999 V2000
  189.6470  172.6230  144.3600 C   0  0  0  0  0  2  0  0  0  0  0  0
  189.5840  173.0810  142.8950 C   0  0  1  0  0  3  0  0  0  0  0  0
  189.6850  173.8150  145.3110 C   0  0  0  0  0  2  0  0  0  0  0  0
  190.2570  174.4380  142.6340 C   0  0  0  0  0  2  0  0  0  0  0  0
  191.4100  174.6950  143.6040 C   0  0  0  0  0  2  0  0  0  0  0  0
  190.9400  174.6680  145.0730 C   0  0  1  0  0  3  0  0  0  0  0  0
  190.5730  170.7760  142.5160 N   0  0  0  0  0  2  0  0  0  0  0  0
  190.1400  172.0350  141.9880 C   0  0  0  0  0  0  0  0  0  0  0  0
  190.2550  172.2850  140.7580 O   0  0  0  0  0  0  0  0  0  0  0  0
  191.1480  169.7210  141.6900 C   0  0  0  0  0  2  0  0  0  0  0  0
  193.6450  169.8250  142.0710 N   0  0  0  0  0  2  0  0  0  0  0  0
  192.3070  168.1700  143.0650 O   0  0  0  0  0  0  0  0  0  0  0  0
  192.3880  169.1810  142.3180 C   0  0  0  0  0  0  0  0  0  0  0  0
  194.9160  169.4400  142.6080 C   0  0  0  0  0  0  0  0  0  0  0  0
  195.9300  170.1400  142.3460 O   0  0  0  0  0  0  0  0  0  0  0  0
  195.0780  168.2220  143.4620 C   0  0  0  0  0  2  0  0  0  0  0  0
  195.6280  168.5860  144.8020 C   0  0  0  0  0  0  0  0  0  0  0  0
  195.2200  169.2900  147.1650 C   0  0  0  0  0  2  0  0  0  0  0  0
  197.5580  168.9930  146.4040 C   0  0  0  0  0  2  0  0  0  0  0  0
  196.5610  168.6470  147.5010 C   0  0  0  0  0  2  0  0  0  0  0  0
  197.1040  168.3870  145.0730 C   0  0  0  0  0  2  0  0  0  0  0  0
  194.7670  168.9210  145.7780 C   0  0  0  0  0  3  0  0  0  0  0  0
  190.7890  176.0630  145.6940 C   0  0  2  0  0  3  0  0  0  0  0  0
  184.7350  178.4950  145.8040 C   0  0  0  0  0  0  0  0  0  0  0  0
  189.4330  176.6820  145.4770 C   0  0  0  0  0  0  0  0  0  0  0  0
  186.9400  177.8820  145.0150 C   0  0  0  0  0  0  0  0  0  0  0  0
  185.0110  177.9090  147.0440 C   0  0  0  0  0  3  0  0  0  0  0  0
  183.5320  179.0780  145.5860 F   0  0  0  0  0  0  0  0  0  0  0  0
  187.2200  177.2900  146.2670 C   0  0  0  0  0  0  0  0  0  0  0  0
  185.6980  178.4820  144.7900 C   0  0  0  0  0  3  0  0  0  0  0  0
  186.2530  177.3060  147.2760 C   0  0  0  0  0  3  0  0  0  0  0  0
  188.4630  176.6950  146.4920 C   0  0  0  0  0  3  0  0  0  0  0  0
  189.1490  177.2690  144.2390 C   0  0  0  0  0  3  0  0  0  0  0  0
  187.9070  177.8660  144.0060 C   0  0  0  0  0  3  0  0  0  0  0  0
  191.9340  176.9860  145.2820 C   0  0  0  0  0  2  0  0  0  0  0  0
  195.4690  176.4520  144.1900 C   0  0  0  0  0  2  0  0  0  0  0  0
  195.6630  175.1800  145.0250 C   0  0  1  0  0  3  0  0  0  0  0  0
  193.8130  176.2170  146.4500 C   0  0  0  0  0  2  0  0  0  0  0  0
  194.0190  176.9700  144.2080 C   0  0  0  0  0  2  0  0  0  0  0  0
  193.1660  176.2270  145.1400 N   0  0  0  0  0  0  0  0  0  0  0  0
  195.0580  175.3250  146.4280 C   0  0  0  0  0  2  0  0  0  0  0  0
  195.0220  173.0820  145.3370 C   0  0  0  0  0  1  0  0  0  0  0  0
  195.0940  174.0860  144.3680 O   0  0  0  0  0  0  0  0  0  0  0  0
  1  3  1  0  0  0  0
  2  8  1  6  0  0  0
  2  1  1  0  0  0  0
  4  2  1  0  0  0  0
  4  5  1  0  0  0  0
  5  6  1  0  0  0  0
  6  3  1  0  0  0  0
  6 23  1  6  0  0  0
  8  7  1  0  0  0  0
  9  8  2  0  0  0  0
 10 13  1  0  0  0  0
 10  7  1  0  0  0  0
 11 13  1  0  0  0  0
 11 14  1  0  0  0  0
 13 12  2  0  0  0  0
 14 16  1  0  0  0  0
 15 14  2  0  0  0  0
 16 17  1  0  0  0  0
 17 21  1  0  0  0  0
 17 22  2  0  0  0  0
 18 20  1  0  0  0  0
 19 20  1  0  0  0  0
 21 19  1  0  0  0  0
 22 18  1  0  0  0  0
 23 35  1  6  0  0  0
 24 27  1  0  0  0  0
 25 23  1  0  0  0  0
 25 32  1  0  0  0  0
 26 29  1  0  0  0  0
 27 31  2  0  0  0  0
 28 24  1  0  0  0  0
 29 32  2  0  0  0  0
 29 31  1  0  0  0  0
 30 26  1  0  0  0  0
 30 24  2  0  0  0  0
 33 25  2  0  0  0  0
 34 33  1  0  0  0  0
 34 26  2  0  0  0  0
 36 39  1  0  0  0  0
 36 37  1  0  0  0  0
 37 43  1  6  0  0  0
 37 41  1  0  0  0  0
 39 40  1  0  0  0  0
 40 35  1  0  0  0  0
 40 38  1  0  0  0  0
 41 38  1  0  0  0  0
 43 42  1  0  0  0  0
M  END
>  <MODEL>
6

>  <REMARK>
 VINA RESULT:      -7.8      2.086      5.247
  Name = 
  10 active torsions:
  status: ('A' for Active; 'I' for Inactive)
    1  A    between atoms: C_1  and  C_34
    2  A    between atoms: C_1  and  N_35
    3  A    between atoms: N_3  and  C_42
    4  A    between atoms: C_6  and  C_12
    5  A    between atoms: C_8  and  C_34
    6  A    between atoms: C_11  and  C_14
    7  A    between atoms: C_14  and  C_22
    8  A    between atoms: C_15  and  C_42
    9  A    between atoms: C_19  and  O_37
   10  A    between atoms: C_34  and  C_38
                            x       y       z     vdW  Elec       q    Type
                         _______ _______ _______ _____ _____    ______ ____

>  <TORSDO>
F 10

$$$$
=
 OpenBabel11052421193D

 43 47  0  0  1  0  0  0  0  0999 V2000
  192.7680  177.0860  144.3670 C   0  0  0  0  0  2  0  0  0  0  0  0
  193.1390  176.0190  145.4100 C   0  0  1  0  0  3  0  0  0  0  0  0
  191.3220  176.9300  143.9080 C   0  0  0  0  0  2  0  0  0  0  0  0
  192.3660  174.7000  145.2570 C   0  0  0  0  0  2  0  0  0  0  0  0
  191.9760  174.4350  143.8040 C   0  0  0  0  0  2  0  0  0  0  0  0
  191.1060  175.5700  143.2260 C   0  0  1  0  0  3  0  0  0  0  0  0
  195.1220  174.4690  145.7250 N   0  0  0  0  0  2  0  0  0  0  0  0
  194.6100  175.7690  145.4110 C   0  0  0  0  0  0  0  0  0  0  0  0
  195.3960  176.7220  145.1630 O   0  0  0  0  0  0  0  0  0  0  0  0
  196.5460  174.1620  145.7680 C   0  0  0  0  0  2  0  0  0  0  0  0
  196.8150  171.6760  146.1400 N   0  0  0  0  0  2  0  0  0  0  0  0
  197.0000  172.6370  144.0050 O   0  0  0  0  0  0  0  0  0  0  0  0
  196.8050  172.7910  145.2390 C   0  0  0  0  0  0  0  0  0  0  0  0
  197.0320  170.3040  145.7890 C   0  0  0  0  0  0  0  0  0  0  0  0
  196.9560  169.4220  146.6860 O   0  0  0  0  0  0  0  0  0  0  0  0
  197.3600  169.8870  144.3910 C   0  0  0  0  0  2  0  0  0  0  0  0
  196.1330  169.4230  143.6760 C   0  0  0  0  0  0  0  0  0  0  0  0
  193.9370  168.2320  143.7440 C   0  0  0  0  0  2  0  0  0  0  0  0
  194.7030  169.1840  141.5900 C   0  0  0  0  0  2  0  0  0  0  0  0
  193.5280  169.0920  142.5530 C   0  0  0  0  0  2  0  0  0  0  0  0
  195.8770  169.9000  142.2630 C   0  0  0  0  0  2  0  0  0  0  0  0
  195.2120  168.7310  144.3690 C   0  0  0  0  0  3  0  0  0  0  0  0
  189.6140  175.2190  143.1490 C   0  0  2  0  0  3  0  0  0  0  0  0
  185.5610  178.5590  147.0210 C   0  0  0  0  0  0  0  0  0  0  0  0
  188.7820  175.8560  144.2300 C   0  0  0  0  0  0  0  0  0  0  0  0
  187.2390  176.9740  146.2890 C   0  0  0  0  0  0  0  0  0  0  0  0
  185.4290  179.0300  145.7110 C   0  0  0  0  0  3  0  0  0  0  0  0
  184.8120  179.0980  148.0120 F   0  0  0  0  0  0  0  0  0  0  0  0
  187.1050  177.4500  144.9650 C   0  0  0  0  0  0  0  0  0  0  0  0
  186.4660  177.5310  147.3100 C   0  0  0  0  0  3  0  0  0  0  0  0
  186.1990  178.4760  144.6820 C   0  0  0  0  0  3  0  0  0  0  0  0
  187.8750  176.8890  143.9430 C   0  0  0  0  0  3  0  0  0  0  0  0
  188.9110  175.3910  145.5440 C   0  0  0  0  0  3  0  0  0  0  0  0
  188.1440  175.9470  146.5710 C   0  0  0  0  0  3  0  0  0  0  0  0
  189.3990  173.7100  143.0460 C   0  0  0  0  0  2  0  0  0  0  0  0
  190.2200  171.2720  140.3350 C   0  0  0  0  0  2  0  0  0  0  0  0
  189.5620  172.1000  139.2240 C   0  0  1  0  0  3  0  0  0  0  0  0
  188.1840  173.0220  141.1670 C   0  0  0  0  0  2  0  0  0  0  0  0
  190.2630  172.0050  141.6890 C   0  0  0  0  0  2  0  0  0  0  0  0
  189.5320  173.2750  141.6660 N   0  0  0  0  0  0  0  0  0  0  0  0
  188.2160  172.6840  139.6740 C   0  0  0  0  0  2  0  0  0  0  0  0
  189.7360  173.7900  137.8020 C   0  0  0  0  0  1  0  0  0  0  0  0
  190.4210  173.1270  138.8230 O   0  0  0  0  0  0  0  0  0  0  0  0
  1  2  1  0  0  0  0
  2  8  1  6  0  0  0
  3  1  1  0  0  0  0
  4  2  1  0  0  0  0
  5  4  1  0  0  0  0
  6 23  1  1  0  0  0
  6  5  1  0  0  0  0
  6  3  1  0  0  0  0
  7 10  1  0  0  0  0
  8  7  1  0  0  0  0
  9  8  2  0  0  0  0
 12 13  2  0  0  0  0
 13 10  1  0  0  0  0
 13 11  1  0  0  0  0
 14 11  1  0  0  0  0
 14 15  2  0  0  0  0
 16 14  1  0  0  0  0
 17 22  2  0  0  0  0
 17 16  1  0  0  0  0
 18 22  1  0  0  0  0
 19 21  1  0  0  0  0
 19 20  1  0  0  0  0
 20 18  1  0  0  0  0
 21 17  1  0  0  0  0
 23 35  1  1  0  0  0
 23 25  1  0  0  0  0
 24 30  1  0  0  0  0
 24 28  1  0  0  0  0
 25 33  1  0  0  0  0
 26 34  1  0  0  0  0
 26 30  2  0  0  0  0
 27 24  2  0  0  0  0
 29 26  1  0  0  0  0
 31 29  2  0  0  0  0
 31 27  1  0  0  0  0
 32 25  2  0  0  0  0
 32 29  1  0  0  0  0
 33 34  2  0  0  0  0
 36 39  1  0  0  0  0
 37 43  1  1  0  0  0
 37 41  1  0  0  0  0
 37 36  1  0  0  0  0
 38 40  1  0  0  0  0
 40 39  1  0  0  0  0
 40 35  1  0  0  0  0
 41 38  1  0  0  0  0
 42 43  1  0  0  0  0
M  END
>  <MODEL>
7

>  <REMARK>
 VINA RESULT:      -7.5      1.667      2.304
  Name = 
  10 active torsions:
  status: ('A' for Active; 'I' for Inactive)
    1  A    between atoms: C_1  and  C_34
    2  A    between atoms: C_1  and  N_35
    3  A    between atoms: N_3  and  C_42
    4  A    between atoms: C_6  and  C_12
    5  A    between atoms: C_8  and  C_34
    6  A    between atoms: C_11  and  C_14
    7  A    between atoms: C_14  and  C_22
    8  A    between atoms: C_15  and  C_42
    9  A    between atoms: C_19  and  O_37
   10  A    between atoms: C_34  and  C_38
                            x       y       z     vdW  Elec       q    Type
                         _______ _______ _______ _____ _____    ______ ____

>  <TORSDO>
F 10

$$$$
=
 OpenBabel11052421193D

 43 47  0  0  1  0  0  0  0  0999 V2000
  190.9380  173.0630  141.7660 C   0  0  0  0  0  2  0  0  0  0  0  0
  191.8780  172.1250  142.5410 C   0  0  1  0  0  3  0  0  0  0  0  0
  190.7320  174.3780  142.5100 C   0  0  0  0  0  2  0  0  0  0  0  0
  191.8350  172.3150  144.0650 C   0  0  0  0  0  2  0  0  0  0  0  0
  190.4660  172.8020  144.5380 C   0  0  0  0  0  2  0  0  0  0  0  0
  190.0710  174.1380  143.8770 C   0  0  1  0  0  3  0  0  0  0  0  0
  192.6930  169.8580  141.7460 N   0  0  0  0  0  2  0  0  0  0  0  0
  191.6200  170.7000  142.1820 C   0  0  0  0  0  0  0  0  0  0  0  0
  190.4420  170.2570  142.2350 O   0  0  0  0  0  0  0  0  0  0  0  0
  192.5060  168.4660  141.3570 C   0  0  0  0  0  2  0  0  0  0  0  0
  193.1370  168.4690  138.9090 N   0  0  0  0  0  2  0  0  0  0  0  0
  190.9140  168.1920  139.6170 O   0  0  0  0  0  0  0  0  0  0  0  0
  192.1240  168.3690  139.9190 C   0  0  0  0  0  0  0  0  0  0  0  0
  192.9350  168.3820  137.4940 C   0  0  0  0  0  0  0  0  0  0  0  0
  193.9350  168.4310  136.7280 O   0  0  0  0  0  0  0  0  0  0  0  0
  191.5710  168.2480  136.8950 C   0  0  0  0  0  2  0  0  0  0  0  0
  191.0910  169.5630  136.3730 C   0  0  0  0  0  0  0  0  0  0  0  0
  191.0580  171.2520  134.5320 C   0  0  0  0  0  2  0  0  0  0  0  0
  189.7910  171.7320  136.6040 C   0  0  0  0  0  2  0  0  0  0  0  0
  189.7120  171.7060  135.0850 C   0  0  0  0  0  2  0  0  0  0  0  0
  190.0300  170.3190  137.1410 C   0  0  0  0  0  2  0  0  0  0  0  0
  191.4960  169.9520  135.1520 C   0  0  0  0  0  3  0  0  0  0  0  0
  190.2460  175.3530  144.7990 C   0  0  2  0  0  3  0  0  0  0  0  0
  184.4860  178.3560  145.4200 C   0  0  0  0  0  0  0  0  0  0  0  0
  188.9490  176.0110  145.1890 C   0  0  0  0  0  0  0  0  0  0  0  0
  186.5310  177.1900  145.9860 C   0  0  0  0  0  0  0  0  0  0  0  0
  184.8530  178.3530  144.0700 C   0  0  0  0  0  3  0  0  0  0  0  0
  183.3160  178.9220  145.8000 F   0  0  0  0  0  0  0  0  0  0  0  0
  186.9020  177.1870  144.6220 C   0  0  0  0  0  0  0  0  0  0  0  0
  185.3240  177.7740  146.3770 C   0  0  0  0  0  3  0  0  0  0  0  0
  186.0600  177.7680  143.6700 C   0  0  0  0  0  3  0  0  0  0  0  0
  188.1070  176.5970  144.2310 C   0  0  0  0  0  3  0  0  0  0  0  0
  188.5760  176.0190  146.5380 C   0  0  0  0  0  3  0  0  0  0  0  0
  187.3720  176.6070  146.9380 C   0  0  0  0  0  3  0  0  0  0  0  0
  191.2660  176.3400  144.2360 C   0  0  0  0  0  2  0  0  0  0  0  0
  194.9980  176.5390  144.1720 C   0  0  0  0  0  2  0  0  0  0  0  0
  195.1870  175.6830  145.4300 C   0  0  1  0  0  3  0  0  0  0  0  0
  192.8340  176.5210  145.9660 C   0  0  0  0  0  2  0  0  0  0  0  0
  193.5340  176.6030  143.6990 C   0  0  0  0  0  2  0  0  0  0  0  0
  192.6100  175.9580  144.6370 N   0  0  0  0  0  0  0  0  0  0  0  0
  194.1820  176.0580  146.5270 C   0  0  0  0  0  2  0  0  0  0  0  0
  196.2210  174.0230  144.3890 C   0  0  0  0  0  1  0  0  0  0  0  0
  195.0630  174.3280  145.1090 O   0  0  0  0  0  0  0  0  0  0  0  0
  1  3  1  0  0  0  0
  1  2  1  0  0  0  0
  2  8  1  1  0  0  0
  2  4  1  0  0  0  0
  3  6  1  0  0  0  0
  4  5  1  0  0  0  0
  6  5  1  0  0  0  0
  6 23  1  1  0  0  0
  7  8  1  0  0  0  0
  8  9  2  0  0  0  0
 10  7  1  0  0  0  0
 11 13  1  0  0  0  0
 12 13  2  0  0  0  0
 13 10  1  0  0  0  0
 14 11  1  0  0  0  0
 15 14  2  0  0  0  0
 16 14  1  0  0  0  0
 17 16  1  0  0  0  0
 17 21  1  0  0  0  0
 18 20  1  0  0  0  0
 18 22  1  0  0  0  0
 19 21  1  0  0  0  0
 20 19  1  0  0  0  0
 22 17  2  0  0  0  0
 23 35  1  6  0  0  0
 23 25  1  0  0  0  0
 24 28  1  0  0  0  0
 24 30  1  0  0  0  0
 25 33  1  0  0  0  0
 26 30  2  0  0  0  0
 26 34  1  0  0  0  0
 27 24  2  0  0  0  0
 29 26  1  0  0  0  0
 31 27  1  0  0  0  0
 31 29  2  0  0  0  0
 32 29  1  0  0  0  0
 32 25  2  0  0  0  0
 33 34  2  0  0  0  0
 35 40  1  0  0  0  0
 36 37  1  0  0  0  0
 37 43  1  6  0  0  0
 37 41  1  0  0  0  0
 38 41  1  0  0  0  0
 39 36  1  0  0  0  0
 39 40  1  0  0  0  0
 40 38  1  0  0  0  0
 42 43  1  0  0  0  0
M  END
>  <MODEL>
8

>  <REMARK>
 VINA RESULT:      -7.4      2.763      7.392
  Name = 
  10 active torsions:
  status: ('A' for Active; 'I' for Inactive)
    1  A    between atoms: C_1  and  C_34
    2  A    between atoms: C_1  and  N_35
    3  A    between atoms: N_3  and  C_42
    4  A    between atoms: C_6  and  C_12
    5  A    between atoms: C_8  and  C_34
    6  A    between atoms: C_11  and  C_14
    7  A    between atoms: C_14  and  C_22
    8  A    between atoms: C_15  and  C_42
    9  A    between atoms: C_19  and  O_37
   10  A    between atoms: C_34  and  C_38
                            x       y       z     vdW  Elec       q    Type
                         _______ _______ _______ _____ _____    ______ ____

>  <TORSDO>
F 10

$$$$
=
 OpenBabel11052421193D

 43 47  0  0  1  0  0  0  0  0999 V2000
  188.7310  177.1130  141.8530 C   0  0  0  0  0  2  0  0  0  0  0  0
  189.4250  175.7530  141.6790 C   0  0  1  0  0  3  0  0  0  0  0  0
  189.1340  177.7760  143.1660 C   0  0  0  0  0  2  0  0  0  0  0  0
  189.7420  175.0390  143.0030 C   0  0  0  0  0  2  0  0  0  0  0  0
  188.7390  175.4000  144.0980 C   0  0  0  0  0  2  0  0  0  0  0  0
  188.7060  176.9190  144.3680 C   0  0  1  0  0  3  0  0  0  0  0  0
  188.8550  173.4500  140.7820 N   0  0  0  0  0  2  0  0  0  0  0  0
  188.6310  174.8640  140.7810 C   0  0  0  0  0  0  0  0  0  0  0  0
  187.7850  175.3760  140.0000 O   0  0  0  0  0  0  0  0  0  0  0  0
  188.1330  172.5280  139.9130 C   0  0  0  0  0  2  0  0  0  0  0  0
  188.8720  172.9110  137.5250 N   0  0  0  0  0  2  0  0  0  0  0  0
  189.7570  171.1730  138.8340 O   0  0  0  0  0  0  0  0  0  0  0  0
  188.9700  172.1500  138.7370 C   0  0  0  0  0  0  0  0  0  0  0  0
  189.6130  172.6860  136.3210 C   0  0  0  0  0  0  0  0  0  0  0  0
  189.4610  173.4760  135.3510 O   0  0  0  0  0  0  0  0  0  0  0  0
  190.5550  171.5340  136.1740 C   0  0  0  0  0  2  0  0  0  0  0  0
  191.9660  172.0130  136.0770 C   0  0  0  0  0  0  0  0  0  0  0  0
  193.8840  173.2480  137.0990 C   0  0  0  0  0  2  0  0  0  0  0  0
  194.1770  172.2560  134.8490 C   0  0  0  0  0  2  0  0  0  0  0  0
  194.7940  172.3830  136.2350 C   0  0  0  0  0  2  0  0  0  0  0  0
  192.8350  171.5250  134.9380 C   0  0  0  0  0  2  0  0  0  0  0  0
  192.4700  172.7310  137.0950 C   0  0  0  0  0  3  0  0  0  0  0  0
  189.4580  177.3310  145.6400 C   0  0  2  0  0  3  0  0  0  0  0  0
  195.5800  175.0760  145.5150 C   0  0  0  0  0  0  0  0  0  0  0  0
  190.7970  176.6610  145.8000 C   0  0  0  0  0  0  0  0  0  0  0  0
  193.2740  175.3980  146.1780 C   0  0  0  0  0  0  0  0  0  0  0  0
  195.4160  176.0010  144.4790 C   0  0  0  0  0  3  0  0  0  0  0  0
  196.7780  174.4710  145.6980 F   0  0  0  0  0  0  0  0  0  0  0  0
  193.1070  176.3330  145.1310 C   0  0  0  0  0  0  0  0  0  0  0  0
  194.5100  174.7740  146.3640 C   0  0  0  0  0  3  0  0  0  0  0  0
  194.1810  176.6300  144.2860 C   0  0  0  0  0  3  0  0  0  0  0  0
  191.8730  176.9600  144.9480 C   0  0  0  0  0  3  0  0  0  0  0  0
  190.9680  175.7320  146.8330 C   0  0  0  0  0  3  0  0  0  0  0  0
  192.2000  175.1010  147.0230 C   0  0  0  0  0  3  0  0  0  0  0  0
  188.5760  177.1980  146.8790 C   0  0  0  0  0  2  0  0  0  0  0  0
  184.8620  177.1490  146.4560 C   0  0  0  0  0  2  0  0  0  0  0  0
  184.7110  178.6730  146.5390 C   0  0  1  0  0  3  0  0  0  0  0  0
  186.8920  178.4970  147.8580 C   0  0  0  0  0  2  0  0  0  0  0  0
  186.3330  176.6900  146.4250 C   0  0  0  0  0  2  0  0  0  0  0  0
  187.2730  177.7940  146.6370 N   0  0  0  0  0  0  0  0  0  0  0  0
  185.5860  179.2690  147.6500 C   0  0  0  0  0  2  0  0  0  0  0  0
  184.0130  178.8570  144.4450 C   0  0  0  0  0  1  0  0  0  0  0  0
  185.0350  179.2530  145.3100 O   0  0  0  0  0  0  0  0  0  0  0  0
  1  3  1  0  0  0  0
  2  8  1  6  0  0  0
  2  1  1  0  0  0  0
  2  4  1  0  0  0  0
  3  6  1  0  0  0  0
  4  5  1  0  0  0  0
  5  6  1  0  0  0  0
  6 23  1  1  0  0  0
  8  7  1  0  0  0  0
  9  8  2  0  0  0  0
 10  7  1  0  0  0  0
 11 13  1  0  0  0  0
 13 12  2  0  0  0  0
 13 10  1  0  0  0  0
 14 11  1  0  0  0  0
 15 14  2  0  0  0  0
 16 14  1  0  0  0  0
 17 16  1  0  0  0  0
 17 22  2  0  0  0  0
 19 21  1  0  0  0  0
 19 20  1  0  0  0  0
 20 18  1  0  0  0  0
 21 17  1  0  0  0  0
 22 18  1  0  0  0  0
 23 25  1  0  0  0  0
 23 35  1  1  0  0  0
 24 28  1  0  0  0  0
 24 30  1  0  0  0  0
 25 33  1  0  0  0  0
 26 30  2  0  0  0  0
 26 34  1  0  0  0  0
 27 24  2  0  0  0  0
 29 26  1  0  0  0  0
 31 27  1  0  0  0  0
 31 29  2  0  0  0  0
 32 29  1  0  0  0  0
 32 25  2  0  0  0  0
 33 34  2  0  0  0  0
 36 37  1  0  0  0  0
 37 43  1  6  0  0  0
 37 41  1  0  0  0  0
 39 36  1  0  0  0  0
 39 40  1  0  0  0  0
 40 35  1  0  0  0  0
 40 38  1  0  0  0  0
 41 38  1  0  0  0  0
 42 43  1  0  0  0  0
M  END
>  <MODEL>
9

>  <REMARK>
 VINA RESULT:      -7.4      4.405      8.893
  Name = 
  10 active torsions:
  status: ('A' for Active; 'I' for Inactive)
    1  A    between atoms: C_1  and  C_34
    2  A    between atoms: C_1  and  N_35
    3  A    between atoms: N_3  and  C_42
    4  A    between atoms: C_6  and  C_12
    5  A    between atoms: C_8  and  C_34
    6  A    between atoms: C_11  and  C_14
    7  A    between atoms: C_14  and  C_22
    8  A    between atoms: C_15  and  C_42
    9  A    between atoms: C_19  and  O_37
   10  A    between atoms: C_34  and  C_38
                            x       y       z     vdW  Elec       q    Type
                         _______ _______ _______ _____ _____    ______ ____

>  <TORSDO>
F 10

$$$$
