=
 OpenBabel11052417203D

 30 35  0  0  1  0  0  0  0  0999 V2000
  187.8970  176.7760  143.4730 C   0  0  2  0  0  3  0  0  0  0  0  0
  186.5800  178.8960  142.8830 C   0  0  0  0  0  2  0  0  0  0  0  0
  187.6950  175.9380  147.1960 C   0  0  0  0  0  2  0  0  0  0  0  0
  190.3230  176.3160  142.9850 C   0  0  0  0  0  0  0  0  0  0  0  0
  189.0030  176.0030  142.9030 N   0  0  0  0  0  0  0  0  0  0  0  0
  190.6080  173.2530  141.4050 C   0  0  0  0  0  3  0  0  0  0  0  0
  192.2950  177.2940  144.3360 C   0  0  0  0  0  2  0  0  0  0  0  0
  190.2890  174.4560  142.0060 C   0  0  0  0  0  0  0  0  0  0  0  0
  187.9260  173.9760  141.9850 C   0  0  0  0  0  3  0  0  0  0  0  0
  189.9970  176.1400  146.0600 C   0  0  2  0  0  3  0  0  0  0  0  0
  188.7400  175.2850  146.2850 C   0  0  1  0  0  3  0  0  0  0  0  0
  188.9990  174.8130  142.2800 C   0  0  0  0  0  0  0  0  0  0  0  0
  191.1490  175.3930  142.4200 N   0  0  0  0  0  0  0  0  0  0  0  0
  185.5370  178.6450  143.9660 C   0  0  0  0  0  2  0  0  0  0  0  0
  190.7690  176.4270  147.3630 C   0  0  0  0  0  2  0  0  0  0  0  0
  193.0020  176.1170  146.4400 O   0  0  0  0  0  0  0  0  0  0  0  0
  188.2130  172.7480  141.3200 C   0  0  0  0  0  3  0  0  0  0  0  0
  187.2260  177.6100  142.3680 C   0  0  0  0  0  2  0  0  0  0  0  0
  187.6470  177.4780  147.0680 C   0  0  0  0  0  2  0  0  0  0  0  0
  185.0590  178.5290  146.4570 C   0  0  0  0  0  1  0  0  0  0  0  0
  189.5570  172.3960  141.0370 C   0  0  0  0  0  3  0  0  0  0  0  0
  188.3870  177.6960  144.6220 C   0  0  2  0  0  3  0  0  0  0  0  0
  190.7890  177.3790  143.9440 C   0  0  2  0  0  3  0  0  0  0  0  0
  189.1050  174.0490  146.8180 O   0  0  0  0  0  1  0  0  0  0  0  0
  189.8320  177.4010  145.1520 C   0  0  2  0  0  3  0  0  0  0  0  0
  192.1420  177.0360  147.0710 C   0  0  0  0  0  2  0  0  0  0  0  0
  193.7710  175.2850  144.3280 C   0  0  0  0  0  1  0  0  0  0  0  0
  186.0680  178.3450  145.3660 C   0  0  0  0  0  0  0  0  0  0  0  0
  187.3130  177.8760  145.6680 C   0  0  0  0  0  0  0  0  0  0  0  0
  192.6590  175.9870  145.0720 C   0  0  2  0  0  3  0  0  0  0  0  0
  1 18  1  6  0  0  0
  1 22  1  0  0  0  0
  2 14  1  0  0  0  0
  4 23  1  0  0  0  0
  5  4  1  0  0  0  0
  5  1  1  0  0  0  0
  6  8  1  0  0  0  0
  7 30  1  0  0  0  0
  8 12  2  0  0  0  0
  8 13  1  0  0  0  0
  9 12  1  0  0  0  0
 10 11  1  0  0  0  0
 10 15  1  1  0  0  0
 11 24  1  1  0  0  0
 11  3  1  0  0  0  0
 12  5  1  0  0  0  0
 13  4  2  0  0  0  0
 14 28  1  0  0  0  0
 16 26  1  0  0  0  0
 17  9  2  0  0  0  0
 18  2  1  0  0  0  0
 19  3  1  0  0  0  0
 21 17  1  0  0  0  0
 21  6  2  0  0  0  0
 22 25  1  0  0  0  0
 22 29  1  1  0  0  0
 23  7  1  1  0  0  0
 23 25  1  0  0  0  0
 25 10  1  0  0  0  0
 26 15  1  0  0  0  0
 27 30  1  0  0  0  0
 28 29  2  0  0  0  0
 28 20  1  0  0  0  0
 29 19  1  0  0  0  0
 30 16  1  0  0  0  0
M  END
>  <MODEL>
1

>  <REMARK>
 VINA RESULT:      -9.5      0.000      0.000
  Name = 
  0 active torsions:
  status: ('A' for Active; 'I' for Inactive)
                            x       y       z     vdW  Elec       q    Type
                         _______ _______ _______ _____ _____    ______ ____

>  <TORSDO>
F 0

$$$$
=
 OpenBabel11052417203D

 30 35  0  0  1  0  0  0  0  0999 V2000
  187.8670  176.9300  145.5620 C   0  0  2  0  0  3  0  0  0  0  0  0
  185.3220  176.6420  145.4590 C   0  0  0  0  0  2  0  0  0  0  0  0
  189.3130  178.2050  142.2620 C   0  0  0  0  0  2  0  0  0  0  0  0
  189.5630  175.1890  146.2140 C   0  0  0  0  0  0  0  0  0  0  0  0
  188.9790  176.4060  146.3610 N   0  0  0  0  0  0  0  0  0  0  0  0
  191.6500  176.4830  148.6500 C   0  0  0  0  0  3  0  0  0  0  0  0
  190.3620  173.2780  144.6700 C   0  0  0  0  0  2  0  0  0  0  0  0
  190.7000  176.1360  147.7080 C   0  0  0  0  0  0  0  0  0  0  0  0
  189.6240  178.2900  147.8260 C   0  0  0  0  0  3  0  0  0  0  0  0
  190.2710  176.0670  143.3300 C   0  0  2  0  0  3  0  0  0  0  0  0
  190.2100  177.6020  143.3490 C   0  0  1  0  0  3  0  0  0  0  0  0
  189.7170  176.9990  147.3140 C   0  0  0  0  0  0  0  0  0  0  0  0
  190.6190  174.9750  147.0480 N   0  0  0  0  0  0  0  0  0  0  0  0
  185.1500  177.7990  144.4820 C   0  0  0  0  0  2  0  0  0  0  0  0
  190.8500  175.5060  142.0170 C   0  0  0  0  0  2  0  0  0  0  0  0
  192.2070  173.7560  143.0340 O   0  0  0  0  0  0  0  0  0  0  0  0
  190.5560  178.6660  148.8360 C   0  0  0  0  0  3  0  0  0  0  0  0
  186.5540  176.7910  146.3510 C   0  0  0  0  0  2  0  0  0  0  0  0
  188.0900  177.3240  141.9190 C   0  0  0  0  0  2  0  0  0  0  0  0
  185.5740  178.6650  142.1340 C   0  0  0  0  0  1  0  0  0  0  0  0
  191.5660  177.7560  149.2380 C   0  0  0  0  0  3  0  0  0  0  0  0
  187.7600  176.1970  144.1990 C   0  0  2  0  0  3  0  0  0  0  0  0
  189.2850  174.3590  144.9880 C   0  0  2  0  0  3  0  0  0  0  0  0
  191.4980  178.1230  143.2210 O   0  0  0  0  0  1  0  0  0  0  0  0
  188.9920  175.3100  143.8120 C   0  0  2  0  0  3  0  0  0  0  0  0
  191.1500  174.0100  142.1380 C   0  0  0  0  0  2  0  0  0  0  0  0
  192.7700  173.2750  145.3130 C   0  0  0  0  0  1  0  0  0  0  0  0
  186.0510  177.7880  143.2490 C   0  0  0  0  0  0  0  0  0  0  0  0
  187.2350  177.1220  143.1270 C   0  0  0  0  0  0  0  0  0  0  0  0
  191.7530  173.8740  144.3700 C   0  0  2  0  0  3  0  0  0  0  0  0
  1 18  1  1  0  0  0
  1  5  1  0  0  0  0
  2 18  1  0  0  0  0
  3 11  1  0  0  0  0
  4  5  1  0  0  0  0
  4 13  2  0  0  0  0
  5 12  1  0  0  0  0
  6 21  1  0  0  0  0
  8  6  2  0  0  0  0
  9 17  1  0  0  0  0
 10 15  1  6  0  0  0
 10 11  1  0  0  0  0
 10 25  1  0  0  0  0
 11 24  1  6  0  0  0
 12  8  1  0  0  0  0
 12  9  2  0  0  0  0
 13  8  1  0  0  0  0
 14  2  1  0  0  0  0
 15 26  1  0  0  0  0
 16 30  1  0  0  0  0
 17 21  2  0  0  0  0
 19  3  1  0  0  0  0
 19 29  1  0  0  0  0
 20 28  1  0  0  0  0
 22 29  1  6  0  0  0
 22  1  1  0  0  0  0
 23  7  1  6  0  0  0
 23  4  1  0  0  0  0
 25 22  1  0  0  0  0
 25 23  1  0  0  0  0
 26 16  1  0  0  0  0
 28 14  1  0  0  0  0
 29 28  2  0  0  0  0
 30  7  1  0  0  0  0
 30 27  1  0  0  0  0
M  END
>  <MODEL>
2

>  <REMARK>
 VINA RESULT:      -8.1      2.218      4.997
  Name = 
  0 active torsions:
  status: ('A' for Active; 'I' for Inactive)
                            x       y       z     vdW  Elec       q    Type
                         _______ _______ _______ _____ _____    ______ ____

>  <TORSDO>
F 0

$$$$
=
 OpenBabel11052417203D

 30 35  0  0  1  0  0  0  0  0999 V2000
  188.8290  174.9590  142.8260 C   0  0  2  0  0  3  0  0  0  0  0  0
  188.5120  172.5320  142.0630 C   0  0  0  0  0  2  0  0  0  0  0  0
  192.4330  176.1530  142.3880 C   0  0  0  0  0  2  0  0  0  0  0  0
  188.2490  175.9280  145.0750 C   0  0  0  0  0  0  0  0  0  0  0  0
  188.1540  175.9030  143.7210 N   0  0  0  0  0  0  0  0  0  0  0  0
  186.3190  178.7640  144.6330 C   0  0  0  0  0  3  0  0  0  0  0  0
  189.6690  175.6160  147.2100 C   0  0  0  0  0  2  0  0  0  0  0  0
  187.0610  177.5980  144.6070 C   0  0  0  0  0  0  0  0  0  0  0  0
  187.0260  177.4920  142.1980 C   0  0  0  0  0  3  0  0  0  0  0  0
  191.2880  176.3780  144.6830 C   0  0  2  0  0  3  0  0  0  0  0  0
  191.4330  176.9270  143.2550 C   0  0  1  0  0  3  0  0  0  0  0  0
  187.3970  176.9760  143.4370 C   0  0  0  0  0  0  0  0  0  0  0  0
  187.5660  176.9500  145.6620 N   0  0  0  0  0  0  0  0  0  0  0  0
  189.5760  172.6490  140.9790 C   0  0  0  0  0  2  0  0  0  0  0  0
  192.6010  176.4390  145.4870 C   0  0  0  0  0  2  0  0  0  0  0  0
  191.6100  177.1660  147.5900 O   0  0  0  0  0  0  0  0  0  0  0  0
  186.2180  178.6660  142.1890 C   0  0  0  0  0  3  0  0  0  0  0  0
  187.8400  173.8660  142.3880 C   0  0  0  0  0  2  0  0  0  0  0  0
  192.4840  174.6420  142.7130 C   0  0  0  0  0  2  0  0  0  0  0  0
  192.0440  172.9370  140.4600 C   0  0  0  0  0  1  0  0  0  0  0  0
  185.8730  179.2950  143.4110 C   0  0  0  0  0  3  0  0  0  0  0  0
  190.0680  174.3240  143.5100 C   0  0  2  0  0  3  0  0  0  0  0  0
  189.3160  175.1270  145.7730 C   0  0  2  0  0  3  0  0  0  0  0  0
  191.8130  178.2680  143.3070 O   0  0  0  0  0  1  0  0  0  0  0  0
  190.5350  175.0170  144.8360 C   0  0  2  0  0  3  0  0  0  0  0  0
  192.3580  176.1470  146.9690 C   0  0  0  0  0  2  0  0  0  0  0  0
  189.4030  177.9060  148.1600 C   0  0  0  0  0  1  0  0  0  0  0  0
  190.9220  173.2290  141.4070 C   0  0  0  0  0  0  0  0  0  0  0  0
  191.1460  174.0150  142.4990 C   0  0  0  0  0  0  0  0  0  0  0  0
  190.2430  177.0490  147.2410 C   0  0  2  0  0  3  0  0  0  0  0  0
  1 18  1  1  0  0  0
  1 22  1  0  0  0  0
  1  5  1  0  0  0  0
  2 18  1  0  0  0  0
  3 19  1  0  0  0  0
  3 11  1  0  0  0  0
  4 13  2  0  0  0  0
  4 23  1  0  0  0  0
  5  4  1  0  0  0  0
  7 30  1  0  0  0  0
  8  6  1  0  0  0  0
  8 13  1  0  0  0  0
  9 12  1  0  0  0  0
 10 25  1  0  0  0  0
 10 15  1  6  0  0  0
 11 24  1  1  0  0  0
 11 10  1  0  0  0  0
 12  5  1  0  0  0  0
 12  8  2  0  0  0  0
 14 28  1  0  0  0  0
 14  2  1  0  0  0  0
 15 26  1  0  0  0  0
 17  9  2  0  0  0  0
 17 21  1  0  0  0  0
 20 28  1  0  0  0  0
 21  6  2  0  0  0  0
 22 29  1  6  0  0  0
 22 25  1  0  0  0  0
 23  7  1  1  0  0  0
 25 23  1  0  0  0  0
 26 16  1  0  0  0  0
 28 29  2  0  0  0  0
 29 19  1  0  0  0  0
 30 16  1  0  0  0  0
 30 27  1  0  0  0  0
M  END
>  <MODEL>
3

>  <REMARK>
 VINA RESULT:      -7.9      1.541      5.378
  Name = 
  0 active torsions:
  status: ('A' for Active; 'I' for Inactive)
                            x       y       z     vdW  Elec       q    Type
                         _______ _______ _______ _____ _____    ______ ____

>  <TORSDO>
F 0

$$$$
=
 OpenBabel11052417203D

 30 35  0  0  1  0  0  0  0  0999 V2000
  190.1660  175.4970  145.5940 C   0  0  2  0  0  3  0  0  0  0  0  0
  188.8810  174.6190  147.6320 C   0  0  0  0  0  2  0  0  0  0  0  0
  188.0300  177.8070  143.4240 C   0  0  0  0  0  2  0  0  0  0  0  0
  191.3560  174.1270  143.8490 C   0  0  0  0  0  0  0  0  0  0  0  0
  191.3320  175.0950  144.8020 N   0  0  0  0  0  0  0  0  0  0  0  0
  194.5860  175.3060  143.4810 C   0  0  0  0  0  3  0  0  0  0  0  0
  190.1780  172.8770  141.9200 C   0  0  0  0  0  2  0  0  0  0  0  0
  193.2860  174.9590  143.7940 C   0  0  0  0  0  0  0  0  0  0  0  0
  193.0990  176.6950  145.4570 C   0  0  0  0  0  3  0  0  0  0  0  0
  189.2130  175.7870  142.3510 C   0  0  2  0  0  3  0  0  0  0  0  0
  189.3460  177.2130  142.9070 C   0  0  1  0  0  3  0  0  0  0  0  0
  192.5680  175.6190  144.7520 C   0  0  0  0  0  0  0  0  0  0  0  0
  192.5570  173.9970  143.2190 N   0  0  0  0  0  0  0  0  0  0  0  0
  188.0480  175.8890  147.7530 C   0  0  0  0  0  2  0  0  0  0  0  0
  188.2650  175.7010  141.1390 C   0  0  0  0  0  2  0  0  0  0  0  0
  189.6220  174.1570  139.8310 O   0  0  0  0  0  0  0  0  0  0  0  0
  194.4540  177.0500  145.1950 C   0  0  0  0  0  3  0  0  0  0  0  0
  190.2480  174.8610  146.9920 C   0  0  0  0  0  2  0  0  0  0  0  0
  187.0850  176.7530  144.0430 C   0  0  0  0  0  2  0  0  0  0  0  0
  186.2470  177.3450  146.7130 C   0  0  0  0  0  1  0  0  0  0  0  0
  195.1870  176.3510  144.2030 C   0  0  0  0  0  3  0  0  0  0  0  0
  188.8430  175.0900  144.8920 C   0  0  2  0  0  3  0  0  0  0  0  0
  190.0670  173.5570  143.3190 C   0  0  2  0  0  3  0  0  0  0  0  0
  189.8710  178.0510  141.9230 O   0  0  0  0  0  1  0  0  0  0  0  0
  188.9820  174.6480  143.3960 C   0  0  2  0  0  3  0  0  0  0  0  0
  188.3690  174.3390  140.4500 C   0  0  0  0  0  2  0  0  0  0  0  0
  191.8490  173.3240  140.1250 C   0  0  0  0  0  1  0  0  0  0  0  0
  187.3690  176.3820  146.4770 C   0  0  0  0  0  0  0  0  0  0  0  0
  187.7410  176.0760  145.2020 C   0  0  0  0  0  0  0  0  0  0  0  0
  190.6060  173.8510  140.8020 C   0  0  2  0  0  3  0  0  0  0  0  0
  1 18  1  1  0  0  0
  2 14  1  0  0  0  0
  3 19  1  0  0  0  0
  4  5  1  0  0  0  0
  5  1  1  0  0  0  0
  6  8  2  0  0  0  0
  6 21  1  0  0  0  0
  8 12  1  0  0  0  0
 10 15  1  6  0  0  0
 10 11  1  0  0  0  0
 10 25  1  0  0  0  0
 11 24  1  6  0  0  0
 11  3  1  0  0  0  0
 12  5  1  0  0  0  0
 12  9  2  0  0  0  0
 13  8  1  0  0  0  0
 13  4  2  0  0  0  0
 16 26  1  0  0  0  0
 16 30  1  0  0  0  0
 17  9  1  0  0  0  0
 18  2  1  0  0  0  0
 19 29  1  0  0  0  0
 21 17  2  0  0  0  0
 22 29  1  6  0  0  0
 22  1  1  0  0  0  0
 23  7  1  6  0  0  0
 23 25  1  0  0  0  0
 23  4  1  0  0  0  0
 25 22  1  0  0  0  0
 26 15  1  0  0  0  0
 27 30  1  0  0  0  0
 28 20  1  0  0  0  0
 28 14  1  0  0  0  0
 29 28  2  0  0  0  0
 30  7  1  0  0  0  0
M  END
>  <MODEL>
4

>  <REMARK>
 VINA RESULT:      -7.7      2.200      5.081
  Name = 
  0 active torsions:
  status: ('A' for Active; 'I' for Inactive)
                            x       y       z     vdW  Elec       q    Type
                         _______ _______ _______ _____ _____    ______ ____

>  <TORSDO>
F 0

$$$$
=
 OpenBabel11052417203D

 30 35  0  0  1  0  0  0  0  0999 V2000
  190.7660  175.4740  143.2770 C   0  0  2  0  0  3  0  0  0  0  0  0
  189.2440  177.5380  143.2930 C   0  0  0  0  0  2  0  0  0  0  0  0
  192.5350  174.9580  146.6250 C   0  0  0  0  0  2  0  0  0  0  0  0
  192.6170  174.9700  141.6480 C   0  0  0  0  0  0  0  0  0  0  0  0
  191.4560  174.6530  142.2790 N   0  0  0  0  0  0  0  0  0  0  0  0
  192.1820  171.7820  140.3780 C   0  0  0  0  0  3  0  0  0  0  0  0
  194.9590  176.0560  141.7170 C   0  0  0  0  0  2  0  0  0  0  0  0
  192.1660  173.0330  140.9660 C   0  0  0  0  0  0  0  0  0  0  0  0
  190.1480  172.5570  142.1980 C   0  0  0  0  0  3  0  0  0  0  0  0
  193.9200  175.0580  144.4570 C   0  0  2  0  0  3  0  0  0  0  0  0
  192.9920  174.2270  145.3580 C   0  0  1  0  0  3  0  0  0  0  0  0
  191.1840  173.4140  141.8370 C   0  0  0  0  0  0  0  0  0  0  0  0
  193.0760  174.0000  140.8080 N   0  0  0  0  0  0  0  0  0  0  0  0
  188.9150  177.3830  144.7720 C   0  0  0  0  0  2  0  0  0  0  0  0
  195.2360  175.4530  145.1520 C   0  0  0  0  0  2  0  0  0  0  0  0
  196.6930  175.0620  143.2390 O   0  0  0  0  0  0  0  0  0  0  0  0
  190.1060  171.2770  141.5730 C   0  0  0  0  0  3  0  0  0  0  0  0
  189.5900  176.2120  142.6150 C   0  0  0  0  0  2  0  0  0  0  0  0
  192.3630  176.4810  146.4260 C   0  0  0  0  0  2  0  0  0  0  0  0
  189.7850  177.4800  147.1550 C   0  0  0  0  0  1  0  0  0  0  0  0
  191.1290  170.8990  140.6680 C   0  0  0  0  0  3  0  0  0  0  0  0
  191.7360  176.4880  143.9390 C   0  0  2  0  0  3  0  0  0  0  0  0
  193.4630  176.1100  142.1490 C   0  0  2  0  0  3  0  0  0  0  0  0
  193.6310  173.0400  145.7180 O   0  0  0  0  0  1  0  0  0  0  0  0
  193.2590  176.2370  143.6720 C   0  0  2  0  0  3  0  0  0  0  0  0
  196.2390  176.0330  144.1520 C   0  0  0  0  0  2  0  0  0  0  0  0
  196.3070  174.0510  141.1010 C   0  0  0  0  0  1  0  0  0  0  0  0
  190.1000  177.2020  145.7180 C   0  0  0  0  0  0  0  0  0  0  0  0
  191.3420  176.7590  145.3720 C   0  0  0  0  0  0  0  0  0  0  0  0
  195.7040  174.8160  142.2560 C   0  0  2  0  0  3  0  0  0  0  0  0
  1 18  1  6  0  0  0
  1 22  1  0  0  0  0
  2 14  1  0  0  0  0
  4 23  1  0  0  0  0
  4  5  1  0  0  0  0
  5  1  1  0  0  0  0
  6 21  2  0  0  0  0
  6  8  1  0  0  0  0
  7 30  1  0  0  0  0
  8 12  2  0  0  0  0
 10 15  1  1  0  0  0
 10 11  1  0  0  0  0
 11 24  1  1  0  0  0
 11  3  1  0  0  0  0
 12  9  1  0  0  0  0
 12  5  1  0  0  0  0
 13  8  1  0  0  0  0
 13  4  2  0  0  0  0
 14 28  1  0  0  0  0
 16 26  1  0  0  0  0
 17  9  2  0  0  0  0
 18  2  1  0  0  0  0
 19  3  1  0  0  0  0
 21 17  1  0  0  0  0
 22 29  1  1  0  0  0
 23  7  1  1  0  0  0
 23 25  1  0  0  0  0
 25 22  1  0  0  0  0
 25 10  1  0  0  0  0
 26 15  1  0  0  0  0
 27 30  1  0  0  0  0
 28 20  1  0  0  0  0
 29 28  2  0  0  0  0
 29 19  1  0  0  0  0
 30 16  1  0  0  0  0
M  END
>  <MODEL>
5

>  <REMARK>
 VINA RESULT:      -7.5      2.237      3.838
  Name = 
  0 active torsions:
  status: ('A' for Active; 'I' for Inactive)
                            x       y       z     vdW  Elec       q    Type
                         _______ _______ _______ _____ _____    ______ ____

>  <TORSDO>
F 0

$$$$
=
 OpenBabel11052417203D

 30 35  0  0  1  0  0  0  0  0999 V2000
  192.5110  173.2490  144.2000 C   0  0  2  0  0  3  0  0  0  0  0  0
  193.8650  171.3090  145.1880 C   0  0  0  0  0  2  0  0  0  0  0  0
  194.0960  176.6460  144.9460 C   0  0  0  0  0  2  0  0  0  0  0  0
  190.0710  173.7390  144.5770 C   0  0  0  0  0  0  0  0  0  0  0  0
  191.1320  173.4880  143.7660 N   0  0  0  0  0  0  0  0  0  0  0  0
  188.5040  174.1480  141.5210 C   0  0  0  0  0  3  0  0  0  0  0  0
  189.1150  174.8400  146.7090 C   0  0  0  0  0  2  0  0  0  0  0  0
  189.2930  173.9170  142.6310 C   0  0  0  0  0  0  0  0  0  0  0  0
  191.2630  173.5270  141.2970 C   0  0  0  0  0  3  0  0  0  0  0  0
  191.6290  176.2310  145.5560 C   0  0  2  0  0  3  0  0  0  0  0  0
  192.6510  176.5290  144.4480 C   0  0  1  0  0  3  0  0  0  0  0  0
  190.6210  173.6090  142.5290 C   0  0  0  0  0  0  0  0  0  0  0  0
  188.9090  173.9870  143.9110 N   0  0  0  0  0  0  0  0  0  0  0  0
  195.1910  172.0400  145.0110 C   0  0  0  0  0  2  0  0  0  0  0  0
  191.5640  177.3370  146.6260 C   0  0  0  0  0  2  0  0  0  0  0  0
  189.1400  177.3460  146.8740 O   0  0  0  0  0  0  0  0  0  0  0  0
  190.4700  173.7110  140.1280 C   0  0  0  0  0  3  0  0  0  0  0  0
  192.8060  171.7400  144.1730 C   0  0  0  0  0  2  0  0  0  0  0  0
  194.4070  175.7200  146.1430 C   0  0  0  0  0  2  0  0  0  0  0  0
  196.6470  173.9870  145.7420 C   0  0  0  0  0  1  0  0  0  0  0  0
  189.0920  174.0240  140.2510 C   0  0  0  0  0  3  0  0  0  0  0  0
  192.7610  173.8240  145.6190 C   0  0  2  0  0  3  0  0  0  0  0  0
  190.2930  174.0790  146.0270 C   0  0  2  0  0  3  0  0  0  0  0  0
  192.2960  177.7070  143.7900 O   0  0  0  0  0  1  0  0  0  0  0  0
  191.6530  174.7900  146.1600 C   0  0  2  0  0  3  0  0  0  0  0  0
  190.3590  177.1450  147.5500 C   0  0  0  0  0  2  0  0  0  0  0  0
  187.3900  176.2810  145.6310 C   0  0  0  0  0  1  0  0  0  0  0  0
  195.2560  173.4690  145.5430 C   0  0  0  0  0  0  0  0  0  0  0  0
  194.1900  174.2900  145.7700 C   0  0  0  0  0  0  0  0  0  0  0  0
  188.8330  176.2180  146.0750 C   0  0  2  0  0  3  0  0  0  0  0  0
  1 18  1  1  0  0  0
  1 22  1  0  0  0  0
  3 19  1  0  0  0  0
  4 23  1  0  0  0  0
  5  1  1  0  0  0  0
  5  4  1  0  0  0  0
  6  8  1  0  0  0  0
  8 13  1  0  0  0  0
  9 12  1  0  0  0  0
 10 25  1  0  0  0  0
 10 15  1  1  0  0  0
 11 24  1  1  0  0  0
 11  3  1  0  0  0  0
 11 10  1  0  0  0  0
 12  8  2  0  0  0  0
 12  5  1  0  0  0  0
 13  4  2  0  0  0  0
 14  2  1  0  0  0  0
 14 28  1  0  0  0  0
 15 26  1  0  0  0  0
 16 26  1  0  0  0  0
 17 21  1  0  0  0  0
 17  9  2  0  0  0  0
 18  2  1  0  0  0  0
 21  6  2  0  0  0  0
 22 29  1  6  0  0  0
 22 25  1  0  0  0  0
 23 25  1  0  0  0  0
 23  7  1  6  0  0  0
 27 30  1  0  0  0  0
 28 20  1  0  0  0  0
 28 29  2  0  0  0  0
 29 19  1  0  0  0  0
 30  7  1  0  0  0  0
 30 16  1  0  0  0  0
M  END
>  <MODEL>
6

>  <REMARK>
 VINA RESULT:      -7.4      2.191      5.948
  Name = 
  0 active torsions:
  status: ('A' for Active; 'I' for Inactive)
                            x       y       z     vdW  Elec       q    Type
                         _______ _______ _______ _____ _____    ______ ____

>  <TORSDO>
F 0

$$$$
=
 OpenBabel11052417203D

 30 35  0  0  1  0  0  0  0  0999 V2000
  189.7020  175.7630  145.9400 C   0  0  2  0  0  3  0  0  0  0  0  0
  187.6990  175.6950  147.5400 C   0  0  0  0  0  2  0  0  0  0  0  0
  188.9540  177.7670  142.7730 C   0  0  0  0  0  2  0  0  0  0  0  0
  190.9600  173.7950  145.0040 C   0  0  0  0  0  0  0  0  0  0  0  0
  190.9060  174.9670  145.6880 N   0  0  0  0  0  0  0  0  0  0  0  0
  194.3460  174.2400  145.5520 C   0  0  0  0  0  3  0  0  0  0  0  0
  190.1200  172.3140  143.0620 C   0  0  0  0  0  2  0  0  0  0  0  0
  192.9670  174.2250  145.4590 C   0  0  0  0  0  0  0  0  0  0  0  0
  192.7510  176.3410  146.5960 C   0  0  0  0  0  3  0  0  0  0  0  0
  189.8440  175.3590  142.5750 C   0  0  2  0  0  3  0  0  0  0  0  0
  190.1670  176.8340  142.8620 C   0  0  1  0  0  3  0  0  0  0  0  0
  192.1930  175.2300  145.9680 C   0  0  0  0  0  0  0  0  0  0  0  0
  192.2180  173.2920  144.8620 N   0  0  0  0  0  0  0  0  0  0  0  0
  187.2180  177.0800  147.1240 C   0  0  0  0  0  2  0  0  0  0  0  0
  189.3020  175.1290  141.1510 C   0  0  0  0  0  2  0  0  0  0  0  0
  190.5420  173.0800  140.7070 O   0  0  0  0  0  0  0  0  0  0  0  0
  194.1670  176.3660  146.7530 C   0  0  0  0  0  3  0  0  0  0  0  0
  189.2080  175.5120  147.3750 C   0  0  0  0  0  2  0  0  0  0  0  0
  187.6330  177.0990  143.2170 C   0  0  0  0  0  2  0  0  0  0  0  0
  186.2320  178.5090  145.2730 C   0  0  0  0  0  1  0  0  0  0  0  0
  194.9550  175.3120  146.2240 C   0  0  0  0  0  3  0  0  0  0  0  0
  188.5840  175.4300  144.9180 C   0  0  2  0  0  3  0  0  0  0  0  0
  189.7820  173.3450  144.1810 C   0  0  2  0  0  3  0  0  0  0  0  0
  191.1510  177.2770  141.9790 O   0  0  0  0  0  1  0  0  0  0  0  0
  189.0360  174.5940  143.6730 C   0  0  2  0  0  3  0  0  0  0  0  0
  189.2530  173.6380  140.8110 C   0  0  0  0  0  2  0  0  0  0  0  0
  192.2980  171.9690  141.9000 C   0  0  0  0  0  1  0  0  0  0  0  0
  187.0900  177.3340  145.6240 C   0  0  0  0  0  0  0  0  0  0  0  0
  187.7280  176.6430  144.6370 C   0  0  0  0  0  0  0  0  0  0  0  0
  191.0880  172.8680  141.9960 C   0  0  2  0  0  3  0  0  0  0  0  0
  1 18  1  1  0  0  0
  3 11  1  0  0  0  0
  3 19  1  0  0  0  0
  4  5  1  0  0  0  0
  5  1  1  0  0  0  0
  5 12  1  0  0  0  0
  6 21  1  0  0  0  0
  8  6  2  0  0  0  0
  8 12  1  0  0  0  0
  9 17  1  0  0  0  0
 10 15  1  6  0  0  0
 10 11  1  0  0  0  0
 10 25  1  0  0  0  0
 11 24  1  6  0  0  0
 12  9  2  0  0  0  0
 13  4  2  0  0  0  0
 13  8  1  0  0  0  0
 14  2  1  0  0  0  0
 16 26  1  0  0  0  0
 16 30  1  0  0  0  0
 18  2  1  0  0  0  0
 19 29  1  0  0  0  0
 20 28  1  0  0  0  0
 21 17  2  0  0  0  0
 22 29  1  6  0  0  0
 22  1  1  0  0  0  0
 23  7  1  6  0  0  0
 23  4  1  0  0  0  0
 25 23  1  0  0  0  0
 25 22  1  0  0  0  0
 26 15  1  0  0  0  0
 27 30  1  0  0  0  0
 28 14  1  0  0  0  0
 29 28  2  0  0  0  0
 30  7  1  0  0  0  0
M  END
>  <MODEL>
7

>  <REMARK>
 VINA RESULT:      -7.4      2.192      5.046
  Name = 
  0 active torsions:
  status: ('A' for Active; 'I' for Inactive)
                            x       y       z     vdW  Elec       q    Type
                         _______ _______ _______ _____ _____    ______ ____

>  <TORSDO>
F 0

$$$$
=
 OpenBabel11052417203D

 30 35  0  0  1  0  0  0  0  0999 V2000
  192.7960  175.1580  144.0360 C   0  0  2  0  0  3  0  0  0  0  0  0
  194.9670  175.4910  142.7130 C   0  0  0  0  0  2  0  0  0  0  0  0
  191.5750  171.5390  143.9210 C   0  0  0  0  0  2  0  0  0  0  0  0
  190.6400  176.4250  143.7520 C   0  0  0  0  0  0  0  0  0  0  0  0
  191.6830  175.9880  144.5050 N   0  0  0  0  0  0  0  0  0  0  0  0
  189.6000  177.6110  146.8300 C   0  0  0  0  0  3  0  0  0  0  0  0
  188.9390  176.0050  141.8550 C   0  0  0  0  0  2  0  0  0  0  0  0
  190.1940  177.0890  145.6960 C   0  0  0  0  0  0  0  0  0  0  0  0
  192.0580  176.1990  146.9390 C   0  0  0  0  0  3  0  0  0  0  0  0
  189.9790  173.4420  143.2440 C   0  0  2  0  0  3  0  0  0  0  0  0
  190.6610  172.6770  144.3890 C   0  0  1  0  0  3  0  0  0  0  0  0
  191.3820  176.4160  145.7420 C   0  0  0  0  0  0  0  0  0  0  0  0
  189.7080  177.1310  144.4510 N   0  0  0  0  0  0  0  0  0  0  0  0
  195.4640  174.0830  143.0200 C   0  0  0  0  0  2  0  0  0  0  0  0
  189.0550  172.5500  142.3930 C   0  0  0  0  0  2  0  0  0  0  0  0
  187.2500  174.1690  142.1480 O   0  0  0  0  0  0  0  0  0  0  0  0
  191.5000  176.7660  148.1220 C   0  0  0  0  0  3  0  0  0  0  0  0
  194.0300  176.0420  143.7880 C   0  0  0  0  0  2  0  0  0  0  0  0
  192.2770  171.8300  142.5760 C   0  0  0  0  0  2  0  0  0  0  0  0
  195.1260  171.5940  142.6580 C   0  0  0  0  0  1  0  0  0  0  0  0
  190.2700  177.4670  148.0560 C   0  0  0  0  0  3  0  0  0  0  0  0
  192.4170  174.3850  142.7450 C   0  0  2  0  0  3  0  0  0  0  0  0
  190.3940  175.8370  142.3880 C   0  0  2  0  0  3  0  0  0  0  0  0
  189.6910  172.1620  145.2500 O   0  0  0  0  0  1  0  0  0  0  0  0
  190.8910  174.3790  142.3880 C   0  0  2  0  0  3  0  0  0  0  0  0
  188.1910  173.3890  141.4480 C   0  0  0  0  0  2  0  0  0  0  0  0
  186.8440  176.2960  143.1750 C   0  0  0  0  0  1  0  0  0  0  0  0
  194.4840  172.9430  142.7570 C   0  0  0  0  0  0  0  0  0  0  0  0
  193.1270  173.0540  142.6830 C   0  0  0  0  0  0  0  0  0  0  0  0
  187.8840  175.2950  142.7280 C   0  0  2  0  0  3  0  0  0  0  0  0
  1 18  1  6  0  0  0
  1  5  1  0  0  0  0
  2 14  1  0  0  0  0
  2 18  1  0  0  0  0
  3 11  1  0  0  0  0
  4 13  2  0  0  0  0
  4  5  1  0  0  0  0
  5 12  1  0  0  0  0
  6 21  1  0  0  0  0
  7 30  1  0  0  0  0
  8 12  1  0  0  0  0
  8  6  2  0  0  0  0
  9 17  1  0  0  0  0
 10 15  1  6  0  0  0
 10 11  1  0  0  0  0
 11 24  1  1  0  0  0
 12  9  2  0  0  0  0
 13  8  1  0  0  0  0
 16 30  1  0  0  0  0
 19 29  1  0  0  0  0
 19  3  1  0  0  0  0
 20 28  1  0  0  0  0
 21 17  2  0  0  0  0
 22 29  1  1  0  0  0
 22  1  1  0  0  0  0
 23  7  1  1  0  0  0
 23  4  1  0  0  0  0
 25 23  1  0  0  0  0
 25 22  1  0  0  0  0
 25 10  1  0  0  0  0
 26 16  1  0  0  0  0
 26 15  1  0  0  0  0
 28 14  1  0  0  0  0
 29 28  2  0  0  0  0
 30 27  1  0  0  0  0
M  END
>  <MODEL>
8

>  <REMARK>
 VINA RESULT:      -7.2      2.151      6.798
  Name = 
  0 active torsions:
  status: ('A' for Active; 'I' for Inactive)
                            x       y       z     vdW  Elec       q    Type
                         _______ _______ _______ _____ _____    ______ ____

>  <TORSDO>
F 0

$$$$
=
 OpenBabel11052417203D

 30 35  0  0  1  0  0  0  0  0999 V2000
  193.1760  175.2540  145.1920 C   0  0  2  0  0  3  0  0  0  0  0  0
  191.9200  176.0670  147.2740 C   0  0  0  0  0  2  0  0  0  0  0  0
  190.8020  174.2730  142.3630 C   0  0  0  0  0  2  0  0  0  0  0  0
  194.8830  173.4080  145.0790 C   0  0  0  0  0  0  0  0  0  0  0  0
  194.4940  174.6940  144.8810 N   0  0  0  0  0  0  0  0  0  0  0  0
  197.7220  174.5760  143.4850 C   0  0  0  0  0  3  0  0  0  0  0  0
  194.3120  170.8890  145.0830 C   0  0  0  0  0  2  0  0  0  0  0  0
  196.5260  174.3080  144.1240 C   0  0  0  0  0  0  0  0  0  0  0  0
  195.6970  176.5430  143.7620 C   0  0  0  0  0  3  0  0  0  0  0  0
  192.5860  172.5990  143.1650 C   0  0  2  0  0  3  0  0  0  0  0  0
  192.2790  173.8630  142.3460 C   0  0  1  0  0  3  0  0  0  0  0  0
  195.5500  175.2540  144.2680 C   0  0  0  0  0  0  0  0  0  0  0  0
  196.1450  173.1360  144.6440 N   0  0  0  0  0  0  0  0  0  0  0  0
  190.7790  176.6570  146.4530 C   0  0  0  0  0  2  0  0  0  0  0  0
  191.8490  171.3510  142.6420 C   0  0  0  0  0  2  0  0  0  0  0  0
  193.7070  169.7980  142.9030 O   0  0  0  0  0  0  0  0  0  0  0  0
  196.9370  176.8690  143.1400 C   0  0  0  0  0  3  0  0  0  0  0  0
  193.2470  176.0340  146.5160 C   0  0  0  0  0  2  0  0  0  0  0  0
  190.0900  173.9460  143.6950 C   0  0  0  0  0  2  0  0  0  0  0  0
  188.8070  176.1850  144.9260 C   0  0  0  0  0  1  0  0  0  0  0  0
  197.9410  175.8780  143.0050 C   0  0  0  0  0  3  0  0  0  0  0  0
  192.0990  174.1410  145.2780 C   0  0  2  0  0  3  0  0  0  0  0  0
  193.8600  172.3490  145.3910 C   0  0  2  0  0  3  0  0  0  0  0  0
  192.6880  173.6760  141.0260 O   0  0  0  0  0  1  0  0  0  0  0  0
  192.5300  172.7420  144.7200 C   0  0  2  0  0  3  0  0  0  0  0  0
  192.3840  170.0760  143.2970 C   0  0  0  0  0  2  0  0  0  0  0  0
  196.0200  170.1280  143.4340 C   0  0  0  0  0  1  0  0  0  0  0  0
  190.1590  175.7460  145.3970 C   0  0  0  0  0  0  0  0  0  0  0  0
  190.7510  174.6560  144.8300 C   0  0  0  0  0  0  0  0  0  0  0  0
  194.6100  170.6460  143.5880 C   0  0  2  0  0  3  0  0  0  0  0  0
  1 22  1  0  0  0  0
  1 18  1  1  0  0  0
  3 19  1  0  0  0  0
  4 23  1  0  0  0  0
  5  4  1  0  0  0  0
  5  1  1  0  0  0  0
  6  8  1  0  0  0  0
  8 12  2  0  0  0  0
  8 13  1  0  0  0  0
  9 12  1  0  0  0  0
 10 15  1  6  0  0  0
 10 25  1  0  0  0  0
 11 24  1  6  0  0  0
 11  3  1  0  0  0  0
 11 10  1  0  0  0  0
 12  5  1  0  0  0  0
 13  4  2  0  0  0  0
 14  2  1  0  0  0  0
 15 26  1  0  0  0  0
 16 26  1  0  0  0  0
 16 30  1  0  0  0  0
 17  9  2  0  0  0  0
 18  2  1  0  0  0  0
 19 29  1  0  0  0  0
 20 28  1  0  0  0  0
 21 17  1  0  0  0  0
 21  6  2  0  0  0  0
 22 29  1  6  0  0  0
 23  7  1  6  0  0  0
 25 22  1  0  0  0  0
 25 23  1  0  0  0  0
 27 30  1  0  0  0  0
 28 14  1  0  0  0  0
 29 28  2  0  0  0  0
 30  7  1  0  0  0  0
M  END
>  <MODEL>
9

>  <REMARK>
 VINA RESULT:      -7.2      3.475      6.571
  Name = 
  0 active torsions:
  status: ('A' for Active; 'I' for Inactive)
                            x       y       z     vdW  Elec       q    Type
                         _______ _______ _______ _____ _____    ______ ____

>  <TORSDO>
F 0

$$$$
