=
 OpenBabel11052421003D

 43 48  0  0  1  0  0  0  0  0999 V2000
  189.4290  172.3750  139.6050 C   0  0  0  0  0  0  0  0  0  0  0  0
  188.3410  176.2210  142.7220 C   0  0  0  0  0  0  0  0  0  0  0  0
  189.8040  175.7070  145.0400 C   0  0  0  0  0  0  0  0  0  0  0  0
  188.5480  174.4170  140.5670 C   0  0  0  0  0  0  0  0  0  0  0  0
  190.1310  172.1170  140.7850 C   0  0  0  0  0  3  0  0  0  0  0  0
  189.5370  171.2590  138.2620 Cl  0  0  0  0  0  0  0  0  0  0  0  0
  189.2570  174.1620  141.7650 C   0  0  0  0  0  0  0  0  0  0  0  0
  188.6400  173.5230  139.4950 C   0  0  0  0  0  3  0  0  0  0  0  0
  190.0470  173.0060  141.8600 C   0  0  0  0  0  3  0  0  0  0  0  0
  189.8570  174.8490  143.9860 N   0  0  0  0  0  0  0  0  0  0  0  0
  189.1600  175.0690  142.8380 C   0  0  0  0  0  0  0  0  0  0  0  0
  187.6610  176.4540  141.5170 C   0  0  0  0  0  3  0  0  0  0  0  0
  188.2550  177.1130  143.8210 C   0  0  0  0  0  0  0  0  0  0  0  0
  189.0040  176.8450  144.9690 C   0  0  0  0  0  3  0  0  0  0  0  0
  187.7620  175.5610  140.4510 C   0  0  0  0  0  3  0  0  0  0  0  0
  190.5870  175.4330  146.2840 C   0  0  1  0  0  3  0  0  0  0  0  0
  191.9240  174.7960  145.9450 C   0  0  0  0  0  2  0  0  0  0  0  0
  190.8870  176.7300  147.0220 C   0  0  0  0  0  2  0  0  0  0  0  0
  192.9560  175.8860  146.1190 C   0  0  1  0  0  3  0  0  0  0  0  0
  192.3920  176.8050  147.1800 C   0  0  0  0  0  2  0  0  0  0  0  0
  194.2780  175.2900  146.5700 C   0  0  0  0  0  2  0  0  0  0  0  0
  195.2800  175.4280  145.5130 N   0  0  0  0  0  0  0  0  0  0  0  0
  196.2340  174.3810  143.6010 C   0  0  0  0  0  2  0  0  0  0  0  0
  194.6540  176.0430  144.3520 C   0  0  0  0  0  2  0  0  0  0  0  0
  195.8180  174.1410  145.0400 C   0  0  1  0  0  0  0  0  0  0  0  0
  197.0430  173.7760  145.8630 C   0  0  0  0  0  1  0  0  0  0  0  0
  195.3960  175.5490  143.1260 C   0  0  0  0  0  2  0  0  0  0  0  0
  194.7830  172.9960  145.0810 C   0  0  0  0  0  2  0  0  0  0  0  0
  194.8410  172.1670  143.8760 N   0  0  0  0  0  0  0  0  0  0  0  0
  194.3060  170.0250  145.0290 C   0  0  0  0  0  2  0  0  0  0  0  0
  192.5300  171.2660  144.1000 C   0  0  0  0  0  2  0  0  0  0  0  0
  193.0620  169.9200  144.2770 N   0  0  0  0  0  2  0  0  0  0  0  0
  193.5060  172.1020  143.2640 C   0  0  0  0  0  2  0  0  0  0  0  0
  195.3340  170.8260  144.2230 C   0  0  0  0  0  2  0  0  0  0  0  0
  187.4420  178.2990  143.8320 N   0  0  0  0  0  2  0  0  0  0  0  0
  186.0270  178.3830  144.1700 C   0  0  1  0  0  3  0  0  0  0  0  0
  185.1970  178.6720  142.9300 C   0  0  0  0  0  1  0  0  0  0  0  0
  185.5650  177.1070  144.8730 C   0  0  0  0  0  2  0  0  0  0  0  0
  184.9990  177.3630  146.2690 C   0  0  2  0  0  3  0  0  0  0  0  0
  184.2910  178.5660  146.2880 O   0  0  0  0  0  1  0  0  0  0  0  0
  186.3090  178.5650  148.0290 O   0  0  0  0  0  1  0  0  0  0  0  0
  186.8400  176.4150  147.4400 O   0  0  0  0  0  0  0  0  0  0  0  0
  186.1020  177.4190  147.2690 C   0  0  0  0  0  0  0  0  0  0  0  0
  1  5  1  0  0  0  0
  2 11  1  0  0  0  0
  2 13  1  0  0  0  0
  4  7  1  0  0  0  0
  5  9  2  0  0  0  0
  6  1  1  0  0  0  0
  7  9  1  0  0  0  0
  7 11  2  0  0  0  0
  8  1  2  0  0  0  0
  8  4  1  0  0  0  0
 10  3  2  0  0  0  0
 11 10  1  0  0  0  0
 12  2  2  0  0  0  0
 13 35  1  0  0  0  0
 13 14  2  0  0  0  0
 14  3  1  0  0  0  0
 15  4  2  0  0  0  0
 15 12  1  0  0  0  0
 16  3  1  6  0  0  0
 16 18  1  0  0  0  0
 17 19  1  0  0  0  0
 17 16  1  0  0  0  0
 18 20  1  0  0  0  0
 19 21  1  1  0  0  0
 19 20  1  0  0  0  0
 22 21  1  0  0  0  0
 23 25  1  0  0  0  0
 24 22  1  0  0  0  0
 25 28  1  0  0  0  0
 25 22  1  0  0  0  0
 25 26  1  1  0  0  0
 27 23  1  0  0  0  0
 27 24  1  0  0  0  0
 29 34  1  0  0  0  0
 29 28  1  0  0  0  0
 31 32  1  0  0  0  0
 32 30  1  0  0  0  0
 33 29  1  0  0  0  0
 33 31  1  0  0  0  0
 34 30  1  0  0  0  0
 35 36  1  0  0  0  0
 36 37  1  6  0  0  0
 36 38  1  0  0  0  0
 38 39  1  0  0  0  0
 39 40  1  6  0  0  0
 39 43  1  0  0  0  0
 43 42  2  0  0  0  0
 43 41  1  0  0  0  0
M  END
>  <MODEL>
1

>  <REMARK>
 VINA RESULT:      -7.6      0.000      0.000
  Name = 
  10 active torsions:
  status: ('A' for Active; 'I' for Inactive)
    1  A    between atoms: C_1  and  C_9
    2  A    between atoms: C_1  and  N_35
    3  A    between atoms: C_2  and  C_13
    4  A    between atoms: C_3  and  N_4
    5  A    between atoms: C_3  and  C_12
    6  A    between atoms: C_9  and  C_32
    7  A    between atoms: N_11  and  C_14
    8  A    between atoms: C_14  and  C_22
    9  A    between atoms: C_32  and  C_37
   10  A    between atoms: C_34  and  N_35
                            x       y       z     vdW  Elec       q    Type
                         _______ _______ _______ _____ _____    ______ ____

>  <TORSDO>
F 10

$$$$
=
 OpenBabel11052421003D

 43 48  0  0  1  0  0  0  0  0999 V2000
  191.0460  176.9640  147.8910 C   0  0  0  0  0  0  0  0  0  0  0  0
  188.2720  176.3710  143.6890 C   0  0  0  0  0  0  0  0  0  0  0  0
  189.5400  174.3320  142.2700 C   0  0  0  0  0  0  0  0  0  0  0  0
  189.3480  177.1560  146.1730 C   0  0  0  0  0  0  0  0  0  0  0  0
  191.6850  175.9650  147.1510 C   0  0  0  0  0  3  0  0  0  0  0  0
  191.7070  177.4720  149.4290 Cl  0  0  0  0  0  0  0  0  0  0  0  0
  189.9900  176.1460  145.4190 C   0  0  0  0  0  0  0  0  0  0  0  0
  189.8780  177.5580  147.4030 C   0  0  0  0  0  3  0  0  0  0  0  0
  191.1610  175.5560  145.9220 C   0  0  0  0  0  3  0  0  0  0  0  0
  190.0400  174.7570  143.4610 N   0  0  0  0  0  0  0  0  0  0  0  0
  189.4470  175.7470  144.1830 C   0  0  0  0  0  0  0  0  0  0  0  0
  187.6500  177.3610  144.4650 C   0  0  0  0  0  3  0  0  0  0  0  0
  187.7520  175.9560  142.4370 C   0  0  0  0  0  0  0  0  0  0  0  0
  188.3930  174.9250  141.7460 C   0  0  0  0  0  3  0  0  0  0  0  0
  188.1820  177.7510  145.6940 C   0  0  0  0  0  3  0  0  0  0  0  0
  190.2180  173.2400  141.5070 C   0  0  1  0  0  3  0  0  0  0  0  0
  191.7130  173.2440  141.7810 C   0  0  0  0  0  2  0  0  0  0  0  0
  189.6910  171.8790  141.9410 C   0  0  0  0  0  2  0  0  0  0  0  0
  191.9650  172.0840  142.7150 C   0  0  1  0  0  3  0  0  0  0  0  0
  190.8900  171.0700  142.3910 C   0  0  0  0  0  2  0  0  0  0  0  0
  193.3460  171.5030  142.4690 C   0  0  0  0  0  2  0  0  0  0  0  0
  194.1260  171.5160  143.7070 N   0  0  0  0  0  0  0  0  0  0  0  0
  195.6980  172.7580  144.9920 C   0  0  0  0  0  2  0  0  0  0  0  0
  193.3620  172.2090  144.7340 C   0  0  0  0  0  2  0  0  0  0  0  0
  195.3980  172.2510  143.5940 C   0  0  1  0  0  0  0  0  0  0  0  0
  196.4940  171.2910  143.1610 C   0  0  0  0  0  1  0  0  0  0  0  0
  194.3590  172.8320  145.6920 C   0  0  0  0  0  2  0  0  0  0  0  0
  195.3240  173.4520  142.6260 C   0  0  0  0  0  2  0  0  0  0  0  0
  195.7350  174.6980  143.2750 N   0  0  0  0  0  0  0  0  0  0  0  0
  196.7130  175.7250  141.2270 C   0  0  0  0  0  2  0  0  0  0  0  0
  194.4600  176.1910  141.7430 C   0  0  0  0  0  2  0  0  0  0  0  0
  195.7050  176.7780  141.2630 N   0  0  0  0  0  2  0  0  0  0  0  0
  194.6470  175.6810  143.1770 C   0  0  0  0  0  2  0  0  0  0  0  0
  196.9640  175.2000  142.6440 C   0  0  0  0  0  2  0  0  0  0  0  0
  186.5840  176.5270  141.8240 N   0  0  0  0  0  2  0  0  0  0  0  0
  186.5400  177.6900  140.9460 C   0  0  1  0  0  3  0  0  0  0  0  0
  186.4350  177.2580  139.4920 C   0  0  0  0  0  1  0  0  0  0  0  0
  185.3940  178.6200  141.3420 C   0  0  0  0  0  2  0  0  0  0  0  0
  184.5480  178.0730  142.4910 C   0  0  2  0  0  3  0  0  0  0  0  0
  183.2050  178.0150  142.1150 O   0  0  0  0  0  1  0  0  0  0  0  0
  183.9550  178.6830  144.8440 O   0  0  0  0  0  1  0  0  0  0  0  0
  185.4980  179.9070  143.6720 O   0  0  0  0  0  0  0  0  0  0  0  0
  184.6910  178.9430  143.6930 C   0  0  0  0  0  0  0  0  0  0  0  0
  1  6  1  0  0  0  0
  2 11  1  0  0  0  0
  2 12  1  0  0  0  0
  3 10  1  0  0  0  0
  4  8  2  0  0  0  0
  5  1  2  0  0  0  0
  7  9  2  0  0  0  0
  7  4  1  0  0  0  0
  8  1  1  0  0  0  0
  9  5  1  0  0  0  0
 10 11  2  0  0  0  0
 11  7  1  0  0  0  0
 12 15  2  0  0  0  0
 13  2  2  0  0  0  0
 14  3  2  0  0  0  0
 14 13  1  0  0  0  0
 15  4  1  0  0  0  0
 16 17  1  0  0  0  0
 16 18  1  0  0  0  0
 16  3  1  1  0  0  0
 17 19  1  0  0  0  0
 18 20  1  0  0  0  0
 19 21  1  6  0  0  0
 20 19  1  0  0  0  0
 21 22  1  0  0  0  0
 22 24  1  0  0  0  0
 23 27  1  0  0  0  0
 24 27  1  0  0  0  0
 25 26  1  6  0  0  0
 25 22  1  0  0  0  0
 25 23  1  0  0  0  0
 28 29  1  0  0  0  0
 28 25  1  0  0  0  0
 30 32  1  0  0  0  0
 30 34  1  0  0  0  0
 31 33  1  0  0  0  0
 32 31  1  0  0  0  0
 33 29  1  0  0  0  0
 34 29  1  0  0  0  0
 35 13  1  0  0  0  0
 36 37  1  6  0  0  0
 36 38  1  0  0  0  0
 36 35  1  0  0  0  0
 38 39  1  0  0  0  0
 39 40  1  6  0  0  0
 39 43  1  0  0  0  0
 42 43  2  0  0  0  0
 43 41  1  0  0  0  0
M  END
>  <MODEL>
2

>  <REMARK>
 VINA RESULT:      -7.5      2.671      5.262
  Name = 
  10 active torsions:
  status: ('A' for Active; 'I' for Inactive)
    1  A    between atoms: C_1  and  C_9
    2  A    between atoms: C_1  and  N_35
    3  A    between atoms: C_2  and  C_13
    4  A    between atoms: C_3  and  N_4
    5  A    between atoms: C_3  and  C_12
    6  A    between atoms: C_9  and  C_32
    7  A    between atoms: N_11  and  C_14
    8  A    between atoms: C_14  and  C_22
    9  A    between atoms: C_32  and  C_37
   10  A    between atoms: C_34  and  N_35
                            x       y       z     vdW  Elec       q    Type
                         _______ _______ _______ _____ _____    ______ ____

>  <TORSDO>
F 10

$$$$
=
 OpenBabel11052421003D

 43 48  0  0  1  0  0  0  0  0999 V2000
  184.9340  178.1550  145.7500 C   0  0  0  0  0  0  0  0  0  0  0  0
  188.6010  175.4600  143.5160 C   0  0  0  0  0  0  0  0  0  0  0  0
  190.5780  175.1800  145.4630 C   0  0  0  0  0  0  0  0  0  0  0  0
  186.2500  176.8710  144.1730 C   0  0  0  0  0  0  0  0  0  0  0  0
  185.9490  178.0310  146.7030 C   0  0  0  0  0  3  0  0  0  0  0  0
  183.4740  179.0380  146.1370 Cl  0  0  0  0  0  0  0  0  0  0  0  0
  187.2820  176.7410  145.1330 C   0  0  0  0  0  0  0  0  0  0  0  0
  185.0850  177.5750  144.4870 C   0  0  0  0  0  3  0  0  0  0  0  0
  187.1170  177.3270  146.3980 C   0  0  0  0  0  3  0  0  0  0  0  0
  189.4400  175.8740  145.7310 N   0  0  0  0  0  0  0  0  0  0  0  0
  188.4520  176.0280  144.8070 C   0  0  0  0  0  0  0  0  0  0  0  0
  187.5560  175.5940  142.5890 C   0  0  0  0  0  3  0  0  0  0  0  0
  189.7930  174.7550  143.2130 C   0  0  0  0  0  0  0  0  0  0  0  0
  190.7670  174.6150  144.2040 C   0  0  0  0  0  3  0  0  0  0  0  0
  186.3930  176.2920  142.9130 C   0  0  0  0  0  3  0  0  0  0  0  0
  191.6400  175.0300  146.5050 C   0  0  1  0  0  3  0  0  0  0  0  0
  192.9020  174.4380  145.9010 C   0  0  0  0  0  2  0  0  0  0  0  0
  192.0180  176.3870  147.0810 C   0  0  0  0  0  2  0  0  0  0  0  0
  193.8750  175.5860  145.7700 C   0  0  1  0  0  3  0  0  0  0  0  0
  193.5110  176.5460  146.8810 C   0  0  0  0  0  2  0  0  0  0  0  0
  195.3000  175.0860  145.9350 C   0  0  0  0  0  2  0  0  0  0  0  0
  196.0720  175.3550  144.7210 N   0  0  0  0  0  0  0  0  0  0  0  0
  196.6840  174.4980  142.5870 C   0  0  0  0  0  2  0  0  0  0  0  0
  195.2050  176.0080  143.7510 C   0  0  0  0  0  2  0  0  0  0  0  0
  196.5650  174.1370  144.0560 C   0  0  1  0  0  0  0  0  0  0  0  0
  197.9410  173.7910  144.6010 C   0  0  0  0  0  1  0  0  0  0  0  0
  195.7180  175.6430  142.3720 C   0  0  0  0  0  2  0  0  0  0  0  0
  195.6110  172.9320  144.2040 C   0  0  0  0  0  2  0  0  0  0  0  0
  196.3430  171.6820  144.4110 N   0  0  0  0  0  0  0  0  0  0  0  0
  194.5640  170.5800  145.7610 C   0  0  0  0  0  2  0  0  0  0  0  0
  194.5850  170.2150  143.4320 C   0  0  0  0  0  2  0  0  0  0  0  0
  194.3900  169.5700  144.7250 N   0  0  0  0  0  2  0  0  0  0  0  0
  196.0210  170.7410  143.3280 C   0  0  0  0  0  2  0  0  0  0  0  0
  195.9970  171.1190  145.7250 C   0  0  0  0  0  2  0  0  0  0  0  0
  190.0690  174.1560  141.9350 N   0  0  0  0  0  2  0  0  0  0  0  0
  189.7900  172.7820  141.5370 C   0  0  1  0  0  3  0  0  0  0  0  0
  189.2990  171.9710  142.7250 C   0  0  0  0  0  1  0  0  0  0  0  0
  188.7920  172.7480  140.3800 C   0  0  0  0  0  2  0  0  0  0  0  0
  189.3930  172.2010  139.0860 C   0  0  2  0  0  3  0  0  0  0  0  0
  190.4830  171.3780  139.3720 O   0  0  0  0  0  1  0  0  0  0  0  0
  188.9530  173.8870  137.2900 O   0  0  0  0  0  0  0  0  0  0  0  0
  191.0010  173.7740  138.3130 O   0  0  0  0  0  1  0  0  0  0  0  0
  189.8320  173.3230  138.2090 C   0  0  0  0  0  0  0  0  0  0  0  0
  1  6  1  0  0  0  0
  1  5  1  0  0  0  0
  2 11  1  0  0  0  0
  3 10  1  0  0  0  0
  4  8  1  0  0  0  0
  4  7  2  0  0  0  0
  7  9  1  0  0  0  0
  8  1  2  0  0  0  0
  9  5  2  0  0  0  0
 11  7  1  0  0  0  0
 11 10  2  0  0  0  0
 12 15  2  0  0  0  0
 12  2  1  0  0  0  0
 13  2  2  0  0  0  0
 13 14  1  0  0  0  0
 14  3  2  0  0  0  0
 15  4  1  0  0  0  0
 16  3  1  6  0  0  0
 16 18  1  0  0  0  0
 17 16  1  0  0  0  0
 19 17  1  0  0  0  0
 19 21  1  1  0  0  0
 19 20  1  0  0  0  0
 20 18  1  0  0  0  0
 22 21  1  0  0  0  0
 23 25  1  0  0  0  0
 24 22  1  0  0  0  0
 25 28  1  0  0  0  0
 25 26  1  1  0  0  0
 25 22  1  0  0  0  0
 27 23  1  0  0  0  0
 27 24  1  0  0  0  0
 28 29  1  0  0  0  0
 29 34  1  0  0  0  0
 31 32  1  0  0  0  0
 32 30  1  0  0  0  0
 33 31  1  0  0  0  0
 33 29  1  0  0  0  0
 34 30  1  0  0  0  0
 35 13  1  0  0  0  0
 36 35  1  0  0  0  0
 36 37  1  1  0  0  0
 38 36  1  0  0  0  0
 39 40  1  1  0  0  0
 39 38  1  0  0  0  0
 41 43  2  0  0  0  0
 43 42  1  0  0  0  0
 43 39  1  0  0  0  0
M  END
>  <MODEL>
3

>  <REMARK>
 VINA RESULT:      -7.4      3.747      5.616
  Name = 
  10 active torsions:
  status: ('A' for Active; 'I' for Inactive)
    1  A    between atoms: C_1  and  C_9
    2  A    between atoms: C_1  and  N_35
    3  A    between atoms: C_2  and  C_13
    4  A    between atoms: C_3  and  N_4
    5  A    between atoms: C_3  and  C_12
    6  A    between atoms: C_9  and  C_32
    7  A    between atoms: N_11  and  C_14
    8  A    between atoms: C_14  and  C_22
    9  A    between atoms: C_32  and  C_37
   10  A    between atoms: C_34  and  N_35
                            x       y       z     vdW  Elec       q    Type
                         _______ _______ _______ _____ _____    ______ ____

>  <TORSDO>
F 10

$$$$
=
 OpenBabel11052421003D

 43 48  0  0  1  0  0  0  0  0999 V2000
  184.0890  178.4780  143.4800 C   0  0  0  0  0  0  0  0  0  0  0  0
  188.4030  176.3810  145.1220 C   0  0  0  0  0  0  0  0  0  0  0  0
  189.5310  175.1940  142.8650 C   0  0  0  0  0  0  0  0  0  0  0  0
  185.9560  177.7540  144.8430 C   0  0  0  0  0  0  0  0  0  0  0  0
  184.6540  177.8510  142.3660 C   0  0  0  0  0  3  0  0  0  0  0  0
  182.5650  179.3240  143.3270 Cl  0  0  0  0  0  0  0  0  0  0  0  0
  186.5340  177.1160  143.7200 C   0  0  0  0  0  0  0  0  0  0  0  0
  184.7400  178.4300  144.7160 C   0  0  0  0  0  3  0  0  0  0  0  0
  185.8710  177.1740  142.4840 C   0  0  0  0  0  3  0  0  0  0  0  0
  188.3410  175.8440  142.7790 N   0  0  0  0  0  0  0  0  0  0  0  0
  187.7610  176.4390  143.8580 C   0  0  0  0  0  0  0  0  0  0  0  0
  187.8120  177.0330  146.2140 C   0  0  0  0  0  3  0  0  0  0  0  0
  189.6320  175.6850  145.2330 C   0  0  0  0  0  0  0  0  0  0  0  0
  190.1890  175.1060  144.0900 C   0  0  0  0  0  3  0  0  0  0  0  0
  186.6010  177.7120  146.0780 C   0  0  0  0  0  3  0  0  0  0  0  0
  190.1380  174.5550  141.6560 C   0  0  1  0  0  3  0  0  0  0  0  0
  191.6030  174.2360  141.8990 C   0  0  0  0  0  2  0  0  0  0  0  0
  189.4420  173.2380  141.3430 C   0  0  0  0  0  2  0  0  0  0  0  0
  191.6700  172.7430  142.1210 C   0  0  1  0  0  3  0  0  0  0  0  0
  190.5170  172.1700  141.3270 C   0  0  0  0  0  2  0  0  0  0  0  0
  192.9950  172.1970  141.6190 C   0  0  0  0  0  2  0  0  0  0  0  0
  193.6530  171.4240  142.6720 N   0  0  0  0  0  0  0  0  0  0  0  0
  195.2420  171.5260  144.4420 C   0  0  0  0  0  2  0  0  0  0  0  0
  192.8900  171.5670  143.9040 C   0  0  0  0  0  2  0  0  0  0  0  0
  195.0110  171.9000  142.9900 C   0  0  1  0  0  0  0  0  0  0  0  0
  196.0160  171.1660  142.1160 C   0  0  0  0  0  1  0  0  0  0  0  0
  193.8630  171.4170  145.0560 C   0  0  0  0  0  2  0  0  0  0  0  0
  195.1750  173.4270  142.8300 C   0  0  0  0  0  2  0  0  0  0  0  0
  196.4210  173.7700  142.1440 N   0  0  0  0  0  0  0  0  0  0  0  0
  195.7110  176.0660  141.4870 C   0  0  0  0  0  2  0  0  0  0  0  0
  196.8900  175.7980  143.5110 C   0  0  0  0  0  2  0  0  0  0  0  0
  196.7550  176.6390  142.3280 N   0  0  0  0  0  2  0  0  0  0  0  0
  197.3490  174.3950  143.0990 C   0  0  0  0  0  2  0  0  0  0  0  0
  196.1330  174.6700  141.0170 C   0  0  0  0  0  2  0  0  0  0  0  0
  190.3640  175.5380  146.4630 N   0  0  0  0  0  2  0  0  0  0  0  0
  191.4450  176.3890  146.9410 C   0  0  1  0  0  3  0  0  0  0  0  0
  191.0490  177.0810  148.2360 C   0  0  0  0  0  1  0  0  0  0  0  0
  192.7330  175.5830  147.1040 C   0  0  0  0  0  2  0  0  0  0  0  0
  193.4390  175.3060  145.7770 C   0  0  2  0  0  3  0  0  0  0  0  0
  194.6500  174.6500  146.0050 O   0  0  0  0  0  1  0  0  0  0  0  0
  194.5470  177.5410  145.5900 O   0  0  0  0  0  1  0  0  0  0  0  0
  193.1450  176.7890  143.9410 O   0  0  0  0  0  0  0  0  0  0  0  0
  193.6930  176.5830  145.0540 C   0  0  0  0  0  0  0  0  0  0  0  0
  1  8  1  0  0  0  0
  2 13  1  0  0  0  0
  2 12  1  0  0  0  0
  3 14  1  0  0  0  0
  4 15  1  0  0  0  0
  5  9  1  0  0  0  0
  5  1  2  0  0  0  0
  6  1  1  0  0  0  0
  7 11  1  0  0  0  0
  7  4  1  0  0  0  0
  8  4  2  0  0  0  0
  9  7  2  0  0  0  0
 10  3  2  0  0  0  0
 10 11  1  0  0  0  0
 11  2  2  0  0  0  0
 13 35  1  0  0  0  0
 14 13  2  0  0  0  0
 15 12  2  0  0  0  0
 16 17  1  0  0  0  0
 16  3  1  1  0  0  0
 17 19  1  0  0  0  0
 18 16  1  0  0  0  0
 19 21  1  6  0  0  0
 20 18  1  0  0  0  0
 20 19  1  0  0  0  0
 21 22  1  0  0  0  0
 22 25  1  0  0  0  0
 22 24  1  0  0  0  0
 23 27  1  0  0  0  0
 24 27  1  0  0  0  0
 25 26  1  6  0  0  0
 25 23  1  0  0  0  0
 28 25  1  0  0  0  0
 29 28  1  0  0  0  0
 29 33  1  0  0  0  0
 30 32  1  0  0  0  0
 32 31  1  0  0  0  0
 33 31  1  0  0  0  0
 34 30  1  0  0  0  0
 34 29  1  0  0  0  0
 35 36  1  0  0  0  0
 36 38  1  0  0  0  0
 36 37  1  1  0  0  0
 39 40  1  1  0  0  0
 39 38  1  0  0  0  0
 42 43  2  0  0  0  0
 43 41  1  0  0  0  0
 43 39  1  0  0  0  0
M  END
>  <MODEL>
4

>  <REMARK>
 VINA RESULT:      -7.2      3.238      6.189
  Name = 
  10 active torsions:
  status: ('A' for Active; 'I' for Inactive)
    1  A    between atoms: C_1  and  C_9
    2  A    between atoms: C_1  and  N_35
    3  A    between atoms: C_2  and  C_13
    4  A    between atoms: C_3  and  N_4
    5  A    between atoms: C_3  and  C_12
    6  A    between atoms: C_9  and  C_32
    7  A    between atoms: N_11  and  C_14
    8  A    between atoms: C_14  and  C_22
    9  A    between atoms: C_32  and  C_37
   10  A    between atoms: C_34  and  N_35
                            x       y       z     vdW  Elec       q    Type
                         _______ _______ _______ _____ _____    ______ ____

>  <TORSDO>
F 10

$$$$
=
 OpenBabel11052421003D

 43 48  0  0  1  0  0  0  0  0999 V2000
  189.9250  172.9680  139.6090 C   0  0  0  0  0  0  0  0  0  0  0  0
  189.0470  176.0060  143.5710 C   0  0  0  0  0  0  0  0  0  0  0  0
  191.0960  175.4440  145.3780 C   0  0  0  0  0  0  0  0  0  0  0  0
  189.0000  174.6260  141.1130 C   0  0  0  0  0  0  0  0  0  0  0  0
  190.9270  172.6770  140.5390 C   0  0  0  0  0  3  0  0  0  0  0  0
  189.8740  172.1120  138.0840 Cl  0  0  0  0  0  0  0  0  0  0  0  0
  190.0110  174.3370  142.0600 C   0  0  0  0  0  0  0  0  0  0  0  0
  188.9640  173.9420  139.8950 C   0  0  0  0  0  3  0  0  0  0  0  0
  190.9710  173.3590  141.7590 C   0  0  0  0  0  3  0  0  0  0  0  0
  191.0230  174.7840  144.1920 N   0  0  0  0  0  0  0  0  0  0  0  0
  190.0390  175.0340  143.2840 C   0  0  0  0  0  0  0  0  0  0  0  0
  188.0650  176.2800  142.6080 C   0  0  0  0  0  3  0  0  0  0  0  0
  189.0960  176.6860  144.8140 C   0  0  0  0  0  0  0  0  0  0  0  0
  190.1360  176.4000  145.7020 C   0  0  0  0  0  3  0  0  0  0  0  0
  188.0400  175.5970  141.3920 C   0  0  0  0  0  3  0  0  0  0  0  0
  192.1930  175.1440  146.3490 C   0  0  1  0  0  3  0  0  0  0  0  0
  193.1200  174.0760  145.7950 C   0  0  0  0  0  2  0  0  0  0  0  0
  193.0410  176.3840  146.5950 C   0  0  0  0  0  2  0  0  0  0  0  0
  194.3700  174.8010  145.3540 C   0  0  1  0  0  3  0  0  0  0  0  0
  194.4700  176.0090  146.2590 C   0  0  0  0  0  2  0  0  0  0  0  0
  195.5830  173.9020  145.5180 C   0  0  0  0  0  2  0  0  0  0  0  0
  196.2970  173.7820  144.2460 N   0  0  0  0  0  0  0  0  0  0  0  0
  196.6440  172.3920  142.3460 C   0  0  0  0  0  2  0  0  0  0  0  0
  195.4560  174.3170  143.1860 C   0  0  0  0  0  2  0  0  0  0  0  0
  196.5830  172.3880  143.8620 C   0  0  1  0  0  0  0  0  0  0  0  0
  197.9380  171.9840  144.4190 C   0  0  0  0  0  1  0  0  0  0  0  0
  195.8200  173.5840  141.9100 C   0  0  0  0  0  2  0  0  0  0  0  0
  195.4950  171.3940  144.3210 C   0  0  0  0  0  2  0  0  0  0  0  0
  194.9260  170.6520  143.1950 N   0  0  0  0  0  0  0  0  0  0  0  0
  194.4740  168.5680  144.4800 C   0  0  0  0  0  2  0  0  0  0  0  0
  192.7520  170.1680  144.3060 C   0  0  0  0  0  2  0  0  0  0  0  0
  193.0420  168.7390  144.2730 N   0  0  0  0  0  2  0  0  0  0  0  0
  193.4730  170.8700  143.1500 C   0  0  0  0  0  2  0  0  0  0  0  0
  195.2470  169.2240  143.3320 C   0  0  0  0  0  2  0  0  0  0  0  0
  188.1350  177.6730  145.2280 N   0  0  0  0  0  2  0  0  0  0  0  0
  186.8480  177.4240  145.8660 C   0  0  1  0  0  3  0  0  0  0  0  0
  186.9800  176.3490  146.9330 C   0  0  0  0  0  1  0  0  0  0  0  0
  186.2720  178.7190  146.4370 C   0  0  0  0  0  2  0  0  0  0  0  0
  184.8900  179.0580  145.8780 C   0  0  2  0  0  3  0  0  0  0  0  0
  183.9870  178.0360  146.1760 O   0  0  0  0  0  1  0  0  0  0  0  0
  184.1860  178.4620  143.5520 O   0  0  0  0  0  0  0  0  0  0  0  0
  185.7230  180.1220  143.9200 O   0  0  0  0  0  1  0  0  0  0  0  0
  184.9650  179.2420  144.4010 C   0  0  0  0  0  0  0  0  0  0  0  0
  1  8  2  0  0  0  0
  1  5  1  0  0  0  0
  2 13  1  0  0  0  0
  3 14  1  0  0  0  0
  4 15  2  0  0  0  0
  4  7  1  0  0  0  0
  5  9  2  0  0  0  0
  6  1  1  0  0  0  0
  7 11  2  0  0  0  0
  8  4  1  0  0  0  0
  9  7  1  0  0  0  0
 10  3  2  0  0  0  0
 11  2  1  0  0  0  0
 11 10  1  0  0  0  0
 12  2  2  0  0  0  0
 13 35  1  0  0  0  0
 13 14  2  0  0  0  0
 15 12  1  0  0  0  0
 16  3  1  6  0  0  0
 16 18  1  0  0  0  0
 17 16  1  0  0  0  0
 19 21  1  1  0  0  0
 19 17  1  0  0  0  0
 19 20  1  0  0  0  0
 20 18  1  0  0  0  0
 22 21  1  0  0  0  0
 23 25  1  0  0  0  0
 24 22  1  0  0  0  0
 25 22  1  0  0  0  0
 25 28  1  0  0  0  0
 25 26  1  1  0  0  0
 27 23  1  0  0  0  0
 27 24  1  0  0  0  0
 29 34  1  0  0  0  0
 29 28  1  0  0  0  0
 32 31  1  0  0  0  0
 32 30  1  0  0  0  0
 33 29  1  0  0  0  0
 33 31  1  0  0  0  0
 34 30  1  0  0  0  0
 35 36  1  0  0  0  0
 36 38  1  0  0  0  0
 36 37  1  1  0  0  0
 39 40  1  6  0  0  0
 39 38  1  0  0  0  0
 41 43  2  0  0  0  0
 42 43  1  0  0  0  0
 43 39  1  0  0  0  0
M  END
>  <MODEL>
5

>  <REMARK>
 VINA RESULT:      -7.2      1.435      2.133
  Name = 
  10 active torsions:
  status: ('A' for Active; 'I' for Inactive)
    1  A    between atoms: C_1  and  C_9
    2  A    between atoms: C_1  and  N_35
    3  A    between atoms: C_2  and  C_13
    4  A    between atoms: C_3  and  N_4
    5  A    between atoms: C_3  and  C_12
    6  A    between atoms: C_9  and  C_32
    7  A    between atoms: N_11  and  C_14
    8  A    between atoms: C_14  and  C_22
    9  A    between atoms: C_32  and  C_37
   10  A    between atoms: C_34  and  N_35
                            x       y       z     vdW  Elec       q    Type
                         _______ _______ _______ _____ _____    ______ ____

>  <TORSDO>
F 10

$$$$
=
 OpenBabel11052421003D

 43 48  0  0  1  0  0  0  0  0999 V2000
  196.6560  175.6590  136.4580 C   0  0  0  0  0  0  0  0  0  0  0  0
  196.1310  174.1510  141.2690 C   0  0  0  0  0  0  0  0  0  0  0  0
  193.4600  173.3820  141.4960 C   0  0  0  0  0  0  0  0  0  0  0  0
  197.0610  175.0800  138.7750 C   0  0  0  0  0  0  0  0  0  0  0  0
  195.3130  175.2980  136.5980 C   0  0  0  0  0  3  0  0  0  0  0  0
  197.2470  176.2490  134.9200 Cl  0  0  0  0  0  0  0  0  0  0  0  0
  195.7020  174.7130  138.9250 C   0  0  0  0  0  0  0  0  0  0  0  0
  197.5290  175.5490  137.5440 C   0  0  0  0  0  3  0  0  0  0  0  0
  194.8370  174.8260  137.8250 C   0  0  0  0  0  3  0  0  0  0  0  0
  193.9420  173.8580  140.3170 N   0  0  0  0  0  0  0  0  0  0  0  0
  195.2410  174.2400  140.1680 C   0  0  0  0  0  0  0  0  0  0  0  0
  197.4750  174.5090  141.0870 C   0  0  0  0  0  3  0  0  0  0  0  0
  195.6370  173.6790  142.5110 C   0  0  0  0  0  0  0  0  0  0  0  0
  194.3000  173.2870  142.6030 C   0  0  0  0  0  3  0  0  0  0  0  0
  197.9360  174.9700  139.8540 C   0  0  0  0  0  3  0  0  0  0  0  0
  192.0280  172.9700  141.6200 C   0  0  1  0  0  3  0  0  0  0  0  0
  191.4720  173.3700  142.9760 C   0  0  0  0  0  2  0  0  0  0  0  0
  191.1790  173.6690  140.5680 C   0  0  0  0  0  2  0  0  0  0  0  0
  190.5970  174.5750  142.7250 C   0  0  1  0  0  3  0  0  0  0  0  0
  190.0850  174.4090  141.3110 C   0  0  0  0  0  2  0  0  0  0  0  0
  189.4470  174.6040  143.7160 C   0  0  0  0  0  2  0  0  0  0  0  0
  189.9070  175.1110  145.0090 N   0  0  0  0  0  0  0  0  0  0  0  0
  189.2830  176.3780  146.9240 C   0  0  0  0  0  2  0  0  0  0  0  0
  189.5530  174.1480  146.0410 C   0  0  0  0  0  2  0  0  0  0  0  0
  189.2650  176.3750  145.4080 C   0  0  1  0  0  0  0  0  0  0  0  0
  190.0930  177.5420  144.8930 C   0  0  0  0  0  1  0  0  0  0  0  0
  189.3610  174.9220  147.3310 C   0  0  0  0  0  2  0  0  0  0  0  0
  187.8050  176.4980  144.9200 C   0  0  0  0  0  2  0  0  0  0  0  0
  187.5010  177.8500  144.4490 N   0  0  0  0  0  0  0  0  0  0  0  0
  185.6310  177.1690  142.9510 C   0  0  0  0  0  2  0  0  0  0  0  0
  185.1150  177.8150  145.1590 C   0  0  0  0  0  2  0  0  0  0  0  0
  184.6890  177.9240  143.7690 N   0  0  0  0  0  2  0  0  0  0  0  0
  186.4950  178.4600  145.3300 C   0  0  0  0  0  2  0  0  0  0  0  0
  187.0270  177.7920  143.0590 C   0  0  0  0  0  2  0  0  0  0  0  0
  196.4360  173.5660  143.7020 N   0  0  0  0  0  2  0  0  0  0  0  0
  195.9480  173.4510  145.0710 C   0  0  1  0  0  3  0  0  0  0  0  0
  196.7910  172.4580  145.8560 C   0  0  0  0  0  1  0  0  0  0  0  0
  195.9140  174.8200  145.7480 C   0  0  0  0  0  2  0  0  0  0  0  0
  194.8230  175.7360  145.1920 C   0  0  2  0  0  3  0  0  0  0  0  0
  195.3930  176.7470  144.4160 O   0  0  0  0  0  1  0  0  0  0  0  0
  192.8990  175.7220  146.7910 O   0  0  0  0  0  0  0  0  0  0  0  0
  194.4390  177.4190  146.8300 O   0  0  0  0  0  1  0  0  0  0  0  0
  194.0450  176.3440  146.3080 C   0  0  0  0  0  0  0  0  0  0  0  0
  1  5  2  0  0  0  0
  1  8  1  0  0  0  0
  2 13  1  0  0  0  0
  3 14  1  0  0  0  0
  4  7  1  0  0  0  0
  4 15  1  0  0  0  0
  5  9  1  0  0  0  0
  6  1  1  0  0  0  0
  7 11  1  0  0  0  0
  8  4  2  0  0  0  0
  9  7  2  0  0  0  0
 10  3  2  0  0  0  0
 11 10  1  0  0  0  0
 11  2  2  0  0  0  0
 12  2  1  0  0  0  0
 13 14  2  0  0  0  0
 13 35  1  0  0  0  0
 15 12  2  0  0  0  0
 16  3  1  1  0  0  0
 16 17  1  0  0  0  0
 18 20  1  0  0  0  0
 18 16  1  0  0  0  0
 19 17  1  0  0  0  0
 19 21  1  1  0  0  0
 20 19  1  0  0  0  0
 21 22  1  0  0  0  0
 22 25  1  0  0  0  0
 22 24  1  0  0  0  0
 23 27  1  0  0  0  0
 24 27  1  0  0  0  0
 25 26  1  6  0  0  0
 25 23  1  0  0  0  0
 28 25  1  0  0  0  0
 29 28  1  0  0  0  0
 29 33  1  0  0  0  0
 30 34  1  0  0  0  0
 30 32  1  0  0  0  0
 31 33  1  0  0  0  0
 32 31  1  0  0  0  0
 34 29  1  0  0  0  0
 35 36  1  0  0  0  0
 36 38  1  0  0  0  0
 36 37  1  1  0  0  0
 39 40  1  1  0  0  0
 39 38  1  0  0  0  0
 39 43  1  0  0  0  0
 43 41  2  0  0  0  0
 43 42  1  0  0  0  0
M  END
>  <MODEL>
6

>  <REMARK>
 VINA RESULT:      -7.1      3.701      8.497
  Name = 
  10 active torsions:
  status: ('A' for Active; 'I' for Inactive)
    1  A    between atoms: C_1  and  C_9
    2  A    between atoms: C_1  and  N_35
    3  A    between atoms: C_2  and  C_13
    4  A    between atoms: C_3  and  N_4
    5  A    between atoms: C_3  and  C_12
    6  A    between atoms: C_9  and  C_32
    7  A    between atoms: N_11  and  C_14
    8  A    between atoms: C_14  and  C_22
    9  A    between atoms: C_32  and  C_37
   10  A    between atoms: C_34  and  N_35
                            x       y       z     vdW  Elec       q    Type
                         _______ _______ _______ _____ _____    ______ ____

>  <TORSDO>
F 10

$$$$
=
 OpenBabel11052421003D

 43 48  0  0  1  0  0  0  0  0999 V2000
  186.6270  176.0400  136.8610 C   0  0  0  0  0  0  0  0  0  0  0  0
  187.6090  176.3140  141.8270 C   0  0  0  0  0  0  0  0  0  0  0  0
  189.3950  174.2300  142.3240 C   0  0  0  0  0  0  0  0  0  0  0  0
  186.6910  176.7040  139.1910 C   0  0  0  0  0  0  0  0  0  0  0  0
  187.4980  174.9820  137.1350 C   0  0  0  0  0  3  0  0  0  0  0  0
  186.0370  176.2890  135.2330 Cl  0  0  0  0  0  0  0  0  0  0  0  0
  187.5740  175.6340  139.4750 C   0  0  0  0  0  0  0  0  0  0  0  0
  186.2250  176.9000  137.8880 C   0  0  0  0  0  3  0  0  0  0  0  0
  187.9710  174.7800  138.4340 C   0  0  0  0  0  3  0  0  0  0  0  0
  188.9100  174.4380  141.0710 N   0  0  0  0  0  0  0  0  0  0  0  0
  188.0390  175.4460  140.7900 C   0  0  0  0  0  0  0  0  0  0  0  0
  186.7440  177.3730  141.5130 C   0  0  0  0  0  3  0  0  0  0  0  0
  188.0870  176.0960  143.1440 C   0  0  0  0  0  0  0  0  0  0  0  0
  188.9900  175.0550  143.3720 C   0  0  0  0  0  3  0  0  0  0  0  0
  186.2880  177.5660  140.2090 C   0  0  0  0  0  3  0  0  0  0  0  0
  190.3520  173.1130  142.5940 C   0  0  1  0  0  3  0  0  0  0  0  0
  191.6920  173.6570  143.0590 C   0  0  0  0  0  2  0  0  0  0  0  0
  189.8260  172.2170  143.7060 C   0  0  0  0  0  2  0  0  0  0  0  0
  191.7430  173.4100  144.5490 C   0  0  1  0  0  3  0  0  0  0  0  0
  190.8940  172.1790  144.7790 C   0  0  0  0  0  2  0  0  0  0  0  0
  193.1750  173.1690  144.9920 C   0  0  0  0  0  2  0  0  0  0  0  0
  193.5600  174.1480  146.0090 N   0  0  0  0  0  0  0  0  0  0  0  0
  194.5690  176.2740  146.3640 C   0  0  0  0  0  2  0  0  0  0  0  0
  192.4700  175.0970  146.1800 C   0  0  0  0  0  2  0  0  0  0  0  0
  194.7340  174.9550  145.6330 C   0  0  1  0  0  0  0  0  0  0  0  0
  195.9950  174.2640  146.1250 C   0  0  0  0  0  1  0  0  0  0  0  0
  193.0830  176.4120  146.6200 C   0  0  0  0  0  2  0  0  0  0  0  0
  194.8270  175.2270  144.1160 C   0  0  0  0  0  2  0  0  0  0  0  0
  196.1810  175.0050  143.6070 N   0  0  0  0  0  0  0  0  0  0  0  0
  195.4890  174.5950  141.2500 C   0  0  0  0  0  2  0  0  0  0  0  0
  196.0760  176.7900  141.8750 C   0  0  0  0  0  2  0  0  0  0  0  0
  196.2040  175.7900  140.8220 N   0  0  0  0  0  2  0  0  0  0  0  0
  196.7490  176.2830  143.1550 C   0  0  0  0  0  2  0  0  0  0  0  0
  196.1420  174.0230  142.5130 C   0  0  0  0  0  2  0  0  0  0  0  0
  187.7060  176.8920  144.2790 N   0  0  0  0  0  2  0  0  0  0  0  0
  187.4200  176.4110  145.6250 C   0  0  1  0  0  3  0  0  0  0  0  0
  188.5510  176.7720  146.5740 C   0  0  0  0  0  1  0  0  0  0  0  0
  186.0780  176.9530  146.1160 C   0  0  0  0  0  2  0  0  0  0  0  0
  186.0440  178.4790  146.2030 C   0  0  2  0  0  3  0  0  0  0  0  0
  185.8560  178.8800  147.5270 O   0  0  0  0  0  1  0  0  0  0  0  0
  185.2230  179.7830  144.2320 O   0  0  0  0  0  0  0  0  0  0  0  0
  183.7460  178.7620  145.6550 O   0  0  0  0  0  1  0  0  0  0  0  0
  184.9410  179.0170  145.3580 C   0  0  0  0  0  0  0  0  0  0  0  0
  1  5  2  0  0  0  0
  1  8  1  0  0  0  0
  2 13  1  0  0  0  0
  3 14  1  0  0  0  0
  4  7  1  0  0  0  0
  4 15  1  0  0  0  0
  5  9  1  0  0  0  0
  6  1  1  0  0  0  0
  7 11  1  0  0  0  0
  8  4  2  0  0  0  0
  9  7  2  0  0  0  0
 10  3  2  0  0  0  0
 11 10  1  0  0  0  0
 11  2  2  0  0  0  0
 12  2  1  0  0  0  0
 13 14  2  0  0  0  0
 13 35  1  0  0  0  0
 15 12  2  0  0  0  0
 16  3  1  1  0  0  0
 16 17  1  0  0  0  0
 16 18  1  0  0  0  0
 17 19  1  0  0  0  0
 18 20  1  0  0  0  0
 19 20  1  0  0  0  0
 19 21  1  6  0  0  0
 21 22  1  0  0  0  0
 22 24  1  0  0  0  0
 23 27  1  0  0  0  0
 24 27  1  0  0  0  0
 25 22  1  0  0  0  0
 25 26  1  1  0  0  0
 25 23  1  0  0  0  0
 28 25  1  0  0  0  0
 29 28  1  0  0  0  0
 30 34  1  0  0  0  0
 31 33  1  0  0  0  0
 32 30  1  0  0  0  0
 32 31  1  0  0  0  0
 33 29  1  0  0  0  0
 34 29  1  0  0  0  0
 35 36  1  0  0  0  0
 36 38  1  0  0  0  0
 36 37  1  1  0  0  0
 38 39  1  0  0  0  0
 39 40  1  1  0  0  0
 41 43  2  0  0  0  0
 43 42  1  0  0  0  0
 43 39  1  0  0  0  0
M  END
>  <MODEL>
7

>  <REMARK>
 VINA RESULT:      -7.1      2.147      3.894
  Name = 
  10 active torsions:
  status: ('A' for Active; 'I' for Inactive)
    1  A    between atoms: C_1  and  C_9
    2  A    between atoms: C_1  and  N_35
    3  A    between atoms: C_2  and  C_13
    4  A    between atoms: C_3  and  N_4
    5  A    between atoms: C_3  and  C_12
    6  A    between atoms: C_9  and  C_32
    7  A    between atoms: N_11  and  C_14
    8  A    between atoms: C_14  and  C_22
    9  A    between atoms: C_32  and  C_37
   10  A    between atoms: C_34  and  N_35
                            x       y       z     vdW  Elec       q    Type
                         _______ _______ _______ _____ _____    ______ ____

>  <TORSDO>
F 10

$$$$
=
 OpenBabel11052421003D

 43 48  0  0  1  0  0  0  0  0999 V2000
  185.4230  178.1000  145.7970 C   0  0  0  0  0  0  0  0  0  0  0  0
  189.0490  175.3140  143.6070 C   0  0  0  0  0  0  0  0  0  0  0  0
  191.1360  175.2660  145.4560 C   0  0  0  0  0  0  0  0  0  0  0  0
  186.6930  176.7140  144.2680 C   0  0  0  0  0  0  0  0  0  0  0  0
  186.4910  178.0910  146.6980 C   0  0  0  0  0  3  0  0  0  0  0  0
  183.9580  178.9740  146.1860 Cl  0  0  0  0  0  0  0  0  0  0  0  0
  187.7790  176.7010  145.1760 C   0  0  0  0  0  0  0  0  0  0  0  0
  185.5240  177.4120  144.5840 C   0  0  0  0  0  3  0  0  0  0  0  0
  187.6630  177.3940  146.3910 C   0  0  0  0  0  3  0  0  0  0  0  0
  189.9920  175.9500  145.7260 N   0  0  0  0  0  0  0  0  0  0  0  0
  188.9510  175.9930  144.8490 C   0  0  0  0  0  0  0  0  0  0  0  0
  187.9520  175.3350  142.7330 C   0  0  0  0  0  3  0  0  0  0  0  0
  190.2450  174.6180  143.3010 C   0  0  0  0  0  0  0  0  0  0  0  0
  191.2750  174.5940  144.2430 C   0  0  0  0  0  3  0  0  0  0  0  0
  186.7860  176.0280  143.0580 C   0  0  0  0  0  3  0  0  0  0  0  0
  192.2570  175.2400  146.4450 C   0  0  1  0  0  3  0  0  0  0  0  0
  193.2750  174.1760  146.0720 C   0  0  0  0  0  2  0  0  0  0  0  0
  192.9910  176.5730  146.4550 C   0  0  0  0  0  2  0  0  0  0  0  0
  194.4540  174.9180  145.4890 C   0  0  1  0  0  3  0  0  0  0  0  0
  194.4470  176.2710  146.1650 C   0  0  0  0  0  2  0  0  0  0  0  0
  195.7430  174.1730  145.7870 C   0  0  0  0  0  2  0  0  0  0  0  0
  195.5870  172.7520  145.4750 N   0  0  0  0  0  0  0  0  0  0  0  0
  196.1680  171.0320  143.9360 C   0  0  0  0  0  2  0  0  0  0  0  0
  196.6910  172.0170  146.0760 C   0  0  0  0  0  2  0  0  0  0  0  0
  195.6500  172.4550  144.0340 C   0  0  1  0  0  0  0  0  0  0  0  0
  194.2490  172.5210  143.4470 C   0  0  0  0  0  1  0  0  0  0  0  0
  196.9350  170.7910  145.2180 C   0  0  0  0  0  2  0  0  0  0  0  0
  196.6010  173.3930  143.2590 C   0  0  0  0  0  2  0  0  0  0  0  0
  195.9320  174.0240  142.1200 N   0  0  0  0  0  0  0  0  0  0  0  0
  197.5170  175.9380  141.9400 C   0  0  0  0  0  2  0  0  0  0  0  0
  197.9340  174.0160  140.6400 C   0  0  0  0  0  2  0  0  0  0  0  0
  197.9410  175.4740  140.6250 N   0  0  0  0  0  2  0  0  0  0  0  0
  196.5070  173.5080  140.8690 C   0  0  0  0  0  2  0  0  0  0  0  0
  196.0780  175.4840  142.2100 C   0  0  0  0  0  2  0  0  0  0  0  0
  190.4710  173.9130  142.0670 N   0  0  0  0  0  2  0  0  0  0  0  0
  191.0850  172.6010  141.9120 C   0  0  1  0  0  3  0  0  0  0  0  0
  190.1730  171.5150  142.4610 C   0  0  0  0  0  1  0  0  0  0  0  0
  191.4470  172.3460  140.4500 C   0  0  0  0  0  2  0  0  0  0  0  0
  190.9880  173.4640  139.5140 C   0  0  2  0  0  3  0  0  0  0  0  0
  189.8300  173.0800  138.8360 O   0  0  0  0  0  1  0  0  0  0  0  0
  191.7610  173.9090  137.1770 O   0  0  0  0  0  0  0  0  0  0  0  0
  193.2400  173.9570  138.9270 O   0  0  0  0  0  1  0  0  0  0  0  0
  192.0600  173.7830  138.5290 C   0  0  0  0  0  0  0  0  0  0  0  0
  1  6  1  0  0  0  0
  1  5  1  0  0  0  0
  2 11  1  0  0  0  0
  3 10  1  0  0  0  0
  4  8  1  0  0  0  0
  4  7  2  0  0  0  0
  7  9  1  0  0  0  0
  8  1  2  0  0  0  0
  9  5  2  0  0  0  0
 11  7  1  0  0  0  0
 11 10  2  0  0  0  0
 12 15  2  0  0  0  0
 12  2  1  0  0  0  0
 13  2  2  0  0  0  0
 13 14  1  0  0  0  0
 14  3  2  0  0  0  0
 15  4  1  0  0  0  0
 16  3  1  6  0  0  0
 16 18  1  0  0  0  0
 17 16  1  0  0  0  0
 19 21  1  1  0  0  0
 19 17  1  0  0  0  0
 19 20  1  0  0  0  0
 20 18  1  0  0  0  0
 22 21  1  0  0  0  0
 22 24  1  0  0  0  0
 23 25  1  0  0  0  0
 23 27  1  0  0  0  0
 25 26  1  6  0  0  0
 25 22  1  0  0  0  0
 27 24  1  0  0  0  0
 28 25  1  0  0  0  0
 29 34  1  0  0  0  0
 29 28  1  0  0  0  0
 30 34  1  0  0  0  0
 31 33  1  0  0  0  0
 32 31  1  0  0  0  0
 32 30  1  0  0  0  0
 33 29  1  0  0  0  0
 35 13  1  0  0  0  0
 36 35  1  0  0  0  0
 36 37  1  6  0  0  0
 38 36  1  0  0  0  0
 39 40  1  6  0  0  0
 39 38  1  0  0  0  0
 41 43  2  0  0  0  0
 43 42  1  0  0  0  0
 43 39  1  0  0  0  0
M  END
>  <MODEL>
8

>  <REMARK>
 VINA RESULT:      -6.9      3.854      6.337
  Name = 
  10 active torsions:
  status: ('A' for Active; 'I' for Inactive)
    1  A    between atoms: C_1  and  C_9
    2  A    between atoms: C_1  and  N_35
    3  A    between atoms: C_2  and  C_13
    4  A    between atoms: C_3  and  N_4
    5  A    between atoms: C_3  and  C_12
    6  A    between atoms: C_9  and  C_32
    7  A    between atoms: N_11  and  C_14
    8  A    between atoms: C_14  and  C_22
    9  A    between atoms: C_32  and  C_37
   10  A    between atoms: C_34  and  N_35
                            x       y       z     vdW  Elec       q    Type
                         _______ _______ _______ _____ _____    ______ ____

>  <TORSDO>
F 10

$$$$
=
 OpenBabel11052421003D

 43 48  0  0  1  0  0  0  0  0999 V2000
  196.4130  169.1260  147.1170 C   0  0  0  0  0  0  0  0  0  0  0  0
  196.0040  172.1250  143.0510 C   0  0  0  0  0  0  0  0  0  0  0  0
  193.2660  172.2940  142.5520 C   0  0  0  0  0  0  0  0  0  0  0  0
  196.8840  170.5870  145.2430 C   0  0  0  0  0  0  0  0  0  0  0  0
  195.0460  169.1970  146.8340 C   0  0  0  0  0  3  0  0  0  0  0  0
  196.9770  168.1660  148.4670 Cl  0  0  0  0  0  0  0  0  0  0  0  0
  195.5020  170.6640  144.9500 C   0  0  0  0  0  0  0  0  0  0  0  0
  197.3300  169.8210  146.3240 C   0  0  0  0  0  3  0  0  0  0  0  0
  194.5920  169.9620  145.7560 C   0  0  0  0  0  3  0  0  0  0  0  0
  193.7330  171.5430  143.5850 N   0  0  0  0  0  0  0  0  0  0  0  0
  195.0630  171.4400  143.8610 C   0  0  0  0  0  0  0  0  0  0  0  0
  197.3670  172.0410  143.3740 C   0  0  0  0  0  3  0  0  0  0  0  0
  195.5350  172.8930  141.9550 C   0  0  0  0  0  0  0  0  0  0  0  0
  194.1590  172.9750  141.7280 C   0  0  0  0  0  3  0  0  0  0  0  0
  197.8040  171.2800  144.4580 C   0  0  0  0  0  3  0  0  0  0  0  0
  191.7980  172.3850  142.2820 C   0  0  1  0  0  3  0  0  0  0  0  0
  191.0750  173.0150  143.4590 C   0  0  0  0  0  2  0  0  0  0  0  0
  191.5330  173.2700  141.0720 C   0  0  0  0  0  2  0  0  0  0  0  0
  190.7470  174.4280  143.0350 C   0  0  1  0  0  3  0  0  0  0  0  0
  190.5940  174.3670  141.5310 C   0  0  0  0  0  2  0  0  0  0  0  0
  189.4560  174.8860  143.6900 C   0  0  0  0  0  2  0  0  0  0  0  0
  189.7410  175.5240  144.9750 N   0  0  0  0  0  0  0  0  0  0  0  0
  188.8590  176.9430  146.6700 C   0  0  0  0  0  2  0  0  0  0  0  0
  189.2820  174.6500  146.0440 C   0  0  0  0  0  2  0  0  0  0  0  0
  189.0290  176.7990  145.1700 C   0  0  1  0  0  0  0  0  0  0  0  0
  189.8910  177.9390  144.6510 C   0  0  0  0  0  1  0  0  0  0  0  0
  188.9150  175.5340  147.2210 C   0  0  0  0  0  2  0  0  0  0  0  0
  187.6390  176.8290  144.4990 C   0  0  0  0  0  2  0  0  0  0  0  0
  187.2580  178.1850  144.0990 N   0  0  0  0  0  0  0  0  0  0  0  0
  185.4800  177.4760  142.5050 C   0  0  0  0  0  2  0  0  0  0  0  0
  184.8610  177.9510  144.7300 C   0  0  0  0  0  2  0  0  0  0  0  0
  184.4670  178.1160  143.3360 N   0  0  0  0  0  2  0  0  0  0  0  0
  186.1890  178.6730  144.9820 C   0  0  0  0  0  2  0  0  0  0  0  0
  186.8270  178.1810  142.6930 C   0  0  0  0  0  2  0  0  0  0  0  0
  196.3920  173.6110  141.0510 N   0  0  0  0  0  2  0  0  0  0  0  0
  196.7040  175.0340  141.0920 C   0  0  1  0  0  3  0  0  0  0  0  0
  196.8820  175.5830  139.6850 C   0  0  0  0  0  1  0  0  0  0  0  0
  195.6300  175.7990  141.8630 C   0  0  0  0  0  2  0  0  0  0  0  0
  196.1460  176.4050  143.1690 C   0  0  2  0  0  3  0  0  0  0  0  0
  197.3430  175.7920  143.5430 O   0  0  0  0  0  1  0  0  0  0  0  0
  195.0440  177.1510  145.2870 O   0  0  0  0  0  1  0  0  0  0  0  0
  194.3500  175.2470  144.2160 O   0  0  0  0  0  0  0  0  0  0  0  0
  195.1360  176.2280  144.2510 C   0  0  0  0  0  0  0  0  0  0  0  0
  1  6  1  0  0  0  0
  2 12  1  0  0  0  0
  2 11  1  0  0  0  0
  3 10  1  0  0  0  0
  4  8  1  0  0  0  0
  5  1  1  0  0  0  0
  7  4  2  0  0  0  0
  7  9  1  0  0  0  0
  8  1  2  0  0  0  0
  9  5  2  0  0  0  0
 10 11  2  0  0  0  0
 11  7  1  0  0  0  0
 12 15  2  0  0  0  0
 13  2  2  0  0  0  0
 14 13  1  0  0  0  0
 14  3  2  0  0  0  0
 15  4  1  0  0  0  0
 16  3  1  1  0  0  0
 16 17  1  0  0  0  0
 18 20  1  0  0  0  0
 18 16  1  0  0  0  0
 19 17  1  0  0  0  0
 19 21  1  1  0  0  0
 20 19  1  0  0  0  0
 21 22  1  0  0  0  0
 22 25  1  0  0  0  0
 22 24  1  0  0  0  0
 23 27  1  0  0  0  0
 24 27  1  0  0  0  0
 25 26  1  6  0  0  0
 25 23  1  0  0  0  0
 28 25  1  0  0  0  0
 29 28  1  0  0  0  0
 29 33  1  0  0  0  0
 30 34  1  0  0  0  0
 30 32  1  0  0  0  0
 31 33  1  0  0  0  0
 32 31  1  0  0  0  0
 34 29  1  0  0  0  0
 35 36  1  0  0  0  0
 35 13  1  0  0  0  0
 36 37  1  6  0  0  0
 36 38  1  0  0  0  0
 38 39  1  0  0  0  0
 39 40  1  1  0  0  0
 39 43  1  0  0  0  0
 42 43  2  0  0  0  0
 43 41  1  0  0  0  0
M  END
>  <MODEL>
9

>  <REMARK>
 VINA RESULT:      -6.9      3.749      9.158
  Name = 
  10 active torsions:
  status: ('A' for Active; 'I' for Inactive)
    1  A    between atoms: C_1  and  C_9
    2  A    between atoms: C_1  and  N_35
    3  A    between atoms: C_2  and  C_13
    4  A    between atoms: C_3  and  N_4
    5  A    between atoms: C_3  and  C_12
    6  A    between atoms: C_9  and  C_32
    7  A    between atoms: N_11  and  C_14
    8  A    between atoms: C_14  and  C_22
    9  A    between atoms: C_32  and  C_37
   10  A    between atoms: C_34  and  N_35
                            x       y       z     vdW  Elec       q    Type
                         _______ _______ _______ _____ _____    ______ ____

>  <TORSDO>
F 10

$$$$
