=
 OpenBabel11052418173D

 28 30  0  0  1  0  0  0  0  0999 V2000
  186.2110  178.5720  143.1540 N   0  0  0  0  0  2  0  0  0  0  0  0
  188.6330  178.2190  141.7880 C   0  0  0  0  0  1  0  0  0  0  0  0
  187.7110  177.0100  141.9540 C   0  0  1  0  0  0  0  0  0  0  0  0
  184.8680  178.3690  146.5630 O   0  0  0  0  0  0  0  0  0  0  0  0
  186.1890  178.2930  140.5580 O   0  0  0  0  0  1  0  0  0  0  0  0
  189.4810  175.5420  143.0970 C   0  0  0  0  0  2  0  0  0  0  0  0
  188.9510  175.4870  144.5250 C   0  0  2  0  0  3  0  0  0  0  0  0
  188.3810  175.6200  142.0360 C   0  0  1  0  0  3  0  0  0  0  0  0
  186.2610  176.7070  145.6220 C   0  0  0  0  0  2  0  0  0  0  0  0
  188.6940  176.8960  145.0690 C   0  0  0  0  0  2  0  0  0  0  0  0
  185.3950  180.1730  144.6080 O   0  0  0  0  0  0  0  0  0  0  0  0
  187.6620  176.8730  146.1840 C   0  0  0  0  0  2  0  0  0  0  0  0
  185.5670  178.0270  145.5720 C   0  0  0  0  0  0  0  0  0  0  0  0
  185.7210  178.9680  144.4400 C   0  0  0  0  0  0  0  0  0  0  0  0
  186.4050  177.1910  142.7250 C   0  0  2  0  0  3  0  0  0  0  0  0
  186.3890  177.0580  141.1920 C   0  0  2  0  0  3  0  0  0  0  0  0
  191.3090  172.8430  144.7130 C   0  0  0  0  0  3  0  0  0  0  0  0
  191.2960  175.0650  145.1870 N   0  0  0  0  0  0  0  0  0  0  0  0
  192.0510  173.9300  144.8050 C   0  0  0  0  0  0  0  0  0  0  0  0
  189.9150  174.6650  145.3970 C   0  0  2  0  0  3  0  0  0  0  0  0
  189.8910  173.1630  145.0700 C   0  0  0  0  0  2  0  0  0  0  0  0
  194.3390  173.7420  145.4310 O   0  0  0  0  0  0  0  0  0  0  0  0
  193.4930  173.9710  144.5270 C   0  0  0  0  0  3  0  0  0  0  0  0
  191.8560  176.3530  145.5830 C   0  0  0  0  0  2  0  0  0  0  0  0
  192.3560  176.3110  147.0150 C   0  0  0  0  0  2  0  0  0  0  0  0
  191.2720  176.7500  147.9760 C   0  0  0  0  0  1  0  0  0  0  0  0
  188.1590  173.1520  141.7090 C   0  0  0  0  0  1  0  0  0  0  0  0
  187.4380  174.4180  142.1250 C   0  0  0  0  0  2  0  0  0  0  0  0
  1 14  1  0  0  0  0
  3  2  1  6  0  0  0
  3  8  1  0  0  0  0
  3 15  1  0  0  0  0
  7  6  1  6  0  0  0
  7 10  1  0  0  0  0
  7 20  1  0  0  0  0
  8 28  1  1  0  0  0
  8  6  1  0  0  0  0
  9 12  1  0  0  0  0
 10 12  1  0  0  0  0
 13  9  1  0  0  0  0
 13  4  2  0  0  0  0
 14 11  2  0  0  0  0
 14 13  1  0  0  0  0
 15  1  1  6  0  0  0
 16  5  1  6  0  0  0
 16  3  1  0  0  0  0
 16 15  1  0  0  0  0
 17 19  2  0  0  0  0
 17 21  1  0  0  0  0
 18 20  1  0  0  0  0
 18 24  1  0  0  0  0
 19 18  1  0  0  0  0
 20 21  1  6  0  0  0
 23 19  1  0  0  0  0
 23 22  2  0  0  0  0
 24 25  1  0  0  0  0
 25 26  1  0  0  0  0
 27 28  1  0  0  0  0
M  END
>  <MODEL>
1

>  <REMARK>
 VINA RESULT:      -7.3      0.000      0.000
  Name = 
  5 active torsions:
  status: ('A' for Active; 'I' for Inactive)
    1  A    between atoms: N_9  and  C_18
    2  A    between atoms: C_10  and  C_13
    3  A    between atoms: C_11  and  C_22
    4  A    between atoms: C_12  and  C_23
    5  A    between atoms: C_14  and  C_18
                            x       y       z     vdW  Elec       q    Type
                         _______ _______ _______ _____ _____    ______ ____

>  <TORSDO>
F 5

$$$$
=
 OpenBabel11052418173D

 28 30  0  0  1  0  0  0  0  0999 V2000
  190.8470  172.6780  142.0400 N   0  0  0  0  0  2  0  0  0  0  0  0
  192.4690  174.5430  143.3620 C   0  0  0  0  0  1  0  0  0  0  0  0
  191.2740  173.9580  144.1170 C   0  0  1  0  0  0  0  0  0  0  0  0
  187.8450  172.5820  139.9310 O   0  0  0  0  0  0  0  0  0  0  0  0
  192.4840  171.8590  143.9020 O   0  0  0  0  0  1  0  0  0  0  0  0
  190.2190  176.2370  144.6530 C   0  0  0  0  0  2  0  0  0  0  0  0
  188.9920  176.2210  143.7490 C   0  0  2  0  0  3  0  0  0  0  0  0
  190.6090  174.8550  145.1840 C   0  0  1  0  0  3  0  0  0  0  0  0
  187.9920  173.8650  141.9110 C   0  0  0  0  0  2  0  0  0  0  0  0
  189.3830  175.9090  142.3000 C   0  0  0  0  0  2  0  0  0  0  0  0
  190.5140  172.1100  139.8240 O   0  0  0  0  0  0  0  0  0  0  0  0
  188.2110  175.3190  141.5320 C   0  0  0  0  0  2  0  0  0  0  0  0
  188.5840  172.9680  140.8750 C   0  0  0  0  0  0  0  0  0  0  0  0
  190.0100  172.5730  140.8820 C   0  0  0  0  0  0  0  0  0  0  0  0
  190.3700  172.9650  143.3890 C   0  0  2  0  0  3  0  0  0  0  0  0
  191.3550  172.4730  144.4640 C   0  0  2  0  0  3  0  0  0  0  0  0
  186.7000  178.5380  142.3460 C   0  0  0  0  0  3  0  0  0  0  0  0
  186.8400  177.3250  144.2630 N   0  0  0  0  0  0  0  0  0  0  0  0
  186.0080  177.9570  143.3070 C   0  0  0  0  0  0  0  0  0  0  0  0
  188.2290  177.5470  143.9000 C   0  0  2  0  0  3  0  0  0  0  0  0
  188.1660  178.3580  142.5950 C   0  0  0  0  0  2  0  0  0  0  0  0
  183.9040  178.8870  143.9160 O   0  0  0  0  0  0  0  0  0  0  0  0
  184.5410  177.9440  143.3760 C   0  0  0  0  0  3  0  0  0  0  0  0
  186.3930  176.7910  145.5450 C   0  0  0  0  0  2  0  0  0  0  0  0
  186.8080  177.7010  146.6870 C   0  0  0  0  0  2  0  0  0  0  0  0
  185.6810  178.6410  147.0600 C   0  0  0  0  0  1  0  0  0  0  0  0
  189.2930  174.9340  147.3080 C   0  0  0  0  0  1  0  0  0  0  0  0
  189.4640  174.2240  145.9800 C   0  0  0  0  0  2  0  0  0  0  0  0
  3  2  1  6  0  0  0
  3 16  1  0  0  0  0
  3  8  1  0  0  0  0
  4 13  2  0  0  0  0
  6  8  1  0  0  0  0
  7 10  1  6  0  0  0
  7 20  1  0  0  0  0
  7  6  1  0  0  0  0
  8 28  1  6  0  0  0
 11 14  2  0  0  0  0
 12  9  1  0  0  0  0
 12 10  1  0  0  0  0
 13 14  1  0  0  0  0
 13  9  1  0  0  0  0
 14  1  1  0  0  0  0
 15  1  1  6  0  0  0
 15  3  1  0  0  0  0
 15 16  1  0  0  0  0
 16  5  1  6  0  0  0
 17 21  1  0  0  0  0
 17 19  2  0  0  0  0
 18 24  1  0  0  0  0
 19 23  1  0  0  0  0
 19 18  1  0  0  0  0
 20 21  1  6  0  0  0
 20 18  1  0  0  0  0
 23 22  2  0  0  0  0
 24 25  1  0  0  0  0
 25 26  1  0  0  0  0
 28 27  1  0  0  0  0
M  END
>  <MODEL>
2

>  <REMARK>
 VINA RESULT:      -6.9      2.341      6.769
  Name = 
  5 active torsions:
  status: ('A' for Active; 'I' for Inactive)
    1  A    between atoms: N_9  and  C_18
    2  A    between atoms: C_10  and  C_13
    3  A    between atoms: C_11  and  C_22
    4  A    between atoms: C_12  and  C_23
    5  A    between atoms: C_14  and  C_18
                            x       y       z     vdW  Elec       q    Type
                         _______ _______ _______ _____ _____    ______ ____

>  <TORSDO>
F 5

$$$$
=
 OpenBabel11052418173D

 28 30  0  0  1  0  0  0  0  0999 V2000
  192.2150  174.2050  145.0040 N   0  0  0  0  0  2  0  0  0  0  0  0
  189.5250  173.4560  145.2440 C   0  0  0  0  0  1  0  0  0  0  0  0
  190.0990  173.6600  143.8400 C   0  0  1  0  0  0  0  0  0  0  0  0
  194.2660  177.2430  144.8220 O   0  0  0  0  0  0  0  0  0  0  0  0
  191.5080  171.7620  144.4110 O   0  0  0  0  0  1  0  0  0  0  0  0
  188.3450  175.4000  143.1400 C   0  0  0  0  0  2  0  0  0  0  0  0
  189.1820  176.6740  143.1020 C   0  0  2  0  0  3  0  0  0  0  0  0
  189.1220  174.1420  142.7450 C   0  0  1  0  0  3  0  0  0  0  0  0
  192.2880  176.9430  143.5640 C   0  0  0  0  0  2  0  0  0  0  0  0
  189.9370  176.8720  144.4210 C   0  0  0  0  0  2  0  0  0  0  0  0
  193.7710  175.1270  146.4450 O   0  0  0  0  0  0  0  0  0  0  0  0
  191.1700  177.7370  144.2200 C   0  0  0  0  0  2  0  0  0  0  0  0
  193.2760  176.5000  144.5910 C   0  0  0  0  0  0  0  0  0  0  0  0
  193.1010  175.2640  145.3860 C   0  0  0  0  0  0  0  0  0  0  0  0
  191.5550  174.0980  143.7070 C   0  0  2  0  0  3  0  0  0  0  0  0
  191.1490  172.6490  143.3860 C   0  0  2  0  0  3  0  0  0  0  0  0
  186.3460  177.8500  141.3240 C   0  0  0  0  0  3  0  0  0  0  0  0
  187.0440  177.8540  143.4870 N   0  0  0  0  0  0  0  0  0  0  0  0
  185.9540  177.8640  142.5830 C   0  0  0  0  0  0  0  0  0  0  0  0
  188.2840  177.8640  142.7300 C   0  0  2  0  0  3  0  0  0  0  0  0
  187.8420  177.8490  141.2570 C   0  0  0  0  0  2  0  0  0  0  0  0
  183.6230  178.1600  142.2050 O   0  0  0  0  0  0  0  0  0  0  0  0
  184.5480  177.8720  143.0090 C   0  0  0  0  0  3  0  0  0  0  0  0
  186.9470  178.0840  144.9240 C   0  0  0  0  0  2  0  0  0  0  0  0
  186.4010  176.8600  145.6350 C   0  0  0  0  0  2  0  0  0  0  0  0
  187.2300  176.5370  146.8600 C   0  0  0  0  0  1  0  0  0  0  0  0
  188.5810  174.2790  140.3080 C   0  0  0  0  0  1  0  0  0  0  0  0
  189.6980  174.2660  141.3320 C   0  0  0  0  0  2  0  0  0  0  0  0
  1 14  1  0  0  0  0
  3  2  1  1  0  0  0
  7  6  1  1  0  0  0
  7 10  1  0  0  0  0
  8 28  1  6  0  0  0
  8  6  1  0  0  0  0
  8  3  1  0  0  0  0
  9 12  1  0  0  0  0
  9 13  1  0  0  0  0
 12 10  1  0  0  0  0
 13  4  2  0  0  0  0
 13 14  1  0  0  0  0
 14 11  2  0  0  0  0
 15  3  1  0  0  0  0
 15  1  1  1  0  0  0
 16 15  1  0  0  0  0
 16  3  1  0  0  0  0
 16  5  1  1  0  0  0
 17 19  2  0  0  0  0
 18 24  1  0  0  0  0
 19 23  1  0  0  0  0
 19 18  1  0  0  0  0
 20 21  1  6  0  0  0
 20  7  1  0  0  0  0
 20 18  1  0  0  0  0
 21 17  1  0  0  0  0
 22 23  2  0  0  0  0
 24 25  1  0  0  0  0
 25 26  1  0  0  0  0
 27 28  1  0  0  0  0
M  END
>  <MODEL>
3

>  <REMARK>
 VINA RESULT:      -6.7      1.869      6.595
  Name = 
  5 active torsions:
  status: ('A' for Active; 'I' for Inactive)
    1  A    between atoms: N_9  and  C_18
    2  A    between atoms: C_10  and  C_13
    3  A    between atoms: C_11  and  C_22
    4  A    between atoms: C_12  and  C_23
    5  A    between atoms: C_14  and  C_18
                            x       y       z     vdW  Elec       q    Type
                         _______ _______ _______ _____ _____    ______ ____

>  <TORSDO>
F 5

$$$$
=
 OpenBabel11052418173D

 28 30  0  0  1  0  0  0  0  0999 V2000
  192.6060  173.2080  142.5750 N   0  0  0  0  0  2  0  0  0  0  0  0
  193.5780  175.7670  141.9750 C   0  0  0  0  0  1  0  0  0  0  0  0
  193.3390  175.4080  143.4420 C   0  0  1  0  0  0  0  0  0  0  0  0
  189.4070  171.4670  143.0250 O   0  0  0  0  0  0  0  0  0  0  0  0
  195.1050  173.7780  143.0730 O   0  0  0  0  0  1  0  0  0  0  0  0
  191.7600  177.3830  143.8930 C   0  0  0  0  0  2  0  0  0  0  0  0
  190.4200  176.6700  144.0410 C   0  0  2  0  0  3  0  0  0  0  0  0
  192.9510  176.5610  144.3940 C   0  0  1  0  0  3  0  0  0  0  0  0
  189.8850  173.5650  144.0040 C   0  0  0  0  0  2  0  0  0  0  0  0
  190.1470  175.7630  142.8360 C   0  0  0  0  0  2  0  0  0  0  0  0
  191.5430  171.5560  141.3560 O   0  0  0  0  0  0  0  0  0  0  0  0
  189.1830  174.6460  143.2000 C   0  0  0  0  0  2  0  0  0  0  0  0
  190.2340  172.4130  143.1210 C   0  0  0  0  0  0  0  0  0  0  0  0
  191.4730  172.3720  142.3130 C   0  0  0  0  0  0  0  0  0  0  0  0
  192.7800  174.0260  143.7710 C   0  0  2  0  0  3  0  0  0  0  0  0
  194.2610  174.3470  144.0370 C   0  0  2  0  0  3  0  0  0  0  0  0
  187.0930  177.7130  143.3880 C   0  0  0  0  0  3  0  0  0  0  0  0
  188.3260  177.2220  145.2330 N   0  0  0  0  0  0  0  0  0  0  0  0
  187.0450  177.2760  144.6320 C   0  0  0  0  0  0  0  0  0  0  0  0
  189.3130  177.7080  144.2850 C   0  0  2  0  0  3  0  0  0  0  0  0
  188.5070  178.0380  143.0170 C   0  0  0  0  0  2  0  0  0  0  0  0
  184.9020  177.7050  145.5750 O   0  0  0  0  0  0  0  0  0  0  0  0
  185.8100  176.8710  145.3170 C   0  0  0  0  0  3  0  0  0  0  0  0
  188.5800  176.9940  146.6520 C   0  0  0  0  0  2  0  0  0  0  0  0
  188.4620  175.5200  146.9940 C   0  0  0  0  0  2  0  0  0  0  0  0
  189.8090  174.9530  147.3900 C   0  0  0  0  0  1  0  0  0  0  0  0
  193.9070  176.8110  146.6900 C   0  0  0  0  0  1  0  0  0  0  0  0
  192.7910  176.1950  145.8710 C   0  0  0  0  0  2  0  0  0  0  0  0
  3  2  1  6  0  0  0
  3 15  1  0  0  0  0
  3 16  1  0  0  0  0
  3  8  1  0  0  0  0
  4 13  2  0  0  0  0
  6  7  1  0  0  0  0
  6  8  1  0  0  0  0
  7 10  1  6  0  0  0
  7 20  1  0  0  0  0
  8 28  1  1  0  0  0
 10 12  1  0  0  0  0
 11 14  2  0  0  0  0
 12  9  1  0  0  0  0
 13  9  1  0  0  0  0
 14  1  1  0  0  0  0
 14 13  1  0  0  0  0
 15  1  1  6  0  0  0
 15 16  1  0  0  0  0
 16  5  1  6  0  0  0
 17 19  2  0  0  0  0
 18 24  1  0  0  0  0
 19 18  1  0  0  0  0
 19 23  1  0  0  0  0
 20 21  1  6  0  0  0
 20 18  1  0  0  0  0
 21 17  1  0  0  0  0
 23 22  2  0  0  0  0
 24 25  1  0  0  0  0
 25 26  1  0  0  0  0
 28 27  1  0  0  0  0
M  END
>  <MODEL>
4

>  <REMARK>
 VINA RESULT:      -6.6      2.320      6.719
  Name = 
  5 active torsions:
  status: ('A' for Active; 'I' for Inactive)
    1  A    between atoms: N_9  and  C_18
    2  A    between atoms: C_10  and  C_13
    3  A    between atoms: C_11  and  C_22
    4  A    between atoms: C_12  and  C_23
    5  A    between atoms: C_14  and  C_18
                            x       y       z     vdW  Elec       q    Type
                         _______ _______ _______ _____ _____    ______ ____

>  <TORSDO>
F 5

$$$$
=
 OpenBabel11052418173D

 28 30  0  0  1  0  0  0  0  0999 V2000
  185.4200  177.9910  144.9870 N   0  0  0  0  0  2  0  0  0  0  0  0
  186.3530  179.4220  142.7650 C   0  0  0  0  0  1  0  0  0  0  0  0
  186.3250  177.8940  142.6850 C   0  0  1  0  0  0  0  0  0  0  0  0
  186.7030  176.4630  148.0680 O   0  0  0  0  0  0  0  0  0  0  0  0
  183.9170  178.1770  142.8610 O   0  0  0  0  0  1  0  0  0  0  0  0
  188.8200  177.6620  142.1210 C   0  0  0  0  0  2  0  0  0  0  0  0
  189.3670  177.0650  143.4120 C   0  0  2  0  0  3  0  0  0  0  0  0
  187.3920  177.2180  141.7950 C   0  0  1  0  0  3  0  0  0  0  0  0
  187.7350  176.1820  145.9600 C   0  0  0  0  0  2  0  0  0  0  0  0
  188.9570  177.9100  144.6230 C   0  0  0  0  0  2  0  0  0  0  0  0
  185.1180  178.4950  147.2230 O   0  0  0  0  0  0  0  0  0  0  0  0
  188.9590  177.0800  145.8960 C   0  0  0  0  0  2  0  0  0  0  0  0
  186.7000  176.7860  146.8500 C   0  0  0  0  0  0  0  0  0  0  0  0
  185.7240  177.7900  146.3730 C   0  0  0  0  0  0  0  0  0  0  0  0
  185.8480  177.1100  143.9050 C   0  0  2  0  0  3  0  0  0  0  0  0
  184.9440  177.2430  142.6660 C   0  0  2  0  0  3  0  0  0  0  0  0
  192.5340  177.1080  145.0100 C   0  0  0  0  0  3  0  0  0  0  0  0
  191.3170  175.6000  143.8230 N   0  0  0  0  0  0  0  0  0  0  0  0
  192.2990  175.8240  144.8180 C   0  0  0  0  0  0  0  0  0  0  0  0
  190.8880  176.8800  143.2860 C   0  0  2  0  0  3  0  0  0  0  0  0
  191.6890  177.9240  144.0820 C   0  0  0  0  0  2  0  0  0  0  0  0
  193.7470  174.9910  146.5120 O   0  0  0  0  0  0  0  0  0  0  0  0
  192.9610  174.7430  145.5600 C   0  0  0  0  0  3  0  0  0  0  0  0
  190.9960  174.3040  143.2330 C   0  0  0  0  0  2  0  0  0  0  0  0
  189.6630  173.7900  143.7430 C   0  0  0  0  0  2  0  0  0  0  0  0
  189.8060  173.2170  145.1370 C   0  0  0  0  0  1  0  0  0  0  0  0
  188.1910  175.2070  140.5430 C   0  0  0  0  0  1  0  0  0  0  0  0
  187.3000  175.6960  141.6680 C   0  0  0  0  0  2  0  0  0  0  0  0
  1 14  1  0  0  0  0
  3  2  1  1  0  0  0
  3 15  1  0  0  0  0
  7  6  1  6  0  0  0
  7 10  1  0  0  0  0
  8 28  1  1  0  0  0
  8  6  1  0  0  0  0
  8  3  1  0  0  0  0
  9 13  1  0  0  0  0
 10 12  1  0  0  0  0
 12  9  1  0  0  0  0
 13  4  2  0  0  0  0
 14 13  1  0  0  0  0
 14 11  2  0  0  0  0
 15  1  1  1  0  0  0
 16  3  1  0  0  0  0
 16  5  1  1  0  0  0
 16 15  1  0  0  0  0
 18 19  1  0  0  0  0
 19 17  2  0  0  0  0
 19 23  1  0  0  0  0
 20  7  1  0  0  0  0
 20 18  1  0  0  0  0
 20 21  1  1  0  0  0
 21 17  1  0  0  0  0
 23 22  2  0  0  0  0
 24 25  1  0  0  0  0
 24 18  1  0  0  0  0
 25 26  1  0  0  0  0
 27 28  1  0  0  0  0
M  END
>  <MODEL>
5

>  <REMARK>
 VINA RESULT:      -6.5      1.678      2.751
  Name = 
  5 active torsions:
  status: ('A' for Active; 'I' for Inactive)
    1  A    between atoms: N_9  and  C_18
    2  A    between atoms: C_10  and  C_13
    3  A    between atoms: C_11  and  C_22
    4  A    between atoms: C_12  and  C_23
    5  A    between atoms: C_14  and  C_18
                            x       y       z     vdW  Elec       q    Type
                         _______ _______ _______ _____ _____    ______ ____

>  <TORSDO>
F 5

$$$$
=
 OpenBabel11052418173D

 28 30  0  0  1  0  0  0  0  0999 V2000
  184.9310  178.2540  144.4140 N   0  0  0  0  0  2  0  0  0  0  0  0
  185.1880  176.4160  146.5140 C   0  0  0  0  0  1  0  0  0  0  0  0
  186.2520  177.5050  146.3690 C   0  0  1  0  0  0  0  0  0  0  0  0
  185.9620  178.6660  140.9160 O   0  0  0  0  0  0  0  0  0  0  0  0
  184.4120  179.0180  146.8560 O   0  0  0  0  0  1  0  0  0  0  0  0
  188.2250  175.8660  146.2380 C   0  0  0  0  0  2  0  0  0  0  0  0
  188.6330  176.0010  144.7760 C   0  0  2  0  0  3  0  0  0  0  0  0
  187.6810  177.1610  146.8470 C   0  0  1  0  0  3  0  0  0  0  0  0
  187.4400  177.9710  142.6250 C   0  0  0  0  0  2  0  0  0  0  0  0
  187.4310  175.7890  143.8500 C   0  0  0  0  0  2  0  0  0  0  0  0
  183.7440  178.2850  142.4300 O   0  0  0  0  0  0  0  0  0  0  0  0
  187.6460  176.4710  142.5090 C   0  0  0  0  0  2  0  0  0  0  0  0
  186.0830  178.3450  142.1280 C   0  0  0  0  0  0  0  0  0  0  0  0
  184.8760  178.2890  142.9830 C   0  0  0  0  0  0  0  0  0  0  0  0
  186.1330  178.4890  145.2080 C   0  0  2  0  0  3  0  0  0  0  0  0
  185.7960  178.9360  146.6410 C   0  0  2  0  0  3  0  0  0  0  0  0
  190.9080  174.6960  142.3870 C   0  0  0  0  0  3  0  0  0  0  0  0
  191.0640  175.7650  144.3860 N   0  0  0  0  0  0  0  0  0  0  0  0
  191.6570  175.4880  143.1310 C   0  0  0  0  0  0  0  0  0  0  0  0
  189.8030  175.0490  144.4810 C   0  0  2  0  0  3  0  0  0  0  0  0
  189.6650  174.3230  143.1330 C   0  0  0  0  0  2  0  0  0  0  0  0
  194.0350  175.4990  143.0490 O   0  0  0  0  0  0  0  0  0  0  0  0
  192.9500  176.0390  142.7060 C   0  0  0  0  0  3  0  0  0  0  0  0
  191.7310  176.4210  145.5050 C   0  0  0  0  0  2  0  0  0  0  0  0
  192.3590  175.4020  146.4380 C   0  0  0  0  0  2  0  0  0  0  0  0
  191.5660  175.2910  147.7230 C   0  0  0  0  0  1  0  0  0  0  0  0
  189.5870  178.2920  148.0020 C   0  0  0  0  0  1  0  0  0  0  0  0
  188.7120  178.2880  146.7640 C   0  0  0  0  0  2  0  0  0  0  0  0
  3  2  1  1  0  0  0
  3 16  1  0  0  0  0
  3  8  1  0  0  0  0
  4 13  2  0  0  0  0
  6  8  1  0  0  0  0
  7 10  1  6  0  0  0
  7  6  1  0  0  0  0
  8 28  1  6  0  0  0
 11 14  2  0  0  0  0
 12  9  1  0  0  0  0
 12 10  1  0  0  0  0
 13  9  1  0  0  0  0
 13 14  1  0  0  0  0
 14  1  1  0  0  0  0
 15  1  1  6  0  0  0
 15  3  1  0  0  0  0
 15 16  1  0  0  0  0
 16  5  1  6  0  0  0
 17 19  2  0  0  0  0
 17 21  1  0  0  0  0
 18 20  1  0  0  0  0
 18 24  1  0  0  0  0
 19 18  1  0  0  0  0
 20 21  1  6  0  0  0
 20  7  1  0  0  0  0
 23 22  2  0  0  0  0
 23 19  1  0  0  0  0
 24 25  1  0  0  0  0
 25 26  1  0  0  0  0
 28 27  1  0  0  0  0
M  END
>  <MODEL>
6

>  <REMARK>
 VINA RESULT:      -6.4      1.627      3.888
  Name = 
  5 active torsions:
  status: ('A' for Active; 'I' for Inactive)
    1  A    between atoms: N_9  and  C_18
    2  A    between atoms: C_10  and  C_13
    3  A    between atoms: C_11  and  C_22
    4  A    between atoms: C_12  and  C_23
    5  A    between atoms: C_14  and  C_18
                            x       y       z     vdW  Elec       q    Type
                         _______ _______ _______ _____ _____    ______ ____

>  <TORSDO>
F 5

$$$$
=
 OpenBabel11052418173D

 28 30  0  0  1  0  0  0  0  0999 V2000
  185.1470  178.1230  143.9330 N   0  0  0  0  0  2  0  0  0  0  0  0
  185.1910  176.4060  146.1490 C   0  0  0  0  0  1  0  0  0  0  0  0
  186.3300  177.4150  145.9900 C   0  0  1  0  0  0  0  0  0  0  0  0
  186.3550  178.2490  140.4700 O   0  0  0  0  0  0  0  0  0  0  0  0
  184.5740  179.0690  146.2980 O   0  0  0  0  0  1  0  0  0  0  0  0
  188.1940  175.6500  146.0510 C   0  0  0  0  0  2  0  0  0  0  0  0
  188.6740  175.6680  144.6040 C   0  0  2  0  0  3  0  0  0  0  0  0
  187.7100  177.0130  146.5550 C   0  0  1  0  0  3  0  0  0  0  0  0
  187.7080  177.5710  142.2860 C   0  0  0  0  0  2  0  0  0  0  0  0
  187.5010  175.4740  143.6370 C   0  0  0  0  0  2  0  0  0  0  0  0
  184.0530  178.1040  141.8970 O   0  0  0  0  0  0  0  0  0  0  0  0
  187.8190  176.0560  142.2690 C   0  0  0  0  0  2  0  0  0  0  0  0
  186.4010  177.9980  141.7040 C   0  0  0  0  0  0  0  0  0  0  0  0
  185.1570  178.0720  142.5020 C   0  0  0  0  0  0  0  0  0  0  0  0
  186.3260  178.3310  144.7680 C   0  0  2  0  0  3  0  0  0  0  0  0
  185.9560  178.8870  146.1550 C   0  0  2  0  0  3  0  0  0  0  0  0
  190.1200  173.1460  142.5720 C   0  0  0  0  0  3  0  0  0  0  0  0
  190.8150  175.0970  143.5060 N   0  0  0  0  0  0  0  0  0  0  0  0
  190.9580  174.1580  142.4560 C   0  0  0  0  0  0  0  0  0  0  0  0
  189.7900  174.6270  144.4230 C   0  0  2  0  0  3  0  0  0  0  0  0
  189.2910  173.3090  143.8080 C   0  0  0  0  0  2  0  0  0  0  0  0
  193.1580  174.3780  141.5770 O   0  0  0  0  0  0  0  0  0  0  0  0
  191.9200  174.3120  141.3570 C   0  0  0  0  0  3  0  0  0  0  0  0
  191.7310  176.1990  143.7800 C   0  0  0  0  0  2  0  0  0  0  0  0
  191.3550  177.4310  142.9770 C   0  0  0  0  0  2  0  0  0  0  0  0
  191.1590  178.6250  143.8860 C   0  0  0  0  0  1  0  0  0  0  0  0
  189.9920  177.6770  147.3270 C   0  0  0  0  0  1  0  0  0  0  0  0
  188.8160  178.0650  146.4550 C   0  0  0  0  0  2  0  0  0  0  0  0
  3  2  1  1  0  0  0
  3 16  1  0  0  0  0
  3  8  1  0  0  0  0
  4 13  2  0  0  0  0
  6  8  1  0  0  0  0
  7 10  1  6  0  0  0
  7  6  1  0  0  0  0
  8 28  1  6  0  0  0
 11 14  2  0  0  0  0
 12  9  1  0  0  0  0
 12 10  1  0  0  0  0
 13  9  1  0  0  0  0
 13 14  1  0  0  0  0
 14  1  1  0  0  0  0
 15  1  1  6  0  0  0
 15  3  1  0  0  0  0
 15 16  1  0  0  0  0
 16  5  1  6  0  0  0
 17 21  1  0  0  0  0
 18 24  1  0  0  0  0
 18 20  1  0  0  0  0
 19 17  2  0  0  0  0
 19 18  1  0  0  0  0
 20 21  1  6  0  0  0
 20  7  1  0  0  0  0
 23 22  2  0  0  0  0
 23 19  1  0  0  0  0
 25 24  1  0  0  0  0
 25 26  1  0  0  0  0
 28 27  1  0  0  0  0
M  END
>  <MODEL>
7

>  <REMARK>
 VINA RESULT:      -6.3      1.789      3.991
  Name = 
  5 active torsions:
  status: ('A' for Active; 'I' for Inactive)
    1  A    between atoms: N_9  and  C_18
    2  A    between atoms: C_10  and  C_13
    3  A    between atoms: C_11  and  C_22
    4  A    between atoms: C_12  and  C_23
    5  A    between atoms: C_14  and  C_18
                            x       y       z     vdW  Elec       q    Type
                         _______ _______ _______ _____ _____    ______ ____

>  <TORSDO>
F 5

$$$$
=
 OpenBabel11052418173D

 28 30  0  0  1  0  0  0  0  0999 V2000
  191.8910  175.1730  142.4770 N   0  0  0  0  0  2  0  0  0  0  0  0
  191.4780  177.8260  143.2800 C   0  0  0  0  0  1  0  0  0  0  0  0
  191.4500  176.7320  144.3490 C   0  0  1  0  0  0  0  0  0  0  0  0
  189.9610  172.2580  141.3600 O   0  0  0  0  0  0  0  0  0  0  0  0
  193.7880  176.4350  143.7510 O   0  0  0  0  0  1  0  0  0  0  0  0
  189.1060  177.3310  145.2100 C   0  0  0  0  0  2  0  0  0  0  0  0
  188.2900  176.1420  144.7140 C   0  0  2  0  0  3  0  0  0  0  0  0
  190.5480  176.9740  145.5790 C   0  0  1  0  0  3  0  0  0  0  0  0
  189.3490  173.5750  143.2250 C   0  0  0  0  0  2  0  0  0  0  0  0
  188.4940  175.9270  143.2100 C   0  0  0  0  0  2  0  0  0  0  0  0
  191.7730  174.0610  140.4530 O   0  0  0  0  0  0  0  0  0  0  0  0
  188.2040  174.4880  142.8190 C   0  0  0  0  0  2  0  0  0  0  0  0
  190.2170  173.2830  142.0460 C   0  0  0  0  0  0  0  0  0  0  0  0
  191.3140  174.1810  141.6200 C   0  0  0  0  0  0  0  0  0  0  0  0
  191.6430  175.2820  143.9100 C   0  0  2  0  0  3  0  0  0  0  0  0
  192.7760  176.0310  144.6340 C   0  0  2  0  0  3  0  0  0  0  0  0
  185.8630  178.1340  146.3670 C   0  0  0  0  0  3  0  0  0  0  0  0
  186.1650  177.3250  144.2640 N   0  0  0  0  0  0  0  0  0  0  0  0
  185.6160  178.3380  145.0870 C   0  0  0  0  0  0  0  0  0  0  0  0
  186.8160  176.3350  145.1060 C   0  0  2  0  0  3  0  0  0  0  0  0
  186.6380  176.8640  146.5380 C   0  0  0  0  0  2  0  0  0  0  0  0
  185.4620  180.5550  144.2350 O   0  0  0  0  0  0  0  0  0  0  0  0
  184.8730  179.4920  144.5640 C   0  0  0  0  0  3  0  0  0  0  0  0
  185.8820  177.1500  142.8440 C   0  0  0  0  0  2  0  0  0  0  0  0
  186.5860  178.2080  142.0150 C   0  0  0  0  0  2  0  0  0  0  0  0
  186.6690  177.7850  140.5640 C   0  0  0  0  0  1  0  0  0  0  0  0
  191.1520  176.4840  147.9550 C   0  0  0  0  0  1  0  0  0  0  0  0
  190.5920  175.9040  146.6720 C   0  0  0  0  0  2  0  0  0  0  0  0
  3  2  1  6  0  0  0
  3 16  1  0  0  0  0
  3  8  1  0  0  0  0
  4 13  2  0  0  0  0
  6  8  1  0  0  0  0
  7 10  1  6  0  0  0
  7 20  1  0  0  0  0
  7  6  1  0  0  0  0
  8 28  1  1  0  0  0
 11 14  2  0  0  0  0
 12 10  1  0  0  0  0
 12  9  1  0  0  0  0
 13  9  1  0  0  0  0
 14 13  1  0  0  0  0
 14  1  1  0  0  0  0
 15  1  1  6  0  0  0
 15  3  1  0  0  0  0
 15 16  1  0  0  0  0
 16  5  1  6  0  0  0
 17 21  1  0  0  0  0
 18 19  1  0  0  0  0
 18 20  1  0  0  0  0
 19 17  2  0  0  0  0
 20 21  1  1  0  0  0
 22 23  2  0  0  0  0
 23 19  1  0  0  0  0
 24 18  1  0  0  0  0
 25 24  1  0  0  0  0
 26 25  1  0  0  0  0
 28 27  1  0  0  0  0
M  END
>  <MODEL>
8

>  <REMARK>
 VINA RESULT:      -6.2      2.200      6.840
  Name = 
  5 active torsions:
  status: ('A' for Active; 'I' for Inactive)
    1  A    between atoms: N_9  and  C_18
    2  A    between atoms: C_10  and  C_13
    3  A    between atoms: C_11  and  C_22
    4  A    between atoms: C_12  and  C_23
    5  A    between atoms: C_14  and  C_18
                            x       y       z     vdW  Elec       q    Type
                         _______ _______ _______ _____ _____    ______ ____

>  <TORSDO>
F 5

$$$$
=
 OpenBabel11052418173D

 28 30  0  0  1  0  0  0  0  0999 V2000
  188.0160  177.5440  145.3070 N   0  0  0  0  0  2  0  0  0  0  0  0
  188.6900  175.3260  146.8820 C   0  0  0  0  0  1  0  0  0  0  0  0
  189.8190  176.1030  146.2020 C   0  0  1  0  0  0  0  0  0  0  0  0
  187.1820  178.3520  141.8260 O   0  0  0  0  0  0  0  0  0  0  0  0
  189.1040  177.9200  147.6500 O   0  0  0  0  0  1  0  0  0  0  0  0
  190.7800  174.0610  144.9770 C   0  0  0  0  0  2  0  0  0  0  0  0
  190.4010  174.3700  143.5330 C   0  0  2  0  0  3  0  0  0  0  0  0
  191.0840  175.3070  145.8120 C   0  0  1  0  0  3  0  0  0  0  0  0
  189.0010  176.9690  142.4300 C   0  0  0  0  0  2  0  0  0  0  0  0
  188.9020  174.6690  143.4120 C   0  0  0  0  0  2  0  0  0  0  0  0
  186.0700  178.2780  144.2980 O   0  0  0  0  0  0  0  0  0  0  0  0
  188.6120  175.5210  142.1880 C   0  0  0  0  0  2  0  0  0  0  0  0
  187.7920  177.7780  142.7660 C   0  0  0  0  0  0  0  0  0  0  0  0
  187.2530  177.8750  144.1410 C   0  0  0  0  0  0  0  0  0  0  0  0
  189.4530  177.2930  145.3180 C   0  0  2  0  0  3  0  0  0  0  0  0
  190.0660  177.5210  146.7120 C   0  0  2  0  0  3  0  0  0  0  0  0
  189.7330  172.3110  140.7220 C   0  0  0  0  0  3  0  0  0  0  0  0
  191.3990  173.7150  141.3670 N   0  0  0  0  0  0  0  0  0  0  0  0
  190.6880  173.1170  140.2990 C   0  0  0  0  0  0  0  0  0  0  0  0
  190.8660  173.2200  142.6250 C   0  0  2  0  0  3  0  0  0  0  0  0
  189.7250  172.2730  142.2190 C   0  0  0  0  0  2  0  0  0  0  0  0
  190.0800  173.7880  138.0990 O   0  0  0  0  0  0  0  0  0  0  0  0
  190.9770  173.3830  138.8840 C   0  0  0  0  0  3  0  0  0  0  0  0
  192.6380  174.4740  141.2320 C   0  0  0  0  0  2  0  0  0  0  0  0
  193.6990  173.9560  142.1850 C   0  0  0  0  0  2  0  0  0  0  0  0
  194.6270  175.0730  142.6130 C   0  0  0  0  0  1  0  0  0  0  0  0
  193.4570  176.0410  146.0910 C   0  0  0  0  0  1  0  0  0  0  0  0
  192.2310  176.1160  145.2030 C   0  0  0  0  0  2  0  0  0  0  0  0
  3 16  1  0  0  0  0
  3  2  1  1  0  0  0
  4 13  2  0  0  0  0
  6  8  1  0  0  0  0
  7 10  1  1  0  0  0
  7  6  1  0  0  0  0
  8 28  1  6  0  0  0
  8  3  1  0  0  0  0
  9 13  1  0  0  0  0
 12  9  1  0  0  0  0
 12 10  1  0  0  0  0
 13 14  1  0  0  0  0
 14 11  2  0  0  0  0
 14  1  1  0  0  0  0
 15  1  1  1  0  0  0
 15  3  1  0  0  0  0
 15 16  1  0  0  0  0
 16  5  1  1  0  0  0
 17 21  1  0  0  0  0
 18 20  1  0  0  0  0
 19 17  2  0  0  0  0
 19 18  1  0  0  0  0
 20 21  1  6  0  0  0
 20  7  1  0  0  0  0
 22 23  2  0  0  0  0
 23 19  1  0  0  0  0
 24 18  1  0  0  0  0
 24 25  1  0  0  0  0
 25 26  1  0  0  0  0
 28 27  1  0  0  0  0
M  END
>  <MODEL>
9

>  <REMARK>
 VINA RESULT:      -6.0      2.534      4.955
  Name = 
  5 active torsions:
  status: ('A' for Active; 'I' for Inactive)
    1  A    between atoms: N_9  and  C_18
    2  A    between atoms: C_10  and  C_13
    3  A    between atoms: C_11  and  C_22
    4  A    between atoms: C_12  and  C_23
    5  A    between atoms: C_14  and  C_18
                            x       y       z     vdW  Elec       q    Type
                         _______ _______ _______ _____ _____    ______ ____

>  <TORSDO>
F 5

$$$$
