=
 OpenBabel11052417423D

 31 33  0  0  1  0  0  0  0  0999 V2000
  184.6360  178.2090  143.1420 C   0  0  0  0  0  0  0  0  0  0  0  0
  187.8190  176.1040  143.4530 C   0  0  2  0  0  3  0  0  0  0  0  0
  188.0250  175.5750  142.0530 C   0  0  0  0  0  0  0  0  0  0  0  0
  186.7810  177.1870  143.6480 C   0  0  0  0  0  0  0  0  0  0  0  0
  184.7710  179.0530  144.2480 C   0  0  0  0  0  3  0  0  0  0  0  0
  187.4340  176.0390  141.0860 O   0  0  0  0  0  0  0  0  0  0  0  0
  189.0760  177.1830  145.3590 C   0  0  0  0  0  0  0  0  0  0  0  0
  183.4800  178.2990  142.3160 N   0  0  0  0  0  1  0  0  0  0  0  0
  190.3560  174.8520  142.5590 C   0  0  0  0  0  2  0  0  0  0  0  0
  188.0260  177.8960  145.6570 N   0  0  0  0  0  0  0  0  0  0  0  0
  189.1890  176.5320  144.0030 C   0  0  1  0  0  3  0  0  0  0  0  0
  185.6260  177.2680  142.8560 C   0  0  0  0  0  3  0  0  0  0  0  0
  186.8980  178.0220  144.7780 C   0  0  0  0  0  0  0  0  0  0  0  0
  185.8980  178.9540  145.0690 C   0  0  0  0  0  3  0  0  0  0  0  0
  190.1420  175.3340  143.9980 C   0  0  0  0  0  2  0  0  0  0  0  0
  189.0310  174.4620  141.8920 C   0  0  2  0  0  3  0  0  0  0  0  0
  190.1440  177.0880  146.2560 O   0  0  0  0  0  0  0  0  0  0  0  0
  190.0460  176.3870  147.4890 C   0  0  0  0  0  2  0  0  0  0  0  0
  191.2360  175.4570  147.6550 C   0  0  0  0  0  2  0  0  0  0  0  0
  192.4520  175.9750  146.8960 C   0  0  0  0  0  2  0  0  0  0  0  0
  193.1640  174.8580  146.1460 C   0  0  0  0  0  2  0  0  0  0  0  0
  193.4140  176.7670  144.8390 C   0  0  0  0  0  1  0  0  0  0  0  0
  193.8550  175.3920  144.9840 N   0  0  0  0  0  0  0  0  0  0  0  0
  195.2710  175.4490  145.3230 C   0  0  0  0  0  2  0  0  0  0  0  0
  195.9830  174.1490  144.9570 C   0  0  2  0  0  3  0  0  0  0  0  0
  196.8660  173.6720  146.0950 C   0  0  0  0  0  1  0  0  0  0  0  0
  196.7460  174.3170  143.8020 O   0  0  0  0  0  1  0  0  0  0  0  0
  189.2610  174.1570  140.4870 N   0  0  0  0  0  2  0  0  0  0  0  0
  188.6370  172.8720  140.2210 C   0  0  0  0  0  2  0  0  0  0  0  0
  188.1320  173.7860  138.1090 O   0  0  0  0  0  0  0  0  0  0  0  0
  188.2720  172.7750  138.7780 C   0  0  0  0  0  3  0  0  0  0  0  0
  1  5  1  0  0  0  0
  2  3  1  6  0  0  0
  2  4  1  0  0  0  0
  2 11  1  0  0  0  0
  4 13  2  0  0  0  0
  5 14  2  0  0  0  0
  6  3  2  0  0  0  0
  7 10  2  0  0  0  0
  7 17  1  0  0  0  0
  8  1  1  0  0  0  0
  9 15  1  0  0  0  0
 11 15  1  1  0  0  0
 11  7  1  0  0  0  0
 12  1  2  0  0  0  0
 12  4  1  0  0  0  0
 13 14  1  0  0  0  0
 13 10  1  0  0  0  0
 16 28  1  6  0  0  0
 16  3  1  0  0  0  0
 16  9  1  0  0  0  0
 17 18  1  0  0  0  0
 18 19  1  0  0  0  0
 20 19  1  0  0  0  0
 21 20  1  0  0  0  0
 22 23  1  0  0  0  0
 23 24  1  0  0  0  0
 23 21  1  0  0  0  0
 25 24  1  0  0  0  0
 25 26  1  1  0  0  0
 27 25  1  0  0  0  0
 29 28  1  0  0  0  0
 30 31  2  0  0  0  0
 31 29  1  0  0  0  0
M  END
>  <MODEL>
1

>  <REMARK>
 VINA RESULT:      -6.3      0.000      0.000
  Name = 
  11 active torsions:
  status: ('A' for Active; 'I' for Inactive)
    1  A    between atoms: C_1  and  C_24
    2  A    between atoms: C_3  and  C_9
    3  A    between atoms: C_3  and  C_22
    4  A    between atoms: C_7  and  C_9
    5  A    between atoms: C_7  and  O_23
    6  A    between atoms: C_15  and  O_23
    7  A    between atoms: C_18  and  C_26
    8  A    between atoms: N_19  and  C_22
    9  A    between atoms: N_19  and  C_24
   10  A    between atoms: C_26  and  N_31
   11  A    between atoms: C_30  and  N_31
                            x       y       z     vdW  Elec       q    Type
                         _______ _______ _______ _____ _____    ______ ____

>  <TORSDO>
F 11

$$$$
=
 OpenBabel11052417423D

 31 33  0  0  1  0  0  0  0  0999 V2000
  184.9290  178.3940  144.5070 C   0  0  0  0  0  0  0  0  0  0  0  0
  187.4670  175.6150  143.8050 C   0  0  2  0  0  3  0  0  0  0  0  0
  187.5640  175.6040  142.2970 C   0  0  0  0  0  0  0  0  0  0  0  0
  186.7330  176.7680  144.4530 C   0  0  0  0  0  0  0  0  0  0  0  0
  185.2480  178.7120  145.8310 C   0  0  0  0  0  3  0  0  0  0  0  0
  187.1320  176.5200  141.6090 O   0  0  0  0  0  0  0  0  0  0  0  0
  188.9130  175.5760  145.8750 C   0  0  0  0  0  0  0  0  0  0  0  0
  183.8530  179.0600  143.8570 N   0  0  0  0  0  1  0  0  0  0  0  0
  189.6240  174.2010  142.3380 C   0  0  0  0  0  2  0  0  0  0  0  0
  188.0710  176.3620  146.4860 N   0  0  0  0  0  0  0  0  0  0  0  0
  188.8880  175.4620  144.3710 C   0  0  1  0  0  3  0  0  0  0  0  0
  185.6540  177.4130  143.8290 C   0  0  0  0  0  3  0  0  0  0  0  0
  187.0320  177.0740  145.7970 C   0  0  0  0  0  0  0  0  0  0  0  0
  186.2940  178.0460  146.4760 C   0  0  0  0  0  3  0  0  0  0  0  0
  189.5060  174.1580  143.8650 C   0  0  0  0  0  2  0  0  0  0  0  0
  188.2580  174.4200  141.6730 C   0  0  2  0  0  3  0  0  0  0  0  0
  189.9010  174.9010  146.5970 O   0  0  0  0  0  0  0  0  0  0  0  0
  190.5960  175.4990  147.6840 C   0  0  0  0  0  2  0  0  0  0  0  0
  191.9560  175.9970  147.2220 C   0  0  0  0  0  2  0  0  0  0  0  0
  192.6880  174.9310  146.4160 C   0  0  0  0  0  2  0  0  0  0  0  0
  194.0740  175.3990  145.9940 C   0  0  0  0  0  2  0  0  0  0  0  0
  194.8580  177.5630  145.6520 C   0  0  0  0  0  1  0  0  0  0  0  0
  193.9700  176.5500  145.1120 N   0  0  0  0  0  0  0  0  0  0  0  0
  194.5340  176.1520  143.8290 C   0  0  0  0  0  2  0  0  0  0  0  0
  193.4500  176.0130  142.7640 C   0  0  2  0  0  3  0  0  0  0  0  0
  192.2020  176.7830  143.1530 C   0  0  0  0  0  1  0  0  0  0  0  0
  193.1350  174.6710  142.5560 O   0  0  0  0  0  1  0  0  0  0  0  0
  188.4360  174.6060  140.2400 N   0  0  0  0  0  2  0  0  0  0  0  0
  188.3450  173.2930  139.6240 C   0  0  0  0  0  2  0  0  0  0  0  0
  189.0200  174.3060  137.6060 O   0  0  0  0  0  0  0  0  0  0  0  0
  188.3580  173.4280  138.1380 C   0  0  0  0  0  3  0  0  0  0  0  0
  1  5  1  0  0  0  0
  2  3  1  6  0  0  0
  2 11  1  0  0  0  0
  2  4  1  0  0  0  0
  4 13  2  0  0  0  0
  5 14  2  0  0  0  0
  6  3  2  0  0  0  0
  7 10  2  0  0  0  0
  7 17  1  0  0  0  0
  8  1  1  0  0  0  0
  9 15  1  0  0  0  0
 11 15  1  1  0  0  0
 11  7  1  0  0  0  0
 12  4  1  0  0  0  0
 12  1  2  0  0  0  0
 13 14  1  0  0  0  0
 13 10  1  0  0  0  0
 16 28  1  6  0  0  0
 16  3  1  0  0  0  0
 16  9  1  0  0  0  0
 17 18  1  0  0  0  0
 19 18  1  0  0  0  0
 20 19  1  0  0  0  0
 21 20  1  0  0  0  0
 23 22  1  0  0  0  0
 23 21  1  0  0  0  0
 24 23  1  0  0  0  0
 25 26  1  1  0  0  0
 25 24  1  0  0  0  0
 27 25  1  0  0  0  0
 29 28  1  0  0  0  0
 30 31  2  0  0  0  0
 31 29  1  0  0  0  0
M  END
>  <MODEL>
2

>  <REMARK>
 VINA RESULT:      -6.3      1.511      1.948
  Name = 
  11 active torsions:
  status: ('A' for Active; 'I' for Inactive)
    1  A    between atoms: C_1  and  C_24
    2  A    between atoms: C_3  and  C_9
    3  A    between atoms: C_3  and  C_22
    4  A    between atoms: C_7  and  C_9
    5  A    between atoms: C_7  and  O_23
    6  A    between atoms: C_15  and  O_23
    7  A    between atoms: C_18  and  C_26
    8  A    between atoms: N_19  and  C_22
    9  A    between atoms: N_19  and  C_24
   10  A    between atoms: C_26  and  N_31
   11  A    between atoms: C_30  and  N_31
                            x       y       z     vdW  Elec       q    Type
                         _______ _______ _______ _____ _____    ______ ____

>  <TORSDO>
F 11

$$$$
=
 OpenBabel11052417423D

 31 33  0  0  1  0  0  0  0  0999 V2000
  189.5380  172.5810  141.4390 C   0  0  0  0  0  0  0  0  0  0  0  0
  188.9330  175.7620  143.4830 C   0  0  2  0  0  3  0  0  0  0  0  0
  187.9390  176.5320  142.6430 C   0  0  0  0  0  0  0  0  0  0  0  0
  189.2130  174.3260  143.0980 C   0  0  0  0  0  0  0  0  0  0  0  0
  190.0120  171.7190  142.4320 C   0  0  0  0  0  3  0  0  0  0  0  0
  187.3200  176.0110  141.7250 O   0  0  0  0  0  0  0  0  0  0  0  0
  189.3660  175.0450  145.8640 C   0  0  0  0  0  0  0  0  0  0  0  0
  189.4560  172.1350  140.0910 N   0  0  0  0  0  1  0  0  0  0  0  0
  187.4080  178.0880  144.5160 C   0  0  0  0  0  2  0  0  0  0  0  0
  189.8690  173.9190  145.4410 N   0  0  0  0  0  0  0  0  0  0  0  0
  188.5000  175.8770  144.9520 C   0  0  1  0  0  3  0  0  0  0  0  0
  189.1600  173.8840  141.7670 C   0  0  0  0  0  3  0  0  0  0  0  0
  189.7180  173.4600  144.0900 C   0  0  0  0  0  0  0  0  0  0  0  0
  190.1090  172.1610  143.7540 C   0  0  0  0  0  3  0  0  0  0  0  0
  188.4530  177.3510  145.3610 C   0  0  0  0  0  2  0  0  0  0  0  0
  187.7140  177.9750  143.0170 C   0  0  2  0  0  3  0  0  0  0  0  0
  189.5500  175.4470  147.1900 O   0  0  0  0  0  0  0  0  0  0  0  0
  190.8190  175.4110  147.8300 C   0  0  0  0  0  2  0  0  0  0  0  0
  191.8320  176.2090  147.0260 C   0  0  0  0  0  2  0  0  0  0  0  0
  193.0070  175.3370  146.5980 C   0  0  0  0  0  2  0  0  0  0  0  0
  194.1920  176.1760  146.1440 C   0  0  0  0  0  2  0  0  0  0  0  0
  195.8870  174.8510  145.2580 C   0  0  0  0  0  1  0  0  0  0  0  0
  194.7320  175.6540  144.8990 N   0  0  0  0  0  0  0  0  0  0  0  0
  193.7410  174.7310  144.3630 C   0  0  0  0  0  2  0  0  0  0  0  0
  193.3850  175.0740  142.9190 C   0  0  2  0  0  3  0  0  0  0  0  0
  192.4490  176.2660  142.8560 C   0  0  0  0  0  1  0  0  0  0  0  0
  192.8020  173.9780  142.2840 O   0  0  0  0  0  1  0  0  0  0  0  0
  186.6210  178.5550  142.2500 N   0  0  0  0  0  2  0  0  0  0  0  0
  185.5420  178.8310  143.1850 C   0  0  0  0  0  2  0  0  0  0  0  0
  183.7910  178.2170  141.7320 O   0  0  0  0  0  0  0  0  0  0  0  0
  184.3330  178.0400  142.8120 C   0  0  0  0  0  3  0  0  0  0  0  0
  1 12  2  0  0  0  0
  1  5  1  0  0  0  0
  2  3  1  6  0  0  0
  2 11  1  0  0  0  0
  3 16  1  0  0  0  0
  4  2  1  0  0  0  0
  4 13  2  0  0  0  0
  5 14  2  0  0  0  0
  6  3  2  0  0  0  0
  7 17  1  0  0  0  0
  8  1  1  0  0  0  0
  9 15  1  0  0  0  0
 10  7  2  0  0  0  0
 11 15  1  1  0  0  0
 11  7  1  0  0  0  0
 12  4  1  0  0  0  0
 13 10  1  0  0  0  0
 14 13  1  0  0  0  0
 16 28  1  6  0  0  0
 16  9  1  0  0  0  0
 17 18  1  0  0  0  0
 19 18  1  0  0  0  0
 20 19  1  0  0  0  0
 21 20  1  0  0  0  0
 23 22  1  0  0  0  0
 23 21  1  0  0  0  0
 24 23  1  0  0  0  0
 25 26  1  1  0  0  0
 25 24  1  0  0  0  0
 27 25  1  0  0  0  0
 28 29  1  0  0  0  0
 30 31  2  0  0  0  0
 31 29  1  0  0  0  0
M  END
>  <MODEL>
3

>  <REMARK>
 VINA RESULT:      -6.3      2.048      4.814
  Name = 
  11 active torsions:
  status: ('A' for Active; 'I' for Inactive)
    1  A    between atoms: C_1  and  C_24
    2  A    between atoms: C_3  and  C_9
    3  A    between atoms: C_3  and  C_22
    4  A    between atoms: C_7  and  C_9
    5  A    between atoms: C_7  and  O_23
    6  A    between atoms: C_15  and  O_23
    7  A    between atoms: C_18  and  C_26
    8  A    between atoms: N_19  and  C_22
    9  A    between atoms: N_19  and  C_24
   10  A    between atoms: C_26  and  N_31
   11  A    between atoms: C_30  and  N_31
                            x       y       z     vdW  Elec       q    Type
                         _______ _______ _______ _____ _____    ______ ____

>  <TORSDO>
F 11

$$$$
=
 OpenBabel11052417423D

 31 33  0  0  1  0  0  0  0  0999 V2000
  190.0280  172.4870  140.6610 C   0  0  0  0  0  0  0  0  0  0  0  0
  189.5860  175.5450  142.9240 C   0  0  2  0  0  3  0  0  0  0  0  0
  190.8760  175.5860  143.7110 C   0  0  0  0  0  0  0  0  0  0  0  0
  189.5130  174.6010  141.7440 C   0  0  0  0  0  0  0  0  0  0  0  0
  189.1130  172.7790  139.6460 C   0  0  0  0  0  3  0  0  0  0  0  0
  191.8610  174.9380  143.3820 O   0  0  0  0  0  0  0  0  0  0  0  0
  188.0210  177.0400  141.6240 C   0  0  0  0  0  0  0  0  0  0  0  0
  190.7610  171.2680  140.6290 N   0  0  0  0  0  1  0  0  0  0  0  0
  190.4310  177.9020  144.5160 C   0  0  0  0  0  2  0  0  0  0  0  0
  187.7770  176.0700  140.7880 N   0  0  0  0  0  0  0  0  0  0  0  0
  189.2360  176.9840  142.5160 C   0  0  1  0  0  3  0  0  0  0  0  0
  190.2130  173.3840  141.7150 C   0  0  0  0  0  3  0  0  0  0  0  0
  188.5720  174.8760  140.7320 C   0  0  0  0  0  0  0  0  0  0  0  0
  188.3800  173.9680  139.6860 C   0  0  0  0  0  3  0  0  0  0  0  0
  189.0950  177.8540  143.7670 C   0  0  0  0  0  2  0  0  0  0  0  0
  190.9060  176.4980  144.9110 C   0  0  2  0  0  3  0  0  0  0  0  0
  187.2100  178.1780  141.6410 O   0  0  0  0  0  0  0  0  0  0  0  0
  185.8410  178.1470  141.2560 C   0  0  0  0  0  2  0  0  0  0  0  0
  184.9920  177.6020  142.3930 C   0  0  0  0  0  2  0  0  0  0  0  0
  184.4610  178.7270  143.2730 C   0  0  0  0  0  2  0  0  0  0  0  0
  185.5640  179.3460  144.1200 C   0  0  0  0  0  2  0  0  0  0  0  0
  183.9600  178.8540  145.7330 C   0  0  0  0  0  1  0  0  0  0  0  0
  185.3890  178.9840  145.5170 N   0  0  0  0  0  0  0  0  0  0  0  0
  185.9520  177.6500  145.6830 C   0  0  0  0  0  2  0  0  0  0  0  0
  186.9350  177.6020  146.8490 C   0  0  2  0  0  3  0  0  0  0  0  0
  187.6240  176.2520  146.9250 C   0  0  0  0  0  1  0  0  0  0  0  0
  186.2830  177.8710  148.0520 O   0  0  0  0  0  1  0  0  0  0  0  0
  192.2440  176.5770  145.4810 N   0  0  0  0  0  2  0  0  0  0  0  0
  192.1830  175.9660  146.7980 C   0  0  0  0  0  2  0  0  0  0  0  0
  191.4970  177.0760  148.7600 O   0  0  0  0  0  0  0  0  0  0  0  0
  191.1880  176.6860  147.6460 C   0  0  0  0  0  3  0  0  0  0  0  0
  1 12  1  0  0  0  0
  2  4  1  6  0  0  0
  2  3  1  0  0  0  0
  3 16  1  0  0  0  0
  5 14  1  0  0  0  0
  5  1  2  0  0  0  0
  6  3  2  0  0  0  0
  7 17  1  0  0  0  0
  7 11  1  0  0  0  0
  8  1  1  0  0  0  0
  9 16  1  0  0  0  0
 10  7  2  0  0  0  0
 11  2  1  0  0  0  0
 11 15  1  1  0  0  0
 12  4  2  0  0  0  0
 13 10  1  0  0  0  0
 13  4  1  0  0  0  0
 14 13  2  0  0  0  0
 15  9  1  0  0  0  0
 16 28  1  6  0  0  0
 18 17  1  0  0  0  0
 18 19  1  0  0  0  0
 19 20  1  0  0  0  0
 20 21  1  0  0  0  0
 21 23  1  0  0  0  0
 23 24  1  0  0  0  0
 23 22  1  0  0  0  0
 24 25  1  0  0  0  0
 25 26  1  1  0  0  0
 25 27  1  0  0  0  0
 28 29  1  0  0  0  0
 29 31  1  0  0  0  0
 31 30  2  0  0  0  0
M  END
>  <MODEL>
4

>  <REMARK>
 VINA RESULT:      -6.2      2.540      7.605
  Name = 
  11 active torsions:
  status: ('A' for Active; 'I' for Inactive)
    1  A    between atoms: C_1  and  C_24
    2  A    between atoms: C_3  and  C_9
    3  A    between atoms: C_3  and  C_22
    4  A    between atoms: C_7  and  C_9
    5  A    between atoms: C_7  and  O_23
    6  A    between atoms: C_15  and  O_23
    7  A    between atoms: C_18  and  C_26
    8  A    between atoms: N_19  and  C_22
    9  A    between atoms: N_19  and  C_24
   10  A    between atoms: C_26  and  N_31
   11  A    between atoms: C_30  and  N_31
                            x       y       z     vdW  Elec       q    Type
                         _______ _______ _______ _____ _____    ______ ____

>  <TORSDO>
F 11

$$$$
=
 OpenBabel11052417423D

 31 33  0  0  1  0  0  0  0  0999 V2000
  194.6700  176.3650  144.7130 C   0  0  0  0  0  0  0  0  0  0  0  0
  191.0070  175.8120  143.7430 C   0  0  2  0  0  3  0  0  0  0  0  0
  191.1010  174.9580  142.4990 C   0  0  0  0  0  0  0  0  0  0  0  0
  192.2710  176.0190  144.5490 C   0  0  0  0  0  0  0  0  0  0  0  0
  194.5370  176.6830  146.0680 C   0  0  0  0  0  3  0  0  0  0  0  0
  192.1350  174.3890  142.1760 O   0  0  0  0  0  0  0  0  0  0  0  0
  189.7680  175.9720  145.9370 C   0  0  0  0  0  0  0  0  0  0  0  0
  195.9560  176.3740  144.1040 N   0  0  0  0  0  1  0  0  0  0  0  0
  188.6790  174.3740  142.5940 C   0  0  0  0  0  2  0  0  0  0  0  0
  190.8420  176.4280  146.5180 N   0  0  0  0  0  0  0  0  0  0  0  0
  189.8690  175.2560  144.6130 C   0  0  1  0  0  3  0  0  0  0  0  0
  193.5400  176.0550  143.9530 C   0  0  0  0  0  3  0  0  0  0  0  0
  192.1400  176.3670  145.9090 C   0  0  0  0  0  0  0  0  0  0  0  0
  193.2720  176.6910  146.6620 C   0  0  0  0  0  3  0  0  0  0  0  0
  188.5590  175.2810  143.8240 C   0  0  0  0  0  2  0  0  0  0  0  0
  189.8390  174.8060  141.6880 C   0  0  2  0  0  3  0  0  0  0  0  0
  188.5270  176.0640  146.5730 O   0  0  0  0  0  0  0  0  0  0  0  0
  187.7950  177.2810  146.6500 C   0  0  0  0  0  2  0  0  0  0  0  0
  186.3390  176.9940  146.9750 C   0  0  0  0  0  2  0  0  0  0  0  0
  185.4050  177.8300  146.1080 C   0  0  0  0  0  2  0  0  0  0  0  0
  185.4240  177.3700  144.6570 C   0  0  0  0  0  2  0  0  0  0  0  0
  185.5690  179.6900  144.5630 C   0  0  0  0  0  1  0  0  0  0  0  0
  185.2900  178.5110  143.7660 N   0  0  0  0  0  0  0  0  0  0  0  0
  186.3650  178.4120  142.7880 C   0  0  0  0  0  2  0  0  0  0  0  0
  185.9420  177.5840  141.5770 C   0  0  2  0  0  3  0  0  0  0  0  0
  187.1290  177.2810  140.6820 C   0  0  0  0  0  1  0  0  0  0  0  0
  184.9550  178.2480  140.8490 O   0  0  0  0  0  1  0  0  0  0  0  0
  190.0130  173.8330  140.6190 N   0  0  0  0  0  2  0  0  0  0  0  0
  189.4550  172.5760  141.0910 C   0  0  0  0  0  2  0  0  0  0  0  0
  190.4080  170.5150  141.7230 O   0  0  0  0  0  0  0  0  0  0  0  0
  190.4860  171.5010  141.0070 C   0  0  0  0  0  3  0  0  0  0  0  0
  1  5  1  0  0  0  0
  2  3  1  6  0  0  0
  2  4  1  0  0  0  0
  2 11  1  0  0  0  0
  4 13  2  0  0  0  0
  5 14  2  0  0  0  0
  6  3  2  0  0  0  0
  7 10  2  0  0  0  0
  7 17  1  0  0  0  0
  8  1  1  0  0  0  0
  9 15  1  0  0  0  0
 11 15  1  6  0  0  0
 11  7  1  0  0  0  0
 12  4  1  0  0  0  0
 12  1  2  0  0  0  0
 13 10  1  0  0  0  0
 13 14  1  0  0  0  0
 16 28  1  6  0  0  0
 16  3  1  0  0  0  0
 16  9  1  0  0  0  0
 17 18  1  0  0  0  0
 18 19  1  0  0  0  0
 20 19  1  0  0  0  0
 21 20  1  0  0  0  0
 23 22  1  0  0  0  0
 23 21  1  0  0  0  0
 24 23  1  0  0  0  0
 25 26  1  6  0  0  0
 25 24  1  0  0  0  0
 27 25  1  0  0  0  0
 28 29  1  0  0  0  0
 31 29  1  0  0  0  0
 31 30  2  0  0  0  0
M  END
>  <MODEL>
5

>  <REMARK>
 VINA RESULT:      -6.1      2.244      6.976
  Name = 
  11 active torsions:
  status: ('A' for Active; 'I' for Inactive)
    1  A    between atoms: C_1  and  C_24
    2  A    between atoms: C_3  and  C_9
    3  A    between atoms: C_3  and  C_22
    4  A    between atoms: C_7  and  C_9
    5  A    between atoms: C_7  and  O_23
    6  A    between atoms: C_15  and  O_23
    7  A    between atoms: C_18  and  C_26
    8  A    between atoms: N_19  and  C_22
    9  A    between atoms: N_19  and  C_24
   10  A    between atoms: C_26  and  N_31
   11  A    between atoms: C_30  and  N_31
                            x       y       z     vdW  Elec       q    Type
                         _______ _______ _______ _____ _____    ______ ____

>  <TORSDO>
F 11

$$$$
=
 OpenBabel11052417423D

 31 33  0  0  1  0  0  0  0  0999 V2000
  189.0870  172.7500  141.2880 C   0  0  0  0  0  0  0  0  0  0  0  0
  188.8320  175.7020  143.7140 C   0  0  2  0  0  3  0  0  0  0  0  0
  187.6150  176.4530  143.2230 C   0  0  0  0  0  0  0  0  0  0  0  0
  189.0890  174.3280  143.1370 C   0  0  0  0  0  0  0  0  0  0  0  0
  189.8460  171.8540  142.0460 C   0  0  0  0  0  3  0  0  0  0  0  0
  186.8160  175.9580  142.4390 O   0  0  0  0  0  0  0  0  0  0  0  0
  189.8920  174.8370  145.8360 C   0  0  0  0  0  0  0  0  0  0  0  0
  188.6940  172.4070  139.9650 N   0  0  0  0  0  1  0  0  0  0  0  0
  187.4840  177.8090  145.3100 C   0  0  0  0  0  2  0  0  0  0  0  0
  190.3370  173.7920  145.1960 N   0  0  0  0  0  0  0  0  0  0  0  0
  188.7770  175.6660  145.2490 C   0  0  1  0  0  3  0  0  0  0  0  0
  188.7280  173.9890  141.8230 C   0  0  0  0  0  3  0  0  0  0  0  0
  189.8780  173.4300  143.8850 C   0  0  0  0  0  0  0  0  0  0  0  0
  190.2470  172.1980  143.3410 C   0  0  0  0  0  3  0  0  0  0  0  0
  188.7490  177.0950  145.7970 C   0  0  0  0  0  2  0  0  0  0  0  0
  187.4080  177.8390  143.7780 C   0  0  2  0  0  3  0  0  0  0  0  0
  190.3800  175.1470  147.1080 O   0  0  0  0  0  0  0  0  0  0  0  0
  191.7660  175.3230  147.3730 C   0  0  0  0  0  2  0  0  0  0  0  0
  192.3270  176.4340  146.5000 C   0  0  0  0  0  2  0  0  0  0  0  0
  193.8100  176.6540  146.7730 C   0  0  0  0  0  2  0  0  0  0  0  0
  194.6650  175.5600  146.1500 C   0  0  0  0  0  2  0  0  0  0  0  0
  195.4640  176.4080  144.1360 C   0  0  0  0  0  1  0  0  0  0  0  0
  194.4670  175.5240  144.7100 N   0  0  0  0  0  0  0  0  0  0  0  0
  194.8090  174.1780  144.2700 C   0  0  0  0  0  2  0  0  0  0  0  0
  194.6590  173.1670  145.4020 C   0  0  2  0  0  3  0  0  0  0  0  0
  195.8740  172.2600  145.4880 C   0  0  0  0  0  1  0  0  0  0  0  0
  193.5070  172.4010  145.2280 O   0  0  0  0  0  1  0  0  0  0  0  0
  186.1240  178.3870  143.3620 N   0  0  0  0  0  2  0  0  0  0  0  0
  185.7650  179.4130  144.3280 C   0  0  0  0  0  2  0  0  0  0  0  0
  183.9340  178.9590  145.7420 O   0  0  0  0  0  0  0  0  0  0  0  0
  184.3080  179.3280  144.6390 C   0  0  0  0  0  3  0  0  0  0  0  0
  1 12  2  0  0  0  0
  1  5  1  0  0  0  0
  2  4  1  6  0  0  0
  2 11  1  0  0  0  0
  3  2  1  0  0  0  0
  3 16  1  0  0  0  0
  4 13  2  0  0  0  0
  5 14  2  0  0  0  0
  6  3  2  0  0  0  0
  7 17  1  0  0  0  0
  8  1  1  0  0  0  0
  9 15  1  0  0  0  0
 10  7  2  0  0  0  0
 11 15  1  1  0  0  0
 11  7  1  0  0  0  0
 12  4  1  0  0  0  0
 13 10  1  0  0  0  0
 14 13  1  0  0  0  0
 16 28  1  1  0  0  0
 16  9  1  0  0  0  0
 17 18  1  0  0  0  0
 19 20  1  0  0  0  0
 19 18  1  0  0  0  0
 21 20  1  0  0  0  0
 22 23  1  0  0  0  0
 23 21  1  0  0  0  0
 24 23  1  0  0  0  0
 24 25  1  0  0  0  0
 25 26  1  6  0  0  0
 27 25  1  0  0  0  0
 28 29  1  0  0  0  0
 29 31  1  0  0  0  0
 31 30  2  0  0  0  0
M  END
>  <MODEL>
6

>  <REMARK>
 VINA RESULT:      -6.1      2.108      4.988
  Name = 
  11 active torsions:
  status: ('A' for Active; 'I' for Inactive)
    1  A    between atoms: C_1  and  C_24
    2  A    between atoms: C_3  and  C_9
    3  A    between atoms: C_3  and  C_22
    4  A    between atoms: C_7  and  C_9
    5  A    between atoms: C_7  and  O_23
    6  A    between atoms: C_15  and  O_23
    7  A    between atoms: C_18  and  C_26
    8  A    between atoms: N_19  and  C_22
    9  A    between atoms: N_19  and  C_24
   10  A    between atoms: C_26  and  N_31
   11  A    between atoms: C_30  and  N_31
                            x       y       z     vdW  Elec       q    Type
                         _______ _______ _______ _____ _____    ______ ____

>  <TORSDO>
F 11

$$$$
=
 OpenBabel11052417423D

 31 33  0  0  1  0  0  0  0  0999 V2000
  186.0140  178.2600  146.9540 C   0  0  0  0  0  0  0  0  0  0  0  0
  186.5120  177.3300  143.2720 C   0  0  2  0  0  3  0  0  0  0  0  0
  185.4260  178.1090  142.5660 C   0  0  0  0  0  0  0  0  0  0  0  0
  186.7740  177.6530  144.7270 C   0  0  0  0  0  0  0  0  0  0  0  0
  187.2790  177.9650  147.4710 C   0  0  0  0  0  3  0  0  0  0  0  0
  184.8160  179.0190  143.1120 O   0  0  0  0  0  0  0  0  0  0  0  0
  188.9720  176.7870  143.1100 C   0  0  0  0  0  0  0  0  0  0  0  0
  184.9830  178.7230  147.8170 N   0  0  0  0  0  1  0  0  0  0  0  0
  186.4600  177.7220  140.3310 C   0  0  0  0  0  2  0  0  0  0  0  0
  189.0670  176.8000  144.4110 N   0  0  0  0  0  0  0  0  0  0  0  0
  187.7940  177.4380  142.4310 C   0  0  1  0  0  3  0  0  0  0  0  0
  185.7580  178.0850  145.5920 C   0  0  0  0  0  3  0  0  0  0  0  0
  188.0390  177.3310  145.2600 C   0  0  0  0  0  0  0  0  0  0  0  0
  188.2880  177.4940  146.6250 C   0  0  0  0  0  3  0  0  0  0  0  0
  187.5370  176.8840  141.0290 C   0  0  0  0  0  2  0  0  0  0  0  0
  185.1510  177.7350  141.1310 C   0  0  2  0  0  3  0  0  0  0  0  0
  190.0010  176.2500  142.3320 O   0  0  0  0  0  0  0  0  0  0  0  0
  190.7020  175.0690  142.7010 C   0  0  0  0  0  2  0  0  0  0  0  0
  192.1920  175.2520  142.4670 C   0  0  0  0  0  2  0  0  0  0  0  0
  193.0110  174.5180  143.5220 C   0  0  0  0  0  2  0  0  0  0  0  0
  192.1410  174.0410  144.6770 C   0  0  0  0  0  2  0  0  0  0  0  0
  194.0480  174.9310  145.6690 C   0  0  0  0  0  1  0  0  0  0  0  0
  192.6900  174.4980  145.9430 N   0  0  0  0  0  0  0  0  0  0  0  0
  191.9470  175.6920  146.3210 C   0  0  0  0  0  2  0  0  0  0  0  0
  191.3070  175.5370  147.6980 C   0  0  2  0  0  3  0  0  0  0  0  0
  189.9270  174.9150  147.5910 C   0  0  0  0  0  1  0  0  0  0  0  0
  191.2230  176.7710  148.3420 O   0  0  0  0  0  1  0  0  0  0  0  0
  184.2100  178.6610  140.5160 N   0  0  0  0  0  2  0  0  0  0  0  0
  182.9700  177.9330  140.3070 C   0  0  0  0  0  2  0  0  0  0  0  0
  181.0250  177.9300  141.6380 O   0  0  0  0  0  0  0  0  0  0  0  0
  181.8600  178.5990  141.0500 C   0  0  0  0  0  3  0  0  0  0  0  0
  1  5  1  0  0  0  0
  1  8  1  0  0  0  0
  2  3  1  6  0  0  0
  2  4  1  0  0  0  0
  3  6  2  0  0  0  0
  4 13  2  0  0  0  0
  4 12  1  0  0  0  0
  7 10  2  0  0  0  0
  9 15  1  0  0  0  0
  9 16  1  0  0  0  0
 10 13  1  0  0  0  0
 11 15  1  6  0  0  0
 11  7  1  0  0  0  0
 11  2  1  0  0  0  0
 12  1  2  0  0  0  0
 13 14  1  0  0  0  0
 14  5  2  0  0  0  0
 16 28  1  6  0  0  0
 16  3  1  0  0  0  0
 17 18  1  0  0  0  0
 17  7  1  0  0  0  0
 19 18  1  0  0  0  0
 19 20  1  0  0  0  0
 20 21  1  0  0  0  0
 21 23  1  0  0  0  0
 22 23  1  0  0  0  0
 23 24  1  0  0  0  0
 24 25  1  0  0  0  0
 25 26  1  6  0  0  0
 25 27  1  0  0  0  0
 29 28  1  0  0  0  0
 29 31  1  0  0  0  0
 31 30  2  0  0  0  0
M  END
>  <MODEL>
7

>  <REMARK>
 VINA RESULT:      -6.1      2.592      4.830
  Name = 
  11 active torsions:
  status: ('A' for Active; 'I' for Inactive)
    1  A    between atoms: C_1  and  C_24
    2  A    between atoms: C_3  and  C_9
    3  A    between atoms: C_3  and  C_22
    4  A    between atoms: C_7  and  C_9
    5  A    between atoms: C_7  and  O_23
    6  A    between atoms: C_15  and  O_23
    7  A    between atoms: C_18  and  C_26
    8  A    between atoms: N_19  and  C_22
    9  A    between atoms: N_19  and  C_24
   10  A    between atoms: C_26  and  N_31
   11  A    between atoms: C_30  and  N_31
                            x       y       z     vdW  Elec       q    Type
                         _______ _______ _______ _____ _____    ______ ____

>  <TORSDO>
F 11

$$$$
=
 OpenBabel11052417423D

 31 33  0  0  1  0  0  0  0  0999 V2000
  188.8440  174.5360  140.9050 C   0  0  0  0  0  0  0  0  0  0  0  0
  188.3620  176.4360  144.1950 C   0  0  2  0  0  3  0  0  0  0  0  0
  186.8720  176.6810  144.2420 C   0  0  0  0  0  0  0  0  0  0  0  0
  188.8850  175.4820  143.1430 C   0  0  0  0  0  0  0  0  0  0  0  0
  190.0680  173.9050  141.1450 C   0  0  0  0  0  3  0  0  0  0  0  0
  186.0900  176.0870  143.5090 O   0  0  0  0  0  0  0  0  0  0  0  0
  190.2770  175.6440  145.6390 C   0  0  0  0  0  0  0  0  0  0  0  0
  188.1950  174.3750  139.6500 N   0  0  0  0  0  1  0  0  0  0  0  0
  186.9480  177.3210  146.6490 C   0  0  0  0  0  2  0  0  0  0  0  0
  190.8300  175.0740  144.6050 N   0  0  0  0  0  0  0  0  0  0  0  0
  188.8170  176.0230  145.6040 C   0  0  1  0  0  3  0  0  0  0  0  0
  188.2660  175.3370  141.8920 C   0  0  0  0  0  3  0  0  0  0  0  0
  190.1320  174.8650  143.3680 C   0  0  0  0  0  0  0  0  0  0  0  0
  190.7150  174.0760  142.3730 C   0  0  0  0  0  3  0  0  0  0  0  0
  188.4680  177.1300  146.6020 C   0  0  0  0  0  2  0  0  0  0  0  0
  186.3810  177.6710  145.2670 C   0  0  2  0  0  3  0  0  0  0  0  0
  191.0050  175.8290  146.8170 O   0  0  0  0  0  0  0  0  0  0  0  0
  192.3340  175.3490  146.9780 C   0  0  0  0  0  2  0  0  0  0  0  0
  193.3210  176.4980  146.8610 C   0  0  0  0  0  2  0  0  0  0  0  0
  194.4580  176.1540  145.9060 C   0  0  0  0  0  2  0  0  0  0  0  0
  194.4300  174.6860  145.5050 C   0  0  0  0  0  2  0  0  0  0  0  0
  194.2680  173.4470  143.5430 C   0  0  0  0  0  1  0  0  0  0  0  0
  195.0130  174.5140  144.1850 N   0  0  0  0  0  0  0  0  0  0  0  0
  194.7240  175.7270  143.4330 C   0  0  0  0  0  2  0  0  0  0  0  0
  195.8380  176.0450  142.4390 C   0  0  2  0  0  3  0  0  0  0  0  0
  196.9740  176.7910  143.1140 C   0  0  0  0  0  1  0  0  0  0  0  0
  195.3450  176.7950  141.3720 O   0  0  0  0  0  1  0  0  0  0  0  0
  184.9270  177.6930  145.3260 N   0  0  0  0  0  2  0  0  0  0  0  0
  184.4980  178.9890  144.8260 C   0  0  0  0  0  2  0  0  0  0  0  0
  184.4330  178.6580  142.4930 O   0  0  0  0  0  0  0  0  0  0  0  0
  183.7940  178.8210  143.5210 C   0  0  0  0  0  3  0  0  0  0  0  0
  1  5  2  0  0  0  0
  1 12  1  0  0  0  0
  2  4  1  6  0  0  0
  2  3  1  0  0  0  0
  2 11  1  0  0  0  0
  3 16  1  0  0  0  0
  4 13  1  0  0  0  0
  5 14  1  0  0  0  0
  6  3  2  0  0  0  0
  7 17  1  0  0  0  0
  8  1  1  0  0  0  0
 10  7  2  0  0  0  0
 11  7  1  0  0  0  0
 11 15  1  1  0  0  0
 12  4  2  0  0  0  0
 13 10  1  0  0  0  0
 14 13  2  0  0  0  0
 15  9  1  0  0  0  0
 16 28  1  1  0  0  0
 16  9  1  0  0  0  0
 17 18  1  0  0  0  0
 19 18  1  0  0  0  0
 20 19  1  0  0  0  0
 21 20  1  0  0  0  0
 22 23  1  0  0  0  0
 23 21  1  0  0  0  0
 24 23  1  0  0  0  0
 25 26  1  1  0  0  0
 25 24  1  0  0  0  0
 27 25  1  0  0  0  0
 29 28  1  0  0  0  0
 30 31  2  0  0  0  0
 31 29  1  0  0  0  0
M  END
>  <MODEL>
8

>  <REMARK>
 VINA RESULT:      -6.0      2.096      4.779
  Name = 
  11 active torsions:
  status: ('A' for Active; 'I' for Inactive)
    1  A    between atoms: C_1  and  C_24
    2  A    between atoms: C_3  and  C_9
    3  A    between atoms: C_3  and  C_22
    4  A    between atoms: C_7  and  C_9
    5  A    between atoms: C_7  and  O_23
    6  A    between atoms: C_15  and  O_23
    7  A    between atoms: C_18  and  C_26
    8  A    between atoms: N_19  and  C_22
    9  A    between atoms: N_19  and  C_24
   10  A    between atoms: C_26  and  N_31
   11  A    between atoms: C_30  and  N_31
                            x       y       z     vdW  Elec       q    Type
                         _______ _______ _______ _____ _____    ______ ____

>  <TORSDO>
F 11

$$$$
=
 OpenBabel11052417423D

 31 33  0  0  1  0  0  0  0  0999 V2000
  191.2050  171.2000  142.4610 C   0  0  0  0  0  0  0  0  0  0  0  0
  192.6860  173.6200  145.0320 C   0  0  2  0  0  3  0  0  0  0  0  0
  194.0380  173.9640  144.4500 C   0  0  0  0  0  0  0  0  0  0  0  0
  191.7110  172.8710  144.1500 C   0  0  0  0  0  0  0  0  0  0  0  0
  189.8420  171.3190  142.7460 C   0  0  0  0  0  3  0  0  0  0  0  0
  194.3290  173.7160  143.2870 O   0  0  0  0  0  0  0  0  0  0  0  0
  190.6610  174.6990  146.0870 C   0  0  0  0  0  0  0  0  0  0  0  0
  191.6450  170.2950  141.4550 N   0  0  0  0  0  1  0  0  0  0  0  0
  194.3350  175.8860  146.0090 C   0  0  0  0  0  2  0  0  0  0  0  0
  189.8860  173.8240  145.5090 N   0  0  0  0  0  0  0  0  0  0  0  0
  192.0670  174.9140  145.5840 C   0  0  1  0  0  3  0  0  0  0  0  0
  192.1360  171.9570  143.1740 C   0  0  0  0  0  3  0  0  0  0  0  0
  190.3370  172.9660  144.4510 C   0  0  0  0  0  0  0  0  0  0  0  0
  189.4100  172.1950  143.7450 C   0  0  0  0  0  3  0  0  0  0  0  0
  192.9910  175.5150  146.6450 C   0  0  0  0  0  2  0  0  0  0  0  0
  195.0090  174.6670  145.3650 C   0  0  2  0  0  3  0  0  0  0  0  0
  190.1720  175.5050  147.1180 O   0  0  0  0  0  0  0  0  0  0  0  0
  189.2970  176.6010  146.8820 C   0  0  0  0  0  2  0  0  0  0  0  0
  189.8770  177.5090  145.8110 C   0  0  0  0  0  2  0  0  0  0  0  0
  188.8570  177.7920  144.7140 C   0  0  0  0  0  2  0  0  0  0  0  0
  187.8290  176.6750  144.6020 C   0  0  0  0  0  2  0  0  0  0  0  0
  186.0480  176.3200  143.1480 C   0  0  0  0  0  1  0  0  0  0  0  0
  186.5460  177.2110  144.1790 N   0  0  0  0  0  0  0  0  0  0  0  0
  185.6380  177.0770  145.3110 C   0  0  0  0  0  2  0  0  0  0  0  0
  185.3750  178.4250  145.9760 C   0  0  2  0  0  3  0  0  0  0  0  0
  185.7740  178.3990  147.4390 C   0  0  0  0  0  1  0  0  0  0  0  0
  184.0300  178.7770  145.8560 O   0  0  0  0  0  1  0  0  0  0  0  0
  196.2010  175.0910  144.6440 N   0  0  0  0  0  2  0  0  0  0  0  0
  195.9580  176.4460  144.1770 C   0  0  0  0  0  2  0  0  0  0  0  0
  196.5060  176.2700  141.8910 O   0  0  0  0  0  0  0  0  0  0  0  0
  196.8060  176.7300  142.9820 C   0  0  0  0  0  3  0  0  0  0  0  0
  1  5  2  0  0  0  0
  1 12  1  0  0  0  0
  2  4  1  6  0  0  0
  2 11  1  0  0  0  0
  3  2  1  0  0  0  0
  3 16  1  0  0  0  0
  4 13  1  0  0  0  0
  5 14  1  0  0  0  0
  6  3  2  0  0  0  0
  7 17  1  0  0  0  0
  8  1  1  0  0  0  0
  9 15  1  0  0  0  0
 10  7  2  0  0  0  0
 11  7  1  0  0  0  0
 11 15  1  1  0  0  0
 12  4  2  0  0  0  0
 13 10  1  0  0  0  0
 14 13  2  0  0  0  0
 16 28  1  6  0  0  0
 16  9  1  0  0  0  0
 18 17  1  0  0  0  0
 19 18  1  0  0  0  0
 20 19  1  0  0  0  0
 21 20  1  0  0  0  0
 22 23  1  0  0  0  0
 23 21  1  0  0  0  0
 23 24  1  0  0  0  0
 24 25  1  0  0  0  0
 25 26  1  1  0  0  0
 27 25  1  0  0  0  0
 29 28  1  0  0  0  0
 30 31  2  0  0  0  0
 31 29  1  0  0  0  0
M  END
>  <MODEL>
9

>  <REMARK>
 VINA RESULT:      -5.9      2.876      7.790
  Name = 
  11 active torsions:
  status: ('A' for Active; 'I' for Inactive)
    1  A    between atoms: C_1  and  C_24
    2  A    between atoms: C_3  and  C_9
    3  A    between atoms: C_3  and  C_22
    4  A    between atoms: C_7  and  C_9
    5  A    between atoms: C_7  and  O_23
    6  A    between atoms: C_15  and  O_23
    7  A    between atoms: C_18  and  C_26
    8  A    between atoms: N_19  and  C_22
    9  A    between atoms: N_19  and  C_24
   10  A    between atoms: C_26  and  N_31
   11  A    between atoms: C_30  and  N_31
                            x       y       z     vdW  Elec       q    Type
                         _______ _______ _______ _____ _____    ______ ____

>  <TORSDO>
F 11

$$$$
