=
 OpenBabel11052417213D

 30 32  0  0  1  0  0  0  0  0999 V2000
  186.8980  178.0830  143.3060 C   0  0  0  0  0  0  0  0  0  0  0  0
  185.1680  176.9600  146.3310 O   0  0  0  0  0  0  0  0  0  0  0  0
  186.3760  177.0050  147.0470 C   0  0  2  0  0  3  0  0  0  0  0  0
  185.5020  178.0980  143.8390 C   0  0  1  0  0  3  0  0  0  0  0  0
  187.1680  178.6810  142.2740 O   0  0  0  0  0  0  0  0  0  0  0  0
  184.7300  178.2860  146.1530 C   0  0  0  0  0  2  0  0  0  0  0  0
  185.5540  178.9820  145.0760 C   0  0  2  0  0  3  0  0  0  0  0  0
  187.9360  177.2560  144.0400 C   0  0  2  0  0  3  0  0  0  0  0  0
  187.5410  176.5560  146.1390 C   0  0  1  0  0  3  0  0  0  0  0  0
  186.2590  176.1920  148.1610 F   0  0  0  0  0  0  0  0  0  0  0  0
  184.7900  179.4390  143.8540 C   0  0  0  0  0  2  0  0  0  0  0  0
  188.0070  177.6440  145.3870 O   0  0  0  0  0  0  0  0  0  0  0  0
  189.2960  177.3390  143.4220 C   0  0  0  0  0  0  0  0  0  0  0  0
  190.1160  178.1970  143.8470 O   0  0  0  0  0  0  0  0  0  0  0  0
  189.6330  176.4860  142.3670 O   0  0  0  0  0  0  0  0  0  0  0  0
  189.3250  175.0950  142.3810 C   0  0  2  0  0  3  0  0  0  0  0  0
  190.6080  174.2710  142.2480 C   0  0  1  0  0  3  0  0  0  0  0  0
  189.9950  173.5310  144.6440 C   0  0  0  0  0  1  0  0  0  0  0  0
  191.6380  174.7550  143.2510 C   0  0  0  0  0  2  0  0  0  0  0  0
  190.9630  173.4160  143.4720 C   0  0  2  0  0  3  0  0  0  0  0  0
  188.3140  174.7290  141.2900 C   0  0  0  0  0  2  0  0  0  0  0  0
  188.5820  172.6160  139.9900 O   0  0  0  0  0  0  0  0  0  0  0  0
  187.5750  172.5860  142.0490 O   0  0  0  0  0  1  0  0  0  0  0  0
  188.1310  173.2540  141.1390 C   0  0  0  0  0  0  0  0  0  0  0  0
  188.7060  175.9940  146.9450 C   0  0  0  0  0  2  0  0  0  0  0  0
  189.7950  177.0470  147.0930 C   0  0  0  0  0  2  0  0  0  0  0  0
  191.0980  176.4600  147.6270 C   0  0  0  0  0  0  0  0  0  0  0  0
  190.8850  175.1670  148.1050 O   0  0  0  0  0  1  0  0  0  0  0  0
  192.1570  176.4320  146.5390 C   0  0  0  0  0  1  0  0  0  0  0  0
  191.5940  177.3300  148.7630 C   0  0  0  0  0  1  0  0  0  0  0  0
  1  4  1  0  0  0  0
  1  8  1  0  0  0  0
  2  3  1  0  0  0  0
  3 10  1  1  0  0  0
  4 11  1  6  0  0  0
  4  7  1  0  0  0  0
  5  1  2  0  0  0  0
  6  2  1  0  0  0  0
  7 11  1  6  0  0  0
  7  6  1  0  0  0  0
  8 13  1  6  0  0  0
  8 12  1  0  0  0  0
  9 25  1  1  0  0  0
  9  3  1  0  0  0  0
 12  9  1  0  0  0  0
 13 14  2  0  0  0  0
 15 16  1  0  0  0  0
 15 13  1  0  0  0  0
 16 21  1  6  0  0  0
 17 16  1  1  0  0  0
 17 19  1  0  0  0  0
 17 20  1  0  0  0  0
 19 20  1  0  0  0  0
 20 18  1  1  0  0  0
 22 24  2  0  0  0  0
 24 21  1  0  0  0  0
 24 23  1  0  0  0  0
 25 26  1  0  0  0  0
 26 27  1  0  0  0  0
 27 28  1  0  0  0  0
 27 30  1  0  0  0  0
 29 27  1  0  0  0  0
M  END
>  <MODEL>
1

>  <REMARK>
 VINA RESULT:      -6.9      0.000      0.000
  Name = 
  9 active torsions:
  status: ('A' for Active; 'I' for Inactive)
    1  A    between atoms: C_1  and  O_4
    2  A    between atoms: C_1  and  C_22
    3  A    between atoms: O_4  and  C_12
    4  A    between atoms: C_7  and  C_10
    5  A    between atoms: C_7  and  C_25
    6  A    between atoms: C_8  and  C_12
    7  A    between atoms: C_9  and  C_12
    8  A    between atoms: C_9  and  C_21
    9  A    between atoms: C_23  and  C_25
                            x       y       z     vdW  Elec       q    Type
                         _______ _______ _______ _____ _____    ______ ____

>  <TORSDO>
F 9

$$$$
=
 OpenBabel11052417213D

 30 32  0  0  1  0  0  0  0  0999 V2000
  186.6640  178.2140  146.1030 C   0  0  0  0  0  0  0  0  0  0  0  0
  185.3240  178.9040  142.7660 O   0  0  0  0  0  0  0  0  0  0  0  0
  185.8490  177.6890  142.2970 C   0  0  2  0  0  3  0  0  0  0  0  0
  185.5700  179.0430  145.5120 C   0  0  1  0  0  3  0  0  0  0  0  0
  186.7650  178.1060  147.3180 O   0  0  0  0  0  0  0  0  0  0  0  0
  184.1880  178.6060  143.5420 C   0  0  0  0  0  2  0  0  0  0  0  0
  184.5970  178.0470  144.9000 C   0  0  2  0  0  3  0  0  0  0  0  0
  187.6700  177.5790  145.1620 C   0  0  2  0  0  3  0  0  0  0  0  0
  187.2110  177.4110  142.9680 C   0  0  1  0  0  3  0  0  0  0  0  0
  185.9690  177.7620  140.9200 F   0  0  0  0  0  0  0  0  0  0  0  0
  184.1830  178.8650  146.1010 C   0  0  0  0  0  2  0  0  0  0  0  0
  187.0130  176.7860  144.2080 O   0  0  0  0  0  0  0  0  0  0  0  0
  188.7000  176.7590  145.8720 C   0  0  0  0  0  0  0  0  0  0  0  0
  188.3830  175.6260  146.3250 O   0  0  0  0  0  0  0  0  0  0  0  0
  189.9900  177.2650  146.0490 O   0  0  0  0  0  0  0  0  0  0  0  0
  191.1420  176.6340  145.4970 C   0  0  2  0  0  3  0  0  0  0  0  0
  192.1950  176.4160  146.5850 C   0  0  1  0  0  3  0  0  0  0  0  0
  192.0990  173.9800  145.7380 C   0  0  0  0  0  1  0  0  0  0  0  0
  191.6500  175.4860  147.6520 C   0  0  0  0  0  2  0  0  0  0  0  0
  192.7200  174.9790  146.7060 C   0  0  2  0  0  3  0  0  0  0  0  0
  191.7140  177.4300  144.3200 C   0  0  0  0  0  2  0  0  0  0  0  0
  191.9090  175.9920  142.2910 O   0  0  0  0  0  0  0  0  0  0  0  0
  193.7520  176.4190  143.5850 O   0  0  0  0  0  1  0  0  0  0  0  0
  192.5200  176.5880  143.3860 C   0  0  0  0  0  0  0  0  0  0  0  0
  188.0950  176.5120  142.1120 C   0  0  0  0  0  2  0  0  0  0  0  0
  187.4920  175.1160  142.0260 C   0  0  0  0  0  2  0  0  0  0  0  0
  188.5580  174.0240  142.0370 C   0  0  0  0  0  0  0  0  0  0  0  0
  189.4290  174.1890  140.9590 O   0  0  0  0  0  1  0  0  0  0  0  0
  189.3440  174.0580  143.3360 C   0  0  0  0  0  1  0  0  0  0  0  0
  187.8760  172.6770  141.9170 C   0  0  0  0  0  1  0  0  0  0  0  0
  1  5  2  0  0  0  0
  2  6  1  0  0  0  0
  3 10  1  6  0  0  0
  3  2  1  0  0  0  0
  3  9  1  0  0  0  0
  4 11  1  1  0  0  0
  4  1  1  0  0  0  0
  7  6  1  6  0  0  0
  7  4  1  0  0  0  0
  7 11  1  0  0  0  0
  8 13  1  1  0  0  0
  8  1  1  0  0  0  0
  9 25  1  6  0  0  0
  9 12  1  0  0  0  0
 12  8  1  0  0  0  0
 13 15  1  0  0  0  0
 13 14  2  0  0  0  0
 16 21  1  6  0  0  0
 16 15  1  0  0  0  0
 17 16  1  6  0  0  0
 17 20  1  0  0  0  0
 17 19  1  0  0  0  0
 20 18  1  6  0  0  0
 20 19  1  0  0  0  0
 22 24  2  0  0  0  0
 24 23  1  0  0  0  0
 24 21  1  0  0  0  0
 26 27  1  0  0  0  0
 26 25  1  0  0  0  0
 27 29  1  0  0  0  0
 28 27  1  0  0  0  0
 30 27  1  0  0  0  0
M  END
>  <MODEL>
2

>  <REMARK>
 VINA RESULT:      -6.6      2.200      4.801
  Name = 
  9 active torsions:
  status: ('A' for Active; 'I' for Inactive)
    1  A    between atoms: C_1  and  O_4
    2  A    between atoms: C_1  and  C_22
    3  A    between atoms: O_4  and  C_12
    4  A    between atoms: C_7  and  C_10
    5  A    between atoms: C_7  and  C_25
    6  A    between atoms: C_8  and  C_12
    7  A    between atoms: C_9  and  C_12
    8  A    between atoms: C_9  and  C_21
    9  A    between atoms: C_23  and  C_25
                            x       y       z     vdW  Elec       q    Type
                         _______ _______ _______ _____ _____    ______ ____

>  <TORSDO>
F 9

$$$$
=
 OpenBabel11052417213D

 30 32  0  0  1  0  0  0  0  0999 V2000
  186.3760  178.0380  143.2550 C   0  0  0  0  0  0  0  0  0  0  0  0
  184.8620  177.2250  146.4890 O   0  0  0  0  0  0  0  0  0  0  0  0
  186.1300  177.2390  147.0930 C   0  0  2  0  0  3  0  0  0  0  0  0
  185.0370  178.1770  143.9040 C   0  0  1  0  0  3  0  0  0  0  0  0
  186.5870  178.5510  142.1650 O   0  0  0  0  0  0  0  0  0  0  0  0
  184.4880  178.5630  146.2560 C   0  0  0  0  0  2  0  0  0  0  0  0
  185.2510  179.1340  145.0670 C   0  0  2  0  0  3  0  0  0  0  0  0
  187.4260  177.1950  143.9530 C   0  0  2  0  0  3  0  0  0  0  0  0
  187.1810  176.6580  146.1220 C   0  0  1  0  0  3  0  0  0  0  0  0
  186.0670  176.5080  148.2670 F   0  0  0  0  0  0  0  0  0  0  0  0
  184.4090  179.5590  143.8870 C   0  0  0  0  0  2  0  0  0  0  0  0
  187.6400  177.6640  145.2600 O   0  0  0  0  0  0  0  0  0  0  0  0
  188.7270  177.1510  143.2170 C   0  0  0  0  0  0  0  0  0  0  0  0
  189.6300  177.9820  143.5070 O   0  0  0  0  0  0  0  0  0  0  0  0
  188.9190  176.2110  142.2020 O   0  0  0  0  0  0  0  0  0  0  0  0
  189.4510  174.9130  142.4520 C   0  0  2  0  0  3  0  0  0  0  0  0
  188.6710  173.8630  141.6560 C   0  0  1  0  0  3  0  0  0  0  0  0
  190.9390  173.5550  140.4630 C   0  0  0  0  0  1  0  0  0  0  0  0
  188.5850  174.2780  140.2010 C   0  0  0  0  0  2  0  0  0  0  0  0
  189.4840  173.1210  140.5860 C   0  0  2  0  0  3  0  0  0  0  0  0
  189.4590  174.5840  143.9480 C   0  0  0  0  0  2  0  0  0  0  0  0
  191.6170  173.3340  144.0260 O   0  0  0  0  0  0  0  0  0  0  0  0
  189.6840  172.3480  144.7630 O   0  0  0  0  0  1  0  0  0  0  0  0
  190.2500  173.3580  144.2690 C   0  0  0  0  0  0  0  0  0  0  0  0
  188.3790  176.0760  146.8620 C   0  0  0  0  0  2  0  0  0  0  0  0
  189.4950  177.1090  146.9440 C   0  0  0  0  0  2  0  0  0  0  0  0
  190.8400  176.4790  147.2930 C   0  0  0  0  0  0  0  0  0  0  0  0
  191.4340  177.1640  148.3540 O   0  0  0  0  0  1  0  0  0  0  0  0
  190.6660  175.0170  147.6650 C   0  0  0  0  0  1  0  0  0  0  0  0
  191.7470  176.5660  146.0820 C   0  0  0  0  0  1  0  0  0  0  0  0
  1  4  1  0  0  0  0
  1  8  1  0  0  0  0
  2  3  1  0  0  0  0
  3 10  1  1  0  0  0
  4 11  1  6  0  0  0
  4  7  1  0  0  0  0
  5  1  2  0  0  0  0
  6  2  1  0  0  0  0
  7 11  1  6  0  0  0
  7  6  1  0  0  0  0
  8 13  1  6  0  0  0
  8 12  1  0  0  0  0
  9 25  1  1  0  0  0
  9  3  1  0  0  0  0
 12  9  1  0  0  0  0
 13 14  2  0  0  0  0
 15 16  1  0  0  0  0
 15 13  1  0  0  0  0
 16 21  1  1  0  0  0
 17 16  1  1  0  0  0
 19 20  1  0  0  0  0
 19 17  1  0  0  0  0
 20 18  1  1  0  0  0
 20 17  1  0  0  0  0
 21 24  1  0  0  0  0
 22 24  2  0  0  0  0
 24 23  1  0  0  0  0
 25 26  1  0  0  0  0
 26 27  1  0  0  0  0
 27 29  1  0  0  0  0
 27 28  1  0  0  0  0
 30 27  1  0  0  0  0
M  END
>  <MODEL>
3

>  <REMARK>
 VINA RESULT:      -6.6      1.319      2.117
  Name = 
  9 active torsions:
  status: ('A' for Active; 'I' for Inactive)
    1  A    between atoms: C_1  and  O_4
    2  A    between atoms: C_1  and  C_22
    3  A    between atoms: O_4  and  C_12
    4  A    between atoms: C_7  and  C_10
    5  A    between atoms: C_7  and  C_25
    6  A    between atoms: C_8  and  C_12
    7  A    between atoms: C_9  and  C_12
    8  A    between atoms: C_9  and  C_21
    9  A    between atoms: C_23  and  C_25
                            x       y       z     vdW  Elec       q    Type
                         _______ _______ _______ _____ _____    ______ ____

>  <TORSDO>
F 9

$$$$
=
 OpenBabel11052417213D

 30 32  0  0  1  0  0  0  0  0999 V2000
  186.8510  177.9730  143.1920 C   0  0  0  0  0  0  0  0  0  0  0  0
  185.4040  176.9950  146.4110 O   0  0  0  0  0  0  0  0  0  0  0  0
  186.6820  177.0030  146.9950 C   0  0  2  0  0  3  0  0  0  0  0  0
  185.5200  178.0620  143.8680 C   0  0  1  0  0  3  0  0  0  0  0  0
  187.0350  178.5360  142.1220 O   0  0  0  0  0  0  0  0  0  0  0  0
  185.0050  178.3350  146.2440 C   0  0  0  0  0  2  0  0  0  0  0  0
  185.7400  178.9700  145.0690 C   0  0  2  0  0  3  0  0  0  0  0  0
  187.9250  177.1170  143.8360 C   0  0  2  0  0  3  0  0  0  0  0  0
  187.7250  176.4820  145.9830 C   0  0  1  0  0  3  0  0  0  0  0  0
  186.6500  176.2200  148.1370 F   0  0  0  0  0  0  0  0  0  0  0  0
  184.8710  179.4340  143.9220 C   0  0  0  0  0  2  0  0  0  0  0  0
  188.1540  177.5310  145.1580 O   0  0  0  0  0  0  0  0  0  0  0  0
  189.2140  177.1260  143.0770 C   0  0  0  0  0  0  0  0  0  0  0  0
  190.0180  178.0840  143.2370 O   0  0  0  0  0  0  0  0  0  0  0  0
  189.5010  176.0910  142.1830 O   0  0  0  0  0  0  0  0  0  0  0  0
  190.1280  174.8790  142.5930 C   0  0  2  0  0  3  0  0  0  0  0  0
  189.0700  173.8550  143.0100 C   0  0  1  0  0  3  0  0  0  0  0  0
  189.9510  172.5850  140.9420 C   0  0  0  0  0  1  0  0  0  0  0  0
  188.0040  173.7490  141.9360 C   0  0  0  0  0  2  0  0  0  0  0  0
  188.9840  172.6070  142.1190 C   0  0  2  0  0  3  0  0  0  0  0  0
  191.1430  175.1180  143.7150 C   0  0  0  0  0  2  0  0  0  0  0  0
  192.8380  176.4000  142.4080 O   0  0  0  0  0  0  0  0  0  0  0  0
  193.4360  174.4800  143.5070 O   0  0  0  0  0  1  0  0  0  0  0  0
  192.5350  175.3060  143.2080 C   0  0  0  0  0  0  0  0  0  0  0  0
  188.9440  175.8870  146.6770 C   0  0  0  0  0  2  0  0  0  0  0  0
  189.9950  176.9650  146.9030 C   0  0  0  0  0  2  0  0  0  0  0  0
  191.1960  176.4460  147.6870 C   0  0  0  0  0  0  0  0  0  0  0  0
  190.9310  175.1710  148.1890 O   0  0  0  0  0  1  0  0  0  0  0  0
  192.4300  176.3990  146.8040 C   0  0  0  0  0  1  0  0  0  0  0  0
  191.4640  177.3850  148.8450 C   0  0  0  0  0  1  0  0  0  0  0  0
  1  8  1  0  0  0  0
  1  4  1  0  0  0  0
  2  3  1  0  0  0  0
  3 10  1  1  0  0  0
  4 11  1  6  0  0  0
  4  7  1  0  0  0  0
  5  1  2  0  0  0  0
  6  2  1  0  0  0  0
  7 11  1  6  0  0  0
  7  6  1  0  0  0  0
  8 13  1  6  0  0  0
  8 12  1  0  0  0  0
  9 25  1  1  0  0  0
  9  3  1  0  0  0  0
 12  9  1  0  0  0  0
 13 14  2  0  0  0  0
 15 16  1  0  0  0  0
 15 13  1  0  0  0  0
 16 21  1  1  0  0  0
 17 16  1  6  0  0  0
 19 20  1  0  0  0  0
 19 17  1  0  0  0  0
 20 18  1  6  0  0  0
 20 17  1  0  0  0  0
 22 24  2  0  0  0  0
 24 23  1  0  0  0  0
 24 21  1  0  0  0  0
 25 26  1  0  0  0  0
 26 27  1  0  0  0  0
 27 28  1  0  0  0  0
 27 30  1  0  0  0  0
 29 27  1  0  0  0  0
M  END
>  <MODEL>
4

>  <REMARK>
 VINA RESULT:      -6.6      1.248      2.331
  Name = 
  9 active torsions:
  status: ('A' for Active; 'I' for Inactive)
    1  A    between atoms: C_1  and  O_4
    2  A    between atoms: C_1  and  C_22
    3  A    between atoms: O_4  and  C_12
    4  A    between atoms: C_7  and  C_10
    5  A    between atoms: C_7  and  C_25
    6  A    between atoms: C_8  and  C_12
    7  A    between atoms: C_9  and  C_12
    8  A    between atoms: C_9  and  C_21
    9  A    between atoms: C_23  and  C_25
                            x       y       z     vdW  Elec       q    Type
                         _______ _______ _______ _____ _____    ______ ____

>  <TORSDO>
F 9

$$$$
=
 OpenBabel11052417213D

 30 32  0  0  1  0  0  0  0  0999 V2000
  188.7720  175.3490  141.4520 C   0  0  0  0  0  0  0  0  0  0  0  0
  190.7640  172.3080  141.8900 O   0  0  0  0  0  0  0  0  0  0  0  0
  190.3650  172.2330  143.2340 C   0  0  2  0  0  3  0  0  0  0  0  0
  189.3180  174.2630  140.5830 C   0  0  1  0  0  3  0  0  0  0  0  0
  188.0080  176.1830  140.9860 O   0  0  0  0  0  0  0  0  0  0  0  0
  189.6740  171.8980  141.0990 C   0  0  0  0  0  2  0  0  0  0  0  0
  188.6150  172.9930  141.0370 C   0  0  2  0  0  3  0  0  0  0  0  0
  189.2440  175.4210  142.8910 C   0  0  2  0  0  3  0  0  0  0  0  0
  190.2630  173.6520  143.8330 C   0  0  1  0  0  3  0  0  0  0  0  0
  191.2810  171.4570  143.9240 F   0  0  0  0  0  0  0  0  0  0  0  0
  188.3340  173.5610  139.6650 C   0  0  0  0  0  2  0  0  0  0  0  0
  189.0050  174.2020  143.5460 O   0  0  0  0  0  0  0  0  0  0  0  0
  188.6100  176.5350  143.6620 C   0  0  0  0  0  0  0  0  0  0  0  0
  189.0350  177.7120  143.5080 O   0  0  0  0  0  0  0  0  0  0  0  0
  187.5760  176.2590  144.5600 O   0  0  0  0  0  0  0  0  0  0  0  0
  186.3570  176.9960  144.5730 C   0  0  2  0  0  3  0  0  0  0  0  0
  185.5380  176.6360  145.8140 C   0  0  1  0  0  3  0  0  0  0  0  0
  185.5360  179.1950  146.1570 C   0  0  0  0  0  1  0  0  0  0  0  0
  186.3020  177.0220  147.0660 C   0  0  0  0  0  2  0  0  0  0  0  0
  185.0850  177.8310  146.6650 C   0  0  2  0  0  3  0  0  0  0  0  0
  185.5490  176.7760  143.2900 C   0  0  0  0  0  2  0  0  0  0  0  0
  183.8990  178.2220  142.1020 O   0  0  0  0  0  0  0  0  0  0  0  0
  186.0260  178.9790  142.4970 O   0  0  0  0  0  1  0  0  0  0  0  0
  185.1810  178.0540  142.6090 C   0  0  0  0  0  0  0  0  0  0  0  0
  190.4510  173.6470  145.3450 C   0  0  0  0  0  2  0  0  0  0  0  0
  191.0880  174.9540  145.7970 C   0  0  0  0  0  2  0  0  0  0  0  0
  190.3970  175.5410  147.0230 C   0  0  0  0  0  0  0  0  0  0  0  0
  190.0400  176.8690  146.7880 O   0  0  0  0  0  1  0  0  0  0  0  0
  189.1580  174.7360  147.3740 C   0  0  0  0  0  1  0  0  0  0  0  0
  191.3560  175.4890  148.1940 C   0  0  0  0  0  1  0  0  0  0  0  0
  1  8  1  0  0  0  0
  2  3  1  0  0  0  0
  3  9  1  0  0  0  0
  3 10  1  1  0  0  0
  4 11  1  6  0  0  0
  4  7  1  0  0  0  0
  4  1  1  0  0  0  0
  5  1  2  0  0  0  0
  6  2  1  0  0  0  0
  7 11  1  6  0  0  0
  7  6  1  0  0  0  0
  8 12  1  0  0  0  0
  8 13  1  1  0  0  0
  9 25  1  1  0  0  0
 12  9  1  0  0  0  0
 13 15  1  0  0  0  0
 14 13  2  0  0  0  0
 15 16  1  0  0  0  0
 16 21  1  6  0  0  0
 17 16  1  6  0  0  0
 17 20  1  0  0  0  0
 17 19  1  0  0  0  0
 20 18  1  6  0  0  0
 20 19  1  0  0  0  0
 22 24  2  0  0  0  0
 23 24  1  0  0  0  0
 24 21  1  0  0  0  0
 25 26  1  0  0  0  0
 26 27  1  0  0  0  0
 27 29  1  0  0  0  0
 27 30  1  0  0  0  0
 28 27  1  0  0  0  0
M  END
>  <MODEL>
5

>  <REMARK>
 VINA RESULT:      -6.6      2.179      5.622
  Name = 
  9 active torsions:
  status: ('A' for Active; 'I' for Inactive)
    1  A    between atoms: C_1  and  O_4
    2  A    between atoms: C_1  and  C_22
    3  A    between atoms: O_4  and  C_12
    4  A    between atoms: C_7  and  C_10
    5  A    between atoms: C_7  and  C_25
    6  A    between atoms: C_8  and  C_12
    7  A    between atoms: C_9  and  C_12
    8  A    between atoms: C_9  and  C_21
    9  A    between atoms: C_23  and  C_25
                            x       y       z     vdW  Elec       q    Type
                         _______ _______ _______ _____ _____    ______ ____

>  <TORSDO>
F 9

$$$$
=
 OpenBabel11052417213D

 30 32  0  0  1  0  0  0  0  0999 V2000
  191.0570  175.0140  142.5610 C   0  0  0  0  0  0  0  0  0  0  0  0
  187.4690  174.2910  142.4550 O   0  0  0  0  0  0  0  0  0  0  0  0
  187.1830  175.6620  142.5630 C   0  0  2  0  0  3  0  0  0  0  0  0
  190.1740  173.9180  142.0560 C   0  0  1  0  0  3  0  0  0  0  0  0
  192.2550  175.0020  142.3110 O   0  0  0  0  0  0  0  0  0  0  0  0
  187.9100  174.0510  141.1400 C   0  0  0  0  0  2  0  0  0  0  0  0
  189.3380  174.5500  140.9540 C   0  0  2  0  0  3  0  0  0  0  0  0
  190.4380  176.0860  143.4360 C   0  0  2  0  0  3  0  0  0  0  0  0
  188.2060  176.3400  143.5000 C   0  0  1  0  0  3  0  0  0  0  0  0
  185.8900  175.8080  143.0350 F   0  0  0  0  0  0  0  0  0  0  0  0
  190.3650  173.4960  140.6110 C   0  0  0  0  0  2  0  0  0  0  0  0
  189.3550  176.6910  142.7780 O   0  0  0  0  0  0  0  0  0  0  0  0
  191.4170  177.1360  143.8580 C   0  0  0  0  0  0  0  0  0  0  0  0
  191.6250  178.1250  143.1050 O   0  0  0  0  0  0  0  0  0  0  0  0
  192.1070  176.9970  145.0650 O   0  0  0  0  0  0  0  0  0  0  0  0
  192.1650  175.7630  145.7760 C   0  0  2  0  0  3  0  0  0  0  0  0
  191.7570  175.9770  147.2350 C   0  0  1  0  0  3  0  0  0  0  0  0
  189.7280  174.5390  146.5400 C   0  0  0  0  0  1  0  0  0  0  0  0
  190.4710  176.7770  147.2990 C   0  0  0  0  0  2  0  0  0  0  0  0
  190.4420  175.3030  147.6490 C   0  0  2  0  0  3  0  0  0  0  0  0
  193.5490  175.1160  145.6740 C   0  0  0  0  0  2  0  0  0  0  0  0
  194.9360  177.1280  146.1740 O   0  0  0  0  0  1  0  0  0  0  0  0
  195.2410  175.9730  144.2190 O   0  0  0  0  0  0  0  0  0  0  0  0
  194.6200  176.0910  145.3070 C   0  0  0  0  0  0  0  0  0  0  0  0
  187.6400  177.6000  144.1440 C   0  0  0  0  0  2  0  0  0  0  0  0
  187.4460  177.3810  145.6390 C   0  0  0  0  0  2  0  0  0  0  0  0
  186.0710  177.8400  146.1160 C   0  0  0  0  0  0  0  0  0  0  0  0
  185.1730  176.7720  146.0980 O   0  0  0  0  0  1  0  0  0  0  0  0
  186.1560  178.4100  147.5210 C   0  0  0  0  0  1  0  0  0  0  0  0
  185.5680  178.9220  145.1830 C   0  0  0  0  0  1  0  0  0  0  0  0
  1  8  1  0  0  0  0
  2  3  1  0  0  0  0
  3 10  1  1  0  0  0
  3  9  1  0  0  0  0
  4 11  1  6  0  0  0
  4  1  1  0  0  0  0
  5  1  2  0  0  0  0
  6  2  1  0  0  0  0
  7 11  1  6  0  0  0
  7  6  1  0  0  0  0
  7  4  1  0  0  0  0
  8 13  1  6  0  0  0
  9 25  1  6  0  0  0
 12  8  1  0  0  0  0
 12  9  1  0  0  0  0
 13 15  1  0  0  0  0
 14 13  2  0  0  0  0
 15 16  1  0  0  0  0
 16 21  1  1  0  0  0
 17 16  1  6  0  0  0
 17 19  1  0  0  0  0
 17 20  1  0  0  0  0
 19 20  1  0  0  0  0
 20 18  1  6  0  0  0
 23 24  2  0  0  0  0
 24 21  1  0  0  0  0
 24 22  1  0  0  0  0
 25 26  1  0  0  0  0
 26 27  1  0  0  0  0
 27 29  1  0  0  0  0
 28 27  1  0  0  0  0
 30 27  1  0  0  0  0
M  END
>  <MODEL>
6

>  <REMARK>
 VINA RESULT:      -6.4      2.220      5.712
  Name = 
  9 active torsions:
  status: ('A' for Active; 'I' for Inactive)
    1  A    between atoms: C_1  and  O_4
    2  A    between atoms: C_1  and  C_22
    3  A    between atoms: O_4  and  C_12
    4  A    between atoms: C_7  and  C_10
    5  A    between atoms: C_7  and  C_25
    6  A    between atoms: C_8  and  C_12
    7  A    between atoms: C_9  and  C_12
    8  A    between atoms: C_9  and  C_21
    9  A    between atoms: C_23  and  C_25
                            x       y       z     vdW  Elec       q    Type
                         _______ _______ _______ _____ _____    ______ ____

>  <TORSDO>
F 9

$$$$
=
 OpenBabel11052417213D

 30 32  0  0  1  0  0  0  0  0999 V2000
  189.6060  176.8420  146.3790 C   0  0  0  0  0  0  0  0  0  0  0  0
  191.9490  174.1040  145.7320 O   0  0  0  0  0  0  0  0  0  0  0  0
  192.0550  174.5030  144.3900 C   0  0  2  0  0  3  0  0  0  0  0  0
  190.5470  175.9950  147.1730 C   0  0  1  0  0  3  0  0  0  0  0  0
  189.0430  177.7930  146.9040 O   0  0  0  0  0  0  0  0  0  0  0  0
  192.6880  175.0180  146.5070 C   0  0  0  0  0  2  0  0  0  0  0  0
  191.9340  176.3350  146.6470 C   0  0  2  0  0  3  0  0  0  0  0  0
  189.3250  176.4470  144.9420 C   0  0  2  0  0  3  0  0  0  0  0  0
  190.6870  175.0070  143.8820 C   0  0  1  0  0  3  0  0  0  0  0  0
  192.5060  173.4270  143.6440 F   0  0  0  0  0  0  0  0  0  0  0  0
  191.5450  176.7240  148.0550 C   0  0  0  0  0  2  0  0  0  0  0  0
  190.5230  176.3590  144.2150 O   0  0  0  0  0  0  0  0  0  0  0  0
  188.3860  177.3830  144.2490 C   0  0  0  0  0  0  0  0  0  0  0  0
  188.8530  178.2870  143.5050 O   0  0  0  0  0  0  0  0  0  0  0  0
  187.0090  177.2630  144.4540 O   0  0  0  0  0  0  0  0  0  0  0  0
  186.2190  178.3250  144.9820 C   0  0  2  0  0  3  0  0  0  0  0  0
  185.0370  177.7580  145.7720 C   0  0  1  0  0  3  0  0  0  0  0  0
  185.9670  179.2860  147.6330 C   0  0  0  0  0  1  0  0  0  0  0  0
  185.5450  176.9440  146.9460 C   0  0  0  0  0  2  0  0  0  0  0  0
  184.8970  178.2890  147.2050 C   0  0  2  0  0  3  0  0  0  0  0  0
  185.7460  179.2790  143.8810 C   0  0  0  0  0  2  0  0  0  0  0  0
  184.0690  177.9200  142.6290 O   0  0  0  0  0  1  0  0  0  0  0  0
  186.0280  178.5510  141.6220 O   0  0  0  0  0  0  0  0  0  0  0  0
  185.2980  178.5660  142.6470 C   0  0  0  0  0  0  0  0  0  0  0  0
  190.5530  174.8650  142.3710 C   0  0  0  0  0  2  0  0  0  0  0  0
  189.8300  173.5690  142.0290 C   0  0  0  0  0  2  0  0  0  0  0  0
  188.4970  173.8170  141.3290 C   0  0  0  0  0  0  0  0  0  0  0  0
  187.4680  173.1540  141.9990 O   0  0  0  0  0  1  0  0  0  0  0  0
  188.1920  175.3030  141.2730 C   0  0  0  0  0  1  0  0  0  0  0  0
  188.5850  173.2860  139.9130 C   0  0  0  0  0  1  0  0  0  0  0  0
  1  5  2  0  0  0  0
  1  4  1  0  0  0  0
  2  6  1  0  0  0  0
  3 10  1  6  0  0  0
  3  2  1  0  0  0  0
  4 11  1  1  0  0  0
  7  6  1  1  0  0  0
  7  4  1  0  0  0  0
  7 11  1  0  0  0  0
  8 13  1  6  0  0  0
  8  1  1  0  0  0  0
  9 25  1  6  0  0  0
  9 12  1  0  0  0  0
  9  3  1  0  0  0  0
 12  8  1  0  0  0  0
 13 15  1  0  0  0  0
 14 13  2  0  0  0  0
 15 16  1  0  0  0  0
 16 21  1  6  0  0  0
 17 16  1  6  0  0  0
 17 19  1  0  0  0  0
 17 20  1  0  0  0  0
 19 20  1  0  0  0  0
 20 18  1  6  0  0  0
 22 24  1  0  0  0  0
 23 24  2  0  0  0  0
 24 21  1  0  0  0  0
 26 25  1  0  0  0  0
 27 28  1  0  0  0  0
 27 26  1  0  0  0  0
 29 27  1  0  0  0  0
 30 27  1  0  0  0  0
M  END
>  <MODEL>
7

>  <REMARK>
 VINA RESULT:      -6.4      2.044      6.449
  Name = 
  9 active torsions:
  status: ('A' for Active; 'I' for Inactive)
    1  A    between atoms: C_1  and  O_4
    2  A    between atoms: C_1  and  C_22
    3  A    between atoms: O_4  and  C_12
    4  A    between atoms: C_7  and  C_10
    5  A    between atoms: C_7  and  C_25
    6  A    between atoms: C_8  and  C_12
    7  A    between atoms: C_9  and  C_12
    8  A    between atoms: C_9  and  C_21
    9  A    between atoms: C_23  and  C_25
                            x       y       z     vdW  Elec       q    Type
                         _______ _______ _______ _____ _____    ______ ____

>  <TORSDO>
F 9

$$$$
=
 OpenBabel11052417213D

 30 32  0  0  1  0  0  0  0  0999 V2000
  191.7700  175.8900  146.8030 C   0  0  0  0  0  0  0  0  0  0  0  0
  193.4210  175.1910  143.6100 O   0  0  0  0  0  0  0  0  0  0  0  0
  192.3210  175.7240  142.9180 C   0  0  2  0  0  3  0  0  0  0  0  0
  193.1680  175.6900  146.3130 C   0  0  1  0  0  3  0  0  0  0  0  0
  191.5680  176.2490  147.9550 O   0  0  0  0  0  0  0  0  0  0  0  0
  194.1480  176.2700  144.1480 C   0  0  0  0  0  2  0  0  0  0  0  0
  193.4300  176.8480  145.3620 C   0  0  2  0  0  3  0  0  0  0  0  0
  190.6280  175.5720  145.8580 C   0  0  2  0  0  3  0  0  0  0  0  0
  191.0120  175.3640  143.6530 C   0  0  1  0  0  3  0  0  0  0  0  0
  192.3290  175.2250  141.6260 F   0  0  0  0  0  0  0  0  0  0  0  0
  194.1790  176.7640  146.6720 C   0  0  0  0  0  2  0  0  0  0  0  0
  190.7610  176.3010  144.6650 O   0  0  0  0  0  0  0  0  0  0  0  0
  189.2810  175.8330  146.4560 C   0  0  0  0  0  0  0  0  0  0  0  0
  188.7920  174.9980  147.2640 O   0  0  0  0  0  0  0  0  0  0  0  0
  188.5720  176.9820  146.0960 O   0  0  0  0  0  0  0  0  0  0  0  0
  187.2250  176.9350  145.6340 C   0  0  2  0  0  3  0  0  0  0  0  0
  186.9160  178.1730  144.7890 C   0  0  1  0  0  3  0  0  0  0  0  0
  185.9600  176.4180  143.1540 C   0  0  0  0  0  1  0  0  0  0  0  0
  187.7160  178.1310  143.5010 C   0  0  0  0  0  2  0  0  0  0  0  0
  186.2200  177.8900  143.4500 C   0  0  2  0  0  3  0  0  0  0  0  0
  186.2350  176.7920  146.7940 C   0  0  0  0  0  2  0  0  0  0  0  0
  184.6500  178.6700  147.2240 O   0  0  0  0  0  0  0  0  0  0  0  0
  186.7380  178.6810  148.1690 O   0  0  0  0  0  1  0  0  0  0  0  0
  185.8980  178.0990  147.4350 C   0  0  0  0  0  0  0  0  0  0  0  0
  189.8160  175.3430  142.7090 C   0  0  0  0  0  2  0  0  0  0  0  0
  188.8570  174.2290  143.1050 C   0  0  0  0  0  2  0  0  0  0  0  0
  188.7570  173.1450  142.0370 C   0  0  0  0  0  0  0  0  0  0  0  0
  187.4490  172.6670  141.9540 O   0  0  0  0  0  1  0  0  0  0  0  0
  189.1880  173.6860  140.6850 C   0  0  0  0  0  1  0  0  0  0  0  0
  189.6760  172.0020  142.4170 C   0  0  0  0  0  1  0  0  0  0  0  0
  1  5  2  0  0  0  0
  2  6  1  0  0  0  0
  3 10  1  6  0  0  0
  3  2  1  0  0  0  0
  3  9  1  0  0  0  0
  4 11  1  1  0  0  0
  4  1  1  0  0  0  0
  7  6  1  6  0  0  0
  7  4  1  0  0  0  0
  7 11  1  0  0  0  0
  8 13  1  1  0  0  0
  8  1  1  0  0  0  0
  9 25  1  6  0  0  0
  9 12  1  0  0  0  0
 12  8  1  0  0  0  0
 13 14  2  0  0  0  0
 15 13  1  0  0  0  0
 16 15  1  0  0  0  0
 16 21  1  1  0  0  0
 17 16  1  1  0  0  0
 19 17  1  0  0  0  0
 20 18  1  1  0  0  0
 20 19  1  0  0  0  0
 20 17  1  0  0  0  0
 21 24  1  0  0  0  0
 22 24  2  0  0  0  0
 24 23  1  0  0  0  0
 25 26  1  0  0  0  0
 27 30  1  0  0  0  0
 27 26  1  0  0  0  0
 28 27  1  0  0  0  0
 29 27  1  0  0  0  0
M  END
>  <MODEL>
8

>  <REMARK>
 VINA RESULT:      -6.3      2.364      6.952
  Name = 
  9 active torsions:
  status: ('A' for Active; 'I' for Inactive)
    1  A    between atoms: C_1  and  O_4
    2  A    between atoms: C_1  and  C_22
    3  A    between atoms: O_4  and  C_12
    4  A    between atoms: C_7  and  C_10
    5  A    between atoms: C_7  and  C_25
    6  A    between atoms: C_8  and  C_12
    7  A    between atoms: C_9  and  C_12
    8  A    between atoms: C_9  and  C_21
    9  A    between atoms: C_23  and  C_25
                            x       y       z     vdW  Elec       q    Type
                         _______ _______ _______ _____ _____    ______ ____

>  <TORSDO>
F 9

$$$$
=
 OpenBabel11052417213D

 30 32  0  0  1  0  0  0  0  0999 V2000
  190.7670  175.9760  145.0370 C   0  0  0  0  0  0  0  0  0  0  0  0
  190.5080  172.3940  144.3210 O   0  0  0  0  0  0  0  0  0  0  0  0
  189.9790  172.6800  143.0510 C   0  0  2  0  0  3  0  0  0  0  0  0
  191.4120  174.7140  145.5120 C   0  0  1  0  0  3  0  0  0  0  0  0
  191.1940  177.0610  145.4070 O   0  0  0  0  0  0  0  0  0  0  0  0
  191.8900  172.6580  144.2740 C   0  0  0  0  0  2  0  0  0  0  0  0
  192.1490  174.1600  144.3020 C   0  0  2  0  0  3  0  0  0  0  0  0
  189.5410  175.8630  144.1510 C   0  0  2  0  0  3  0  0  0  0  0  0
  189.0610  173.9190  143.1310 C   0  0  1  0  0  3  0  0  0  0  0  0
  189.2890  171.5670  142.6000 F   0  0  0  0  0  0  0  0  0  0  0  0
  192.9290  174.6720  145.4900 C   0  0  0  0  0  2  0  0  0  0  0  0
  189.8270  175.0880  143.0160 O   0  0  0  0  0  0  0  0  0  0  0  0
  189.0010  177.1920  143.7260 C   0  0  0  0  0  0  0  0  0  0  0  0
  189.4400  177.7290  142.6730 O   0  0  0  0  0  0  0  0  0  0  0  0
  188.0400  177.8340  144.5110 O   0  0  0  0  0  0  0  0  0  0  0  0
  186.6410  177.6790  144.2870 C   0  0  2  0  0  3  0  0  0  0  0  0
  186.0280  176.7990  145.3790 C   0  0  1  0  0  3  0  0  0  0  0  0
  185.0220  179.0410  146.1690 C   0  0  0  0  0  1  0  0  0  0  0  0
  186.5790  177.1990  146.7340 C   0  0  0  0  0  2  0  0  0  0  0  0
  185.1430  177.5380  146.3910 C   0  0  2  0  0  3  0  0  0  0  0  0
  186.3510  177.1180  142.8920 C   0  0  0  0  0  2  0  0  0  0  0  0
  184.0180  178.0000  142.8440 O   0  0  0  0  0  1  0  0  0  0  0  0
  185.3980  178.2830  141.0360 O   0  0  0  0  0  0  0  0  0  0  0  0
  185.2360  177.8310  142.1990 C   0  0  0  0  0  0  0  0  0  0  0  0
  188.0110  173.9210  142.0270 C   0  0  0  0  0  2  0  0  0  0  0  0
  188.5610  174.6080  140.7840 C   0  0  0  0  0  2  0  0  0  0  0  0
  188.6820  173.6510  139.6020 C   0  0  0  0  0  0  0  0  0  0  0  0
  187.9430  172.4920  139.8400 O   0  0  0  0  0  1  0  0  0  0  0  0
  188.1930  174.3130  138.3260 C   0  0  0  0  0  1  0  0  0  0  0  0
  190.1400  173.2770  139.4250 C   0  0  0  0  0  1  0  0  0  0  0  0
  1  5  2  0  0  0  0
  1  4  1  0  0  0  0
  3 10  1  1  0  0  0
  3  9  1  0  0  0  0
  3  2  1  0  0  0  0
  4 11  1  1  0  0  0
  6  2  1  0  0  0  0
  7  6  1  1  0  0  0
  7 11  1  0  0  0  0
  7  4  1  0  0  0  0
  8 13  1  6  0  0  0
  8  1  1  0  0  0  0
  9 25  1  6  0  0  0
 12  9  1  0  0  0  0
 12  8  1  0  0  0  0
 13 15  1  0  0  0  0
 14 13  2  0  0  0  0
 16 21  1  6  0  0  0
 16 15  1  0  0  0  0
 17 16  1  6  0  0  0
 17 20  1  0  0  0  0
 17 19  1  0  0  0  0
 20 18  1  6  0  0  0
 20 19  1  0  0  0  0
 23 24  2  0  0  0  0
 24 22  1  0  0  0  0
 24 21  1  0  0  0  0
 26 25  1  0  0  0  0
 27 28  1  0  0  0  0
 27 26  1  0  0  0  0
 29 27  1  0  0  0  0
 30 27  1  0  0  0  0
M  END
>  <MODEL>
9

>  <REMARK>
 VINA RESULT:      -6.3      2.361      6.692
  Name = 
  9 active torsions:
  status: ('A' for Active; 'I' for Inactive)
    1  A    between atoms: C_1  and  O_4
    2  A    between atoms: C_1  and  C_22
    3  A    between atoms: O_4  and  C_12
    4  A    between atoms: C_7  and  C_10
    5  A    between atoms: C_7  and  C_25
    6  A    between atoms: C_8  and  C_12
    7  A    between atoms: C_9  and  C_12
    8  A    between atoms: C_9  and  C_21
    9  A    between atoms: C_23  and  C_25
                            x       y       z     vdW  Elec       q    Type
                         _______ _______ _______ _____ _____    ______ ____

>  <TORSDO>
F 9

$$$$
