=
 OpenBabel11052417523D

 31 36  0  0  1  0  0  0  0  0999 V2000
  187.4670  176.5890  144.3250 C   0  0  0  0  0  0  0  0  0  0  0  0
  186.5620  176.9130  145.3610 C   0  0  0  0  0  0  0  0  0  0  0  0
  184.6770  178.3220  146.1960 C   0  0  0  0  0  0  0  0  0  0  0  0
  187.1790  176.7750  142.8870 C   0  0  0  0  0  0  0  0  0  0  0  0
  186.4090  177.2810  140.9310 C   0  0  0  0  0  0  0  0  0  0  0  0
  185.1740  177.4390  145.0810 C   0  0  0  0  0  2  0  0  0  0  0  0
  189.7650  175.7730  143.5840 C   0  0  1  0  0  3  0  0  0  0  0  0
  188.1970  176.1590  146.9800 C   0  0  0  0  0  3  0  0  0  0  0  0
  183.8110  179.3290  145.9160 F   0  0  0  0  0  0  0  0  0  0  0  0
  189.1380  175.4200  142.2240 C   0  0  0  0  0  2  0  0  0  0  0  0
  188.7250  176.0370  144.6610 C   0  0  0  0  0  0  0  0  0  0  0  0
  186.1280  177.4470  142.2830 C   0  0  0  0  0  3  0  0  0  0  0  0
  185.0590  178.1120  147.4640 C   0  0  0  0  0  3  0  0  0  0  0  0
  187.9970  176.2810  141.9470 N   0  0  0  0  0  0  0  0  0  0  0  0
  187.5310  176.5570  140.7460 N   0  0  0  0  0  0  0  0  0  0  0  0
  189.0540  175.8610  145.9710 N   0  0  0  0  0  0  0  0  0  0  0  0
  186.9410  176.6900  146.6980 C   0  0  0  0  0  0  0  0  0  0  0  0
  185.9830  176.9770  147.8190 C   0  0  0  0  0  2  0  0  0  0  0  0
  185.5550  177.7740  139.8170 C   0  0  0  0  0  2  0  0  0  0  0  0
  184.2190  178.2400  140.3580 C   0  0  0  0  0  1  0  0  0  0  0  0
  190.7400  174.6780  144.0000 C   0  0  0  0  0  2  0  0  0  0  0  0
  195.6890  173.8760  145.6980 C   0  0  0  0  0  0  0  0  0  0  0  0
  193.4410  173.2230  144.9690 C   0  0  0  0  0  3  0  0  0  0  0  0
  193.5910  176.7640  144.7960 N   0  0  0  0  0  0  0  0  0  0  0  0
  192.3380  176.5870  144.3830 N   0  0  0  0  0  0  0  0  0  0  0  0
  197.0370  173.4870  146.1880 C   0  0  0  0  0  1  0  0  0  0  0  0
  192.0660  175.2620  144.3620 C   0  0  0  0  0  0  0  0  0  0  0  0
  194.7240  172.8770  145.4330 C   0  0  0  0  0  3  0  0  0  0  0  0
  194.1060  175.5450  145.0410 C   0  0  0  0  0  0  0  0  0  0  0  0
  193.1790  174.5770  144.7850 C   0  0  0  0  0  0  0  0  0  0  0  0
  195.3820  175.2370  145.5030 C   0  0  0  0  0  2  0  0  0  0  0  0
  1 11  2  0  0  0  0
  1  2  1  0  0  0  0
  2 17  2  0  0  0  0
  3 13  2  0  0  0  0
  4  1  1  0  0  0  0
  5 12  1  0  0  0  0
  6  2  1  0  0  0  0
  6  3  1  0  0  0  0
  7 21  1  1  0  0  0
  7 11  1  0  0  0  0
  9  3  1  0  0  0  0
 10  7  1  0  0  0  0
 11 16  1  0  0  0  0
 12  4  2  0  0  0  0
 13 18  1  0  0  0  0
 14 10  1  0  0  0  0
 14  4  1  0  0  0  0
 15  5  2  0  0  0  0
 15 14  1  0  0  0  0
 16  8  2  0  0  0  0
 17  8  1  0  0  0  0
 17 18  1  0  0  0  0
 19 20  1  0  0  0  0
 19  5  1  0  0  0  0
 21 27  1  0  0  0  0
 22 26  1  0  0  0  0
 23 28  1  0  0  0  0
 24 29  2  0  0  0  0
 25 24  1  0  0  0  0
 27 25  2  0  0  0  0
 27 30  1  0  0  0  0
 28 22  2  0  0  0  0
 29 31  1  0  0  0  0
 30 23  2  0  0  0  0
 30 29  1  0  0  0  0
 31 22  1  0  0  0  0
M  END
>  <MODEL>
1

>  <REMARK>
 VINA RESULT:      -9.3      0.000      0.000
  Name = 
  3 active torsions:
  status: ('A' for Active; 'I' for Inactive)
    1  A    between atoms: C_2  and  C_13
    2  A    between atoms: C_9  and  C_23
    3  A    between atoms: C_15  and  C_23
                            x       y       z     vdW  Elec       q    Type
                         _______ _______ _______ _____ _____    ______ ____

>  <TORSDO>
F 3

$$$$
=
 OpenBabel11052417523D

 31 36  0  0  1  0  0  0  0  0999 V2000
  188.0110  176.2990  144.4310 C   0  0  0  0  0  0  0  0  0  0  0  0
  186.7580  176.8910  144.7040 C   0  0  0  0  0  0  0  0  0  0  0  0
  184.7200  178.0740  143.8750 C   0  0  0  0  0  0  0  0  0  0  0  0
  188.3620  175.6670  143.1410 C   0  0  0  0  0  0  0  0  0  0  0  0
  188.5020  174.9350  141.1120 C   0  0  0  0  0  0  0  0  0  0  0  0
  185.6280  176.8840  143.7020 C   0  0  0  0  0  2  0  0  0  0  0  0
  190.3920  175.7500  145.1540 C   0  0  1  0  0  3  0  0  0  0  0  0
  187.5390  177.4380  146.9300 C   0  0  0  0  0  3  0  0  0  0  0  0
  184.0710  178.5830  142.7970 F   0  0  0  0  0  0  0  0  0  0  0  0
  190.3950  174.6320  144.0970 C   0  0  0  0  0  2  0  0  0  0  0  0
  188.9980  176.2840  145.4430 C   0  0  0  0  0  0  0  0  0  0  0  0
  187.6780  175.6910  141.9360 C   0  0  0  0  0  3  0  0  0  0  0  0
  184.5250  178.6210  145.0840 C   0  0  0  0  0  3  0  0  0  0  0  0
  189.4930  174.9600  143.0020 N   0  0  0  0  0  0  0  0  0  0  0  0
  189.5850  174.4830  141.7760 N   0  0  0  0  0  0  0  0  0  0  0  0
  188.7380  176.8700  146.6450 N   0  0  0  0  0  0  0  0  0  0  0  0
  186.5310  177.4630  145.9700 C   0  0  0  0  0  0  0  0  0  0  0  0
  185.1930  178.0560  146.3100 C   0  0  0  0  0  2  0  0  0  0  0  0
  188.2090  174.5970  139.6930 C   0  0  0  0  0  2  0  0  0  0  0  0
  188.3560  173.1040  139.4770 C   0  0  0  0  0  1  0  0  0  0  0  0
  191.0810  175.2600  146.4220 C   0  0  0  0  0  2  0  0  0  0  0  0
  195.8780  173.2050  145.5320 C   0  0  0  0  0  0  0  0  0  0  0  0
  193.4300  173.1910  145.6760 C   0  0  0  0  0  3  0  0  0  0  0  0
  194.4910  176.4760  146.4970 N   0  0  0  0  0  0  0  0  0  0  0  0
  193.1760  176.6420  146.6260 N   0  0  0  0  0  0  0  0  0  0  0  0
  197.1460  172.4780  145.2630 C   0  0  0  0  0  1  0  0  0  0  0  0
  192.5570  175.4750  146.3370 C   0  0  0  0  0  0  0  0  0  0  0  0
  194.6430  172.5230  145.4260 C   0  0  0  0  0  3  0  0  0  0  0  0
  194.6970  175.1980  146.1320 C   0  0  0  0  0  0  0  0  0  0  0  0
  193.5080  174.5360  146.0260 C   0  0  0  0  0  0  0  0  0  0  0  0
  195.9150  174.5660  145.8930 C   0  0  0  0  0  2  0  0  0  0  0  0
  1  2  2  0  0  0  0
  1 11  1  0  0  0  0
  2 17  1  0  0  0  0
  3 13  2  0  0  0  0
  4  1  1  0  0  0  0
  5 15  2  0  0  0  0
  5 12  1  0  0  0  0
  6  3  1  0  0  0  0
  6  2  1  0  0  0  0
  7 11  1  0  0  0  0
  7 21  1  1  0  0  0
  9  3  1  0  0  0  0
 10  7  1  0  0  0  0
 11 16  2  0  0  0  0
 12  4  2  0  0  0  0
 13 18  1  0  0  0  0
 14  4  1  0  0  0  0
 14 10  1  0  0  0  0
 15 14  1  0  0  0  0
 16  8  1  0  0  0  0
 17 18  1  0  0  0  0
 17  8  2  0  0  0  0
 19  5  1  0  0  0  0
 20 19  1  0  0  0  0
 22 31  1  0  0  0  0
 23 30  2  0  0  0  0
 24 25  1  0  0  0  0
 26 22  1  0  0  0  0
 27 21  1  0  0  0  0
 27 25  2  0  0  0  0
 28 22  2  0  0  0  0
 28 23  1  0  0  0  0
 29 24  2  0  0  0  0
 30 29  1  0  0  0  0
 30 27  1  0  0  0  0
 31 29  1  0  0  0  0
M  END
>  <MODEL>
2

>  <REMARK>
 VINA RESULT:      -9.1      1.773      2.308
  Name = 
  3 active torsions:
  status: ('A' for Active; 'I' for Inactive)
    1  A    between atoms: C_2  and  C_13
    2  A    between atoms: C_9  and  C_23
    3  A    between atoms: C_15  and  C_23
                            x       y       z     vdW  Elec       q    Type
                         _______ _______ _______ _____ _____    ______ ____

>  <TORSDO>
F 3

$$$$
=
 OpenBabel11052417523D

 31 36  0  0  1  0  0  0  0  0999 V2000
  187.5190  176.5310  144.4950 C   0  0  0  0  0  0  0  0  0  0  0  0
  186.5630  176.9190  145.4600 C   0  0  0  0  0  0  0  0  0  0  0  0
  184.6760  178.4140  146.1240 C   0  0  0  0  0  0  0  0  0  0  0  0
  187.3260  176.6710  143.0360 C   0  0  0  0  0  0  0  0  0  0  0  0
  186.6940  177.1260  141.0190 C   0  0  0  0  0  0  0  0  0  0  0  0
  185.2120  177.4750  145.0750 C   0  0  0  0  0  2  0  0  0  0  0  0
  189.8320  175.6200  143.9290 C   0  0  1  0  0  3  0  0  0  0  0  0
  188.0710  176.1800  147.2040 C   0  0  0  0  0  3  0  0  0  0  0  0
  183.8610  179.4340  145.7550 F   0  0  0  0  0  0  0  0  0  0  0  0
  189.2790  175.2350  142.5460 C   0  0  0  0  0  2  0  0  0  0  0  0
  188.7360  175.9550  144.9280 C   0  0  0  0  0  0  0  0  0  0  0  0
  186.3360  177.3490  142.3430 C   0  0  0  0  0  3  0  0  0  0  0  0
  184.9720  178.2400  147.4210 C   0  0  0  0  0  3  0  0  0  0  0  0
  188.1840  176.1180  142.1670 N   0  0  0  0  0  0  0  0  0  0  0  0
  187.8020  176.3620  140.9300 N   0  0  0  0  0  0  0  0  0  0  0  0
  188.9790  175.8190  146.2620 N   0  0  0  0  0  0  0  0  0  0  0  0
  186.8520  176.7360  146.8250 C   0  0  0  0  0  0  0  0  0  0  0  0
  185.8370  177.0930  147.8730 C   0  0  0  0  0  2  0  0  0  0  0  0
  185.9260  177.6000  139.8370 C   0  0  0  0  0  2  0  0  0  0  0  0
  184.6820  178.3370  140.2910 C   0  0  0  0  0  1  0  0  0  0  0  0
  190.7450  174.5140  144.4430 C   0  0  0  0  0  2  0  0  0  0  0  0
  195.6190  176.2320  143.2990 C   0  0  0  0  0  0  0  0  0  0  0  0
  193.3760  175.3740  142.8030 C   0  0  0  0  0  3  0  0  0  0  0  0
  193.5780  175.7550  146.3250 N   0  0  0  0  0  0  0  0  0  0  0  0
  192.3330  175.2900  146.2360 N   0  0  0  0  0  0  0  0  0  0  0  0
  196.9540  176.6710  142.8160 C   0  0  0  0  0  1  0  0  0  0  0  0
  192.0360  175.0810  144.9330 C   0  0  0  0  0  0  0  0  0  0  0  0
  194.6470  175.7950  142.3690 C   0  0  0  0  0  3  0  0  0  0  0  0
  194.0650  175.8320  145.0740 C   0  0  0  0  0  0  0  0  0  0  0  0
  193.1300  175.4130  144.1730 C   0  0  0  0  0  0  0  0  0  0  0  0
  195.3320  176.2520  144.6780 C   0  0  0  0  0  2  0  0  0  0  0  0
  1 11  2  0  0  0  0
  1  2  1  0  0  0  0
  2 17  2  0  0  0  0
  3 13  2  0  0  0  0
  4  1  1  0  0  0  0
  5 12  1  0  0  0  0
  6  2  1  0  0  0  0
  6  3  1  0  0  0  0
  7 21  1  1  0  0  0
  7 11  1  0  0  0  0
  9  3  1  0  0  0  0
 10  7  1  0  0  0  0
 11 16  1  0  0  0  0
 12  4  2  0  0  0  0
 13 18  1  0  0  0  0
 14 10  1  0  0  0  0
 14  4  1  0  0  0  0
 15  5  2  0  0  0  0
 15 14  1  0  0  0  0
 16  8  2  0  0  0  0
 17  8  1  0  0  0  0
 17 18  1  0  0  0  0
 19 20  1  0  0  0  0
 19  5  1  0  0  0  0
 21 27  1  0  0  0  0
 22 31  1  0  0  0  0
 23 30  2  0  0  0  0
 25 24  1  0  0  0  0
 26 22  1  0  0  0  0
 27 25  2  0  0  0  0
 28 23  1  0  0  0  0
 28 22  2  0  0  0  0
 29 24  2  0  0  0  0
 30 27  1  0  0  0  0
 30 29  1  0  0  0  0
 31 29  1  0  0  0  0
M  END
>  <MODEL>
3

>  <REMARK>
 VINA RESULT:      -8.9      1.243      1.541
  Name = 
  3 active torsions:
  status: ('A' for Active; 'I' for Inactive)
    1  A    between atoms: C_2  and  C_13
    2  A    between atoms: C_9  and  C_23
    3  A    between atoms: C_15  and  C_23
                            x       y       z     vdW  Elec       q    Type
                         _______ _______ _______ _____ _____    ______ ____

>  <TORSDO>
F 3

$$$$
=
 OpenBabel11052417523D

 31 36  0  0  1  0  0  0  0  0999 V2000
  187.4820  176.6320  144.2730 C   0  0  0  0  0  0  0  0  0  0  0  0
  186.6460  176.9560  145.3650 C   0  0  0  0  0  0  0  0  0  0  0  0
  184.8440  178.3870  146.3340 C   0  0  0  0  0  0  0  0  0  0  0  0
  187.1130  176.8480  142.8580 C   0  0  0  0  0  0  0  0  0  0  0  0
  186.2390  177.4030  140.9600 C   0  0  0  0  0  0  0  0  0  0  0  0
  185.2560  177.5140  145.1770 C   0  0  0  0  0  2  0  0  0  0  0  0
  189.7150  175.7840  143.3840 C   0  0  1  0  0  3  0  0  0  0  0  0
  188.3580  176.1420  146.8730 C   0  0  0  0  0  3  0  0  0  0  0  0
  183.9840  179.4160  146.1220 F   0  0  0  0  0  0  0  0  0  0  0  0
  189.0010  175.4660  142.0580 C   0  0  0  0  0  2  0  0  0  0  0  0
  188.7450  176.0500  144.5250 C   0  0  0  0  0  0  0  0  0  0  0  0
  186.0420  177.5510  142.3270 C   0  0  0  0  0  3  0  0  0  0  0  0
  185.2950  178.1480  147.5740 C   0  0  0  0  0  3  0  0  0  0  0  0
  187.8630  176.3540  141.8630 N   0  0  0  0  0  0  0  0  0  0  0  0
  187.3330  176.6600  140.6960 N   0  0  0  0  0  0  0  0  0  0  0  0
  189.1480  175.8450  145.8100 N   0  0  0  0  0  0  0  0  0  0  0  0
  187.1000  176.7030  146.6740 C   0  0  0  0  0  0  0  0  0  0  0  0
  186.2160  176.9890  147.8540 C   0  0  0  0  0  2  0  0  0  0  0  0
  185.3310  177.9310  139.9060 C   0  0  0  0  0  2  0  0  0  0  0  0
  183.9900  178.2910  140.5130 C   0  0  0  0  0  1  0  0  0  0  0  0
  190.6900  174.6620  143.7220 C   0  0  0  0  0  2  0  0  0  0  0  0
  195.7000  176.2700  143.1450 C   0  0  0  0  0  0  0  0  0  0  0  0
  193.5870  175.9180  144.3390 C   0  0  0  0  0  3  0  0  0  0  0  0
  193.1670  174.5710  141.0830 N   0  0  0  0  0  0  0  0  0  0  0  0
  191.9590  174.3060  141.5760 N   0  0  0  0  0  0  0  0  0  0  0  0
  197.0910  176.7910  143.1380 C   0  0  0  0  0  1  0  0  0  0  0  0
  191.9040  174.7400  142.8560 C   0  0  0  0  0  0  0  0  0  0  0  0
  194.9080  176.4030  144.3100 C   0  0  0  0  0  3  0  0  0  0  0  0
  193.8700  175.1800  142.0550 C   0  0  2  0  0  3  0  0  0  0  0  0
  193.1110  175.3090  143.1820 C   0  0  0  0  0  0  0  0  0  0  0  0
  195.1790  175.6510  141.9930 C   0  0  0  0  0  3  0  0  0  0  0  0
  1 11  2  0  0  0  0
  1  2  1  0  0  0  0
  2 17  2  0  0  0  0
  3 13  2  0  0  0  0
  4  1  1  0  0  0  0
  5 12  1  0  0  0  0
  6  2  1  0  0  0  0
  6  3  1  0  0  0  0
  7 21  1  1  0  0  0
  7 11  1  0  0  0  0
  9  3  1  0  0  0  0
 10  7  1  0  0  0  0
 11 16  1  0  0  0  0
 12  4  2  0  0  0  0
 13 18  1  0  0  0  0
 14 10  1  0  0  0  0
 14  4  1  0  0  0  0
 15  5  2  0  0  0  0
 15 14  1  0  0  0  0
 16  8  2  0  0  0  0
 17  8  1  0  0  0  0
 17 18  1  0  0  0  0
 19 20  1  0  0  0  0
 19  5  1  0  0  0  0
 22 28  1  0  0  0  0
 24 25  2  0  0  0  0
 24 29  1  0  0  0  0
 25 27  1  0  0  0  0
 26 22  1  0  0  0  0
 27 30  2  0  0  0  0
 27 21  1  0  0  0  0
 28 23  2  0  0  0  0
 29 31  1  6  0  0  0
 29 30  1  0  0  0  0
 30 23  1  0  0  0  0
 31 22  2  0  0  0  0
M  END
>  <MODEL>
4

>  <REMARK>
 VINA RESULT:      -8.5      1.664      1.918
  Name = 
  3 active torsions:
  status: ('A' for Active; 'I' for Inactive)
    1  A    between atoms: C_2  and  C_13
    2  A    between atoms: C_9  and  C_23
    3  A    between atoms: C_15  and  C_23
                            x       y       z     vdW  Elec       q    Type
                         _______ _______ _______ _____ _____    ______ ____

>  <TORSDO>
F 3

$$$$
=
 OpenBabel11052417523D

 31 36  0  0  1  0  0  0  0  0999 V2000
  187.6130  176.5490  144.5180 C   0  0  0  0  0  0  0  0  0  0  0  0
  186.6050  177.4100  145.0050 C   0  0  0  0  0  0  0  0  0  0  0  0
  185.3270  178.3330  146.9420 C   0  0  0  0  0  0  0  0  0  0  0  0
  188.8120  176.1600  145.2910 C   0  0  0  0  0  0  0  0  0  0  0  0
  190.3480  175.7740  146.7620 C   0  0  0  0  0  0  0  0  0  0  0  0
  186.6920  178.0640  146.3640 C   0  0  0  0  0  2  0  0  0  0  0  0
  188.5050  175.0160  142.6870 C   0  0  1  0  0  3  0  0  0  0  0  0
  185.4270  177.1660  142.9040 C   0  0  0  0  0  3  0  0  0  0  0  0
  185.1570  178.3250  148.2890 F   0  0  0  0  0  0  0  0  0  0  0  0
  189.9080  175.2110  143.2870 C   0  0  0  0  0  2  0  0  0  0  0  0
  187.4960  176.0280  143.2090 C   0  0  0  0  0  0  0  0  0  0  0  0
  189.0970  176.3650  146.6310 C   0  0  0  0  0  3  0  0  0  0  0  0
  184.2830  178.6060  146.1460 C   0  0  0  0  0  3  0  0  0  0  0  0
  189.8210  175.4930  144.7130 N   0  0  0  0  0  0  0  0  0  0  0  0
  190.7810  175.2700  145.5890 N   0  0  0  0  0  0  0  0  0  0  0  0
  186.4020  176.3350  142.4580 N   0  0  0  0  0  0  0  0  0  0  0  0
  185.5060  177.7150  144.1810 C   0  0  0  0  0  0  0  0  0  0  0  0
  184.4430  178.6670  144.6500 C   0  0  0  0  0  2  0  0  0  0  0  0
  191.1540  175.7540  148.0130 C   0  0  0  0  0  2  0  0  0  0  0  0
  191.5500  177.1660  148.3960 C   0  0  0  0  0  1  0  0  0  0  0  0
  188.5900  175.0380  141.1660 C   0  0  0  0  0  2  0  0  0  0  0  0
  189.5000  171.9260  136.9820 C   0  0  0  0  0  0  0  0  0  0  0  0
  188.8530  173.9910  138.1350 C   0  0  0  0  0  3  0  0  0  0  0  0
  189.7610  171.6520  140.6440 N   0  0  0  0  0  0  0  0  0  0  0  0
  189.4420  172.6830  141.4250 N   0  0  0  0  0  0  0  0  0  0  0  0
  189.6920  171.1780  135.7130 C   0  0  0  0  0  1  0  0  0  0  0  0
  189.0670  173.7230  140.6450 C   0  0  0  0  0  0  0  0  0  0  0  0
  189.0420  173.2640  136.9450 C   0  0  0  0  0  3  0  0  0  0  0  0
  189.5780  172.0450  139.3710 C   0  0  0  0  0  0  0  0  0  0  0  0
  189.1380  173.3360  139.3300 C   0  0  0  0  0  0  0  0  0  0  0  0
  189.7730  171.2970  138.2130 C   0  0  0  0  0  2  0  0  0  0  0  0
  1  2  1  0  0  0  0
  1  4  1  0  0  0  0
  2  6  1  0  0  0  0
  3  9  1  0  0  0  0
  4 12  2  0  0  0  0
  5 19  1  0  0  0  0
  6  3  1  0  0  0  0
  7 21  1  6  0  0  0
  7 11  1  0  0  0  0
  7 10  1  0  0  0  0
  8 17  1  0  0  0  0
 10 14  1  0  0  0  0
 11  1  2  0  0  0  0
 12  5  1  0  0  0  0
 13  3  2  0  0  0  0
 14  4  1  0  0  0  0
 14 15  1  0  0  0  0
 15  5  2  0  0  0  0
 16  8  2  0  0  0  0
 16 11  1  0  0  0  0
 17 18  1  0  0  0  0
 17  2  2  0  0  0  0
 18 13  1  0  0  0  0
 19 20  1  0  0  0  0
 22 31  1  0  0  0  0
 23 30  2  0  0  0  0
 24 25  1  0  0  0  0
 26 22  1  0  0  0  0
 27 21  1  0  0  0  0
 27 25  2  0  0  0  0
 28 22  2  0  0  0  0
 28 23  1  0  0  0  0
 29 24  2  0  0  0  0
 30 29  1  0  0  0  0
 30 27  1  0  0  0  0
 31 29  1  0  0  0  0
M  END
>  <MODEL>
5

>  <REMARK>
 VINA RESULT:      -8.5      3.228      6.362
  Name = 
  3 active torsions:
  status: ('A' for Active; 'I' for Inactive)
    1  A    between atoms: C_2  and  C_13
    2  A    between atoms: C_9  and  C_23
    3  A    between atoms: C_15  and  C_23
                            x       y       z     vdW  Elec       q    Type
                         _______ _______ _______ _____ _____    ______ ____

>  <TORSDO>
F 3

$$$$
=
 OpenBabel11052417523D

 31 36  0  0  1  0  0  0  0  0999 V2000
  187.6810  177.6130  144.5300 C   0  0  0  0  0  0  0  0  0  0  0  0
  186.7080  177.6310  145.5540 C   0  0  0  0  0  0  0  0  0  0  0  0
  184.4410  178.3190  146.3430 C   0  0  0  0  0  0  0  0  0  0  0  0
  187.3630  177.6460  143.0870 C   0  0  0  0  0  0  0  0  0  0  0  0
  186.4890  177.7970  141.1150 C   0  0  0  0  0  0  0  0  0  0  0  0
  185.2270  177.6330  145.2570 C   0  0  0  0  0  2  0  0  0  0  0  0
  190.1280  177.6280  143.8170 C   0  0  1  0  0  3  0  0  0  0  0  0
  188.4840  177.5410  147.1980 C   0  0  0  0  0  3  0  0  0  0  0  0
  183.2820  178.9530  146.0310 F   0  0  0  0  0  0  0  0  0  0  0  0
  189.6800  177.0400  142.4680 C   0  0  0  0  0  2  0  0  0  0  0  0
  189.0480  177.5440  144.8840 C   0  0  0  0  0  0  0  0  0  0  0  0
  186.1520  177.8920  142.4600 C   0  0  0  0  0  3  0  0  0  0  0  0
  184.8570  178.2910  147.6180 C   0  0  0  0  0  3  0  0  0  0  0  0
  188.3130  177.4410  142.1630 N   0  0  0  0  0  0  0  0  0  0  0  0
  187.7950  177.5040  140.9530 N   0  0  0  0  0  0  0  0  0  0  0  0
  189.4030  177.5320  146.1990 N   0  0  0  0  0  0  0  0  0  0  0  0
  187.1250  177.5930  146.8980 C   0  0  0  0  0  0  0  0  0  0  0  0
  186.1140  177.5600  148.0080 C   0  0  0  0  0  2  0  0  0  0  0  0
  185.5300  177.9290  139.9850 C   0  0  0  0  0  2  0  0  0  0  0  0
  184.1560  178.2910  140.5130 C   0  0  0  0  0  1  0  0  0  0  0  0
  191.4190  176.9540  144.2670 C   0  0  0  0  0  2  0  0  0  0  0  0
  190.7980  171.9780  142.5710 C   0  0  0  0  0  0  0  0  0  0  0  0
  190.3150  173.9480  143.9480 C   0  0  0  0  0  3  0  0  0  0  0  0
  192.9310  174.8580  141.7300 N   0  0  0  0  0  0  0  0  0  0  0  0
  192.8040  176.0090  142.3870 N   0  0  0  0  0  2  0  0  0  0  0  0
  190.5120  170.5620  142.2220 C   0  0  0  0  0  1  0  0  0  0  0  0
  191.8180  175.8840  143.3040 C   0  0  0  0  0  0  0  0  0  0  0  0
  190.0610  172.6080  143.6010 C   0  0  0  0  0  3  0  0  0  0  0  0
  192.0260  174.0050  142.2420 C   0  0  0  0  0  0  0  0  0  0  0  0
  191.3110  174.6100  143.2350 C   0  0  0  0  0  0  0  0  0  0  0  0
  191.8010  172.6810  141.8750 C   0  0  0  0  0  3  0  0  0  0  0  0
  1 11  2  0  0  0  0
  1  2  1  0  0  0  0
  2 17  2  0  0  0  0
  3 13  2  0  0  0  0
  4  1  1  0  0  0  0
  5 12  1  0  0  0  0
  6  2  1  0  0  0  0
  6  3  1  0  0  0  0
  7 21  1  1  0  0  0
  7 11  1  0  0  0  0
  9  3  1  0  0  0  0
 10  7  1  0  0  0  0
 11 16  1  0  0  0  0
 12  4  2  0  0  0  0
 13 18  1  0  0  0  0
 14 10  1  0  0  0  0
 14  4  1  0  0  0  0
 15  5  2  0  0  0  0
 15 14  1  0  0  0  0
 16  8  2  0  0  0  0
 17  8  1  0  0  0  0
 17 18  1  0  0  0  0
 19 20  1  0  0  0  0
 19  5  1  0  0  0  0
 22 28  1  0  0  0  0
 24 29  2  0  0  0  0
 24 25  1  0  0  0  0
 25 27  1  0  0  0  0
 26 22  1  0  0  0  0
 27 21  1  0  0  0  0
 28 23  2  0  0  0  0
 29 30  1  0  0  0  0
 30 27  2  0  0  0  0
 30 23  1  0  0  0  0
 31 29  1  0  0  0  0
 31 22  2  0  0  0  0
M  END
>  <MODEL>
6

>  <REMARK>
 VINA RESULT:      -8.4      2.277      2.786
  Name = 
  3 active torsions:
  status: ('A' for Active; 'I' for Inactive)
    1  A    between atoms: C_2  and  C_13
    2  A    between atoms: C_9  and  C_23
    3  A    between atoms: C_15  and  C_23
                            x       y       z     vdW  Elec       q    Type
                         _______ _______ _______ _____ _____    ______ ____

>  <TORSDO>
F 3

$$$$
=
 OpenBabel11052417523D

 31 36  0  0  1  0  0  0  0  0999 V2000
  187.1990  176.7820  143.1640 C   0  0  0  0  0  0  0  0  0  0  0  0
  186.2740  177.4040  142.2950 C   0  0  0  0  0  0  0  0  0  0  0  0
  183.9750  178.2920  141.8940 C   0  0  0  0  0  0  0  0  0  0  0  0
  187.1620  176.9060  144.6360 C   0  0  0  0  0  0  0  0  0  0  0  0
  186.7060  177.2640  146.7190 C   0  0  0  0  0  0  0  0  0  0  0  0
  185.1770  178.3090  142.8030 C   0  0  0  0  0  2  0  0  0  0  0  0
  189.1930  175.2340  143.5140 C   0  0  1  0  0  3  0  0  0  0  0  0
  187.4410  176.4310  140.4100 C   0  0  0  0  0  3  0  0  0  0  0  0
  182.7390  178.5010  142.4160 F   0  0  0  0  0  0  0  0  0  0  0  0
  189.4220  175.9290  144.8680 C   0  0  0  0  0  2  0  0  0  0  0  0
  188.2420  176.0030  142.6110 C   0  0  0  0  0  0  0  0  0  0  0  0
  186.1740  177.4410  145.4470 C   0  0  0  0  0  3  0  0  0  0  0  0
  184.1120  178.0990  140.5740 C   0  0  0  0  0  3  0  0  0  0  0  0
  188.1680  176.4490  145.3950 N   0  0  0  0  0  0  0  0  0  0  0  0
  187.9210  176.6810  146.6690 N   0  0  0  0  0  0  0  0  0  0  0  0
  188.3150  175.8360  141.2610 N   0  0  0  0  0  0  0  0  0  0  0  0
  186.4070  177.2200  140.9060 C   0  0  0  0  0  0  0  0  0  0  0  0
  185.4700  177.9080  139.9540 C   0  0  0  0  0  2  0  0  0  0  0  0
  186.0630  177.7160  147.9830 C   0  0  0  0  0  2  0  0  0  0  0  0
  184.8140  178.5130  147.6700 C   0  0  0  0  0  1  0  0  0  0  0  0
  190.5330  174.9800  142.8350 C   0  0  0  0  0  2  0  0  0  0  0  0
  195.0970  174.0370  145.3460 C   0  0  0  0  0  0  0  0  0  0  0  0
  193.4730  175.3710  144.0830 C   0  0  0  0  0  3  0  0  0  0  0  0
  191.9880  172.1970  144.6380 N   0  0  0  0  0  0  0  0  0  0  0  0
  191.0010  172.7730  143.9550 N   0  0  0  0  0  0  0  0  0  0  0  0
  196.4280  173.9250  145.9960 C   0  0  0  0  0  1  0  0  0  0  0  0
  191.3640  174.0380  143.6430 C   0  0  0  0  0  0  0  0  0  0  0  0
  194.7290  175.2430  144.7050 C   0  0  0  0  0  3  0  0  0  0  0  0
  192.9770  173.1020  144.7480 C   0  0  0  0  0  0  0  0  0  0  0  0
  192.6260  174.2680  144.1330 C   0  0  0  0  0  0  0  0  0  0  0  0
  194.2120  172.9410  145.3710 C   0  0  0  0  0  2  0  0  0  0  0  0
  1  4  1  0  0  0  0
  2  6  1  0  0  0  0
  2  1  2  0  0  0  0
  3  9  1  0  0  0  0
  3  6  1  0  0  0  0
  4 14  1  0  0  0  0
  4 12  2  0  0  0  0
  5 19  1  0  0  0  0
  7 21  1  6  0  0  0
  7 10  1  0  0  0  0
  8 17  2  0  0  0  0
  8 16  1  0  0  0  0
 10 14  1  0  0  0  0
 11  1  1  0  0  0  0
 11  7  1  0  0  0  0
 12  5  1  0  0  0  0
 13  3  2  0  0  0  0
 14 15  1  0  0  0  0
 15  5  2  0  0  0  0
 16 11  2  0  0  0  0
 17  2  1  0  0  0  0
 18 13  1  0  0  0  0
 18 17  1  0  0  0  0
 20 19  1  0  0  0  0
 21 27  1  0  0  0  0
 22 31  1  0  0  0  0
 22 26  1  0  0  0  0
 23 30  2  0  0  0  0
 23 28  1  0  0  0  0
 24 29  2  0  0  0  0
 25 24  1  0  0  0  0
 27 25  2  0  0  0  0
 27 30  1  0  0  0  0
 28 22  2  0  0  0  0
 29 31  1  0  0  0  0
 30 29  1  0  0  0  0
M  END
>  <MODEL>
7

>  <REMARK>
 VINA RESULT:      -8.3      1.561      4.253
  Name = 
  3 active torsions:
  status: ('A' for Active; 'I' for Inactive)
    1  A    between atoms: C_2  and  C_13
    2  A    between atoms: C_9  and  C_23
    3  A    between atoms: C_15  and  C_23
                            x       y       z     vdW  Elec       q    Type
                         _______ _______ _______ _____ _____    ______ ____

>  <TORSDO>
F 3

$$$$
=
 OpenBabel11052417523D

 31 36  0  0  1  0  0  0  0  0999 V2000
  187.7380  176.1660  144.4810 C   0  0  0  0  0  0  0  0  0  0  0  0
  186.8900  176.9620  145.2830 C   0  0  0  0  0  0  0  0  0  0  0  0
  185.5400  179.0440  145.5640 C   0  0  0  0  0  0  0  0  0  0  0  0
  187.7050  176.1540  143.0030 C   0  0  0  0  0  0  0  0  0  0  0  0
  187.3990  176.4960  140.8900 C   0  0  0  0  0  0  0  0  0  0  0  0
  185.8210  177.8480  144.6910 C   0  0  0  0  0  2  0  0  0  0  0  0
  189.6710  174.5160  144.2810 C   0  0  1  0  0  3  0  0  0  0  0  0
  187.9520  176.0440  147.2570 C   0  0  0  0  0  3  0  0  0  0  0  0
  185.1240  180.2040  144.9960 F   0  0  0  0  0  0  0  0  0  0  0  0
  189.1240  174.1310  142.8950 C   0  0  0  0  0  2  0  0  0  0  0  0
  188.6710  175.3090  145.1080 C   0  0  0  0  0  0  0  0  0  0  0  0
  187.0380  177.0020  142.1330 C   0  0  0  0  0  3  0  0  0  0  0  0
  185.6710  178.9700  146.8970 C   0  0  0  0  0  3  0  0  0  0  0  0
  188.4010  175.2470  142.3020 N   0  0  0  0  0  0  0  0  0  0  0  0
  188.2070  175.4230  141.0100 N   0  0  0  0  0  0  0  0  0  0  0  0
  188.7610  175.2920  146.4680 N   0  0  0  0  0  0  0  0  0  0  0  0
  187.0070  176.8910  146.6840 C   0  0  0  0  0  0  0  0  0  0  0  0
  186.0880  177.6860  147.5660 C   0  0  0  0  0  2  0  0  0  0  0  0
  186.9110  177.0150  139.5840 C   0  0  0  0  0  2  0  0  0  0  0  0
  185.6230  177.7880  139.7840 C   0  0  0  0  0  1  0  0  0  0  0  0
  190.1410  173.2640  145.0120 C   0  0  0  0  0  2  0  0  0  0  0  0
  195.3770  174.0310  145.1160 C   0  0  0  0  0  0  0  0  0  0  0  0
  193.0460  174.4210  145.7680 C   0  0  0  0  0  3  0  0  0  0  0  0
  193.0200  171.8050  143.3710 N   0  0  0  0  0  0  0  0  0  0  0  0
  191.7120  171.8880  143.6050 N   0  0  0  0  0  0  0  0  0  0  0  0
  196.8160  174.3770  145.2480 C   0  0  0  0  0  1  0  0  0  0  0  0
  191.4920  172.8490  144.5310 C   0  0  0  0  0  0  0  0  0  0  0  0
  194.4140  174.7320  145.8780 C   0  0  0  0  0  3  0  0  0  0  0  0
  193.6220  172.7230  144.1490 C   0  0  2  0  0  3  0  0  0  0  0  0
  192.6970  173.4010  144.8870 C   0  0  0  0  0  0  0  0  0  0  0  0
  194.9830  173.0080  144.2310 C   0  0  0  0  0  3  0  0  0  0  0  0
  1 11  2  0  0  0  0
  1  2  1  0  0  0  0
  2 17  2  0  0  0  0
  3 13  2  0  0  0  0
  4  1  1  0  0  0  0
  5 15  2  0  0  0  0
  5 12  1  0  0  0  0
  6  2  1  0  0  0  0
  6  3  1  0  0  0  0
  7 21  1  1  0  0  0
  7 11  1  0  0  0  0
  9  3  1  0  0  0  0
 10  7  1  0  0  0  0
 11 16  1  0  0  0  0
 12  4  2  0  0  0  0
 13 18  1  0  0  0  0
 14 10  1  0  0  0  0
 14  4  1  0  0  0  0
 15 14  1  0  0  0  0
 16  8  2  0  0  0  0
 17  8  1  0  0  0  0
 17 18  1  0  0  0  0
 19 20  1  0  0  0  0
 19  5  1  0  0  0  0
 22 26  1  0  0  0  0
 22 28  1  0  0  0  0
 23 28  2  0  0  0  0
 24 25  2  0  0  0  0
 24 29  1  0  0  0  0
 25 27  1  0  0  0  0
 27 30  2  0  0  0  0
 27 21  1  0  0  0  0
 29 31  1  6  0  0  0
 29 30  1  0  0  0  0
 30 23  1  0  0  0  0
 31 22  2  0  0  0  0
M  END
>  <MODEL>
8

>  <REMARK>
 VINA RESULT:      -8.2      1.643      1.888
  Name = 
  3 active torsions:
  status: ('A' for Active; 'I' for Inactive)
    1  A    between atoms: C_2  and  C_13
    2  A    between atoms: C_9  and  C_23
    3  A    between atoms: C_15  and  C_23
                            x       y       z     vdW  Elec       q    Type
                         _______ _______ _______ _____ _____    ______ ____

>  <TORSDO>
F 3

$$$$
=
 OpenBabel11052417523D

 31 36  0  0  1  0  0  0  0  0999 V2000
  188.8860  175.9300  144.6780 C   0  0  0  0  0  0  0  0  0  0  0  0
  189.5230  176.0830  145.9300 C   0  0  0  0  0  0  0  0  0  0  0  0
  190.1760  177.5590  147.8360 C   0  0  0  0  0  0  0  0  0  0  0  0
  187.7420  176.7510  144.2280 C   0  0  0  0  0  0  0  0  0  0  0  0
  186.1710  178.2030  143.9190 C   0  0  0  0  0  0  0  0  0  0  0  0
  189.0480  177.0820  146.9580 C   0  0  0  0  0  2  0  0  0  0  0  0
  188.7540  174.8000  142.3980 C   0  0  1  0  0  3  0  0  0  0  0  0
  191.0290  174.2790  145.3470 C   0  0  0  0  0  3  0  0  0  0  0  0
  190.1320  178.8100  148.3600 F   0  0  0  0  0  0  0  0  0  0  0  0
  187.2790  175.2300  142.3330 C   0  0  0  0  0  2  0  0  0  0  0  0
  189.3440  174.9270  143.7940 C   0  0  0  0  0  0  0  0  0  0  0  0
  187.2090  177.8990  144.7920 C   0  0  0  0  0  3  0  0  0  0  0  0
  191.2090  176.7550  148.1270 C   0  0  0  0  0  3  0  0  0  0  0  0
  187.0630  176.4400  143.1140 N   0  0  0  0  0  0  0  0  0  0  0  0
  186.0830  177.3000  142.9220 N   0  0  0  0  0  0  0  0  0  0  0  0
  190.4080  174.1530  144.1460 N   0  0  0  0  0  0  0  0  0  0  0  0
  190.6040  175.2430  146.2570 C   0  0  0  0  0  0  0  0  0  0  0  0
  191.2700  175.3460  147.5990 C   0  0  0  0  0  2  0  0  0  0  0  0
  185.2220  179.3370  144.0870 C   0  0  0  0  0  2  0  0  0  0  0  0
  184.0820  178.9270  144.9970 C   0  0  0  0  0  1  0  0  0  0  0  0
  188.9010  173.3850  141.8510 C   0  0  0  0  0  2  0  0  0  0  0  0
  189.4180  174.1860  136.6450 C   0  0  0  0  0  0  0  0  0  0  0  0
  188.2510  174.1740  138.8010 C   0  0  0  0  0  3  0  0  0  0  0  0
  191.5530  173.0280  139.4120 N   0  0  0  0  0  0  0  0  0  0  0  0
  191.0730  172.9560  140.6520 N   0  0  0  0  0  2  0  0  0  0  0  0
  189.3970  174.4460  135.1820 C   0  0  0  0  0  1  0  0  0  0  0  0
  189.7870  173.3730  140.6490 C   0  0  0  0  0  0  0  0  0  0  0  0
  188.2530  174.4140  137.4140 C   0  0  0  0  0  3  0  0  0  0  0  0
  190.5610  173.4870  138.6270 C   0  0  0  0  0  0  0  0  0  0  0  0
  189.4350  173.7100  139.3650 C   0  0  0  0  0  0  0  0  0  0  0  0
  190.5970  173.7120  137.2540 C   0  0  0  0  0  3  0  0  0  0  0  0
  1  2  1  0  0  0  0
  2 17  2  0  0  0  0
  2  6  1  0  0  0  0
  3 13  2  0  0  0  0
  3  9  1  0  0  0  0
  4  1  1  0  0  0  0
  4 12  2  0  0  0  0
  5 19  1  0  0  0  0
  5 12  1  0  0  0  0
  6  3  1  0  0  0  0
  7 21  1  1  0  0  0
  7 11  1  0  0  0  0
  8 17  1  0  0  0  0
 10  7  1  0  0  0  0
 10 14  1  0  0  0  0
 11 16  1  0  0  0  0
 11  1  2  0  0  0  0
 14  4  1  0  0  0  0
 15 14  1  0  0  0  0
 15  5  2  0  0  0  0
 16  8  2  0  0  0  0
 17 18  1  0  0  0  0
 18 13  1  0  0  0  0
 19 20  1  0  0  0  0
 22 31  2  0  0  0  0
 22 28  1  0  0  0  0
 23 30  1  0  0  0  0
 24 25  1  0  0  0  0
 26 22  1  0  0  0  0
 27 25  1  0  0  0  0
 27 21  1  0  0  0  0
 28 23  2  0  0  0  0
 29 30  1  0  0  0  0
 29 24  2  0  0  0  0
 30 27  2  0  0  0  0
 31 29  1  0  0  0  0
M  END
>  <MODEL>
9

>  <REMARK>
 VINA RESULT:      -8.2      3.399      5.904
  Name = 
  3 active torsions:
  status: ('A' for Active; 'I' for Inactive)
    1  A    between atoms: C_2  and  C_13
    2  A    between atoms: C_9  and  C_23
    3  A    between atoms: C_15  and  C_23
                            x       y       z     vdW  Elec       q    Type
                         _______ _______ _______ _____ _____    ______ ____

>  <TORSDO>
F 3

$$$$
