=
 OpenBabel11052420333D

 34 39  0  0  1  0  0  0  0  0999 V2000
  194.7550  172.7370  144.0330 N   0  0  0  0  0  0  0  0  0  0  0  0
  197.8830  170.5410  144.6770 C   0  0  0  0  0  2  0  0  0  0  0  0
  197.6940  172.9300  143.9430 C   0  0  0  0  0  2  0  0  0  0  0  0
  192.6070  173.9770  144.2000 C   0  0  1  0  0  3  0  0  0  0  0  0
  193.3180  172.6890  143.7330 C   0  0  0  0  0  2  0  0  0  0  0  0
  194.7350  175.1820  143.7670 C   0  0  0  0  0  0  0  0  0  0  0  0
  195.8650  176.4070  143.5820 S   0  0  0  0  0  0  0  0  0  0  0  0
  193.2490  175.2600  143.6410 C   0  0  0  0  0  2  0  0  0  0  0  0
  196.8070  174.1310  143.8840 C   0  0  0  0  0  0  0  0  0  0  0  0
  195.4200  173.9980  143.8950 C   0  0  0  0  0  0  0  0  0  0  0  0
  197.2530  175.4390  143.6990 C   0  0  0  0  0  3  0  0  0  0  0  0
  197.3210  169.3590  145.4750 C   0  0  0  0  0  2  0  0  0  0  0  0
  196.4360  169.7900  146.6520 C   0  0  1  0  0  3  0  0  0  0  0  0
  195.0350  170.2860  146.2420 C   0  0  0  0  0  2  0  0  0  0  0  0
  196.9740  171.7720  144.6440 C   0  0  1  0  0  3  0  0  0  0  0  0
  194.8120  170.3550  144.7270 C   0  0  0  0  0  2  0  0  0  0  0  0
  195.5650  171.5080  144.0400 C   0  0  1  0  0  3  0  0  0  0  0  0
  196.3170  168.6850  147.6480 C   0  0  0  0  0  0  0  0  0  0  0  0
  195.0600  168.2250  148.0150 O   0  0  0  0  0  0  0  0  0  0  0  0
  197.3470  168.1660  148.1560 O   0  0  0  0  0  1  0  0  0  0  0  0
  191.2070  173.9310  143.9190 O   0  0  0  0  0  0  0  0  0  0  0  0
  189.0620  175.1930  146.6560 C   0  0  0  0  0  3  0  0  0  0  0  0
  189.4510  175.6480  143.9190 C   0  0  0  0  0  3  0  0  0  0  0  0
  186.5440  177.8380  146.0250 C   0  0  0  0  0  0  0  0  0  0  0  0
  187.3210  176.8780  146.6900 C   0  0  0  0  0  3  0  0  0  0  0  0
  188.2890  176.1490  145.9940 C   0  0  0  0  0  0  0  0  0  0  0  0
  187.7110  177.3330  143.9510 C   0  0  0  0  0  3  0  0  0  0  0  0
  188.4860  176.3790  144.6150 C   0  0  0  0  0  0  0  0  0  0  0  0
  186.7450  178.0580  144.6540 C   0  0  0  0  0  3  0  0  0  0  0  0
  190.2280  174.6850  144.5850 C   0  0  0  0  0  0  0  0  0  0  0  0
  190.0270  174.4660  145.9520 C   0  0  0  0  0  3  0  0  0  0  0  0
  185.5240  178.6060  146.7600 C   0  0  0  0  0  0  0  0  0  0  0  0
  185.8680  179.4450  147.6350 O   0  0  0  0  0  0  0  0  0  0  0  0
  184.1380  178.4110  146.4910 N   0  0  0  0  0  1  0  0  0  0  0  0
  1 17  1  0  0  0  0
  2 12  1  0  0  0  0
  4 21  1  6  0  0  0
  5  1  1  0  0  0  0
  5  4  1  0  0  0  0
  6 10  2  0  0  0  0
  7 11  1  0  0  0  0
  7  6  1  0  0  0  0
  8  6  1  0  0  0  0
  8  4  1  0  0  0  0
  9 10  1  0  0  0  0
  9  3  1  0  0  0  0
 10  1  1  0  0  0  0
 11  9  2  0  0  0  0
 12 13  1  0  0  0  0
 13 18  1  1  0  0  0
 14 13  1  0  0  0  0
 15  3  1  6  0  0  0
 15  2  1  0  0  0  0
 16 14  1  0  0  0  0
 17 15  1  0  0  0  0
 17 16  1  1  0  0  0
 18 19  2  0  0  0  0
 18 20  1  0  0  0  0
 21 30  1  0  0  0  0
 23 30  2  0  0  0  0
 23 28  1  0  0  0  0
 24 25  1  0  0  0  0
 24 32  1  0  0  0  0
 26 22  1  0  0  0  0
 26 25  2  0  0  0  0
 27 28  2  0  0  0  0
 27 29  1  0  0  0  0
 28 26  1  0  0  0  0
 29 24  2  0  0  0  0
 30 31  1  0  0  0  0
 31 22  2  0  0  0  0
 32 33  2  0  0  0  0
 34 32  1  0  0  0  0
M  END
>  <MODEL>
1

>  <REMARK>
 VINA RESULT:      -8.6      0.000      0.000
  Name = 
  4 active torsions:
  status: ('A' for Active; 'I' for Inactive)
    1  A    between atoms: C_3  and  C_25
    2  A    between atoms: C_7  and  C_11
    3  A    between atoms: C_8  and  O_18
    4  A    between atoms: O_18  and  C_30
                            x       y       z     vdW  Elec       q    Type
                         _______ _______ _______ _____ _____    ______ ____

>  <TORSDO>
F 4

$$$$
=
 OpenBabel11052420333D

 34 39  0  0  1  0  0  0  0  0999 V2000
  189.5070  175.7870  143.7370 N   0  0  0  0  0  0  0  0  0  0  0  0
  192.2630  174.3290  146.0410 C   0  0  0  0  0  2  0  0  0  0  0  0
  190.5000  173.1780  144.6830 C   0  0  0  0  0  2  0  0  0  0  0  0
  188.2240  176.9980  141.9880 C   0  0  1  0  0  3  0  0  0  0  0  0
  188.7280  176.9970  143.4470 C   0  0  0  0  0  2  0  0  0  0  0  0
  188.1550  174.5200  142.1210 C   0  0  0  0  0  0  0  0  0  0  0  0
  187.8840  172.9090  141.7410 S   0  0  0  0  0  0  0  0  0  0  0  0
  187.4370  175.7280  141.6170 C   0  0  0  0  0  2  0  0  0  0  0  0
  189.5480  173.3100  143.5380 C   0  0  0  0  0  0  0  0  0  0  0  0
  189.0750  174.5580  143.1410 C   0  0  0  0  0  0  0  0  0  0  0  0
  188.9710  172.2380  142.8590 C   0  0  0  0  0  3  0  0  0  0  0  0
  193.2250  175.5090  146.2240 C   0  0  0  0  0  2  0  0  0  0  0  0
  193.6130  176.1830  144.9010 C   0  0  1  0  0  3  0  0  0  0  0  0
  192.5090  177.0710  144.2950 C   0  0  0  0  0  2  0  0  0  0  0  0
  191.3100  174.4670  144.8510 C   0  0  1  0  0  3  0  0  0  0  0  0
  191.1850  177.0420  145.0680 C   0  0  0  0  0  2  0  0  0  0  0  0
  190.4000  175.7280  144.9070 C   0  0  1  0  0  3  0  0  0  0  0  0
  194.8700  176.9700  145.0670 C   0  0  0  0  0  0  0  0  0  0  0  0
  194.9750  177.8840  146.1070 O   0  0  0  0  0  1  0  0  0  0  0  0
  195.8360  176.8120  144.2740 O   0  0  0  0  0  0  0  0  0  0  0  0
  187.4730  178.1790  141.6970 O   0  0  0  0  0  0  0  0  0  0  0  0
  184.3180  178.9170  143.4830 C   0  0  0  0  0  3  0  0  0  0  0  0
  185.1390  178.0890  140.9360 C   0  0  0  0  0  3  0  0  0  0  0  0
  181.0490  178.5860  141.7700 C   0  0  0  0  0  0  0  0  0  0  0  0
  182.0050  178.8340  142.7660 C   0  0  0  0  0  3  0  0  0  0  0  0
  183.3660  178.6710  142.4920 C   0  0  0  0  0  0  0  0  0  0  0  0
  182.8280  178.0050  140.2170 C   0  0  0  0  0  3  0  0  0  0  0  0
  183.7800  178.2540  141.2080 C   0  0  0  0  0  0  0  0  0  0  0  0
  181.4690  178.1710  140.4980 C   0  0  0  0  0  3  0  0  0  0  0  0
  186.0990  178.3350  141.9330 C   0  0  0  0  0  0  0  0  0  0  0  0
  185.6780  178.7500  143.2020 C   0  0  0  0  0  3  0  0  0  0  0  0
  179.6140  178.7590  142.0600 C   0  0  0  0  0  0  0  0  0  0  0  0
  179.2200  178.9230  143.2450 O   0  0  0  0  0  0  0  0  0  0  0  0
  178.6560  178.7420  141.0040 N   0  0  0  0  0  1  0  0  0  0  0  0
  1 17  1  0  0  0  0
  2 12  1  0  0  0  0
  4 21  1  1  0  0  0
  4  5  1  0  0  0  0
  5  1  1  0  0  0  0
  6 10  2  0  0  0  0
  7  6  1  0  0  0  0
  7 11  1  0  0  0  0
  8  4  1  0  0  0  0
  8  6  1  0  0  0  0
  9  3  1  0  0  0  0
 10  9  1  0  0  0  0
 10  1  1  0  0  0  0
 11  9  2  0  0  0  0
 13 18  1  1  0  0  0
 13 12  1  0  0  0  0
 14 13  1  0  0  0  0
 14 16  1  0  0  0  0
 15  3  1  1  0  0  0
 15 17  1  0  0  0  0
 15  2  1  0  0  0  0
 17 16  1  6  0  0  0
 18 19  1  0  0  0  0
 20 18  2  0  0  0  0
 21 30  1  0  0  0  0
 23 28  2  0  0  0  0
 23 30  1  0  0  0  0
 24 32  1  0  0  0  0
 24 25  2  0  0  0  0
 26 25  1  0  0  0  0
 26 22  2  0  0  0  0
 27 29  2  0  0  0  0
 27 28  1  0  0  0  0
 28 26  1  0  0  0  0
 29 24  1  0  0  0  0
 30 31  2  0  0  0  0
 31 22  1  0  0  0  0
 32 33  2  0  0  0  0
 34 32  1  0  0  0  0
M  END
>  <MODEL>
2

>  <REMARK>
 VINA RESULT:      -8.3      4.944      7.195
  Name = 
  4 active torsions:
  status: ('A' for Active; 'I' for Inactive)
    1  A    between atoms: C_3  and  C_25
    2  A    between atoms: C_7  and  C_11
    3  A    between atoms: C_8  and  O_18
    4  A    between atoms: O_18  and  C_30
                            x       y       z     vdW  Elec       q    Type
                         _______ _______ _______ _____ _____    ______ ____

>  <TORSDO>
F 4

$$$$
=
 OpenBabel11052420333D

 34 39  0  0  1  0  0  0  0  0999 V2000
  191.8060  175.2360  144.7430 N   0  0  0  0  0  0  0  0  0  0  0  0
  195.3060  173.6570  145.2700 C   0  0  0  0  0  2  0  0  0  0  0  0
  193.0560  172.5820  145.0250 C   0  0  0  0  0  2  0  0  0  0  0  0
  189.8420  176.5180  143.9220 C   0  0  1  0  0  3  0  0  0  0  0  0
  191.0310  176.4720  144.9050 C   0  0  0  0  0  2  0  0  0  0  0  0
  189.7680  174.0390  144.0620 C   0  0  0  0  0  0  0  0  0  0  0  0
  189.2850  172.4450  143.8730 S   0  0  0  0  0  0  0  0  0  0  0  0
  188.9350  175.2770  144.0100 C   0  0  0  0  0  2  0  0  0  0  0  0
  191.6530  172.7640  144.5430 C   0  0  0  0  0  0  0  0  0  0  0  0
  191.0850  174.0320  144.4540 C   0  0  0  0  0  0  0  0  0  0  0  0
  190.7710  171.7220  144.2590 C   0  0  0  0  0  3  0  0  0  0  0  0
  196.2620  174.8060  144.9310 C   0  0  0  0  0  2  0  0  0  0  0  0
  195.9290  175.4970  143.6010 C   0  0  1  0  0  3  0  0  0  0  0  0
  194.7010  176.4270  143.6620 C   0  0  0  0  0  2  0  0  0  0  0  0
  193.8790  173.8460  144.7510 C   0  0  1  0  0  3  0  0  0  0  0  0
  193.9720  176.4180  145.0110 C   0  0  0  0  0  2  0  0  0  0  0  0
  193.1740  175.1290  145.2770 C   0  0  1  0  0  3  0  0  0  0  0  0
  197.1140  176.2460  143.0920 C   0  0  0  0  0  0  0  0  0  0  0  0
  197.3080  177.5660  143.4740 O   0  0  0  0  0  1  0  0  0  0  0  0
  197.9410  175.6910  142.3200 O   0  0  0  0  0  0  0  0  0  0  0  0
  189.0890  177.7240  144.0680 O   0  0  0  0  0  0  0  0  0  0  0  0
  185.4370  178.1280  144.4980 C   0  0  0  0  0  3  0  0  0  0  0  0
  187.2890  177.9040  142.4070 C   0  0  0  0  0  3  0  0  0  0  0  0
  183.1940  178.3360  141.5550 C   0  0  0  0  0  0  0  0  0  0  0  0
  183.6370  178.3040  142.8860 C   0  0  0  0  0  3  0  0  0  0  0  0
  184.9970  178.1610  143.1730 C   0  0  0  0  0  0  0  0  0  0  0  0
  185.4910  178.0800  140.7950 C   0  0  0  0  0  3  0  0  0  0  0  0
  185.9310  178.0490  142.1200 C   0  0  0  0  0  0  0  0  0  0  0  0
  184.1290  178.2230  140.5150 C   0  0  0  0  0  3  0  0  0  0  0  0
  187.7330  177.8700  143.7410 C   0  0  0  0  0  0  0  0  0  0  0  0
  186.8000  177.9830  144.7780 C   0  0  0  0  0  3  0  0  0  0  0  0
  181.7600  178.4870  141.2540 C   0  0  0  0  0  0  0  0  0  0  0  0
  181.2610  177.9290  140.2410 O   0  0  0  0  0  0  0  0  0  0  0  0
  180.9200  179.2640  142.1050 N   0  0  0  0  0  1  0  0  0  0  0  0
  1  5  1  0  0  0  0
  1 17  1  0  0  0  0
  4  8  1  0  0  0  0
  4 21  1  1  0  0  0
  4  5  1  0  0  0  0
  6 10  2  0  0  0  0
  7  6  1  0  0  0  0
  7 11  1  0  0  0  0
  8  6  1  0  0  0  0
  9  3  1  0  0  0  0
 10  9  1  0  0  0  0
 10  1  1  0  0  0  0
 11  9  2  0  0  0  0
 12  2  1  0  0  0  0
 13 18  1  1  0  0  0
 13 14  1  0  0  0  0
 13 12  1  0  0  0  0
 14 16  1  0  0  0  0
 15  3  1  1  0  0  0
 15  2  1  0  0  0  0
 15 17  1  0  0  0  0
 17 16  1  6  0  0  0
 18 19  1  0  0  0  0
 20 18  2  0  0  0  0
 22 31  1  0  0  0  0
 23 30  1  0  0  0  0
 24 25  2  0  0  0  0
 25 26  1  0  0  0  0
 26 22  2  0  0  0  0
 27 28  1  0  0  0  0
 28 23  2  0  0  0  0
 28 26  1  0  0  0  0
 29 27  2  0  0  0  0
 29 24  1  0  0  0  0
 30 21  1  0  0  0  0
 30 31  2  0  0  0  0
 32 24  1  0  0  0  0
 32 34  1  0  0  0  0
 33 32  2  0  0  0  0
M  END
>  <MODEL>
3

>  <REMARK>
 VINA RESULT:      -8.3      3.867      5.844
  Name = 
  4 active torsions:
  status: ('A' for Active; 'I' for Inactive)
    1  A    between atoms: C_3  and  C_25
    2  A    between atoms: C_7  and  C_11
    3  A    between atoms: C_8  and  O_18
    4  A    between atoms: O_18  and  C_30
                            x       y       z     vdW  Elec       q    Type
                         _______ _______ _______ _____ _____    ______ ____

>  <TORSDO>
F 4

$$$$
=
 OpenBabel11052420333D

 34 39  0  0  1  0  0  0  0  0999 V2000
  195.3900  174.8800  143.2450 N   0  0  0  0  0  0  0  0  0  0  0  0
  197.9410  173.7860  140.5400 C   0  0  0  0  0  2  0  0  0  0  0  0
  197.1970  172.6330  142.6360 C   0  0  0  0  0  2  0  0  0  0  0  0
  193.3750  175.6330  144.4910 C   0  0  1  0  0  3  0  0  0  0  0  0
  194.7040  176.0440  143.8200 C   0  0  0  0  0  2  0  0  0  0  0  0
  194.4300  173.4410  144.9930 C   0  0  0  0  0  0  0  0  0  0  0  0
  194.6940  171.8990  145.5980 S   0  0  0  0  0  0  0  0  0  0  0  0
  193.5440  174.5140  145.5350 C   0  0  0  0  0  2  0  0  0  0  0  0
  196.1310  172.5490  143.6810 C   0  0  0  0  0  0  0  0  0  0  0  0
  195.3170  173.6440  143.9640 C   0  0  0  0  0  0  0  0  0  0  0  0
  195.9300  171.4560  144.5220 C   0  0  0  0  0  3  0  0  0  0  0  0
  197.6250  174.7180  139.3650 C   0  0  0  0  0  2  0  0  0  0  0  0
  196.1290  174.7750  139.0240 C   0  0  1  0  0  3  0  0  0  0  0  0
  195.2860  175.6030  140.0150 C   0  0  0  0  0  2  0  0  0  0  0  0
  196.8320  173.6920  141.5900 C   0  0  1  0  0  3  0  0  0  0  0  0
  196.0740  176.1370  141.2170 C   0  0  0  0  0  2  0  0  0  0  0  0
  196.4530  175.0530  142.2420 C   0  0  1  0  0  3  0  0  0  0  0  0
  195.9300  175.2810  137.6350 C   0  0  0  0  0  0  0  0  0  0  0  0
  197.0300  175.6560  136.8770 O   0  0  0  0  0  0  0  0  0  0  0  0
  194.7730  175.3670  137.1430 O   0  0  0  0  0  1  0  0  0  0  0  0
  192.6980  176.7630  145.0440 O   0  0  0  0  0  0  0  0  0  0  0  0
  189.5620  177.8110  143.3850 C   0  0  0  0  0  3  0  0  0  0  0  0
  190.3990  176.8970  145.8980 C   0  0  0  0  0  3  0  0  0  0  0  0
  186.3490  177.8060  145.2310 C   0  0  0  0  0  0  0  0  0  0  0  0
  187.2840  177.9590  144.1970 C   0  0  0  0  0  3  0  0  0  0  0  0
  188.6310  177.6580  144.4140 C   0  0  0  0  0  0  0  0  0  0  0  0
  188.1230  177.0450  146.7110 C   0  0  0  0  0  3  0  0  0  0  0  0
  189.0530  177.1960  145.6800 C   0  0  0  0  0  0  0  0  0  0  0  0
  186.7770  177.3490  146.4860 C   0  0  0  0  0  3  0  0  0  0  0  0
  191.3370  177.0520  144.8630 C   0  0  0  0  0  0  0  0  0  0  0  0
  190.9090  177.5080  143.6110 C   0  0  0  0  0  3  0  0  0  0  0  0
  184.9280  178.1240  145.0010 C   0  0  0  0  0  0  0  0  0  0  0  0
  184.4540  178.1060  143.8340 O   0  0  0  0  0  0  0  0  0  0  0  0
  184.0750  178.4570  146.0940 N   0  0  0  0  0  1  0  0  0  0  0  0
  1  5  1  0  0  0  0
  1 10  1  0  0  0  0
  3  9  1  0  0  0  0
  4 21  1  1  0  0  0
  4  8  1  0  0  0  0
  5  4  1  0  0  0  0
  6  8  1  0  0  0  0
  6  7  1  0  0  0  0
  9 10  1  0  0  0  0
  9 11  2  0  0  0  0
 10  6  2  0  0  0  0
 11  7  1  0  0  0  0
 12  2  1  0  0  0  0
 13 18  1  6  0  0  0
 13 12  1  0  0  0  0
 13 14  1  0  0  0  0
 14 16  1  0  0  0  0
 15  2  1  6  0  0  0
 15 17  1  0  0  0  0
 15  3  1  0  0  0  0
 17 16  1  6  0  0  0
 17  1  1  0  0  0  0
 19 18  2  0  0  0  0
 20 18  1  0  0  0  0
 22 31  2  0  0  0  0
 22 26  1  0  0  0  0
 24 29  1  0  0  0  0
 25 26  1  0  0  0  0
 25 24  2  0  0  0  0
 26 28  2  0  0  0  0
 28 23  1  0  0  0  0
 28 27  1  0  0  0  0
 29 27  2  0  0  0  0
 30 21  1  0  0  0  0
 30 23  2  0  0  0  0
 31 30  1  0  0  0  0
 32 24  1  0  0  0  0
 32 34  1  0  0  0  0
 33 32  2  0  0  0  0
M  END
>  <MODEL>
4

>  <REMARK>
 VINA RESULT:      -8.0      3.318      5.464
  Name = 
  4 active torsions:
  status: ('A' for Active; 'I' for Inactive)
    1  A    between atoms: C_3  and  C_25
    2  A    between atoms: C_7  and  C_11
    3  A    between atoms: C_8  and  O_18
    4  A    between atoms: O_18  and  C_30
                            x       y       z     vdW  Elec       q    Type
                         _______ _______ _______ _____ _____    ______ ____

>  <TORSDO>
F 4

$$$$
=
 OpenBabel11052420333D

 34 39  0  0  1  0  0  0  0  0999 V2000
  195.9030  175.1740  143.2960 N   0  0  0  0  0  0  0  0  0  0  0  0
  197.7480  174.5080  139.9530 C   0  0  0  0  0  2  0  0  0  0  0  0
  197.9410  173.3650  142.1750 C   0  0  0  0  0  2  0  0  0  0  0  0
  194.2150  175.5290  145.0860 C   0  0  1  0  0  3  0  0  0  0  0  0
  195.1540  176.1870  144.0510 C   0  0  0  0  0  2  0  0  0  0  0  0
  195.8640  173.6800  145.2490 C   0  0  0  0  0  0  0  0  0  0  0  0
  196.6540  172.2870  145.7460 S   0  0  0  0  0  0  0  0  0  0  0  0
  194.9430  174.5560  146.0310 C   0  0  0  0  0  2  0  0  0  0  0  0
  197.2760  173.1120  143.4890 C   0  0  0  0  0  0  0  0  0  0  0  0
  196.3410  174.0080  144.0020 C   0  0  0  0  0  0  0  0  0  0  0  0
  197.5960  172.0640  144.3510 C   0  0  0  0  0  3  0  0  0  0  0  0
  196.8910  175.2570  138.9260 C   0  0  0  0  0  2  0  0  0  0  0  0
  195.3930  174.9450  139.0460 C   0  0  1  0  0  3  0  0  0  0  0  0
  194.7000  175.6250  140.2440 C   0  0  0  0  0  2  0  0  0  0  0  0
  197.0460  174.2350  141.2860 C   0  0  1  0  0  3  0  0  0  0  0  0
  195.6490  176.4080  141.1580 C   0  0  0  0  0  2  0  0  0  0  0  0
  196.5570  175.5160  142.0220 C   0  0  1  0  0  3  0  0  0  0  0  0
  194.6850  175.2920  137.7800 C   0  0  0  0  0  0  0  0  0  0  0  0
  195.4220  175.6450  136.6570 O   0  0  0  0  0  0  0  0  0  0  0  0
  193.4270  175.2650  137.7190 O   0  0  0  0  0  1  0  0  0  0  0  0
  193.4760  176.5100  145.8160 O   0  0  0  0  0  0  0  0  0  0  0  0
  190.0980  175.9290  147.2080 C   0  0  0  0  0  3  0  0  0  0  0  0
  191.2610  177.1590  144.9750 C   0  0  0  0  0  3  0  0  0  0  0  0
  187.0830  177.1670  145.4430 C   0  0  0  0  0  0  0  0  0  0  0  0
  187.8980  176.5490  146.4040 C   0  0  0  0  0  3  0  0  0  0  0  0
  189.2870  176.5450  146.2520 C   0  0  0  0  0  0  0  0  0  0  0  0
  189.0630  177.7790  144.1700 C   0  0  0  0  0  3  0  0  0  0  0  0
  189.8740  177.1650  145.1280 C   0  0  0  0  0  0  0  0  0  0  0  0
  187.6740  177.7790  144.3290 C   0  0  0  0  0  3  0  0  0  0  0  0
  192.0780  176.5380  145.9360 C   0  0  0  0  0  0  0  0  0  0  0  0
  191.4880  175.9280  147.0480 C   0  0  0  0  0  3  0  0  0  0  0  0
  185.6180  177.1700  145.6050 C   0  0  0  0  0  0  0  0  0  0  0  0
  185.0760  176.4850  146.5130 O   0  0  0  0  0  0  0  0  0  0  0  0
  184.7980  177.9490  144.7370 N   0  0  0  0  0  1  0  0  0  0  0  0
  1 10  1  0  0  0  0
  1  5  1  0  0  0  0
  3  9  1  0  0  0  0
  4 21  1  1  0  0  0
  4  8  1  0  0  0  0
  5  4  1  0  0  0  0
  6  7  1  0  0  0  0
  6  8  1  0  0  0  0
  9 10  1  0  0  0  0
  9 11  2  0  0  0  0
 10  6  2  0  0  0  0
 11  7  1  0  0  0  0
 12 13  1  0  0  0  0
 12  2  1  0  0  0  0
 13 18  1  6  0  0  0
 13 14  1  0  0  0  0
 14 16  1  0  0  0  0
 15  2  1  6  0  0  0
 15 17  1  0  0  0  0
 15  3  1  0  0  0  0
 17 16  1  6  0  0  0
 17  1  1  0  0  0  0
 19 18  2  0  0  0  0
 20 18  1  0  0  0  0
 21 30  1  0  0  0  0
 23 28  2  0  0  0  0
 23 30  1  0  0  0  0
 24 32  1  0  0  0  0
 24 25  2  0  0  0  0
 26 25  1  0  0  0  0
 26 22  2  0  0  0  0
 27 29  2  0  0  0  0
 27 28  1  0  0  0  0
 28 26  1  0  0  0  0
 29 24  1  0  0  0  0
 30 31  2  0  0  0  0
 31 22  1  0  0  0  0
 32 33  2  0  0  0  0
 34 32  1  0  0  0  0
M  END
>  <MODEL>
5

>  <REMARK>
 VINA RESULT:      -7.9      3.227      5.439
  Name = 
  4 active torsions:
  status: ('A' for Active; 'I' for Inactive)
    1  A    between atoms: C_3  and  C_25
    2  A    between atoms: C_7  and  C_11
    3  A    between atoms: C_8  and  O_18
    4  A    between atoms: O_18  and  C_30
                            x       y       z     vdW  Elec       q    Type
                         _______ _______ _______ _____ _____    ______ ____

>  <TORSDO>
F 4

$$$$
=
 OpenBabel11052420333D

 34 39  0  0  1  0  0  0  0  0999 V2000
  191.6910  176.5690  144.4360 N   0  0  0  0  0  0  0  0  0  0  0  0
  195.0190  175.1860  145.8620 C   0  0  0  0  0  2  0  0  0  0  0  0
  192.7620  175.4150  146.9270 C   0  0  0  0  0  2  0  0  0  0  0  0
  189.6600  177.0330  143.0800 C   0  0  1  0  0  3  0  0  0  0  0  0
  191.1190  177.4290  143.3920 C   0  0  0  0  0  2  0  0  0  0  0  0
  189.4640  176.3030  145.4450 C   0  0  0  0  0  0  0  0  0  0  0  0
  188.8310  175.7520  146.8970 S   0  0  0  0  0  0  0  0  0  0  0  0
  188.7600  177.0010  144.3290 C   0  0  0  0  0  2  0  0  0  0  0  0
  191.2970  175.5770  146.6800 C   0  0  0  0  0  0  0  0  0  0  0  0
  190.8290  176.1580  145.5030 C   0  0  0  0  0  0  0  0  0  0  0  0
  190.2990  175.2860  147.6090 C   0  0  0  0  0  3  0  0  0  0  0  0
  195.8660  174.9520  144.6060 C   0  0  0  0  0  2  0  0  0  0  0  0
  195.1220  174.1730  143.5120 C   0  0  1  0  0  3  0  0  0  0  0  0
  194.0710  175.0030  142.7490 C   0  0  0  0  0  2  0  0  0  0  0  0
  193.5180  175.3270  145.5970 C   0  0  1  0  0  3  0  0  0  0  0  0
  193.8850  176.4270  143.2850 C   0  0  0  0  0  2  0  0  0  0  0  0
  193.1470  176.4910  144.6340 C   0  0  1  0  0  3  0  0  0  0  0  0
  196.0920  173.5670  142.5530 C   0  0  0  0  0  0  0  0  0  0  0  0
  196.8400  174.3890  141.7220 O   0  0  0  0  0  0  0  0  0  0  0  0
  196.2390  172.3170  142.4930 O   0  0  0  0  0  1  0  0  0  0  0  0
  189.1020  177.8610  142.0570 O   0  0  0  0  0  0  0  0  0  0  0  0
  186.0040  177.7320  140.0410 C   0  0  0  0  0  3  0  0  0  0  0  0
  186.7590  178.2370  142.6900 C   0  0  0  0  0  3  0  0  0  0  0  0
  182.7060  178.4130  141.5870 C   0  0  0  0  0  0  0  0  0  0  0  0
  183.6830  178.1010  140.6310 C   0  0  0  0  0  3  0  0  0  0  0  0
  185.0310  178.0410  140.9930 C   0  0  0  0  0  0  0  0  0  0  0  0
  184.4400  178.6070  143.2820 C   0  0  0  0  0  3  0  0  0  0  0  0
  185.4120  178.2950  142.3290 C   0  0  0  0  0  0  0  0  0  0  0  0
  183.0940  178.6660  142.9120 C   0  0  0  0  0  3  0  0  0  0  0  0
  187.7390  177.9270  141.7320 C   0  0  0  0  0  0  0  0  0  0  0  0
  187.3520  177.6750  140.4110 C   0  0  0  0  0  3  0  0  0  0  0  0
  181.2850  178.4760  141.2030 C   0  0  0  0  0  0  0  0  0  0  0  0
  180.8860  177.9180  140.1460 O   0  0  0  0  0  0  0  0  0  0  0  0
  180.3450  179.1670  142.0220 N   0  0  0  0  0  1  0  0  0  0  0  0
  1 17  1  0  0  0  0
  1 10  1  0  0  0  0
  4 21  1  6  0  0  0
  4  5  1  0  0  0  0
  4  8  1  0  0  0  0
  5  1  1  0  0  0  0
  6 10  2  0  0  0  0
  6  7  1  0  0  0  0
  7 11  1  0  0  0  0
  8  6  1  0  0  0  0
  9  3  1  0  0  0  0
  9 11  2  0  0  0  0
 10  9  1  0  0  0  0
 12  2  1  0  0  0  0
 13 18  1  6  0  0  0
 13 12  1  0  0  0  0
 14 16  1  0  0  0  0
 14 13  1  0  0  0  0
 15  2  1  1  0  0  0
 15  3  1  0  0  0  0
 17 16  1  6  0  0  0
 17 15  1  0  0  0  0
 19 18  2  0  0  0  0
 20 18  1  0  0  0  0
 22 31  2  0  0  0  0
 22 26  1  0  0  0  0
 24 29  1  0  0  0  0
 25 26  1  0  0  0  0
 25 24  2  0  0  0  0
 26 28  2  0  0  0  0
 28 23  1  0  0  0  0
 28 27  1  0  0  0  0
 29 27  2  0  0  0  0
 30 21  1  0  0  0  0
 30 23  2  0  0  0  0
 31 30  1  0  0  0  0
 32 24  1  0  0  0  0
 32 34  1  0  0  0  0
 33 32  2  0  0  0  0
M  END
>  <MODEL>
6

>  <REMARK>
 VINA RESULT:      -7.9      3.961      6.135
  Name = 
  4 active torsions:
  status: ('A' for Active; 'I' for Inactive)
    1  A    between atoms: C_3  and  C_25
    2  A    between atoms: C_7  and  C_11
    3  A    between atoms: C_8  and  O_18
    4  A    between atoms: O_18  and  C_30
                            x       y       z     vdW  Elec       q    Type
                         _______ _______ _______ _____ _____    ______ ____

>  <TORSDO>
F 4

$$$$
=
 OpenBabel11052420333D

 34 39  0  0  1  0  0  0  0  0999 V2000
  191.0460  175.5810  143.7390 N   0  0  0  0  0  0  0  0  0  0  0  0
  193.3450  172.4790  143.3960 C   0  0  0  0  0  2  0  0  0  0  0  0
  192.9500  174.0050  145.3440 C   0  0  0  0  0  2  0  0  0  0  0  0
  189.1360  177.1710  143.7730 C   0  0  1  0  0  3  0  0  0  0  0  0
  190.3380  176.6170  142.9770 C   0  0  0  0  0  2  0  0  0  0  0  0
  190.4210  176.6910  145.8430 C   0  0  0  0  0  0  0  0  0  0  0  0
  190.8820  176.6210  147.4540 S   0  0  0  0  0  0  0  0  0  0  0  0
  189.5200  177.6760  145.1760 C   0  0  0  0  0  2  0  0  0  0  0  0
  192.0250  175.0090  145.9510 C   0  0  0  0  0  0  0  0  0  0  0  0
  191.1620  175.7600  145.1560 C   0  0  0  0  0  0  0  0  0  0  0  0
  192.0160  175.3670  147.2980 C   0  0  0  0  0  3  0  0  0  0  0  0
  192.8160  171.7910  142.1320 C   0  0  0  0  0  2  0  0  0  0  0  0
  191.2910  171.6150  142.1330 C   0  0  1  0  0  3  0  0  0  0  0  0
  190.5050  172.9110  141.8560 C   0  0  0  0  0  2  0  0  0  0  0  0
  192.3780  173.4880  144.0200 C   0  0  1  0  0  3  0  0  0  0  0  0
  191.3810  174.1630  141.7300 C   0  0  0  0  0  2  0  0  0  0  0  0
  191.9670  174.6480  143.0680 C   0  0  1  0  0  3  0  0  0  0  0  0
  190.8890  170.5540  141.1640 C   0  0  0  0  0  0  0  0  0  0  0  0
  190.5840  169.2820  141.6270 O   0  0  0  0  0  1  0  0  0  0  0  0
  190.8210  170.8030  139.9310 O   0  0  0  0  0  0  0  0  0  0  0  0
  188.4370  178.1730  143.0310 O   0  0  0  0  0  0  0  0  0  0  0  0
  184.9410  178.7190  144.1100 C   0  0  0  0  0  3  0  0  0  0  0  0
  186.3380  178.1220  141.7560 C   0  0  0  0  0  3  0  0  0  0  0  0
  182.1520  178.4990  141.6800 C   0  0  0  0  0  0  0  0  0  0  0  0
  182.8520  178.6720  142.8830 C   0  0  0  0  0  3  0  0  0  0  0  0
  184.2440  178.5480  142.9120 C   0  0  0  0  0  0  0  0  0  0  0  0
  184.2520  178.0740  140.5280 C   0  0  0  0  0  3  0  0  0  0  0  0
  184.9490  178.2480  141.7260 C   0  0  0  0  0  0  0  0  0  0  0  0
  182.8600  178.1990  140.5070 C   0  0  0  0  0  3  0  0  0  0  0  0
  187.0410  178.2930  142.9620 C   0  0  0  0  0  0  0  0  0  0  0  0
  186.3340  178.5920  144.1320 C   0  0  0  0  0  3  0  0  0  0  0  0
  180.6840  178.6300  141.6510 C   0  0  0  0  0  0  0  0  0  0  0  0
  180.0710  179.1360  142.6280 O   0  0  0  0  0  0  0  0  0  0  0  0
  179.9420  178.1860  140.5170 N   0  0  0  0  0  1  0  0  0  0  0  0
  1 10  1  0  0  0  0
  3  9  1  0  0  0  0
  4 21  1  6  0  0  0
  4  8  1  0  0  0  0
  5  1  1  0  0  0  0
  5  4  1  0  0  0  0
  6  7  1  0  0  0  0
  8  6  1  0  0  0  0
  9 11  2  0  0  0  0
 10  6  2  0  0  0  0
 10  9  1  0  0  0  0
 11  7  1  0  0  0  0
 12 13  1  0  0  0  0
 12  2  1  0  0  0  0
 13 18  1  6  0  0  0
 14 13  1  0  0  0  0
 15  2  1  6  0  0  0
 15  3  1  0  0  0  0
 16 14  1  0  0  0  0
 17 16  1  6  0  0  0
 17  1  1  0  0  0  0
 17 15  1  0  0  0  0
 18 19  1  0  0  0  0
 20 18  2  0  0  0  0
 22 31  1  0  0  0  0
 23 30  1  0  0  0  0
 24 25  2  0  0  0  0
 25 26  1  0  0  0  0
 26 22  2  0  0  0  0
 27 28  1  0  0  0  0
 28 23  2  0  0  0  0
 28 26  1  0  0  0  0
 29 27  2  0  0  0  0
 29 24  1  0  0  0  0
 30 21  1  0  0  0  0
 30 31  2  0  0  0  0
 32 24  1  0  0  0  0
 32 33  2  0  0  0  0
 34 32  1  0  0  0  0
M  END
>  <MODEL>
7

>  <REMARK>
 VINA RESULT:      -7.7      4.229      6.097
  Name = 
  4 active torsions:
  status: ('A' for Active; 'I' for Inactive)
    1  A    between atoms: C_3  and  C_25
    2  A    between atoms: C_7  and  C_11
    3  A    between atoms: C_8  and  O_18
    4  A    between atoms: O_18  and  C_30
                            x       y       z     vdW  Elec       q    Type
                         _______ _______ _______ _____ _____    ______ ____

>  <TORSDO>
F 4

$$$$
=
 OpenBabel11052420333D

 34 39  0  0  1  0  0  0  0  0999 V2000
  193.8370  173.7950  144.9850 N   0  0  0  0  0  0  0  0  0  0  0  0
  196.8150  171.7310  143.6090 C   0  0  0  0  0  2  0  0  0  0  0  0
  196.4440  174.2080  143.6760 C   0  0  0  0  0  2  0  0  0  0  0  0
  192.0460  174.7980  146.3860 C   0  0  1  0  0  3  0  0  0  0  0  0
  192.4140  173.7240  145.3400 C   0  0  0  0  0  2  0  0  0  0  0  0
  193.8260  176.2190  145.3960 C   0  0  0  0  0  0  0  0  0  0  0  0
  194.8200  177.5270  145.0600 S   0  0  0  0  0  0  0  0  0  0  0  0
  192.4420  176.2230  145.9560 C   0  0  0  0  0  2  0  0  0  0  0  0
  195.6830  175.3200  144.3220 C   0  0  0  0  0  0  0  0  0  0  0  0
  194.4370  175.0920  144.9020 C   0  0  0  0  0  0  0  0  0  0  0  0
  196.0690  176.6600  144.3060 C   0  0  0  0  0  3  0  0  0  0  0  0
  196.6010  170.3490  144.2360 C   0  0  0  0  0  2  0  0  0  0  0  0
  196.3450  170.4040  145.7480 C   0  0  1  0  0  3  0  0  0  0  0  0
  194.9330  170.8890  146.1340 C   0  0  0  0  0  2  0  0  0  0  0  0
  196.0470  172.8630  144.2950 C   0  0  1  0  0  3  0  0  0  0  0  0
  194.0720  171.3240  144.9430 C   0  0  0  0  0  2  0  0  0  0  0  0
  194.5050  172.6640  144.3200 C   0  0  1  0  0  3  0  0  0  0  0  0
  196.6200  169.0770  146.3730 C   0  0  0  0  0  0  0  0  0  0  0  0
  197.9300  168.6330  146.4910 O   0  0  0  0  0  0  0  0  0  0  0  0
  195.6750  168.3580  146.7940 O   0  0  0  0  0  1  0  0  0  0  0  0
  190.6640  174.7270  146.7430 O   0  0  0  0  0  0  0  0  0  0  0  0
  188.5710  175.6970  143.8500 C   0  0  0  0  0  3  0  0  0  0  0  0
  188.5880  176.0350  146.6310 C   0  0  0  0  0  3  0  0  0  0  0  0
  185.5020  177.7190  144.3250 C   0  0  0  0  0  0  0  0  0  0  0  0
  186.5250  176.9870  143.7050 C   0  0  0  0  0  3  0  0  0  0  0  0
  187.5520  176.4250  144.4680 C   0  0  0  0  0  0  0  0  0  0  0  0
  186.5430  177.3240  146.4880 C   0  0  0  0  0  3  0  0  0  0  0  0
  187.5600  176.5940  145.8700 C   0  0  0  0  0  0  0  0  0  0  0  0
  185.5190  177.8840  145.7180 C   0  0  0  0  0  3  0  0  0  0  0  0
  189.6140  175.3030  146.0110 C   0  0  0  0  0  0  0  0  0  0  0  0
  189.5970  175.1390  144.6210 C   0  0  0  0  0  3  0  0  0  0  0  0
  184.4200  178.3110  143.5190 C   0  0  0  0  0  0  0  0  0  0  0  0
  183.6010  179.1120  144.0430 O   0  0  0  0  0  0  0  0  0  0  0  0
  184.2860  177.9840  142.1370 N   0  0  0  0  0  1  0  0  0  0  0  0
  1  5  1  0  0  0  0
  2 12  1  0  0  0  0
  3 15  1  0  0  0  0
  3  9  1  0  0  0  0
  4 21  1  6  0  0  0
  5  4  1  0  0  0  0
  6  8  1  0  0  0  0
  7  6  1  0  0  0  0
  8  4  1  0  0  0  0
  9 10  1  0  0  0  0
 10  1  1  0  0  0  0
 10  6  2  0  0  0  0
 11  9  2  0  0  0  0
 11  7  1  0  0  0  0
 12 13  1  0  0  0  0
 13 14  1  0  0  0  0
 13 18  1  6  0  0  0
 15  2  1  6  0  0  0
 15 17  1  0  0  0  0
 16 14  1  0  0  0  0
 17 16  1  1  0  0  0
 17  1  1  0  0  0  0
 18 19  2  0  0  0  0
 18 20  1  0  0  0  0
 22 26  2  0  0  0  0
 22 31  1  0  0  0  0
 24 29  1  0  0  0  0
 25 24  2  0  0  0  0
 25 26  1  0  0  0  0
 26 28  1  0  0  0  0
 28 27  1  0  0  0  0
 28 23  2  0  0  0  0
 29 27  2  0  0  0  0
 30 23  1  0  0  0  0
 30 21  1  0  0  0  0
 31 30  2  0  0  0  0
 32 33  2  0  0  0  0
 32 24  1  0  0  0  0
 34 32  1  0  0  0  0
M  END
>  <MODEL>
8

>  <REMARK>
 VINA RESULT:      -7.5      1.784      2.319
  Name = 
  4 active torsions:
  status: ('A' for Active; 'I' for Inactive)
    1  A    between atoms: C_3  and  C_25
    2  A    between atoms: C_7  and  C_11
    3  A    between atoms: C_8  and  O_18
    4  A    between atoms: O_18  and  C_30
                            x       y       z     vdW  Elec       q    Type
                         _______ _______ _______ _____ _____    ______ ____

>  <TORSDO>
F 4

$$$$
=
 OpenBabel11052420333D

 34 39  0  0  1  0  0  0  0  0999 V2000
  194.3010  174.5540  143.2900 N   0  0  0  0  0  0  0  0  0  0  0  0
  194.8730  172.6800  139.9460 C   0  0  0  0  0  2  0  0  0  0  0  0
  196.3520  172.9120  141.9550 C   0  0  0  0  0  2  0  0  0  0  0  0
  193.4220  175.4070  145.4530 C   0  0  1  0  0  3  0  0  0  0  0  0
  193.5210  175.6230  143.9270 C   0  0  0  0  0  2  0  0  0  0  0  0
  195.6450  174.3070  145.3340 C   0  0  0  0  0  0  0  0  0  0  0  0
  197.0870  173.5730  145.7750 S   0  0  0  0  0  0  0  0  0  0  0  0
  194.7940  175.2390  146.1310 C   0  0  0  0  0  2  0  0  0  0  0  0
  196.4020  173.2340  143.4140 C   0  0  0  0  0  0  0  0  0  0  0  0
  195.4320  174.0410  144.0030 C   0  0  0  0  0  0  0  0  0  0  0  0
  197.4420  172.8740  144.2700 C   0  0  0  0  0  3  0  0  0  0  0  0
  193.4640  172.5920  139.3500 C   0  0  0  0  0  2  0  0  0  0  0  0
  192.4170  172.0730  140.3460 C   0  0  1  0  0  3  0  0  0  0  0  0
  191.9920  173.1040  141.4100 C   0  0  0  0  0  2  0  0  0  0  0  0
  194.9090  172.9870  141.4450 C   0  0  1  0  0  3  0  0  0  0  0  0
  192.7630  174.4280  141.3460 C   0  0  0  0  0  2  0  0  0  0  0  0
  194.2170  174.3240  141.8380 C   0  0  1  0  0  3  0  0  0  0  0  0
  191.2180  171.5590  139.6220 C   0  0  0  0  0  0  0  0  0  0  0  0
  191.3850  170.7580  138.5010 O   0  0  0  0  0  0  0  0  0  0  0  0
  190.0570  171.8430  140.0200 O   0  0  0  0  0  1  0  0  0  0  0  0
  192.6550  176.4390  146.0770 O   0  0  0  0  0  0  0  0  0  0  0  0
  189.8520  177.9160  144.1670 C   0  0  0  0  0  3  0  0  0  0  0  0
  190.2360  176.4150  146.5000 C   0  0  0  0  0  3  0  0  0  0  0  0
  186.3560  177.5410  145.3360 C   0  0  0  0  0  0  0  0  0  0  0  0
  187.4610  177.9160  144.5580 C   0  0  0  0  0  3  0  0  0  0  0  0
  188.7520  177.5430  144.9410 C   0  0  0  0  0  0  0  0  0  0  0  0
  187.8460  176.4130  146.8930 C   0  0  0  0  0  3  0  0  0  0  0  0
  188.9460  176.7850  146.1170 C   0  0  0  0  0  0  0  0  0  0  0  0
  186.5580  176.7900  146.5040 C   0  0  0  0  0  3  0  0  0  0  0  0
  191.3440  176.7910  145.7220 C   0  0  0  0  0  0  0  0  0  0  0  0
  191.1420  177.5410  144.5580 C   0  0  0  0  0  3  0  0  0  0  0  0
  184.9950  177.9350  144.9310 C   0  0  0  0  0  0  0  0  0  0  0  0
  184.6410  177.8490  143.7250 O   0  0  0  0  0  0  0  0  0  0  0  0
  184.0640  178.4170  145.8970 N   0  0  0  0  0  1  0  0  0  0  0  0
  1  5  1  0  0  0  0
  1 10  1  0  0  0  0
  3  9  1  0  0  0  0
  4 21  1  1  0  0  0
  4  8  1  0  0  0  0
  5  4  1  0  0  0  0
  6  7  1  0  0  0  0
  6  8  1  0  0  0  0
  9 10  1  0  0  0  0
  9 11  2  0  0  0  0
 10  6  2  0  0  0  0
 11  7  1  0  0  0  0
 12  2  1  0  0  0  0
 12 13  1  0  0  0  0
 13 18  1  6  0  0  0
 13 14  1  0  0  0  0
 15  2  1  6  0  0  0
 15 17  1  0  0  0  0
 15  3  1  0  0  0  0
 16 14  1  0  0  0  0
 17 16  1  1  0  0  0
 17  1  1  0  0  0  0
 18 20  1  0  0  0  0
 19 18  2  0  0  0  0
 22 31  2  0  0  0  0
 22 26  1  0  0  0  0
 24 29  1  0  0  0  0
 25 26  1  0  0  0  0
 25 24  2  0  0  0  0
 26 28  2  0  0  0  0
 28 23  1  0  0  0  0
 28 27  1  0  0  0  0
 29 27  2  0  0  0  0
 30 21  1  0  0  0  0
 30 23  2  0  0  0  0
 31 30  1  0  0  0  0
 32 24  1  0  0  0  0
 32 34  1  0  0  0  0
 33 32  2  0  0  0  0
M  END
>  <MODEL>
9

>  <REMARK>
 VINA RESULT:      -7.5      3.297      4.754
  Name = 
  4 active torsions:
  status: ('A' for Active; 'I' for Inactive)
    1  A    between atoms: C_3  and  C_25
    2  A    between atoms: C_7  and  C_11
    3  A    between atoms: C_8  and  O_18
    4  A    between atoms: O_18  and  C_30
                            x       y       z     vdW  Elec       q    Type
                         _______ _______ _______ _____ _____    ______ ____

>  <TORSDO>
F 4

$$$$
