=
 OpenBabel11052418233D

 27 30  0  0  1  0  0  0  0  0999 V2000
  189.8640  172.8520  141.8910 O   0  0  0  0  0  0  0  0  0  0  0  0
  188.6000  172.7880  142.5000 C   0  0  0  0  0  2  0  0  0  0  0  0
  190.5240  173.9450  142.4750 C   0  0  0  0  0  2  0  0  0  0  0  0
  187.7280  173.9300  141.9860 C   0  0  0  0  0  2  0  0  0  0  0  0
  188.3990  175.2760  142.2950 C   0  0  1  0  0  3  0  0  0  0  0  0
  189.9110  175.2610  141.9910 C   0  0  1  0  0  3  0  0  0  0  0  0
  190.6250  176.4000  142.7070 C   0  0  0  0  0  2  0  0  0  0  0  0
  192.8420  176.1810  143.3450 C   0  0  0  0  0  2  0  0  0  0  0  0
  191.7980  176.8400  147.3330 O   0  0  0  0  0  0  0  0  0  0  0  0
  190.1940  174.8660  147.2940 C   0  0  0  0  0  2  0  0  0  0  0  0
  193.8750  175.8040  144.4120 C   0  0  0  0  0  2  0  0  0  0  0  0
  189.7370  176.6510  145.4640 C   0  0  0  0  0  2  0  0  0  0  0  0
  189.2850  175.3630  146.1620 C   0  0  0  0  0  2  0  0  0  0  0  0
  191.2080  176.6840  145.0010 C   0  0  1  0  0  3  0  0  0  0  0  0
  190.9520  175.9700  148.0780 C   0  0  0  0  0  2  0  0  0  0  0  0
  192.1530  176.2390  146.1160 C   0  0  1  0  0  3  0  0  0  0  0  0
  191.4690  175.8950  143.7840 N   0  0  0  0  0  0  0  0  0  0  0  0
  193.5840  176.5410  145.7160 C   0  0  0  0  0  2  0  0  0  0  0  0
  187.6670  176.4050  141.5690 C   0  0  0  0  0  2  0  0  0  0  0  0
  186.5280  176.9810  142.4040 C   0  0  0  0  0  2  0  0  0  0  0  0
  187.0200  178.1820  143.1890 C   0  0  0  0  0  2  0  0  0  0  0  0
  184.7110  178.1970  146.8210 C   0  0  0  0  0  2  0  0  0  0  0  0
  186.4090  178.2230  144.5810 C   0  0  0  0  0  3  0  0  0  0  0  0
  185.9210  176.8370  145.0050 C   0  0  0  0  0  2  0  0  0  0  0  0
  185.3630  176.8610  146.4350 C   0  0  0  0  0  2  0  0  0  0  0  0
  184.1520  178.9140  145.5970 C   0  0  0  0  0  2  0  0  0  0  0  0
  185.2650  179.2460  144.5960 C   0  0  0  0  0  2  0  0  0  0  0  0
  1  3  1  0  0  0  0
  1  2  1  0  0  0  0
  4  5  1  0  0  0  0
  4  2  1  0  0  0  0
  5 19  1  6  0  0  0
  6  5  1  0  0  0  0
  6  3  1  0  0  0  0
  6  7  1  1  0  0  0
  7 17  1  0  0  0  0
  8 17  1  0  0  0  0
  8 11  1  0  0  0  0
  9 15  1  0  0  0  0
 10 15  1  0  0  0  0
 11 18  1  0  0  0  0
 12 13  1  0  0  0  0
 13 10  1  0  0  0  0
 14 12  1  1  0  0  0
 14 16  1  0  0  0  0
 16 18  1  6  0  0  0
 16  9  1  0  0  0  0
 17 14  1  0  0  0  0
 19 20  1  0  0  0  0
 20 21  1  0  0  0  0
 21 23  1  0  0  0  0
 23 27  1  0  0  0  0
 23 24  1  0  0  0  0
 24 25  1  0  0  0  0
 25 22  1  0  0  0  0
 26 22  1  0  0  0  0
 27 26  1  0  0  0  0
M  END
>  <MODEL>
1

>  <REMARK>
 VINA RESULT:      -7.2      0.000      0.000
  Name = 
  6 active torsions:
  status: ('A' for Active; 'I' for Inactive)
    1  A    between atoms: C_1  and  C_15
    2  A    between atoms: C_1  and  C_18
    3  A    between atoms: C_3  and  N_19
    4  A    between atoms: C_3  and  C_26
    5  A    between atoms: C_9  and  C_15
    6  A    between atoms: C_18  and  C_24
                            x       y       z     vdW  Elec       q    Type
                         _______ _______ _______ _____ _____    ______ ____

>  <TORSDO>
F 6

$$$$
=
 OpenBabel11052418233D

 27 30  0  0  1  0  0  0  0  0999 V2000
  191.2700  177.1320  142.7700 O   0  0  0  0  0  0  0  0  0  0  0  0
  191.1380  178.2640  143.5890 C   0  0  0  0  0  2  0  0  0  0  0  0
  189.9650  176.7370  142.4350 C   0  0  0  0  0  2  0  0  0  0  0  0
  190.6270  177.8420  144.9640 C   0  0  0  0  0  2  0  0  0  0  0  0
  189.2750  177.1300  144.8200 C   0  0  1  0  0  3  0  0  0  0  0  0
  189.2630  176.1260  143.6500 C   0  0  1  0  0  3  0  0  0  0  0  0
  187.8370  175.7800  143.2400 C   0  0  0  0  0  2  0  0  0  0  0  0
  187.1450  176.6700  141.2150 C   0  0  0  0  0  2  0  0  0  0  0  0
  183.7440  178.2660  143.0350 O   0  0  0  0  0  0  0  0  0  0  0  0
  185.1750  179.5790  144.6780 C   0  0  0  0  0  2  0  0  0  0  0  0
  186.3760  177.7480  140.4420 C   0  0  0  0  0  2  0  0  0  0  0  0
  185.6310  177.0230  144.6700 C   0  0  0  0  0  2  0  0  0  0  0  0
  185.9070  178.3880  145.3110 C   0  0  0  0  0  2  0  0  0  0  0  0
  185.7680  176.9610  143.1350 C   0  0  1  0  0  3  0  0  0  0  0  0
  183.7920  179.2610  144.0530 C   0  0  0  0  0  2  0  0  0  0  0  0
  185.0140  178.1070  142.4610 C   0  0  1  0  0  3  0  0  0  0  0  0
  187.1630  176.9370  142.6590 N   0  0  0  0  0  0  0  0  0  0  0  0
  184.9480  177.8580  140.9670 C   0  0  0  0  0  2  0  0  0  0  0  0
  188.8790  176.4850  146.1490 C   0  0  0  0  0  2  0  0  0  0  0  0
  189.6260  175.1790  146.3980 C   0  0  0  0  0  2  0  0  0  0  0  0
  190.6840  175.3840  147.4650 C   0  0  0  0  0  2  0  0  0  0  0  0
  194.4370  174.7770  145.4470 C   0  0  0  0  0  2  0  0  0  0  0  0
  192.0720  175.0460  146.9420 C   0  0  0  0  0  3  0  0  0  0  0  0
  192.9650  176.2870  146.9180 C   0  0  0  0  0  2  0  0  0  0  0  0
  194.3850  175.9370  146.4520 C   0  0  0  0  0  2  0  0  0  0  0  0
  193.1490  174.6910  144.6360 C   0  0  0  0  0  2  0  0  0  0  0  0
  191.9420  174.4260  145.5440 C   0  0  0  0  0  2  0  0  0  0  0  0
  1  2  1  0  0  0  0
  2  4  1  0  0  0  0
  3  1  1  0  0  0  0
  3  6  1  0  0  0  0
  5  4  1  0  0  0  0
  5 19  1  1  0  0  0
  6  7  1  6  0  0  0
  6  5  1  0  0  0  0
  8 17  1  0  0  0  0
  9 15  1  0  0  0  0
 10 13  1  0  0  0  0
 11 18  1  0  0  0  0
 11  8  1  0  0  0  0
 12 13  1  0  0  0  0
 14 12  1  1  0  0  0
 15 10  1  0  0  0  0
 16 18  1  6  0  0  0
 16  9  1  0  0  0  0
 16 14  1  0  0  0  0
 17 14  1  0  0  0  0
 17  7  1  0  0  0  0
 19 20  1  0  0  0  0
 20 21  1  0  0  0  0
 22 25  1  0  0  0  0
 23 21  1  0  0  0  0
 24 23  1  0  0  0  0
 25 24  1  0  0  0  0
 26 22  1  0  0  0  0
 26 27  1  0  0  0  0
 27 23  1  0  0  0  0
M  END
>  <MODEL>
2

>  <REMARK>
 VINA RESULT:      -7.1      2.399      6.842
  Name = 
  6 active torsions:
  status: ('A' for Active; 'I' for Inactive)
    1  A    between atoms: C_1  and  C_15
    2  A    between atoms: C_1  and  C_18
    3  A    between atoms: C_3  and  N_19
    4  A    between atoms: C_3  and  C_26
    5  A    between atoms: C_9  and  C_15
    6  A    between atoms: C_18  and  C_24
                            x       y       z     vdW  Elec       q    Type
                         _______ _______ _______ _____ _____    ______ ____

>  <TORSDO>
F 6

$$$$
=
 OpenBabel11052418233D

 27 30  0  0  1  0  0  0  0  0999 V2000
  186.7430  177.8100  139.7920 O   0  0  0  0  0  0  0  0  0  0  0  0
  185.3680  177.6100  139.9930 C   0  0  0  0  0  2  0  0  0  0  0  0
  187.3890  177.1940  140.8750 C   0  0  0  0  0  2  0  0  0  0  0  0
  184.8840  178.5020  141.1320 C   0  0  0  0  0  2  0  0  0  0  0  0
  185.6610  178.1730  142.4150 C   0  0  1  0  0  3  0  0  0  0  0  0
  187.1710  177.9990  142.1570 C   0  0  1  0  0  3  0  0  0  0  0  0
  187.8390  177.2480  143.3020 C   0  0  0  0  0  2  0  0  0  0  0  0
  189.9180  178.1260  143.8300 C   0  0  0  0  0  2  0  0  0  0  0  0
  191.5870  174.3000  143.7880 O   0  0  0  0  0  0  0  0  0  0  0  0
  190.8340  173.9410  141.3840 C   0  0  0  0  0  2  0  0  0  0  0  0
  191.4460  178.0280  143.7630 C   0  0  0  0  0  2  0  0  0  0  0  0
  188.9170  174.5630  143.0220 C   0  0  0  0  0  2  0  0  0  0  0  0
  189.3280  174.1280  141.6100 C   0  0  0  0  0  2  0  0  0  0  0  0
  189.6840  175.7680  143.6040 C   0  0  1  0  0  3  0  0  0  0  0  0
  191.6460  173.4810  142.6240 C   0  0  0  0  0  2  0  0  0  0  0  0
  191.1940  175.6010  143.4400 C   0  0  1  0  0  3  0  0  0  0  0  0
  189.2640  177.0680  143.0490 N   0  0  0  0  0  0  0  0  0  0  0  0
  191.9110  176.6600  144.2540 C   0  0  0  0  0  2  0  0  0  0  0  0
  185.3660  179.2210  143.4890 C   0  0  0  0  0  2  0  0  0  0  0  0
  183.9510  179.0940  144.0420 C   0  0  0  0  0  2  0  0  0  0  0  0
  184.0010  178.7080  145.5080 C   0  0  0  0  0  2  0  0  0  0  0  0
  187.7470  177.6490  147.3420 C   0  0  0  0  0  2  0  0  0  0  0  0
  185.4170  178.3640  145.9430 C   0  0  0  0  0  3  0  0  0  0  0  0
  185.5440  176.8750  146.2670 C   0  0  0  0  0  2  0  0  0  0  0  0
  186.9870  176.5130  146.6430 C   0  0  0  0  0  2  0  0  0  0  0  0
  186.7950  178.5650  148.1030 C   0  0  0  0  0  2  0  0  0  0  0  0
  185.7950  179.2320  147.1510 C   0  0  0  0  0  2  0  0  0  0  0  0
  1  2  1  0  0  0  0
  1  3  1  0  0  0  0
  2  4  1  0  0  0  0
  3  6  1  0  0  0  0
  4  5  1  0  0  0  0
  5 19  1  1  0  0  0
  6  5  1  0  0  0  0
  6  7  1  1  0  0  0
 10 13  1  0  0  0  0
 10 15  1  0  0  0  0
 11  8  1  0  0  0  0
 11 18  1  0  0  0  0
 13 12  1  0  0  0  0
 14 12  1  6  0  0  0
 15  9  1  0  0  0  0
 16 14  1  0  0  0  0
 16  9  1  0  0  0  0
 16 18  1  1  0  0  0
 17  7  1  0  0  0  0
 17 14  1  0  0  0  0
 17  8  1  0  0  0  0
 19 20  1  0  0  0  0
 20 21  1  0  0  0  0
 21 23  1  0  0  0  0
 22 26  1  0  0  0  0
 23 24  1  0  0  0  0
 23 27  1  0  0  0  0
 24 25  1  0  0  0  0
 25 22  1  0  0  0  0
 27 26  1  0  0  0  0
M  END
>  <MODEL>
3

>  <REMARK>
 VINA RESULT:      -7.0      2.074      3.982
  Name = 
  6 active torsions:
  status: ('A' for Active; 'I' for Inactive)
    1  A    between atoms: C_1  and  C_15
    2  A    between atoms: C_1  and  C_18
    3  A    between atoms: C_3  and  N_19
    4  A    between atoms: C_3  and  C_26
    5  A    between atoms: C_9  and  C_15
    6  A    between atoms: C_18  and  C_24
                            x       y       z     vdW  Elec       q    Type
                         _______ _______ _______ _____ _____    ______ ____

>  <TORSDO>
F 6

$$$$
=
 OpenBabel11052418233D

 27 30  0  0  1  0  0  0  0  0999 V2000
  190.1690  174.1560  146.4110 O   0  0  0  0  0  0  0  0  0  0  0  0
  189.5900  175.0200  147.3550 C   0  0  0  0  0  2  0  0  0  0  0  0
  191.3220  174.8060  145.9430 C   0  0  0  0  0  2  0  0  0  0  0  0
  188.9540  176.2070  146.6380 C   0  0  0  0  0  2  0  0  0  0  0  0
  190.0190  176.9520  145.8200 C   0  0  1  0  0  3  0  0  0  0  0  0
  190.9450  175.9890  145.0500 C   0  0  1  0  0  3  0  0  0  0  0  0
  192.2320  176.6880  144.6300 C   0  0  0  0  0  2  0  0  0  0  0  0
  192.6950  176.0150  142.4600 C   0  0  0  0  0  2  0  0  0  0  0  0
  196.7430  175.6260  143.4040 O   0  0  0  0  0  0  0  0  0  0  0  0
  196.2050  173.9660  145.2560 C   0  0  0  0  0  2  0  0  0  0  0  0
  193.5690  175.2180  141.4850 C   0  0  0  0  0  2  0  0  0  0  0  0
  194.9780  176.2450  145.4740 C   0  0  0  0  0  2  0  0  0  0  0  0
  195.2980  174.8780  146.0920 C   0  0  0  0  0  2  0  0  0  0  0  0
  194.4880  176.2230  144.0120 C   0  0  1  0  0  3  0  0  0  0  0  0
  197.2410  174.6920  144.3580 C   0  0  0  0  0  2  0  0  0  0  0  0
  195.3920  175.3600  143.1330 C   0  0  1  0  0  3  0  0  0  0  0  0
  193.0870  175.7910  143.8580 N   0  0  0  0  0  0  0  0  0  0  0  0
  195.0390  175.5800  141.6760 C   0  0  0  0  0  2  0  0  0  0  0  0
  189.3520  177.9810  144.9060 C   0  0  0  0  0  2  0  0  0  0  0  0
  188.6370  177.3250  143.7300 C   0  0  0  0  0  2  0  0  0  0  0  0
  187.3050  178.0100  143.4880 C   0  0  0  0  0  2  0  0  0  0  0  0
  184.4910  178.2900  146.7320 C   0  0  0  0  0  2  0  0  0  0  0  0
  186.5000  178.1250  144.7730 C   0  0  0  0  0  3  0  0  0  0  0  0
  185.8200  176.7980  145.1140 C   0  0  0  0  0  2  0  0  0  0  0  0
  185.0590  176.8930  146.4430 C   0  0  0  0  0  2  0  0  0  0  0  0
  184.1940  179.0440  145.4410 C   0  0  0  0  0  2  0  0  0  0  0  0
  185.4720  179.2550  144.6190 C   0  0  0  0  0  2  0  0  0  0  0  0
  1  2  1  0  0  0  0
  3  1  1  0  0  0  0
  4  2  1  0  0  0  0
  5 19  1  6  0  0  0
  5  4  1  0  0  0  0
  6  7  1  1  0  0  0
  6  5  1  0  0  0  0
  6  3  1  0  0  0  0
  8 17  1  0  0  0  0
  9 15  1  0  0  0  0
 10 13  1  0  0  0  0
 11 18  1  0  0  0  0
 11  8  1  0  0  0  0
 12 13  1  0  0  0  0
 14 12  1  1  0  0  0
 15 10  1  0  0  0  0
 16 18  1  6  0  0  0
 16  9  1  0  0  0  0
 16 14  1  0  0  0  0
 17 14  1  0  0  0  0
 17  7  1  0  0  0  0
 20 19  1  0  0  0  0
 21 20  1  0  0  0  0
 21 23  1  0  0  0  0
 23 24  1  0  0  0  0
 24 25  1  0  0  0  0
 25 22  1  0  0  0  0
 26 22  1  0  0  0  0
 27 23  1  0  0  0  0
 27 26  1  0  0  0  0
M  END
>  <MODEL>
4

>  <REMARK>
 VINA RESULT:      -6.9      2.132      3.932
  Name = 
  6 active torsions:
  status: ('A' for Active; 'I' for Inactive)
    1  A    between atoms: C_1  and  C_15
    2  A    between atoms: C_1  and  C_18
    3  A    between atoms: C_3  and  N_19
    4  A    between atoms: C_3  and  C_26
    5  A    between atoms: C_9  and  C_15
    6  A    between atoms: C_18  and  C_24
                            x       y       z     vdW  Elec       q    Type
                         _______ _______ _______ _____ _____    ______ ____

>  <TORSDO>
F 6

$$$$
=
 OpenBabel11052418233D

 27 30  0  0  1  0  0  0  0  0999 V2000
  189.3440  174.7470  141.6480 O   0  0  0  0  0  0  0  0  0  0  0  0
  190.6370  174.4810  142.1270 C   0  0  0  0  0  2  0  0  0  0  0  0
  188.9170  175.9110  142.3060 C   0  0  0  0  0  2  0  0  0  0  0  0
  190.5530  173.9610  143.5600 C   0  0  0  0  0  2  0  0  0  0  0  0
  189.8610  175.0020  144.4510 C   0  0  1  0  0  3  0  0  0  0  0  0
  188.6170  175.6160  143.7770 C   0  0  1  0  0  3  0  0  0  0  0  0
  188.2220  176.9260  144.4470 C   0  0  0  0  0  2  0  0  0  0  0  0
  186.7780  176.8110  146.2560 C   0  0  0  0  0  2  0  0  0  0  0  0
  184.1580  179.4660  144.3810 O   0  0  0  0  0  0  0  0  0  0  0  0
  183.9450  177.9200  142.3720 C   0  0  0  0  0  2  0  0  0  0  0  0
  185.3530  176.9010  146.8130 C   0  0  0  0  0  2  0  0  0  0  0  0
  186.3860  178.6020  142.9410 C   0  0  0  0  0  2  0  0  0  0  0  0
  185.4290  177.8860  141.9800 C   0  0  0  0  0  2  0  0  0  0  0  0
  186.2340  178.2420  144.4330 C   0  0  1  0  0  3  0  0  0  0  0  0
  183.4880  179.1760  143.1580 C   0  0  0  0  0  2  0  0  0  0  0  0
  184.7730  178.3070  144.8770 C   0  0  1  0  0  3  0  0  0  0  0  0
  186.8050  176.9310  144.7920 N   0  0  0  0  0  0  0  0  0  0  0  0
  184.7000  178.2130  146.3880 C   0  0  0  0  0  2  0  0  0  0  0  0
  189.5470  174.3950  145.8180 C   0  0  0  0  0  2  0  0  0  0  0  0
  190.4720  174.9260  146.9080 C   0  0  0  0  0  2  0  0  0  0  0  0
  191.1540  176.1960  146.4330 C   0  0  0  0  0  2  0  0  0  0  0  0
  195.3180  175.3500  145.7500 C   0  0  0  0  0  2  0  0  0  0  0  0
  192.6650  176.0280  146.3830 C   0  0  0  0  0  3  0  0  0  0  0  0
  193.2610  176.7890  145.1980 C   0  0  0  0  0  2  0  0  0  0  0  0
  194.7910  176.6750  145.1810 C   0  0  0  0  0  2  0  0  0  0  0  0
  194.3050  174.2260  145.5640 C   0  0  0  0  0  2  0  0  0  0  0  0
  193.0000  174.5310  146.3100 C   0  0  0  0  0  2  0  0  0  0  0  0
  1  2  1  0  0  0  0
  1  3  1  0  0  0  0
  2  4  1  0  0  0  0
  3  6  1  0  0  0  0
  4  5  1  0  0  0  0
  5 19  1  1  0  0  0
  6  7  1  1  0  0  0
  6  5  1  0  0  0  0
  7 17  1  0  0  0  0
  8 11  1  0  0  0  0
  9 16  1  0  0  0  0
 10 15  1  0  0  0  0
 13 10  1  0  0  0  0
 13 12  1  0  0  0  0
 14 12  1  6  0  0  0
 14 17  1  0  0  0  0
 14 16  1  0  0  0  0
 15  9  1  0  0  0  0
 16 18  1  1  0  0  0
 17  8  1  0  0  0  0
 18 11  1  0  0  0  0
 19 20  1  0  0  0  0
 21 20  1  0  0  0  0
 23 21  1  0  0  0  0
 24 23  1  0  0  0  0
 25 24  1  0  0  0  0
 25 22  1  0  0  0  0
 26 22  1  0  0  0  0
 26 27  1  0  0  0  0
 27 23  1  0  0  0  0
M  END
>  <MODEL>
5

>  <REMARK>
 VINA RESULT:      -6.8      2.351      6.900
  Name = 
  6 active torsions:
  status: ('A' for Active; 'I' for Inactive)
    1  A    between atoms: C_1  and  C_15
    2  A    between atoms: C_1  and  C_18
    3  A    between atoms: C_3  and  N_19
    4  A    between atoms: C_3  and  C_26
    5  A    between atoms: C_9  and  C_15
    6  A    between atoms: C_18  and  C_24
                            x       y       z     vdW  Elec       q    Type
                         _______ _______ _______ _____ _____    ______ ____

>  <TORSDO>
F 6

$$$$
=
 OpenBabel11052418233D

 27 30  0  0  1  0  0  0  0  0999 V2000
  189.7100  172.4820  140.0310 O   0  0  0  0  0  0  0  0  0  0  0  0
  188.4160  172.8750  139.6510 C   0  0  0  0  0  2  0  0  0  0  0  0
  189.6920  172.3830  141.4310 C   0  0  0  0  0  2  0  0  0  0  0  0
  188.2000  174.3400  140.0190 C   0  0  0  0  0  2  0  0  0  0  0  0
  188.3900  174.5300  141.5310 C   0  0  1  0  0  3  0  0  0  0  0  0
  189.6220  173.7730  142.0660 C   0  0  1  0  0  3  0  0  0  0  0  0
  189.5410  173.5940  143.5760 C   0  0  0  0  0  2  0  0  0  0  0  0
  191.6250  174.5110  143.1400 C   0  0  0  0  0  2  0  0  0  0  0  0
  191.1420  177.2020  146.2950 O   0  0  0  0  0  0  0  0  0  0  0  0
  190.8160  175.2920  147.9440 C   0  0  0  0  0  2  0  0  0  0  0  0
  192.8790  175.2320  143.6450 C   0  0  0  0  0  2  0  0  0  0  0  0
  189.1740  175.2580  145.9310 C   0  0  0  0  0  2  0  0  0  0  0  0
  189.5910  174.6510  147.2760 C   0  0  0  0  0  2  0  0  0  0  0  0
  190.3020  175.4300  144.8930 C   0  0  1  0  0  3  0  0  0  0  0  0
  191.0210  176.8030  147.6570 C   0  0  0  0  0  2  0  0  0  0  0  0
  191.5270  176.1070  145.5060 C   0  0  1  0  0  3  0  0  0  0  0  0
  190.7060  174.1740  144.2360 N   0  0  0  0  0  0  0  0  0  0  0  0
  192.4930  176.4980  144.4050 C   0  0  0  0  0  2  0  0  0  0  0  0
  188.4250  176.0200  141.8710 C   0  0  0  0  0  2  0  0  0  0  0  0
  187.3440  176.4050  142.8760 C   0  0  0  0  0  2  0  0  0  0  0  0
  187.6960  177.7270  143.5320 C   0  0  0  0  0  2  0  0  0  0  0  0
  184.4420  178.5690  146.2190 C   0  0  0  0  0  2  0  0  0  0  0  0
  186.7130  178.0750  144.6390 C   0  0  0  0  0  3  0  0  0  0  0  0
  185.9970  176.8240  145.1480 C   0  0  0  0  0  2  0  0  0  0  0  0
  185.0520  177.1630  146.3100 C   0  0  0  0  0  2  0  0  0  0  0  0
  184.3310  179.0320  144.7710 C   0  0  0  0  0  2  0  0  0  0  0  0
  185.7130  179.1140  144.1110 C   0  0  0  0  0  2  0  0  0  0  0  0
  1  3  1  0  0  0  0
  2  4  1  0  0  0  0
  2  1  1  0  0  0  0
  3  6  1  0  0  0  0
  4  5  1  0  0  0  0
  5 19  1  6  0  0  0
  5  6  1  0  0  0  0
  6  7  1  1  0  0  0
  7 17  1  0  0  0  0
  8 11  1  0  0  0  0
  8 17  1  0  0  0  0
  9 15  1  0  0  0  0
 11 18  1  0  0  0  0
 12 13  1  0  0  0  0
 13 10  1  0  0  0  0
 14 16  1  0  0  0  0
 14 12  1  1  0  0  0
 15 10  1  0  0  0  0
 16 18  1  6  0  0  0
 16  9  1  0  0  0  0
 17 14  1  0  0  0  0
 19 20  1  0  0  0  0
 20 21  1  0  0  0  0
 21 23  1  0  0  0  0
 22 25  1  0  0  0  0
 23 24  1  0  0  0  0
 24 25  1  0  0  0  0
 26 22  1  0  0  0  0
 27 23  1  0  0  0  0
 27 26  1  0  0  0  0
M  END
>  <MODEL>
6

>  <REMARK>
 VINA RESULT:      -6.8      1.232      1.519
  Name = 
  6 active torsions:
  status: ('A' for Active; 'I' for Inactive)
    1  A    between atoms: C_1  and  C_15
    2  A    between atoms: C_1  and  C_18
    3  A    between atoms: C_3  and  N_19
    4  A    between atoms: C_3  and  C_26
    5  A    between atoms: C_9  and  C_15
    6  A    between atoms: C_18  and  C_24
                            x       y       z     vdW  Elec       q    Type
                         _______ _______ _______ _____ _____    ______ ____

>  <TORSDO>
F 6

$$$$
=
 OpenBabel11052418233D

 27 30  0  0  1  0  0  0  0  0999 V2000
  190.2650  177.8330  145.5660 O   0  0  0  0  0  0  0  0  0  0  0  0
  190.0570  177.2030  146.8040 C   0  0  0  0  0  2  0  0  0  0  0  0
  189.1740  177.4750  144.7580 C   0  0  0  0  0  2  0  0  0  0  0  0
  190.3090  175.7050  146.6630 C   0  0  0  0  0  2  0  0  0  0  0  0
  189.3680  175.1160  145.6030 C   0  0  1  0  0  3  0  0  0  0  0  0
  189.2710  176.0050  144.3470 C   0  0  1  0  0  3  0  0  0  0  0  0
  188.0300  175.6650  143.5300 C   0  0  0  0  0  2  0  0  0  0  0  0
  187.6200  176.7220  141.5090 C   0  0  0  0  0  2  0  0  0  0  0  0
  183.9830  178.1690  142.9610 O   0  0  0  0  0  0  0  0  0  0  0  0
  185.1590  179.3370  144.8910 C   0  0  0  0  0  2  0  0  0  0  0  0
  186.9560  177.8620  140.7280 C   0  0  0  0  0  2  0  0  0  0  0  0
  185.6350  176.7890  144.7350 C   0  0  0  0  0  2  0  0  0  0  0  0
  185.8060  178.0960  145.5190 C   0  0  0  0  0  2  0  0  0  0  0  0
  185.9860  176.8550  143.2350 C   0  0  1  0  0  3  0  0  0  0  0  0
  183.8790  179.0750  144.0550 C   0  0  0  0  0  2  0  0  0  0  0  0
  185.3230  178.0550  142.5590 C   0  0  1  0  0  3  0  0  0  0  0  0
  187.4340  176.8670  142.9590 N   0  0  0  0  0  0  0  0  0  0  0  0
  185.4680  177.9320  141.0550 C   0  0  0  0  0  2  0  0  0  0  0  0
  189.7800  173.6810  145.2750 C   0  0  0  0  0  2  0  0  0  0  0  0
  190.8290  173.6240  144.1700 C   0  0  0  0  0  2  0  0  0  0  0  0
  192.1220  173.0450  144.7130 C   0  0  0  0  0  2  0  0  0  0  0  0
  194.8210  176.3900  144.9300 C   0  0  0  0  0  2  0  0  0  0  0  0
  193.2380  174.0780  144.7070 C   0  0  0  0  0  3  0  0  0  0  0  0
  193.6580  174.4380  146.1330 C   0  0  0  0  0  2  0  0  0  0  0  0
  194.8280  175.4320  146.1290 C   0  0  0  0  0  2  0  0  0  0  0  0
  193.4040  176.6270  144.4190 C   0  0  0  0  0  2  0  0  0  0  0  0
  192.7670  175.3190  143.9350 C   0  0  0  0  0  2  0  0  0  0  0  0
  1  2  1  0  0  0  0
  3  1  1  0  0  0  0
  4  2  1  0  0  0  0
  5 19  1  6  0  0  0
  5  4  1  0  0  0  0
  6  7  1  1  0  0  0
  6  3  1  0  0  0  0
  6  5  1  0  0  0  0
  8 17  1  0  0  0  0
  9 15  1  0  0  0  0
 10 13  1  0  0  0  0
 11 18  1  0  0  0  0
 11  8  1  0  0  0  0
 12 13  1  0  0  0  0
 14 12  1  1  0  0  0
 15 10  1  0  0  0  0
 16 18  1  6  0  0  0
 16  9  1  0  0  0  0
 16 14  1  0  0  0  0
 17 14  1  0  0  0  0
 17  7  1  0  0  0  0
 20 21  1  0  0  0  0
 20 19  1  0  0  0  0
 22 25  1  0  0  0  0
 23 21  1  0  0  0  0
 23 24  1  0  0  0  0
 25 24  1  0  0  0  0
 26 22  1  0  0  0  0
 27 26  1  0  0  0  0
 27 23  1  0  0  0  0
M  END
>  <MODEL>
7

>  <REMARK>
 VINA RESULT:      -6.8      2.291      6.962
  Name = 
  6 active torsions:
  status: ('A' for Active; 'I' for Inactive)
    1  A    between atoms: C_1  and  C_15
    2  A    between atoms: C_1  and  C_18
    3  A    between atoms: C_3  and  N_19
    4  A    between atoms: C_3  and  C_26
    5  A    between atoms: C_9  and  C_15
    6  A    between atoms: C_18  and  C_24
                            x       y       z     vdW  Elec       q    Type
                         _______ _______ _______ _____ _____    ______ ____

>  <TORSDO>
F 6

$$$$
=
 OpenBabel11052418233D

 27 30  0  0  1  0  0  0  0  0999 V2000
  185.2950  176.4380  146.5560 O   0  0  0  0  0  0  0  0  0  0  0  0
  184.6130  177.6120  146.1990 C   0  0  0  0  0  2  0  0  0  0  0  0
  186.6450  176.7980  146.6950 C   0  0  0  0  0  2  0  0  0  0  0  0
  184.9420  177.9730  144.7530 C   0  0  0  0  0  2  0  0  0  0  0  0
  186.4570  178.1720  144.5990 C   0  0  1  0  0  3  0  0  0  0  0  0
  187.2680  177.0810  145.3270 C   0  0  1  0  0  3  0  0  0  0  0  0
  188.7070  177.5270  145.5510 C   0  0  0  0  0  2  0  0  0  0  0  0
  190.2310  178.0130  143.8730 C   0  0  0  0  0  2  0  0  0  0  0  0
  192.5830  174.7590  145.0160 O   0  0  0  0  0  0  0  0  0  0  0  0
  190.6370  173.1600  144.6620 C   0  0  0  0  0  2  0  0  0  0  0  0
  191.2950  177.5330  142.8800 C   0  0  0  0  0  2  0  0  0  0  0  0
  190.1340  175.1090  146.3040 C   0  0  0  0  0  2  0  0  0  0  0  0
  189.6610  173.8000  145.6590 C   0  0  0  0  0  2  0  0  0  0  0  0
  190.6640  176.1830  145.3330 C   0  0  1  0  0  3  0  0  0  0  0  0
  192.1420  173.4070  144.9450 C   0  0  0  0  0  2  0  0  0  0  0  0
  191.6760  175.5960  144.3490 C   0  0  1  0  0  3  0  0  0  0  0  0
  189.6070  176.8940  144.5920 N   0  0  0  0  0  0  0  0  0  0  0  0
  192.3650  176.7200  143.6020 C   0  0  0  0  0  2  0  0  0  0  0  0
  186.8220  178.2840  143.1180 C   0  0  0  0  0  2  0  0  0  0  0  0
  186.7510  176.9370  142.4070 C   0  0  0  0  0  2  0  0  0  0  0  0
  187.8080  176.8690  141.3210 C   0  0  0  0  0  2  0  0  0  0  0  0
  188.9760  172.7320  141.1240 C   0  0  0  0  0  2  0  0  0  0  0  0
  188.4410  175.4890  141.2480 C   0  0  0  0  0  3  0  0  0  0  0  0
  188.1940  174.8440  139.8840 C   0  0  0  0  0  2  0  0  0  0  0  0
  188.8860  173.4780  139.7850 C   0  0  0  0  0  2  0  0  0  0  0  0
  187.8330  173.1250  142.0530 C   0  0  0  0  0  2  0  0  0  0  0  0
  187.8820  174.6210  142.3850 C   0  0  0  0  0  2  0  0  0  0  0  0
  1  3  1  0  0  0  0
  2  1  1  0  0  0  0
  4  2  1  0  0  0  0
  5 19  1  6  0  0  0
  5  4  1  0  0  0  0
  5  6  1  0  0  0  0
  6  7  1  1  0  0  0
  6  3  1  0  0  0  0
  8 17  1  0  0  0  0
 10 15  1  0  0  0  0
 10 13  1  0  0  0  0
 11 18  1  0  0  0  0
 11  8  1  0  0  0  0
 13 12  1  0  0  0  0
 14 12  1  6  0  0  0
 15  9  1  0  0  0  0
 16 18  1  1  0  0  0
 16  9  1  0  0  0  0
 16 14  1  0  0  0  0
 17 14  1  0  0  0  0
 17  7  1  0  0  0  0
 20 19  1  0  0  0  0
 21 20  1  0  0  0  0
 22 26  1  0  0  0  0
 23 21  1  0  0  0  0
 23 27  1  0  0  0  0
 24 23  1  0  0  0  0
 25 24  1  0  0  0  0
 25 22  1  0  0  0  0
 26 27  1  0  0  0  0
M  END
>  <MODEL>
8

>  <REMARK>
 VINA RESULT:      -6.7      2.020      4.820
  Name = 
  6 active torsions:
  status: ('A' for Active; 'I' for Inactive)
    1  A    between atoms: C_1  and  C_15
    2  A    between atoms: C_1  and  C_18
    3  A    between atoms: C_3  and  N_19
    4  A    between atoms: C_3  and  C_26
    5  A    between atoms: C_9  and  C_15
    6  A    between atoms: C_18  and  C_24
                            x       y       z     vdW  Elec       q    Type
                         _______ _______ _______ _____ _____    ______ ____

>  <TORSDO>
F 6

$$$$
=
 OpenBabel11052418233D

 27 30  0  0  1  0  0  0  0  0999 V2000
  188.1790  174.4490  140.3290 O   0  0  0  0  0  0  0  0  0  0  0  0
  189.4020  173.7620  140.2540 C   0  0  0  0  0  2  0  0  0  0  0  0
  188.3860  175.5160  141.2180 C   0  0  0  0  0  2  0  0  0  0  0  0
  189.6340  172.9890  141.5480 C   0  0  0  0  0  2  0  0  0  0  0  0
  189.6430  173.9580  142.7390 C   0  0  1  0  0  3  0  0  0  0  0  0
  188.5100  175.0010  142.6540 C   0  0  1  0  0  3  0  0  0  0  0  0
  188.7960  176.1950  143.5560 C   0  0  0  0  0  2  0  0  0  0  0  0
  188.2080  176.1980  145.7980 C   0  0  0  0  0  2  0  0  0  0  0  0
  185.7290  179.5000  145.1820 O   0  0  0  0  0  0  0  0  0  0  0  0
  184.3900  178.2340  143.4280 C   0  0  0  0  0  2  0  0  0  0  0  0
  187.1830  176.5200  146.8920 C   0  0  0  0  0  2  0  0  0  0  0  0
  186.9400  178.3480  142.9480 C   0  0  0  0  0  2  0  0  0  0  0  0
  185.5450  177.9390  142.4610 C   0  0  0  0  0  2  0  0  0  0  0  0
  187.3200  177.8810  144.3680 C   0  0  1  0  0  3  0  0  0  0  0  0
  184.5800  179.4740  144.3410 C   0  0  0  0  0  2  0  0  0  0  0  0
  186.2130  178.1970  145.3740 C   0  0  1  0  0  3  0  0  0  0  0  0
  187.6750  176.4530  144.4530 N   0  0  0  0  0  0  0  0  0  0  0  0
  186.7290  177.9730  146.7810 C   0  0  0  0  0  2  0  0  0  0  0  0
  189.6210  173.1750  144.0520 C   0  0  0  0  0  2  0  0  0  0  0  0
  190.8450  173.4660  144.9130 C   0  0  0  0  0  2  0  0  0  0  0  0
  191.9920  173.9370  144.0390 C   0  0  0  0  0  2  0  0  0  0  0  0
  194.0810  176.7120  146.5800 C   0  0  0  0  0  2  0  0  0  0  0  0
  192.8200  175.0050  144.7380 C   0  0  0  0  0  3  0  0  0  0  0  0
  193.9860  174.3790  145.5040 C   0  0  0  0  0  2  0  0  0  0  0  0
  194.8600  175.4590  146.1570 C   0  0  0  0  0  2  0  0  0  0  0  0
  192.6290  176.3780  146.9020 C   0  0  0  0  0  2  0  0  0  0  0  0
  191.9080  175.8120  145.6730 C   0  0  0  0  0  2  0  0  0  0  0  0
  1  3  1  0  0  0  0
  2  1  1  0  0  0  0
  2  4  1  0  0  0  0
  3  6  1  0  0  0  0
  4  5  1  0  0  0  0
  5 19  1  1  0  0  0
  6  5  1  0  0  0  0
  6  7  1  1  0  0  0
  7 17  1  0  0  0  0
  8 11  1  0  0  0  0
  9 16  1  0  0  0  0
 10 15  1  0  0  0  0
 13 12  1  0  0  0  0
 13 10  1  0  0  0  0
 14 12  1  6  0  0  0
 14 17  1  0  0  0  0
 14 16  1  0  0  0  0
 15  9  1  0  0  0  0
 16 18  1  1  0  0  0
 17  8  1  0  0  0  0
 18 11  1  0  0  0  0
 19 20  1  0  0  0  0
 21 23  1  0  0  0  0
 21 20  1  0  0  0  0
 22 26  1  0  0  0  0
 23 24  1  0  0  0  0
 23 27  1  0  0  0  0
 24 25  1  0  0  0  0
 25 22  1  0  0  0  0
 27 26  1  0  0  0  0
M  END
>  <MODEL>
9

>  <REMARK>
 VINA RESULT:      -6.7      2.152      6.113
  Name = 
  6 active torsions:
  status: ('A' for Active; 'I' for Inactive)
    1  A    between atoms: C_1  and  C_15
    2  A    between atoms: C_1  and  C_18
    3  A    between atoms: C_3  and  N_19
    4  A    between atoms: C_3  and  C_26
    5  A    between atoms: C_9  and  C_15
    6  A    between atoms: C_18  and  C_24
                            x       y       z     vdW  Elec       q    Type
                         _______ _______ _______ _____ _____    ______ ____

>  <TORSDO>
F 6

$$$$
