=
 OpenBabel11052417523D

 31 35  0  0  1  0  0  0  0  0999 V2000
  187.4530  177.3330  144.2520 C   0  0  0  0  0  0  0  0  0  0  0  0
  186.5710  177.7120  145.3060 C   0  0  2  0  0  3  0  0  0  0  0  0
  184.4050  178.5610  146.1300 C   0  0  0  0  0  0  0  0  0  0  0  0
  187.1300  177.3910  142.9400 C   0  0  0  0  0  0  0  0  0  0  0  0
  186.1140  177.6720  141.0620 C   0  0  0  0  0  0  0  0  0  0  0  0
  185.3310  178.1640  145.0580 C   0  0  0  0  0  3  0  0  0  0  0  0
  189.7270  176.4440  143.5000 C   0  0  0  0  0  0  0  0  0  0  0  0
  188.2960  177.1450  146.9340 C   0  0  0  0  0  3  0  0  0  0  0  0
  183.1670  179.0090  145.8140 F   0  0  0  0  0  0  0  0  0  0  0  0
  189.3480  176.5230  142.2170 C   0  0  0  0  0  3  0  0  0  0  0  0
  188.7620  176.8590  144.5730 C   0  0  0  0  0  0  0  0  0  0  0  0
  185.9070  177.8090  142.3420 N   0  0  0  0  0  0  0  0  0  0  0  0
  184.7750  178.4840  147.4070 C   0  0  0  0  0  3  0  0  0  0  0  0
  188.0390  177.0040  141.9440 N   0  0  0  0  0  0  0  0  0  0  0  0
  187.4130  177.1670  140.7130 N   0  0  0  0  0  2  0  0  0  0  0  0
  189.1590  176.7730  145.9090 C   0  0  0  0  0  3  0  0  0  0  0  0
  187.0130  177.6100  146.6490 C   0  0  0  0  0  0  0  0  0  0  0  0
  186.1360  177.9940  147.8150 C   0  0  0  0  0  3  0  0  0  0  0  0
  192.1680  178.0070  143.9960 O   0  0  0  0  0  0  0  0  0  0  0  0
  192.2140  176.7540  144.1060 C   0  0  0  0  0  0  0  0  0  0  0  0
  191.0340  175.9680  143.8690 N   0  0  0  0  0  2  0  0  0  0  0  0
  195.9320  174.8070  145.0460 C   0  0  0  0  0  0  0  0  0  0  0  0
  194.5130  176.0420  143.5330 C   0  0  0  0  0  3  0  0  0  0  0  0
  192.4920  175.3950  147.0220 Cl  0  0  0  0  0  0  0  0  0  0  0  0
  197.4560  174.0230  145.3980 Cl  0  0  0  0  0  0  0  0  0  0  0  0
  195.7300  175.4170  143.8100 C   0  0  0  0  0  3  0  0  0  0  0  0
  193.6920  175.4430  145.7370 C   0  0  0  0  0  0  0  0  0  0  0  0
  193.4770  176.0680  144.4810 C   0  0  0  0  0  0  0  0  0  0  0  0
  194.9170  174.8200  146.0030 C   0  0  0  0  0  3  0  0  0  0  0  0
  185.0650  177.9650  140.0490 C   0  0  0  0  0  2  0  0  0  0  0  0
  183.7680  178.3300  140.7420 C   0  0  0  0  0  1  0  0  0  0  0  0
  1 11  1  0  0  0  0
  1  2  1  0  0  0  0
  2  6  1  6  0  0  0
  2 17  1  0  0  0  0
  3 13  1  0  0  0  0
  4  1  2  0  0  0  0
  5 12  2  0  0  0  0
  6  3  2  0  0  0  0
  7 21  1  0  0  0  0
  7 11  1  0  0  0  0
  9  3  1  0  0  0  0
 10  7  2  0  0  0  0
 11 16  2  0  0  0  0
 12  4  1  0  0  0  0
 13 18  2  0  0  0  0
 14 10  1  0  0  0  0
 14  4  1  0  0  0  0
 15  5  1  0  0  0  0
 15 14  1  0  0  0  0
 16  8  1  0  0  0  0
 17  8  2  0  0  0  0
 17 18  1  0  0  0  0
 19 20  2  0  0  0  0
 20 28  1  0  0  0  0
 21 20  1  0  0  0  0
 22 25  1  0  0  0  0
 22 29  1  0  0  0  0
 23 26  1  0  0  0  0
 23 28  2  0  0  0  0
 26 22  2  0  0  0  0
 27 29  2  0  0  0  0
 27 24  1  0  0  0  0
 28 27  1  0  0  0  0
 30 31  1  0  0  0  0
 30  5  1  0  0  0  0
M  END
>  <MODEL>
1

>  <REMARK>
 VINA RESULT:      -9.5      0.000      0.000
  Name = 
  3 active torsions:
  status: ('A' for Active; 'I' for Inactive)
    1  A    between atoms: C_2  and  C_13
    2  A    between atoms: C_9  and  C_22
    3  A    between atoms: C_15  and  N_23
                            x       y       z     vdW  Elec       q    Type
                         _______ _______ _______ _____ _____    ______ ____

>  <TORSDO>
F 3

$$$$
=
 OpenBabel11052417523D

 31 35  0  0  1  0  0  0  0  0999 V2000
  187.3020  176.7100  144.2020 C   0  0  0  0  0  0  0  0  0  0  0  0
  186.4750  177.2040  145.2520 C   0  0  1  0  0  3  0  0  0  0  0  0
  184.4780  178.4050  146.0650 C   0  0  0  0  0  0  0  0  0  0  0  0
  187.0350  176.8780  142.8870 C   0  0  0  0  0  0  0  0  0  0  0  0
  186.1430  177.4140  141.0020 C   0  0  0  0  0  0  0  0  0  0  0  0
  185.3460  177.8860  144.9970 C   0  0  0  0  0  3  0  0  0  0  0  0
  189.3970  175.4470  143.4620 C   0  0  0  0  0  0  0  0  0  0  0  0
  188.0180  176.2670  146.8910 C   0  0  0  0  0  3  0  0  0  0  0  0
  183.3520  179.0850  145.7420 F   0  0  0  0  0  0  0  0  0  0  0  0
  189.0760  175.6440  142.1750 C   0  0  0  0  0  3  0  0  0  0  0  0
  188.4930  175.9910  144.5300 C   0  0  0  0  0  0  0  0  0  0  0  0
  185.9270  177.5360  142.2820 N   0  0  0  0  0  0  0  0  0  0  0  0
  184.7890  178.2120  147.3450 C   0  0  0  0  0  3  0  0  0  0  0  0
  187.8860  176.3680  141.8950 N   0  0  0  0  0  0  0  0  0  0  0  0
  187.3370  176.6920  140.6590 N   0  0  0  0  0  2  0  0  0  0  0  0
  188.8280  175.7820  145.8700 C   0  0  0  0  0  3  0  0  0  0  0  0
  186.8510  176.9710  146.5990 C   0  0  0  0  0  0  0  0  0  0  0  0
  186.0250  177.4640  147.7610 C   0  0  0  0  0  3  0  0  0  0  0  0
  189.6410  172.6310  144.2760 O   0  0  0  0  0  0  0  0  0  0  0  0
  190.6770  173.3460  144.2330 C   0  0  0  0  0  0  0  0  0  0  0  0
  190.5820  174.7250  143.8380 N   0  0  0  0  0  2  0  0  0  0  0  0
  194.4910  171.5870  145.1590 C   0  0  0  0  0  0  0  0  0  0  0  0
  192.3540  171.5380  144.0350 C   0  0  0  0  0  3  0  0  0  0  0  0
  192.6410  174.9880  146.2000 Cl  0  0  0  0  0  0  0  0  0  0  0  0
  196.0340  170.8440  145.5160 Cl  0  0  0  0  0  0  0  0  0  0  0  0
  193.5840  170.9430  144.3180 C   0  0  0  0  0  3  0  0  0  0  0  0
  192.9350  173.4300  145.4400 C   0  0  0  0  0  0  0  0  0  0  0  0
  192.0050  172.7830  144.5850 C   0  0  0  0  0  0  0  0  0  0  0  0
  194.1660  172.8230  145.7160 C   0  0  0  0  0  3  0  0  0  0  0  0
  185.1950  177.9330  139.9790 C   0  0  0  0  0  2  0  0  0  0  0  0
  183.8910  178.3290  140.6410 C   0  0  0  0  0  1  0  0  0  0  0  0
  1 11  1  0  0  0  0
  1  2  1  0  0  0  0
  2  6  1  6  0  0  0
  2 17  1  0  0  0  0
  3 13  1  0  0  0  0
  4  1  2  0  0  0  0
  5 12  2  0  0  0  0
  6  3  2  0  0  0  0
  7 21  1  0  0  0  0
  7 11  1  0  0  0  0
  9  3  1  0  0  0  0
 10  7  2  0  0  0  0
 11 16  2  0  0  0  0
 12  4  1  0  0  0  0
 13 18  2  0  0  0  0
 14 10  1  0  0  0  0
 14  4  1  0  0  0  0
 15  5  1  0  0  0  0
 15 14  1  0  0  0  0
 16  8  1  0  0  0  0
 17  8  2  0  0  0  0
 17 18  1  0  0  0  0
 20 19  2  0  0  0  0
 20 28  1  0  0  0  0
 21 20  1  0  0  0  0
 22 25  1  0  0  0  0
 22 29  1  0  0  0  0
 23 26  1  0  0  0  0
 23 28  2  0  0  0  0
 26 22  2  0  0  0  0
 27 29  2  0  0  0  0
 27 24  1  0  0  0  0
 28 27  1  0  0  0  0
 30 31  1  0  0  0  0
 30  5  1  0  0  0  0
M  END
>  <MODEL>
2

>  <REMARK>
 VINA RESULT:      -9.0      2.127      2.247
  Name = 
  3 active torsions:
  status: ('A' for Active; 'I' for Inactive)
    1  A    between atoms: C_2  and  C_13
    2  A    between atoms: C_9  and  C_22
    3  A    between atoms: C_15  and  N_23
                            x       y       z     vdW  Elec       q    Type
                         _______ _______ _______ _____ _____    ______ ____

>  <TORSDO>
F 3

$$$$
=
 OpenBabel11052417523D

 31 35  0  0  0  0  0  0  0  0999 V2000
  188.2460  176.5950  144.8500 C   0  0  0  0  0  0  0  0  0  0  0  0
  187.0530  177.2920  145.2020 C   0  0  0  0  0  0  0  0  0  0  0  0
  185.7140  178.6600  146.7590 C   0  0  0  0  0  0  0  0  0  0  0  0
  189.3380  176.5180  145.6430 C   0  0  0  0  0  0  0  0  0  0  0  0
  190.7530  176.7230  147.2540 C   0  0  0  0  0  0  0  0  0  0  0  0
  186.9340  177.9350  146.3760 C   0  0  0  0  0  3  0  0  0  0  0  0
  189.5520  175.1830  143.1680 C   0  0  0  0  0  0  0  0  0  0  0  0
  186.0630  176.6490  143.0690 C   0  0  0  0  0  3  0  0  0  0  0  0
  185.6560  179.2880  147.9580 F   0  0  0  0  0  0  0  0  0  0  0  0
  190.6040  175.1440  143.9980 C   0  0  0  0  0  3  0  0  0  0  0  0
  188.3180  175.9280  143.5880 C   0  0  0  0  0  0  0  0  0  0  0  0
  189.5440  177.0900  146.9310 N   0  0  0  0  0  0  0  0  0  0  0  0
  184.6650  178.7040  145.9390 C   0  0  0  0  0  3  0  0  0  0  0  0
  190.4860  175.8180  145.2440 N   0  0  0  0  0  0  0  0  0  0  0  0
  191.4270  175.9330  146.2620 N   0  0  0  0  0  2  0  0  0  0  0  0
  187.2240  175.9680  142.7210 C   0  0  0  0  0  3  0  0  0  0  0  0
  185.9660  177.3090  144.2930 C   0  0  0  0  0  0  0  0  0  0  0  0
  184.6730  178.0250  144.5990 C   0  0  0  0  0  2  0  0  0  0  0  0
  188.6690  172.4630  142.4820 O   0  0  0  0  0  0  0  0  0  0  0  0
  189.1440  173.1960  141.5760 C   0  0  0  0  0  0  0  0  0  0  0  0
  189.5830  174.5290  141.8870 N   0  0  0  0  0  2  0  0  0  0  0  0
  189.3800  171.8890  137.4850 C   0  0  0  0  0  0  0  0  0  0  0  0
  188.5510  173.3930  139.1820 C   0  0  0  0  0  3  0  0  0  0  0  0
  190.9840  170.6220  140.9340 Cl  0  0  0  0  0  0  0  0  0  0  0  0
  189.4550  171.3830  135.8120 Cl  0  0  0  0  0  0  0  0  0  0  0  0
  188.6080  172.9920  137.8470 C   0  0  0  0  0  3  0  0  0  0  0  0
  190.0430  171.5820  139.8010 C   0  0  0  0  0  0  0  0  0  0  0  0
  189.2600  172.7040  140.1800 C   0  0  0  0  0  0  0  0  0  0  0  0
  190.0930  171.1890  138.4580 C   0  0  0  0  0  3  0  0  0  0  0  0
  191.4000  177.1400  148.5270 C   0  0  0  0  0  2  0  0  0  0  0  0
  190.7060  178.3690  149.0780 C   0  0  0  0  0  1  0  0  0  0  0  0
  1  2  1  0  0  0  0
  1  4  2  0  0  0  0
  2  6  2  0  0  0  0
  3  9  1  0  0  0  0
  4 12  1  0  0  0  0
  5 30  1  0  0  0  0
  6  3  1  0  0  0  0
  7 11  1  0  0  0  0
  7 10  2  0  0  0  0
  8 17  2  0  0  0  0
 10 14  1  0  0  0  0
 11  1  1  0  0  0  0
 12  5  2  0  0  0  0
 13  3  2  0  0  0  0
 14  4  1  0  0  0  0
 14 15  1  0  0  0  0
 15  5  1  0  0  0  0
 16  8  1  0  0  0  0
 16 11  2  0  0  0  0
 17 18  1  0  0  0  0
 17  2  1  0  0  0  0
 18 13  1  0  0  0  0
 20 21  1  0  0  0  0
 20 19  2  0  0  0  0
 21  7  1  0  0  0  0
 22 26  2  0  0  0  0
 22 29  1  0  0  0  0
 23 28  2  0  0  0  0
 25 22  1  0  0  0  0
 26 23  1  0  0  0  0
 27 28  1  0  0  0  0
 27 24  1  0  0  0  0
 28 20  1  0  0  0  0
 29 27  2  0  0  0  0
 30 31  1  0  0  0  0
M  END
>  <MODEL>
3

>  <REMARK>
 VINA RESULT:      -8.3      4.179      6.388
  Name = 
  3 active torsions:
  status: ('A' for Active; 'I' for Inactive)
    1  A    between atoms: C_2  and  C_13
    2  A    between atoms: C_9  and  C_22
    3  A    between atoms: C_15  and  N_23
                            x       y       z     vdW  Elec       q    Type
                         _______ _______ _______ _____ _____    ______ ____

>  <TORSDO>
F 3

$$$$
=
 OpenBabel11052417523D

 31 35  0  0  1  0  0  0  0  0999 V2000
  188.9980  175.9910  144.7320 C   0  0  0  0  0  0  0  0  0  0  0  0
  189.8050  176.2500  145.8790 C   0  0  2  0  0  3  0  0  0  0  0  0
  190.3820  177.5810  147.8750 C   0  0  0  0  0  0  0  0  0  0  0  0
  187.9440  176.7530  144.3630 C   0  0  0  0  0  0  0  0  0  0  0  0
  186.4090  178.2590  144.2510 C   0  0  0  0  0  0  0  0  0  0  0  0
  189.5640  177.2950  146.6870 C   0  0  0  0  0  3  0  0  0  0  0  0
  188.4800  174.5470  142.6890 C   0  0  0  0  0  0  0  0  0  0  0  0
  191.1610  174.2950  145.3490 C   0  0  0  0  0  3  0  0  0  0  0  0
  190.0870  178.6510  148.6510 F   0  0  0  0  0  0  0  0  0  0  0  0
  187.4440  175.3390  142.3760 C   0  0  0  0  0  3  0  0  0  0  0  0
  189.3000  174.8650  143.9050 C   0  0  0  0  0  0  0  0  0  0  0  0
  187.4180  177.9130  145.0000 N   0  0  0  0  0  0  0  0  0  0  0  0
  191.4120  176.7980  148.1930 C   0  0  0  0  0  3  0  0  0  0  0  0
  187.1830  176.4500  143.2240 N   0  0  0  0  0  0  0  0  0  0  0  0
  186.1750  177.4020  143.1210 N   0  0  0  0  0  2  0  0  0  0  0  0
  190.3770  174.0370  144.2310 C   0  0  0  0  0  3  0  0  0  0  0  0
  190.8880  175.3860  146.1730 C   0  0  0  0  0  0  0  0  0  0  0  0
  191.7850  175.5980  147.3680 C   0  0  0  0  0  3  0  0  0  0  0  0
  190.6330  174.2740  140.7040 O   0  0  0  0  0  0  0  0  0  0  0  0
  189.8760  173.2910  140.9230 C   0  0  0  0  0  0  0  0  0  0  0  0
  188.8170  173.4010  141.8880 N   0  0  0  0  0  2  0  0  0  0  0  0
  190.3380  169.6480  138.6840 C   0  0  0  0  0  0  0  0  0  0  0  0
  189.5530  171.9220  138.8870 C   0  0  0  0  0  3  0  0  0  0  0  0
  191.4100  170.8400  142.3590 Cl  0  0  0  0  0  0  0  0  0  0  0  0
  190.5090  168.1800  137.7480 Cl  0  0  0  0  0  0  0  0  0  0  0  0
  189.6880  170.7530  138.1380 C   0  0  0  0  0  3  0  0  0  0  0  0
  190.7220  170.8800  140.7420 C   0  0  0  0  0  0  0  0  0  0  0  0
  190.0620  172.0110  140.1940 C   0  0  0  0  0  0  0  0  0  0  0  0
  190.8510  169.7130  139.9790 C   0  0  0  0  0  3  0  0  0  0  0  0
  185.5350  179.4190  144.5750 C   0  0  0  0  0  2  0  0  0  0  0  0
  184.4230  178.9800  145.5060 C   0  0  0  0  0  1  0  0  0  0  0  0
  1  2  1  0  0  0  0
  2 17  1  0  0  0  0
  2  6  1  6  0  0  0
  3 13  1  0  0  0  0
  3  9  1  0  0  0  0
  4  1  2  0  0  0  0
  4 12  1  0  0  0  0
  5 30  1  0  0  0  0
  5 12  2  0  0  0  0
  6  3  2  0  0  0  0
  7 11  1  0  0  0  0
  8 17  2  0  0  0  0
 10  7  2  0  0  0  0
 10 14  1  0  0  0  0
 11 16  2  0  0  0  0
 11  1  1  0  0  0  0
 14  4  1  0  0  0  0
 15 14  1  0  0  0  0
 15  5  1  0  0  0  0
 16  8  1  0  0  0  0
 17 18  1  0  0  0  0
 18 13  2  0  0  0  0
 19 20  2  0  0  0  0
 20 21  1  0  0  0  0
 21  7  1  0  0  0  0
 22 29  1  0  0  0  0
 23 28  2  0  0  0  0
 25 22  1  0  0  0  0
 26 22  2  0  0  0  0
 26 23  1  0  0  0  0
 27 24  1  0  0  0  0
 28 27  1  0  0  0  0
 28 20  1  0  0  0  0
 29 27  2  0  0  0  0
 30 31  1  0  0  0  0
M  END
>  <MODEL>
4

>  <REMARK>
 VINA RESULT:      -7.9      4.491      5.826
  Name = 
  3 active torsions:
  status: ('A' for Active; 'I' for Inactive)
    1  A    between atoms: C_2  and  C_13
    2  A    between atoms: C_9  and  C_22
    3  A    between atoms: C_15  and  N_23
                            x       y       z     vdW  Elec       q    Type
                         _______ _______ _______ _____ _____    ______ ____

>  <TORSDO>
F 3

$$$$
=
 OpenBabel11052417523D

 31 35  0  0  0  0  0  0  0  0999 V2000
  187.6750  176.3990  143.9440 C   0  0  0  0  0  0  0  0  0  0  0  0
  187.1380  176.7720  142.6770 C   0  0  0  0  0  0  0  0  0  0  0  0
  185.4530  177.9140  141.2810 C   0  0  0  0  0  0  0  0  0  0  0  0
  187.1300  176.7520  145.1290 C   0  0  0  0  0  0  0  0  0  0  0  0
  185.8830  177.5850  146.6750 C   0  0  0  0  0  0  0  0  0  0  0  0
  186.0250  177.5180  142.5770 C   0  0  0  0  0  3  0  0  0  0  0  0
  189.4690  175.1860  145.3000 C   0  0  0  0  0  0  0  0  0  0  0  0
  188.9460  175.5690  141.5700 C   0  0  0  0  0  3  0  0  0  0  0  0
  184.3290  178.6680  141.2470 F   0  0  0  0  0  0  0  0  0  0  0  0
  188.8830  175.5700  146.4430 C   0  0  0  0  0  3  0  0  0  0  0  0
  188.8610  175.6030  143.9920 C   0  0  0  0  0  0  0  0  0  0  0  0
  185.9700  177.5410  145.3750 N   0  0  0  0  0  0  0  0  0  0  0  0
  186.0310  177.5370  140.1420 C   0  0  0  0  0  3  0  0  0  0  0  0
  187.7030  176.3570  146.3470 N   0  0  0  0  0  0  0  0  0  0  0  0
  186.9240  176.8830  147.3720 N   0  0  0  0  0  2  0  0  0  0  0  0
  189.4750  175.2030  142.8030 C   0  0  0  0  0  3  0  0  0  0  0  0
  187.7910  176.3450  141.4940 C   0  0  0  0  0  0  0  0  0  0  0  0
  187.2790  176.7010  140.1200 C   0  0  0  0  0  2  0  0  0  0  0  0
  192.2500  176.0640  144.9170 O   0  0  0  0  0  0  0  0  0  0  0  0
  192.0170  174.8420  145.1120 C   0  0  0  0  0  0  0  0  0  0  0  0
  190.6660  174.3890  145.3020 N   0  0  0  0  0  2  0  0  0  0  0  0
  195.1220  171.8650  145.1650 C   0  0  0  0  0  0  0  0  0  0  0  0
  192.8450  172.5420  144.7300 C   0  0  0  0  0  3  0  0  0  0  0  0
  194.9400  175.7510  146.1390 Cl  0  0  0  0  0  0  0  0  0  0  0  0
  196.3620  170.6320  145.1750 Cl  0  0  0  0  0  0  0  0  0  0  0  0
  193.8320  171.5560  144.7370 C   0  0  0  0  0  3  0  0  0  0  0  0
  194.4410  174.1580  145.5850 C   0  0  0  0  0  0  0  0  0  0  0  0
  193.1250  173.8530  145.1510 C   0  0  0  0  0  0  0  0  0  0  0  0
  195.4220  173.1600  145.5870 C   0  0  0  0  0  3  0  0  0  0  0  0
  184.8180  178.3500  147.3780 C   0  0  0  0  0  2  0  0  0  0  0  0
  183.6910  178.6660  146.4160 C   0  0  0  0  0  1  0  0  0  0  0  0
  1 11  1  0  0  0  0
  1  4  2  0  0  0  0
  2  1  1  0  0  0  0
  3  6  1  0  0  0  0
  4 12  1  0  0  0  0
  4 14  1  0  0  0  0
  5 15  1  0  0  0  0
  5 30  1  0  0  0  0
  6  2  2  0  0  0  0
  7 21  1  0  0  0  0
  7 10  2  0  0  0  0
  8 16  1  0  0  0  0
  9  3  1  0  0  0  0
 11  7  1  0  0  0  0
 12  5  2  0  0  0  0
 13  3  2  0  0  0  0
 14 10  1  0  0  0  0
 14 15  1  0  0  0  0
 16 11  2  0  0  0  0
 17  8  2  0  0  0  0
 17  2  1  0  0  0  0
 18 13  1  0  0  0  0
 18 17  1  0  0  0  0
 19 20  2  0  0  0  0
 20 28  1  0  0  0  0
 20 21  1  0  0  0  0
 22 25  1  0  0  0  0
 22 29  1  0  0  0  0
 23 26  1  0  0  0  0
 23 28  2  0  0  0  0
 26 22  2  0  0  0  0
 27 29  2  0  0  0  0
 27 24  1  0  0  0  0
 28 27  1  0  0  0  0
 31 30  1  0  0  0  0
M  END
>  <MODEL>
5

>  <REMARK>
 VINA RESULT:      -7.9      2.359      4.273
  Name = 
  3 active torsions:
  status: ('A' for Active; 'I' for Inactive)
    1  A    between atoms: C_2  and  C_13
    2  A    between atoms: C_9  and  C_22
    3  A    between atoms: C_15  and  N_23
                            x       y       z     vdW  Elec       q    Type
                         _______ _______ _______ _____ _____    ______ ____

>  <TORSDO>
F 3

$$$$
=
 OpenBabel11052417523D

 31 35  0  0  1  0  0  0  0  0999 V2000
  186.6870  177.4650  143.7820 C   0  0  0  0  0  0  0  0  0  0  0  0
  186.1810  177.7670  145.0810 C   0  0  2  0  0  3  0  0  0  0  0  0
  184.3920  178.5490  146.5900 C   0  0  0  0  0  0  0  0  0  0  0  0
  185.9770  177.6140  142.6420 C   0  0  0  0  0  0  0  0  0  0  0  0
  184.4350  178.0220  141.1950 C   0  0  0  0  0  0  0  0  0  0  0  0
  184.9340  178.2310  145.2600 C   0  0  0  0  0  3  0  0  0  0  0  0
  188.6020  176.6390  142.3060 C   0  0  0  0  0  0  0  0  0  0  0  0
  188.3140  177.0940  146.0530 C   0  0  0  0  0  3  0  0  0  0  0  0
  183.1250  179.0130  146.7040 F   0  0  0  0  0  0  0  0  0  0  0  0
  187.8460  176.8060  141.2110 C   0  0  0  0  0  3  0  0  0  0  0  0
  188.0230  176.9750  143.6500 C   0  0  0  0  0  0  0  0  0  0  0  0
  184.6360  178.0680  142.4820 N   0  0  0  0  0  0  0  0  0  0  0  0
  185.1360  178.3840  147.6820 C   0  0  0  0  0  3  0  0  0  0  0  0
  186.5250  177.3000  141.3900 N   0  0  0  0  0  0  0  0  0  0  0  0
  185.5530  177.5470  140.4270 N   0  0  0  0  0  2  0  0  0  0  0  0
  188.8110  176.7980  144.7890 C   0  0  0  0  0  3  0  0  0  0  0  0
  187.0150  177.5740  146.2110 C   0  0  0  0  0  0  0  0  0  0  0  0
  186.5480  177.8720  147.6140 C   0  0  0  0  0  3  0  0  0  0  0  0
  189.5360  173.8530  142.4290 O   0  0  0  0  0  0  0  0  0  0  0  0
  190.3820  174.7740  142.2820 C   0  0  0  0  0  0  0  0  0  0  0  0
  189.9490  176.1440  142.2190 N   0  0  0  0  0  2  0  0  0  0  0  0
  194.6010  173.9610  142.1010 C   0  0  0  0  0  0  0  0  0  0  0  0
  192.6770  174.9240  143.1950 C   0  0  0  0  0  3  0  0  0  0  0  0
  191.4730  173.1040  139.7440 Cl  0  0  0  0  0  0  0  0  0  0  0  0
  196.3220  173.6470  142.0570 Cl  0  0  0  0  0  0  0  0  0  0  0  0
  194.0490  174.6760  143.1630 C   0  0  0  0  0  3  0  0  0  0  0  0
  192.4020  173.7400  141.0950 C   0  0  0  0  0  0  0  0  0  0  0  0
  191.8300  174.4670  142.1710 C   0  0  0  0  0  0  0  0  0  0  0  0
  193.7810  173.4970  141.0740 C   0  0  0  0  0  3  0  0  0  0  0  0
  183.1290  178.3800  140.5780 C   0  0  0  0  0  2  0  0  0  0  0  0
  182.0290  178.2940  141.6160 C   0  0  0  0  0  1  0  0  0  0  0  0
  1  2  1  0  0  0  0
  2  6  1  6  0  0  0
  2 17  1  0  0  0  0
  3  9  1  0  0  0  0
  3 13  1  0  0  0  0
  4  1  2  0  0  0  0
  5 12  2  0  0  0  0
  6  3  2  0  0  0  0
  7 11  1  0  0  0  0
  8 17  2  0  0  0  0
 10 14  1  0  0  0  0
 10  7  2  0  0  0  0
 11  1  1  0  0  0  0
 11 16  2  0  0  0  0
 12  4  1  0  0  0  0
 14  4  1  0  0  0  0
 15  5  1  0  0  0  0
 15 14  1  0  0  0  0
 16  8  1  0  0  0  0
 17 18  1  0  0  0  0
 18 13  2  0  0  0  0
 20 19  2  0  0  0  0
 21 20  1  0  0  0  0
 21  7  1  0  0  0  0
 22 26  1  0  0  0  0
 24 27  1  0  0  0  0
 25 22  1  0  0  0  0
 26 23  2  0  0  0  0
 27 28  2  0  0  0  0
 28 20  1  0  0  0  0
 28 23  1  0  0  0  0
 29 27  1  0  0  0  0
 29 22  2  0  0  0  0
 30  5  1  0  0  0  0
 30 31  1  0  0  0  0
M  END
>  <MODEL>
6

>  <REMARK>
 VINA RESULT:      -7.8      2.397      2.723
  Name = 
  3 active torsions:
  status: ('A' for Active; 'I' for Inactive)
    1  A    between atoms: C_2  and  C_13
    2  A    between atoms: C_9  and  C_22
    3  A    between atoms: C_15  and  N_23
                            x       y       z     vdW  Elec       q    Type
                         _______ _______ _______ _____ _____    ______ ____

>  <TORSDO>
F 3

$$$$
=
 OpenBabel11052417523D

 31 35  0  0  1  0  0  0  0  0999 V2000
  189.6760  175.6970  143.9470 C   0  0  0  0  0  0  0  0  0  0  0  0
  190.3780  175.9670  145.1580 C   0  0  2  0  0  3  0  0  0  0  0  0
  192.3750  175.7940  146.5980 C   0  0  0  0  0  0  0  0  0  0  0  0
  190.1920  174.9940  142.9150 C   0  0  0  0  0  0  0  0  0  0  0  0
  191.4760  173.8510  141.6170 C   0  0  0  0  0  0  0  0  0  0  0  0
  191.6310  175.5280  145.3570 C   0  0  0  0  0  3  0  0  0  0  0  0
  187.5610  175.9350  142.5320 C   0  0  0  0  0  0  0  0  0  0  0  0
  188.4380  177.1830  145.9970 C   0  0  0  0  0  3  0  0  0  0  0  0
  193.6370  175.3230  146.7370 F   0  0  0  0  0  0  0  0  0  0  0  0
  188.1290  175.2320  141.5420 C   0  0  0  0  0  3  0  0  0  0  0  0
  188.3430  176.1890  143.7880 C   0  0  0  0  0  0  0  0  0  0  0  0
  191.4830  174.4030  142.7980 N   0  0  0  0  0  0  0  0  0  0  0  0
  191.8170  176.4930  147.5850 C   0  0  0  0  0  3  0  0  0  0  0  0
  189.4540  174.7590  141.7450 N   0  0  0  0  0  0  0  0  0  0  0  0
  190.2570  174.0250  140.8780 N   0  0  0  0  0  2  0  0  0  0  0  0
  187.7490  176.9230  144.8170 C   0  0  0  0  0  3  0  0  0  0  0  0
  189.7390  176.7160  146.1770 C   0  0  0  0  0  0  0  0  0  0  0  0
  190.4210  177.0390  147.4850 C   0  0  0  0  0  3  0  0  0  0  0  0
  186.7040  178.5840  141.5850 O   0  0  0  0  0  0  0  0  0  0  0  0
  185.8300  177.7530  141.9470 C   0  0  0  0  0  0  0  0  0  0  0  0
  186.2240  176.4520  142.4130 N   0  0  0  0  0  2  0  0  0  0  0  0
  181.6490  178.7160  141.6470 C   0  0  0  0  0  0  0  0  0  0  0  0
  183.7300  177.9960  140.6600 C   0  0  0  0  0  3  0  0  0  0  0  0
  184.3170  178.6960  144.6400 Cl  0  0  0  0  0  0  0  0  0  0  0  0
  179.9490  179.1010  141.4920 Cl  0  0  0  0  0  0  0  0  0  0  0  0
  182.3750  178.3020  140.5330 C   0  0  0  0  0  3  0  0  0  0  0  0
  183.6370  178.5210  143.0270 C   0  0  0  0  0  0  0  0  0  0  0  0
  184.3860  178.0980  141.8980 C   0  0  0  0  0  0  0  0  0  0  0  0
  182.2780  178.8250  142.8870 C   0  0  0  0  0  3  0  0  0  0  0  0
  192.6610  173.1440  141.0600 C   0  0  0  0  0  2  0  0  0  0  0  0
  193.1300  173.8410  139.7990 C   0  0  0  0  0  1  0  0  0  0  0  0
  1  2  1  0  0  0  0
  2  6  1  1  0  0  0
  2 17  1  0  0  0  0
  3  9  1  0  0  0  0
  3 13  1  0  0  0  0
  4  1  2  0  0  0  0
  5 12  2  0  0  0  0
  6  3  2  0  0  0  0
  7 11  1  0  0  0  0
  8 17  2  0  0  0  0
 10 14  1  0  0  0  0
 10  7  2  0  0  0  0
 11  1  1  0  0  0  0
 11 16  2  0  0  0  0
 12  4  1  0  0  0  0
 14  4  1  0  0  0  0
 15  5  1  0  0  0  0
 15 14  1  0  0  0  0
 16  8  1  0  0  0  0
 17 18  1  0  0  0  0
 18 13  2  0  0  0  0
 19 20  2  0  0  0  0
 20 21  1  0  0  0  0
 21  7  1  0  0  0  0
 22 29  1  0  0  0  0
 23 28  2  0  0  0  0
 25 22  1  0  0  0  0
 26 23  1  0  0  0  0
 26 22  2  0  0  0  0
 27 24  1  0  0  0  0
 28 20  1  0  0  0  0
 28 27  1  0  0  0  0
 29 27  2  0  0  0  0
 30  5  1  0  0  0  0
 31 30  1  0  0  0  0
M  END
>  <MODEL>
7

>  <REMARK>
 VINA RESULT:      -7.7      4.324      8.373
  Name = 
  3 active torsions:
  status: ('A' for Active; 'I' for Inactive)
    1  A    between atoms: C_2  and  C_13
    2  A    between atoms: C_9  and  C_22
    3  A    between atoms: C_15  and  N_23
                            x       y       z     vdW  Elec       q    Type
                         _______ _______ _______ _____ _____    ______ ____

>  <TORSDO>
F 3

$$$$
=
 OpenBabel11052417523D

 31 35  0  0  0  0  0  0  0  0999 V2000
  188.3730  176.1800  143.8710 C   0  0  0  0  0  0  0  0  0  0  0  0
  187.3510  177.1390  144.1340 C   0  0  0  0  0  0  0  0  0  0  0  0
  186.1440  178.6690  145.6470 C   0  0  0  0  0  0  0  0  0  0  0  0
  189.2500  175.7360  144.7980 C   0  0  0  0  0  0  0  0  0  0  0  0
  190.3600  175.4010  146.6140 C   0  0  0  0  0  0  0  0  0  0  0  0
  187.1900  177.6780  145.3530 C   0  0  0  0  0  3  0  0  0  0  0  0
  189.5590  174.6270  142.2240 C   0  0  0  0  0  0  0  0  0  0  0  0
  186.6290  176.9880  141.8100 C   0  0  0  0  0  3  0  0  0  0  0  0
  186.0340  179.1760  146.8980 F   0  0  0  0  0  0  0  0  0  0  0  0
  190.4020  174.2280  143.1870 C   0  0  0  0  0  3  0  0  0  0  0  0
  188.4990  175.6370  142.5540 C   0  0  0  0  0  0  0  0  0  0  0  0
  189.3600  176.1090  146.1690 N   0  0  0  0  0  0  0  0  0  0  0  0
  185.3050  179.0710  144.6950 C   0  0  0  0  0  3  0  0  0  0  0  0
  190.2370  174.7910  144.4830 N   0  0  0  0  0  0  0  0  0  0  0  0
  190.9800  174.5520  145.6340 N   0  0  0  0  0  2  0  0  0  0  0  0
  187.6240  176.0520  141.5480 C   0  0  0  0  0  3  0  0  0  0  0  0
  186.4840  177.5330  143.0850 C   0  0  0  0  0  0  0  0  0  0  0  0
  185.3810  178.5420  143.2900 C   0  0  0  0  0  2  0  0  0  0  0  0
  188.0500  172.4150  141.0080 O   0  0  0  0  0  0  0  0  0  0  0  0
  188.9030  173.0260  140.3130 C   0  0  0  0  0  0  0  0  0  0  0  0
  189.6530  174.1110  140.8850 N   0  0  0  0  0  2  0  0  0  0  0  0
  189.6890  171.7830  136.2710 C   0  0  0  0  0  0  0  0  0  0  0  0
  189.8540  171.4530  138.6570 C   0  0  0  0  0  3  0  0  0  0  0  0
  187.8160  174.9160  137.9310 Cl  0  0  0  0  0  0  0  0  0  0  0  0
  190.0250  171.2500  134.6390 Cl  0  0  0  0  0  0  0  0  0  0  0  0
  190.1230  171.0250  137.3570 C   0  0  0  0  0  3  0  0  0  0  0  0
  188.7090  173.4080  137.7870 C   0  0  0  0  0  0  0  0  0  0  0  0
  189.1480  172.6430  138.8990 C   0  0  0  0  0  0  0  0  0  0  0  0
  188.9860  172.9680  136.4870 C   0  0  0  0  0  3  0  0  0  0  0  0
  190.8530  175.5070  148.0130 C   0  0  0  0  0  2  0  0  0  0  0  0
  191.5620  176.8320  148.2090 C   0  0  0  0  0  1  0  0  0  0  0  0
  1  2  1  0  0  0  0
  1  4  2  0  0  0  0
  2  6  2  0  0  0  0
  3  9  1  0  0  0  0
  4 12  1  0  0  0  0
  5 30  1  0  0  0  0
  6  3  1  0  0  0  0
  7 11  1  0  0  0  0
  7 10  2  0  0  0  0
  8 17  2  0  0  0  0
 10 14  1  0  0  0  0
 11  1  1  0  0  0  0
 12  5  2  0  0  0  0
 13  3  2  0  0  0  0
 14  4  1  0  0  0  0
 14 15  1  0  0  0  0
 15  5  1  0  0  0  0
 16  8  1  0  0  0  0
 16 11  2  0  0  0  0
 17 18  1  0  0  0  0
 17  2  1  0  0  0  0
 18 13  1  0  0  0  0
 20 21  1  0  0  0  0
 20 19  2  0  0  0  0
 21  7  1  0  0  0  0
 22 29  2  0  0  0  0
 22 26  1  0  0  0  0
 23 28  1  0  0  0  0
 25 22  1  0  0  0  0
 26 23  2  0  0  0  0
 27 24  1  0  0  0  0
 27 28  2  0  0  0  0
 28 20  1  0  0  0  0
 29 27  1  0  0  0  0
 30 31  1  0  0  0  0
M  END
>  <MODEL>
8

>  <REMARK>
 VINA RESULT:      -7.7      4.727      6.884
  Name = 
  3 active torsions:
  status: ('A' for Active; 'I' for Inactive)
    1  A    between atoms: C_2  and  C_13
    2  A    between atoms: C_9  and  C_22
    3  A    between atoms: C_15  and  N_23
                            x       y       z     vdW  Elec       q    Type
                         _______ _______ _______ _____ _____    ______ ____

>  <TORSDO>
F 3

$$$$
=
 OpenBabel11052417523D

 31 35  0  0  1  0  0  0  0  0999 V2000
  189.2460  176.3870  144.3540 C   0  0  0  0  0  0  0  0  0  0  0  0
  190.1410  176.3980  145.4630 C   0  0  2  0  0  3  0  0  0  0  0  0
  190.8040  177.1610  147.7140 C   0  0  0  0  0  0  0  0  0  0  0  0
  188.0960  177.0960  144.3040 C   0  0  0  0  0  0  0  0  0  0  0  0
  186.4300  178.3850  144.7540 C   0  0  0  0  0  0  0  0  0  0  0  0
  189.8950  177.1340  146.5590 C   0  0  0  0  0  3  0  0  0  0  0  0
  188.6470  175.5360  142.0200 C   0  0  0  0  0  0  0  0  0  0  0  0
  191.6020  174.8440  144.2820 C   0  0  0  0  0  3  0  0  0  0  0  0
  190.4990  177.9240  148.7900 F   0  0  0  0  0  0  0  0  0  0  0  0
  187.5190  176.2600  142.0310 C   0  0  0  0  0  3  0  0  0  0  0  0
  189.5580  175.5860  143.2120 C   0  0  0  0  0  0  0  0  0  0  0  0
  187.5390  177.9580  145.2920 N   0  0  0  0  0  0  0  0  0  0  0  0
  191.9260  176.4430  147.7100 C   0  0  0  0  0  3  0  0  0  0  0  0
  187.2510  177.0450  143.1860 N   0  0  0  0  0  0  0  0  0  0  0  0
  186.1570  177.8650  143.4430 N   0  0  0  0  0  2  0  0  0  0  0  0
  190.7310  174.8290  143.1980 C   0  0  0  0  0  3  0  0  0  0  0  0
  191.3220  175.6160  145.4080 C   0  0  0  0  0  0  0  0  0  0  0  0
  192.3150  175.5800  146.5430 C   0  0  0  0  0  3  0  0  0  0  0  0
  187.7690  172.7940  141.4150 O   0  0  0  0  0  0  0  0  0  0  0  0
  188.5560  173.3730  140.6200 C   0  0  0  0  0  0  0  0  0  0  0  0
  188.9980  174.7130  140.8940 N   0  0  0  0  0  2  0  0  0  0  0  0
  190.0180  171.2780  137.1600 C   0  0  0  0  0  0  0  0  0  0  0  0
  189.8040  171.5220  139.5520 C   0  0  0  0  0  3  0  0  0  0  0  0
  187.8180  174.5830  137.7190 Cl  0  0  0  0  0  0  0  0  0  0  0  0
  190.6280  170.4030  135.7730 Cl  0  0  0  0  0  0  0  0  0  0  0  0
  190.2920  170.8230  138.4490 C   0  0  0  0  0  3  0  0  0  0  0  0
  188.7630  173.1440  138.0770 C   0  0  0  0  0  0  0  0  0  0  0  0
  189.0360  172.6880  139.3930 C   0  0  0  0  0  0  0  0  0  0  0  0
  189.2580  172.4330  136.9770 C   0  0  0  0  0  3  0  0  0  0  0  0
  185.4960  179.2950  145.4700 C   0  0  0  0  0  2  0  0  0  0  0  0
  184.1190  178.6680  145.5400 C   0  0  0  0  0  1  0  0  0  0  0  0
  1  2  1  0  0  0  0
  2  6  1  6  0  0  0
  3  9  1  0  0  0  0
  4  1  2  0  0  0  0
  4 12  1  0  0  0  0
  5 12  2  0  0  0  0
  5 30  1  0  0  0  0
  6  3  2  0  0  0  0
  7 10  2  0  0  0  0
  7 11  1  0  0  0  0
  8 17  2  0  0  0  0
 10 14  1  0  0  0  0
 11  1  1  0  0  0  0
 13  3  1  0  0  0  0
 14 15  1  0  0  0  0
 14  4  1  0  0  0  0
 15  5  1  0  0  0  0
 16 11  2  0  0  0  0
 16  8  1  0  0  0  0
 17  2  1  0  0  0  0
 17 18  1  0  0  0  0
 18 13  2  0  0  0  0
 20 21  1  0  0  0  0
 20 19  2  0  0  0  0
 21  7  1  0  0  0  0
 22 26  1  0  0  0  0
 24 27  1  0  0  0  0
 25 22  1  0  0  0  0
 26 23  2  0  0  0  0
 27 28  2  0  0  0  0
 28 23  1  0  0  0  0
 28 20  1  0  0  0  0
 29 22  2  0  0  0  0
 29 27  1  0  0  0  0
 30 31  1  0  0  0  0
M  END
>  <MODEL>
9

>  <REMARK>
 VINA RESULT:      -7.7      4.690      6.472
  Name = 
  3 active torsions:
  status: ('A' for Active; 'I' for Inactive)
    1  A    between atoms: C_2  and  C_13
    2  A    between atoms: C_9  and  C_22
    3  A    between atoms: C_15  and  N_23
                            x       y       z     vdW  Elec       q    Type
                         _______ _______ _______ _____ _____    ______ ____

>  <TORSDO>
F 3

$$$$
