=
 OpenBabel11052418563D

 34 40  0  0  1  0  0  0  0  0999 V2000
  186.7350  177.7840  146.4860 C   0  0  0  0  0  0  0  0  0  0  0  0
  184.8310  178.5460  145.1670 C   0  0  0  0  0  0  0  0  0  0  0  0
  186.9830  178.1970  144.0260 C   0  0  1  0  0  3  0  0  0  0  0  0
  186.6810  176.9480  141.8110 C   0  0  1  0  0  3  0  0  0  0  0  0
  184.6190  178.2900  147.5650 C   0  0  0  0  0  3  0  0  0  0  0  0
  184.0480  178.6110  146.3220 C   0  0  0  0  0  3  0  0  0  0  0  0
  184.8940  177.9680  142.8680 C   0  0  0  0  0  0  0  0  0  0  0  0
  186.2060  178.2550  145.2900 C   0  0  0  0  0  0  0  0  0  0  0  0
  185.7250  177.5380  140.7450 C   0  0  0  0  0  2  0  0  0  0  0  0
  185.9470  177.8330  147.6420 C   0  0  0  0  0  3  0  0  0  0  0  0
  188.4360  177.7220  144.1310 C   0  0  2  0  0  3  0  0  0  0  0  0
  187.9970  177.0210  146.4420 C   0  0  0  0  0  3  0  0  0  0  0  0
  184.2330  178.5410  143.8450 N   0  0  0  0  0  0  0  0  0  0  0  0
  188.1540  177.3080  141.6360 C   0  0  0  0  0  2  0  0  0  0  0  0
  188.8920  177.0520  142.8910 N   0  0  0  0  0  0  0  0  0  0  0  0
  184.5550  178.0120  141.4920 N   0  0  0  0  0  0  0  0  0  0  0  0
  186.1860  177.4490  143.0760 N   0  0  0  0  0  0  0  0  0  0  0  0
  188.7080  176.9410  145.3500 N   0  0  0  0  0  0  0  0  0  0  0  0
  191.6400  174.5550  142.3040 C   0  0  0  0  0  0  0  0  0  0  0  0
  192.7650  175.3100  142.6430 C   0  0  0  0  0  3  0  0  0  0  0  0
  190.2020  176.4580  142.8000 C   0  0  0  0  0  0  0  0  0  0  0  0
  192.6170  176.6340  143.0630 C   0  0  0  0  0  3  0  0  0  0  0  0
  190.3660  175.1260  142.3840 C   0  0  0  0  0  3  0  0  0  0  0  0
  191.3440  177.2030  143.1420 C   0  0  0  0  0  3  0  0  0  0  0  0
  191.7950  173.1460  141.8590 C   0  0  0  0  0  1  0  0  0  0  0  0
  182.1730  178.2340  141.1760 C   0  0  0  0  0  3  0  0  0  0  0  0
  183.4100  178.6100  140.8780 C   0  0  0  0  0  3  0  0  0  0  0  0
  181.0140  178.8920  140.5170 C   0  0  0  0  0  2  0  0  0  0  0  0
  179.7720  178.0090  140.6300 C   0  0  2  0  0  3  0  0  0  0  0  0
  178.5770  178.6000  139.8750 C   0  0  0  0  0  2  0  0  0  0  0  0
  177.6970  179.2630  142.0540 N   0  0  0  0  0  2  0  0  0  0  0  0
  178.9750  178.8470  142.6260 C   0  0  0  0  0  2  0  0  0  0  0  0
  179.4480  177.6880  141.9730 O   0  0  0  0  0  0  0  0  0  0  0  0
  177.9570  179.7250  140.6960 C   0  0  0  0  0  2  0  0  0  0  0  0
  1 10  1  0  0  0  0
  2  8  1  0  0  0  0
  2  6  2  0  0  0  0
  3 11  1  0  0  0  0
  3  8  1  1  0  0  0
  4  9  1  6  0  0  0
  4 17  1  0  0  0  0
  5 10  2  0  0  0  0
  6  5  1  0  0  0  0
  7 17  1  0  0  0  0
  7 13  2  0  0  0  0
  8  1  2  0  0  0  0
  9 16  1  0  0  0  0
 11 18  1  1  0  0  0
 12  1  1  0  0  0  0
 13  2  1  0  0  0  0
 14  4  1  0  0  0  0
 14 15  1  0  0  0  0
 15 11  1  0  0  0  0
 16  7  1  0  0  0  0
 17  3  1  0  0  0  0
 18 12  2  0  0  0  0
 19 23  2  0  0  0  0
 19 20  1  0  0  0  0
 20 22  2  0  0  0  0
 21 15  1  0  0  0  0
 21 24  2  0  0  0  0
 22 24  1  0  0  0  0
 23 21  1  0  0  0  0
 25 19  1  0  0  0  0
 27 26  2  0  0  0  0
 27 16  1  0  0  0  0
 28 26  1  0  0  0  0
 29 28  1  1  0  0  0
 29 33  1  0  0  0  0
 30 29  1  0  0  0  0
 30 34  1  0  0  0  0
 31 32  1  0  0  0  0
 33 32  1  0  0  0  0
 34 31  1  0  0  0  0
M  END
>  <MODEL>
1

>  <REMARK>
 VINA RESULT:      -9.5      0.000      0.000
  Name = 
  4 active torsions:
  status: ('A' for Active; 'I' for Inactive)
    1  A    between atoms: C_3  and  C_13
    2  A    between atoms: C_11  and  C_13
    3  A    between atoms: C_12  and  N_28
    4  A    between atoms: C_17  and  N_29
                            x       y       z     vdW  Elec       q    Type
                         _______ _______ _______ _____ _____    ______ ____

>  <TORSDO>
F 4

$$$$
=
 OpenBabel11052418563D

 34 40  0  0  1  0  0  0  0  0999 V2000
  191.0250  173.1150  141.5050 C   0  0  0  0  0  0  0  0  0  0  0  0
  189.2980  174.5710  142.4260 C   0  0  0  0  0  0  0  0  0  0  0  0
  191.0420  173.7190  143.9380 C   0  0  1  0  0  3  0  0  0  0  0  0
  191.9410  175.5650  145.4700 C   0  0  1  0  0  3  0  0  0  0  0  0
  189.1890  173.8760  140.1090 C   0  0  0  0  0  3  0  0  0  0  0  0
  188.6590  174.6100  141.1840 C   0  0  0  0  0  3  0  0  0  0  0  0
  189.9330  175.8070  144.3460 C   0  0  0  0  0  0  0  0  0  0  0  0
  190.4050  173.7130  142.5970 C   0  0  0  0  0  0  0  0  0  0  0  0
  190.9450  176.3430  146.3650 C   0  0  0  0  0  2  0  0  0  0  0  0
  190.3940  173.1670  140.2560 C   0  0  0  0  0  3  0  0  0  0  0  0
  192.3410  172.9200  144.0880 C   0  0  2  0  0  3  0  0  0  0  0  0
  192.4260  172.6780  141.6470 C   0  0  0  0  0  3  0  0  0  0  0  0
  189.0030  175.5440  143.4610 N   0  0  0  0  0  0  0  0  0  0  0  0
  192.6410  174.3880  146.1450 C   0  0  0  0  0  2  0  0  0  0  0  0
  193.2280  173.4940  145.1260 N   0  0  0  0  0  0  0  0  0  0  0  0
  189.7740  176.5900  145.5170 N   0  0  0  0  0  0  0  0  0  0  0  0
  191.1530  175.1040  144.3460 N   0  0  0  0  0  0  0  0  0  0  0  0
  193.0240  172.6720  142.8080 N   0  0  0  0  0  0  0  0  0  0  0  0
  195.9880  171.0470  145.8560 C   0  0  0  0  0  0  0  0  0  0  0  0
  197.0970  171.8940  145.8830 C   0  0  0  0  0  3  0  0  0  0  0  0
  194.5380  172.9450  145.3780 C   0  0  0  0  0  0  0  0  0  0  0  0
  196.9360  173.2640  145.6630 C   0  0  0  0  0  3  0  0  0  0  0  0
  194.7150  171.5690  145.6060 C   0  0  0  0  0  3  0  0  0  0  0  0
  195.6640  173.7850  145.4140 C   0  0  0  0  0  3  0  0  0  0  0  0
  196.1580  169.5890  146.0910 C   0  0  0  0  0  1  0  0  0  0  0  0
  187.6210  176.7220  146.6010 C   0  0  0  0  0  3  0  0  0  0  0  0
  188.6170  177.3120  145.9530 C   0  0  0  0  0  3  0  0  0  0  0  0
  186.4430  177.5160  147.0410 C   0  0  0  0  0  2  0  0  0  0  0  0
  185.1730  176.9890  146.3740 C   0  0  2  0  0  3  0  0  0  0  0  0
  185.3840  176.7020  144.8840 C   0  0  0  0  0  2  0  0  0  0  0  0
  184.1600  178.7700  144.4500 N   0  0  0  0  0  2  0  0  0  0  0  0
  184.2090  179.0260  145.8870 C   0  0  0  0  0  2  0  0  0  0  0  0
  184.0480  177.8210  146.6030 O   0  0  0  0  0  0  0  0  0  0  0  0
  185.3550  178.0110  144.1010 C   0  0  0  0  0  2  0  0  0  0  0  0
  1 12  1  0  0  0  0
  1  8  1  0  0  0  0
  2  8  2  0  0  0  0
  2 13  1  0  0  0  0
  3  8  1  6  0  0  0
  3 11  1  0  0  0  0
  3 17  1  0  0  0  0
  4 14  1  1  0  0  0
  4  9  1  0  0  0  0
  5 10  1  0  0  0  0
  5  6  2  0  0  0  0
  6  2  1  0  0  0  0
  7 17  1  0  0  0  0
  7 16  1  0  0  0  0
 10  1  2  0  0  0  0
 11 18  1  6  0  0  0
 11 15  1  0  0  0  0
 12 18  2  0  0  0  0
 13  7  2  0  0  0  0
 15 21  1  0  0  0  0
 15 14  1  0  0  0  0
 16 27  1  0  0  0  0
 16  9  1  0  0  0  0
 17  4  1  0  0  0  0
 19 20  1  0  0  0  0
 19 25  1  0  0  0  0
 21 24  2  0  0  0  0
 21 23  1  0  0  0  0
 22 20  2  0  0  0  0
 23 19  2  0  0  0  0
 24 22  1  0  0  0  0
 26 28  1  0  0  0  0
 27 26  2  0  0  0  0
 29 33  1  0  0  0  0
 29 28  1  6  0  0  0
 30 29  1  0  0  0  0
 31 32  1  0  0  0  0
 32 33  1  0  0  0  0
 34 31  1  0  0  0  0
 34 30  1  0  0  0  0
M  END
>  <MODEL>
2

>  <REMARK>
 VINA RESULT:      -8.2      3.682      7.136
  Name = 
  4 active torsions:
  status: ('A' for Active; 'I' for Inactive)
    1  A    between atoms: C_3  and  C_13
    2  A    between atoms: C_11  and  C_13
    3  A    between atoms: C_12  and  N_28
    4  A    between atoms: C_17  and  N_29
                            x       y       z     vdW  Elec       q    Type
                         _______ _______ _______ _____ _____    ______ ____

>  <TORSDO>
F 4

$$$$
=
 OpenBabel11052418563D

 34 40  0  0  1  0  0  0  0  0999 V2000
  191.6620  175.8120  146.2280 C   0  0  0  0  0  0  0  0  0  0  0  0
  192.3270  174.3860  144.3650 C   0  0  0  0  0  0  0  0  0  0  0  0
  189.9490  174.9680  144.6030 C   0  0  1  0  0  3  0  0  0  0  0  0
  188.9140  175.6330  142.3570 C   0  0  1  0  0  3  0  0  0  0  0  0
  193.9650  175.0760  146.0090 C   0  0  0  0  0  3  0  0  0  0  0  0
  193.6460  174.3850  144.8280 C   0  0  0  0  0  3  0  0  0  0  0  0
  190.9150  174.4770  142.4630 C   0  0  0  0  0  0  0  0  0  0  0  0
  191.3290  174.9980  145.1510 C   0  0  0  0  0  0  0  0  0  0  0  0
  188.9920  174.6360  141.1740 C   0  0  0  0  0  2  0  0  0  0  0  0
  192.9850  175.8260  146.6830 C   0  0  0  0  0  3  0  0  0  0  0  0
  188.8870  175.7690  145.3650 C   0  0  2  0  0  3  0  0  0  0  0  0
  190.6780  176.8140  146.6790 C   0  0  0  0  0  3  0  0  0  0  0  0
  192.0000  173.9840  143.0100 N   0  0  0  0  0  0  0  0  0  0  0  0
  187.6200  175.5870  143.1650 C   0  0  0  0  0  2  0  0  0  0  0  0
  187.8110  176.2540  144.4690 N   0  0  0  0  0  0  0  0  0  0  0  0
  190.3460  174.0760  141.2280 N   0  0  0  0  0  0  0  0  0  0  0  0
  190.0460  175.3050  143.1980 N   0  0  0  0  0  0  0  0  0  0  0  0
  189.4560  176.8250  146.2190 N   0  0  0  0  0  0  0  0  0  0  0  0
  185.4810  179.1740  144.8890 C   0  0  0  0  0  0  0  0  0  0  0  0
  184.6870  178.7340  145.9500 C   0  0  0  0  0  3  0  0  0  0  0  0
  186.7500  177.0970  144.9630 C   0  0  0  0  0  0  0  0  0  0  0  0
  184.9200  177.4810  146.5230 C   0  0  0  0  0  3  0  0  0  0  0  0
  186.5080  178.3610  144.4000 C   0  0  0  0  0  3  0  0  0  0  0  0
  185.9460  176.6690  146.0340 C   0  0  0  0  0  3  0  0  0  0  0  0
  185.2350  180.5070  144.2790 C   0  0  0  0  0  1  0  0  0  0  0  0
  190.4260  171.8640  140.2660 C   0  0  0  0  0  3  0  0  0  0  0  0
  190.8480  173.1220  140.2870 C   0  0  0  0  0  3  0  0  0  0  0  0
  190.9720  170.9100  139.2640 C   0  0  0  0  0  2  0  0  0  0  0  0
  189.8700  170.4710  138.3000 C   0  0  2  0  0  3  0  0  0  0  0  0
  190.1670  169.1050  137.6740 C   0  0  0  0  0  2  0  0  0  0  0  0
  190.7760  170.3160  135.6430 N   0  0  0  0  0  2  0  0  0  0  0  0
  190.6560  171.5480  136.4180 C   0  0  0  0  0  2  0  0  0  0  0  0
  189.5750  171.4530  137.3210 O   0  0  0  0  0  0  0  0  0  0  0  0
  191.1970  169.2630  136.5600 C   0  0  0  0  0  2  0  0  0  0  0  0
  1 12  1  0  0  0  0
  1 10  1  0  0  0  0
  2  6  2  0  0  0  0
  2  8  1  0  0  0  0
  3  8  1  1  0  0  0
  3 11  1  0  0  0  0
  4  9  1  6  0  0  0
  4 14  1  0  0  0  0
  4 17  1  0  0  0  0
  5 10  2  0  0  0  0
  6  5  1  0  0  0  0
  7 13  2  0  0  0  0
  7 17  1  0  0  0  0
  8  1  2  0  0  0  0
  9 16  1  0  0  0  0
 11 18  1  6  0  0  0
 13  2  1  0  0  0  0
 14 15  1  0  0  0  0
 15 21  1  0  0  0  0
 15 11  1  0  0  0  0
 16  7  1  0  0  0  0
 17  3  1  0  0  0  0
 18 12  2  0  0  0  0
 19 20  1  0  0  0  0
 20 22  2  0  0  0  0
 21 24  2  0  0  0  0
 23 19  2  0  0  0  0
 23 21  1  0  0  0  0
 24 22  1  0  0  0  0
 25 19  1  0  0  0  0
 26 27  2  0  0  0  0
 27 16  1  0  0  0  0
 28 26  1  0  0  0  0
 29 28  1  6  0  0  0
 30 29  1  0  0  0  0
 31 32  1  0  0  0  0
 31 34  1  0  0  0  0
 32 33  1  0  0  0  0
 33 29  1  0  0  0  0
 34 30  1  0  0  0  0
M  END
>  <MODEL>
3

>  <REMARK>
 VINA RESULT:      -8.2      4.556      9.118
  Name = 
  4 active torsions:
  status: ('A' for Active; 'I' for Inactive)
    1  A    between atoms: C_3  and  C_13
    2  A    between atoms: C_11  and  C_13
    3  A    between atoms: C_12  and  N_28
    4  A    between atoms: C_17  and  N_29
                            x       y       z     vdW  Elec       q    Type
                         _______ _______ _______ _____ _____    ______ ____

>  <TORSDO>
F 4

$$$$
=
 OpenBabel11052418563D

 34 40  0  0  1  0  0  0  0  0999 V2000
  188.8160  174.4420  141.2820 C   0  0  0  0  0  0  0  0  0  0  0  0
  191.0400  173.8650  142.1000 C   0  0  0  0  0  0  0  0  0  0  0  0
  189.7560  175.5820  143.3080 C   0  0  1  0  0  3  0  0  0  0  0  0
  189.8800  175.2390  145.8430 C   0  0  1  0  0  3  0  0  0  0  0  0
  190.2010  172.8640  140.0610 C   0  0  0  0  0  3  0  0  0  0  0  0
  191.2160  172.9900  141.0250 C   0  0  0  0  0  3  0  0  0  0  0  0
  191.3930  174.2230  144.4170 C   0  0  0  0  0  0  0  0  0  0  0  0
  189.8870  174.6770  142.1380 C   0  0  0  0  0  0  0  0  0  0  0  0
  191.2710  175.1910  146.5230 C   0  0  0  0  0  2  0  0  0  0  0  0
  188.9850  173.5540  140.2140 C   0  0  0  0  0  3  0  0  0  0  0  0
  188.4350  176.3460  143.4440 C   0  0  2  0  0  3  0  0  0  0  0  0
  187.4830  174.9320  141.6780 C   0  0  0  0  0  3  0  0  0  0  0  0
  191.8840  173.7960  143.2790 N   0  0  0  0  0  0  0  0  0  0  0  0
  189.1930  176.6020  145.8600 C   0  0  0  0  0  2  0  0  0  0  0  0
  188.1060  176.6360  144.8590 N   0  0  0  0  0  0  0  0  0  0  0  0
  192.1140  174.3920  145.6260 N   0  0  0  0  0  0  0  0  0  0  0  0
  190.1150  174.8110  144.4790 N   0  0  0  0  0  0  0  0  0  0  0  0
  187.3240  175.7260  142.7030 N   0  0  0  0  0  0  0  0  0  0  0  0
  185.2490  179.0770  144.9510 C   0  0  0  0  0  0  0  0  0  0  0  0
  184.4560  178.5250  145.9580 C   0  0  0  0  0  3  0  0  0  0  0  0
  186.8670  177.2770  145.2230 C   0  0  0  0  0  0  0  0  0  0  0  0
  184.8620  177.3540  146.6030 C   0  0  0  0  0  3  0  0  0  0  0  0
  186.4490  178.4580  144.5870 C   0  0  0  0  0  3  0  0  0  0  0  0
  186.0600  176.7360  146.2390 C   0  0  0  0  0  3  0  0  0  0  0  0
  184.8190  180.3230  144.2640 C   0  0  0  0  0  1  0  0  0  0  0  0
  194.4720  174.8990  145.5660 C   0  0  0  0  0  3  0  0  0  0  0  0
  193.4830  174.0780  145.8950 C   0  0  0  0  0  3  0  0  0  0  0  0
  195.8810  174.5320  145.8740 C   0  0  0  0  0  2  0  0  0  0  0  0
  196.7440  174.6570  144.6190 C   0  0  2  0  0  3  0  0  0  0  0  0
  195.9530  174.3470  143.3450 C   0  0  0  0  0  2  0  0  0  0  0  0
  197.0980  172.1910  143.3170 N   0  0  0  0  0  2  0  0  0  0  0  0
  197.6270  172.5270  144.6370 C   0  0  0  0  0  2  0  0  0  0  0  0
  197.9410  173.9010  144.7010 O   0  0  0  0  0  0  0  0  0  0  0  0
  195.7970  172.8380  143.1920 C   0  0  0  0  0  2  0  0  0  0  0  0
  1 12  1  0  0  0  0
  1  8  1  0  0  0  0
  2  8  2  0  0  0  0
  2 13  1  0  0  0  0
  3  8  1  6  0  0  0
  3 11  1  0  0  0  0
  3 17  1  0  0  0  0
  4 14  1  6  0  0  0
  4  9  1  0  0  0  0
  5 10  1  0  0  0  0
  5  6  2  0  0  0  0
  6  2  1  0  0  0  0
  7 17  1  0  0  0  0
  7 16  1  0  0  0  0
 10  1  2  0  0  0  0
 11 18  1  1  0  0  0
 11 15  1  0  0  0  0
 12 18  2  0  0  0  0
 13  7  2  0  0  0  0
 15 21  1  0  0  0  0
 15 14  1  0  0  0  0
 16 27  1  0  0  0  0
 16  9  1  0  0  0  0
 17  4  1  0  0  0  0
 19 20  1  0  0  0  0
 20 22  2  0  0  0  0
 21 24  2  0  0  0  0
 23 19  2  0  0  0  0
 23 21  1  0  0  0  0
 24 22  1  0  0  0  0
 25 19  1  0  0  0  0
 26 28  1  0  0  0  0
 26 27  2  0  0  0  0
 29 33  1  0  0  0  0
 29 28  1  1  0  0  0
 30 29  1  0  0  0  0
 31 32  1  0  0  0  0
 32 33  1  0  0  0  0
 34 31  1  0  0  0  0
 34 30  1  0  0  0  0
M  END
>  <MODEL>
4

>  <REMARK>
 VINA RESULT:      -8.0      4.986     11.000
  Name = 
  4 active torsions:
  status: ('A' for Active; 'I' for Inactive)
    1  A    between atoms: C_3  and  C_13
    2  A    between atoms: C_11  and  C_13
    3  A    between atoms: C_12  and  N_28
    4  A    between atoms: C_17  and  N_29
                            x       y       z     vdW  Elec       q    Type
                         _______ _______ _______ _____ _____    ______ ____

>  <TORSDO>
F 4

$$$$
=
 OpenBabel11052418563D

 34 40  0  0  1  0  0  0  0  0999 V2000
  188.6720  174.2010  141.3630 C   0  0  0  0  0  0  0  0  0  0  0  0
  190.8930  173.3390  141.8860 C   0  0  0  0  0  0  0  0  0  0  0  0
  190.0310  175.2300  143.2020 C   0  0  1  0  0  3  0  0  0  0  0  0
  190.4640  174.9080  145.7060 C   0  0  1  0  0  3  0  0  0  0  0  0
  189.6500  172.4340  140.0150 C   0  0  0  0  0  3  0  0  0  0  0  0
  190.7980  172.4340  140.8250 C   0  0  0  0  0  3  0  0  0  0  0  0
  191.6130  173.6770  144.1190 C   0  0  0  0  0  0  0  0  0  0  0  0
  189.8750  174.3000  142.0560 C   0  0  0  0  0  0  0  0  0  0  0  0
  191.9180  174.6810  146.1890 C   0  0  0  0  0  2  0  0  0  0  0  0
  188.5700  173.2840  140.3110 C   0  0  0  0  0  3  0  0  0  0  0  0
  188.8550  176.1680  143.4940 C   0  0  2  0  0  3  0  0  0  0  0  0
  187.4850  174.8730  141.9230 C   0  0  0  0  0  3  0  0  0  0  0  0
  191.8780  173.1720  142.9380 N   0  0  0  0  0  0  0  0  0  0  0  0
  189.9730  176.3520  145.7730 C   0  0  0  0  0  2  0  0  0  0  0  0
  188.7710  176.5200  144.9310 N   0  0  0  0  0  0  0  0  0  0  0  0
  192.5120  173.7630  145.2110 N   0  0  0  0  0  0  0  0  0  0  0  0
  190.4460  174.4330  144.3370 N   0  0  0  0  0  0  0  0  0  0  0  0
  187.5780  175.6950  142.9330 N   0  0  0  0  0  0  0  0  0  0  0  0
  185.9420  178.9900  145.1050 C   0  0  0  0  0  0  0  0  0  0  0  0
  185.6000  178.9120  146.4560 C   0  0  0  0  0  3  0  0  0  0  0  0
  187.6910  177.3290  145.4410 C   0  0  0  0  0  0  0  0  0  0  0  0
  186.2990  178.0500  147.3050 C   0  0  0  0  0  3  0  0  0  0  0  0
  186.9820  178.2040  144.6010 C   0  0  0  0  0  3  0  0  0  0  0  0
  187.3390  177.2650  146.8000 C   0  0  0  0  0  3  0  0  0  0  0  0
  185.1990  179.9070  144.2020 C   0  0  0  0  0  1  0  0  0  0  0  0
  194.1190  171.9990  145.5720 C   0  0  0  0  0  3  0  0  0  0  0  0
  193.8530  173.2690  145.2990 C   0  0  0  0  0  3  0  0  0  0  0  0
  195.5290  171.5310  145.6440 C   0  0  0  0  0  2  0  0  0  0  0  0
  195.6290  170.0810  145.1740 C   0  0  2  0  0  3  0  0  0  0  0  0
  194.5020  169.2140  145.7450 C   0  0  0  0  0  2  0  0  0  0  0  0
  196.1620  168.3070  147.2890 N   0  0  0  0  0  2  0  0  0  0  0  0
  197.0840  169.3270  146.7960 C   0  0  0  0  0  2  0  0  0  0  0  0
  196.9080  169.5150  145.4090 O   0  0  0  0  0  0  0  0  0  0  0  0
  194.8140  168.8560  147.1940 C   0  0  0  0  0  2  0  0  0  0  0  0
  1 12  1  0  0  0  0
  1  8  1  0  0  0  0
  2  8  2  0  0  0  0
  2 13  1  0  0  0  0
  3  8  1  6  0  0  0
  3 11  1  0  0  0  0
  3 17  1  0  0  0  0
  4 14  1  6  0  0  0
  4  9  1  0  0  0  0
  5 10  1  0  0  0  0
  5  6  2  0  0  0  0
  6  2  1  0  0  0  0
  7 17  1  0  0  0  0
  7 16  1  0  0  0  0
 10  1  2  0  0  0  0
 11 18  1  1  0  0  0
 11 15  1  0  0  0  0
 12 18  2  0  0  0  0
 13  7  2  0  0  0  0
 15 21  1  0  0  0  0
 15 14  1  0  0  0  0
 16 27  1  0  0  0  0
 16  9  1  0  0  0  0
 17  4  1  0  0  0  0
 19 20  1  0  0  0  0
 20 22  2  0  0  0  0
 21 24  2  0  0  0  0
 23 19  2  0  0  0  0
 23 21  1  0  0  0  0
 24 22  1  0  0  0  0
 25 19  1  0  0  0  0
 26 28  1  0  0  0  0
 27 26  2  0  0  0  0
 29 33  1  0  0  0  0
 29 28  1  1  0  0  0
 29 30  1  0  0  0  0
 30 34  1  0  0  0  0
 32 31  1  0  0  0  0
 33 32  1  0  0  0  0
 34 31  1  0  0  0  0
M  END
>  <MODEL>
5

>  <REMARK>
 VINA RESULT:      -8.0      5.197     11.392
  Name = 
  4 active torsions:
  status: ('A' for Active; 'I' for Inactive)
    1  A    between atoms: C_3  and  C_13
    2  A    between atoms: C_11  and  C_13
    3  A    between atoms: C_12  and  N_28
    4  A    between atoms: C_17  and  N_29
                            x       y       z     vdW  Elec       q    Type
                         _______ _______ _______ _____ _____    ______ ____

>  <TORSDO>
F 4

$$$$
=
 OpenBabel11052418563D

 34 40  0  0  1  0  0  0  0  0999 V2000
  192.0660  172.1340  140.2260 C   0  0  0  0  0  0  0  0  0  0  0  0
  189.9710  173.3420  140.5390 C   0  0  0  0  0  0  0  0  0  0  0  0
  191.3340  172.8280  142.5210 C   0  0  1  0  0  3  0  0  0  0  0  0
  191.5160  174.8480  144.0860 C   0  0  1  0  0  3  0  0  0  0  0  0
  190.5960  172.5500  138.3380 C   0  0  0  0  0  3  0  0  0  0  0  0
  189.6970  173.2350  139.1720 C   0  0  0  0  0  3  0  0  0  0  0  0
  189.8790  174.7350  142.4550 C   0  0  0  0  0  0  0  0  0  0  0  0
  191.0950  172.6720  141.0640 C   0  0  0  0  0  0  0  0  0  0  0  0
  190.2160  175.4980  144.6200 C   0  0  0  0  0  2  0  0  0  0  0  0
  191.8010  172.0400  138.8550 C   0  0  0  0  0  3  0  0  0  0  0  0
  192.6390  172.2440  143.0730 C   0  0  2  0  0  3  0  0  0  0  0  0
  193.4210  171.9230  140.7690 C   0  0  0  0  0  3  0  0  0  0  0  0
  189.2720  174.2980  141.3780 N   0  0  0  0  0  0  0  0  0  0  0  0
  192.1600  173.8190  145.0130 C   0  0  0  0  0  2  0  0  0  0  0  0
  193.1210  172.9870  144.2600 N   0  0  0  0  0  0  0  0  0  0  0  0
  189.2990  175.5300  143.4760 N   0  0  0  0  0  0  0  0  0  0  0  0
  191.1370  174.2290  142.8330 N   0  0  0  0  0  0  0  0  0  0  0  0
  193.6740  172.0550  142.0430 N   0  0  0  0  0  0  0  0  0  0  0  0
  195.8420  171.0460  145.9800 C   0  0  0  0  0  0  0  0  0  0  0  0
  196.8170  172.0320  146.1380 C   0  0  0  0  0  3  0  0  0  0  0  0
  194.3740  172.6560  144.8920 C   0  0  0  0  0  0  0  0  0  0  0  0
  196.5770  173.3300  145.6800 C   0  0  0  0  0  3  0  0  0  0  0  0
  194.6270  171.3560  145.3620 C   0  0  0  0  0  3  0  0  0  0  0  0
  195.3630  173.6400  145.0630 C   0  0  0  0  0  3  0  0  0  0  0  0
  196.0940  169.6650  146.4670 C   0  0  0  0  0  1  0  0  0  0  0  0
  187.7460  177.3700  143.3180 C   0  0  0  0  0  3  0  0  0  0  0  0
  187.9800  176.0810  143.5310 C   0  0  0  0  0  3  0  0  0  0  0  0
  186.3550  177.8950  143.3780 C   0  0  0  0  0  2  0  0  0  0  0  0
  186.2360  178.9460  144.4800 C   0  0  2  0  0  3  0  0  0  0  0  0
  186.2830  178.3190  145.8770 C   0  0  0  0  0  2  0  0  0  0  0  0
  183.8680  178.6660  145.9690 N   0  0  0  0  0  2  0  0  0  0  0  0
  183.9340  179.0510  144.5620 C   0  0  0  0  0  2  0  0  0  0  0  0
  185.1090  179.7910  144.3120 O   0  0  0  0  0  0  0  0  0  0  0  0
  184.9310  177.6960  146.2060 C   0  0  0  0  0  2  0  0  0  0  0  0
  1 12  1  0  0  0  0
  1  8  1  0  0  0  0
  2  8  2  0  0  0  0
  2 13  1  0  0  0  0
  3  8  1  6  0  0  0
  3 17  1  0  0  0  0
  3 11  1  0  0  0  0
  4  9  1  1  0  0  0
  4 14  1  0  0  0  0
  5 10  1  0  0  0  0
  5  6  2  0  0  0  0
  6  2  1  0  0  0  0
  7 17  1  0  0  0  0
  7 16  1  0  0  0  0
 10  1  2  0  0  0  0
 11 18  1  6  0  0  0
 11 15  1  0  0  0  0
 12 18  2  0  0  0  0
 13  7  2  0  0  0  0
 15 21  1  0  0  0  0
 15 14  1  0  0  0  0
 16 27  1  0  0  0  0
 16  9  1  0  0  0  0
 17  4  1  0  0  0  0
 19 20  1  0  0  0  0
 19 25  1  0  0  0  0
 21 24  2  0  0  0  0
 21 23  1  0  0  0  0
 22 20  2  0  0  0  0
 23 19  2  0  0  0  0
 24 22  1  0  0  0  0
 26 28  1  0  0  0  0
 26 27  2  0  0  0  0
 29 28  1  6  0  0  0
 29 30  1  0  0  0  0
 30 34  1  0  0  0  0
 31 34  1  0  0  0  0
 32 31  1  0  0  0  0
 33 29  1  0  0  0  0
 33 32  1  0  0  0  0
M  END
>  <MODEL>
6

>  <REMARK>
 VINA RESULT:      -7.4      3.634      7.576
  Name = 
  4 active torsions:
  status: ('A' for Active; 'I' for Inactive)
    1  A    between atoms: C_3  and  C_13
    2  A    between atoms: C_11  and  C_13
    3  A    between atoms: C_12  and  N_28
    4  A    between atoms: C_17  and  N_29
                            x       y       z     vdW  Elec       q    Type
                         _______ _______ _______ _____ _____    ______ ____

>  <TORSDO>
F 4

$$$$
=
 OpenBabel11052418563D

 34 40  0  0  1  0  0  0  0  0999 V2000
  194.2560  174.0640  141.7980 C   0  0  0  0  0  0  0  0  0  0  0  0
  193.0580  175.5830  143.2830 C   0  0  0  0  0  0  0  0  0  0  0  0
  191.8150  174.5150  141.4480 C   0  0  1  0  0  3  0  0  0  0  0  0
  189.5470  173.6270  142.2410 C   0  0  1  0  0  3  0  0  0  0  0  0
  195.4450  175.2680  143.5410 C   0  0  0  0  0  3  0  0  0  0  0  0
  194.2450  175.8660  143.9640 C   0  0  0  0  0  3  0  0  0  0  0  0
  190.7300  175.1800  143.4820 C   0  0  0  0  0  0  0  0  0  0  0  0
  193.1100  174.7820  142.1240 C   0  0  0  0  0  0  0  0  0  0  0  0
  188.5550  174.6080  142.9120 C   0  0  0  0  0  2  0  0  0  0  0  0
  195.4430  174.3340  142.4890 C   0  0  0  0  0  3  0  0  0  0  0  0
  191.8360  173.5150  140.2870 C   0  0  2  0  0  3  0  0  0  0  0  0
  194.1190  172.8820  140.9270 C   0  0  0  0  0  3  0  0  0  0  0  0
  191.7620  175.8960  143.8580 N   0  0  0  0  0  0  0  0  0  0  0  0
  189.3350  173.4070  140.7440 C   0  0  0  0  0  2  0  0  0  0  0  0
  190.5430  172.8070  140.1430 N   0  0  0  0  0  0  0  0  0  0  0  0
  189.3730  175.4420  143.7990 N   0  0  0  0  0  0  0  0  0  0  0  0
  190.8570  174.1940  142.4850 N   0  0  0  0  0  0  0  0  0  0  0  0
  192.9970  172.6100  140.3180 N   0  0  0  0  0  0  0  0  0  0  0  0
  189.8810  171.0520  136.8840 C   0  0  0  0  0  0  0  0  0  0  0  0
  190.0100  169.7160  137.2680 C   0  0  0  0  0  3  0  0  0  0  0  0
  190.3670  171.7640  139.1630 C   0  0  0  0  0  0  0  0  0  0  0  0
  190.3130  169.3960  138.5930 C   0  0  0  0  0  3  0  0  0  0  0  0
  190.0570  172.0700  137.8270 C   0  0  0  0  0  3  0  0  0  0  0  0
  190.4880  170.4130  139.5340 C   0  0  0  0  0  3  0  0  0  0  0  0
  189.5580  171.3940  135.4750 C   0  0  0  0  0  1  0  0  0  0  0  0
  188.3700  176.2210  145.8510 C   0  0  0  0  0  3  0  0  0  0  0  0
  188.8390  176.4720  144.6360 C   0  0  0  0  0  3  0  0  0  0  0  0
  187.8320  177.3270  146.6870 C   0  0  0  0  0  2  0  0  0  0  0  0
  186.4400  176.9690  147.2030 C   0  0  2  0  0  3  0  0  0  0  0  0
  185.4700  176.6470  146.0620 C   0  0  0  0  0  2  0  0  0  0  0  0
  184.5000  178.8560  146.4400 N   0  0  0  0  0  2  0  0  0  0  0  0
  185.6050  179.1130  147.3600 C   0  0  0  0  0  2  0  0  0  0  0  0
  185.9150  177.9450  148.0890 O   0  0  0  0  0  0  0  0  0  0  0  0
  184.9910  177.9420  145.4150 C   0  0  0  0  0  2  0  0  0  0  0  0
  1  8  2  0  0  0  0
  1 10  1  0  0  0  0
  2 13  1  0  0  0  0
  2  6  2  0  0  0  0
  3  8  1  1  0  0  0
  3 17  1  0  0  0  0
  4 14  1  6  0  0  0
  4 17  1  0  0  0  0
  4  9  1  0  0  0  0
  5  6  1  0  0  0  0
  7 16  1  0  0  0  0
  7 13  2  0  0  0  0
  8  2  1  0  0  0  0
  9 16  1  0  0  0  0
 10  5  2  0  0  0  0
 11 18  1  1  0  0  0
 11  3  1  0  0  0  0
 12  1  1  0  0  0  0
 15 11  1  0  0  0  0
 15 14  1  0  0  0  0
 16 27  1  0  0  0  0
 17  7  1  0  0  0  0
 18 12  2  0  0  0  0
 19 20  2  0  0  0  0
 19 23  1  0  0  0  0
 20 22  1  0  0  0  0
 21 24  1  0  0  0  0
 21 15  1  0  0  0  0
 22 24  2  0  0  0  0
 23 21  2  0  0  0  0
 25 19  1  0  0  0  0
 26 28  1  0  0  0  0
 27 26  2  0  0  0  0
 29 28  1  6  0  0  0
 29 33  1  0  0  0  0
 30 29  1  0  0  0  0
 31 32  1  0  0  0  0
 32 33  1  0  0  0  0
 34 30  1  0  0  0  0
 34 31  1  0  0  0  0
M  END
>  <MODEL>
7

>  <REMARK>
 VINA RESULT:      -7.4      4.234      7.960
  Name = 
  4 active torsions:
  status: ('A' for Active; 'I' for Inactive)
    1  A    between atoms: C_3  and  C_13
    2  A    between atoms: C_11  and  C_13
    3  A    between atoms: C_12  and  N_28
    4  A    between atoms: C_17  and  N_29
                            x       y       z     vdW  Elec       q    Type
                         _______ _______ _______ _____ _____    ______ ____

>  <TORSDO>
F 4

$$$$
=
 OpenBabel11052418563D

 34 40  0  0  1  0  0  0  0  0999 V2000
  186.4670  178.2350  143.1000 C   0  0  0  0  0  0  0  0  0  0  0  0
  186.4930  177.3340  140.8330 C   0  0  0  0  0  0  0  0  0  0  0  0
  188.4690  176.9820  142.2570 C   0  0  1  0  0  3  0  0  0  0  0  0
  189.3230  174.5730  142.1010 C   0  0  1  0  0  3  0  0  0  0  0  0
  184.6170  178.6660  141.5870 C   0  0  0  0  0  3  0  0  0  0  0  0
  185.2420  177.9050  140.5850 C   0  0  0  0  0  3  0  0  0  0  0  0
  187.8880  175.4450  140.5090 C   0  0  0  0  0  0  0  0  0  0  0  0
  187.1440  177.6210  142.0510 C   0  0  0  0  0  0  0  0  0  0  0  0
  189.6930  174.0010  140.7100 C   0  0  0  0  0  2  0  0  0  0  0  0
  185.2060  178.7930  142.8570 C   0  0  0  0  0  3  0  0  0  0  0  0
  189.1090  177.1530  143.6390 C   0  0  2  0  0  3  0  0  0  0  0  0
  186.9810  178.0500  144.4690 C   0  0  0  0  0  3  0  0  0  0  0  0
  187.0300  176.2860  139.9850 N   0  0  0  0  0  0  0  0  0  0  0  0
  190.4890  175.1460  142.9020 C   0  0  0  0  0  2  0  0  0  0  0  0
  189.9840  176.0100  143.9890 N   0  0  0  0  0  0  0  0  0  0  0  0
  188.6410  174.4730  139.8040 N   0  0  0  0  0  0  0  0  0  0  0  0
  188.3420  175.6040  141.8320 N   0  0  0  0  0  0  0  0  0  0  0  0
  188.1380  177.4890  144.6940 N   0  0  0  0  0  0  0  0  0  0  0  0
  192.5620  176.2810  146.7120 C   0  0  0  0  0  0  0  0  0  0  0  0
  191.8670  175.7390  147.7940 C   0  0  0  0  0  3  0  0  0  0  0  0
  190.6250  175.9260  145.2780 C   0  0  0  0  0  0  0  0  0  0  0  0
  190.5560  175.2860  147.6270 C   0  0  0  0  0  3  0  0  0  0  0  0
  191.9450  176.3720  145.4600 C   0  0  0  0  0  3  0  0  0  0  0  0
  189.9400  175.3770  146.3760 C   0  0  0  0  0  3  0  0  0  0  0  0
  193.9570  176.7620  146.8880 C   0  0  0  0  0  1  0  0  0  0  0  0
  189.4670  173.3290  137.8460 C   0  0  0  0  0  3  0  0  0  0  0  0
  188.5880  174.1460  138.4120 C   0  0  0  0  0  3  0  0  0  0  0  0
  189.3650  173.0130  136.3960 C   0  0  0  0  0  2  0  0  0  0  0  0
  189.6200  171.5250  136.1620 C   0  0  2  0  0  3  0  0  0  0  0  0
  190.6490  170.9580  137.1450 C   0  0  0  0  0  2  0  0  0  0  0  0
  192.2470  171.0150  135.2990 N   0  0  0  0  0  2  0  0  0  0  0  0
  191.2370  171.7390  134.5310 C   0  0  0  0  0  2  0  0  0  0  0  0
  189.9510  171.2310  134.8140 O   0  0  0  0  0  0  0  0  0  0  0  0
  192.0530  171.3560  136.7030 C   0  0  0  0  0  2  0  0  0  0  0  0
  1 12  1  0  0  0  0
  2  8  1  0  0  0  0
  3  8  1  1  0  0  0
  3 11  1  0  0  0  0
  4  9  1  6  0  0  0
  4 14  1  0  0  0  0
  5 10  2  0  0  0  0
  6  2  2  0  0  0  0
  6  5  1  0  0  0  0
  7 17  1  0  0  0  0
  8  1  2  0  0  0  0
 10  1  1  0  0  0  0
 11 15  1  0  0  0  0
 11 18  1  1  0  0  0
 12 18  2  0  0  0  0
 13  7  2  0  0  0  0
 13  2  1  0  0  0  0
 14 15  1  0  0  0  0
 15 21  1  0  0  0  0
 16  7  1  0  0  0  0
 16  9  1  0  0  0  0
 17  4  1  0  0  0  0
 17  3  1  0  0  0  0
 19 25  1  0  0  0  0
 19 20  1  0  0  0  0
 21 23  1  0  0  0  0
 21 24  2  0  0  0  0
 22 20  2  0  0  0  0
 23 19  2  0  0  0  0
 24 22  1  0  0  0  0
 26 27  2  0  0  0  0
 27 16  1  0  0  0  0
 28 26  1  0  0  0  0
 29 28  1  6  0  0  0
 29 30  1  0  0  0  0
 31 34  1  0  0  0  0
 32 33  1  0  0  0  0
 32 31  1  0  0  0  0
 33 29  1  0  0  0  0
 34 30  1  0  0  0  0
M  END
>  <MODEL>
8

>  <REMARK>
 VINA RESULT:      -7.4      4.448      7.993
  Name = 
  4 active torsions:
  status: ('A' for Active; 'I' for Inactive)
    1  A    between atoms: C_3  and  C_13
    2  A    between atoms: C_11  and  C_13
    3  A    between atoms: C_12  and  N_28
    4  A    between atoms: C_17  and  N_29
                            x       y       z     vdW  Elec       q    Type
                         _______ _______ _______ _____ _____    ______ ____

>  <TORSDO>
F 4

$$$$
=
 OpenBabel11052418563D

 34 40  0  0  1  0  0  0  0  0999 V2000
  189.7150  176.7980  146.3850 C   0  0  0  0  0  0  0  0  0  0  0  0
  191.2400  174.9220  146.0600 C   0  0  0  0  0  0  0  0  0  0  0  0
  189.3470  175.1750  144.5100 C   0  0  1  0  0  3  0  0  0  0  0  0
  190.0710  174.8260  142.0780 C   0  0  1  0  0  3  0  0  0  0  0  0
  191.5210  176.3990  147.9590 C   0  0  0  0  0  3  0  0  0  0  0  0
  191.9490  175.2920  147.2070 C   0  0  0  0  0  3  0  0  0  0  0  0
  191.3890  174.1090  143.8390 C   0  0  0  0  0  0  0  0  0  0  0  0
  190.0510  175.6110  145.7420 C   0  0  0  0  0  0  0  0  0  0  0  0
  190.7650  173.4970  141.6890 C   0  0  0  0  0  2  0  0  0  0  0  0
  190.4340  177.1780  147.5240 C   0  0  0  0  0  3  0  0  0  0  0  0
  188.1480  176.0200  144.0650 C   0  0  2  0  0  3  0  0  0  0  0  0
  188.7970  177.7290  145.7020 C   0  0  0  0  0  3  0  0  0  0  0  0
  191.8070  174.0180  145.0780 N   0  0  0  0  0  0  0  0  0  0  0  0
  188.5640  174.8710  141.8330 C   0  0  0  0  0  2  0  0  0  0  0  0
  187.9580  175.9800  142.5960 N   0  0  0  0  0  0  0  0  0  0  0  0
  191.6950  173.2100  142.7860 N   0  0  0  0  0  0  0  0  0  0  0  0
  190.3560  174.9990  143.4870 N   0  0  0  0  0  0  0  0  0  0  0  0
  188.1620  177.3860  144.6150 N   0  0  0  0  0  0  0  0  0  0  0  0
  184.7870  177.9150  142.0140 C   0  0  0  0  0  0  0  0  0  0  0  0
  184.9430  178.2900  140.6780 C   0  0  0  0  0  3  0  0  0  0  0  0
  186.9350  176.7680  141.9530 C   0  0  0  0  0  0  0  0  0  0  0  0
  186.0870  177.9070  139.9740 C   0  0  0  0  0  3  0  0  0  0  0  0
  185.7760  177.1570  142.6470 C   0  0  0  0  0  3  0  0  0  0  0  0
  187.0760  177.1490  140.6070 C   0  0  0  0  0  3  0  0  0  0  0  0
  183.5700  178.3210  142.7640 C   0  0  0  0  0  1  0  0  0  0  0  0
  192.3530  171.0460  143.6250 C   0  0  0  0  0  3  0  0  0  0  0  0
  192.5630  172.0730  142.8130 C   0  0  0  0  0  3  0  0  0  0  0  0
  193.2800  169.8820  143.6110 C   0  0  0  0  0  2  0  0  0  0  0  0
  193.8170  169.6180  145.0170 C   0  0  2  0  0  3  0  0  0  0  0  0
  194.5530  170.8350  145.5860 C   0  0  0  0  0  2  0  0  0  0  0  0
  196.6270  169.6370  145.1060 N   0  0  0  0  0  2  0  0  0  0  0  0
  195.8160  168.6430  144.4080 C   0  0  0  0  0  2  0  0  0  0  0  0
  194.5990  168.4380  145.0920 O   0  0  0  0  0  0  0  0  0  0  0  0
  195.9490  170.9210  144.9770 C   0  0  0  0  0  2  0  0  0  0  0  0
  1 10  1  0  0  0  0
  2  6  2  0  0  0  0
  3  8  1  1  0  0  0
  4  9  1  1  0  0  0
  4 17  1  0  0  0  0
  6  5  1  0  0  0  0
  7 13  2  0  0  0  0
  8  2  1  0  0  0  0
  8  1  2  0  0  0  0
  9 16  1  0  0  0  0
 10  5  2  0  0  0  0
 11  3  1  0  0  0  0
 11 18  1  6  0  0  0
 12  1  1  0  0  0  0
 13  2  1  0  0  0  0
 14  4  1  0  0  0  0
 14 15  1  0  0  0  0
 15 11  1  0  0  0  0
 16 27  1  0  0  0  0
 16  7  1  0  0  0  0
 17  7  1  0  0  0  0
 17  3  1  0  0  0  0
 18 12  2  0  0  0  0
 19 23  1  0  0  0  0
 19 25  1  0  0  0  0
 20 19  2  0  0  0  0
 21 15  1  0  0  0  0
 21 23  2  0  0  0  0
 22 24  2  0  0  0  0
 22 20  1  0  0  0  0
 24 21  1  0  0  0  0
 27 26  2  0  0  0  0
 28 26  1  0  0  0  0
 29 28  1  6  0  0  0
 29 33  1  0  0  0  0
 29 30  1  0  0  0  0
 32 33  1  0  0  0  0
 32 31  1  0  0  0  0
 34 31  1  0  0  0  0
 34 30  1  0  0  0  0
M  END
>  <MODEL>
9

>  <REMARK>
 VINA RESULT:      -7.3      4.655     10.380
  Name = 
  4 active torsions:
  status: ('A' for Active; 'I' for Inactive)
    1  A    between atoms: C_3  and  C_13
    2  A    between atoms: C_11  and  C_13
    3  A    between atoms: C_12  and  N_28
    4  A    between atoms: C_17  and  N_29
                            x       y       z     vdW  Elec       q    Type
                         _______ _______ _______ _____ _____    ______ ____

>  <TORSDO>
F 4

$$$$
