=
 OpenBabel11052417453D

 31 33  0  0  1  0  0  0  0  0999 V2000
  191.7180  174.5240  145.0390 C   0  0  2  0  0  3  0  0  0  0  0  0
  188.8050  175.7320  145.8040 C   0  0  2  0  0  3  0  0  0  0  0  0
  188.7920  174.4510  147.6630 O   0  0  0  0  0  1  0  0  0  0  0  0
  189.2600  175.6280  147.1840 N   0  0  0  0  0  0  0  0  0  0  0  0
  189.9470  176.2930  144.9690 C   0  0  1  0  0  3  0  0  0  0  0  0
  189.9800  177.8160  144.9410 C   0  0  0  0  0  1  0  0  0  0  0  0
  191.1790  175.8040  145.6960 C   0  0  1  0  0  3  0  0  0  0  0  0
  191.3460  176.4960  148.0810 C   0  0  0  0  0  1  0  0  0  0  0  0
  190.7130  175.5080  147.1200 C   0  0  1  0  0  3  0  0  0  0  0  0
  185.6430  177.2890  144.3440 C   0  0  0  0  0  0  0  0  0  0  0  0
  185.6310  177.5870  146.7460 C   0  0  0  0  0  3  0  0  0  0  0  0
  184.8790  177.5100  142.7860 Cl  0  0  0  0  0  0  0  0  0  0  0  0
  186.8740  176.6330  144.4310 C   0  0  0  0  0  3  0  0  0  0  0  0
  186.8640  176.9300  146.8350 C   0  0  0  0  0  3  0  0  0  0  0  0
  187.4930  176.4570  145.6780 C   0  0  0  0  0  0  0  0  0  0  0  0
  185.0220  177.7660  145.5010 C   0  0  0  0  0  3  0  0  0  0  0  0
  193.1770  174.2420  145.2980 C   0  0  0  0  0  0  0  0  0  0  0  0
  195.3350  175.1320  145.9700 C   0  0  0  0  0  3  0  0  0  0  0  0
  193.9790  175.3180  145.6950 C   0  0  0  0  0  3  0  0  0  0  0  0
  192.9850  171.8270  144.7860 N   0  0  0  0  0  1  0  0  0  0  0  0
  195.9030  173.8630  145.8530 C   0  0  0  0  0  0  0  0  0  0  0  0
  197.6030  173.6290  146.1970 Cl  0  0  0  0  0  0  0  0  0  0  0  0
  193.7550  172.9560  145.1870 C   0  0  0  0  0  0  0  0  0  0  0  0
  195.1140  172.7780  145.4630 C   0  0  0  0  0  3  0  0  0  0  0  0
  191.8360  175.2610  141.4470 O   0  0  0  0  0  0  0  0  0  0  0  0
  191.3900  174.4290  143.6120 N   0  0  0  0  0  0  0  0  0  0  0  0
  190.1000  173.3440  141.9720 O   0  0  0  0  0  0  0  0  0  0  0  0
  192.0880  175.2750  142.6810 C   0  0  0  0  0  3  0  0  0  0  0  0
  190.3640  173.5050  143.1930 C   0  0  0  0  0  0  0  0  0  0  0  0
  188.9100  171.6760  143.5400 O   0  0  0  0  0  1  0  0  0  0  0  0
  189.6100  172.6910  144.1930 C   0  0  0  0  0  2  0  0  0  0  0  0
  1 26  1  6  0  0  0
  1 17  1  0  0  0  0
  2 15  1  1  0  0  0
  2  4  1  0  0  0  0
  4  3  1  0  0  0  0
  5  6  1  1  0  0  0
  5  7  1  0  0  0  0
  5  2  1  0  0  0  0
  7  1  1  6  0  0  0
  7  9  1  0  0  0  0
  9  4  1  0  0  0  0
  9  8  1  1  0  0  0
 10 13  2  0  0  0  0
 10 16  1  0  0  0  0
 11 14  1  0  0  0  0
 12 10  1  0  0  0  0
 13 15  1  0  0  0  0
 15 14  2  0  0  0  0
 16 11  2  0  0  0  0
 17 19  1  0  0  0  0
 19 18  2  0  0  0  0
 20 23  1  0  0  0  0
 21 18  1  0  0  0  0
 21 22  1  0  0  0  0
 23 17  2  0  0  0  0
 23 24  1  0  0  0  0
 24 21  2  0  0  0  0
 25 28  2  0  0  0  0
 27 29  2  0  0  0  0
 28 26  1  0  0  0  0
 29 26  1  0  0  0  0
 29 31  1  0  0  0  0
 30 31  1  0  0  0  0
M  END
>  <MODEL>
1

>  <REMARK>
 VINA RESULT:      -7.8      0.000      0.000
  Name = 
  5 active torsions:
  status: ('A' for Active; 'I' for Inactive)
    1  A    between atoms: C_3  and  C_22
    2  A    between atoms: C_4  and  C_5
    3  A    between atoms: C_4  and  N_12
    4  A    between atoms: C_4  and  C_21
    5  A    between atoms: C_27  and  C_28
                            x       y       z     vdW  Elec       q    Type
                         _______ _______ _______ _____ _____    ______ ____

>  <TORSDO>
F 5

$$$$
=
 OpenBabel11052417453D

 31 33  0  0  1  0  0  0  0  0999 V2000
  191.7770  174.4960  144.9790 C   0  0  2  0  0  3  0  0  0  0  0  0
  188.8480  175.7380  145.6250 C   0  0  2  0  0  3  0  0  0  0  0  0
  188.7770  174.5130  147.5200 O   0  0  0  0  0  1  0  0  0  0  0  0
  189.2630  175.6730  147.0200 N   0  0  0  0  0  0  0  0  0  0  0  0
  190.0170  176.2680  144.8060 C   0  0  1  0  0  3  0  0  0  0  0  0
  190.0580  177.7900  144.7330 C   0  0  0  0  0  1  0  0  0  0  0  0
  191.2260  175.7980  145.5820 C   0  0  1  0  0  3  0  0  0  0  0  0
  191.3280  176.5610  147.9490 C   0  0  0  0  0  1  0  0  0  0  0  0
  190.7180  175.5470  147.0000 C   0  0  1  0  0  3  0  0  0  0  0  0
  185.7190  177.8100  146.3050 C   0  0  0  0  0  0  0  0  0  0  0  0
  185.7660  177.1990  143.9630 C   0  0  0  0  0  3  0  0  0  0  0  0
  184.9410  178.6260  147.6430 Cl  0  0  0  0  0  0  0  0  0  0  0  0
  186.9190  177.1230  146.5090 C   0  0  0  0  0  3  0  0  0  0  0  0
  186.9670  176.5100  144.1660 C   0  0  0  0  0  3  0  0  0  0  0  0
  187.5450  176.4630  145.4400 C   0  0  0  0  0  0  0  0  0  0  0  0
  185.1420  177.8480  145.0320 C   0  0  0  0  0  3  0  0  0  0  0  0
  193.2340  174.2310  145.2650 C   0  0  0  0  0  0  0  0  0  0  0  0
  195.3780  175.1530  145.9410 C   0  0  0  0  0  3  0  0  0  0  0  0
  194.0240  175.3220  145.6440 C   0  0  0  0  0  3  0  0  0  0  0  0
  193.0640  171.8020  144.8150 N   0  0  0  0  0  1  0  0  0  0  0  0
  195.9550  173.8840  145.8650 C   0  0  0  0  0  0  0  0  0  0  0  0
  197.6510  173.6710  146.2380 Cl  0  0  0  0  0  0  0  0  0  0  0  0
  193.8210  172.9460  145.1960 C   0  0  0  0  0  0  0  0  0  0  0  0
  195.1780  172.7850  145.4940 C   0  0  0  0  0  3  0  0  0  0  0  0
  191.9300  175.1000  141.3640 O   0  0  0  0  0  0  0  0  0  0  0  0
  191.4650  174.3460  143.5530 N   0  0  0  0  0  0  0  0  0  0  0  0
  190.2000  173.1930  141.9410 O   0  0  0  0  0  0  0  0  0  0  0  0
  192.1690  175.1610  142.5990 C   0  0  0  0  0  3  0  0  0  0  0  0
  190.4500  173.4000  143.1580 C   0  0  0  0  0  0  0  0  0  0  0  0
  188.8540  171.7020  143.5420 O   0  0  0  0  0  1  0  0  0  0  0  0
  189.6900  172.6190  144.1790 C   0  0  0  0  0  2  0  0  0  0  0  0
  1 26  1  6  0  0  0
  1 17  1  0  0  0  0
  2 15  1  1  0  0  0
  2  4  1  0  0  0  0
  4  3  1  0  0  0  0
  5  6  1  1  0  0  0
  5  7  1  0  0  0  0
  5  2  1  0  0  0  0
  7  1  1  6  0  0  0
  7  9  1  0  0  0  0
  9  4  1  0  0  0  0
  9  8  1  1  0  0  0
 10 13  1  0  0  0  0
 10 12  1  0  0  0  0
 11 14  2  0  0  0  0
 11 16  1  0  0  0  0
 14 15  1  0  0  0  0
 15 13  2  0  0  0  0
 16 10  2  0  0  0  0
 17 19  1  0  0  0  0
 19 18  2  0  0  0  0
 20 23  1  0  0  0  0
 21 18  1  0  0  0  0
 21 22  1  0  0  0  0
 23 17  2  0  0  0  0
 23 24  1  0  0  0  0
 24 21  2  0  0  0  0
 25 28  2  0  0  0  0
 27 29  2  0  0  0  0
 28 26  1  0  0  0  0
 29 26  1  0  0  0  0
 29 31  1  0  0  0  0
 30 31  1  0  0  0  0
M  END
>  <MODEL>
2

>  <REMARK>
 VINA RESULT:      -7.7      0.920      1.263
  Name = 
  5 active torsions:
  status: ('A' for Active; 'I' for Inactive)
    1  A    between atoms: C_3  and  C_22
    2  A    between atoms: C_4  and  C_5
    3  A    between atoms: C_4  and  N_12
    4  A    between atoms: C_4  and  C_21
    5  A    between atoms: C_27  and  C_28
                            x       y       z     vdW  Elec       q    Type
                         _______ _______ _______ _____ _____    ______ ____

>  <TORSDO>
F 5

$$$$
=
 OpenBabel11052417453D

 31 33  0  0  1  0  0  0  0  0999 V2000
  188.5710  175.7870  143.7590 C   0  0  2  0  0  3  0  0  0  0  0  0
  190.9910  173.7200  144.3970 C   0  0  2  0  0  3  0  0  0  0  0  0
  189.4740  172.2100  145.1160 O   0  0  0  0  0  1  0  0  0  0  0  0
  190.0510  172.6850  143.9870 N   0  0  0  0  0  0  0  0  0  0  0  0
  190.8790  174.8780  143.4150 C   0  0  1  0  0  3  0  0  0  0  0  0
  191.7780  174.7200  142.1940 C   0  0  0  0  0  1  0  0  0  0  0  0
  189.4400  174.8060  142.9570 C   0  0  1  0  0  3  0  0  0  0  0  0
  188.7650  172.6440  141.9240 C   0  0  0  0  0  1  0  0  0  0  0  0
  189.0040  173.3690  143.2350 C   0  0  1  0  0  3  0  0  0  0  0  0
  194.6630  173.4640  145.3990 C   0  0  0  0  0  0  0  0  0  0  0  0
  193.9390  171.3350  144.5030 C   0  0  0  0  0  3  0  0  0  0  0  0
  195.9130  174.4680  146.0980 Cl  0  0  0  0  0  0  0  0  0  0  0  0
  193.3860  173.9890  145.1820 C   0  0  0  0  0  3  0  0  0  0  0  0
  192.6610  171.8590  144.2860 C   0  0  0  0  0  3  0  0  0  0  0  0
  192.3800  173.1890  144.6170 C   0  0  0  0  0  0  0  0  0  0  0  0
  194.9400  172.1370  145.0590 C   0  0  0  0  0  3  0  0  0  0  0  0
  187.4790  176.4620  142.9670 C   0  0  0  0  0  0  0  0  0  0  0  0
  186.7380  177.2730  140.7990 C   0  0  0  0  0  3  0  0  0  0  0  0
  187.7090  176.6690  141.6020 C   0  0  0  0  0  3  0  0  0  0  0  0
  185.9600  176.6770  144.9090 N   0  0  0  0  0  1  0  0  0  0  0  0
  185.5230  177.6730  141.3570 C   0  0  0  0  0  0  0  0  0  0  0  0
  184.3060  178.4290  140.3520 Cl  0  0  0  0  0  0  0  0  0  0  0  0
  186.2440  176.8630  143.5270 C   0  0  0  0  0  0  0  0  0  0  0  0
  185.2770  177.4680  142.7160 C   0  0  0  0  0  3  0  0  0  0  0  0
  190.7860  178.6330  144.4330 O   0  0  0  0  0  0  0  0  0  0  0  0
  189.3610  176.7530  144.5320 N   0  0  0  0  0  0  0  0  0  0  0  0
  190.0240  177.4660  146.6730 O   0  0  0  0  0  0  0  0  0  0  0  0
  190.0700  177.7890  143.8300 C   0  0  0  0  0  3  0  0  0  0  0  0
  189.4140  176.6190  145.9670 C   0  0  0  0  0  0  0  0  0  0  0  0
  189.6280  174.8090  147.4690 O   0  0  0  0  0  1  0  0  0  0  0  0
  188.7210  175.4900  146.6580 C   0  0  0  0  0  2  0  0  0  0  0  0
  1 26  1  6  0  0  0
  2 15  1  6  0  0  0
  4  2  1  0  0  0  0
  4  3  1  0  0  0  0
  5  6  1  6  0  0  0
  5  2  1  0  0  0  0
  7  9  1  0  0  0  0
  7  5  1  0  0  0  0
  7  1  1  1  0  0  0
  9  8  1  6  0  0  0
  9  4  1  0  0  0  0
 10 12  1  0  0  0  0
 11 16  1  0  0  0  0
 13 10  1  0  0  0  0
 14 11  2  0  0  0  0
 14 15  1  0  0  0  0
 15 13  2  0  0  0  0
 16 10  2  0  0  0  0
 17 23  1  0  0  0  0
 17  1  1  0  0  0  0
 18 21  2  0  0  0  0
 18 19  1  0  0  0  0
 19 17  2  0  0  0  0
 21 24  1  0  0  0  0
 22 21  1  0  0  0  0
 23 20  1  0  0  0  0
 24 23  2  0  0  0  0
 26 29  1  0  0  0  0
 28 25  2  0  0  0  0
 28 26  1  0  0  0  0
 29 31  1  0  0  0  0
 29 27  2  0  0  0  0
 31 30  1  0  0  0  0
M  END
>  <MODEL>
3

>  <REMARK>
 VINA RESULT:      -7.1      2.173      7.633
  Name = 
  5 active torsions:
  status: ('A' for Active; 'I' for Inactive)
    1  A    between atoms: C_3  and  C_22
    2  A    between atoms: C_4  and  C_5
    3  A    between atoms: C_4  and  N_12
    4  A    between atoms: C_4  and  C_21
    5  A    between atoms: C_27  and  C_28
                            x       y       z     vdW  Elec       q    Type
                         _______ _______ _______ _____ _____    ______ ____

>  <TORSDO>
F 5

$$$$
=
 OpenBabel11052417453D

 31 33  0  0  1  0  0  0  0  0999 V2000
  191.0940  174.8300  143.5050 C   0  0  2  0  0  3  0  0  0  0  0  0
  188.7730  176.5970  144.9270 C   0  0  2  0  0  3  0  0  0  0  0  0
  190.2940  177.3420  146.4210 O   0  0  0  0  0  1  0  0  0  0  0  0
  189.8310  177.5690  145.1690 N   0  0  0  0  0  0  0  0  0  0  0  0
  188.9220  176.0770  143.5040 C   0  0  1  0  0  3  0  0  0  0  0  0
  188.2000  176.9340  142.4720 C   0  0  0  0  0  1  0  0  0  0  0  0
  190.4090  176.1820  143.2520 C   0  0  1  0  0  3  0  0  0  0  0  0
  191.3690  178.4640  143.5110 C   0  0  0  0  0  1  0  0  0  0  0  0
  190.9120  177.2210  144.2510 C   0  0  1  0  0  3  0  0  0  0  0  0
  185.6120  178.7310  145.0150 C   0  0  0  0  0  0  0  0  0  0  0  0
  185.3530  176.8730  146.5460 C   0  0  0  0  0  3  0  0  0  0  0  0
  184.9730  180.1750  144.2630 Cl  0  0  0  0  0  0  0  0  0  0  0  0
  186.8910  178.2780  144.6820 C   0  0  0  0  0  3  0  0  0  0  0  0
  186.6330  176.4190  146.2130 C   0  0  0  0  0  3  0  0  0  0  0  0
  187.4100  177.1220  145.2860 C   0  0  0  0  0  0  0  0  0  0  0  0
  184.8430  178.0290  145.9480 C   0  0  0  0  0  3  0  0  0  0  0  0
  192.5930  174.8950  143.6560 C   0  0  0  0  0  0  0  0  0  0  0  0
  194.7390  175.2030  142.5590 C   0  0  0  0  0  3  0  0  0  0  0  0
  193.3470  175.1130  142.4970 C   0  0  0  0  0  3  0  0  0  0  0  0
  192.5390  174.5510  146.1070 N   0  0  0  0  0  1  0  0  0  0  0  0
  195.3920  175.0780  143.7860 C   0  0  0  0  0  0  0  0  0  0  0  0
  197.1360  175.1900  143.8650 Cl  0  0  0  0  0  0  0  0  0  0  0  0
  193.2580  174.7750  144.8980 C   0  0  0  0  0  0  0  0  0  0  0  0
  194.6530  174.8650  144.9520 C   0  0  0  0  0  3  0  0  0  0  0  0
  190.1410  173.3150  140.3020 O   0  0  0  0  0  0  0  0  0  0  0  0
  190.6870  173.7930  142.5490 N   0  0  0  0  0  0  0  0  0  0  0  0
  190.1710  171.5200  142.2350 O   0  0  0  0  0  0  0  0  0  0  0  0
  190.5140  174.1520  141.1670 C   0  0  0  0  0  3  0  0  0  0  0  0
  190.4550  172.4530  143.0320 C   0  0  0  0  0  0  0  0  0  0  0  0
  189.3210  172.2000  145.0880 O   0  0  0  0  0  1  0  0  0  0  0  0
  190.5770  172.1300  144.4850 C   0  0  0  0  0  2  0  0  0  0  0  0
  1 26  1  6  0  0  0
  1 17  1  0  0  0  0
  2  4  1  0  0  0  0
  2 15  1  6  0  0  0
  4  3  1  0  0  0  0
  5  6  1  6  0  0  0
  5  2  1  0  0  0  0
  7  5  1  0  0  0  0
  7  1  1  1  0  0  0
  7  9  1  0  0  0  0
  9  8  1  6  0  0  0
  9  4  1  0  0  0  0
 10 16  1  0  0  0  0
 12 10  1  0  0  0  0
 13 10  2  0  0  0  0
 13 15  1  0  0  0  0
 14 11  1  0  0  0  0
 15 14  2  0  0  0  0
 16 11  2  0  0  0  0
 17 23  1  0  0  0  0
 18 21  2  0  0  0  0
 19 18  1  0  0  0  0
 19 17  2  0  0  0  0
 21 22  1  0  0  0  0
 21 24  1  0  0  0  0
 23 24  2  0  0  0  0
 23 20  1  0  0  0  0
 25 28  2  0  0  0  0
 26 29  1  0  0  0  0
 27 29  2  0  0  0  0
 28 26  1  0  0  0  0
 29 31  1  0  0  0  0
 31 30  1  0  0  0  0
M  END
>  <MODEL>
4

>  <REMARK>
 VINA RESULT:      -7.0      1.999      2.411
  Name = 
  5 active torsions:
  status: ('A' for Active; 'I' for Inactive)
    1  A    between atoms: C_3  and  C_22
    2  A    between atoms: C_4  and  C_5
    3  A    between atoms: C_4  and  N_12
    4  A    between atoms: C_4  and  C_21
    5  A    between atoms: C_27  and  C_28
                            x       y       z     vdW  Elec       q    Type
                         _______ _______ _______ _____ _____    ______ ____

>  <TORSDO>
F 5

$$$$
=
 OpenBabel11052417453D

 31 33  0  0  1  0  0  0  0  0999 V2000
  192.5480  175.1080  143.7590 C   0  0  2  0  0  3  0  0  0  0  0  0
  189.5190  175.5470  144.8380 C   0  0  2  0  0  3  0  0  0  0  0  0
  189.6120  173.5260  145.8400 O   0  0  0  0  0  1  0  0  0  0  0  0
  189.9650  174.8210  146.0200 N   0  0  0  0  0  0  0  0  0  0  0  0
  190.6100  176.5350  144.4490 C   0  0  1  0  0  3  0  0  0  0  0  0
  190.4900  177.8750  145.1640 C   0  0  0  0  0  1  0  0  0  0  0  0
  191.8760  175.8570  144.9200 C   0  0  1  0  0  3  0  0  0  0  0  0
  191.9420  175.3090  147.3480 C   0  0  0  0  0  1  0  0  0  0  0  0
  191.4240  174.8670  145.9930 C   0  0  1  0  0  3  0  0  0  0  0  0
  186.0630  176.9640  144.0660 C   0  0  0  0  0  0  0  0  0  0  0  0
  186.3490  176.8500  146.4670 C   0  0  0  0  0  3  0  0  0  0  0  0
  185.0780  177.3570  142.6750 Cl  0  0  0  0  0  0  0  0  0  0  0  0
  187.3470  176.4440  143.8870 C   0  0  0  0  0  3  0  0  0  0  0  0
  187.6360  176.3300  146.2900 C   0  0  0  0  0  3  0  0  0  0  0  0
  188.1430  176.1310  145.0010 C   0  0  0  0  0  0  0  0  0  0  0  0
  185.5630  177.1670  145.3560 C   0  0  0  0  0  3  0  0  0  0  0  0
  192.6240  173.6110  143.9270 C   0  0  0  0  0  0  0  0  0  0  0  0
  193.7540  171.7330  144.9770 C   0  0  0  0  0  3  0  0  0  0  0  0
  193.6310  173.1070  144.7580 C   0  0  0  0  0  3  0  0  0  0  0  0
  190.6800  173.1700  142.4590 N   0  0  0  0  0  1  0  0  0  0  0  0
  192.8650  170.8480  144.3650 C   0  0  0  0  0  0  0  0  0  0  0  0
  193.0180  169.1260  144.6380 Cl  0  0  0  0  0  0  0  0  0  0  0  0
  191.7210  172.7110  143.3150 C   0  0  0  0  0  0  0  0  0  0  0  0
  191.8510  171.3360  143.5380 C   0  0  0  0  0  3  0  0  0  0  0  0
  195.7540  176.8520  144.1330 O   0  0  0  0  0  0  0  0  0  0  0  0
  193.8460  175.6800  143.3830 N   0  0  0  0  0  0  0  0  0  0  0  0
  195.4040  176.0190  141.6540 O   0  0  0  0  0  0  0  0  0  0  0  0
  194.6440  176.3190  144.3960 C   0  0  0  0  0  3  0  0  0  0  0  0
  194.2690  175.6010  142.0060 C   0  0  0  0  0  0  0  0  0  0  0  0
  193.9590  173.8100  140.4970 O   0  0  0  0  0  1  0  0  0  0  0  0
  193.3860  174.9920  140.9660 C   0  0  0  0  0  2  0  0  0  0  0  0
  1 26  1  1  0  0  0
  1 17  1  0  0  0  0
  2 15  1  1  0  0  0
  2  4  1  0  0  0  0
  3  4  1  0  0  0  0
  5  2  1  0  0  0  0
  5  7  1  0  0  0  0
  5  6  1  1  0  0  0
  7  1  1  6  0  0  0
  7  9  1  0  0  0  0
  9  4  1  0  0  0  0
  9  8  1  1  0  0  0
 10 16  1  0  0  0  0
 12 10  1  0  0  0  0
 13 10  2  0  0  0  0
 13 15  1  0  0  0  0
 14 11  1  0  0  0  0
 15 14  2  0  0  0  0
 16 11  2  0  0  0  0
 17 19  1  0  0  0  0
 19 18  2  0  0  0  0
 20 23  1  0  0  0  0
 21 22  1  0  0  0  0
 21 18  1  0  0  0  0
 23 24  1  0  0  0  0
 23 17  2  0  0  0  0
 24 21  2  0  0  0  0
 25 28  2  0  0  0  0
 26 28  1  0  0  0  0
 27 29  2  0  0  0  0
 29 26  1  0  0  0  0
 30 31  1  0  0  0  0
 31 29  1  0  0  0  0
M  END
>  <MODEL>
5

>  <REMARK>
 VINA RESULT:      -6.9      2.210      3.196
  Name = 
  5 active torsions:
  status: ('A' for Active; 'I' for Inactive)
    1  A    between atoms: C_3  and  C_22
    2  A    between atoms: C_4  and  C_5
    3  A    between atoms: C_4  and  N_12
    4  A    between atoms: C_4  and  C_21
    5  A    between atoms: C_27  and  C_28
                            x       y       z     vdW  Elec       q    Type
                         _______ _______ _______ _____ _____    ______ ____

>  <TORSDO>
F 5

$$$$
=
 OpenBabel11052417453D

 31 33  0  0  1  0  0  0  0  0999 V2000
  192.6370  174.3920  143.7160 C   0  0  2  0  0  3  0  0  0  0  0  0
  189.8320  175.7730  144.5870 C   0  0  2  0  0  3  0  0  0  0  0  0
  189.5500  174.1570  146.1390 O   0  0  0  0  0  1  0  0  0  0  0  0
  190.1780  175.3390  145.9340 N   0  0  0  0  0  0  0  0  0  0  0  0
  191.0840  176.3440  143.9360 C   0  0  1  0  0  3  0  0  0  0  0  0
  191.2890  177.8260  144.2260 C   0  0  0  0  0  1  0  0  0  0  0  0
  192.2020  175.5710  144.5990 C   0  0  1  0  0  3  0  0  0  0  0  0
  192.2820  175.7460  147.0810 C   0  0  0  0  0  1  0  0  0  0  0  0
  191.6100  175.0560  145.9100 C   0  0  1  0  0  3  0  0  0  0  0  0
  186.8740  177.8370  143.3450 C   0  0  0  0  0  0  0  0  0  0  0  0
  186.9310  177.9160  145.7640 C   0  0  0  0  0  3  0  0  0  0  0  0
  186.1240  178.2910  141.8310 Cl  0  0  0  0  0  0  0  0  0  0  0  0
  188.0130  177.0270  143.3450 C   0  0  0  0  0  3  0  0  0  0  0  0
  188.0720  177.1060  145.7650 C   0  0  0  0  0  3  0  0  0  0  0  0
  188.6210  176.6640  144.5570 C   0  0  0  0  0  0  0  0  0  0  0  0
  186.3330  178.2820  144.5550 C   0  0  0  0  0  3  0  0  0  0  0  0
  193.5850  173.4210  144.3750 C   0  0  0  0  0  0  0  0  0  0  0  0
  195.7630  173.0740  145.3930 C   0  0  0  0  0  3  0  0  0  0  0  0
  194.8380  173.9080  144.7620 C   0  0  0  0  0  3  0  0  0  0  0  0
  192.0000  171.5230  144.2630 N   0  0  0  0  0  1  0  0  0  0  0  0
  195.4400  171.7400  145.6450 C   0  0  0  0  0  0  0  0  0  0  0  0
  196.5990  170.6940  146.4360 Cl  0  0  0  0  0  0  0  0  0  0  0  0
  193.2590  172.0700  144.6380 C   0  0  0  0  0  0  0  0  0  0  0  0
  194.1920  171.2400  145.2690 C   0  0  0  0  0  3  0  0  0  0  0  0
  194.6240  176.1950  141.2140 O   0  0  0  0  0  0  0  0  0  0  0  0
  193.1170  174.8110  142.3940 N   0  0  0  0  0  0  0  0  0  0  0  0
  192.9180  174.5410  140.0670 O   0  0  0  0  0  0  0  0  0  0  0  0
  194.1840  175.7740  142.3170 C   0  0  0  0  0  3  0  0  0  0  0  0
  192.4910  174.2590  141.2180 C   0  0  0  0  0  0  0  0  0  0  0  0
  190.1430  174.0100  141.1630 O   0  0  0  0  0  1  0  0  0  0  0  0
  191.3400  173.3140  141.3340 C   0  0  0  0  0  2  0  0  0  0  0  0
  1 26  1  6  0  0  0
  1 17  1  0  0  0  0
  2 15  1  1  0  0  0
  2  4  1  0  0  0  0
  4  3  1  0  0  0  0
  5  6  1  1  0  0  0
  5  2  1  0  0  0  0
  5  7  1  0  0  0  0
  7  1  1  6  0  0  0
  7  9  1  0  0  0  0
  9  4  1  0  0  0  0
  9  8  1  1  0  0  0
 10 13  2  0  0  0  0
 10 16  1  0  0  0  0
 11 14  1  0  0  0  0
 12 10  1  0  0  0  0
 13 15  1  0  0  0  0
 15 14  2  0  0  0  0
 16 11  2  0  0  0  0
 17 23  2  0  0  0  0
 17 19  1  0  0  0  0
 18 21  1  0  0  0  0
 19 18  2  0  0  0  0
 20 23  1  0  0  0  0
 21 22  1  0  0  0  0
 23 24  1  0  0  0  0
 24 21  2  0  0  0  0
 25 28  2  0  0  0  0
 27 29  2  0  0  0  0
 28 26  1  0  0  0  0
 29 31  1  0  0  0  0
 29 26  1  0  0  0  0
 30 31  1  0  0  0  0
M  END
>  <MODEL>
6

>  <REMARK>
 VINA RESULT:      -6.9      1.732      2.098
  Name = 
  5 active torsions:
  status: ('A' for Active; 'I' for Inactive)
    1  A    between atoms: C_3  and  C_22
    2  A    between atoms: C_4  and  C_5
    3  A    between atoms: C_4  and  N_12
    4  A    between atoms: C_4  and  C_21
    5  A    between atoms: C_27  and  C_28
                            x       y       z     vdW  Elec       q    Type
                         _______ _______ _______ _____ _____    ______ ____

>  <TORSDO>
F 5

$$$$
=
 OpenBabel11052417453D

 31 33  0  0  1  0  0  0  0  0999 V2000
  190.1480  175.0190  144.2940 C   0  0  2  0  0  3  0  0  0  0  0  0
  193.1380  176.0270  143.5320 C   0  0  2  0  0  3  0  0  0  0  0  0
  192.5520  178.1250  144.1250 O   0  0  0  0  0  1  0  0  0  0  0  0
  192.9780  176.9510  144.6470 N   0  0  0  0  0  0  0  0  0  0  0  0
  192.6050  174.6670  143.9630 C   0  0  1  0  0  3  0  0  0  0  0  0
  193.6500  173.8060  144.6630 C   0  0  0  0  0  1  0  0  0  0  0  0
  191.5300  175.0190  144.9660 C   0  0  1  0  0  3  0  0  0  0  0  0
  192.2960  176.3740  146.9090 C   0  0  0  0  0  1  0  0  0  0  0  0
  191.8800  176.4240  145.4510 C   0  0  1  0  0  3  0  0  0  0  0  0
  196.0850  175.7230  141.1300 C   0  0  0  0  0  0  0  0  0  0  0  0
  196.9010  176.4440  143.2910 C   0  0  0  0  0  3  0  0  0  0  0  0
  196.3890  175.2950  139.4610 Cl  0  0  0  0  0  0  0  0  0  0  0  0
  194.7810  175.6900  141.6320 C   0  0  0  0  0  3  0  0  0  0  0  0
  195.5970  176.4110  143.7960 C   0  0  0  0  0  3  0  0  0  0  0  0
  194.5330  176.0280  142.9720 C   0  0  0  0  0  0  0  0  0  0  0  0
  197.1450  176.0990  141.9590 C   0  0  0  0  0  3  0  0  0  0  0  0
  189.0950  175.8310  145.0070 C   0  0  0  0  0  0  0  0  0  0  0  0
  187.7460  176.1070  147.0090 C   0  0  0  0  0  3  0  0  0  0  0  0
  188.7030  175.3990  146.2800 C   0  0  0  0  0  3  0  0  0  0  0  0
  188.8780  177.4850  143.1790 N   0  0  0  0  0  1  0  0  0  0  0  0
  187.1730  177.2600  146.4710 C   0  0  0  0  0  0  0  0  0  0  0  0
  185.9730  178.1490  147.3840 Cl  0  0  0  0  0  0  0  0  0  0  0  0
  188.5170  177.0030  144.4690 C   0  0  0  0  0  0  0  0  0  0  0  0
  187.5580  177.7070  145.2050 C   0  0  0  0  0  3  0  0  0  0  0  0
  189.2840  171.4860  144.7750 O   0  0  0  0  0  0  0  0  0  0  0  0
  189.6690  173.6710  143.9660 N   0  0  0  0  0  0  0  0  0  0  0  0
  188.7610  172.2700  142.3110 O   0  0  0  0  0  0  0  0  0  0  0  0
  189.6590  172.6680  144.9980 C   0  0  0  0  0  3  0  0  0  0  0  0
  189.2420  173.3930  142.6170 C   0  0  0  0  0  0  0  0  0  0  0  0
  188.0470  174.8220  141.1650 O   0  0  0  0  0  1  0  0  0  0  0  0
  189.3310  174.4380  141.5530 C   0  0  0  0  0  2  0  0  0  0  0  0
  1 26  1  1  0  0  0
  1 17  1  0  0  0  0
  2 15  1  1  0  0  0
  2  5  1  0  0  0  0
  2  4  1  0  0  0  0
  3  4  1  0  0  0  0
  4  9  1  0  0  0  0
  5  6  1  1  0  0  0
  5  7  1  0  0  0  0
  7  1  1  6  0  0  0
  7  9  1  0  0  0  0
  9  8  1  1  0  0  0
 10 13  2  0  0  0  0
 10 16  1  0  0  0  0
 11 14  1  0  0  0  0
 12 10  1  0  0  0  0
 13 15  1  0  0  0  0
 15 14  2  0  0  0  0
 16 11  2  0  0  0  0
 17 19  1  0  0  0  0
 19 18  2  0  0  0  0
 20 23  1  0  0  0  0
 21 18  1  0  0  0  0
 21 22  1  0  0  0  0
 23 17  2  0  0  0  0
 23 24  1  0  0  0  0
 24 21  2  0  0  0  0
 25 28  2  0  0  0  0
 26 28  1  0  0  0  0
 27 29  2  0  0  0  0
 29 26  1  0  0  0  0
 30 31  1  0  0  0  0
 31 29  1  0  0  0  0
M  END
>  <MODEL>
7

>  <REMARK>
 VINA RESULT:      -6.7      2.696      7.047
  Name = 
  5 active torsions:
  status: ('A' for Active; 'I' for Inactive)
    1  A    between atoms: C_3  and  C_22
    2  A    between atoms: C_4  and  C_5
    3  A    between atoms: C_4  and  N_12
    4  A    between atoms: C_4  and  C_21
    5  A    between atoms: C_27  and  C_28
                            x       y       z     vdW  Elec       q    Type
                         _______ _______ _______ _____ _____    ______ ____

>  <TORSDO>
F 5

$$$$
=
 OpenBabel11052417453D

 31 33  0  0  1  0  0  0  0  0999 V2000
  192.2280  175.4620  144.2610 C   0  0  2  0  0  3  0  0  0  0  0  0
  189.1250  176.2780  143.7720 C   0  0  2  0  0  3  0  0  0  0  0  0
  188.6470  174.1080  143.3700 O   0  0  0  0  0  1  0  0  0  0  0  0
  188.8180  174.9900  144.3820 N   0  0  0  0  0  0  0  0  0  0  0  0
  190.2300  176.9370  144.5850 C   0  0  1  0  0  3  0  0  0  0  0  0
  189.7060  177.7580  145.7570 C   0  0  0  0  0  1  0  0  0  0  0  0
  191.0020  175.7600  145.1380 C   0  0  1  0  0  3  0  0  0  0  0  0
  189.6670  174.1660  146.5060 C   0  0  0  0  0  1  0  0  0  0  0  0
  190.0260  174.5850  145.0940 C   0  0  1  0  0  3  0  0  0  0  0  0
  185.7650  178.0110  144.2800 C   0  0  0  0  0  0  0  0  0  0  0  0
  186.6740  178.6660  142.1340 C   0  0  0  0  0  3  0  0  0  0  0  0
  184.4980  178.1090  145.4830 Cl  0  0  0  0  0  0  0  0  0  0  0  0
  186.8830  177.2030  144.5070 C   0  0  0  0  0  3  0  0  0  0  0  0
  187.7930  177.8580  142.3600 C   0  0  0  0  0  3  0  0  0  0  0  0
  187.8990  177.1180  143.5430 C   0  0  0  0  0  0  0  0  0  0  0  0
  185.6600  178.7420  143.0930 C   0  0  0  0  0  3  0  0  0  0  0  0
  192.4210  174.0080  143.9100 C   0  0  0  0  0  0  0  0  0  0  0  0
  193.1920  171.8220  144.6380 C   0  0  0  0  0  3  0  0  0  0  0  0
  192.9970  173.1830  144.8830 C   0  0  0  0  0  3  0  0  0  0  0  0
  191.4380  174.2390  141.6500 N   0  0  0  0  0  1  0  0  0  0  0  0
  192.8080  171.2710  143.4150 C   0  0  0  0  0  0  0  0  0  0  0  0
  193.0520  169.5660  143.1070 Cl  0  0  0  0  0  0  0  0  0  0  0  0
  192.0270  173.4450  142.6740 C   0  0  0  0  0  0  0  0  0  0  0  0
  192.2270  172.0810  142.4360 C   0  0  0  0  0  3  0  0  0  0  0  0
  194.5660  176.9340  146.6740 O   0  0  0  0  0  0  0  0  0  0  0  0
  193.4620  176.0670  144.7750 N   0  0  0  0  0  0  0  0  0  0  0  0
  195.6420  176.7910  144.2690 O   0  0  0  0  0  0  0  0  0  0  0  0
  193.5460  176.3900  146.1750 C   0  0  0  0  0  3  0  0  0  0  0  0
  194.5420  176.3360  143.8570 C   0  0  0  0  0  0  0  0  0  0  0  0
  195.6480  176.0920  141.7840 O   0  0  0  0  0  1  0  0  0  0  0  0
  194.3960  176.0520  142.3970 C   0  0  0  0  0  2  0  0  0  0  0  0
  1 26  1  1  0  0  0
  2 15  1  1  0  0  0
  2  4  1  0  0  0  0
  2  5  1  0  0  0  0
  3  4  1  0  0  0  0
  4  9  1  0  0  0  0
  5  7  1  0  0  0  0
  5  6  1  1  0  0  0
  7  1  1  6  0  0  0
  9  7  1  0  0  0  0
  9  8  1  1  0  0  0
 10 13  1  0  0  0  0
 10 12  1  0  0  0  0
 11 14  2  0  0  0  0
 11 16  1  0  0  0  0
 14 15  1  0  0  0  0
 15 13  2  0  0  0  0
 16 10  2  0  0  0  0
 17  1  1  0  0  0  0
 17 19  1  0  0  0  0
 18 19  2  0  0  0  0
 20 23  1  0  0  0  0
 21 18  1  0  0  0  0
 22 21  1  0  0  0  0
 23 17  2  0  0  0  0
 24 23  1  0  0  0  0
 24 21  2  0  0  0  0
 26 28  1  0  0  0  0
 28 25  2  0  0  0  0
 29 27  2  0  0  0  0
 29 26  1  0  0  0  0
 30 31  1  0  0  0  0
 31 29  1  0  0  0  0
M  END
>  <MODEL>
8

>  <REMARK>
 VINA RESULT:      -6.4      2.679      4.011
  Name = 
  5 active torsions:
  status: ('A' for Active; 'I' for Inactive)
    1  A    between atoms: C_3  and  C_22
    2  A    between atoms: C_4  and  C_5
    3  A    between atoms: C_4  and  N_12
    4  A    between atoms: C_4  and  C_21
    5  A    between atoms: C_27  and  C_28
                            x       y       z     vdW  Elec       q    Type
                         _______ _______ _______ _____ _____    ______ ____

>  <TORSDO>
F 5

$$$$
=
 OpenBabel11052417453D

 31 33  0  0  1  0  0  0  0  0999 V2000
  190.1920  175.2590  144.0100 C   0  0  2  0  0  3  0  0  0  0  0  0
  193.2940  174.4430  144.5050 C   0  0  2  0  0  3  0  0  0  0  0  0
  193.8650  175.6020  142.6530 O   0  0  0  0  0  1  0  0  0  0  0  0
  193.5990  175.7630  143.9710 N   0  0  0  0  0  0  0  0  0  0  0  0
  192.1170  174.5770  145.4600 C   0  0  1  0  0  3  0  0  0  0  0  0
  192.5350  174.9190  146.8850 C   0  0  0  0  0  1  0  0  0  0  0  0
  191.3470  175.7500  144.8970 C   0  0  1  0  0  3  0  0  0  0  0  0
  192.6370  177.8710  144.7070 C   0  0  0  0  0  1  0  0  0  0  0  0
  192.3590  176.5290  144.0590 C   0  0  1  0  0  3  0  0  0  0  0  0
  195.6680  171.7330  145.7580 C   0  0  0  0  0  0  0  0  0  0  0  0
  196.7960  173.8730  145.8490 C   0  0  0  0  0  3  0  0  0  0  0  0
  195.6810  170.0020  146.0090 Cl  0  0  0  0  0  0  0  0  0  0  0  0
  194.5220  172.3580  145.2610 C   0  0  0  0  0  3  0  0  0  0  0  0
  195.6490  174.5000  145.3510 C   0  0  0  0  0  3  0  0  0  0  0  0
  194.5050  173.7480  145.0620 C   0  0  0  0  0  0  0  0  0  0  0  0
  196.8060  172.4910  146.0520 C   0  0  0  0  0  3  0  0  0  0  0  0
  188.8420  175.8450  144.3420 C   0  0  0  0  0  0  0  0  0  0  0  0
  187.3940  176.7820  146.0530 C   0  0  0  0  0  3  0  0  0  0  0  0
  188.6130  176.2170  145.6720 C   0  0  0  0  0  3  0  0  0  0  0  0
  188.0060  175.6930  142.0170 N   0  0  0  0  0  1  0  0  0  0  0  0
  186.3910  176.9830  145.1040 C   0  0  0  0  0  0  0  0  0  0  0  0
  184.8630  177.6900  145.5810 Cl  0  0  0  0  0  0  0  0  0  0  0  0
  187.8260  176.0550  143.3820 C   0  0  0  0  0  0  0  0  0  0  0  0
  186.6070  176.6210  143.7720 C   0  0  0  0  0  3  0  0  0  0  0  0
  189.6520  171.7680  145.0010 O   0  0  0  0  0  0  0  0  0  0  0  0
  190.1390  173.7970  143.8950 N   0  0  0  0  0  0  0  0  0  0  0  0
  190.4560  171.9350  142.4940 O   0  0  0  0  0  0  0  0  0  0  0  0
  189.6960  173.0270  145.0260 C   0  0  0  0  0  3  0  0  0  0  0  0
  190.5510  173.1800  142.6570 C   0  0  0  0  0  0  0  0  0  0  0  0
  190.3050  173.7700  140.3830 O   0  0  0  0  0  1  0  0  0  0  0  0
  191.0700  174.0050  141.5250 C   0  0  0  0  0  2  0  0  0  0  0  0
  1 26  1  1  0  0  0
  1 17  1  0  0  0  0
  2 15  1  1  0  0  0
  2  5  1  0  0  0  0
  3  4  1  0  0  0  0
  4  9  1  0  0  0  0
  4  2  1  0  0  0  0
  5  6  1  1  0  0  0
  7  1  1  6  0  0  0
  7  5  1  0  0  0  0
  9  8  1  1  0  0  0
  9  7  1  0  0  0  0
 10 12  1  0  0  0  0
 10 16  1  0  0  0  0
 11 16  2  0  0  0  0
 13 10  2  0  0  0  0
 14 11  1  0  0  0  0
 15 13  1  0  0  0  0
 15 14  2  0  0  0  0
 17 19  1  0  0  0  0
 19 18  2  0  0  0  0
 20 23  1  0  0  0  0
 21 22  1  0  0  0  0
 21 18  1  0  0  0  0
 23 24  1  0  0  0  0
 23 17  2  0  0  0  0
 24 21  2  0  0  0  0
 25 28  2  0  0  0  0
 26 28  1  0  0  0  0
 27 29  2  0  0  0  0
 29 26  1  0  0  0  0
 30 31  1  0  0  0  0
 31 29  1  0  0  0  0
M  END
>  <MODEL>
9

>  <REMARK>
 VINA RESULT:      -6.4      1.950      7.335
  Name = 
  5 active torsions:
  status: ('A' for Active; 'I' for Inactive)
    1  A    between atoms: C_3  and  C_22
    2  A    between atoms: C_4  and  C_5
    3  A    between atoms: C_4  and  N_12
    4  A    between atoms: C_4  and  C_21
    5  A    between atoms: C_27  and  C_28
                            x       y       z     vdW  Elec       q    Type
                         _______ _______ _______ _____ _____    ______ ____

>  <TORSDO>
F 5

$$$$
