=
 OpenBabel11052418483D

 34 39  0  0  1  0  0  0  0  0999 V2000
  187.1140  177.2930  146.3440 C   0  0  1  0  0  3  0  0  0  0  0  0
  185.0170  178.1570  145.0910 C   0  0  2  0  0  3  0  0  0  0  0  0
  186.9990  176.9470  143.9510 C   0  0  0  0  0  0  0  0  0  0  0  0
  187.0890  176.9550  141.5460 C   0  0  0  0  0  0  0  0  0  0  0  0
  185.6430  179.0770  147.3620 C   0  0  0  0  0  2  0  0  0  0  0  0
  185.3610  179.4140  145.8830 C   0  0  0  0  0  2  0  0  0  0  0  0
  185.2810  177.9670  142.5680 C   0  0  0  0  0  0  0  0  0  0  0  0
  186.1520  177.0830  145.1780 C   0  0  1  0  0  3  0  0  0  0  0  0
  186.2810  177.3670  140.5700 C   0  0  0  0  0  3  0  0  0  0  0  0
  186.3660  177.7340  147.5940 C   0  0  0  0  0  2  0  0  0  0  0  0
  188.4570  175.3850  145.2220 C   0  0  0  0  0  2  0  0  0  0  0  0
  188.0050  176.0530  146.5500 C   0  0  0  0  0  2  0  0  0  0  0  0
  184.4160  178.4680  143.6890 C   0  0  0  0  0  2  0  0  0  0  0  0
  188.2930  176.1170  141.5100 C   0  0  0  0  0  3  0  0  0  0  0  0
  188.8960  175.7680  142.6760 C   0  0  0  0  0  0  0  0  0  0  0  0
  185.1300  178.0310  141.2450 C   0  0  0  0  0  0  0  0  0  0  0  0
  186.5100  177.3010  142.7940 C   0  0  0  0  0  0  0  0  0  0  0  0
  188.3870  176.3420  144.0200 C   0  0  1  0  0  3  0  0  0  0  0  0
  189.8010  172.6880  144.2740 C   0  0  0  0  0  2  0  0  0  0  0  0
  191.2150  173.1310  144.6330 C   0  0  0  0  0  2  0  0  0  0  0  0
  190.1140  174.9930  142.6330 N   0  0  0  0  0  0  0  0  0  0  0  0
  191.2640  174.6490  144.7810 C   0  0  0  0  0  2  0  0  0  0  0  0
  190.1830  173.7160  141.9340 C   0  0  0  0  0  2  0  0  0  0  0  0
  191.2830  175.3580  143.4290 C   0  0  0  0  0  2  0  0  0  0  0  0
  189.5600  172.5870  142.7620 C   0  0  0  0  0  2  0  0  0  0  0  0
  183.9930  178.6910  140.5430 C   0  0  0  0  0  2  0  0  0  0  0  0
  182.8230  177.7340  140.4410 C   0  0  0  0  0  2  0  0  0  0  0  0
  181.6620  178.2690  141.2500 C   0  0  0  0  0  2  0  0  0  0  0  0
  180.4170  178.2980  140.3860 C   0  0  0  0  0  2  0  0  0  0  0  0
  178.1370  179.6400  140.8120 O   0  0  0  0  0  0  0  0  0  0  0  0
  179.3950  178.9290  142.7900 O   0  0  0  0  0  0  0  0  0  0  0  0
  178.9750  178.5410  141.4010 S   0  0  0  0  0  0  0  0  0  0  0  0
  178.0000  176.5580  142.7810 O   0  0  0  0  0  1  0  0  0  0  0  0
  178.0160  177.0430  141.4730 C   0  0  0  0  0  2  0  0  0  0  0  0
  1 12  1  1  0  0  0
  1 10  1  0  0  0  0
  2 13  1  6  0  0  0
  2  8  1  0  0  0  0
  2  6  1  0  0  0  0
  3 18  1  0  0  0  0
  4 17  1  0  0  0  0
  5 10  1  0  0  0  0
  6  5  1  0  0  0  0
  7 17  1  0  0  0  0
  7 13  1  0  0  0  0
  8  3  1  6  0  0  0
  8  1  1  0  0  0  0
  9 16  1  0  0  0  0
  9  4  2  0  0  0  0
 11 12  1  0  0  0  0
 14  4  1  0  0  0  0
 14 15  2  0  0  0  0
 15 18  1  0  0  0  0
 16  7  2  0  0  0  0
 17  3  2  0  0  0  0
 18 11  1  1  0  0  0
 19 20  1  0  0  0  0
 20 22  1  0  0  0  0
 21 15  1  0  0  0  0
 21 24  1  0  0  0  0
 23 21  1  0  0  0  0
 23 25  1  0  0  0  0
 24 22  1  0  0  0  0
 25 19  1  0  0  0  0
 26 16  1  0  0  0  0
 27 26  1  0  0  0  0
 27 28  1  0  0  0  0
 29 28  1  0  0  0  0
 29 32  1  0  0  0  0
 30 32  2  0  0  0  0
 32 34  1  0  0  0  0
 32 31  2  0  0  0  0
 34 33  1  0  0  0  0
M  END
>  <MODEL>
1

>  <REMARK>
 VINA RESULT:      -8.7      0.000      0.000
  Name = 
  7 active torsions:
  status: ('A' for Active; 'I' for Inactive)
    1  A    between atoms: C_3  and  C_13
    2  A    between atoms: C_3  and  C_17
    3  A    between atoms: N_12  and  C_28
    4  A    between atoms: C_13  and  C_33
    5  A    between atoms: C_14  and  S_34
    6  A    between atoms: C_17  and  C_29
    7  A    between atoms: C_33  and  S_34
                            x       y       z     vdW  Elec       q    Type
                         _______ _______ _______ _____ _____    ______ ____

>  <TORSDO>
F 7

$$$$
=
 OpenBabel11052418483D

 34 39  0  0  1  0  0  0  0  0999 V2000
  187.1320  177.2620  146.6940 C   0  0  1  0  0  3  0  0  0  0  0  0
  185.2510  178.1060  145.1260 C   0  0  2  0  0  3  0  0  0  0  0  0
  187.3780  176.8770  144.3170 C   0  0  0  0  0  0  0  0  0  0  0  0
  187.8290  176.8460  141.9530 C   0  0  0  0  0  0  0  0  0  0  0  0
  185.5310  179.0640  147.4500 C   0  0  0  0  0  2  0  0  0  0  0  0
  185.4750  179.3770  145.9410 C   0  0  0  0  0  2  0  0  0  0  0  0
  185.8910  177.8750  142.6750 C   0  0  0  0  0  0  0  0  0  0  0  0
  186.3560  177.0340  145.4000 C   0  0  1  0  0  3  0  0  0  0  0  0
  187.1780  177.2420  140.8600 C   0  0  0  0  0  3  0  0  0  0  0  0
  186.2060  177.7240  147.8100 C   0  0  0  0  0  2  0  0  0  0  0  0
  188.6230  175.3350  145.8190 C   0  0  0  0  0  2  0  0  0  0  0  0
  187.9780  176.0250  147.0520 C   0  0  0  0  0  2  0  0  0  0  0  0
  184.8680  178.3940  143.6450 C   0  0  0  0  0  2  0  0  0  0  0  0
  189.0220  176.0060  142.1130 C   0  0  0  0  0  3  0  0  0  0  0  0
  189.4420  175.6760  143.3620 C   0  0  0  0  0  0  0  0  0  0  0  0
  185.9410  177.9180  141.3440 C   0  0  0  0  0  0  0  0  0  0  0  0
  187.0700  177.2130  143.0940 C   0  0  0  0  0  0  0  0  0  0  0  0
  188.7380  176.2730  144.6040 C   0  0  1  0  0  3  0  0  0  0  0  0
  192.8450  176.3970  142.4910 C   0  0  0  0  0  2  0  0  0  0  0  0
  193.1460  175.0030  141.9520 C   0  0  0  0  0  2  0  0  0  0  0  0
  190.6500  174.9000  143.5150 N   0  0  0  0  0  0  0  0  0  0  0  0
  191.8630  174.3520  141.4450 C   0  0  0  0  0  2  0  0  0  0  0  0
  191.6710  175.2590  144.4920 C   0  0  0  0  0  2  0  0  0  0  0  0
  190.9940  173.8270  142.5860 C   0  0  0  0  0  2  0  0  0  0  0  0
  192.5430  176.4160  143.9960 C   0  0  0  0  0  2  0  0  0  0  0  0
  184.9250  178.5670  140.4670 C   0  0  0  0  0  2  0  0  0  0  0  0
  183.6650  177.7270  140.4280 C   0  0  0  0  0  2  0  0  0  0  0  0
  182.4800  178.5760  140.8330 C   0  0  0  0  0  2  0  0  0  0  0  0
  181.2070  177.9540  140.2940 C   0  0  0  0  0  2  0  0  0  0  0  0
  178.7940  178.8280  139.5230 O   0  0  0  0  0  0  0  0  0  0  0  0
  180.2860  180.4640  140.5700 O   0  0  0  0  0  0  0  0  0  0  0  0
  179.8240  179.0340  140.5960 S   0  0  0  0  0  0  0  0  0  0  0  0
  178.9410  177.3000  142.3280 O   0  0  0  0  0  1  0  0  0  0  0  0
  179.1020  178.6780  142.1840 C   0  0  0  0  0  2  0  0  0  0  0  0
  1 12  1  1  0  0  0
  1 10  1  0  0  0  0
  2 13  1  6  0  0  0
  2  8  1  0  0  0  0
  2  6  1  0  0  0  0
  3 18  1  0  0  0  0
  4 14  1  0  0  0  0
  4 17  1  0  0  0  0
  5 10  1  0  0  0  0
  6  5  1  0  0  0  0
  7 17  1  0  0  0  0
  7 13  1  0  0  0  0
  8  3  1  6  0  0  0
  8  1  1  0  0  0  0
  9 16  1  0  0  0  0
  9  4  2  0  0  0  0
 11 12  1  0  0  0  0
 14 15  2  0  0  0  0
 15 21  1  0  0  0  0
 15 18  1  0  0  0  0
 16  7  2  0  0  0  0
 17  3  2  0  0  0  0
 18 11  1  1  0  0  0
 19 25  1  0  0  0  0
 20 19  1  0  0  0  0
 21 23  1  0  0  0  0
 22 20  1  0  0  0  0
 22 24  1  0  0  0  0
 24 21  1  0  0  0  0
 25 23  1  0  0  0  0
 26 16  1  0  0  0  0
 27 26  1  0  0  0  0
 27 28  1  0  0  0  0
 29 32  1  0  0  0  0
 29 28  1  0  0  0  0
 30 32  2  0  0  0  0
 31 32  2  0  0  0  0
 32 34  1  0  0  0  0
 34 33  1  0  0  0  0
M  END
>  <MODEL>
2

>  <REMARK>
 VINA RESULT:      -8.6      1.143      1.888
  Name = 
  7 active torsions:
  status: ('A' for Active; 'I' for Inactive)
    1  A    between atoms: C_3  and  C_13
    2  A    between atoms: C_3  and  C_17
    3  A    between atoms: N_12  and  C_28
    4  A    between atoms: C_13  and  C_33
    5  A    between atoms: C_14  and  S_34
    6  A    between atoms: C_17  and  C_29
    7  A    between atoms: C_33  and  S_34
                            x       y       z     vdW  Elec       q    Type
                         _______ _______ _______ _____ _____    ______ ____

>  <TORSDO>
F 7

$$$$
=
 OpenBabel11052418483D

 34 39  0  0  1  0  0  0  0  0999 V2000
  189.6400  174.2710  141.2030 C   0  0  1  0  0  3  0  0  0  0  0  0
  191.6850  173.8650  142.7410 C   0  0  2  0  0  3  0  0  0  0  0  0
  189.5470  175.1280  143.4650 C   0  0  0  0  0  0  0  0  0  0  0  0
  189.6000  176.3250  145.5520 C   0  0  0  0  0  0  0  0  0  0  0  0
  191.9060  173.7330  140.2250 C   0  0  0  0  0  2  0  0  0  0  0  0
  192.4090  174.4130  141.5150 C   0  0  0  0  0  2  0  0  0  0  0  0
  191.4810  175.1320  144.9370 C   0  0  0  0  0  0  0  0  0  0  0  0
  190.1340  174.0340  142.6280 C   0  0  1  0  0  3  0  0  0  0  0  0
  190.4720  176.4430  146.5540 C   0  0  0  0  0  2  0  0  0  0  0  0
  190.4000  173.4010  140.2130 C   0  0  0  0  0  2  0  0  0  0  0  0
  187.3630  174.7010  142.3580 C   0  0  0  0  0  2  0  0  0  0  0  0
  188.1080  174.1240  141.1230 C   0  0  0  0  0  2  0  0  0  0  0  0
  192.3660  174.2730  144.0800 C   0  0  0  0  0  2  0  0  0  0  0  0
  188.1930  176.7280  145.4470 C   0  0  0  0  0  3  0  0  0  0  0  0
  187.4920  176.4110  144.3270 C   0  0  0  0  0  0  0  0  0  0  0  0
  191.6830  175.6830  146.1340 C   0  0  0  0  0  0  0  0  0  0  0  0
  190.1800  175.5230  144.5370 C   0  0  0  0  0  0  0  0  0  0  0  0
  188.2000  175.7360  143.1290 C   0  0  0  0  0  0  0  0  0  0  0  0
  186.1160  179.6750  143.7690 C   0  0  0  0  0  2  0  0  0  0  0  0
  184.9750  179.5150  144.7680 C   0  0  0  0  0  2  0  0  0  0  0  0
  186.1260  176.8620  144.2040 N   0  0  0  0  0  0  0  0  0  0  0  0
  185.3710  178.5210  145.8560 C   0  0  0  0  0  2  0  0  0  0  0  0
  185.5760  177.2940  142.9240 C   0  0  0  0  0  2  0  0  0  0  0  0
  185.2800  177.0750  145.3750 C   0  0  0  0  0  2  0  0  0  0  0  0
  186.0180  178.7190  142.5740 C   0  0  0  0  0  2  0  0  0  0  0  0
  192.9410  175.5780  146.9250 C   0  0  0  0  0  2  0  0  0  0  0  0
  193.7810  176.8220  146.7260 C   0  0  0  0  0  2  0  0  0  0  0  0
  194.7880  176.5790  145.6230 C   0  0  0  0  0  2  0  0  0  0  0  0
  195.4070  175.2070  145.7990 C   0  0  0  0  0  2  0  0  0  0  0  0
  195.7080  173.4870  143.7660 O   0  0  0  0  0  0  0  0  0  0  0  0
  197.7430  174.5050  144.6710 O   0  0  0  0  0  0  0  0  0  0  0  0
  196.3000  174.7470  144.3290 S   0  0  0  0  0  0  0  0  0  0  0  0
  197.2770  176.9090  143.2540 O   0  0  0  0  0  1  0  0  0  0  0  0
  196.1930  176.0430  143.1140 C   0  0  0  0  0  2  0  0  0  0  0  0
  1 10  1  6  0  0  0
  1  8  1  0  0  0  0
  2  6  1  6  0  0  0
  2 13  1  0  0  0  0
  3 17  1  0  0  0  0
  4  9  1  0  0  0  0
  5  6  1  0  0  0  0
  7 16  2  0  0  0  0
  8  2  1  0  0  0  0
  8  3  1  1  0  0  0
 10  5  1  0  0  0  0
 11 18  1  0  0  0  0
 12  1  1  0  0  0  0
 12 11  1  0  0  0  0
 13  7  1  0  0  0  0
 14  4  1  0  0  0  0
 15 14  2  0  0  0  0
 16  9  1  0  0  0  0
 16 26  1  0  0  0  0
 17  7  1  0  0  0  0
 17  4  2  0  0  0  0
 18  3  2  0  0  0  0
 18 15  1  0  0  0  0
 19 20  1  0  0  0  0
 20 22  1  0  0  0  0
 21 15  1  0  0  0  0
 21 24  1  0  0  0  0
 23 21  1  0  0  0  0
 24 22  1  0  0  0  0
 25 23  1  0  0  0  0
 25 19  1  0  0  0  0
 27 26  1  0  0  0  0
 28 29  1  0  0  0  0
 28 27  1  0  0  0  0
 30 32  2  0  0  0  0
 32 31  2  0  0  0  0
 32 29  1  0  0  0  0
 34 33  1  0  0  0  0
 34 32  1  0  0  0  0
M  END
>  <MODEL>
3

>  <REMARK>
 VINA RESULT:      -8.1      6.657     10.372
  Name = 
  7 active torsions:
  status: ('A' for Active; 'I' for Inactive)
    1  A    between atoms: C_3  and  C_13
    2  A    between atoms: C_3  and  C_17
    3  A    between atoms: N_12  and  C_28
    4  A    between atoms: C_13  and  C_33
    5  A    between atoms: C_14  and  S_34
    6  A    between atoms: C_17  and  C_29
    7  A    between atoms: C_33  and  S_34
                            x       y       z     vdW  Elec       q    Type
                         _______ _______ _______ _____ _____    ______ ____

>  <TORSDO>
F 7

$$$$
=
 OpenBabel11052418483D

 34 39  0  0  1  0  0  0  0  0999 V2000
  186.8630  177.2640  142.2950 C   0  0  1  0  0  3  0  0  0  0  0  0
  187.9540  177.8020  144.5830 C   0  0  2  0  0  3  0  0  0  0  0  0
  188.4440  175.6710  143.2020 C   0  0  0  0  0  0  0  0  0  0  0  0
  189.6870  173.9040  144.2620 C   0  0  0  0  0  0  0  0  0  0  0  0
  185.7950  178.9160  143.8800 C   0  0  0  0  0  2  0  0  0  0  0  0
  186.4930  178.0480  144.9470 C   0  0  0  0  0  2  0  0  0  0  0  0
  189.3130  175.8410  145.4640 C   0  0  0  0  0  0  0  0  0  0  0  0
  188.1000  177.1280  143.1790 C   0  0  1  0  0  3  0  0  0  0  0  0
  190.3170  173.7570  145.4270 C   0  0  0  0  0  2  0  0  0  0  0  0
  186.2490  178.6500  142.4300 C   0  0  0  0  0  2  0  0  0  0  0  0
  188.1350  175.6360  140.7350 C   0  0  0  0  0  2  0  0  0  0  0  0
  187.1790  176.8550  140.8430 C   0  0  0  0  0  2  0  0  0  0  0  0
  188.7830  177.2140  145.7620 C   0  0  0  0  0  2  0  0  0  0  0  0
  189.7030  173.0800  143.0480 C   0  0  0  0  0  3  0  0  0  0  0  0
  189.0260  173.5010  141.9480 C   0  0  0  0  0  0  0  0  0  0  0  0
  190.0530  175.0070  146.1950 C   0  0  0  0  0  0  0  0  0  0  0  0
  189.0570  175.1740  144.2410 C   0  0  0  0  0  0  0  0  0  0  0  0
  188.1530  174.7770  142.0120 C   0  0  0  0  0  0  0  0  0  0  0  0
  190.9680  173.5660  138.9350 C   0  0  0  0  0  2  0  0  0  0  0  0
  189.7910  173.2790  138.0080 C   0  0  0  0  0  2  0  0  0  0  0  0
  188.9950  172.6590  140.7770 N   0  0  0  0  0  0  0  0  0  0  0  0
  188.4950  173.7770  138.6420 C   0  0  0  0  0  2  0  0  0  0  0  0
  190.0640  171.7100  140.4890 C   0  0  0  0  0  2  0  0  0  0  0  0
  187.9900  172.8340  139.7320 C   0  0  0  0  0  2  0  0  0  0  0  0
  191.2890  172.4070  139.8870 C   0  0  0  0  0  2  0  0  0  0  0  0
  190.5240  175.2710  147.5840 C   0  0  0  0  0  2  0  0  0  0  0  0
  191.6730  176.2570  147.5610 C   0  0  0  0  0  2  0  0  0  0  0  0
  192.8250  175.6700  146.7750 C   0  0  0  0  0  2  0  0  0  0  0  0
  193.3160  176.6870  145.7650 C   0  0  0  0  0  2  0  0  0  0  0  0
  193.4360  174.4250  144.3330 O   0  0  0  0  0  0  0  0  0  0  0  0
  194.8820  176.2690  143.6210 O   0  0  0  0  0  0  0  0  0  0  0  0
  193.5310  175.9150  144.1750 S   0  0  0  0  0  0  0  0  0  0  0  0
  191.6520  177.6110  143.5590 O   0  0  0  0  0  1  0  0  0  0  0  0
  192.2700  176.4700  143.0480 C   0  0  0  0  0  2  0  0  0  0  0  0
  1 12  1  6  0  0  0
  1 10  1  0  0  0  0
  1  8  1  0  0  0  0
  2  6  1  1  0  0  0
  2 13  1  0  0  0  0
  3 17  1  0  0  0  0
  4  9  1  0  0  0  0
  5  6  1  0  0  0  0
  7 13  1  0  0  0  0
  7 16  2  0  0  0  0
  8  3  1  1  0  0  0
  8  2  1  0  0  0  0
  9 16  1  0  0  0  0
 10  5  1  0  0  0  0
 11 12  1  0  0  0  0
 11 18  1  0  0  0  0
 14  4  1  0  0  0  0
 15 18  1  0  0  0  0
 15 14  2  0  0  0  0
 16 26  1  0  0  0  0
 17  4  2  0  0  0  0
 17  7  1  0  0  0  0
 18  3  2  0  0  0  0
 19 25  1  0  0  0  0
 20 22  1  0  0  0  0
 20 19  1  0  0  0  0
 21 15  1  0  0  0  0
 22 24  1  0  0  0  0
 23 21  1  0  0  0  0
 24 21  1  0  0  0  0
 25 23  1  0  0  0  0
 27 26  1  0  0  0  0
 28 27  1  0  0  0  0
 29 28  1  0  0  0  0
 31 32  2  0  0  0  0
 32 30  2  0  0  0  0
 32 29  1  0  0  0  0
 34 33  1  0  0  0  0
 34 32  1  0  0  0  0
M  END
>  <MODEL>
4

>  <REMARK>
 VINA RESULT:      -8.1      5.377      8.190
  Name = 
  7 active torsions:
  status: ('A' for Active; 'I' for Inactive)
    1  A    between atoms: C_3  and  C_13
    2  A    between atoms: C_3  and  C_17
    3  A    between atoms: N_12  and  C_28
    4  A    between atoms: C_13  and  C_33
    5  A    between atoms: C_14  and  S_34
    6  A    between atoms: C_17  and  C_29
    7  A    between atoms: C_33  and  S_34
                            x       y       z     vdW  Elec       q    Type
                         _______ _______ _______ _____ _____    ______ ____

>  <TORSDO>
F 7

$$$$
=
 OpenBabel11052418483D

 34 39  0  0  1  0  0  0  0  0999 V2000
  191.6190  174.9060  145.7240 C   0  0  1  0  0  3  0  0  0  0  0  0
  189.2580  175.9660  145.8560 C   0  0  2  0  0  3  0  0  0  0  0  0
  190.2100  174.7870  143.7600 C   0  0  0  0  0  0  0  0  0  0  0  0
  188.9960  175.0120  141.6940 C   0  0  0  0  0  0  0  0  0  0  0  0
  191.0790  176.6480  147.4730 C   0  0  0  0  0  2  0  0  0  0  0  0
  190.0780  177.1300  146.4040 C   0  0  0  0  0  2  0  0  0  0  0  0
  188.1100  175.9990  143.5860 C   0  0  0  0  0  0  0  0  0  0  0  0
  190.1680  174.8440  145.2550 C   0  0  1  0  0  3  0  0  0  0  0  0
  187.8280  175.5450  141.3350 C   0  0  0  0  0  3  0  0  0  0  0  0
  191.6970  175.2610  147.2020 C   0  0  0  0  0  2  0  0  0  0  0  0
  191.9840  173.0560  143.9510 C   0  0  0  0  0  2  0  0  0  0  0  0
  192.3730  173.6170  145.3460 C   0  0  0  0  0  2  0  0  0  0  0  0
  188.0270  176.4290  145.0220 C   0  0  0  0  0  2  0  0  0  0  0  0
  189.9180  174.1330  140.9650 C   0  0  0  0  0  3  0  0  0  0  0  0
  191.0200  173.6540  141.5980 C   0  0  0  0  0  0  0  0  0  0  0  0
  187.2790  176.1900  142.5620 C   0  0  0  0  0  0  0  0  0  0  0  0
  189.2080  175.2660  143.0730 C   0  0  1  0  0  3  0  0  0  0  0  0
  191.3610  174.1220  143.0320 C   0  0  0  0  0  0  0  0  0  0  0  0
  192.1820  173.8600  138.2120 C   0  0  0  0  0  2  0  0  0  0  0  0
  192.1270  172.3580  137.9570 C   0  0  0  0  0  2  0  0  0  0  0  0
  191.9540  172.8380  140.8590 N   0  0  0  0  0  0  0  0  0  0  0  0
  191.0730  171.7150  138.8540 C   0  0  0  0  0  2  0  0  0  0  0  0
  193.2770  173.3300  140.4920 C   0  0  0  0  0  2  0  0  0  0  0  0
  191.5650  171.5500  140.2910 C   0  0  0  0  0  2  0  0  0  0  0  0
  193.2130  174.2600  139.2750 C   0  0  0  0  0  2  0  0  0  0  0  0
  186.0030  176.9580  142.6240 C   0  0  0  0  0  2  0  0  0  0  0  0
  186.2910  178.4430  142.5470 C   0  0  0  0  0  2  0  0  0  0  0  0
  185.7380  179.1280  143.7770 C   0  0  0  0  0  2  0  0  0  0  0  0
  184.5370  178.3570  144.2860 C   0  0  0  0  0  2  0  0  0  0  0  0
  184.9640  176.6550  146.3120 O   0  0  0  0  0  0  0  0  0  0  0  0
  183.3780  178.4800  146.7090 O   0  0  0  0  0  0  0  0  0  0  0  0
  184.6720  178.1040  146.0440 S   0  0  0  0  0  0  0  0  0  0  0  0
  186.6850  178.3790  147.6740 O   0  0  0  0  0  1  0  0  0  0  0  0
  185.9870  179.1030  146.7080 C   0  0  0  0  0  2  0  0  0  0  0  0
  1 12  1  1  0  0  0
  1 10  1  0  0  0  0
  2 13  1  6  0  0  0
  2  6  1  0  0  0  0
  6  5  1  0  0  0  0
  7 13  1  0  0  0  0
  8  3  1  6  0  0  0
  8  1  1  0  0  0  0
  8  2  1  0  0  0  0
  9  4  2  0  0  0  0
  9 16  1  0  0  0  0
 10  5  1  0  0  0  0
 11 12  1  0  0  0  0
 14 15  2  0  0  0  0
 14  4  1  0  0  0  0
 15 18  1  0  0  0  0
 16 26  1  0  0  0  0
 16  7  2  0  0  0  0
 17  4  1  1  0  0  0
 17  7  1  0  0  0  0
 17  3  1  0  0  0  0
 18  3  2  0  0  0  0
 18 11  1  0  0  0  0
 19 25  1  0  0  0  0
 20 19  1  0  0  0  0
 20 22  1  0  0  0  0
 21 15  1  0  0  0  0
 22 24  1  0  0  0  0
 23 21  1  0  0  0  0
 24 21  1  0  0  0  0
 25 23  1  0  0  0  0
 27 26  1  0  0  0  0
 27 28  1  0  0  0  0
 28 29  1  0  0  0  0
 29 32  1  0  0  0  0
 32 30  2  0  0  0  0
 32 34  1  0  0  0  0
 32 31  2  0  0  0  0
 34 33  1  0  0  0  0
M  END
>  <MODEL>
5

>  <REMARK>
 VINA RESULT:      -7.8      3.345      5.399
  Name = 
  7 active torsions:
  status: ('A' for Active; 'I' for Inactive)
    1  A    between atoms: C_3  and  C_13
    2  A    between atoms: C_3  and  C_17
    3  A    between atoms: N_12  and  C_28
    4  A    between atoms: C_13  and  C_33
    5  A    between atoms: C_14  and  S_34
    6  A    between atoms: C_17  and  C_29
    7  A    between atoms: C_33  and  S_34
                            x       y       z     vdW  Elec       q    Type
                         _______ _______ _______ _____ _____    ______ ____

>  <TORSDO>
F 7

$$$$
=
 OpenBabel11052418483D

 34 39  0  0  1  0  0  0  0  0999 V2000
  190.7490  173.4760  140.9840 C   0  0  1  0  0  3  0  0  0  0  0  0
  188.9720  174.9670  142.1390 C   0  0  2  0  0  3  0  0  0  0  0  0
  191.3860  174.6420  143.0080 C   0  0  0  0  0  0  0  0  0  0  0  0
  191.9080  175.4580  145.2110 C   0  0  0  0  0  0  0  0  0  0  0  0
  188.2870  173.1420  140.5270 C   0  0  0  0  0  2  0  0  0  0  0  0
  188.1440  173.6980  141.9590 C   0  0  0  0  0  2  0  0  0  0  0  0
  189.7740  175.8140  144.3990 C   0  0  0  0  0  0  0  0  0  0  0  0
  190.4840  174.7280  141.8160 C   0  0  1  0  0  3  0  0  0  0  0  0
  191.2610  176.1680  146.1350 C   0  0  0  0  0  2  0  0  0  0  0  0
  189.6890  173.3060  139.9060 C   0  0  0  0  0  2  0  0  0  0  0  0
  193.2350  174.0130  141.4690 C   0  0  0  0  0  2  0  0  0  0  0  0
  192.1950  173.4670  140.4530 C   0  0  0  0  0  2  0  0  0  0  0  0
  188.6190  175.7420  143.4420 C   0  0  0  0  0  2  0  0  0  0  0  0
  193.3210  175.0780  145.1030 C   0  0  0  0  0  3  0  0  0  0  0  0
  193.7480  174.4100  143.9990 C   0  0  0  0  0  0  0  0  0  0  0  0
  189.8850  176.3750  145.6030 C   0  0  0  0  0  0  0  0  0  0  0  0
  191.0300  175.2190  144.1230 C   0  0  0  0  0  0  0  0  0  0  0  0
  192.7340  173.9540  142.9230 C   0  0  0  0  0  0  0  0  0  0  0  0
  195.5370  171.8490  145.7590 C   0  0  0  0  0  2  0  0  0  0  0  0
  196.7940  172.6840  145.9740 C   0  0  0  0  0  2  0  0  0  0  0  0
  195.1260  173.9860  143.9240 N   0  0  0  0  0  0  0  0  0  0  0  0
  196.4370  174.1670  145.9990 C   0  0  0  0  0  2  0  0  0  0  0  0
  195.5030  172.7120  143.3240 C   0  0  0  0  0  2  0  0  0  0  0  0
  196.1920  174.7230  144.5980 C   0  0  0  0  0  2  0  0  0  0  0  0
  195.2540  171.5430  144.2830 C   0  0  0  0  0  2  0  0  0  0  0  0
  188.7880  177.0800  146.3240 C   0  0  0  0  0  2  0  0  0  0  0  0
  187.8260  176.0700  146.9160 C   0  0  0  0  0  2  0  0  0  0  0  0
  186.5620  176.7750  147.3570 C   0  0  0  0  0  2  0  0  0  0  0  0
  185.5830  176.8220  146.2020 C   0  0  0  0  0  2  0  0  0  0  0  0
  185.6760  179.4070  146.9010 O   0  0  0  0  0  0  0  0  0  0  0  0
  183.7080  178.6660  145.6450 O   0  0  0  0  0  0  0  0  0  0  0  0
  185.1950  178.5120  145.7960 S   0  0  0  0  0  0  0  0  0  0  0  0
  185.5650  180.2460  143.8880 O   0  0  0  0  0  1  0  0  0  0  0  0
  185.9920  178.9750  144.2730 C   0  0  0  0  0  2  0  0  0  0  0  0
  1 10  1  6  0  0  0
  1  8  1  0  0  0  0
  2  6  1  1  0  0  0
  2 13  1  0  0  0  0
  3 17  1  0  0  0  0
  4  9  1  0  0  0  0
  5  6  1  0  0  0  0
  7 16  2  0  0  0  0
  8  2  1  0  0  0  0
  8  3  1  1  0  0  0
 10  5  1  0  0  0  0
 11 18  1  0  0  0  0
 12  1  1  0  0  0  0
 12 11  1  0  0  0  0
 13  7  1  0  0  0  0
 14  4  1  0  0  0  0
 15 14  2  0  0  0  0
 16  9  1  0  0  0  0
 16 26  1  0  0  0  0
 17  7  1  0  0  0  0
 17  4  2  0  0  0  0
 18  3  2  0  0  0  0
 18 15  1  0  0  0  0
 19 20  1  0  0  0  0
 20 22  1  0  0  0  0
 21 15  1  0  0  0  0
 21 24  1  0  0  0  0
 23 21  1  0  0  0  0
 23 25  1  0  0  0  0
 24 22  1  0  0  0  0
 25 19  1  0  0  0  0
 26 27  1  0  0  0  0
 27 28  1  0  0  0  0
 29 28  1  0  0  0  0
 31 32  2  0  0  0  0
 32 29  1  0  0  0  0
 32 30  2  0  0  0  0
 33 34  1  0  0  0  0
 34 32  1  0  0  0  0
M  END
>  <MODEL>
6

>  <REMARK>
 VINA RESULT:      -7.8      3.833      6.857
  Name = 
  7 active torsions:
  status: ('A' for Active; 'I' for Inactive)
    1  A    between atoms: C_3  and  C_13
    2  A    between atoms: C_3  and  C_17
    3  A    between atoms: N_12  and  C_28
    4  A    between atoms: C_13  and  C_33
    5  A    between atoms: C_14  and  S_34
    6  A    between atoms: C_17  and  C_29
    7  A    between atoms: C_33  and  S_34
                            x       y       z     vdW  Elec       q    Type
                         _______ _______ _______ _____ _____    ______ ____

>  <TORSDO>
F 7

$$$$
=
 OpenBabel11052418483D

 34 39  0  0  1  0  0  0  0  0999 V2000
  192.5050  176.3970  146.7190 C   0  0  1  0  0  3  0  0  0  0  0  0
  190.4560  174.8730  146.2820 C   0  0  2  0  0  3  0  0  0  0  0  0
  192.6210  174.8430  144.8670 C   0  0  0  0  0  0  0  0  0  0  0  0
  192.5970  173.6090  142.8010 C   0  0  0  0  0  0  0  0  0  0  0  0
  190.2270  177.0050  147.6240 C   0  0  0  0  0  2  0  0  0  0  0  0
  189.7410  176.2170  146.3900 C   0  0  0  0  0  2  0  0  0  0  0  0
  190.6920  173.5760  144.1060 C   0  0  0  0  0  0  0  0  0  0  0  0
  192.0100  175.0430  146.2190 C   0  0  1  0  0  3  0  0  0  0  0  0
  191.7310  172.8010  142.1910 C   0  0  0  0  0  3  0  0  0  0  0  0
  191.7260  176.8410  147.9480 C   0  0  0  0  0  2  0  0  0  0  0  0
  194.7940  175.5830  145.8220 C   0  0  0  0  0  2  0  0  0  0  0  0
  194.0340  176.3830  146.9150 C   0  0  0  0  0  2  0  0  0  0  0  0
  189.7870  173.9100  145.2580 C   0  0  0  0  0  2  0  0  0  0  0  0
  194.0120  173.8870  142.5270 C   0  0  0  0  0  3  0  0  0  0  0  0
  194.7040  174.7040  143.3640 C   0  0  0  0  0  0  0  0  0  0  0  0
  190.5040  172.8040  143.0360 C   0  0  0  0  0  0  0  0  0  0  0  0
  191.9990  174.1070  143.9860 C   0  0  0  0  0  0  0  0  0  0  0  0
  193.9790  175.4230  144.5260 C   0  0  1  0  0  3  0  0  0  0  0  0
  196.2830  175.6720  140.2940 C   0  0  0  0  0  2  0  0  0  0  0  0
  197.5200  174.8050  140.4970 C   0  0  0  0  0  2  0  0  0  0  0  0
  196.0780  175.0210  143.0580 N   0  0  0  0  0  0  0  0  0  0  0  0
  197.1760  173.6030  141.3730 C   0  0  0  0  0  2  0  0  0  0  0  0
  196.5020  176.3860  142.7680 C   0  0  0  0  0  2  0  0  0  0  0  0
  197.0780  173.9770  142.8500 C   0  0  0  0  0  2  0  0  0  0  0  0
  196.1470  176.7920  141.3340 C   0  0  0  0  0  2  0  0  0  0  0  0
  189.2450  172.0720  142.7170 C   0  0  0  0  0  2  0  0  0  0  0  0
  188.5450  172.7350  141.5480 C   0  0  0  0  0  2  0  0  0  0  0  0
  187.9710  174.0630  141.9920 C   0  0  0  0  0  2  0  0  0  0  0  0
  188.3010  175.1240  140.9620 C   0  0  0  0  0  2  0  0  0  0  0  0
  186.3750  176.3540  142.3620 O   0  0  0  0  0  0  0  0  0  0  0  0
  186.8140  177.1910  140.1020 O   0  0  0  0  0  0  0  0  0  0  0  0
  187.4460  176.6370  141.3480 S   0  0  0  0  0  0  0  0  0  0  0  0
  188.5160  177.8250  143.4050 O   0  0  0  0  0  1  0  0  0  0  0  0
  188.5840  177.8340  142.0110 C   0  0  0  0  0  2  0  0  0  0  0  0
  1 12  1  1  0  0  0
  1 10  1  0  0  0  0
  2 13  1  6  0  0  0
  2  6  1  0  0  0  0
  4 17  1  0  0  0  0
  5 10  1  0  0  0  0
  6  5  1  0  0  0  0
  7 13  1  0  0  0  0
  8  3  1  6  0  0  0
  8  2  1  0  0  0  0
  8  1  1  0  0  0  0
  9  4  2  0  0  0  0
  9 16  1  0  0  0  0
 11 12  1  0  0  0  0
 14  4  1  0  0  0  0
 14 15  2  0  0  0  0
 15 18  1  0  0  0  0
 16  7  2  0  0  0  0
 17  7  1  0  0  0  0
 17  3  2  0  0  0  0
 18  3  1  0  0  0  0
 18 11  1  1  0  0  0
 19 20  1  0  0  0  0
 19 25  1  0  0  0  0
 20 22  1  0  0  0  0
 21 15  1  0  0  0  0
 22 24  1  0  0  0  0
 23 21  1  0  0  0  0
 24 21  1  0  0  0  0
 25 23  1  0  0  0  0
 26 16  1  0  0  0  0
 27 28  1  0  0  0  0
 27 26  1  0  0  0  0
 29 32  1  0  0  0  0
 29 28  1  0  0  0  0
 31 32  2  0  0  0  0
 32 34  1  0  0  0  0
 32 30  2  0  0  0  0
 34 33  1  0  0  0  0
M  END
>  <MODEL>
7

>  <REMARK>
 VINA RESULT:      -7.8      4.888      7.248
  Name = 
  7 active torsions:
  status: ('A' for Active; 'I' for Inactive)
    1  A    between atoms: C_3  and  C_13
    2  A    between atoms: C_3  and  C_17
    3  A    between atoms: N_12  and  C_28
    4  A    between atoms: C_13  and  C_33
    5  A    between atoms: C_14  and  S_34
    6  A    between atoms: C_17  and  C_29
    7  A    between atoms: C_33  and  S_34
                            x       y       z     vdW  Elec       q    Type
                         _______ _______ _______ _____ _____    ______ ____

>  <TORSDO>
F 7

$$$$
=
 OpenBabel11052418483D

 34 39  0  0  1  0  0  0  0  0999 V2000
  191.7570  175.3670  145.8710 C   0  0  1  0  0  3  0  0  0  0  0  0
  192.0020  174.0750  143.6390 C   0  0  2  0  0  3  0  0  0  0  0  0
  189.9780  175.5680  144.2410 C   0  0  0  0  0  0  0  0  0  0  0  0
  188.0380  175.4590  142.8220 C   0  0  0  0  0  0  0  0  0  0  0  0
  193.3260  173.3960  145.6840 C   0  0  0  0  0  2  0  0  0  0  0  0
  192.3170  172.9410  144.6110 C   0  0  0  0  0  2  0  0  0  0  0  0
  189.8770  174.1860  142.2460 C   0  0  0  0  0  0  0  0  0  0  0  0
  191.4520  175.3400  144.3760 C   0  0  1  0  0  3  0  0  0  0  0  0
  187.7400  174.8580  141.6700 C   0  0  0  0  0  3  0  0  0  0  0  0
  193.1640  174.8580  146.1480 C   0  0  0  0  0  2  0  0  0  0  0  0
  190.1940  177.4310  145.8740 C   0  0  0  0  0  2  0  0  0  0  0  0
  191.4620  176.7570  146.4660 C   0  0  0  0  0  2  0  0  0  0  0  0
  191.2510  173.5910  142.3640 C   0  0  0  0  0  2  0  0  0  0  0  0
  187.3300  176.5000  143.5770 C   0  0  0  0  0  3  0  0  0  0  0  0
  187.8980  177.0100  144.7010 C   0  0  0  0  0  0  0  0  0  0  0  0
  188.9290  174.0300  141.3220 C   0  0  0  0  0  0  0  0  0  0  0  0
  189.3460  175.0740  143.2120 C   0  0  0  0  0  0  0  0  0  0  0  0
  189.2220  176.4190  145.2420 C   0  0  1  0  0  3  0  0  0  0  0  0
  184.8160  176.7820  146.5180 C   0  0  0  0  0  2  0  0  0  0  0  0
  184.2890  178.1390  146.0640 C   0  0  0  0  0  2  0  0  0  0  0  0
  187.1720  177.9900  145.4720 N   0  0  0  0  0  0  0  0  0  0  0  0
  184.8900  178.5040  144.7100 C   0  0  0  0  0  2  0  0  0  0  0  0
  187.1000  177.9190  146.9270 C   0  0  0  0  0  2  0  0  0  0  0  0
  186.3290  178.9970  144.8330 C   0  0  0  0  0  2  0  0  0  0  0  0
  186.0750  176.8780  147.3890 C   0  0  0  0  0  2  0  0  0  0  0  0
  189.0290  173.1400  140.1310 C   0  0  0  0  0  2  0  0  0  0  0  0
  188.5470  173.8730  138.8960 C   0  0  0  0  0  2  0  0  0  0  0  0
  189.6040  173.7930  137.8170 C   0  0  0  0  0  2  0  0  0  0  0  0
  189.2730  172.6570  136.8710 C   0  0  0  0  0  2  0  0  0  0  0  0
  191.6550  171.8430  137.7930 O   0  0  0  0  0  0  0  0  0  0  0  0
  190.8370  170.7850  135.7410 O   0  0  0  0  0  0  0  0  0  0  0  0
  190.4360  171.3250  137.0850 S   0  0  0  0  0  0  0  0  0  0  0  0
  190.2830  168.7990  137.7020 O   0  0  0  0  0  1  0  0  0  0  0  0
  189.7040  170.0200  138.0490 C   0  0  0  0  0  2  0  0  0  0  0  0
  1 10  1  6  0  0  0
  1 12  1  0  0  0  0
  2 13  1  6  0  0  0
  2  8  1  0  0  0  0
  2  6  1  0  0  0  0
  3 18  1  0  0  0  0
  4 17  1  0  0  0  0
  4 14  1  0  0  0  0
  5 10  1  0  0  0  0
  6  5  1  0  0  0  0
  7 13  1  0  0  0  0
  7 17  1  0  0  0  0
  8  3  1  1  0  0  0
  8  1  1  0  0  0  0
  9  4  2  0  0  0  0
 11 12  1  0  0  0  0
 14 15  2  0  0  0  0
 15 18  1  0  0  0  0
 15 21  1  0  0  0  0
 16  9  1  0  0  0  0
 16  7  2  0  0  0  0
 17  3  2  0  0  0  0
 18 11  1  6  0  0  0
 19 25  1  0  0  0  0
 20 19  1  0  0  0  0
 21 23  1  0  0  0  0
 22 24  1  0  0  0  0
 22 20  1  0  0  0  0
 23 25  1  0  0  0  0
 24 21  1  0  0  0  0
 26 16  1  0  0  0  0
 27 26  1  0  0  0  0
 28 27  1  0  0  0  0
 29 32  1  0  0  0  0
 29 28  1  0  0  0  0
 31 32  2  0  0  0  0
 32 30  2  0  0  0  0
 32 34  1  0  0  0  0
 33 34  1  0  0  0  0
M  END
>  <MODEL>
8

>  <REMARK>
 VINA RESULT:      -7.6      5.864      8.376
  Name = 
  7 active torsions:
  status: ('A' for Active; 'I' for Inactive)
    1  A    between atoms: C_3  and  C_13
    2  A    between atoms: C_3  and  C_17
    3  A    between atoms: N_12  and  C_28
    4  A    between atoms: C_13  and  C_33
    5  A    between atoms: C_14  and  S_34
    6  A    between atoms: C_17  and  C_29
    7  A    between atoms: C_33  and  S_34
                            x       y       z     vdW  Elec       q    Type
                         _______ _______ _______ _____ _____    ______ ____

>  <TORSDO>
F 7

$$$$
=
 OpenBabel11052418483D

 34 39  0  0  1  0  0  0  0  0999 V2000
  187.6760  177.6690  145.8730 C   0  0  1  0  0  3  0  0  0  0  0  0
  186.5540  176.7990  143.7060 C   0  0  2  0  0  3  0  0  0  0  0  0
  188.9560  176.1900  144.4470 C   0  0  0  0  0  0  0  0  0  0  0  0
  190.3710  175.0620  142.8610 C   0  0  0  0  0  0  0  0  0  0  0  0
  185.6980  178.8760  144.8680 C   0  0  0  0  0  2  0  0  0  0  0  0
  186.2530  178.2880  143.5550 C   0  0  0  0  0  2  0  0  0  0  0  0
  188.2000  175.5400  142.2310 C   0  0  0  0  0  0  0  0  0  0  0  0
  187.5600  176.5230  144.8720 C   0  0  1  0  0  3  0  0  0  0  0  0
  190.2050  174.5460  141.6430 C   0  0  0  0  0  3  0  0  0  0  0  0
  186.3140  178.2870  146.1530 C   0  0  0  0  0  2  0  0  0  0  0  0
  189.6210  176.2610  146.8420 C   0  0  0  0  0  2  0  0  0  0  0  0
  188.4340  177.2180  147.1370 C   0  0  0  0  0  2  0  0  0  0  0  0
  186.8070  176.0890  142.3440 C   0  0  0  0  0  2  0  0  0  0  0  0
  191.4760  174.9340  143.8190 C   0  0  0  0  0  3  0  0  0  0  0  0
  191.3600  175.5010  145.0480 C   0  0  0  0  0  0  0  0  0  0  0  0
  188.8070  174.8780  141.2460 C   0  0  0  0  0  0  0  0  0  0  0  0
  189.1600  175.6810  143.2630 C   0  0  0  0  0  0  0  0  0  0  0  0
  190.1270  176.3690  145.3930 C   0  0  1  0  0  3  0  0  0  0  0  0
  194.8640  176.0980  144.5750 C   0  0  0  0  0  2  0  0  0  0  0  0
  195.3200  174.9050  145.4070 C   0  0  0  0  0  2  0  0  0  0  0  0
  192.4730  175.4220  145.9640 N   0  0  0  0  0  0  0  0  0  0  0  0
  194.2480  173.8180  145.3900 C   0  0  0  0  0  2  0  0  0  0  0  0
  193.1560  176.6190  146.4420 C   0  0  0  0  0  2  0  0  0  0  0  0
  193.0830  174.1450  146.3220 C   0  0  0  0  0  2  0  0  0  0  0  0
  194.1300  177.1670  145.3940 C   0  0  0  0  0  2  0  0  0  0  0  0
  188.1900  174.5400  139.9320 C   0  0  0  0  0  2  0  0  0  0  0  0
  188.2280  173.0420  139.7140 C   0  0  0  0  0  2  0  0  0  0  0  0
  189.1140  172.7270  138.5290 C   0  0  0  0  0  2  0  0  0  0  0  0
  189.7080  171.3430  138.6990 C   0  0  0  0  0  2  0  0  0  0  0  0
  191.8930  172.8790  138.9240 O   0  0  0  0  0  0  0  0  0  0  0  0
  192.2390  170.5430  138.2740 O   0  0  0  0  0  0  0  0  0  0  0  0
  191.4290  171.4670  139.1390 S   0  0  0  0  0  0  0  0  0  0  0  0
  190.4210  170.9610  141.4870 O   0  0  0  0  0  1  0  0  0  0  0  0
  191.6590  171.0250  140.8480 C   0  0  0  0  0  2  0  0  0  0  0  0
  1 10  1  1  0  0  0
  1 12  1  0  0  0  0
  2 13  1  6  0  0  0
  2  8  1  0  0  0  0
  3 18  1  0  0  0  0
  4 17  1  0  0  0  0
  4 14  1  0  0  0  0
  5 10  1  0  0  0  0
  6  2  1  0  0  0  0
  6  5  1  0  0  0  0
  7 13  1  0  0  0  0
  7 17  1  0  0  0  0
  8  3  1  6  0  0  0
  8  1  1  0  0  0  0
  9  4  2  0  0  0  0
 11 12  1  0  0  0  0
 14 15  2  0  0  0  0
 15 18  1  0  0  0  0
 15 21  1  0  0  0  0
 16  9  1  0  0  0  0
 16  7  2  0  0  0  0
 17  3  2  0  0  0  0
 18 11  1  1  0  0  0
 19 25  1  0  0  0  0
 19 20  1  0  0  0  0
 21 24  1  0  0  0  0
 21 23  1  0  0  0  0
 22 20  1  0  0  0  0
 22 24  1  0  0  0  0
 25 23  1  0  0  0  0
 26 16  1  0  0  0  0
 27 26  1  0  0  0  0
 28 29  1  0  0  0  0
 28 27  1  0  0  0  0
 29 32  1  0  0  0  0
 30 32  2  0  0  0  0
 31 32  2  0  0  0  0
 32 34  1  0  0  0  0
 34 33  1  0  0  0  0
M  END
>  <MODEL>
9

>  <REMARK>
 VINA RESULT:      -7.6      5.591      7.253
  Name = 
  7 active torsions:
  status: ('A' for Active; 'I' for Inactive)
    1  A    between atoms: C_3  and  C_13
    2  A    between atoms: C_3  and  C_17
    3  A    between atoms: N_12  and  C_28
    4  A    between atoms: C_13  and  C_33
    5  A    between atoms: C_14  and  S_34
    6  A    between atoms: C_17  and  C_29
    7  A    between atoms: C_33  and  S_34
                            x       y       z     vdW  Elec       q    Type
                         _______ _______ _______ _____ _____    ______ ____

>  <TORSDO>
F 7

$$$$
