=
 OpenBabel11052417233D

 30 32  0  0  1  0  0  0  0  0999 V2000
  189.8660  174.6300  145.4920 C   0  0  2  0  0  3  0  0  0  0  0  0
  191.2450  173.5310  142.8180 C   0  0  2  0  0  3  0  0  0  0  0  0
  189.4250  175.5930  141.9770 O   0  0  0  0  0  1  0  0  0  0  0  0
  191.3440  174.9410  143.2360 N   0  0  0  0  0  0  0  0  0  0  0  0
  189.7990  173.1460  145.1380 C   0  0  0  0  0  2  0  0  0  0  0  0
  189.2210  174.7940  146.8600 C   0  0  0  0  0  1  0  0  0  0  0  0
  189.8490  172.9300  142.6900 C   0  0  0  0  0  2  0  0  0  0  0  0
  190.6490  172.6850  143.9480 C   0  0  1  0  0  0  0  0  0  0  0  0
  190.1060  175.7390  143.1910 C   0  0  2  0  0  3  0  0  0  0  0  0
  191.0760  171.3580  143.9880 O   0  0  0  0  0  1  0  0  0  0  0  0
  189.1820  175.4880  144.3980 C   0  0  2  0  0  3  0  0  0  0  0  0
  188.6300  176.8200  144.9460 C   0  0  1  0  0  3  0  0  0  0  0  0
  189.5040  177.8800  144.6910 O   0  0  0  0  0  1  0  0  0  0  0  0
  187.2070  177.1670  144.4930 C   0  0  2  0  0  3  0  0  0  0  0  0
  186.9820  178.0780  147.0190 O   0  0  0  0  0  0  0  0  0  0  0  0
  185.3600  176.4000  146.2960 O   0  0  0  0  0  0  0  0  0  0  0  0
  186.1440  177.6070  145.8630 S   0  0  0  0  0  0  0  0  0  0  0  0
  185.0300  178.8830  145.3910 C   0  0  0  0  0  0  0  0  0  0  0  0
  183.7850  178.8870  145.8570 C   0  0  0  0  0  2  0  0  0  0  0  0
  185.5340  180.1230  144.2560 Cl  0  0  0  0  0  0  0  0  0  0  0  0
  186.6370  176.1310  143.7480 O   0  0  0  0  0  0  0  0  0  0  0  0
  185.8160  176.7670  142.8180 C   0  0  0  0  0  2  0  0  0  0  0  0
  185.7830  177.8840  140.3370 S   0  0  0  0  0  1  0  0  0  0  0  0
  186.6650  177.6190  141.8980 C   0  0  0  0  0  2  0  0  0  0  0  0
  192.3270  175.5790  142.3730 C   0  0  0  0  0  2  0  0  0  0  0  0
  193.5360  175.9420  143.1670 C   0  0  0  0  0  3  0  0  0  0  0  0
  193.4050  176.3690  144.4190 C   0  0  0  0  0  3  0  0  0  0  0  0
  194.6120  176.7320  145.2140 C   0  0  0  0  0  3  0  0  0  0  0  0
  194.2230  176.8770  146.6710 C   0  0  0  0  0  2  0  0  0  0  0  0
  194.9110  175.6180  146.1940 C   0  0  0  0  0  2  0  0  0  0  0  0
  1  6  1  1  0  0  0
  2  7  1  6  0  0  0
  2  4  1  0  0  0  0
  2  8  1  0  0  0  0
  5  1  1  0  0  0  0
  7  8  1  0  0  0  0
  8 10  1  1  0  0  0
  8  5  1  0  0  0  0
  9  3  1  6  0  0  0
  9  4  1  0  0  0  0
  9 11  1  0  0  0  0
 11 12  1  1  0  0  0
 11  1  1  0  0  0  0
 12 13  1  6  0  0  0
 14 21  1  1  0  0  0
 14 12  1  0  0  0  0
 14 17  1  0  0  0  0
 17 16  2  0  0  0  0
 17 15  2  0  0  0  0
 18 19  2  0  0  0  0
 18 17  1  0  0  0  0
 20 18  1  0  0  0  0
 22 21  1  0  0  0  0
 23 24  1  0  0  0  0
 24 22  1  0  0  0  0
 25 26  1  0  0  0  0
 25  4  1  0  0  0  0
 26 27  2  0  0  0  0
 27 28  1  0  0  0  0
 28 30  1  0  0  0  0
 28 29  1  0  0  0  0
 30 29  1  0  0  0  0
M  END
>  <MODEL>
1

>  <REMARK>
 VINA RESULT:      -6.6      0.000      0.000
  Name = 
  10 active torsions:
  status: ('A' for Active; 'I' for Inactive)
    1  A    between atoms: C_1  and  C_4
    2  A    between atoms: C_1  and  C_29
    3  A    between atoms: C_4  and  O_5
    4  A    between atoms: C_4  and  S_12
    5  A    between atoms: O_5  and  C_21
    6  A    between atoms: C_10  and  C_25
    7  A    between atoms: N_11  and  C_24
    8  A    between atoms: S_12  and  C_13
    9  A    between atoms: C_15  and  C_24
   10  A    between atoms: C_17  and  C_21
                            x       y       z     vdW  Elec       q    Type
                         _______ _______ _______ _____ _____    ______ ____

>  <TORSDO>
F 10

$$$$
=
 OpenBabel11052417233D

 30 32  0  0  1  0  0  0  0  0999 V2000
  189.9860  174.7140  146.0640 C   0  0  2  0  0  3  0  0  0  0  0  0
  192.3350  174.1880  143.9520 C   0  0  2  0  0  3  0  0  0  0  0  0
  190.9020  176.4860  142.9830 O   0  0  0  0  0  1  0  0  0  0  0  0
  192.2080  175.4560  144.6930 N   0  0  0  0  0  0  0  0  0  0  0  0
  190.1200  173.3580  145.3750 C   0  0  0  0  0  2  0  0  0  0  0  0
  188.8550  174.5910  147.0760 C   0  0  0  0  0  1  0  0  0  0  0  0
  191.1230  173.7110  143.1590 C   0  0  0  0  0  2  0  0  0  0  0  0
  191.3820  173.1380  144.5320 C   0  0  1  0  0  0  0  0  0  0  0  0
  191.0530  176.3090  144.3630 C   0  0  2  0  0  3  0  0  0  0  0  0
  191.8130  171.8170  144.4210 O   0  0  0  0  0  1  0  0  0  0  0  0
  189.7450  175.8370  145.0260 C   0  0  2  0  0  3  0  0  0  0  0  0
  188.9710  177.0350  145.6150 C   0  0  1  0  0  3  0  0  0  0  0  0
  189.8320  177.9490  146.2270 O   0  0  0  0  0  1  0  0  0  0  0  0
  188.0320  177.7450  144.6330 C   0  0  2  0  0  3  0  0  0  0  0  0
  185.4040  177.1580  144.7430 O   0  0  0  0  0  0  0  0  0  0  0  0
  186.0320  179.4990  145.0500 O   0  0  0  0  0  0  0  0  0  0  0  0
  186.4260  178.0800  145.3470 S   0  0  0  0  0  0  0  0  0  0  0  0
  186.4680  177.8440  147.0900 C   0  0  0  0  0  0  0  0  0  0  0  0
  186.0000  176.7190  147.6210 C   0  0  0  0  0  2  0  0  0  0  0  0
  187.0730  179.1130  148.1410 Cl  0  0  0  0  0  0  0  0  0  0  0  0
  187.8940  177.0270  143.4420 O   0  0  0  0  0  0  0  0  0  0  0  0
  187.9120  177.9930  142.4360 C   0  0  0  0  0  2  0  0  0  0  0  0
  185.6150  178.0230  140.9790 S   0  0  0  0  0  1  0  0  0  0  0  0
  187.3110  177.4140  141.1730 C   0  0  0  0  0  2  0  0  0  0  0  0
  193.4220  176.2210  144.4520 C   0  0  0  0  0  2  0  0  0  0  0  0
  194.5780  175.2940  144.2810 C   0  0  0  0  0  3  0  0  0  0  0  0
  195.4720  175.1620  145.2550 C   0  0  0  0  0  3  0  0  0  0  0  0
  196.6280  174.2370  145.0870 C   0  0  0  0  0  3  0  0  0  0  0  0
  196.9670  173.6150  146.4260 C   0  0  0  0  0  2  0  0  0  0  0  0
  196.1810  172.8260  145.4030 C   0  0  0  0  0  2  0  0  0  0  0  0
  1  6  1  1  0  0  0
  2  7  1  6  0  0  0
  2  8  1  0  0  0  0
  2  4  1  0  0  0  0
  5  1  1  0  0  0  0
  7  8  1  0  0  0  0
  8 10  1  1  0  0  0
  8  5  1  0  0  0  0
  9  3  1  6  0  0  0
  9  4  1  0  0  0  0
  9 11  1  0  0  0  0
 11 12  1  1  0  0  0
 11  1  1  0  0  0  0
 12 13  1  6  0  0  0
 14 21  1  6  0  0  0
 14 17  1  0  0  0  0
 14 12  1  0  0  0  0
 15 17  2  0  0  0  0
 16 17  2  0  0  0  0
 17 18  1  0  0  0  0
 18 19  2  0  0  0  0
 18 20  1  0  0  0  0
 22 21  1  0  0  0  0
 23 24  1  0  0  0  0
 24 22  1  0  0  0  0
 25  4  1  0  0  0  0
 26 25  1  0  0  0  0
 26 27  2  0  0  0  0
 28 27  1  0  0  0  0
 28 30  1  0  0  0  0
 28 29  1  0  0  0  0
 30 29  1  0  0  0  0
M  END
>  <MODEL>
2

>  <REMARK>
 VINA RESULT:      -5.9      1.829      2.194
  Name = 
  10 active torsions:
  status: ('A' for Active; 'I' for Inactive)
    1  A    between atoms: C_1  and  C_4
    2  A    between atoms: C_1  and  C_29
    3  A    between atoms: C_4  and  O_5
    4  A    between atoms: C_4  and  S_12
    5  A    between atoms: O_5  and  C_21
    6  A    between atoms: C_10  and  C_25
    7  A    between atoms: N_11  and  C_24
    8  A    between atoms: S_12  and  C_13
    9  A    between atoms: C_15  and  C_24
   10  A    between atoms: C_17  and  C_21
                            x       y       z     vdW  Elec       q    Type
                         _______ _______ _______ _____ _____    ______ ____

>  <TORSDO>
F 10

$$$$
=
 OpenBabel11052417233D

 30 32  0  0  1  0  0  0  0  0999 V2000
  190.5410  177.6270  144.2460 C   0  0  2  0  0  3  0  0  0  0  0  0
  187.7310  176.1080  144.4720 C   0  0  2  0  0  3  0  0  0  0  0  0
  189.7020  174.2790  145.4940 O   0  0  0  0  0  1  0  0  0  0  0  0
  188.5790  176.3790  145.6470 N   0  0  0  0  0  0  0  0  0  0  0  0
  189.6620  177.4340  143.0120 C   0  0  0  0  0  2  0  0  0  0  0  0
  191.7310  178.4740  143.8190 C   0  0  0  0  0  1  0  0  0  0  0  0
  188.3660  175.3650  143.3000 C   0  0  0  0  0  2  0  0  0  0  0  0
  188.2560  176.8720  143.2520 C   0  0  1  0  0  0  0  0  0  0  0  0
  189.8570  175.6500  145.7290 C   0  0  2  0  0  3  0  0  0  0  0  0
  187.2880  177.2470  142.3230 O   0  0  0  0  0  1  0  0  0  0  0  0
  190.9590  176.2600  144.8430 C   0  0  2  0  0  3  0  0  0  0  0  0
  192.2970  176.3300  145.6080 C   0  0  1  0  0  3  0  0  0  0  0  0
  192.0970  176.2930  146.9900 O   0  0  0  0  0  1  0  0  0  0  0  0
  193.3430  175.2940  145.1800 C   0  0  2  0  0  3  0  0  0  0  0  0
  195.0430  177.3830  145.1050 O   0  0  0  0  0  0  0  0  0  0  0  0
  194.5650  176.2650  142.9860 O   0  0  0  0  0  0  0  0  0  0  0  0
  194.7930  176.0500  144.4550 S   0  0  0  0  0  0  0  0  0  0  0  0
  196.2000  175.0190  144.6790 C   0  0  0  0  0  0  0  0  0  0  0  0
  197.1370  174.9570  143.7380 C   0  0  0  0  0  2  0  0  0  0  0  0
  196.3470  174.0200  146.1150 Cl  0  0  0  0  0  0  0  0  0  0  0  0
  192.8010  174.3460  144.3080 O   0  0  0  0  0  0  0  0  0  0  0  0
  192.9920  173.1210  144.9470 C   0  0  0  0  0  2  0  0  0  0  0  0
  194.2110  172.4370  142.6130 S   0  0  0  0  0  1  0  0  0  0  0  0
  193.0220  172.0150  143.9130 C   0  0  0  0  0  2  0  0  0  0  0  0
  187.7960  176.0570  146.8290 C   0  0  0  0  0  2  0  0  0  0  0  0
  186.5390  176.8610  146.8370 C   0  0  0  0  0  3  0  0  0  0  0  0
  186.5990  178.1860  146.7610 C   0  0  0  0  0  3  0  0  0  0  0  0
  185.3460  178.9910  146.7690 C   0  0  0  0  0  3  0  0  0  0  0  0
  184.9680  179.3380  145.3440 C   0  0  0  0  0  2  0  0  0  0  0  0
  184.2550  178.2150  146.0630 C   0  0  0  0  0  2  0  0  0  0  0  0
  1  6  1  6  0  0  0
  1 11  1  0  0  0  0
  2  7  1  6  0  0  0
  2  4  1  0  0  0  0
  4  9  1  0  0  0  0
  4 25  1  0  0  0  0
  5  8  1  0  0  0  0
  5  1  1  0  0  0  0
  8 10  1  6  0  0  0
  8  7  1  0  0  0  0
  8  2  1  0  0  0  0
  9  3  1  6  0  0  0
 11 12  1  1  0  0  0
 11  9  1  0  0  0  0
 12 13  1  1  0  0  0
 14 21  1  6  0  0  0
 14 12  1  0  0  0  0
 16 17  2  0  0  0  0
 17 18  1  0  0  0  0
 17 15  2  0  0  0  0
 17 14  1  0  0  0  0
 18 20  1  0  0  0  0
 19 18  2  0  0  0  0
 21 22  1  0  0  0  0
 23 24  1  0  0  0  0
 24 22  1  0  0  0  0
 25 26  1  0  0  0  0
 27 28  1  0  0  0  0
 27 26  2  0  0  0  0
 29 30  1  0  0  0  0
 29 28  1  0  0  0  0
 30 28  1  0  0  0  0
M  END
>  <MODEL>
3

>  <REMARK>
 VINA RESULT:      -5.9      4.216      7.699
  Name = 
  10 active torsions:
  status: ('A' for Active; 'I' for Inactive)
    1  A    between atoms: C_1  and  C_4
    2  A    between atoms: C_1  and  C_29
    3  A    between atoms: C_4  and  O_5
    4  A    between atoms: C_4  and  S_12
    5  A    between atoms: O_5  and  C_21
    6  A    between atoms: C_10  and  C_25
    7  A    between atoms: N_11  and  C_24
    8  A    between atoms: S_12  and  C_13
    9  A    between atoms: C_15  and  C_24
   10  A    between atoms: C_17  and  C_21
                            x       y       z     vdW  Elec       q    Type
                         _______ _______ _______ _____ _____    ______ ____

>  <TORSDO>
F 10

$$$$
=
 OpenBabel11052417233D

 30 32  0  0  1  0  0  0  0  0999 V2000
  191.7420  176.6350  143.9280 C   0  0  2  0  0  3  0  0  0  0  0  0
  192.9220  174.5570  146.0610 C   0  0  2  0  0  3  0  0  0  0  0  0
  190.1270  173.9250  145.8060 O   0  0  0  0  0  1  0  0  0  0  0  0
  192.2840  174.1230  144.8050 N   0  0  0  0  0  0  0  0  0  0  0  0
  192.4600  177.1320  145.1810 C   0  0  0  0  0  2  0  0  0  0  0  0
  191.4140  177.8580  143.0850 C   0  0  0  0  0  1  0  0  0  0  0  0
  192.1240  175.4830  146.9730 C   0  0  0  0  0  2  0  0  0  0  0  0
  193.1580  176.0700  146.0400 C   0  0  1  0  0  0  0  0  0  0  0  0
  190.8340  174.3560  144.6780 C   0  0  2  0  0  3  0  0  0  0  0  0
  194.2600  176.5120  146.7700 O   0  0  0  0  0  1  0  0  0  0  0  0
  190.4870  175.8090  144.3050 C   0  0  2  0  0  3  0  0  0  0  0  0
  189.4010  175.8450  143.2100 C   0  0  1  0  0  3  0  0  0  0  0  0
  189.2110  174.5860  142.6360 O   0  0  0  0  0  1  0  0  0  0  0  0
  188.0620  176.4530  143.6450 C   0  0  2  0  0  3  0  0  0  0  0  0
  186.9660  176.5680  141.1860 O   0  0  0  0  0  0  0  0  0  0  0  0
  188.2890  178.4930  141.9020 O   0  0  0  0  0  0  0  0  0  0  0  0
  187.3140  177.4440  142.3570 S   0  0  0  0  0  0  0  0  0  0  0  0
  185.8570  178.2280  142.9540 C   0  0  0  0  0  0  0  0  0  0  0  0
  184.6660  177.6830  142.7260 C   0  0  0  0  0  2  0  0  0  0  0  0
  185.9610  179.7630  143.8010 Cl  0  0  0  0  0  0  0  0  0  0  0  0
  188.1930  177.2000  144.8190 O   0  0  0  0  0  0  0  0  0  0  0  0
  187.3470  176.5760  145.7360 C   0  0  0  0  0  2  0  0  0  0  0  0
  185.4010  177.9670  147.0320 S   0  0  0  0  0  1  0  0  0  0  0  0
  187.1450  177.4840  146.9310 C   0  0  0  0  0  2  0  0  0  0  0  0
  192.5290  172.6960  144.6670 C   0  0  0  0  0  2  0  0  0  0  0  0
  193.7200  172.3060  145.4760 C   0  0  0  0  0  3  0  0  0  0  0  0
  194.9020  172.1600  144.8880 C   0  0  0  0  0  3  0  0  0  0  0  0
  196.0940  171.7710  145.6940 C   0  0  0  0  0  3  0  0  0  0  0  0
  197.3510  172.1500  144.9380 C   0  0  0  0  0  2  0  0  0  0  0  0
  196.8610  173.0190  146.0750 C   0  0  0  0  0  2  0  0  0  0  0  0
  1  6  1  6  0  0  0
  1 11  1  0  0  0  0
  1  5  1  0  0  0  0
  2  7  1  1  0  0  0
  4  2  1  0  0  0  0
  5  8  1  0  0  0  0
  8  2  1  0  0  0  0
  8 10  1  1  0  0  0
  8  7  1  0  0  0  0
  9  4  1  0  0  0  0
  9  3  1  1  0  0  0
 11 12  1  6  0  0  0
 11  9  1  0  0  0  0
 12 13  1  1  0  0  0
 12 14  1  0  0  0  0
 14 21  1  1  0  0  0
 15 17  2  0  0  0  0
 16 17  2  0  0  0  0
 17 18  1  0  0  0  0
 17 14  1  0  0  0  0
 18 20  1  0  0  0  0
 19 18  2  0  0  0  0
 21 22  1  0  0  0  0
 22 24  1  0  0  0  0
 24 23  1  0  0  0  0
 25  4  1  0  0  0  0
 25 26  1  0  0  0  0
 27 26  2  0  0  0  0
 27 28  1  0  0  0  0
 28 30  1  0  0  0  0
 29 28  1  0  0  0  0
 29 30  1  0  0  0  0
M  END
>  <MODEL>
4

>  <REMARK>
 VINA RESULT:      -5.8      2.530      4.225
  Name = 
  10 active torsions:
  status: ('A' for Active; 'I' for Inactive)
    1  A    between atoms: C_1  and  C_4
    2  A    between atoms: C_1  and  C_29
    3  A    between atoms: C_4  and  O_5
    4  A    between atoms: C_4  and  S_12
    5  A    between atoms: O_5  and  C_21
    6  A    between atoms: C_10  and  C_25
    7  A    between atoms: N_11  and  C_24
    8  A    between atoms: S_12  and  C_13
    9  A    between atoms: C_15  and  C_24
   10  A    between atoms: C_17  and  C_21
                            x       y       z     vdW  Elec       q    Type
                         _______ _______ _______ _____ _____    ______ ____

>  <TORSDO>
F 10

$$$$
=
 OpenBabel11052417233D

 30 32  0  0  1  0  0  0  0  0999 V2000
  189.9210  173.8030  144.5240 C   0  0  2  0  0  3  0  0  0  0  0  0
  188.5860  176.6640  145.0610 C   0  0  2  0  0  3  0  0  0  0  0  0
  190.9690  177.1780  143.5340 O   0  0  0  0  0  1  0  0  0  0  0  0
  188.8250  176.1460  143.7020 N   0  0  0  0  0  0  0  0  0  0  0  0
  189.6260  174.2660  145.9490 C   0  0  0  0  0  2  0  0  0  0  0  0
  190.4390  172.3750  144.6160 C   0  0  0  0  0  1  0  0  0  0  0  0
  189.7770  176.7190  146.0130 C   0  0  0  0  0  2  0  0  0  0  0  0
  188.8130  175.5580  146.0960 C   0  0  1  0  0  0  0  0  0  0  0  0
  190.2280  176.0200  143.2720 C   0  0  2  0  0  3  0  0  0  0  0  0
  188.0470  175.6600  147.2560 O   0  0  0  0  0  1  0  0  0  0  0  0
  190.9190  174.7620  143.8290 C   0  0  2  0  0  3  0  0  0  0  0  0
  191.7470  174.0640  142.7300 C   0  0  1  0  0  3  0  0  0  0  0  0
  191.2690  174.3750  141.4540 O   0  0  0  0  0  1  0  0  0  0  0  0
  193.2610  174.2910  142.8150 C   0  0  2  0  0  3  0  0  0  0  0  0
  195.3180  172.7880  141.9400 O   0  0  0  0  0  0  0  0  0  0  0  0
  193.2710  171.6100  142.5660 O   0  0  0  0  0  0  0  0  0  0  0  0
  194.1760  172.7580  142.9170 S   0  0  0  0  0  0  0  0  0  0  0  0
  194.8030  172.5240  144.5430 C   0  0  0  0  0  0  0  0  0  0  0  0
  194.0110  172.0530  145.5010 C   0  0  0  0  0  2  0  0  0  0  0  0
  196.4590  172.9650  144.9250 Cl  0  0  0  0  0  0  0  0  0  0  0  0
  193.5950  175.1290  143.8820 O   0  0  0  0  0  0  0  0  0  0  0  0
  194.3460  176.1560  143.3100 C   0  0  0  0  0  2  0  0  0  0  0  0
  197.0520  176.1860  143.0240 S   0  0  0  0  0  1  0  0  0  0  0  0
  195.6140  176.3600  144.1130 C   0  0  0  0  0  2  0  0  0  0  0  0
  188.1440  177.0370  142.7750 C   0  0  0  0  0  2  0  0  0  0  0  0
  187.4160  178.0960  143.5330 C   0  0  0  0  0  3  0  0  0  0  0  0
  186.2510  178.5510  143.0840 C   0  0  0  0  0  3  0  0  0  0  0  0
  185.5220  179.6090  143.8400 C   0  0  0  0  0  3  0  0  0  0  0  0
  184.2030  179.0490  144.3320 C   0  0  0  0  0  2  0  0  0  0  0  0
  185.3740  179.1720  145.2820 C   0  0  0  0  0  2  0  0  0  0  0  0
  1  6  1  1  0  0  0
  1  5  1  0  0  0  0
  2  7  1  1  0  0  0
  2  8  1  0  0  0  0
  4  2  1  0  0  0  0
  5  8  1  0  0  0  0
  7  8  1  0  0  0  0
  8 10  1  1  0  0  0
  9  3  1  1  0  0  0
  9  4  1  0  0  0  0
  9 11  1  0  0  0  0
 11 12  1  6  0  0  0
 11  1  1  0  0  0  0
 12 13  1  6  0  0  0
 12 14  1  0  0  0  0
 14 17  1  0  0  0  0
 14 21  1  1  0  0  0
 15 17  2  0  0  0  0
 16 17  2  0  0  0  0
 17 18  1  0  0  0  0
 18 20  1  0  0  0  0
 18 19  2  0  0  0  0
 22 21  1  0  0  0  0
 22 24  1  0  0  0  0
 23 24  1  0  0  0  0
 25 26  1  0  0  0  0
 25  4  1  0  0  0  0
 27 26  2  0  0  0  0
 27 28  1  0  0  0  0
 28 29  1  0  0  0  0
 28 30  1  0  0  0  0
 29 30  1  0  0  0  0
M  END
>  <MODEL>
5

>  <REMARK>
 VINA RESULT:      -5.8      4.187      7.715
  Name = 
  10 active torsions:
  status: ('A' for Active; 'I' for Inactive)
    1  A    between atoms: C_1  and  C_4
    2  A    between atoms: C_1  and  C_29
    3  A    between atoms: C_4  and  O_5
    4  A    between atoms: C_4  and  S_12
    5  A    between atoms: O_5  and  C_21
    6  A    between atoms: C_10  and  C_25
    7  A    between atoms: N_11  and  C_24
    8  A    between atoms: S_12  and  C_13
    9  A    between atoms: C_15  and  C_24
   10  A    between atoms: C_17  and  C_21
                            x       y       z     vdW  Elec       q    Type
                         _______ _______ _______ _____ _____    ______ ____

>  <TORSDO>
F 10

$$$$
=
 OpenBabel11052417233D

 30 32  0  0  1  0  0  0  0  0999 V2000
  189.9640  174.6370  145.4980 C   0  0  2  0  0  3  0  0  0  0  0  0
  191.1790  173.3620  142.8230 C   0  0  2  0  0  3  0  0  0  0  0  0
  189.4230  175.4720  141.9650 O   0  0  0  0  0  1  0  0  0  0  0  0
  191.3600  174.7820  143.1740 N   0  0  0  0  0  0  0  0  0  0  0  0
  189.8130  173.1440  145.2120 C   0  0  0  0  0  2  0  0  0  0  0  0
  189.3840  174.8880  146.8820 C   0  0  0  0  0  1  0  0  0  0  0  0
  189.7520  172.8240  142.7760 C   0  0  0  0  0  2  0  0  0  0  0  0
  190.5910  172.5930  144.0110 C   0  0  1  0  0  0  0  0  0  0  0  0
  190.1590  175.6350  143.1440 C   0  0  2  0  0  3  0  0  0  0  0  0
  190.9570  171.2510  144.0920 O   0  0  0  0  0  1  0  0  0  0  0  0
  189.2760  175.4800  144.3960 C   0  0  2  0  0  3  0  0  0  0  0  0
  188.8090  176.8590  144.9060 C   0  0  1  0  0  3  0  0  0  0  0  0
  189.5180  177.8970  144.2960 O   0  0  0  0  0  1  0  0  0  0  0  0
  187.2980  177.1050  144.8190 C   0  0  2  0  0  3  0  0  0  0  0  0
  186.3910  176.2820  142.4190 O   0  0  0  0  0  0  0  0  0  0  0  0
  187.9040  178.2000  142.4350 O   0  0  0  0  0  0  0  0  0  0  0  0
  186.7730  177.5320  143.1630 S   0  0  0  0  0  0  0  0  0  0  0  0
  185.3940  178.6220  143.2180 C   0  0  0  0  0  0  0  0  0  0  0  0
  184.2270  178.2480  142.7040 C   0  0  0  0  0  2  0  0  0  0  0  0
  185.5650  180.2320  143.8980 Cl  0  0  0  0  0  0  0  0  0  0  0  0
  186.8830  178.0810  145.7280 O   0  0  0  0  0  0  0  0  0  0  0  0
  187.1770  177.5510  146.9840 C   0  0  0  0  0  2  0  0  0  0  0  0
  184.5590  178.2860  146.9020 S   0  0  0  0  0  1  0  0  0  0  0  0
  185.9190  177.5230  147.8250 C   0  0  0  0  0  2  0  0  0  0  0  0
  192.3350  175.3350  142.2470 C   0  0  0  0  0  2  0  0  0  0  0  0
  193.5870  175.6830  142.9780 C   0  0  0  0  0  3  0  0  0  0  0  0
  193.5600  175.8560  144.2950 C   0  0  0  0  0  3  0  0  0  0  0  0
  194.8100  176.2040  145.0280 C   0  0  0  0  0  3  0  0  0  0  0  0
  194.5630  177.4340  145.8790 C   0  0  0  0  0  2  0  0  0  0  0  0
  194.5670  176.0620  146.5150 C   0  0  0  0  0  2  0  0  0  0  0  0
  1  6  1  1  0  0  0
  2  7  1  6  0  0  0
  2  4  1  0  0  0  0
  2  8  1  0  0  0  0
  5  1  1  0  0  0  0
  7  8  1  0  0  0  0
  8 10  1  1  0  0  0
  8  5  1  0  0  0  0
  9  3  1  6  0  0  0
  9  4  1  0  0  0  0
  9 11  1  0  0  0  0
 11 12  1  1  0  0  0
 11  1  1  0  0  0  0
 12 13  1  6  0  0  0
 14 12  1  0  0  0  0
 14 21  1  1  0  0  0
 15 17  2  0  0  0  0
 16 17  2  0  0  0  0
 17 18  1  0  0  0  0
 17 14  1  0  0  0  0
 18 20  1  0  0  0  0
 19 18  2  0  0  0  0
 21 22  1  0  0  0  0
 22 24  1  0  0  0  0
 23 24  1  0  0  0  0
 25 26  1  0  0  0  0
 25  4  1  0  0  0  0
 26 27  2  0  0  0  0
 27 28  1  0  0  0  0
 28 29  1  0  0  0  0
 28 30  1  0  0  0  0
 29 30  1  0  0  0  0
M  END
>  <MODEL>
6

>  <REMARK>
 VINA RESULT:      -5.8      1.281      2.474
  Name = 
  10 active torsions:
  status: ('A' for Active; 'I' for Inactive)
    1  A    between atoms: C_1  and  C_4
    2  A    between atoms: C_1  and  C_29
    3  A    between atoms: C_4  and  O_5
    4  A    between atoms: C_4  and  S_12
    5  A    between atoms: O_5  and  C_21
    6  A    between atoms: C_10  and  C_25
    7  A    between atoms: N_11  and  C_24
    8  A    between atoms: S_12  and  C_13
    9  A    between atoms: C_15  and  C_24
   10  A    between atoms: C_17  and  C_21
                            x       y       z     vdW  Elec       q    Type
                         _______ _______ _______ _____ _____    ______ ____

>  <TORSDO>
F 10

$$$$
=
 OpenBabel11052417233D

 30 32  0  0  1  0  0  0  0  0999 V2000
  189.3130  174.6010  143.9690 C   0  0  2  0  0  3  0  0  0  0  0  0
  188.1410  177.5300  143.4180 C   0  0  2  0  0  3  0  0  0  0  0  0
  187.7960  176.0670  140.9650 O   0  0  0  0  0  1  0  0  0  0  0  0
  187.3190  176.3130  143.2900 N   0  0  0  0  0  0  0  0  0  0  0  0
  190.1820  175.8380  144.1850 C   0  0  0  0  0  2  0  0  0  0  0  0
  190.1260  173.3980  144.4250 C   0  0  0  0  0  1  0  0  0  0  0  0
  189.4430  177.5870  142.6250 C   0  0  0  0  0  2  0  0  0  0  0  0
  189.4800  177.1970  144.0840 C   0  0  1  0  0  0  0  0  0  0  0  0
  187.6510  175.3960  142.1850 C   0  0  2  0  0  3  0  0  0  0  0  0
  190.0440  178.2260  144.8360 O   0  0  0  0  0  1  0  0  0  0  0  0
  188.8630  174.4970  142.4900 C   0  0  2  0  0  3  0  0  0  0  0  0
  188.5850  173.0430  142.0550 C   0  0  1  0  0  3  0  0  0  0  0  0
  187.2140  172.7820  141.9890 O   0  0  0  0  0  1  0  0  0  0  0  0
  189.2850  172.6100  140.7610 C   0  0  2  0  0  3  0  0  0  0  0  0
  190.4630  170.6370  142.1680 O   0  0  0  0  0  0  0  0  0  0  0  0
  191.8680  172.5250  141.5140 O   0  0  0  0  0  0  0  0  0  0  0  0
  190.7470  171.6280  141.0730 S   0  0  0  0  0  0  0  0  0  0  0  0
  191.2310  170.7680  139.6180 C   0  0  0  0  0  0  0  0  0  0  0  0
  190.4350  169.8400  139.0960 C   0  0  0  0  0  2  0  0  0  0  0  0
  192.7920  171.0850  138.8790 Cl  0  0  0  0  0  0  0  0  0  0  0  0
  189.5980  173.7060  139.9530 O   0  0  0  0  0  0  0  0  0  0  0  0
  188.8880  173.4960  138.7720 C   0  0  0  0  0  2  0  0  0  0  0  0
  189.6920  172.4150  136.4080 S   0  0  0  0  0  1  0  0  0  0  0  0
  189.7840  173.7880  137.5870 C   0  0  0  0  0  2  0  0  0  0  0  0
  185.9380  176.7400  143.1270 C   0  0  0  0  0  2  0  0  0  0  0  0
  185.5070  177.5240  144.3210 C   0  0  0  0  0  3  0  0  0  0  0  0
  185.4400  176.9360  145.5110 C   0  0  0  0  0  3  0  0  0  0  0  0
  185.0090  177.7160  146.7050 C   0  0  0  0  0  3  0  0  0  0  0  0
  186.1710  177.8300  147.6710 C   0  0  0  0  0  2  0  0  0  0  0  0
  185.8150  178.9960  146.7760 C   0  0  0  0  0  2  0  0  0  0  0  0
  1  5  1  0  0  0  0
  1  6  1  6  0  0  0
  2  7  1  6  0  0  0
  2  8  1  0  0  0  0
  4  2  1  0  0  0  0
  7  8  1  0  0  0  0
  8  5  1  0  0  0  0
  8 10  1  1  0  0  0
  9  3  1  6  0  0  0
  9 11  1  0  0  0  0
  9  4  1  0  0  0  0
 11 12  1  1  0  0  0
 11  1  1  0  0  0  0
 12 13  1  6  0  0  0
 14 21  1  1  0  0  0
 14 17  1  0  0  0  0
 14 12  1  0  0  0  0
 17 16  2  0  0  0  0
 17 15  2  0  0  0  0
 18 17  1  0  0  0  0
 19 18  2  0  0  0  0
 20 18  1  0  0  0  0
 22 21  1  0  0  0  0
 23 24  1  0  0  0  0
 24 22  1  0  0  0  0
 25  4  1  0  0  0  0
 25 26  1  0  0  0  0
 26 27  2  0  0  0  0
 27 28  1  0  0  0  0
 28 30  1  0  0  0  0
 28 29  1  0  0  0  0
 30 29  1  0  0  0  0
M  END
>  <MODEL>
7

>  <REMARK>
 VINA RESULT:      -5.7      4.151      7.298
  Name = 
  10 active torsions:
  status: ('A' for Active; 'I' for Inactive)
    1  A    between atoms: C_1  and  C_4
    2  A    between atoms: C_1  and  C_29
    3  A    between atoms: C_4  and  O_5
    4  A    between atoms: C_4  and  S_12
    5  A    between atoms: O_5  and  C_21
    6  A    between atoms: C_10  and  C_25
    7  A    between atoms: N_11  and  C_24
    8  A    between atoms: S_12  and  C_13
    9  A    between atoms: C_15  and  C_24
   10  A    between atoms: C_17  and  C_21
                            x       y       z     vdW  Elec       q    Type
                         _______ _______ _______ _____ _____    ______ ____

>  <TORSDO>
F 10

$$$$
=
 OpenBabel11052417233D

 30 32  0  0  1  0  0  0  0  0999 V2000
  191.6020  176.6860  144.4790 C   0  0  2  0  0  3  0  0  0  0  0  0
  188.4700  176.0600  144.2390 C   0  0  2  0  0  3  0  0  0  0  0  0
  189.6870  173.6420  145.2110 O   0  0  0  0  0  1  0  0  0  0  0  0
  189.2010  175.9570  145.5150 N   0  0  0  0  0  0  0  0  0  0  0  0
  190.8720  176.8770  143.1520 C   0  0  0  0  0  2  0  0  0  0  0  0
  193.0290  177.1750  144.2790 C   0  0  0  0  0  1  0  0  0  0  0  0
  189.0130  175.2720  143.0510 C   0  0  0  0  0  2  0  0  0  0  0  0
  189.3450  176.7410  143.1810 C   0  0  1  0  0  0  0  0  0  0  0  0
  190.1960  174.8760  145.6300 C   0  0  2  0  0  3  0  0  0  0  0  0
  188.6540  177.4710  142.2160 O   0  0  0  0  0  1  0  0  0  0  0  0
  191.5310  175.2090  144.9380 C   0  0  2  0  0  3  0  0  0  0  0  0
  192.7220  174.8060  145.8330 C   0  0  1  0  0  3  0  0  0  0  0  0
  192.3580  174.7680  147.1810 O   0  0  0  0  0  1  0  0  0  0  0  0
  193.4320  173.5110  145.4220 C   0  0  2  0  0  3  0  0  0  0  0  0
  195.9030  172.5410  145.8820 O   0  0  0  0  0  0  0  0  0  0  0  0
  195.6220  174.9650  146.0030 O   0  0  0  0  0  0  0  0  0  0  0  0
  195.2020  173.7220  145.2710 S   0  0  0  0  0  0  0  0  0  0  0  0
  195.6600  173.8630  143.5790 C   0  0  0  0  0  0  0  0  0  0  0  0
  195.8090  175.0630  143.0270 C   0  0  0  0  0  2  0  0  0  0  0  0
  195.8670  172.4240  142.5940 Cl  0  0  0  0  0  0  0  0  0  0  0  0
  192.9010  172.9850  144.2410 O   0  0  0  0  0  0  0  0  0  0  0  0
  192.7510  171.6220  144.4910 C   0  0  0  0  0  2  0  0  0  0  0  0
  191.3300  172.2420  142.2550 S   0  0  0  0  0  1  0  0  0  0  0  0
  192.0720  170.9660  143.3070 C   0  0  0  0  0  2  0  0  0  0  0  0
  188.2120  175.7770  146.5660 C   0  0  0  0  0  2  0  0  0  0  0  0
  187.5210  177.0720  146.8380 C   0  0  0  0  0  3  0  0  0  0  0  0
  186.2110  177.1770  146.6470 C   0  0  0  0  0  3  0  0  0  0  0  0
  185.5190  178.4690  146.9170 C   0  0  0  0  0  3  0  0  0  0  0  0
  185.1930  179.1440  145.6010 C   0  0  0  0  0  2  0  0  0  0  0  0
  184.1140  178.4030  146.3580 C   0  0  0  0  0  2  0  0  0  0  0  0
  1  6  1  6  0  0  0
  1 11  1  0  0  0  0
  2  7  1  6  0  0  0
  2  4  1  0  0  0  0
  4  9  1  0  0  0  0
  4 25  1  0  0  0  0
  5  8  1  0  0  0  0
  5  1  1  0  0  0  0
  7  8  1  0  0  0  0
  8 10  1  6  0  0  0
  8  2  1  0  0  0  0
  9  3  1  6  0  0  0
 11  9  1  0  0  0  0
 11 12  1  1  0  0  0
 12 13  1  1  0  0  0
 14 21  1  6  0  0  0
 14 12  1  0  0  0  0
 17 14  1  0  0  0  0
 17 15  2  0  0  0  0
 17 16  2  0  0  0  0
 18 17  1  0  0  0  0
 19 18  2  0  0  0  0
 20 18  1  0  0  0  0
 21 22  1  0  0  0  0
 23 24  1  0  0  0  0
 24 22  1  0  0  0  0
 25 26  1  0  0  0  0
 27 26  2  0  0  0  0
 27 28  1  0  0  0  0
 29 30  1  0  0  0  0
 29 28  1  0  0  0  0
 30 28  1  0  0  0  0
M  END
>  <MODEL>
8

>  <REMARK>
 VINA RESULT:      -5.5      4.162      7.712
  Name = 
  10 active torsions:
  status: ('A' for Active; 'I' for Inactive)
    1  A    between atoms: C_1  and  C_4
    2  A    between atoms: C_1  and  C_29
    3  A    between atoms: C_4  and  O_5
    4  A    between atoms: C_4  and  S_12
    5  A    between atoms: O_5  and  C_21
    6  A    between atoms: C_10  and  C_25
    7  A    between atoms: N_11  and  C_24
    8  A    between atoms: S_12  and  C_13
    9  A    between atoms: C_15  and  C_24
   10  A    between atoms: C_17  and  C_21
                            x       y       z     vdW  Elec       q    Type
                         _______ _______ _______ _____ _____    ______ ____

>  <TORSDO>
F 10

$$$$
=
 OpenBabel11052417233D

 30 32  0  0  1  0  0  0  0  0999 V2000
  189.7340  174.1000  144.7060 C   0  0  2  0  0  3  0  0  0  0  0  0
  189.9130  177.1620  145.6280 C   0  0  2  0  0  3  0  0  0  0  0  0
  190.7370  177.1170  142.8720 O   0  0  0  0  0  1  0  0  0  0  0  0
  189.0530  176.7210  144.5150 N   0  0  0  0  0  0  0  0  0  0  0  0
  190.5820  174.4990  145.9110 C   0  0  0  0  0  2  0  0  0  0  0  0
  189.7750  172.5820  144.6120 C   0  0  0  0  0  1  0  0  0  0  0  0
  191.3920  176.7930  145.5640 C   0  0  0  0  0  2  0  0  0  0  0  0
  190.4520  175.9490  146.3930 C   0  0  1  0  0  0  0  0  0  0  0  0
  189.7300  176.2430  143.2970 C   0  0  2  0  0  3  0  0  0  0  0  0
  190.6960  176.1600  147.7490 O   0  0  0  0  0  1  0  0  0  0  0  0
  190.2440  174.7960  143.4200 C   0  0  2  0  0  3  0  0  0  0  0  0
  189.9210  173.9940  142.1420 C   0  0  1  0  0  3  0  0  0  0  0  0
  188.8890  174.5880  141.4120 O   0  0  0  0  0  1  0  0  0  0  0  0
  191.1260  173.7000  141.2400 C   0  0  2  0  0  3  0  0  0  0  0  0
  190.3020  171.1380  141.3620 O   0  0  0  0  0  0  0  0  0  0  0  0
  192.3920  171.5760  140.1750 O   0  0  0  0  0  0  0  0  0  0  0  0
  191.0110  172.0990  140.4490 S   0  0  0  0  0  0  0  0  0  0  0  0
  190.1280  172.2260  138.9340 C   0  0  0  0  0  0  0  0  0  0  0  0
  189.6880  171.1290  138.3260 C   0  0  0  0  0  2  0  0  0  0  0  0
  189.8720  173.7930  138.1860 Cl  0  0  0  0  0  0  0  0  0  0  0  0
  192.3310  173.8120  141.9390 O   0  0  0  0  0  0  0  0  0  0  0  0
  193.0630  174.7730  141.2420 C   0  0  0  0  0  2  0  0  0  0  0  0
  194.1720  174.9380  143.7210 S   0  0  0  0  0  1  0  0  0  0  0  0
  194.3990  174.9800  141.9240 C   0  0  0  0  0  2  0  0  0  0  0  0
  188.2060  177.8470  144.1520 C   0  0  0  0  0  2  0  0  0  0  0  0
  186.7870  177.5430  144.4960 C   0  0  0  0  0  3  0  0  0  0  0  0
  186.3490  177.7320  145.7360 C   0  0  0  0  0  3  0  0  0  0  0  0
  184.9320  177.4300  146.0820 C   0  0  0  0  0  3  0  0  0  0  0  0
  184.5060  178.3030  147.2440 C   0  0  0  0  0  2  0  0  0  0  0  0
  184.0890  178.6620  145.8350 C   0  0  0  0  0  2  0  0  0  0  0  0
  1  6  1  6  0  0  0
  1  5  1  0  0  0  0
  2  7  1  6  0  0  0
  2  8  1  0  0  0  0
  4  2  1  0  0  0  0
  5  8  1  0  0  0  0
  7  8  1  0  0  0  0
  8 10  1  1  0  0  0
  9  3  1  1  0  0  0
  9 11  1  0  0  0  0
  9  4  1  0  0  0  0
 11 12  1  6  0  0  0
 11  1  1  0  0  0  0
 12 13  1  6  0  0  0
 14 21  1  1  0  0  0
 14 12  1  0  0  0  0
 16 17  2  0  0  0  0
 17 14  1  0  0  0  0
 17 15  2  0  0  0  0
 18 17  1  0  0  0  0
 19 18  2  0  0  0  0
 20 18  1  0  0  0  0
 22 24  1  0  0  0  0
 22 21  1  0  0  0  0
 24 23  1  0  0  0  0
 25 26  1  0  0  0  0
 25  4  1  0  0  0  0
 26 27  2  0  0  0  0
 27 28  1  0  0  0  0
 28 29  1  0  0  0  0
 30 28  1  0  0  0  0
 30 29  1  0  0  0  0
M  END
>  <MODEL>
9

>  <REMARK>
 VINA RESULT:      -5.5      3.607      7.212
  Name = 
  10 active torsions:
  status: ('A' for Active; 'I' for Inactive)
    1  A    between atoms: C_1  and  C_4
    2  A    between atoms: C_1  and  C_29
    3  A    between atoms: C_4  and  O_5
    4  A    between atoms: C_4  and  S_12
    5  A    between atoms: O_5  and  C_21
    6  A    between atoms: C_10  and  C_25
    7  A    between atoms: N_11  and  C_24
    8  A    between atoms: S_12  and  C_13
    9  A    between atoms: C_15  and  C_24
   10  A    between atoms: C_17  and  C_21
                            x       y       z     vdW  Elec       q    Type
                         _______ _______ _______ _____ _____    ______ ____

>  <TORSDO>
F 10

$$$$
