=
 OpenBabel11052420363D

 34 37  0  0  1  0  0  0  0  0999 V2000
  193.2350  174.7010  144.6400 C   0  0  1  0  0  3  0  0  0  0  0  0
  196.5610  173.3880  146.1290 C   0  0  0  0  0  2  0  0  0  0  0  0
  195.6110  175.5870  145.9050 O   0  0  0  0  0  0  0  0  0  0  0  0
  194.5790  176.5080  145.7060 C   0  0  0  0  0  0  0  0  0  0  0  0
  193.1900  176.0440  145.3910 C   0  0  2  0  0  3  0  0  0  0  0  0
  194.7970  177.7340  145.8910 O   0  0  0  0  0  0  0  0  0  0  0  0
  197.0150  172.2330  145.2450 C   0  0  0  0  0  2  0  0  0  0  0  0
  196.1440  170.9720  145.3820 C   0  0  2  0  0  3  0  0  0  0  0  0
  194.6380  171.2470  145.5070 C   0  0  0  0  0  2  0  0  0  0  0  0
  195.5860  174.2690  145.3560 C   0  0  2  0  0  3  0  0  0  0  0  0
  194.1530  172.3480  144.5780 C   0  0  0  0  0  2  0  0  0  0  0  0
  194.1650  173.6840  145.3220 C   0  0  2  0  0  3  0  0  0  0  0  0
  196.6260  170.1000  146.5420 C   0  0  2  0  0  3  0  0  0  0  0  0
  197.7370  169.2640  146.1170 N   0  0  0  0  0  1  0  0  0  0  0  0
  195.5900  169.2800  146.9950 O   0  0  0  0  0  1  0  0  0  0  0  0
  192.3980  175.9720  146.6910 C   0  0  0  0  0  2  0  0  0  0  0  0
  191.1950  176.6610  146.5490 O   0  0  0  0  0  1  0  0  0  0  0  0
  191.8460  174.1600  144.2730 C   0  0  0  0  0  2  0  0  0  0  0  0
  191.1770  175.0240  143.3120 N   0  0  0  0  0  2  0  0  0  0  0  0
  189.9110  172.9620  143.5140 C   0  0  0  0  0  1  0  0  0  0  0  0
  190.0440  174.2830  142.7790 C   0  0  1  0  0  3  0  0  0  0  0  0
  187.5050  176.9980  142.0320 N   0  0  0  0  0  2  0  0  0  0  0  0
  188.5400  175.5360  144.2780 N   0  0  0  0  0  2  0  0  0  0  0  0
  185.3050  178.5240  145.8730 C   0  0  2  0  0  3  0  0  0  0  0  0
  185.9780  179.1760  144.6580 C   0  0  1  0  0  3  0  0  0  0  0  0
  185.9970  178.2650  143.4390 C   0  0  0  0  0  2  0  0  0  0  0  0
  185.6690  179.2840  147.1360 C   0  0  0  0  0  1  0  0  0  0  0  0
  187.2950  177.4690  143.3990 C   0  0  1  0  0  3  0  0  0  0  0  0
  185.3140  180.3590  144.3370 O   0  0  0  0  0  1  0  0  0  0  0  0
  187.0660  176.6860  145.8170 C   0  0  0  0  0  2  0  0  0  0  0  0
  187.2740  176.2640  144.3660 C   0  0  2  0  0  3  0  0  0  0  0  0
  185.6040  177.0330  146.0590 C   0  0  0  0  0  2  0  0  0  0  0  0
  188.7500  175.0860  142.9000 C   0  0  1  0  0  3  0  0  0  0  0  0
  188.7800  176.2890  141.9600 C   0  0  0  0  0  2  0  0  0  0  0  0
  1 18  1  1  0  0  0
  1 12  1  0  0  0  0
  1  5  1  0  0  0  0
  4  6  2  0  0  0  0
  4  3  1  0  0  0  0
  5  4  1  0  0  0  0
  5 16  1  1  0  0  0
  7  8  1  0  0  0  0
  7  2  1  0  0  0  0
  8  9  1  0  0  0  0
  8 13  1  1  0  0  0
 10  3  1  0  0  0  0
 10  2  1  1  0  0  0
 11  9  1  0  0  0  0
 12 11  1  6  0  0  0
 12 10  1  0  0  0  0
 13 14  1  6  0  0  0
 13 15  1  0  0  0  0
 17 16  1  0  0  0  0
 19 18  1  0  0  0  0
 21 19  1  0  0  0  0
 21 20  1  1  0  0  0
 22 28  1  0  0  0  0
 23 31  1  0  0  0  0
 24 32  1  0  0  0  0
 24 27  1  1  0  0  0
 25 29  1  6  0  0  0
 25 24  1  0  0  0  0
 26 25  1  0  0  0  0
 28 26  1  6  0  0  0
 28 31  1  0  0  0  0
 30 32  1  0  0  0  0
 31 30  1  1  0  0  0
 33 21  1  1  0  0  0
 33 23  1  0  0  0  0
 34 22  1  0  0  0  0
 34 33  1  0  0  0  0
M  END
>  <MODEL>
1

>  <REMARK>
 VINA RESULT:      -8.1      0.000      0.000
  Name = 
  6 active torsions:
  status: ('A' for Active; 'I' for Inactive)
    1  A    between atoms: C_1  and  C_9
    2  A    between atoms: C_3  and  C_25
    3  A    between atoms: N_8  and  C_9
    4  A    between atoms: N_8  and  C_18
    5  A    between atoms: C_10  and  C_20
    6  A    between atoms: C_18  and  C_30
                            x       y       z     vdW  Elec       q    Type
                         _______ _______ _______ _____ _____    ______ ____

>  <TORSDO>
F 6

$$$$
=
 OpenBabel11052420363D

 34 37  0  0  1  0  0  0  0  0999 V2000
  193.3370  174.3000  144.8250 C   0  0  1  0  0  3  0  0  0  0  0  0
  196.7130  173.0480  146.2520 C   0  0  0  0  0  2  0  0  0  0  0  0
  195.6810  175.2180  146.1280 O   0  0  0  0  0  0  0  0  0  0  0  0
  194.6140  176.1070  145.9720 C   0  0  0  0  0  0  0  0  0  0  0  0
  193.2430  175.6060  145.6360 C   0  0  2  0  0  3  0  0  0  0  0  0
  194.7850  177.3300  146.2130 O   0  0  0  0  0  0  0  0  0  0  0  0
  197.2080  171.9530  145.3170 C   0  0  0  0  0  2  0  0  0  0  0  0
  196.3870  170.6550  145.3960 C   0  0  2  0  0  3  0  0  0  0  0  0
  194.8710  170.8660  145.5330 C   0  0  0  0  0  2  0  0  0  0  0  0
  195.7040  173.9260  145.5200 C   0  0  2  0  0  3  0  0  0  0  0  0
  194.3430  171.9900  144.6560 C   0  0  0  0  0  2  0  0  0  0  0  0
  194.3060  173.2890  145.4600 C   0  0  2  0  0  3  0  0  0  0  0  0
  196.9030  169.7490  146.5150 C   0  0  2  0  0  3  0  0  0  0  0  0
  197.9360  168.8610  146.0080 N   0  0  0  0  0  1  0  0  0  0  0  0
  195.8600  168.9800  147.0360 O   0  0  0  0  0  1  0  0  0  0  0  0
  192.4560  175.4440  146.9320 C   0  0  0  0  0  2  0  0  0  0  0  0
  191.9690  176.6830  147.3450 O   0  0  0  0  0  1  0  0  0  0  0  0
  191.9690  173.7240  144.4340 C   0  0  0  0  0  2  0  0  0  0  0  0
  191.2980  174.5680  143.4560 N   0  0  0  0  0  2  0  0  0  0  0  0
  189.6030  173.1160  144.4120 C   0  0  0  0  0  1  0  0  0  0  0  0
  189.8660  174.4020  143.6510 C   0  0  1  0  0  3  0  0  0  0  0  0
  188.4340  176.3660  146.5610 N   0  0  0  0  0  2  0  0  0  0  0  0
  188.0640  176.0830  143.7270 N   0  0  0  0  0  2  0  0  0  0  0  0
  184.9930  179.2660  145.2670 C   0  0  2  0  0  3  0  0  0  0  0  0
  185.2080  178.2470  146.3940 C   0  0  1  0  0  3  0  0  0  0  0  0
  186.6790  178.0280  146.7130 C   0  0  0  0  0  2  0  0  0  0  0  0
  183.5820  179.1440  144.7220 C   0  0  0  0  0  1  0  0  0  0  0  0
  187.2220  176.8540  145.9060 C   0  0  1  0  0  3  0  0  0  0  0  0
  184.5480  178.6790  147.5440 O   0  0  0  0  0  1  0  0  0  0  0  0
  186.3150  177.7570  143.6990 C   0  0  0  0  0  2  0  0  0  0  0  0
  187.5420  177.2450  144.4460 C   0  0  2  0  0  3  0  0  0  0  0  0
  186.0030  179.1870  144.1190 C   0  0  0  0  0  2  0  0  0  0  0  0
  189.2670  175.5900  144.4020 C   0  0  1  0  0  3  0  0  0  0  0  0
  188.9310  175.1980  145.8380 C   0  0  0  0  0  2  0  0  0  0  0  0
  1 18  1  1  0  0  0
  1 12  1  0  0  0  0
  1  5  1  0  0  0  0
  4  3  1  0  0  0  0
  4  6  2  0  0  0  0
  5  4  1  0  0  0  0
  5 16  1  1  0  0  0
  7  8  1  0  0  0  0
  7  2  1  0  0  0  0
  8  9  1  0  0  0  0
  8 13  1  1  0  0  0
 10  3  1  0  0  0  0
 10  2  1  1  0  0  0
 11  9  1  0  0  0  0
 12 11  1  6  0  0  0
 12 10  1  0  0  0  0
 13 14  1  6  0  0  0
 13 15  1  0  0  0  0
 16 17  1  0  0  0  0
 19 21  1  0  0  0  0
 19 18  1  0  0  0  0
 21 20  1  1  0  0  0
 23 33  1  0  0  0  0
 23 31  1  0  0  0  0
 24 27  1  6  0  0  0
 24 25  1  0  0  0  0
 25 26  1  0  0  0  0
 25 29  1  1  0  0  0
 28 22  1  0  0  0  0
 28 26  1  1  0  0  0
 30 32  1  0  0  0  0
 31 30  1  6  0  0  0
 31 28  1  0  0  0  0
 32 24  1  0  0  0  0
 33 21  1  6  0  0  0
 33 34  1  0  0  0  0
 34 22  1  0  0  0  0
M  END
>  <MODEL>
2

>  <REMARK>
 VINA RESULT:      -8.0      1.163      1.810
  Name = 
  6 active torsions:
  status: ('A' for Active; 'I' for Inactive)
    1  A    between atoms: C_1  and  C_9
    2  A    between atoms: C_3  and  C_25
    3  A    between atoms: N_8  and  C_9
    4  A    between atoms: N_8  and  C_18
    5  A    between atoms: C_10  and  C_20
    6  A    between atoms: C_18  and  C_30
                            x       y       z     vdW  Elec       q    Type
                         _______ _______ _______ _____ _____    ______ ____

>  <TORSDO>
F 6

$$$$
=
 OpenBabel11052420363D

 34 37  0  0  1  0  0  0  0  0999 V2000
  189.5330  176.2340  143.0480 C   0  0  1  0  0  3  0  0  0  0  0  0
  185.8350  177.3730  143.2160 C   0  0  0  0  0  2  0  0  0  0  0  0
  187.1140  176.1700  141.5720 O   0  0  0  0  0  0  0  0  0  0  0  0
  188.1950  175.4140  141.1120 C   0  0  0  0  0  0  0  0  0  0  0  0
  189.3550  175.1100  142.0110 C   0  0  2  0  0  3  0  0  0  0  0  0
  188.1500  174.9000  139.9640 O   0  0  0  0  0  0  0  0  0  0  0  0
  185.8230  178.7350  143.8970 C   0  0  0  0  0  2  0  0  0  0  0  0
  186.1540  178.6790  145.3980 C   0  0  2  0  0  3  0  0  0  0  0  0
  187.2680  177.6880  145.7690 C   0  0  0  0  0  2  0  0  0  0  0  0
  187.2240  177.0950  142.6540 C   0  0  2  0  0  3  0  0  0  0  0  0
  188.4270  177.6970  144.7850 C   0  0  0  0  0  2  0  0  0  0  0  0
  188.2080  176.6110  143.7320 C   0  0  2  0  0  3  0  0  0  0  0  0
  184.8970  178.4030  146.2250 C   0  0  2  0  0  3  0  0  0  0  0  0
  184.7740  176.9800  146.4950 N   0  0  0  0  0  1  0  0  0  0  0  0
  183.7600  178.8340  145.5370 O   0  0  0  0  0  1  0  0  0  0  0  0
  189.1270  173.7440  142.6490 C   0  0  0  0  0  2  0  0  0  0  0  0
  190.1680  172.8840  142.3040 O   0  0  0  0  0  1  0  0  0  0  0  0
  190.7090  176.0000  144.0060 C   0  0  0  0  0  2  0  0  0  0  0  0
  191.8570  176.8210  143.6460 N   0  0  0  0  0  2  0  0  0  0  0  0
  192.0260  176.2390  145.9970 C   0  0  0  0  0  1  0  0  0  0  0  0
  192.7110  176.9070  144.8210 C   0  0  1  0  0  3  0  0  0  0  0  0
  195.6340  175.5250  142.8410 N   0  0  0  0  0  2  0  0  0  0  0  0
  194.1740  174.9700  145.2520 N   0  0  0  0  0  2  0  0  0  0  0  0
  197.5460  171.7460  144.8380 C   0  0  2  0  0  3  0  0  0  0  0  0
  197.1030  172.1370  143.4220 C   0  0  1  0  0  3  0  0  0  0  0  0
  197.1140  173.6420  143.1990 C   0  0  0  0  0  2  0  0  0  0  0  0
  197.1340  170.3140  145.1310 C   0  0  0  0  0  1  0  0  0  0  0  0
  195.7410  174.2270  143.5050 C   0  0  1  0  0  3  0  0  0  0  0  0
  197.9410  171.5290  142.4880 O   0  0  0  0  0  1  0  0  0  0  0  0
  195.5900  173.0780  145.7780 C   0  0  0  0  0  2  0  0  0  0  0  0
  195.5010  174.3990  145.0220 C   0  0  2  0  0  3  0  0  0  0  0  0
  197.0460  172.6690  145.9530 C   0  0  0  0  0  2  0  0  0  0  0  0
  194.0720  176.2600  144.5660 C   0  0  1  0  0  3  0  0  0  0  0  0
  194.2990  176.0710  143.0680 C   0  0  0  0  0  2  0  0  0  0  0  0
  1 12  1  0  0  0  0
  1 18  1  1  0  0  0
  2  7  1  0  0  0  0
  3 10  1  0  0  0  0
  4  3  1  0  0  0  0
  4  5  1  0  0  0  0
  5 16  1  1  0  0  0
  5  1  1  0  0  0  0
  6  4  2  0  0  0  0
  7  8  1  0  0  0  0
  8  9  1  0  0  0  0
  8 13  1  1  0  0  0
 10  2  1  1  0  0  0
 10 12  1  0  0  0  0
 11  9  1  0  0  0  0
 12 11  1  1  0  0  0
 13 15  1  6  0  0  0
 13 14  1  0  0  0  0
 17 16  1  0  0  0  0
 19 18  1  0  0  0  0
 19 21  1  0  0  0  0
 21 20  1  1  0  0  0
 22 34  1  0  0  0  0
 22 28  1  0  0  0  0
 24 27  1  1  0  0  0
 24 32  1  0  0  0  0
 25 29  1  6  0  0  0
 25 24  1  0  0  0  0
 26 25  1  0  0  0  0
 28 26  1  1  0  0  0
 28 31  1  0  0  0  0
 30 32  1  0  0  0  0
 31 23  1  0  0  0  0
 31 30  1  1  0  0  0
 33 21  1  6  0  0  0
 33 23  1  0  0  0  0
 34 33  1  0  0  0  0
M  END
>  <MODEL>
3

>  <REMARK>
 VINA RESULT:      -7.7      2.916      9.932
  Name = 
  6 active torsions:
  status: ('A' for Active; 'I' for Inactive)
    1  A    between atoms: C_1  and  C_9
    2  A    between atoms: C_3  and  C_25
    3  A    between atoms: N_8  and  C_9
    4  A    between atoms: N_8  and  C_18
    5  A    between atoms: C_10  and  C_20
    6  A    between atoms: C_18  and  C_30
                            x       y       z     vdW  Elec       q    Type
                         _______ _______ _______ _____ _____    ______ ____

>  <TORSDO>
F 6

$$$$
=
 OpenBabel11052420363D

 34 37  0  0  1  0  0  0  0  0999 V2000
  191.2390  175.1200  144.2410 C   0  0  1  0  0  3  0  0  0  0  0  0
  194.6880  175.5180  145.9570 C   0  0  0  0  0  2  0  0  0  0  0  0
  192.4950  176.3740  146.4510 O   0  0  0  0  0  0  0  0  0  0  0  0
  191.1010  176.4110  146.3680 C   0  0  0  0  0  0  0  0  0  0  0  0
  190.3630  175.4800  145.4540 C   0  0  2  0  0  3  0  0  0  0  0  0
  190.4530  177.1650  147.1400 O   0  0  0  0  0  0  0  0  0  0  0  0
  195.7290  175.5850  144.8470 C   0  0  0  0  0  2  0  0  0  0  0  0
  195.9450  174.2470  144.1200 C   0  0  2  0  0  3  0  0  0  0  0  0
  194.6600  173.4430  143.8680 C   0  0  0  0  0  2  0  0  0  0  0  0
  193.3180  175.8770  145.3950 C   0  0  2  0  0  3  0  0  0  0  0  0
  193.4900  174.3100  143.4290 C   0  0  0  0  0  2  0  0  0  0  0  0
  192.6610  174.7030  144.6520 C   0  0  2  0  0  3  0  0  0  0  0  0
  196.9760  173.3870  144.8530 C   0  0  2  0  0  3  0  0  0  0  0  0
  196.3170  172.2990  145.5560 N   0  0  0  0  0  1  0  0  0  0  0  0
  197.6830  174.1610  145.7760 O   0  0  0  0  0  1  0  0  0  0  0  0
  189.9290  174.2590  146.2570 C   0  0  0  0  0  2  0  0  0  0  0  0
  188.9410  174.6210  147.1700 O   0  0  0  0  0  1  0  0  0  0  0  0
  190.5500  174.1720  143.2500 C   0  0  0  0  0  2  0  0  0  0  0  0
  190.1030  174.8820  142.0600 N   0  0  0  0  0  2  0  0  0  0  0  0
  188.6230  172.9820  142.3730 C   0  0  0  0  0  1  0  0  0  0  0  0
  188.8190  174.3140  141.6750 C   0  0  1  0  0  3  0  0  0  0  0  0
  186.6130  177.3900  141.4550 N   0  0  0  0  0  2  0  0  0  0  0  0
  187.6800  175.6060  143.4380 N   0  0  0  0  0  2  0  0  0  0  0  0
  185.0860  178.8230  145.6430 C   0  0  2  0  0  3  0  0  0  0  0  0
  185.7030  179.4930  144.4080 C   0  0  1  0  0  3  0  0  0  0  0  0
  185.4600  178.7050  143.1300 C   0  0  0  0  0  2  0  0  0  0  0  0
  185.6900  179.4100  146.9060 C   0  0  0  0  0  1  0  0  0  0  0  0
  186.6230  177.7550  142.8700 C   0  0  1  0  0  3  0  0  0  0  0  0
  185.1770  180.7770  144.2630 O   0  0  0  0  0  1  0  0  0  0  0  0
  186.5590  176.7870  145.2300 C   0  0  0  0  0  2  0  0  0  0  0  0
  186.5440  176.4780  143.7370 C   0  0  2  0  0  3  0  0  0  0  0  0
  185.1940  177.2960  145.6760 C   0  0  0  0  0  2  0  0  0  0  0  0
  187.6700  175.2620  142.0150 C   0  0  1  0  0  3  0  0  0  0  0  0
  187.7620  176.5330  141.1740 C   0  0  0  0  0  2  0  0  0  0  0  0
  1 18  1  1  0  0  0
  1 12  1  0  0  0  0
  1  5  1  0  0  0  0
  4  3  1  0  0  0  0
  4  6  2  0  0  0  0
  5 16  1  1  0  0  0
  5  4  1  0  0  0  0
  7  2  1  0  0  0  0
  8  7  1  0  0  0  0
  8 13  1  1  0  0  0
  9  8  1  0  0  0  0
 10  2  1  1  0  0  0
 10  3  1  0  0  0  0
 11  9  1  0  0  0  0
 12 11  1  6  0  0  0
 12 10  1  0  0  0  0
 13 14  1  1  0  0  0
 13 15  1  0  0  0  0
 16 17  1  0  0  0  0
 19 18  1  0  0  0  0
 21 19  1  0  0  0  0
 21 20  1  1  0  0  0
 22 28  1  0  0  0  0
 23 31  1  0  0  0  0
 24 32  1  0  0  0  0
 24 27  1  1  0  0  0
 25 29  1  6  0  0  0
 25 24  1  0  0  0  0
 26 25  1  0  0  0  0
 28 26  1  6  0  0  0
 28 31  1  0  0  0  0
 30 32  1  0  0  0  0
 31 30  1  1  0  0  0
 33 21  1  1  0  0  0
 33 23  1  0  0  0  0
 34 22  1  0  0  0  0
 34 33  1  0  0  0  0
M  END
>  <MODEL>
4

>  <REMARK>
 VINA RESULT:      -7.6      1.829      2.486
  Name = 
  6 active torsions:
  status: ('A' for Active; 'I' for Inactive)
    1  A    between atoms: C_1  and  C_9
    2  A    between atoms: C_3  and  C_25
    3  A    between atoms: N_8  and  C_9
    4  A    between atoms: N_8  and  C_18
    5  A    between atoms: C_10  and  C_20
    6  A    between atoms: C_18  and  C_30
                            x       y       z     vdW  Elec       q    Type
                         _______ _______ _______ _____ _____    ______ ____

>  <TORSDO>
F 6

$$$$
=
 OpenBabel11052420363D

 34 37  0  0  1  0  0  0  0  0999 V2000
  190.9940  174.6490  143.4210 C   0  0  1  0  0  3  0  0  0  0  0  0
  194.0680  175.6890  145.5360 C   0  0  0  0  0  2  0  0  0  0  0  0
  191.7880  175.1580  146.0930 O   0  0  0  0  0  0  0  0  0  0  0  0
  190.5230  174.6110  145.8670 C   0  0  0  0  0  0  0  0  0  0  0  0
  190.1840  173.9850  144.5490 C   0  0  2  0  0  3  0  0  0  0  0  0
  189.6930  174.5540  146.8120 O   0  0  0  0  0  0  0  0  0  0  0  0
  194.8460  176.7070  144.7130 C   0  0  0  0  0  2  0  0  0  0  0  0
  195.5550  176.1010  143.4900 C   0  0  2  0  0  3  0  0  0  0  0  0
  194.7430  175.0310  142.7460 C   0  0  0  0  0  2  0  0  0  0  0  0
  192.6300  175.6210  145.0360 C   0  0  2  0  0  3  0  0  0  0  0  0
  193.2700  175.3860  142.6110 C   0  0  0  0  0  2  0  0  0  0  0  0
  192.4880  174.7640  143.7670 C   0  0  2  0  0  3  0  0  0  0  0  0
  196.9320  175.5560  143.8720 C   0  0  2  0  0  3  0  0  0  0  0  0
  197.9410  176.0410  142.9450 N   0  0  0  0  0  1  0  0  0  0  0  0
  196.9260  174.1600  143.8450 O   0  0  0  0  0  1  0  0  0  0  0  0
  190.4260  172.4840  144.6490 C   0  0  0  0  0  2  0  0  0  0  0  0
  189.2150  171.8030  144.5380 O   0  0  0  0  0  1  0  0  0  0  0  0
  190.6980  174.0670  142.0320 C   0  0  0  0  0  2  0  0  0  0  0  0
  189.2710  173.8460  141.8430 N   0  0  0  0  0  2  0  0  0  0  0  0
  188.4140  174.1580  139.5930 C   0  0  0  0  0  1  0  0  0  0  0  0
  188.8020  174.8410  140.8910 C   0  0  1  0  0  3  0  0  0  0  0  0
  186.2810  177.6550  141.2090 N   0  0  0  0  0  2  0  0  0  0  0  0
  187.7730  175.8620  142.8850 N   0  0  0  0  0  2  0  0  0  0  0  0
  185.1710  178.5940  145.6590 C   0  0  2  0  0  3  0  0  0  0  0  0
  185.5510  179.4190  144.4220 C   0  0  1  0  0  3  0  0  0  0  0  0
  185.2260  178.7040  143.1190 C   0  0  0  0  0  2  0  0  0  0  0  0
  185.8700  179.1510  146.8870 C   0  0  0  0  0  1  0  0  0  0  0  0
  186.4370  177.9140  142.6380 C   0  0  1  0  0  3  0  0  0  0  0  0
  184.8810  180.6420  144.4540 O   0  0  0  0  0  1  0  0  0  0  0  0
  186.7790  176.7740  144.8950 C   0  0  0  0  0  2  0  0  0  0  0  0
  186.6020  176.5760  143.3940 C   0  0  2  0  0  3  0  0  0  0  0  0
  185.4390  177.0910  145.5450 C   0  0  0  0  0  2  0  0  0  0  0  0
  187.6150  175.6250  141.4480 C   0  0  1  0  0  3  0  0  0  0  0  0
  187.4650  176.9560  140.7160 C   0  0  0  0  0  2  0  0  0  0  0  0
  1 18  1  6  0  0  0
  1 12  1  0  0  0  0
  1  5  1  0  0  0  0
  4  3  1  0  0  0  0
  4  6  2  0  0  0  0
  5 16  1  1  0  0  0
  5  4  1  0  0  0  0
  7  2  1  0  0  0  0
  8 13  1  1  0  0  0
  8  7  1  0  0  0  0
  9  8  1  0  0  0  0
 10  2  1  1  0  0  0
 10  3  1  0  0  0  0
 11  9  1  0  0  0  0
 12 11  1  6  0  0  0
 12 10  1  0  0  0  0
 13 14  1  6  0  0  0
 15 13  1  0  0  0  0
 17 16  1  0  0  0  0
 19 18  1  0  0  0  0
 21 20  1  6  0  0  0
 21 19  1  0  0  0  0
 22 28  1  0  0  0  0
 23 31  1  0  0  0  0
 24 27  1  1  0  0  0
 25 29  1  6  0  0  0
 25 24  1  0  0  0  0
 26 25  1  0  0  0  0
 28 26  1  1  0  0  0
 28 31  1  0  0  0  0
 30 32  1  0  0  0  0
 31 30  1  1  0  0  0
 32 24  1  0  0  0  0
 33 21  1  6  0  0  0
 33 23  1  0  0  0  0
 34 22  1  0  0  0  0
 34 33  1  0  0  0  0
M  END
>  <MODEL>
5

>  <REMARK>
 VINA RESULT:      -7.4      2.828      3.635
  Name = 
  6 active torsions:
  status: ('A' for Active; 'I' for Inactive)
    1  A    between atoms: C_1  and  C_9
    2  A    between atoms: C_3  and  C_25
    3  A    between atoms: N_8  and  C_9
    4  A    between atoms: N_8  and  C_18
    5  A    between atoms: C_10  and  C_20
    6  A    between atoms: C_18  and  C_30
                            x       y       z     vdW  Elec       q    Type
                         _______ _______ _______ _____ _____    ______ ____

>  <TORSDO>
F 6

$$$$
=
 OpenBabel11052420363D

 34 37  0  0  1  0  0  0  0  0999 V2000
  194.0560  174.9020  144.4780 C   0  0  1  0  0  3  0  0  0  0  0  0
  194.6080  171.4860  142.7380 C   0  0  0  0  0  2  0  0  0  0  0  0
  194.7710  173.7640  141.9830 O   0  0  0  0  0  0  0  0  0  0  0  0
  194.8910  175.1470  142.1430 C   0  0  0  0  0  0  0  0  0  0  0  0
  194.8870  175.7620  143.5090 C   0  0  2  0  0  3  0  0  0  0  0  0
  195.1020  175.8730  141.1370 O   0  0  0  0  0  0  0  0  0  0  0  0
  193.5640  170.5300  143.3000 C   0  0  0  0  0  2  0  0  0  0  0  0
  193.8180  170.1290  144.7630 C   0  0  2  0  0  3  0  0  0  0  0  0
  194.3200  171.2710  145.6610 C   0  0  0  0  0  2  0  0  0  0  0  0
  194.1550  172.9240  142.9590 C   0  0  2  0  0  3  0  0  0  0  0  0
  193.6130  172.5910  145.3980 C   0  0  0  0  0  2  0  0  0  0  0  0
  194.4230  173.4100  144.3930 C   0  0  2  0  0  3  0  0  0  0  0  0
  194.7660  168.9310  144.8450 C   0  0  2  0  0  3  0  0  0  0  0  0
  196.0550  169.3430  145.3750 N   0  0  0  0  0  1  0  0  0  0  0  0
  194.9540  168.3750  143.5770 O   0  0  0  0  0  1  0  0  0  0  0  0
  196.3310  175.9420  143.9630 C   0  0  0  0  0  2  0  0  0  0  0  0
  196.8170  177.1680  143.5120 O   0  0  0  0  0  1  0  0  0  0  0  0
  193.9970  175.4700  145.9030 C   0  0  0  0  0  2  0  0  0  0  0  0
  192.8440  176.3420  146.0780 N   0  0  0  0  0  2  0  0  0  0  0  0
  191.4700  175.6900  147.9700 C   0  0  0  0  0  1  0  0  0  0  0  0
  191.7270  175.5050  146.4870 C   0  0  1  0  0  3  0  0  0  0  0  0
  189.5340  177.2520  143.9350 N   0  0  0  0  0  2  0  0  0  0  0  0
  189.3500  176.1510  146.5820 N   0  0  0  0  0  2  0  0  0  0  0  0
  185.1420  177.8610  145.4390 C   0  0  2  0  0  3  0  0  0  0  0  0
  186.1990  178.7320  144.7470 C   0  0  1  0  0  3  0  0  0  0  0  0
  187.2040  177.9130  143.9520 C   0  0  0  0  0  2  0  0  0  0  0  0
  184.4360  178.6630  146.5180 C   0  0  0  0  0  1  0  0  0  0  0  0
  188.4170  177.5890  144.8160 C   0  0  1  0  0  3  0  0  0  0  0  0
  185.5690  179.6390  143.8950 O   0  0  0  0  0  1  0  0  0  0  0  0
  186.9990  176.7070  146.7440 C   0  0  0  0  0  2  0  0  0  0  0  0
  188.1500  176.4180  145.7880 C   0  0  2  0  0  3  0  0  0  0  0  0
  185.6660  176.5480  146.0260 C   0  0  0  0  0  2  0  0  0  0  0  0
  190.4660  175.8330  145.6890 C   0  0  1  0  0  3  0  0  0  0  0  0
  190.7240  177.0050  144.7440 C   0  0  0  0  0  2  0  0  0  0  0  0
  1 18  1  1  0  0  0
  2  7  1  0  0  0  0
  3  4  1  0  0  0  0
  3 10  1  0  0  0  0
  4  5  1  0  0  0  0
  5 16  1  1  0  0  0
  5  1  1  0  0  0  0
  6  4  2  0  0  0  0
  7  8  1  0  0  0  0
  8 13  1  6  0  0  0
  8  9  1  0  0  0  0
 10  2  1  1  0  0  0
 10 12  1  0  0  0  0
 11  9  1  0  0  0  0
 12  1  1  0  0  0  0
 12 11  1  1  0  0  0
 13 15  1  6  0  0  0
 13 14  1  0  0  0  0
 17 16  1  0  0  0  0
 18 19  1  0  0  0  0
 19 21  1  0  0  0  0
 21 20  1  1  0  0  0
 22 34  1  0  0  0  0
 22 28  1  0  0  0  0
 24 32  1  0  0  0  0
 24 27  1  1  0  0  0
 25 29  1  6  0  0  0
 25 24  1  0  0  0  0
 26 25  1  0  0  0  0
 28 26  1  6  0  0  0
 28 31  1  0  0  0  0
 31 23  1  0  0  0  0
 31 30  1  1  0  0  0
 32 30  1  0  0  0  0
 33 21  1  1  0  0  0
 33 23  1  0  0  0  0
 34 33  1  0  0  0  0
M  END
>  <MODEL>
6

>  <REMARK>
 VINA RESULT:      -7.4      2.379      3.119
  Name = 
  6 active torsions:
  status: ('A' for Active; 'I' for Inactive)
    1  A    between atoms: C_1  and  C_9
    2  A    between atoms: C_3  and  C_25
    3  A    between atoms: N_8  and  C_9
    4  A    between atoms: N_8  and  C_18
    5  A    between atoms: C_10  and  C_20
    6  A    between atoms: C_18  and  C_30
                            x       y       z     vdW  Elec       q    Type
                         _______ _______ _______ _____ _____    ______ ____

>  <TORSDO>
F 6

$$$$
=
 OpenBabel11052420363D

 34 37  0  0  1  0  0  0  0  0999 V2000
  193.7580  175.5810  143.6190 C   0  0  1  0  0  3  0  0  0  0  0  0
  192.9640  173.5550  140.4150 C   0  0  0  0  0  2  0  0  0  0  0  0
  194.4560  175.3840  140.8790 O   0  0  0  0  0  0  0  0  0  0  0  0
  195.2070  176.2300  141.6990 C   0  0  0  0  0  0  0  0  0  0  0  0
  195.1390  176.1100  143.1910 C   0  0  2  0  0  3  0  0  0  0  0  0
  196.0240  177.0340  141.1790 O   0  0  0  0  0  0  0  0  0  0  0  0
  191.4720  173.2480  140.4460 C   0  0  0  0  0  2  0  0  0  0  0  0
  191.0750  172.2190  141.5180 C   0  0  2  0  0  3  0  0  0  0  0  0
  191.8150  172.3730  142.8560 C   0  0  0  0  0  2  0  0  0  0  0  0
  193.2590  174.7440  141.3220 C   0  0  2  0  0  3  0  0  0  0  0  0
  191.9760  173.8230  143.2850 C   0  0  0  0  0  2  0  0  0  0  0  0
  193.3280  174.3480  142.8060 C   0  0  2  0  0  3  0  0  0  0  0  0
  191.2220  170.7930  140.9870 C   0  0  2  0  0  3  0  0  0  0  0  0
  190.7180  170.7060  139.6270 N   0  0  0  0  0  1  0  0  0  0  0  0
  190.5110  169.9000  141.7920 O   0  0  0  0  0  1  0  0  0  0  0  0
  196.2860  175.2210  143.6570 C   0  0  0  0  0  2  0  0  0  0  0  0
  197.4970  175.8900  143.4930 O   0  0  0  0  0  1  0  0  0  0  0  0
  193.6040  175.4360  145.1400 C   0  0  0  0  0  2  0  0  0  0  0  0
  192.7660  176.4910  145.6910 N   0  0  0  0  0  2  0  0  0  0  0  0
  191.4900  176.3260  147.7500 C   0  0  0  0  0  1  0  0  0  0  0  0
  191.6190  175.8490  146.3160 C   0  0  1  0  0  3  0  0  0  0  0  0
  189.3100  177.5600  143.8440 N   0  0  0  0  0  2  0  0  0  0  0  0
  189.2180  176.3860  146.4630 N   0  0  0  0  0  2  0  0  0  0  0  0
  184.9200  177.9340  145.4280 C   0  0  2  0  0  3  0  0  0  0  0  0
  185.9260  178.8680  144.7430 C   0  0  1  0  0  3  0  0  0  0  0  0
  186.9540  178.1150  143.9120 C   0  0  0  0  0  2  0  0  0  0  0  0
  184.1980  178.6760  146.5380 C   0  0  0  0  0  1  0  0  0  0  0  0
  188.1940  177.8250  144.7490 C   0  0  1  0  0  3  0  0  0  0  0  0
  185.2440  179.7680  143.9240 O   0  0  0  0  0  1  0  0  0  0  0  0
  186.8470  176.8320  146.6760 C   0  0  0  0  0  2  0  0  0  0  0  0
  187.9950  176.6190  145.6940 C   0  0  2  0  0  3  0  0  0  0  0  0
  185.5110  176.6310  145.9740 C   0  0  0  0  0  2  0  0  0  0  0  0
  190.3320  176.1410  145.5460 C   0  0  1  0  0  3  0  0  0  0  0  0
  190.5230  177.3460  144.6280 C   0  0  0  0  0  2  0  0  0  0  0  0
  1 18  1  1  0  0  0
  2  7  1  0  0  0  0
  3 10  1  0  0  0  0
  3  4  1  0  0  0  0
  4  5  1  0  0  0  0
  5  1  1  0  0  0  0
  5 16  1  6  0  0  0
  6  4  2  0  0  0  0
  7  8  1  0  0  0  0
  8 13  1  6  0  0  0
  8  9  1  0  0  0  0
  9 11  1  0  0  0  0
 10  2  1  6  0  0  0
 10 12  1  0  0  0  0
 12 11  1  1  0  0  0
 12  1  1  0  0  0  0
 13 14  1  6  0  0  0
 13 15  1  0  0  0  0
 17 16  1  0  0  0  0
 18 19  1  0  0  0  0
 19 21  1  0  0  0  0
 21 20  1  1  0  0  0
 22 34  1  0  0  0  0
 22 28  1  0  0  0  0
 24 32  1  0  0  0  0
 24 27  1  1  0  0  0
 25 29  1  6  0  0  0
 25 24  1  0  0  0  0
 26 25  1  0  0  0  0
 28 26  1  6  0  0  0
 28 31  1  0  0  0  0
 31 23  1  0  0  0  0
 31 30  1  1  0  0  0
 32 30  1  0  0  0  0
 33 21  1  1  0  0  0
 33 23  1  0  0  0  0
 34 33  1  0  0  0  0
M  END
>  <MODEL>
7

>  <REMARK>
 VINA RESULT:      -7.4      3.329      4.432
  Name = 
  6 active torsions:
  status: ('A' for Active; 'I' for Inactive)
    1  A    between atoms: C_1  and  C_9
    2  A    between atoms: C_3  and  C_25
    3  A    between atoms: N_8  and  C_9
    4  A    between atoms: N_8  and  C_18
    5  A    between atoms: C_10  and  C_20
    6  A    between atoms: C_18  and  C_30
                            x       y       z     vdW  Elec       q    Type
                         _______ _______ _______ _____ _____    ______ ____

>  <TORSDO>
F 6

$$$$
=
 OpenBabel11052420363D

 34 37  0  0  1  0  0  0  0  0999 V2000
  194.0900  173.8990  144.4340 C   0  0  1  0  0  3  0  0  0  0  0  0
  196.9250  171.3510  145.1210 C   0  0  0  0  0  2  0  0  0  0  0  0
  196.9120  173.6450  144.3950 O   0  0  0  0  0  0  0  0  0  0  0  0
  196.3550  174.9130  144.2110 C   0  0  0  0  0  0  0  0  0  0  0  0
  194.9280  175.1820  144.5780 C   0  0  2  0  0  3  0  0  0  0  0  0
  197.0860  175.8620  143.8260 O   0  0  0  0  0  0  0  0  0  0  0  0
  196.4200  169.9920  144.6560 C   0  0  0  0  0  2  0  0  0  0  0  0
  195.3130  169.4060  145.5480 C   0  0  2  0  0  3  0  0  0  0  0  0
  194.2850  170.4330  146.0480 C   0  0  0  0  0  2  0  0  0  0  0  0
  196.1250  172.4540  144.4390 C   0  0  2  0  0  3  0  0  0  0  0  0
  193.8830  171.4420  144.9840 C   0  0  0  0  0  2  0  0  0  0  0  0
  194.7600  172.6880  145.1060 C   0  0  2  0  0  3  0  0  0  0  0  0
  195.9100  168.6330  146.7240 C   0  0  2  0  0  3  0  0  0  0  0  0
  194.9060  168.4270  147.7540 N   0  0  0  0  0  1  0  0  0  0  0  0
  196.9840  169.3380  147.2720 O   0  0  0  0  0  1  0  0  0  0  0  0
  194.8920  175.7600  145.9880 C   0  0  0  0  0  2  0  0  0  0  0  0
  194.6700  177.1350  145.9280 O   0  0  0  0  0  1  0  0  0  0  0  0
  192.6090  174.0940  144.7870 C   0  0  0  0  0  2  0  0  0  0  0  0
  191.8740  174.6880  143.6790 N   0  0  0  0  0  2  0  0  0  0  0  0
  192.2290  177.0640  143.3210 C   0  0  0  0  0  1  0  0  0  0  0  0
  191.4570  176.0180  144.1020 C   0  0  1  0  0  3  0  0  0  0  0  0
  188.2550  177.4690  142.6840 N   0  0  0  0  0  2  0  0  0  0  0  0
  189.2960  176.5050  145.1810 N   0  0  0  0  0  2  0  0  0  0  0  0
  184.8690  177.8600  145.8950 C   0  0  2  0  0  3  0  0  0  0  0  0
  185.4590  178.7610  144.8020 C   0  0  1  0  0  3  0  0  0  0  0  0
  186.1020  177.9700  143.6730 C   0  0  0  0  0  2  0  0  0  0  0  0
  184.6180  178.6700  147.1540 C   0  0  0  0  0  1  0  0  0  0  0  0
  187.5880  177.7770  143.9480 C   0  0  1  0  0  3  0  0  0  0  0  0
  184.4540  179.5750  144.2780 O   0  0  0  0  0  1  0  0  0  0  0  0
  187.1940  176.9080  146.3140 C   0  0  0  0  0  2  0  0  0  0  0  0
  187.8550  176.6460  144.9650 C   0  0  2  0  0  3  0  0  0  0  0  0
  185.7010  176.6190  146.2320 C   0  0  0  0  0  2  0  0  0  0  0  0
  189.9550  176.2150  143.9060 C   0  0  1  0  0  3  0  0  0  0  0  0
  189.6910  177.3480  142.9170 C   0  0  0  0  0  2  0  0  0  0  0  0
  1  5  1  0  0  0  0
  1 18  1  1  0  0  0
  1 12  1  0  0  0  0
  3 10  1  0  0  0  0
  4  3  1  0  0  0  0
  4  5  1  0  0  0  0
  5 16  1  1  0  0  0
  6  4  2  0  0  0  0
  7  2  1  0  0  0  0
  7  8  1  0  0  0  0
  8  9  1  0  0  0  0
  8 13  1  1  0  0  0
 10 12  1  0  0  0  0
 10  2  1  1  0  0  0
 11  9  1  0  0  0  0
 12 11  1  6  0  0  0
 13 15  1  1  0  0  0
 13 14  1  0  0  0  0
 17 16  1  0  0  0  0
 19 21  1  0  0  0  0
 19 18  1  0  0  0  0
 21 20  1  6  0  0  0
 22 34  1  0  0  0  0
 22 28  1  0  0  0  0
 24 32  1  0  0  0  0
 24 27  1  1  0  0  0
 25 29  1  6  0  0  0
 25 24  1  0  0  0  0
 26 25  1  0  0  0  0
 28 26  1  6  0  0  0
 28 31  1  0  0  0  0
 31 23  1  0  0  0  0
 31 30  1  1  0  0  0
 32 30  1  0  0  0  0
 33 21  1  1  0  0  0
 33 23  1  0  0  0  0
 34 33  1  0  0  0  0
M  END
>  <MODEL>
8

>  <REMARK>
 VINA RESULT:      -7.3      1.598      2.021
  Name = 
  6 active torsions:
  status: ('A' for Active; 'I' for Inactive)
    1  A    between atoms: C_1  and  C_9
    2  A    between atoms: C_3  and  C_25
    3  A    between atoms: N_8  and  C_9
    4  A    between atoms: N_8  and  C_18
    5  A    between atoms: C_10  and  C_20
    6  A    between atoms: C_18  and  C_30
                            x       y       z     vdW  Elec       q    Type
                         _______ _______ _______ _____ _____    ______ ____

>  <TORSDO>
F 6

$$$$
=
 OpenBabel11052420363D

 34 37  0  0  1  0  0  0  0  0999 V2000
  192.4240  172.7940  144.2860 C   0  0  1  0  0  3  0  0  0  0  0  0
  194.0590  169.2860  144.4430 C   0  0  0  0  0  2  0  0  0  0  0  0
  192.1570  170.1650  143.2610 O   0  0  0  0  0  0  0  0  0  0  0  0
  191.3550  171.1750  142.7220 C   0  0  0  0  0  0  0  0  0  0  0  0
  191.6900  172.6180  142.9450 C   0  0  2  0  0  3  0  0  0  0  0  0
  190.4010  170.8700  141.9610 O   0  0  0  0  0  0  0  0  0  0  0  0
  194.5320  169.0830  145.8770 C   0  0  0  0  0  2  0  0  0  0  0  0
  195.7380  169.9580  146.2590 C   0  0  2  0  0  3  0  0  0  0  0  0
  195.6910  171.3890  145.7020 C   0  0  0  0  0  2  0  0  0  0  0  0
  192.9830  170.3640  144.4090 C   0  0  2  0  0  3  0  0  0  0  0  0
  194.3070  172.0140  145.7790 C   0  0  0  0  0  2  0  0  0  0  0  0
  193.5710  171.7840  144.4580 C   0  0  2  0  0  3  0  0  0  0  0  0
  197.0510  169.2770  145.8700 C   0  0  2  0  0  3  0  0  0  0  0  0
  197.6630  168.6590  147.0350 N   0  0  0  0  0  1  0  0  0  0  0  0
  197.9410  170.2100  145.3330 O   0  0  0  0  0  1  0  0  0  0  0  0
  192.5010  173.1160  141.7540 C   0  0  0  0  0  2  0  0  0  0  0  0
  192.0480  174.3760  141.3690 O   0  0  0  0  0  1  0  0  0  0  0  0
  192.7970  174.2510  144.5920 C   0  0  0  0  0  2  0  0  0  0  0  0
  192.1130  174.7340  145.7830 N   0  0  0  0  0  2  0  0  0  0  0  0
  192.8780  176.7380  144.6450 C   0  0  0  0  0  1  0  0  0  0  0  0
  191.8400  176.1490  145.5810 C   0  0  1  0  0  3  0  0  0  0  0  0
  189.0940  177.7190  143.4900 N   0  0  0  0  0  2  0  0  0  0  0  0
  189.4650  176.5640  146.0940 N   0  0  0  0  0  2  0  0  0  0  0  0
  184.9850  177.8810  145.7300 C   0  0  2  0  0  3  0  0  0  0  0  0
  185.8240  178.8600  144.8980 C   0  0  1  0  0  3  0  0  0  0  0  0
  186.7500  178.1530  143.9190 C   0  0  0  0  0  2  0  0  0  0  0  0
  184.4030  178.5960  146.9370 C   0  0  0  0  0  1  0  0  0  0  0  0
  188.1170  177.9340  144.5560 C   0  0  1  0  0  3  0  0  0  0  0  0
  184.9780  179.7160  144.1930 O   0  0  0  0  0  1  0  0  0  0  0  0
  187.1350  176.8910  146.6670 C   0  0  0  0  0  2  0  0  0  0  0  0
  188.1280  176.7280  145.5220 C   0  0  2  0  0  3  0  0  0  0  0  0
  185.7190  176.6150  146.1790 C   0  0  0  0  0  2  0  0  0  0  0  0
  190.4370  176.3680  145.0160 C   0  0  1  0  0  3  0  0  0  0  0  0
  190.4220  177.5730  144.0800 C   0  0  0  0  0  2  0  0  0  0  0  0
  1 12  1  0  0  0  0
  1 18  1  6  0  0  0
  2  7  1  0  0  0  0
  3 10  1  0  0  0  0
  4  5  1  0  0  0  0
  4  3  1  0  0  0  0
  5 16  1  6  0  0  0
  5  1  1  0  0  0  0
  6  4  2  0  0  0  0
  7  8  1  0  0  0  0
  8 13  1  6  0  0  0
  9 11  1  0  0  0  0
  9  8  1  0  0  0  0
 10  2  1  6  0  0  0
 10 12  1  0  0  0  0
 12 11  1  1  0  0  0
 13 15  1  1  0  0  0
 13 14  1  0  0  0  0
 17 16  1  0  0  0  0
 18 19  1  0  0  0  0
 21 20  1  6  0  0  0
 21 19  1  0  0  0  0
 22 34  1  0  0  0  0
 22 28  1  0  0  0  0
 24 32  1  0  0  0  0
 24 27  1  1  0  0  0
 25 29  1  6  0  0  0
 25 24  1  0  0  0  0
 26 25  1  0  0  0  0
 28 26  1  6  0  0  0
 28 31  1  0  0  0  0
 31 23  1  0  0  0  0
 31 30  1  1  0  0  0
 32 30  1  0  0  0  0
 33 21  1  1  0  0  0
 33 23  1  0  0  0  0
 34 33  1  0  0  0  0
M  END
>  <MODEL>
9

>  <REMARK>
 VINA RESULT:      -7.2      2.471      3.593
  Name = 
  6 active torsions:
  status: ('A' for Active; 'I' for Inactive)
    1  A    between atoms: C_1  and  C_9
    2  A    between atoms: C_3  and  C_25
    3  A    between atoms: N_8  and  C_9
    4  A    between atoms: N_8  and  C_18
    5  A    between atoms: C_10  and  C_20
    6  A    between atoms: C_18  and  C_30
                            x       y       z     vdW  Elec       q    Type
                         _______ _______ _______ _____ _____    ______ ____

>  <TORSDO>
F 6

$$$$
