=
 OpenBabel11052418253D

 27 32  0  0  1  0  0  0  0  0999 V2000
  190.0480  173.6210  144.3200 C   0  0  0  0  0  2  0  0  0  0  0  0
  189.0290  175.7830  145.1340 C   0  0  0  0  0  0  0  0  0  0  0  0
  188.2120  175.6850  142.8010 O   0  0  0  0  0  0  0  0  0  0  0  0
  185.8150  178.2880  146.3240 C   0  0  0  0  0  3  0  0  0  0  0  0
  184.9770  178.5790  145.2960 C   0  0  0  0  0  0  0  0  0  0  0  0
  188.8700  176.2450  146.4050 N   0  0  0  0  0  0  0  0  0  0  0  0
  186.0750  177.3230  143.4180 C   0  0  0  0  0  3  0  0  0  0  0  0
  189.8420  173.2870  140.5280 C   0  0  0  0  0  0  0  0  0  0  0  0
  185.0990  178.1220  143.9210 C   0  0  0  0  0  0  0  0  0  0  0  0
  190.4350  173.2850  139.4180 O   0  0  0  0  0  0  0  0  0  0  0  0
  187.0130  176.9700  144.4580 C   0  0  0  0  0  0  0  0  0  0  0  0
  190.1950  174.9920  144.8320 N   0  0  0  0  0  0  0  0  0  0  0  0
  184.0410  178.9500  144.3200 C   0  0  0  0  0  2  0  0  0  0  0  0
  186.8780  177.4390  145.8560 C   0  0  0  0  0  0  0  0  0  0  0  0
  189.0270  173.5170  143.2770 N   0  0  2  0  0  0  0  0  0  0  0  0
  188.0960  176.1380  144.1280 C   0  0  0  0  0  0  0  0  0  0  0  0
  188.9080  174.3770  140.8960 C   0  0  0  0  0  2  0  0  0  0  0  0
  187.8380  177.0410  146.7780 C   0  0  0  0  0  3  0  0  0  0  0  0
  190.0580  172.2470  141.4710 N   0  0  0  0  0  2  0  0  0  0  0  0
  189.1880  172.1960  142.6410 C   0  0  0  0  0  2  0  0  0  0  0  0
  189.1320  174.6890  142.3760 C   0  0  1  0  0  3  0  0  0  0  0  0
  194.0670  176.4350  145.8590 C   0  0  0  0  0  3  0  0  0  0  0  0
  191.5130  175.4720  145.1710 C   0  0  0  0  0  0  0  0  0  0  0  0
  192.2610  174.8590  146.1930 C   0  0  0  0  0  3  0  0  0  0  0  0
  193.5300  175.3360  146.5330 C   0  0  0  0  0  3  0  0  0  0  0  0
  193.3340  177.0600  144.8480 C   0  0  0  0  0  3  0  0  0  0  0  0
  192.0640  176.5830  144.5080 C   0  0  0  0  0  3  0  0  0  0  0  0
  1 12  1  0  0  0  0
  2  6  1  0  0  0  0
  3 16  1  0  0  0  0
  5  4  2  0  0  0  0
  6 18  2  0  0  0  0
  7  9  2  0  0  0  0
  7 11  1  0  0  0  0
  8 17  1  0  0  0  0
  8 19  1  0  0  0  0
  9 13  1  0  0  0  0
  9  5  1  0  0  0  0
 10  8  2  0  0  0  0
 11 14  2  0  0  0  0
 12  2  1  0  0  0  0
 12 23  1  0  0  0  0
 13  5  1  0  0  0  0
 14  4  1  0  0  0  0
 14 18  1  0  0  0  0
 15 20  1  6  0  0  0
 15  1  1  0  0  0  0
 16 11  1  0  0  0  0
 16  2  2  0  0  0  0
 19 20  1  0  0  0  0
 21 17  1  6  0  0  0
 21  3  1  0  0  0  0
 21 15  1  0  0  0  0
 22 25  1  0  0  0  0
 23 24  1  0  0  0  0
 24 25  2  0  0  0  0
 26 22  2  0  0  0  0
 27 26  1  0  0  0  0
 27 23  2  0  0  0  0
M  END
>  <MODEL>
1

>  <REMARK>
 VINA RESULT:      -8.3      0.000      0.000
  Name = 
  1 active torsions:
  status: ('A' for Active; 'I' for Inactive)
    1  A    between atoms: C_9  and  N_15
                            x       y       z     vdW  Elec       q    Type
                         _______ _______ _______ _____ _____    ______ ____

>  <TORSDO>
F 1

$$$$
=
 OpenBabel11052418253D

 27 32  0  0  1  0  0  0  0  0999 V2000
  190.3050  173.3410  144.2020 C   0  0  0  0  0  2  0  0  0  0  0  0
  189.0980  175.4900  144.7460 C   0  0  0  0  0  0  0  0  0  0  0  0
  188.5700  175.2050  142.3460 O   0  0  0  0  0  0  0  0  0  0  0  0
  185.6510  177.8860  145.3840 C   0  0  0  0  0  3  0  0  0  0  0  0
  184.9290  178.0680  144.2490 C   0  0  0  0  0  0  0  0  0  0  0  0
  188.7660  176.0200  145.9560 N   0  0  0  0  0  0  0  0  0  0  0  0
  186.3000  176.7600  142.5990 C   0  0  0  0  0  3  0  0  0  0  0  0
  190.5690  172.7650  140.4430 C   0  0  0  0  0  0  0  0  0  0  0  0
  185.2360  177.5350  142.9310 C   0  0  0  0  0  0  0  0  0  0  0  0
  191.2890  172.7270  139.4120 O   0  0  0  0  0  0  0  0  0  0  0  0
  187.1240  176.5220  143.7630 C   0  0  0  0  0  0  0  0  0  0  0  0
  190.3260  174.7460  144.6350 N   0  0  0  0  0  0  0  0  0  0  0  0
  184.1000  178.3270  143.1480 C   0  0  0  0  0  2  0  0  0  0  0  0
  186.8010  177.0690  145.1000 C   0  0  0  0  0  0  0  0  0  0  0  0
  189.4230  173.1180  143.0570 N   0  0  2  0  0  0  0  0  0  0  0  0
  188.2750  175.7320  143.6170 C   0  0  0  0  0  0  0  0  0  0  0  0
  189.5480  173.8240  140.6270 C   0  0  0  0  0  2  0  0  0  0  0  0
  187.6620  176.7800  146.1530 C   0  0  0  0  0  3  0  0  0  0  0  0
  190.7190  171.7980  141.4730 N   0  0  0  0  0  2  0  0  0  0  0  0
  189.7190  171.7710  142.5350 C   0  0  0  0  0  2  0  0  0  0  0  0
  189.5790  174.2360  142.0980 C   0  0  1  0  0  3  0  0  0  0  0  0
  194.0170  176.4080  145.9560 C   0  0  0  0  0  3  0  0  0  0  0  0
  191.5710  175.3170  145.0920 C   0  0  0  0  0  0  0  0  0  0  0  0
  192.0680  176.5060  144.5260 C   0  0  0  0  0  3  0  0  0  0  0  0
  193.2820  177.0480  144.9570 C   0  0  0  0  0  3  0  0  0  0  0  0
  193.5410  175.2240  146.5230 C   0  0  0  0  0  3  0  0  0  0  0  0
  192.3280  174.6810  146.0920 C   0  0  0  0  0  3  0  0  0  0  0  0
  1 12  1  0  0  0  0
  2  6  1  0  0  0  0
  3 16  1  0  0  0  0
  5  4  2  0  0  0  0
  6 18  2  0  0  0  0
  7  9  2  0  0  0  0
  7 11  1  0  0  0  0
  8 17  1  0  0  0  0
  8 19  1  0  0  0  0
  9 13  1  0  0  0  0
  9  5  1  0  0  0  0
 10  8  2  0  0  0  0
 11 14  2  0  0  0  0
 12  2  1  0  0  0  0
 12 23  1  0  0  0  0
 13  5  1  0  0  0  0
 14  4  1  0  0  0  0
 14 18  1  0  0  0  0
 15 20  1  6  0  0  0
 15  1  1  0  0  0  0
 16 11  1  0  0  0  0
 16  2  2  0  0  0  0
 19 20  1  0  0  0  0
 21 17  1  6  0  0  0
 21  3  1  0  0  0  0
 21 15  1  0  0  0  0
 22 26  1  0  0  0  0
 23 27  1  0  0  0  0
 24 25  1  0  0  0  0
 24 23  2  0  0  0  0
 25 22  2  0  0  0  0
 27 26  2  0  0  0  0
M  END
>  <MODEL>
2

>  <REMARK>
 VINA RESULT:      -8.0      0.681      1.192
  Name = 
  1 active torsions:
  status: ('A' for Active; 'I' for Inactive)
    1  A    between atoms: C_9  and  N_15
                            x       y       z     vdW  Elec       q    Type
                         _______ _______ _______ _____ _____    ______ ____

>  <TORSDO>
F 1

$$$$
=
 OpenBabel11052418253D

 27 32  0  0  1  0  0  0  0  0999 V2000
  191.1020  176.2250  142.9900 C   0  0  0  0  0  2  0  0  0  0  0  0
  188.6670  176.0270  143.6260 C   0  0  0  0  0  0  0  0  0  0  0  0
  189.7230  176.5210  145.8090 O   0  0  0  0  0  0  0  0  0  0  0  0
  184.9150  177.5370  144.9190 C   0  0  0  0  0  3  0  0  0  0  0  0
  184.9500  177.9810  146.2020 C   0  0  0  0  0  0  0  0  0  0  0  0
  187.5570  176.0520  142.8390 N   0  0  0  0  0  0  0  0  0  0  0  0
  187.3470  177.5210  146.8000 C   0  0  0  0  0  3  0  0  0  0  0  0
  193.3830  176.1750  146.0430 C   0  0  0  0  0  0  0  0  0  0  0  0
  186.1000  177.9740  147.0920 C   0  0  0  0  0  0  0  0  0  0  0  0
  194.2350  175.5590  146.7350 O   0  0  0  0  0  0  0  0  0  0  0  0
  187.3900  177.0270  145.4420 C   0  0  0  0  0  0  0  0  0  0  0  0
  189.8690  175.4310  143.1020 N   0  0  0  0  0  0  0  0  0  0  0  0
  184.8580  178.4700  147.5130 C   0  0  0  0  0  2  0  0  0  0  0  0
  186.2130  177.0400  144.5440 C   0  0  0  0  0  0  0  0  0  0  0  0
  191.3630  177.0300  144.1830 N   0  0  2  0  0  0  0  0  0  0  0  0
  188.6050  176.5200  144.9540 C   0  0  0  0  0  0  0  0  0  0  0  0
  192.0150  176.4250  146.5560 C   0  0  0  0  0  2  0  0  0  0  0  0
  186.3640  176.5390  143.2570 C   0  0  0  0  0  3  0  0  0  0  0  0
  193.7030  176.6410  144.7400 N   0  0  0  0  0  2  0  0  0  0  0  0
  192.7490  177.5260  144.0790 C   0  0  0  0  0  2  0  0  0  0  0  0
  191.0480  176.2280  145.3880 C   0  0  1  0  0  3  0  0  0  0  0  0
  189.8260  171.5110  141.4420 C   0  0  0  0  0  3  0  0  0  0  0  0
  189.8410  174.1030  142.5380 C   0  0  0  0  0  0  0  0  0  0  0  0
  189.6870  172.9740  143.3640 C   0  0  0  0  0  3  0  0  0  0  0  0
  189.6770  171.6870  142.8190 C   0  0  0  0  0  3  0  0  0  0  0  0
  189.9880  172.6200  140.6090 C   0  0  0  0  0  3  0  0  0  0  0  0
  189.9980  173.9070  141.1540 C   0  0  0  0  0  3  0  0  0  0  0  0
  1 12  1  0  0  0  0
  2 16  1  0  0  0  0
  4  5  2  0  0  0  0
  5  9  1  0  0  0  0
  5 13  1  0  0  0  0
  6 18  1  0  0  0  0
  6  2  2  0  0  0  0
  7  9  2  0  0  0  0
  8 17  1  0  0  0  0
  8 10  2  0  0  0  0
  9 13  1  0  0  0  0
 11  7  1  0  0  0  0
 12  2  1  0  0  0  0
 14  4  1  0  0  0  0
 14 11  1  0  0  0  0
 15  1  1  6  0  0  0
 15 21  1  0  0  0  0
 16 11  2  0  0  0  0
 16  3  1  0  0  0  0
 18 14  2  0  0  0  0
 19  8  1  0  0  0  0
 20 15  1  0  0  0  0
 20 19  1  0  0  0  0
 21  3  1  0  0  0  0
 21 17  1  1  0  0  0
 22 25  1  0  0  0  0
 23 12  1  0  0  0  0
 23 24  1  0  0  0  0
 25 24  2  0  0  0  0
 26 27  1  0  0  0  0
 26 22  2  0  0  0  0
 27 23  2  0  0  0  0
M  END
>  <MODEL>
3

>  <REMARK>
 VINA RESULT:      -7.9      2.115      4.701
  Name = 
  1 active torsions:
  status: ('A' for Active; 'I' for Inactive)
    1  A    between atoms: C_9  and  N_15
                            x       y       z     vdW  Elec       q    Type
                         _______ _______ _______ _____ _____    ______ ____

>  <TORSDO>
F 1

$$$$
=
 OpenBabel11052418253D

 27 32  0  0  1  0  0  0  0  0999 V2000
  191.2110  176.0340  142.8350 C   0  0  0  0  0  2  0  0  0  0  0  0
  188.7330  176.0880  142.3570 C   0  0  0  0  0  0  0  0  0  0  0  0
  188.7940  176.5860  144.7800 O   0  0  0  0  0  0  0  0  0  0  0  0
  184.9670  177.9920  141.8970 C   0  0  0  0  0  3  0  0  0  0  0  0
  184.4910  178.4910  143.0670 C   0  0  0  0  0  0  0  0  0  0  0  0
  188.0790  176.1770  141.1670 N   0  0  0  0  0  0  0  0  0  0  0  0
  186.3380  177.8440  144.6440 C   0  0  0  0  0  3  0  0  0  0  0  0
  191.9410  175.9200  146.5750 C   0  0  0  0  0  0  0  0  0  0  0  0
  185.1400  178.4210  144.3670 C   0  0  0  0  0  0  0  0  0  0  0  0
  192.3450  175.2630  147.5690 O   0  0  0  0  0  0  0  0  0  0  0  0
  186.9100  177.2850  143.4400 C   0  0  0  0  0  0  0  0  0  0  0  0
  189.9760  175.3620  142.4060 N   0  0  0  0  0  0  0  0  0  0  0  0
  183.8960  179.0480  144.2080 C   0  0  0  0  0  2  0  0  0  0  0  0
  186.2410  177.3630  142.1210 C   0  0  0  0  0  0  0  0  0  0  0  0
  191.0150  176.8670  144.0220 N   0  0  2  0  0  0  0  0  0  0  0  0
  188.1580  176.6470  143.5270 C   0  0  0  0  0  0  0  0  0  0  0  0
  190.5190  176.3170  146.4450 C   0  0  0  0  0  2  0  0  0  0  0  0
  186.8780  176.7900  141.0270 C   0  0  0  0  0  3  0  0  0  0  0  0
  192.8350  176.2940  145.5370 N   0  0  0  0  0  2  0  0  0  0  0  0
  192.3540  177.2290  144.5250 C   0  0  0  0  0  2  0  0  0  0  0  0
  190.1330  176.1540  144.9750 C   0  0  1  0  0  3  0  0  0  0  0  0
  190.2530  171.3900  140.8980 C   0  0  0  0  0  3  0  0  0  0  0  0
  190.0580  174.0160  141.8890 C   0  0  0  0  0  0  0  0  0  0  0  0
  189.6040  172.9240  142.6520 C   0  0  0  0  0  3  0  0  0  0  0  0
  189.6990  171.6200  142.1580 C   0  0  0  0  0  3  0  0  0  0  0  0
  190.7150  172.4620  140.1310 C   0  0  0  0  0  3  0  0  0  0  0  0
  190.6200  173.7660  140.6250 C   0  0  0  0  0  3  0  0  0  0  0  0
  2 12  1  0  0  0  0
  2 16  1  0  0  0  0
  3 21  1  0  0  0  0
  4 14  1  0  0  0  0
  4  5  2  0  0  0  0
  5 13  1  0  0  0  0
  5  9  1  0  0  0  0
  6  2  2  0  0  0  0
  8 10  2  0  0  0  0
  9  7  2  0  0  0  0
 11 16  2  0  0  0  0
 11  7  1  0  0  0  0
 12  1  1  0  0  0  0
 13  9  1  0  0  0  0
 14 11  1  0  0  0  0
 15  1  1  6  0  0  0
 15 20  1  0  0  0  0
 15 21  1  0  0  0  0
 16  3  1  0  0  0  0
 17  8  1  0  0  0  0
 18  6  1  0  0  0  0
 18 14  2  0  0  0  0
 19  8  1  0  0  0  0
 20 19  1  0  0  0  0
 21 17  1  1  0  0  0
 22 25  1  0  0  0  0
 23 12  1  0  0  0  0
 23 24  1  0  0  0  0
 25 24  2  0  0  0  0
 26 27  1  0  0  0  0
 26 22  2  0  0  0  0
 27 23  2  0  0  0  0
M  END
>  <MODEL>
4

>  <REMARK>
 VINA RESULT:      -7.5      2.098      4.810
  Name = 
  1 active torsions:
  status: ('A' for Active; 'I' for Inactive)
    1  A    between atoms: C_9  and  N_15
                            x       y       z     vdW  Elec       q    Type
                         _______ _______ _______ _____ _____    ______ ____

>  <TORSDO>
F 1

$$$$
=
 OpenBabel11052418253D

 27 32  0  0  1  0  0  0  0  0999 V2000
  191.5350  175.9850  142.7120 C   0  0  0  0  0  2  0  0  0  0  0  0
  189.0940  176.4030  143.2030 C   0  0  0  0  0  0  0  0  0  0  0  0
  189.9940  175.9390  145.4610 O   0  0  0  0  0  0  0  0  0  0  0  0
  185.8340  178.6170  144.7810 C   0  0  0  0  0  3  0  0  0  0  0  0
  185.8510  178.6700  146.1380 C   0  0  0  0  0  0  0  0  0  0  0  0
  188.1380  176.9840  142.4280 N   0  0  0  0  0  0  0  0  0  0  0  0
  187.9220  177.3370  146.6380 C   0  0  0  0  0  3  0  0  0  0  0  0
  193.3380  174.4080  145.6780 C   0  0  0  0  0  0  0  0  0  0  0  0
  186.8400  178.0640  147.0170 C   0  0  0  0  0  0  0  0  0  0  0  0
  193.8860  173.3950  146.1840 O   0  0  0  0  0  0  0  0  0  0  0  0
  187.9710  177.2340  145.1980 C   0  0  0  0  0  0  0  0  0  0  0  0
  190.1190  175.6210  142.5600 N   0  0  0  0  0  0  0  0  0  0  0  0
  185.7600  178.7960  147.5320 C   0  0  0  0  0  2  0  0  0  0  0  0
  186.9610  177.8550  144.3120 C   0  0  0  0  0  0  0  0  0  0  0  0
  191.8850  176.3180  144.0930 N   0  0  2  0  0  0  0  0  0  0  0  0
  189.0300  176.5180  144.6150 C   0  0  0  0  0  0  0  0  0  0  0  0
  192.0550  174.9310  146.2060 C   0  0  0  0  0  2  0  0  0  0  0  0
  187.1020  177.6940  142.9390 C   0  0  0  0  0  3  0  0  0  0  0  0
  193.9260  175.0790  144.5730 N   0  0  0  0  0  2  0  0  0  0  0  0
  193.3570  176.3610  144.1700 C   0  0  0  0  0  2  0  0  0  0  0  0
  191.2120  175.3670  145.0070 C   0  0  1  0  0  3  0  0  0  0  0  0
  189.0590  172.5460  139.8110 C   0  0  0  0  0  3  0  0  0  0  0  0
  189.7640  174.5690  141.6360 C   0  0  0  0  0  0  0  0  0  0  0  0
  190.6970  174.0920  140.6960 C   0  0  0  0  0  3  0  0  0  0  0  0
  190.3470  173.0860  139.7910 C   0  0  0  0  0  3  0  0  0  0  0  0
  188.1200  173.0140  140.7320 C   0  0  0  0  0  3  0  0  0  0  0  0
  188.4700  174.0200  141.6370 C   0  0  0  0  0  3  0  0  0  0  0  0
  2 16  1  0  0  0  0
  4  5  2  0  0  0  0
  5  9  1  0  0  0  0
  5 13  1  0  0  0  0
  6 18  1  0  0  0  0
  6  2  2  0  0  0  0
  7  9  2  0  0  0  0
  8 10  2  0  0  0  0
  8 17  1  0  0  0  0
  9 13  1  0  0  0  0
 11  7  1  0  0  0  0
 12  1  1  0  0  0  0
 12  2  1  0  0  0  0
 14  4  1  0  0  0  0
 14 11  1  0  0  0  0
 15  1  1  6  0  0  0
 15 20  1  0  0  0  0
 15 21  1  0  0  0  0
 16 11  2  0  0  0  0
 16  3  1  0  0  0  0
 18 14  2  0  0  0  0
 19  8  1  0  0  0  0
 20 19  1  0  0  0  0
 21  3  1  0  0  0  0
 21 17  1  1  0  0  0
 22 26  1  0  0  0  0
 23 27  1  0  0  0  0
 23 12  1  0  0  0  0
 24 23  2  0  0  0  0
 25 22  2  0  0  0  0
 25 24  1  0  0  0  0
 26 27  2  0  0  0  0
M  END
>  <MODEL>
5

>  <REMARK>
 VINA RESULT:      -7.4      2.152      4.797
  Name = 
  1 active torsions:
  status: ('A' for Active; 'I' for Inactive)
    1  A    between atoms: C_9  and  N_15
                            x       y       z     vdW  Elec       q    Type
                         _______ _______ _______ _____ _____    ______ ____

>  <TORSDO>
F 1

$$$$
=
 OpenBabel11052418253D

 27 32  0  0  1  0  0  0  0  0999 V2000
  189.3440  177.5290  143.3760 C   0  0  0  0  0  2  0  0  0  0  0  0
  190.1570  175.2360  142.7040 C   0  0  0  0  0  0  0  0  0  0  0  0
  187.8190  175.2020  141.8950 O   0  0  0  0  0  0  0  0  0  0  0  0
  191.3340  172.2600  139.9130 C   0  0  0  0  0  3  0  0  0  0  0  0
  190.3020  171.8400  139.1370 C   0  0  0  0  0  0  0  0  0  0  0  0
  191.4270  174.7560  142.6100 N   0  0  0  0  0  0  0  0  0  0  0  0
  188.4270  173.2510  140.0360 C   0  0  0  0  0  3  0  0  0  0  0  0
  185.5500  177.8220  143.1440 C   0  0  0  0  0  0  0  0  0  0  0  0
  188.9260  172.3090  139.1950 C   0  0  0  0  0  0  0  0  0  0  0  0
  184.4440  177.9150  143.7350 O   0  0  0  0  0  0  0  0  0  0  0  0
  189.4720  173.7480  140.9020 C   0  0  0  0  0  0  0  0  0  0  0  0
  189.8590  176.1990  143.7330 N   0  0  0  0  0  0  0  0  0  0  0  0
  189.3220  171.3270  138.2760 C   0  0  0  0  0  2  0  0  0  0  0  0
  190.8700  173.2650  140.8330 C   0  0  0  0  0  0  0  0  0  0  0  0
  188.2940  177.4710  142.3590 N   0  0  2  0  0  0  0  0  0  0  0  0
  189.1460  174.7380  141.8430 C   0  0  0  0  0  0  0  0  0  0  0  0
  185.9150  176.6000  142.3890 C   0  0  0  0  0  2  0  0  0  0  0  0
  191.7970  173.8090  141.7140 C   0  0  0  0  0  3  0  0  0  0  0  0
  186.4920  178.8840  143.1890 N   0  0  0  0  0  2  0  0  0  0  0  0
  187.6570  178.8010  142.3140 C   0  0  0  0  0  2  0  0  0  0  0  0
  187.3970  176.3290  142.6500 C   0  0  1  0  0  3  0  0  0  0  0  0
  190.8670  175.4420  147.8000 C   0  0  0  0  0  3  0  0  0  0  0  0
  190.2080  175.9310  145.1080 C   0  0  0  0  0  0  0  0  0  0  0  0
  189.3620  175.1600  145.9270 C   0  0  0  0  0  3  0  0  0  0  0  0
  189.6910  174.9150  147.2630 C   0  0  0  0  0  3  0  0  0  0  0  0
  191.7140  176.2160  147.0020 C   0  0  0  0  0  3  0  0  0  0  0  0
  191.3840  176.4600  145.6660 C   0  0  0  0  0  3  0  0  0  0  0  0
  1 12  1  0  0  0  0
  2 12  1  0  0  0  0
  3 21  1  0  0  0  0
  4 14  1  0  0  0  0
  5  9  1  0  0  0  0
  5  4  2  0  0  0  0
  6  2  1  0  0  0  0
  7 11  1  0  0  0  0
  8 19  1  0  0  0  0
  8 10  2  0  0  0  0
  9  7  2  0  0  0  0
 11 16  1  0  0  0  0
 12 23  1  0  0  0  0
 13  5  1  0  0  0  0
 13  9  1  0  0  0  0
 14 11  2  0  0  0  0
 14 18  1  0  0  0  0
 15 20  1  1  0  0  0
 15 21  1  0  0  0  0
 15  1  1  0  0  0  0
 16  3  1  0  0  0  0
 16  2  2  0  0  0  0
 17  8  1  0  0  0  0
 18  6  2  0  0  0  0
 20 19  1  0  0  0  0
 21 17  1  6  0  0  0
 23 27  2  0  0  0  0
 23 24  1  0  0  0  0
 24 25  2  0  0  0  0
 25 22  1  0  0  0  0
 26 22  2  0  0  0  0
 27 26  1  0  0  0  0
M  END
>  <MODEL>
6

>  <REMARK>
 VINA RESULT:      -7.0      2.221      5.971
  Name = 
  1 active torsions:
  status: ('A' for Active; 'I' for Inactive)
    1  A    between atoms: C_9  and  N_15
                            x       y       z     vdW  Elec       q    Type
                         _______ _______ _______ _____ _____    ______ ____

>  <TORSDO>
F 1

$$$$
=
 OpenBabel11052418253D

 27 32  0  0  1  0  0  0  0  0999 V2000
  191.1050  174.8220  145.7420 C   0  0  0  0  0  2  0  0  0  0  0  0
  190.0440  174.4800  143.4780 C   0  0  0  0  0  0  0  0  0  0  0  0
  192.3020  175.2840  142.8630 O   0  0  0  0  0  0  0  0  0  0  0  0
  189.5480  172.5260  139.7410 C   0  0  0  0  0  3  0  0  0  0  0  0
  190.6240  172.6810  138.9280 C   0  0  0  0  0  0  0  0  0  0  0  0
  188.9240  173.7850  143.1380 N   0  0  0  0  0  0  0  0  0  0  0  0
  192.1210  174.0790  140.3840 C   0  0  0  0  0  3  0  0  0  0  0  0
  194.3340  176.8370  145.5150 C   0  0  0  0  0  0  0  0  0  0  0  0
  191.8430  173.4160  139.2320 C   0  0  0  0  0  0  0  0  0  0  0  0
  194.9410  177.9170  145.7340 O   0  0  0  0  0  0  0  0  0  0  0  0
  191.0140  173.9610  141.3050 C   0  0  0  0  0  0  0  0  0  0  0  0
  190.0740  175.1570  144.7490 N   0  0  0  0  0  0  0  0  0  0  0  0
  191.6720  172.7690  138.0000 C   0  0  0  0  0  2  0  0  0  0  0  0
  189.7800  173.2090  140.9860 C   0  0  0  0  0  0  0  0  0  0  0  0
  192.4380  174.7050  145.1510 N   0  0  2  0  0  0  0  0  0  0  0  0
  191.1210  174.5810  142.5610 C   0  0  0  0  0  0  0  0  0  0  0  0
  194.0240  176.3990  144.1330 C   0  0  0  0  0  2  0  0  0  0  0  0
  188.7740  173.1600  141.9450 C   0  0  0  0  0  3  0  0  0  0  0  0
  193.9140  176.0070  146.5880 N   0  0  0  0  0  2  0  0  0  0  0  0
  193.4070  174.6770  146.2640 C   0  0  0  0  0  2  0  0  0  0  0  0
  192.6240  175.7830  144.1540 C   0  0  1  0  0  3  0  0  0  0  0  0
  186.9030  177.7800  145.8400 C   0  0  0  0  0  3  0  0  0  0  0  0
  189.0080  176.0550  145.1250 C   0  0  0  0  0  0  0  0  0  0  0  0
  188.3650  175.9260  146.3700 C   0  0  0  0  0  3  0  0  0  0  0  0
  187.3210  176.7850  146.7260 C   0  0  0  0  0  3  0  0  0  0  0  0
  187.5260  177.9160  144.5980 C   0  0  0  0  0  3  0  0  0  0  0  0
  188.5700  177.0570  144.2420 C   0  0  0  0  0  3  0  0  0  0  0  0
  2 12  1  0  0  0  0
  3 21  1  0  0  0  0
  4 14  1  0  0  0  0
  5  9  1  0  0  0  0
  5  4  2  0  0  0  0
  6  2  1  0  0  0  0
  7 11  1  0  0  0  0
  8 10  2  0  0  0  0
  8 19  1  0  0  0  0
  9  7  2  0  0  0  0
 11 16  1  0  0  0  0
 12 23  1  0  0  0  0
 12  1  1  0  0  0  0
 13  5  1  0  0  0  0
 13  9  1  0  0  0  0
 14 11  2  0  0  0  0
 14 18  1  0  0  0  0
 15  1  1  1  0  0  0
 15 20  1  0  0  0  0
 16  3  1  0  0  0  0
 16  2  2  0  0  0  0
 17  8  1  0  0  0  0
 18  6  2  0  0  0  0
 20 19  1  0  0  0  0
 21 17  1  6  0  0  0
 21 15  1  0  0  0  0
 22 25  1  0  0  0  0
 23 24  1  0  0  0  0
 24 25  2  0  0  0  0
 26 22  2  0  0  0  0
 27 26  1  0  0  0  0
 27 23  2  0  0  0  0
M  END
>  <MODEL>
7

>  <REMARK>
 VINA RESULT:      -6.9      2.308      6.473
  Name = 
  1 active torsions:
  status: ('A' for Active; 'I' for Inactive)
    1  A    between atoms: C_9  and  N_15
                            x       y       z     vdW  Elec       q    Type
                         _______ _______ _______ _____ _____    ______ ____

>  <TORSDO>
F 1

$$$$
=
 OpenBabel11052418253D

 27 32  0  0  1  0  0  0  0  0999 V2000
  189.8030  173.6370  144.7310 C   0  0  0  0  0  2  0  0  0  0  0  0
  188.5560  175.8200  144.5070 C   0  0  0  0  0  0  0  0  0  0  0  0
  189.0830  175.2920  142.1470 O   0  0  0  0  0  0  0  0  0  0  0  0
  185.2510  178.2410  143.3940 C   0  0  0  0  0  3  0  0  0  0  0  0
  185.0830  178.3020  142.0480 C   0  0  0  0  0  0  0  0  0  0  0  0
  187.7640  176.4660  145.4050 N   0  0  0  0  0  0  0  0  0  0  0  0
  186.9750  176.8460  141.2670 C   0  0  0  0  0  3  0  0  0  0  0  0
  191.6100  172.6880  141.5110 C   0  0  0  0  0  0  0  0  0  0  0  0
  185.8980  177.6420  141.0410 C   0  0  0  0  0  0  0  0  0  0  0  0
  192.6960  172.5530  140.8910 O   0  0  0  0  0  0  0  0  0  0  0  0
  187.2200  176.7330  142.6870 C   0  0  0  0  0  0  0  0  0  0  0  0
  189.6900  175.0780  144.9970 N   0  0  0  0  0  0  0  0  0  0  0  0
  184.8060  178.4430  140.6810 C   0  0  0  0  0  2  0  0  0  0  0  0
  186.3830  177.4080  143.7030 C   0  0  0  0  0  0  0  0  0  0  0  0
  189.4800  173.2930  143.3460 N   0  0  2  0  0  0  0  0  0  0  0  0
  188.2970  175.9400  143.1180 C   0  0  0  0  0  0  0  0  0  0  0  0
  190.6450  173.7520  141.1440 C   0  0  0  0  0  2  0  0  0  0  0  0
  186.7070  177.2330  145.0430 C   0  0  0  0  0  3  0  0  0  0  0  0
  191.2770  171.8310  142.5930 N   0  0  0  0  0  2  0  0  0  0  0  0
  189.9210  171.9020  143.1290 C   0  0  0  0  0  2  0  0  0  0  0  0
  190.0660  174.3100  142.4440 C   0  0  1  0  0  3  0  0  0  0  0  0
  192.5110  176.8820  147.6260 C   0  0  0  0  0  3  0  0  0  0  0  0
  190.6440  175.7020  145.8830 C   0  0  0  0  0  0  0  0  0  0  0  0
  191.9940  175.8330  145.5080 C   0  0  0  0  0  3  0  0  0  0  0  0
  192.9210  176.4210  146.3740 C   0  0  0  0  0  3  0  0  0  0  0  0
  191.1770  176.7530  148.0160 C   0  0  0  0  0  3  0  0  0  0  0  0
  190.2500  176.1640  147.1510 C   0  0  0  0  0  3  0  0  0  0  0  0
  1 12  1  0  0  0  0
  2 12  1  0  0  0  0
  2  6  1  0  0  0  0
  3 21  1  0  0  0  0
  3 16  1  0  0  0  0
  4 14  1  0  0  0  0
  5  4  2  0  0  0  0
  7 11  1  0  0  0  0
  8 19  1  0  0  0  0
  9  7  2  0  0  0  0
  9  5  1  0  0  0  0
 10  8  2  0  0  0  0
 11 16  1  0  0  0  0
 11 14  2  0  0  0  0
 12 23  1  0  0  0  0
 13  9  1  0  0  0  0
 13  5  1  0  0  0  0
 14 18  1  0  0  0  0
 15 20  1  6  0  0  0
 15  1  1  0  0  0  0
 16  2  2  0  0  0  0
 17  8  1  0  0  0  0
 18  6  2  0  0  0  0
 19 20  1  0  0  0  0
 21 17  1  6  0  0  0
 21 15  1  0  0  0  0
 22 26  1  0  0  0  0
 23 27  1  0  0  0  0
 24 23  2  0  0  0  0
 24 25  1  0  0  0  0
 25 22  2  0  0  0  0
 27 26  2  0  0  0  0
M  END
>  <MODEL>
8

>  <REMARK>
 VINA RESULT:      -6.9      1.662      2.134
  Name = 
  1 active torsions:
  status: ('A' for Active; 'I' for Inactive)
    1  A    between atoms: C_9  and  N_15
                            x       y       z     vdW  Elec       q    Type
                         _______ _______ _______ _____ _____    ______ ____

>  <TORSDO>
F 1

$$$$
=
 OpenBabel11052418253D

 27 32  0  0  1  0  0  0  0  0999 V2000
  192.4330  174.9160  141.7580 C   0  0  0  0  0  2  0  0  0  0  0  0
  189.9510  175.0520  142.1980 C   0  0  0  0  0  0  0  0  0  0  0  0
  190.8900  175.8990  144.3250 O   0  0  0  0  0  0  0  0  0  0  0  0
  186.2820  177.0970  142.8190 C   0  0  0  0  0  3  0  0  0  0  0  0
  186.2670  177.7920  143.9850 C   0  0  0  0  0  0  0  0  0  0  0  0
  188.9080  175.0030  141.3250 N   0  0  0  0  0  0  0  0  0  0  0  0
  188.5580  177.2730  144.8770 C   0  0  0  0  0  3  0  0  0  0  0  0
  194.4720  175.3130  144.9540 C   0  0  0  0  0  0  0  0  0  0  0  0
  187.3440  177.8770  144.9590 C   0  0  0  0  0  0  0  0  0  0  0  0
  195.2080  174.7870  145.8290 O   0  0  0  0  0  0  0  0  0  0  0  0
  188.6500  176.5070  143.6550 C   0  0  0  0  0  0  0  0  0  0  0  0
  191.1230  174.2650  141.9150 N   0  0  0  0  0  0  0  0  0  0  0  0
  186.1300  178.5490  145.1580 C   0  0  0  0  0  2  0  0  0  0  0  0
  187.5480  176.4300  142.6700 C   0  0  0  0  0  0  0  0  0  0  0  0
  192.6850  175.9260  142.7860 N   0  0  2  0  0  0  0  0  0  0  0  0
  189.8420  175.8130  143.3900 C   0  0  0  0  0  0  0  0  0  0  0  0
  193.1020  175.7740  145.2810 C   0  0  0  0  0  2  0  0  0  0  0  0
  187.7410  175.6630  141.5270 C   0  0  0  0  0  3  0  0  0  0  0  0
  194.9290  175.4720  143.6190 N   0  0  0  0  0  2  0  0  0  0  0  0
  194.1160  176.2750  142.7110 C   0  0  0  0  0  2  0  0  0  0  0  0
  192.2070  175.4190  144.0930 C   0  0  1  0  0  3  0  0  0  0  0  0
  190.8170  170.1030  141.0680 C   0  0  0  0  0  3  0  0  0  0  0  0
  191.0060  172.8550  141.6270 C   0  0  0  0  0  0  0  0  0  0  0  0
  190.8320  171.9220  142.6650 C   0  0  0  0  0  3  0  0  0  0  0  0
  190.7360  170.5550  142.3870 C   0  0  0  0  0  3  0  0  0  0  0  0
  190.9960  171.0170  140.0270 C   0  0  0  0  0  3  0  0  0  0  0  0
  191.0930  172.3830  140.3050 C   0  0  0  0  0  3  0  0  0  0  0  0
  1 12  1  0  0  0  0
  2 16  1  0  0  0  0
  4  5  2  0  0  0  0
  5  9  1  0  0  0  0
  5 13  1  0  0  0  0
  6 18  1  0  0  0  0
  6  2  2  0  0  0  0
  7  9  2  0  0  0  0
  8 17  1  0  0  0  0
  8 10  2  0  0  0  0
  9 13  1  0  0  0  0
 11  7  1  0  0  0  0
 12  2  1  0  0  0  0
 14  4  1  0  0  0  0
 14 11  1  0  0  0  0
 15  1  1  6  0  0  0
 15 21  1  0  0  0  0
 16 11  2  0  0  0  0
 16  3  1  0  0  0  0
 18 14  2  0  0  0  0
 19  8  1  0  0  0  0
 20 15  1  0  0  0  0
 20 19  1  0  0  0  0
 21  3  1  0  0  0  0
 21 17  1  1  0  0  0
 22 25  1  0  0  0  0
 23 12  1  0  0  0  0
 23 24  1  0  0  0  0
 25 24  2  0  0  0  0
 26 27  1  0  0  0  0
 26 22  2  0  0  0  0
 27 23  2  0  0  0  0
M  END
>  <MODEL>
9

>  <REMARK>
 VINA RESULT:      -6.8      2.598      5.035
  Name = 
  1 active torsions:
  status: ('A' for Active; 'I' for Inactive)
    1  A    between atoms: C_9  and  N_15
                            x       y       z     vdW  Elec       q    Type
                         _______ _______ _______ _____ _____    ______ ____

>  <TORSDO>
F 1

$$$$
