=
 OpenBabel11052419133D

 32 36  0  0  1  0  0  0  0  0999 V2000
  190.3680  175.7450  145.7490 C   0  0  0  0  0  0  0  0  0  0  0  0
  191.4520  174.5590  143.8230 C   0  0  2  0  0  3  0  0  0  0  0  0
  190.4930  176.1660  146.9760 N   0  0  0  0  0  0  0  0  0  0  0  0
  191.5570  175.7100  144.8270 C   0  0  2  0  0  3  0  0  0  0  0  0
  192.3880  174.7550  142.7970 O   0  0  0  0  0  0  0  0  0  0  0  0
  190.0060  174.2790  143.3200 C   0  0  1  0  0  3  0  0  0  0  0  0
  194.5370  174.8570  143.9790 C   0  0  2  0  0  3  0  0  0  0  0  0
  192.8840  175.5680  145.5780 C   0  0  1  0  0  3  0  0  0  0  0  0
  193.9650  176.0010  144.6990 N   0  0  0  0  0  2  0  0  0  0  0  0
  192.8950  176.3570  146.8540 C   0  0  0  0  0  3  0  0  0  0  0  0
  189.0820  175.3480  143.7100 N   0  0  0  0  0  2  0  0  0  0  0  0
  195.6010  175.3530  143.0230 C   0  0  0  0  0  1  0  0  0  0  0  0
  189.0130  175.4100  145.1740 C   0  0  2  0  0  3  0  0  0  0  0  0
  193.5070  174.0100  143.2030 C   0  0  0  0  0  2  0  0  0  0  0  0
  191.7570  176.5800  147.5170 C   0  0  0  0  0  3  0  0  0  0  0  0
  186.4900  178.1400  144.5940 C   0  0  0  0  0  0  0  0  0  0  0  0
  184.4700  178.4860  147.4310 O   0  0  0  0  0  1  0  0  0  0  0  0
  186.3390  179.2230  143.7890 F   0  0  0  0  0  0  0  0  0  0  0  0
  186.3080  177.0250  147.4180 C   0  0  0  0  0  3  0  0  0  0  0  0
  187.9480  176.3820  145.6030 C   0  0  0  0  0  0  0  0  0  0  0  0
  185.2690  177.5940  145.2550 C   0  0  0  0  0  2  0  0  0  0  0  0
  187.3640  176.1970  146.8040 C   0  0  0  0  0  3  0  0  0  0  0  0
  187.6950  177.5650  144.7320 C   0  0  0  0  0  0  0  0  0  0  0  0
  188.8410  178.1200  143.9480 C   0  0  0  0  0  1  0  0  0  0  0  0
  185.3810  177.6990  146.7380 C   0  0  0  0  0  0  0  0  0  0  0  0
  188.3280  173.1760  138.9840 C   0  0  0  0  0  2  0  0  0  0  0  0
  190.4160  172.2000  140.0750 C   0  0  0  0  0  2  0  0  0  0  0  0
  190.3260  172.5210  141.5610 C   0  0  0  0  0  2  0  0  0  0  0  0
  189.9050  173.9690  141.8190 C   0  0  0  0  0  3  0  0  0  0  0  0
  188.4860  174.2150  141.3070 C   0  0  0  0  0  2  0  0  0  0  0  0
  189.0220  171.9240  139.5300 C   0  0  0  0  0  2  0  0  0  0  0  0
  188.5240  174.4550  139.8050 C   0  0  0  0  0  2  0  0  0  0  0  0
  1  3  2  0  0  0  0
  2  5  1  6  0  0  0
  2  4  1  0  0  0  0
  3 15  1  0  0  0  0
  4  8  1  0  0  0  0
  4  1  1  1  0  0  0
  5 14  1  0  0  0  0
  6 29  1  6  0  0  0
  6 11  1  0  0  0  0
  6  2  1  0  0  0  0
  7 12  1  6  0  0  0
  7  9  1  0  0  0  0
  8 10  1  1  0  0  0
  9  8  1  0  0  0  0
 10 15  2  0  0  0  0
 11 13  1  0  0  0  0
 13 20  1  6  0  0  0
 13  1  1  0  0  0  0
 14  7  1  0  0  0  0
 16 23  2  0  0  0  0
 16 21  1  0  0  0  0
 18 16  1  0  0  0  0
 20 22  2  0  0  0  0
 21 25  1  0  0  0  0
 22 19  1  0  0  0  0
 23 20  1  0  0  0  0
 24 23  1  0  0  0  0
 25 19  2  0  0  0  0
 25 17  1  0  0  0  0
 26 31  1  0  0  0  0
 26 32  1  0  0  0  0
 27 28  1  0  0  0  0
 28 29  1  0  0  0  0
 30 29  1  0  0  0  0
 31 27  1  0  0  0  0
 32 30  1  0  0  0  0
M  END
>  <MODEL>
1

>  <REMARK>
 VINA RESULT:      -8.6      0.000      0.000
  Name = 
  2 active torsions:
  status: ('A' for Active; 'I' for Inactive)
    1  A    between atoms: C_10  and  C_17
    2  A    between atoms: C_16  and  C_27
                            x       y       z     vdW  Elec       q    Type
                         _______ _______ _______ _____ _____    ______ ____

>  <TORSDO>
F 2

$$$$
=
 OpenBabel11052419133D

 32 36  0  0  1  0  0  0  0  0999 V2000
  190.1880  175.9210  146.4110 C   0  0  0  0  0  0  0  0  0  0  0  0
  191.6330  174.3840  145.0530 C   0  0  2  0  0  3  0  0  0  0  0  0
  190.0620  176.6020  147.5140 N   0  0  0  0  0  0  0  0  0  0  0  0
  191.5420  175.7280  145.7810 C   0  0  2  0  0  3  0  0  0  0  0  0
  192.7630  174.3860  144.2220 O   0  0  0  0  0  0  0  0  0  0  0  0
  190.3190  173.9530  144.3390 C   0  0  1  0  0  3  0  0  0  0  0  0
  194.6220  174.8140  145.7660 C   0  0  2  0  0  3  0  0  0  0  0  0
  192.6830  175.7970  146.7990 C   0  0  1  0  0  3  0  0  0  0  0  0
  193.9280  176.0670  146.0870 N   0  0  0  0  0  2  0  0  0  0  0  0
  192.4390  176.8440  147.8470 C   0  0  0  0  0  3  0  0  0  0  0  0
  189.3470  175.0500  144.2890 N   0  0  0  0  0  2  0  0  0  0  0  0
  195.8670  175.1270  144.9630 C   0  0  0  0  0  1  0  0  0  0  0  0
  188.9780  175.4240  145.6590 C   0  0  2  0  0  3  0  0  0  0  0  0
  193.7650  173.7850  145.0010 C   0  0  0  0  0  2  0  0  0  0  0  0
  191.1920  177.1660  148.1990 C   0  0  0  0  0  3  0  0  0  0  0  0
  186.7600  177.9880  144.0260 C   0  0  0  0  0  0  0  0  0  0  0  0
  184.0660  178.7170  146.1380 O   0  0  0  0  0  1  0  0  0  0  0  0
  186.8520  178.9350  143.0570 F   0  0  0  0  0  0  0  0  0  0  0  0
  185.8090  177.3060  146.8330 C   0  0  0  0  0  3  0  0  0  0  0  0
  187.8580  176.4290  145.6380 C   0  0  0  0  0  0  0  0  0  0  0  0
  185.3960  177.5240  144.4120 C   0  0  0  0  0  2  0  0  0  0  0  0
  186.9720  176.4160  146.6530 C   0  0  0  0  0  3  0  0  0  0  0  0
  187.8720  177.4630  144.5640 C   0  0  0  0  0  0  0  0  0  0  0  0
  189.1970  177.9160  144.0400 C   0  0  0  0  0  1  0  0  0  0  0  0
  185.1120  177.8530  145.8380 C   0  0  0  0  0  0  0  0  0  0  0  0
  190.3190  173.1810  139.6240 C   0  0  0  0  0  2  0  0  0  0  0  0
  189.6990  171.4810  141.4200 C   0  0  0  0  0  2  0  0  0  0  0  0
  189.4500  172.2660  142.7000 C   0  0  0  0  0  2  0  0  0  0  0  0
  190.5270  173.3230  142.9540 C   0  0  0  0  0  3  0  0  0  0  0  0
  190.4980  174.3910  141.8600 C   0  0  0  0  0  2  0  0  0  0  0  0
  189.2240  172.2940  140.2250 C   0  0  0  0  0  2  0  0  0  0  0  0
  191.2370  173.8790  140.6330 C   0  0  0  0  0  2  0  0  0  0  0  0
  1  3  2  0  0  0  0
  2  5  1  6  0  0  0
  2  4  1  0  0  0  0
  3 15  1  0  0  0  0
  4  1  1  1  0  0  0
  4  8  1  0  0  0  0
  5 14  1  0  0  0  0
  6 29  1  6  0  0  0
  6  2  1  0  0  0  0
  7 12  1  6  0  0  0
  7  9  1  0  0  0  0
  8 10  1  1  0  0  0
  9  8  1  0  0  0  0
 10 15  2  0  0  0  0
 11  6  1  0  0  0  0
 11 13  1  0  0  0  0
 13 20  1  6  0  0  0
 13  1  1  0  0  0  0
 14  7  1  0  0  0  0
 16 21  1  0  0  0  0
 16 23  2  0  0  0  0
 18 16  1  0  0  0  0
 20 22  2  0  0  0  0
 21 25  1  0  0  0  0
 22 19  1  0  0  0  0
 23 20  1  0  0  0  0
 24 23  1  0  0  0  0
 25 17  1  0  0  0  0
 25 19  2  0  0  0  0
 26 31  1  0  0  0  0
 26 32  1  0  0  0  0
 27 28  1  0  0  0  0
 28 29  1  0  0  0  0
 30 29  1  0  0  0  0
 31 27  1  0  0  0  0
 32 30  1  0  0  0  0
M  END
>  <MODEL>
2

>  <REMARK>
 VINA RESULT:      -8.5      1.171      1.314
  Name = 
  2 active torsions:
  status: ('A' for Active; 'I' for Inactive)
    1  A    between atoms: C_10  and  C_17
    2  A    between atoms: C_16  and  C_27
                            x       y       z     vdW  Elec       q    Type
                         _______ _______ _______ _____ _____    ______ ____

>  <TORSDO>
F 2

$$$$
=
 OpenBabel11052419133D

 32 36  0  0  1  0  0  0  0  0999 V2000
  190.9370  173.8930  142.6230 C   0  0  0  0  0  0  0  0  0  0  0  0
  188.8790  174.1040  141.2050 C   0  0  2  0  0  3  0  0  0  0  0  0
  192.0360  173.2310  142.8530 N   0  0  0  0  0  0  0  0  0  0  0  0
  190.4080  174.0340  141.2200 C   0  0  2  0  0  3  0  0  0  0  0  0
  188.4520  174.5570  139.9480 O   0  0  0  0  0  0  0  0  0  0  0  0
  188.2620  174.8810  142.4040 C   0  0  1  0  0  3  0  0  0  0  0  0
  189.3930  172.9140  138.3850 C   0  0  2  0  0  3  0  0  0  0  0  0
  190.8430  172.8850  140.3070 C   0  0  1  0  0  3  0  0  0  0  0  0
  190.7010  173.3140  138.9190 N   0  0  0  0  0  2  0  0  0  0  0  0
  192.2530  172.4510  140.5800 C   0  0  0  0  0  3  0  0  0  0  0  0
  189.2850  175.6110  143.1580 N   0  0  0  0  0  2  0  0  0  0  0  0
  189.2510  173.4420  136.9720 C   0  0  0  0  0  1  0  0  0  0  0  0
  190.2380  174.6500  143.7250 C   0  0  2  0  0  3  0  0  0  0  0  0
  188.1880  173.3800  139.2280 C   0  0  0  0  0  2  0  0  0  0  0  0
  192.7710  172.5800  141.8050 C   0  0  0  0  0  3  0  0  0  0  0  0
  192.0800  175.1380  146.9700 C   0  0  0  0  0  0  0  0  0  0  0  0
  194.6170  177.5070  146.5280 O   0  0  0  0  0  1  0  0  0  0  0  0
  191.8610  174.9420  148.2960 F   0  0  0  0  0  0  0  0  0  0  0  0
  193.0890  177.0280  144.8120 C   0  0  0  0  0  3  0  0  0  0  0  0
  191.2010  175.3540  144.6430 C   0  0  0  0  0  0  0  0  0  0  0  0
  193.4920  175.2930  146.5170 C   0  0  0  0  0  2  0  0  0  0  0  0
  192.0690  176.2320  144.1030 C   0  0  0  0  0  3  0  0  0  0  0  0
  191.0490  175.1350  146.1090 C   0  0  0  0  0  0  0  0  0  0  0  0
  189.6780  174.8680  146.6440 C   0  0  0  0  0  1  0  0  0  0  0  0
  193.7100  176.6440  145.9260 C   0  0  0  0  0  0  0  0  0  0  0  0
  185.6440  178.6140  140.9770 C   0  0  0  0  0  2  0  0  0  0  0  0
  185.1830  177.1540  143.0150 C   0  0  0  0  0  2  0  0  0  0  0  0
  186.4640  176.3810  143.3000 C   0  0  0  0  0  2  0  0  0  0  0  0
  187.0820  175.7910  142.0310 C   0  0  0  0  0  3  0  0  0  0  0  0
  187.5320  176.9050  141.0850 C   0  0  0  0  0  2  0  0  0  0  0  0
  185.5320  178.5440  142.5030 C   0  0  0  0  0  2  0  0  0  0  0  0
  186.3320  177.4210  140.3060 C   0  0  0  0  0  2  0  0  0  0  0  0
  1  3  2  0  0  0  0
  1 13  1  0  0  0  0
  2  5  1  6  0  0  0
  2  4  1  0  0  0  0
  2  6  1  0  0  0  0
  4  1  1  1  0  0  0
  6 29  1  6  0  0  0
  6 11  1  0  0  0  0
  7 12  1  6  0  0  0
  7  9  1  0  0  0  0
  7 14  1  0  0  0  0
  8 10  1  1  0  0  0
  8  4  1  0  0  0  0
  9  8  1  0  0  0  0
 10 15  2  0  0  0  0
 11 13  1  0  0  0  0
 13 20  1  6  0  0  0
 14  5  1  0  0  0  0
 15  3  1  0  0  0  0
 16 18  1  0  0  0  0
 19 25  2  0  0  0  0
 20 23  1  0  0  0  0
 21 16  1  0  0  0  0
 22 20  2  0  0  0  0
 22 19  1  0  0  0  0
 23 24  1  0  0  0  0
 23 16  2  0  0  0  0
 25 21  1  0  0  0  0
 25 17  1  0  0  0  0
 26 31  1  0  0  0  0
 27 28  1  0  0  0  0
 29 28  1  0  0  0  0
 30 29  1  0  0  0  0
 31 27  1  0  0  0  0
 32 26  1  0  0  0  0
 32 30  1  0  0  0  0
M  END
>  <MODEL>
3

>  <REMARK>
 VINA RESULT:      -8.4      3.178      6.166
  Name = 
  2 active torsions:
  status: ('A' for Active; 'I' for Inactive)
    1  A    between atoms: C_10  and  C_17
    2  A    between atoms: C_16  and  C_27
                            x       y       z     vdW  Elec       q    Type
                         _______ _______ _______ _____ _____    ______ ____

>  <TORSDO>
F 2

$$$$
=
 OpenBabel11052419133D

 32 36  0  0  1  0  0  0  0  0999 V2000
  192.2940  174.9400  145.7220 C   0  0  0  0  0  0  0  0  0  0  0  0
  193.8160  173.0960  144.9630 C   0  0  2  0  0  3  0  0  0  0  0  0
  192.1560  175.9970  146.4710 N   0  0  0  0  0  0  0  0  0  0  0  0
  193.6260  174.6080  145.1030 C   0  0  2  0  0  3  0  0  0  0  0  0
  194.8950  172.8450  144.1030 O   0  0  0  0  0  0  0  0  0  0  0  0
  192.5180  172.3180  144.5990 C   0  0  1  0  0  3  0  0  0  0  0  0
  196.7790  173.9940  145.1790 C   0  0  2  0  0  3  0  0  0  0  0  0
  194.8050  175.1660  145.9040 C   0  0  1  0  0  3  0  0  0  0  0  0
  195.9770  175.2160  145.0350 N   0  0  0  0  0  2  0  0  0  0  0  0
  194.5100  176.5260  146.4670 C   0  0  0  0  0  3  0  0  0  0  0  0
  191.4380  173.2270  144.2050 N   0  0  0  0  0  2  0  0  0  0  0  0
  197.9410  174.0470  144.2090 C   0  0  0  0  0  1  0  0  0  0  0  0
  191.1040  174.0940  145.3400 C   0  0  2  0  0  3  0  0  0  0  0  0
  195.9930  172.6840  144.9640 C   0  0  0  0  0  2  0  0  0  0  0  0
  193.2560  176.8700  146.7710 C   0  0  0  0  0  3  0  0  0  0  0  0
  188.3640  176.5410  146.1580 C   0  0  0  0  0  0  0  0  0  0  0  0
  186.7650  177.5330  143.2080 O   0  0  0  0  0  1  0  0  0  0  0  0
  187.6060  176.8890  147.2300 F   0  0  0  0  0  0  0  0  0  0  0  0
  188.4170  175.8650  143.1930 C   0  0  0  0  0  3  0  0  0  0  0  0
  189.8870  174.9210  145.0210 C   0  0  0  0  0  0  0  0  0  0  0  0
  188.4530  177.5110  145.0290 C   0  0  0  0  0  2  0  0  0  0  0  0
  189.5600  175.1000  143.7270 C   0  0  0  0  0  3  0  0  0  0  0  0
  189.0430  175.3820  146.1610 C   0  0  0  0  0  0  0  0  0  0  0  0
  188.9750  174.5210  147.3810 C   0  0  0  0  0  1  0  0  0  0  0  0
  187.8730  176.9280  143.7860 C   0  0  0  0  0  0  0  0  0  0  0  0
  191.7260  168.8640  141.3950 C   0  0  0  0  0  2  0  0  0  0  0  0
  193.4020  168.7710  143.3140 C   0  0  0  0  0  2  0  0  0  0  0  0
  193.0220  169.8830  144.2830 C   0  0  0  0  0  2  0  0  0  0  0  0
  192.7170  171.2000  143.5660 C   0  0  0  0  0  3  0  0  0  0  0  0
  191.4810  171.0530  142.6780 C   0  0  0  0  0  2  0  0  0  0  0  0
  192.1410  168.1790  142.7010 C   0  0  0  0  0  2  0  0  0  0  0  0
  191.8750  170.3880  141.3680 C   0  0  0  0  0  2  0  0  0  0  0  0
  1  3  2  0  0  0  0
  2  5  1  6  0  0  0
  2  4  1  0  0  0  0
  3 15  1  0  0  0  0
  4  1  1  1  0  0  0
  4  8  1  0  0  0  0
  5 14  1  0  0  0  0
  6 29  1  6  0  0  0
  6  2  1  0  0  0  0
  7 12  1  6  0  0  0
  8 10  1  6  0  0  0
  9  7  1  0  0  0  0
  9  8  1  0  0  0  0
 10 15  2  0  0  0  0
 11  6  1  0  0  0  0
 11 13  1  0  0  0  0
 13 20  1  6  0  0  0
 13  1  1  0  0  0  0
 14  7  1  0  0  0  0
 16 23  2  0  0  0  0
 16 18  1  0  0  0  0
 17 25  1  0  0  0  0
 19 22  1  0  0  0  0
 19 25  2  0  0  0  0
 20 23  1  0  0  0  0
 21 16  1  0  0  0  0
 22 20  2  0  0  0  0
 23 24  1  0  0  0  0
 25 21  1  0  0  0  0
 26 31  1  0  0  0  0
 27 28  1  0  0  0  0
 29 28  1  0  0  0  0
 30 29  1  0  0  0  0
 31 27  1  0  0  0  0
 32 26  1  0  0  0  0
 32 30  1  0  0  0  0
M  END
>  <MODEL>
4

>  <REMARK>
 VINA RESULT:      -8.4      2.724      3.755
  Name = 
  2 active torsions:
  status: ('A' for Active; 'I' for Inactive)
    1  A    between atoms: C_10  and  C_17
    2  A    between atoms: C_16  and  C_27
                            x       y       z     vdW  Elec       q    Type
                         _______ _______ _______ _____ _____    ______ ____

>  <TORSDO>
F 2

$$$$
=
 OpenBabel11052419133D

 32 36  0  0  1  0  0  0  0  0999 V2000
  188.9090  174.7490  142.7060 C   0  0  0  0  0  0  0  0  0  0  0  0
  191.3050  174.0950  143.0600 C   0  0  2  0  0  3  0  0  0  0  0  0
  187.8010  174.5100  142.0640 N   0  0  0  0  0  0  0  0  0  0  0  0
  189.8480  173.6250  143.0560 C   0  0  2  0  0  3  0  0  0  0  0  0
  192.0990  173.1300  143.6960 O   0  0  0  0  0  0  0  0  0  0  0  0
  191.5100  175.5410  143.5960 C   0  0  1  0  0  3  0  0  0  0  0  0
  191.7090  171.0940  142.3820 C   0  0  2  0  0  3  0  0  0  0  0  0
  189.7320  172.4380  142.0970 C   0  0  1  0  0  3  0  0  0  0  0  0
  190.2960  171.2580  142.7450 N   0  0  0  0  0  2  0  0  0  0  0  0
  188.3110  172.1830  141.6860 C   0  0  0  0  0  3  0  0  0  0  0  0
  190.2950  176.0570  144.2350 N   0  0  0  0  0  2  0  0  0  0  0  0
  192.2800  169.9080  143.1320 C   0  0  0  0  0  1  0  0  0  0  0  0
  189.2220  176.1270  143.2360 C   0  0  2  0  0  3  0  0  0  0  0  0
  192.5860  172.3350  142.6460 C   0  0  0  0  0  2  0  0  0  0  0  0
  187.4360  173.1900  141.6320 C   0  0  0  0  0  3  0  0  0  0  0  0
  185.9760  178.0180  143.0330 C   0  0  0  0  0  0  0  0  0  0  0  0
  184.4410  178.0460  146.1780 O   0  0  0  0  0  1  0  0  0  0  0  0
  185.3960  178.9490  142.2310 F   0  0  0  0  0  0  0  0  0  0  0  0
  186.5850  177.1390  145.8790 C   0  0  0  0  0  3  0  0  0  0  0  0
  188.0140  176.8090  143.8190 C   0  0  0  0  0  0  0  0  0  0  0  0
  185.0850  177.2220  143.9250 C   0  0  0  0  0  2  0  0  0  0  0  0
  187.7130  176.5760  145.1110 C   0  0  0  0  0  3  0  0  0  0  0  0
  187.3000  177.8020  142.9670 C   0  0  0  0  0  0  0  0  0  0  0  0
  188.0970  178.5770  141.9680 C   0  0  0  0  0  1  0  0  0  0  0  0
  185.4080  177.4780  145.3580 C   0  0  0  0  0  0  0  0  0  0  0  0
  194.5660  177.1690  146.8880 C   0  0  0  0  0  2  0  0  0  0  0  0
  195.1610  176.4630  144.5110 C   0  0  0  0  0  2  0  0  0  0  0  0
  193.8560  176.4160  143.7280 C   0  0  0  0  0  2  0  0  0  0  0  0
  192.7380  175.7150  144.5020 C   0  0  0  0  0  3  0  0  0  0  0  0
  192.3780  176.5060  145.7600 C   0  0  0  0  0  2  0  0  0  0  0  0
  195.1060  177.6010  145.5210 C   0  0  0  0  0  2  0  0  0  0  0  0
  193.3850  176.1950  146.8580 C   0  0  0  0  0  2  0  0  0  0  0  0
  1 13  1  0  0  0  0
  2  6  1  0  0  0  0
  2  5  1  1  0  0  0
  3  1  2  0  0  0  0
  4  1  1  6  0  0  0
  4  2  1  0  0  0  0
  6 11  1  0  0  0  0
  6 29  1  1  0  0  0
  7 14  1  0  0  0  0
  7  9  1  0  0  0  0
  7 12  1  1  0  0  0
  8 10  1  1  0  0  0
  8  9  1  0  0  0  0
  8  4  1  0  0  0  0
 13 20  1  1  0  0  0
 13 11  1  0  0  0  0
 14  5  1  0  0  0  0
 15 10  2  0  0  0  0
 15  3  1  0  0  0  0
 16 21  1  0  0  0  0
 18 16  1  0  0  0  0
 20 22  2  0  0  0  0
 21 25  1  0  0  0  0
 22 19  1  0  0  0  0
 23 16  2  0  0  0  0
 23 20  1  0  0  0  0
 24 23  1  0  0  0  0
 25 19  2  0  0  0  0
 25 17  1  0  0  0  0
 27 31  1  0  0  0  0
 28 29  1  0  0  0  0
 28 27  1  0  0  0  0
 29 30  1  0  0  0  0
 30 32  1  0  0  0  0
 31 26  1  0  0  0  0
 32 26  1  0  0  0  0
M  END
>  <MODEL>
5

>  <REMARK>
 VINA RESULT:      -8.3      1.850      5.067
  Name = 
  2 active torsions:
  status: ('A' for Active; 'I' for Inactive)
    1  A    between atoms: C_10  and  C_17
    2  A    between atoms: C_16  and  C_27
                            x       y       z     vdW  Elec       q    Type
                         _______ _______ _______ _____ _____    ______ ____

>  <TORSDO>
F 2

$$$$
=
 OpenBabel11052419133D

 32 36  0  0  1  0  0  0  0  0999 V2000
  192.1520  175.8480  145.5120 C   0  0  0  0  0  0  0  0  0  0  0  0
  189.8840  175.9980  144.4500 C   0  0  2  0  0  3  0  0  0  0  0  0
  192.9630  176.3220  146.4150 N   0  0  0  0  0  0  0  0  0  0  0  0
  190.6660  175.8230  145.7550 C   0  0  2  0  0  3  0  0  0  0  0  0
  188.5440  175.6460  144.6660 O   0  0  0  0  0  0  0  0  0  0  0  0
  190.5330  175.3050  143.2170 C   0  0  1  0  0  3  0  0  0  0  0  0
  187.8280  177.1500  146.4690 C   0  0  2  0  0  3  0  0  0  0  0  0
  190.2090  176.9070  146.7340 C   0  0  1  0  0  3  0  0  0  0  0  0
  188.9000  176.5360  147.2630 N   0  0  0  0  0  2  0  0  0  0  0  0
  191.1900  177.1060  147.8530 C   0  0  0  0  0  3  0  0  0  0  0  0
  191.6200  174.4050  143.6140 N   0  0  0  0  0  2  0  0  0  0  0  0
  186.4890  176.6830  146.9980 C   0  0  0  0  0  1  0  0  0  0  0  0
  192.6780  175.1890  144.2610 C   0  0  2  0  0  3  0  0  0  0  0  0
  187.9090  176.8650  144.9560 C   0  0  0  0  0  2  0  0  0  0  0  0
  192.4900  176.8690  147.6560 C   0  0  0  0  0  3  0  0  0  0  0  0
  196.3570  174.5510  144.7270 C   0  0  0  0  0  0  0  0  0  0  0  0
  196.8310  171.3250  146.0000 O   0  0  0  0  0  1  0  0  0  0  0  0
  197.5350  175.0350  144.2560 F   0  0  0  0  0  0  0  0  0  0  0  0
  194.6990  172.0840  145.3740 C   0  0  0  0  0  3  0  0  0  0  0  0
  193.8790  174.3210  144.5270 C   0  0  0  0  0  0  0  0  0  0  0  0
  196.3880  173.7690  145.9970 C   0  0  0  0  0  2  0  0  0  0  0  0
  193.6750  173.0930  145.0410 C   0  0  0  0  0  3  0  0  0  0  0  0
  195.2100  174.8240  144.0830 C   0  0  0  0  0  0  0  0  0  0  0  0
  195.2660  175.7020  142.8750 C   0  0  0  0  0  1  0  0  0  0  0  0
  195.9420  172.3660  145.7640 C   0  0  0  0  0  0  0  0  0  0  0  0
  188.6210  172.7260  139.6780 C   0  0  0  0  0  2  0  0  0  0  0  0
  187.8290  175.0210  140.4560 C   0  0  0  0  0  2  0  0  0  0  0  0
  188.9540  175.6130  141.2950 C   0  0  0  0  0  2  0  0  0  0  0  0
  189.5340  174.6020  142.2860 C   0  0  0  0  0  3  0  0  0  0  0  0
  190.2040  173.4460  141.5420 C   0  0  0  0  0  2  0  0  0  0  0  0
  188.4200  174.2020  139.3190 C   0  0  0  0  0  2  0  0  0  0  0  0
  189.1440  172.4520  141.0920 C   0  0  0  0  0  2  0  0  0  0  0  0
  1  3  2  0  0  0  0
  2  5  1  1  0  0  0
  2  4  1  0  0  0  0
  3 15  1  0  0  0  0
  4  1  1  6  0  0  0
  4  8  1  0  0  0  0
  5 14  1  0  0  0  0
  6 29  1  1  0  0  0
  6 11  1  0  0  0  0
  6  2  1  0  0  0  0
  7 12  1  1  0  0  0
  7  9  1  0  0  0  0
  8  9  1  0  0  0  0
  8 10  1  1  0  0  0
 11 13  1  0  0  0  0
 13 20  1  1  0  0  0
 13  1  1  0  0  0  0
 14  7  1  0  0  0  0
 15 10  2  0  0  0  0
 16 21  1  0  0  0  0
 18 16  1  0  0  0  0
 19 25  2  0  0  0  0
 20 22  2  0  0  0  0
 22 19  1  0  0  0  0
 23 20  1  0  0  0  0
 23 16  2  0  0  0  0
 24 23  1  0  0  0  0
 25 21  1  0  0  0  0
 25 17  1  0  0  0  0
 26 32  1  0  0  0  0
 27 28  1  0  0  0  0
 28 29  1  0  0  0  0
 30 29  1  0  0  0  0
 31 26  1  0  0  0  0
 31 27  1  0  0  0  0
 32 30  1  0  0  0  0
M  END
>  <MODEL>
6

>  <REMARK>
 VINA RESULT:      -8.0      2.939      6.598
  Name = 
  2 active torsions:
  status: ('A' for Active; 'I' for Inactive)
    1  A    between atoms: C_10  and  C_17
    2  A    between atoms: C_16  and  C_27
                            x       y       z     vdW  Elec       q    Type
                         _______ _______ _______ _____ _____    ______ ____

>  <TORSDO>
F 2

$$$$
=
 OpenBabel11052419133D

 32 36  0  0  1  0  0  0  0  0999 V2000
  189.3470  174.7350  142.4780 C   0  0  0  0  0  0  0  0  0  0  0  0
  191.6240  173.9030  141.8310 C   0  0  2  0  0  3  0  0  0  0  0  0
  188.0600  174.6150  142.3180 N   0  0  0  0  0  0  0  0  0  0  0  0
  190.2460  173.5310  142.3850 C   0  0  2  0  0  3  0  0  0  0  0  0
  192.5150  172.8460  142.0650 O   0  0  0  0  0  0  0  0  0  0  0  0
  192.1470  175.2920  142.2970 C   0  0  1  0  0  3  0  0  0  0  0  0
  191.4660  170.9360  140.9350 C   0  0  2  0  0  3  0  0  0  0  0  0
  189.6610  172.4230  141.5060 C   0  0  1  0  0  3  0  0  0  0  0  0
  190.3270  171.1670  141.8330 N   0  0  0  0  0  2  0  0  0  0  0  0
  188.1760  172.2910  141.6800 C   0  0  0  0  0  3  0  0  0  0  0  0
  191.3290  175.8400  143.3830 N   0  0  0  0  0  2  0  0  0  0  0  0
  192.1780  169.6660  141.3520 C   0  0  0  0  0  1  0  0  0  0  0  0
  189.9620  176.0500  142.8930 C   0  0  2  0  0  3  0  0  0  0  0  0
  192.4810  172.0960  140.8780 C   0  0  0  0  0  2  0  0  0  0  0  0
  187.4410  173.3550  142.0150 C   0  0  0  0  0  3  0  0  0  0  0  0
  186.9220  177.8910  144.1270 C   0  0  0  0  0  0  0  0  0  0  0  0
  187.0550  178.1640  147.6130 O   0  0  0  0  0  1  0  0  0  0  0  0
  185.9900  178.7490  143.6350 F   0  0  0  0  0  0  0  0  0  0  0  0
  188.8440  177.2530  146.3960 C   0  0  0  0  0  3  0  0  0  0  0  0
  189.1430  176.7680  143.9320 C   0  0  0  0  0  0  0  0  0  0  0  0
  186.5950  177.1630  145.3870 C   0  0  0  0  0  2  0  0  0  0  0  0
  189.4990  176.6390  145.2250 C   0  0  0  0  0  3  0  0  0  0  0  0
  188.0660  177.6820  143.4560 C   0  0  0  0  0  0  0  0  0  0  0  0
  188.2600  178.3790  142.1470 C   0  0  0  0  0  1  0  0  0  0  0  0
  187.5450  177.5390  146.4730 C   0  0  0  0  0  0  0  0  0  0  0  0
  196.4410  176.6570  143.8880 C   0  0  0  0  0  2  0  0  0  0  0  0
  195.9590  175.5470  141.6430 C   0  0  0  0  0  2  0  0  0  0  0  0
  194.4590  175.6720  141.4050 C   0  0  0  0  0  2  0  0  0  0  0  0
  193.6420  175.3210  142.6500 C   0  0  0  0  0  3  0  0  0  0  0  0
  193.9170  176.3230  143.7720 C   0  0  0  0  0  2  0  0  0  0  0  0
  196.4640  176.7900  142.3620 C   0  0  0  0  0  2  0  0  0  0  0  0
  195.2140  175.9520  144.4750 C   0  0  0  0  0  2  0  0  0  0  0  0
  1 13  1  0  0  0  0
  2  5  1  1  0  0  0
  2  6  1  0  0  0  0
  2  4  1  0  0  0  0
  3  1  2  0  0  0  0
  4  1  1  6  0  0  0
  6 29  1  1  0  0  0
  6 11  1  0  0  0  0
  7 12  1  1  0  0  0
  7  9  1  0  0  0  0
  8 10  1  1  0  0  0
  8  9  1  0  0  0  0
  8  4  1  0  0  0  0
 10 15  2  0  0  0  0
 13 11  1  0  0  0  0
 13 20  1  1  0  0  0
 14  7  1  0  0  0  0
 14  5  1  0  0  0  0
 15  3  1  0  0  0  0
 16 21  1  0  0  0  0
 18 16  1  0  0  0  0
 19 25  2  0  0  0  0
 20 22  2  0  0  0  0
 21 25  1  0  0  0  0
 22 19  1  0  0  0  0
 23 20  1  0  0  0  0
 23 16  2  0  0  0  0
 24 23  1  0  0  0  0
 25 17  1  0  0  0  0
 26 32  1  0  0  0  0
 27 31  1  0  0  0  0
 28 27  1  0  0  0  0
 28 29  1  0  0  0  0
 29 30  1  0  0  0  0
 30 32  1  0  0  0  0
 31 26  1  0  0  0  0
M  END
>  <MODEL>
7

>  <REMARK>
 VINA RESULT:      -8.0      1.964      5.015
  Name = 
  2 active torsions:
  status: ('A' for Active; 'I' for Inactive)
    1  A    between atoms: C_10  and  C_17
    2  A    between atoms: C_16  and  C_27
                            x       y       z     vdW  Elec       q    Type
                         _______ _______ _______ _____ _____    ______ ____

>  <TORSDO>
F 2

$$$$
=
 OpenBabel11052419133D

 32 36  0  0  1  0  0  0  0  0999 V2000
  189.9510  174.5160  142.0690 C   0  0  0  0  0  0  0  0  0  0  0  0
  192.1640  173.3750  141.7630 C   0  0  2  0  0  3  0  0  0  0  0  0
  188.7760  174.7620  141.5640 N   0  0  0  0  0  0  0  0  0  0  0  0
  190.6430  173.2060  141.7970 C   0  0  2  0  0  3  0  0  0  0  0  0
  192.7690  172.1120  141.8350 O   0  0  0  0  0  0  0  0  0  0  0  0
  192.7170  174.4040  142.7910 C   0  0  1  0  0  3  0  0  0  0  0  0
  191.8530  170.9140  139.8980 C   0  0  2  0  0  3  0  0  0  0  0  0
  190.2040  172.5700  140.4760 C   0  0  1  0  0  3  0  0  0  0  0  0
  190.5380  171.1500  140.5080 N   0  0  0  0  0  2  0  0  0  0  0  0
  188.7370  172.7580  140.2200 C   0  0  0  0  0  3  0  0  0  0  0  0
  191.6920  174.8040  143.7600 N   0  0  0  0  0  2  0  0  0  0  0  0
  192.2000  169.4450  140.0180 C   0  0  0  0  0  1  0  0  0  0  0  0
  190.5940  175.4680  143.0480 C   0  0  2  0  0  3  0  0  0  0  0  0
  192.9960  171.7600  140.4950 C   0  0  0  0  0  2  0  0  0  0  0  0
  188.1020  173.8290  140.7050 C   0  0  0  0  0  3  0  0  0  0  0  0
  187.6450  177.5820  144.0440 C   0  0  0  0  0  0  0  0  0  0  0  0
  186.6950  176.7930  147.3190 O   0  0  0  0  0  1  0  0  0  0  0  0
  187.0670  178.7520  143.6680 F   0  0  0  0  0  0  0  0  0  0  0  0
  188.6140  175.8510  146.3490 C   0  0  0  0  0  3  0  0  0  0  0  0
  189.6080  176.0390  144.0310 C   0  0  0  0  0  0  0  0  0  0  0  0
  186.8230  176.6290  144.8440 C   0  0  0  0  0  2  0  0  0  0  0  0
  189.5060  175.4560  145.2420 C   0  0  0  0  0  3  0  0  0  0  0  0
  188.8970  177.2930  143.6520 C   0  0  0  0  0  0  0  0  0  0  0  0
  189.6060  178.2650  142.7650 C   0  0  0  0  0  1  0  0  0  0  0  0
  187.4210  176.4220  146.1940 C   0  0  0  0  0  0  0  0  0  0  0  0
  196.4390  174.1660  145.7770 C   0  0  0  0  0  2  0  0  0  0  0  0
  196.5360  173.9220  143.2410 C   0  0  0  0  0  2  0  0  0  0  0  0
  195.2220  174.4670  142.6970 C   0  0  0  0  0  2  0  0  0  0  0  0
  194.0120  173.9690  143.4910 C   0  0  0  0  0  3  0  0  0  0  0  0
  194.0590  174.4960  144.9260 C   0  0  0  0  0  2  0  0  0  0  0  0
  196.9600  174.7370  144.4540 C   0  0  0  0  0  2  0  0  0  0  0  0
  195.0030  173.6340  145.7510 C   0  0  0  0  0  2  0  0  0  0  0  0
  1 13  1  0  0  0  0
  2  4  1  0  0  0  0
  2  5  1  1  0  0  0
  2  6  1  0  0  0  0
  3  1  2  0  0  0  0
  4  1  1  6  0  0  0
  6 29  1  1  0  0  0
  6 11  1  0  0  0  0
  7 12  1  1  0  0  0
  7 14  1  0  0  0  0
  7  9  1  0  0  0  0
  8 10  1  1  0  0  0
  8  9  1  0  0  0  0
  8  4  1  0  0  0  0
 10 15  2  0  0  0  0
 13 11  1  0  0  0  0
 13 20  1  1  0  0  0
 14  5  1  0  0  0  0
 15  3  1  0  0  0  0
 16 21  1  0  0  0  0
 18 16  1  0  0  0  0
 20 22  2  0  0  0  0
 21 25  1  0  0  0  0
 22 19  1  0  0  0  0
 23 20  1  0  0  0  0
 23 16  2  0  0  0  0
 24 23  1  0  0  0  0
 25 19  2  0  0  0  0
 25 17  1  0  0  0  0
 27 31  1  0  0  0  0
 28 27  1  0  0  0  0
 28 29  1  0  0  0  0
 29 30  1  0  0  0  0
 30 32  1  0  0  0  0
 31 26  1  0  0  0  0
 32 26  1  0  0  0  0
M  END
>  <MODEL>
8

>  <REMARK>
 VINA RESULT:      -7.8      1.949      5.365
  Name = 
  2 active torsions:
  status: ('A' for Active; 'I' for Inactive)
    1  A    between atoms: C_10  and  C_17
    2  A    between atoms: C_16  and  C_27
                            x       y       z     vdW  Elec       q    Type
                         _______ _______ _______ _____ _____    ______ ____

>  <TORSDO>
F 2

$$$$
=
 OpenBabel11052419133D

 32 36  0  0  1  0  0  0  0  0999 V2000
  192.3840  175.4540  145.0070 C   0  0  0  0  0  0  0  0  0  0  0  0
  193.9090  174.3590  143.3430 C   0  0  2  0  0  3  0  0  0  0  0  0
  192.2790  176.0260  146.1730 N   0  0  0  0  0  0  0  0  0  0  0  0
  193.6400  175.6050  144.1910 C   0  0  2  0  0  3  0  0  0  0  0  0
  194.8770  174.6620  142.3740 O   0  0  0  0  0  0  0  0  0  0  0  0
  192.6290  173.6840  142.7730 C   0  0  1  0  0  3  0  0  0  0  0  0
  196.8080  175.4110  143.6920 C   0  0  2  0  0  3  0  0  0  0  0  0
  194.8770  175.8730  145.0520 C   0  0  1  0  0  3  0  0  0  0  0  0
  195.9150  176.4560  144.2090 N   0  0  0  0  0  2  0  0  0  0  0  0
  194.5710  176.7790  146.2100 C   0  0  0  0  0  3  0  0  0  0  0  0
  191.4470  174.5340  142.9470 N   0  0  0  0  0  2  0  0  0  0  0  0
  197.8240  176.0410  142.7620 C   0  0  0  0  0  1  0  0  0  0  0  0
  191.2120  174.7390  144.3800 C   0  0  2  0  0  3  0  0  0  0  0  0
  196.0890  174.2600  142.9590 C   0  0  0  0  0  2  0  0  0  0  0  0
  193.3490  176.7910  146.7490 C   0  0  0  0  0  3  0  0  0  0  0  0
  188.4260  176.1440  146.4830 C   0  0  0  0  0  0  0  0  0  0  0  0
  186.4220  178.2370  144.5200 O   0  0  0  0  0  1  0  0  0  0  0  0
  187.7780  175.8400  147.6380 F   0  0  0  0  0  0  0  0  0  0  0  0
  188.1730  176.9920  143.5740 C   0  0  0  0  0  3  0  0  0  0  0  0
  189.9110  175.4660  144.5950 C   0  0  0  0  0  0  0  0  0  0  0  0
  188.3130  177.5410  145.9730 C   0  0  0  0  0  2  0  0  0  0  0  0
  189.4220  176.2070  143.5810 C   0  0  0  0  0  3  0  0  0  0  0  0
  189.1790  175.2170  145.8690 C   0  0  0  0  0  0  0  0  0  0  0  0
  189.3160  173.8740  146.5110 C   0  0  0  0  0  1  0  0  0  0  0  0
  187.6310  177.5640  144.6480 C   0  0  0  0  0  0  0  0  0  0  0  0
  191.6390  172.0450  138.3960 C   0  0  0  0  0  2  0  0  0  0  0  0
  193.5260  171.2350  139.9070 C   0  0  0  0  0  2  0  0  0  0  0  0
  193.2080  171.7310  141.3110 C   0  0  0  0  0  2  0  0  0  0  0  0
  192.7610  173.1950  141.3240 C   0  0  0  0  0  3  0  0  0  0  0  0
  191.4390  173.3580  140.5720 C   0  0  0  0  0  2  0  0  0  0  0  0
  192.2320  170.8770  139.1890 C   0  0  0  0  0  2  0  0  0  0  0  0
  191.7120  173.4160  139.0760 C   0  0  0  0  0  2  0  0  0  0  0  0
  1  3  2  0  0  0  0
  2  5  1  6  0  0  0
  2  4  1  0  0  0  0
  3 15  1  0  0  0  0
  4  1  1  1  0  0  0
  4  8  1  0  0  0  0
  5 14  1  0  0  0  0
  6 29  1  6  0  0  0
  6 11  1  0  0  0  0
  6  2  1  0  0  0  0
  7 12  1  6  0  0  0
  7  9  1  0  0  0  0
  8 10  1  1  0  0  0
  9  8  1  0  0  0  0
 10 15  2  0  0  0  0
 11 13  1  0  0  0  0
 13 20  1  6  0  0  0
 13  1  1  0  0  0  0
 14  7  1  0  0  0  0
 16 18  1  0  0  0  0
 17 25  1  0  0  0  0
 19 22  1  0  0  0  0
 19 25  2  0  0  0  0
 20 23  1  0  0  0  0
 21 16  1  0  0  0  0
 22 20  2  0  0  0  0
 23 16  2  0  0  0  0
 23 24  1  0  0  0  0
 25 21  1  0  0  0  0
 26 32  1  0  0  0  0
 26 31  1  0  0  0  0
 27 28  1  0  0  0  0
 28 29  1  0  0  0  0
 30 29  1  0  0  0  0
 31 27  1  0  0  0  0
 32 30  1  0  0  0  0
M  END
>  <MODEL>
9

>  <REMARK>
 VINA RESULT:      -7.8      2.179      3.049
  Name = 
  2 active torsions:
  status: ('A' for Active; 'I' for Inactive)
    1  A    between atoms: C_10  and  C_17
    2  A    between atoms: C_16  and  C_27
                            x       y       z     vdW  Elec       q    Type
                         _______ _______ _______ _____ _____    ______ ____

>  <TORSDO>
F 2

$$$$
