=
 OpenBabel11052418573D

 34 40  0  0  1  0  0  0  0  0999 V2000
  187.1280  177.3790  146.5690 C   0  0  2  0  0  3  0  0  0  0  0  0
  185.8120  177.2770  144.5320 C   0  0  2  0  0  3  0  0  0  0  0  0
  188.3760  177.2580  144.2800 C   0  0  1  0  0  3  0  0  0  0  0  0
  188.6680  174.8200  143.7720 O   0  0  0  0  0  0  0  0  0  0  0  0
  184.6830  178.0140  146.6180 C   0  0  0  0  0  2  0  0  0  0  0  0
  184.7110  178.1670  145.0870 C   0  0  0  0  0  2  0  0  0  0  0  0
  186.7260  175.9280  142.6950 C   0  0  1  0  0  3  0  0  0  0  0  0
  187.1510  177.7510  145.0870 C   0  0  2  0  0  3  0  0  0  0  0  0
  188.1590  177.6960  141.3330 C   0  0  0  0  0  1  0  0  0  0  0  0
  186.0670  178.2430  147.2560 C   0  0  0  0  0  2  0  0  0  0  0  0
  189.6880  177.1150  145.0740 C   0  0  2  0  0  3  0  0  0  0  0  0
  188.4890  177.5380  147.2170 C   0  0  0  0  0  2  0  0  0  0  0  0
  185.8330  177.1340  143.0220 C   0  0  0  0  0  2  0  0  0  0  0  0
  190.0840  174.9090  143.7550 C   0  0  0  0  0  2  0  0  0  0  0  0
  190.6750  176.2380  144.2880 C   0  0  2  0  0  3  0  0  0  0  0  0
  187.9650  176.2770  141.8640 C   0  0  1  0  0  0  0  0  0  0  0  0
  188.1130  176.0480  143.3640 C   0  0  1  0  0  0  0  0  0  0  0  0
  189.4630  176.6140  146.5020 C   0  0  0  0  0  2  0  0  0  0  0  0
  194.1420  177.0500  145.5850 C   0  0  0  0  0  0  0  0  0  0  0  0
  194.5210  175.8370  146.1700 C   0  0  0  0  0  3  0  0  0  0  0  0
  192.0180  176.0780  144.9350 C   0  0  0  0  0  0  0  0  0  0  0  0
  193.6490  174.7450  146.1420 C   0  0  0  0  0  3  0  0  0  0  0  0
  192.8920  177.1700  144.9720 C   0  0  0  0  0  3  0  0  0  0  0  0
  192.3990  174.8650  145.5290 C   0  0  0  0  0  3  0  0  0  0  0  0
  194.9870  178.1080  145.6140 F   0  0  0  0  0  0  0  0  0  0  0  0
  187.9510  174.9680  139.8830 C   0  0  0  0  0  3  0  0  0  0  0  0
  188.4510  175.1940  141.0430 N   0  0  0  0  0  0  0  0  0  0  0  0
  188.4710  173.8420  139.0540 C   0  0  0  0  0  2  0  0  0  0  0  0
  189.8500  173.4140  139.5420 C   0  0  0  0  0  3  0  0  0  0  0  0
  190.8930  173.6370  138.4450 C   0  0  0  0  0  2  0  0  0  0  0  0
  191.0080  171.2760  138.0030 O   0  0  0  0  0  0  0  0  0  0  0  0
  189.8690  171.0170  138.7840 C   0  0  0  0  0  2  0  0  0  0  0  0
  189.8480  171.9480  140.0000 C   0  0  0  0  0  2  0  0  0  0  0  0
  190.8020  172.5260  137.3950 C   0  0  0  0  0  2  0  0  0  0  0  0
  1 12  1  1  0  0  0
  1 10  1  0  0  0  0
  2 13  1  6  0  0  0
  2  8  1  0  0  0  0
  2  6  1  0  0  0  0
  3 11  1  0  0  0  0
  3  8  1  0  0  0  0
  5 10  1  0  0  0  0
  6  5  1  0  0  0  0
  7 13  1  0  0  0  0
  7 17  1  0  0  0  0
  8  1  1  0  0  0  0
  9 16  1  0  0  0  0
 11 18  1  0  0  0  0
 14  4  1  0  0  0  0
 14 15  1  0  0  0  0
 15 21  1  0  0  0  0
 15 11  1  0  0  0  0
 16  7  1  0  0  0  0
 16 17  1  0  0  0  0
 17  4  1  0  0  0  0
 17  3  1  0  0  0  0
 18 12  1  0  0  0  0
 19 25  1  0  0  0  0
 19 20  1  0  0  0  0
 21 23  1  0  0  0  0
 21 24  2  0  0  0  0
 22 20  2  0  0  0  0
 23 19  2  0  0  0  0
 24 22  1  0  0  0  0
 26 27  2  0  0  0  0
 27 16  1  0  0  0  0
 28 29  1  0  0  0  0
 28 26  1  0  0  0  0
 29 33  1  0  0  0  0
 30 29  1  0  0  0  0
 31 32  1  0  0  0  0
 32 33  1  0  0  0  0
 34 31  1  0  0  0  0
 34 30  1  0  0  0  0
M  END
>  <MODEL>
1

>  <REMARK>
 VINA RESULT:      -9.2      0.000      0.000
  Name = 
  4 active torsions:
  status: ('A' for Active; 'I' for Inactive)
    1  A    between atoms: C_3  and  C_13
    2  A    between atoms: C_11  and  C_13
    3  A    between atoms: C_12  and  C_28
    4  A    between atoms: N_17  and  C_29
                            x       y       z     vdW  Elec       q    Type
                         _______ _______ _______ _____ _____    ______ ____

>  <TORSDO>
F 4

$$$$
=
 OpenBabel11052418573D

 34 40  0  0  1  0  0  0  0  0999 V2000
  185.9340  177.7350  143.6660 C   0  0  2  0  0  3  0  0  0  0  0  0
  186.6250  178.0270  145.9750 C   0  0  2  0  0  3  0  0  0  0  0  0
  187.7660  176.1470  144.6340 C   0  0  1  0  0  3  0  0  0  0  0  0
  189.9630  177.2830  144.2220 O   0  0  0  0  0  0  0  0  0  0  0  0
  184.4950  179.0780  145.2490 C   0  0  0  0  0  2  0  0  0  0  0  0
  185.2360  178.4400  146.4360 C   0  0  0  0  0  2  0  0  0  0  0  0
  188.9870  177.5930  146.4830 C   0  0  1  0  0  3  0  0  0  0  0  0
  186.4840  176.9790  144.8750 C   0  0  2  0  0  3  0  0  0  0  0  0
  188.9810  175.0170  147.1170 C   0  0  0  0  0  1  0  0  0  0  0  0
  184.5070  178.1800  143.9970 C   0  0  0  0  0  2  0  0  0  0  0  0
  187.9400  175.5840  143.2110 C   0  0  2  0  0  3  0  0  0  0  0  0
  185.9850  176.8990  142.4020 C   0  0  0  0  0  2  0  0  0  0  0  0
  187.5700  177.5840  147.0740 C   0  0  0  0  0  2  0  0  0  0  0  0
  190.4520  176.2240  143.4130 C   0  0  0  0  0  2  0  0  0  0  0  0
  189.4020  175.1640  142.9950 C   0  0  2  0  0  3  0  0  0  0  0  0
  189.6650  176.2180  146.4660 C   0  0  1  0  0  0  0  0  0  0  0  0
  189.0650  176.7700  145.1780 C   0  0  1  0  0  0  0  0  0  0  0  0
  187.4370  176.5420  142.1300 C   0  0  0  0  0  2  0  0  0  0  0  0
  188.8660  173.7870  139.5060 C   0  0  0  0  0  0  0  0  0  0  0  0
  190.1640  173.4140  139.1420 C   0  0  0  0  0  3  0  0  0  0  0  0
  189.6820  174.5390  141.6620 C   0  0  0  0  0  0  0  0  0  0  0  0
  191.2230  173.6050  140.0340 C   0  0  0  0  0  3  0  0  0  0  0  0
  188.6270  174.3510  140.7620 C   0  0  0  0  0  3  0  0  0  0  0  0
  190.9840  174.1700  141.2910 C   0  0  0  0  0  3  0  0  0  0  0  0
  187.8410  173.6020  138.6400 F   0  0  0  0  0  0  0  0  0  0  0  0
  191.8090  175.2000  146.4230 C   0  0  0  0  0  3  0  0  0  0  0  0
  191.1060  176.2680  146.5240 N   0  0  0  0  0  0  0  0  0  0  0  0
  193.2970  175.2790  146.4860 C   0  0  0  0  0  2  0  0  0  0  0  0
  193.9250  174.1400  145.6920 C   0  0  0  0  0  3  0  0  0  0  0  0
  195.4490  174.2880  145.6680 C   0  0  0  0  0  2  0  0  0  0  0  0
  195.3940  175.0160  143.3770 O   0  0  0  0  0  0  0  0  0  0  0  0
  193.9980  175.1750  143.4020 C   0  0  0  0  0  2  0  0  0  0  0  0
  193.3640  174.0800  144.2640 C   0  0  0  0  0  2  0  0  0  0  0  0
  195.8600  175.3620  144.6570 C   0  0  0  0  0  2  0  0  0  0  0  0
  1 12  1  6  0  0  0
  1 10  1  0  0  0  0
  1  8  1  0  0  0  0
  2  6  1  1  0  0  0
  2 13  1  0  0  0  0
  3  8  1  0  0  0  0
  3 17  1  0  0  0  0
  4 17  1  0  0  0  0
  5  6  1  0  0  0  0
  7 13  1  0  0  0  0
  8  2  1  0  0  0  0
 10  5  1  0  0  0  0
 11  3  1  0  0  0  0
 14  4  1  0  0  0  0
 15 11  1  0  0  0  0
 15 14  1  0  0  0  0
 16  7  1  0  0  0  0
 16 27  1  0  0  0  0
 16  9  1  0  0  0  0
 17 16  1  0  0  0  0
 17  7  1  0  0  0  0
 18 12  1  0  0  0  0
 18 11  1  0  0  0  0
 19 23  1  0  0  0  0
 20 19  2  0  0  0  0
 20 22  1  0  0  0  0
 21 15  1  0  0  0  0
 22 24  2  0  0  0  0
 23 21  2  0  0  0  0
 24 21  1  0  0  0  0
 25 19  1  0  0  0  0
 26 28  1  0  0  0  0
 26 27  2  0  0  0  0
 29 28  1  0  0  0  0
 30 29  1  0  0  0  0
 31 32  1  0  0  0  0
 31 34  1  0  0  0  0
 32 33  1  0  0  0  0
 33 29  1  0  0  0  0
 34 30  1  0  0  0  0
M  END
>  <MODEL>
2

>  <REMARK>
 VINA RESULT:      -8.7      2.855      5.851
  Name = 
  4 active torsions:
  status: ('A' for Active; 'I' for Inactive)
    1  A    between atoms: C_3  and  C_13
    2  A    between atoms: C_11  and  C_13
    3  A    between atoms: C_12  and  C_28
    4  A    between atoms: N_17  and  C_29
                            x       y       z     vdW  Elec       q    Type
                         _______ _______ _______ _____ _____    ______ ____

>  <TORSDO>
F 4

$$$$
=
 OpenBabel11052418573D

 34 40  0  0  1  0  0  0  0  0999 V2000
  191.5910  176.1790  146.0360 C   0  0  2  0  0  3  0  0  0  0  0  0
  192.2570  174.5100  144.4050 C   0  0  2  0  0  3  0  0  0  0  0  0
  189.7430  175.0460  144.5830 C   0  0  1  0  0  3  0  0  0  0  0  0
  189.5280  176.4450  142.5130 O   0  0  0  0  0  0  0  0  0  0  0  0
  193.8790  175.1170  146.1850 C   0  0  0  0  0  2  0  0  0  0  0  0
  193.3910  173.9810  145.2690 C   0  0  0  0  0  2  0  0  0  0  0  0
  190.9660  174.4320  142.3180 C   0  0  1  0  0  3  0  0  0  0  0  0
  191.1030  174.9260  145.3120 C   0  0  2  0  0  3  0  0  0  0  0  0
  189.0480  172.6890  142.8860 C   0  0  0  0  0  1  0  0  0  0  0  0
  192.7280  175.7680  146.9770 C   0  0  0  0  0  2  0  0  0  0  0  0
  188.7390  176.0380  145.1990 C   0  0  2  0  0  3  0  0  0  0  0  0
  190.4710  176.8800  146.7800 C   0  0  0  0  0  2  0  0  0  0  0  0
  191.8070  173.5890  143.2880 C   0  0  0  0  0  2  0  0  0  0  0  0
  188.1660  176.7560  142.7660 C   0  0  0  0  0  2  0  0  0  0  0  0
  187.6440  176.3710  144.1730 C   0  0  2  0  0  3  0  0  0  0  0  0
  189.5120  173.9650  142.1860 C   0  0  1  0  0  0  0  0  0  0  0  0
  189.8300  175.1790  143.0510 C   0  0  1  0  0  0  0  0  0  0  0  0
  189.4150  177.2880  145.7660 C   0  0  0  0  0  2  0  0  0  0  0  0
  185.4470  179.4300  144.5880 C   0  0  0  0  0  0  0  0  0  0  0  0
  184.5490  179.0070  145.5740 C   0  0  0  0  0  3  0  0  0  0  0  0
  186.5700  177.2830  144.6820 C   0  0  0  0  0  0  0  0  0  0  0  0
  184.6570  177.7220  146.1120 C   0  0  0  0  0  3  0  0  0  0  0  0
  186.4530  178.5680  144.1420 C   0  0  0  0  0  3  0  0  0  0  0  0
  185.6620  176.8590  145.6660 C   0  0  0  0  0  3  0  0  0  0  0  0
  185.3410  180.6750  144.0650 F   0  0  0  0  0  0  0  0  0  0  0  0
  189.2870  173.6990  139.8380 C   0  0  0  0  0  3  0  0  0  0  0  0
  188.9030  174.2790  140.9160 N   0  0  0  0  0  0  0  0  0  0  0  0
  188.6400  174.0410  138.5380 C   0  0  0  0  0  2  0  0  0  0  0  0
  189.2020  173.1730  137.4190 C   0  0  0  0  0  3  0  0  0  0  0  0
  190.6400  172.7570  137.7410 C   0  0  0  0  0  2  0  0  0  0  0  0
  191.5060  174.3080  136.1200 O   0  0  0  0  0  0  0  0  0  0  0  0
  190.2570  174.9350  135.9700 C   0  0  0  0  0  2  0  0  0  0  0  0
  189.1370  173.8960  136.0660 C   0  0  0  0  0  2  0  0  0  0  0  0
  191.5990  173.9180  137.4670 C   0  0  0  0  0  2  0  0  0  0  0  0
  1 12  1  1  0  0  0
  1 10  1  0  0  0  0
  2 13  1  6  0  0  0
  2  6  1  0  0  0  0
  2  8  1  0  0  0  0
  3 11  1  0  0  0  0
  3  8  1  0  0  0  0
  4 14  1  0  0  0  0
  4 17  1  0  0  0  0
  5 10  1  0  0  0  0
  6  5  1  0  0  0  0
  7 17  1  0  0  0  0
  7 13  1  0  0  0  0
  8  1  1  0  0  0  0
 11 18  1  0  0  0  0
 14 15  1  0  0  0  0
 15 21  1  0  0  0  0
 15 11  1  0  0  0  0
 16  7  1  0  0  0  0
 16  9  1  0  0  0  0
 16 17  1  0  0  0  0
 17  3  1  0  0  0  0
 18 12  1  0  0  0  0
 19 20  1  0  0  0  0
 20 22  2  0  0  0  0
 21 24  2  0  0  0  0
 23 19  2  0  0  0  0
 23 21  1  0  0  0  0
 24 22  1  0  0  0  0
 25 19  1  0  0  0  0
 26 27  2  0  0  0  0
 27 16  1  0  0  0  0
 28 26  1  0  0  0  0
 29 30  1  0  0  0  0
 29 28  1  0  0  0  0
 31 34  1  0  0  0  0
 32 33  1  0  0  0  0
 32 31  1  0  0  0  0
 33 29  1  0  0  0  0
 34 30  1  0  0  0  0
M  END
>  <MODEL>
3

>  <REMARK>
 VINA RESULT:      -8.7      2.322      5.570
  Name = 
  4 active torsions:
  status: ('A' for Active; 'I' for Inactive)
    1  A    between atoms: C_3  and  C_13
    2  A    between atoms: C_11  and  C_13
    3  A    between atoms: C_12  and  C_28
    4  A    between atoms: N_17  and  C_29
                            x       y       z     vdW  Elec       q    Type
                         _______ _______ _______ _____ _____    ______ ____

>  <TORSDO>
F 4

$$$$
=
 OpenBabel11052418573D

 34 40  0  0  1  0  0  0  0  0999 V2000
  186.5880  177.7260  143.3280 C   0  0  2  0  0  3  0  0  0  0  0  0
  187.5130  177.8500  145.5690 C   0  0  2  0  0  3  0  0  0  0  0  0
  188.1200  175.7830  144.1560 C   0  0  1  0  0  3  0  0  0  0  0  0
  190.4640  176.4360  143.5530 O   0  0  0  0  0  0  0  0  0  0  0  0
  185.5970  179.3300  145.0110 C   0  0  0  0  0  2  0  0  0  0  0  0
  186.2840  178.5410  146.1390 C   0  0  0  0  0  2  0  0  0  0  0  0
  189.7660  176.9260  145.8840 C   0  0  1  0  0  3  0  0  0  0  0  0
  187.0650  176.8630  144.4950 C   0  0  2  0  0  3  0  0  0  0  0  0
  189.2730  174.4040  146.5420 C   0  0  0  0  0  1  0  0  0  0  0  0
  185.3170  178.4580  143.7710 C   0  0  0  0  0  2  0  0  0  0  0  0
  188.0530  175.2060  142.7290 C   0  0  2  0  0  3  0  0  0  0  0  0
  186.3570  176.9080  142.0720 C   0  0  0  0  0  2  0  0  0  0  0  0
  188.4320  177.2100  146.5910 C   0  0  0  0  0  2  0  0  0  0  0  0
  190.6520  175.3050  142.7170 C   0  0  0  0  0  2  0  0  0  0  0  0
  189.3730  174.4910  142.3980 C   0  0  2  0  0  3  0  0  0  0  0  0
  190.1370  175.4400  145.8240 C   0  0  1  0  0  0  0  0  0  0  0  0
  189.5610  176.1160  144.5850 C   0  0  1  0  0  0  0  0  0  0  0  0
  187.6740  176.2580  141.6840 C   0  0  0  0  0  2  0  0  0  0  0  0
  190.6550  173.2040  139.0730 C   0  0  0  0  0  0  0  0  0  0  0  0
  189.5190  172.5760  138.5510 C   0  0  0  0  0  3  0  0  0  0  0  0
  189.4040  173.8320  141.0530 C   0  0  0  0  0  0  0  0  0  0  0  0
  188.3270  172.5720  139.2780 C   0  0  0  0  0  3  0  0  0  0  0  0
  190.5970  173.8280  140.3220 C   0  0  0  0  0  3  0  0  0  0  0  0
  188.2680  173.1950  140.5280 C   0  0  0  0  0  3  0  0  0  0  0  0
  191.8110  173.2070  138.3670 F   0  0  0  0  0  0  0  0  0  0  0  0
  192.3900  175.9470  146.3720 C   0  0  0  0  0  3  0  0  0  0  0  0
  191.5560  175.1870  145.7630 N   0  0  0  0  0  0  0  0  0  0  0  0
  193.8530  175.6630  146.2930 C   0  0  0  0  0  2  0  0  0  0  0  0
  194.1550  174.7540  145.1080 C   0  0  0  0  0  3  0  0  0  0  0  0
  195.1790  173.6880  145.5060 C   0  0  0  0  0  2  0  0  0  0  0  0
  196.9100  174.8170  144.2760 O   0  0  0  0  0  0  0  0  0  0  0  0
  196.1160  175.9640  144.1030 C   0  0  0  0  0  2  0  0  0  0  0  0
  194.6530  175.5600  143.9000 C   0  0  0  0  0  2  0  0  0  0  0  0
  196.5850  174.2920  145.5380 C   0  0  0  0  0  2  0  0  0  0  0  0
  1 12  1  6  0  0  0
  1 10  1  0  0  0  0
  1  8  1  0  0  0  0
  2  6  1  1  0  0  0
  2 13  1  0  0  0  0
  3  8  1  0  0  0  0
  3 17  1  0  0  0  0
  4 17  1  0  0  0  0
  5  6  1  0  0  0  0
  7 13  1  0  0  0  0
  8  2  1  0  0  0  0
 10  5  1  0  0  0  0
 11  3  1  0  0  0  0
 14  4  1  0  0  0  0
 15 14  1  0  0  0  0
 15 11  1  0  0  0  0
 16  7  1  0  0  0  0
 16  9  1  0  0  0  0
 17 16  1  0  0  0  0
 17  7  1  0  0  0  0
 18 12  1  0  0  0  0
 18 11  1  0  0  0  0
 19 23  1  0  0  0  0
 20 19  2  0  0  0  0
 20 22  1  0  0  0  0
 21 15  1  0  0  0  0
 22 24  2  0  0  0  0
 23 21  2  0  0  0  0
 24 21  1  0  0  0  0
 25 19  1  0  0  0  0
 27 16  1  0  0  0  0
 27 26  2  0  0  0  0
 28 26  1  0  0  0  0
 29 30  1  0  0  0  0
 29 28  1  0  0  0  0
 30 34  1  0  0  0  0
 31 34  1  0  0  0  0
 32 31  1  0  0  0  0
 33 32  1  0  0  0  0
 33 29  1  0  0  0  0
M  END
>  <MODEL>
4

>  <REMARK>
 VINA RESULT:      -8.7      2.739      6.186
  Name = 
  4 active torsions:
  status: ('A' for Active; 'I' for Inactive)
    1  A    between atoms: C_3  and  C_13
    2  A    between atoms: C_11  and  C_13
    3  A    between atoms: C_12  and  C_28
    4  A    between atoms: N_17  and  C_29
                            x       y       z     vdW  Elec       q    Type
                         _______ _______ _______ _____ _____    ______ ____

>  <TORSDO>
F 4

$$$$
=
 OpenBabel11052418573D

 34 40  0  0  1  0  0  0  0  0999 V2000
  187.1150  176.5610  143.1960 C   0  0  2  0  0  3  0  0  0  0  0  0
  187.9050  177.6020  145.2420 C   0  0  2  0  0  3  0  0  0  0  0  0
  189.0660  175.4240  144.5040 C   0  0  1  0  0  3  0  0  0  0  0  0
  191.1830  176.4290  143.6130 O   0  0  0  0  0  0  0  0  0  0  0  0
  185.6940  178.3010  144.3520 C   0  0  0  0  0  2  0  0  0  0  0  0
  186.5240  178.1010  145.6330 C   0  0  0  0  0  2  0  0  0  0  0  0
  190.3090  177.4240  145.7120 C   0  0  1  0  0  3  0  0  0  0  0  0
  187.7600  176.2520  144.5470 C   0  0  2  0  0  3  0  0  0  0  0  0
  190.4570  175.1910  147.1380 C   0  0  0  0  0  1  0  0  0  0  0  0
  185.6860  177.0480  143.4560 C   0  0  0  0  0  2  0  0  0  0  0  0
  189.1950  174.4370  143.3290 C   0  0  2  0  0  3  0  0  0  0  0  0
  187.1420  175.3640  142.2660 C   0  0  0  0  0  2  0  0  0  0  0  0
  188.9250  177.5650  146.3630 C   0  0  0  0  0  2  0  0  0  0  0  0
  191.6810  175.1810  143.1580 C   0  0  0  0  0  2  0  0  0  0  0  0
  190.6640  174.0130  143.1680 C   0  0  2  0  0  3  0  0  0  0  0  0
  191.0490  176.1370  146.0940 C   0  0  1  0  0  0  0  0  0  0  0  0
  190.3600  176.2260  144.7380 C   0  0  1  0  0  0  0  0  0  0  0  0
  188.5940  174.9810  142.0320 C   0  0  0  0  0  2  0  0  0  0  0  0
  190.7390  170.7080  141.3150 C   0  0  0  0  0  0  0  0  0  0  0  0
  191.3000  171.0800  140.0880 C   0  0  0  0  0  3  0  0  0  0  0  0
  190.9050  173.0000  142.0900 C   0  0  0  0  0  0  0  0  0  0  0  0
  191.6610  172.4110  139.8590 C   0  0  0  0  0  3  0  0  0  0  0  0
  190.5400  171.6670  142.3120 C   0  0  0  0  0  3  0  0  0  0  0  0
  191.4620  173.3700  140.8560 C   0  0  0  0  0  3  0  0  0  0  0  0
  190.3890  169.4190  141.5350 F   0  0  0  0  0  0  0  0  0  0  0  0
  193.2360  175.2500  146.3500 C   0  0  0  0  0  3  0  0  0  0  0  0
  192.4870  176.2450  146.0430 N   0  0  0  0  0  0  0  0  0  0  0  0
  194.7200  175.3870  146.2880 C   0  0  0  0  0  2  0  0  0  0  0  0
  195.2650  174.7220  145.0300 C   0  0  0  0  0  3  0  0  0  0  0  0
  194.4510  173.4680  144.6990 C   0  0  0  0  0  2  0  0  0  0  0  0
  196.2330  172.0460  145.4640 O   0  0  0  0  0  0  0  0  0  0  0  0
  196.9190  173.1260  146.0470 C   0  0  0  0  0  2  0  0  0  0  0  0
  196.7530  174.3770  145.1810 C   0  0  0  0  0  2  0  0  0  0  0  0
  194.8620  172.3140  145.6170 C   0  0  0  0  0  2  0  0  0  0  0  0
  1 12  1  6  0  0  0
  1 10  1  0  0  0  0
  1  8  1  0  0  0  0
  2  6  1  1  0  0  0
  2 13  1  0  0  0  0
  3  8  1  0  0  0  0
  3 17  1  0  0  0  0
  4 17  1  0  0  0  0
  5  6  1  0  0  0  0
  7 16  1  0  0  0  0
  7 13  1  0  0  0  0
  8  2  1  0  0  0  0
 10  5  1  0  0  0  0
 11  3  1  0  0  0  0
 14 15  1  0  0  0  0
 14  4  1  0  0  0  0
 15 11  1  0  0  0  0
 16  9  1  0  0  0  0
 17  7  1  0  0  0  0
 17 16  1  0  0  0  0
 18 12  1  0  0  0  0
 18 11  1  0  0  0  0
 19 25  1  0  0  0  0
 19 23  1  0  0  0  0
 20 19  2  0  0  0  0
 21 23  2  0  0  0  0
 21 15  1  0  0  0  0
 22 20  1  0  0  0  0
 22 24  2  0  0  0  0
 24 21  1  0  0  0  0
 27 16  1  0  0  0  0
 27 26  2  0  0  0  0
 28 26  1  0  0  0  0
 29 33  1  0  0  0  0
 29 28  1  0  0  0  0
 30 29  1  0  0  0  0
 30 34  1  0  0  0  0
 31 34  1  0  0  0  0
 31 32  1  0  0  0  0
 33 32  1  0  0  0  0
M  END
>  <MODEL>
5

>  <REMARK>
 VINA RESULT:      -8.2      3.067      6.231
  Name = 
  4 active torsions:
  status: ('A' for Active; 'I' for Inactive)
    1  A    between atoms: C_3  and  C_13
    2  A    between atoms: C_11  and  C_13
    3  A    between atoms: C_12  and  C_28
    4  A    between atoms: N_17  and  C_29
                            x       y       z     vdW  Elec       q    Type
                         _______ _______ _______ _____ _____    ______ ____

>  <TORSDO>
F 4

$$$$
=
 OpenBabel11052418573D

 34 40  0  0  1  0  0  0  0  0999 V2000
  194.0760  173.4930  143.9470 C   0  0  2  0  0  3  0  0  0  0  0  0
  193.6080  175.2390  145.5670 C   0  0  2  0  0  3  0  0  0  0  0  0
  192.2110  175.2350  143.4030 C   0  0  1  0  0  3  0  0  0  0  0  0
  190.0850  174.3010  144.3500 O   0  0  0  0  0  0  0  0  0  0  0  0
  195.7470  173.9940  145.7740 C   0  0  0  0  0  2  0  0  0  0  0  0
  195.0590  175.3500  146.0060 C   0  0  0  0  0  2  0  0  0  0  0  0
  191.2690  175.9580  145.7680 C   0  0  1  0  0  3  0  0  0  0  0  0
  193.5710  174.9290  144.0740 C   0  0  2  0  0  3  0  0  0  0  0  0
  191.1220  177.9470  144.0190 C   0  0  0  0  0  1  0  0  0  0  0  0
  195.5570  173.4770  144.3350 C   0  0  0  0  0  2  0  0  0  0  0  0
  191.8730  174.3910  142.1590 C   0  0  2  0  0  3  0  0  0  0  0  0
  193.8530  172.9320  142.5560 C   0  0  0  0  0  2  0  0  0  0  0  0
  192.7260  176.4160  145.9330 C   0  0  0  0  0  2  0  0  0  0  0  0
  189.4460  174.2520  143.0840 C   0  0  0  0  0  2  0  0  0  0  0  0
  190.3680  174.4880  141.8610 C   0  0  2  0  0  3  0  0  0  0  0  0
  190.4840  176.7440  144.7110 C   0  0  1  0  0  0  0  0  0  0  0  0
  191.0170  175.3580  144.3670 C   0  0  1  0  0  0  0  0  0  0  0  0
  192.3590  172.9460  142.2760 C   0  0  0  0  0  2  0  0  0  0  0  0
  190.4720  172.8250  138.4580 C   0  0  0  0  0  0  0  0  0  0  0  0
  189.1610  172.3530  138.3290 C   0  0  0  0  0  3  0  0  0  0  0  0
  189.9280  173.7550  140.6300 C   0  0  0  0  0  0  0  0  0  0  0  0
  188.2340  172.5780  139.3500 C   0  0  0  0  0  3  0  0  0  0  0  0
  190.8540  173.5220  139.6070 C   0  0  0  0  0  3  0  0  0  0  0  0
  188.6160  173.2740  140.5000 C   0  0  0  0  0  3  0  0  0  0  0  0
  191.3700  172.6070  137.4680 F   0  0  0  0  0  0  0  0  0  0  0  0
  188.2800  177.4180  144.1440 C   0  0  0  0  0  3  0  0  0  0  0  0
  189.0620  176.7970  144.9490 N   0  0  0  0  0  0  0  0  0  0  0  0
  186.8130  177.4570  144.4120 C   0  0  0  0  0  2  0  0  0  0  0  0
  186.4260  178.7780  145.0660 C   0  0  0  0  0  3  0  0  0  0  0  0
  185.8430  178.5290  146.4590 C   0  0  0  0  0  2  0  0  0  0  0  0
  183.6200  178.9920  145.6670 O   0  0  0  0  0  0  0  0  0  0  0  0
  184.0320  178.9620  144.3240 C   0  0  0  0  0  2  0  0  0  0  0  0
  185.4340  179.5620  144.1950 C   0  0  0  0  0  2  0  0  0  0  0  0
  184.3970  178.0380  146.3460 C   0  0  0  0  0  2  0  0  0  0  0  0
  1 12  1  6  0  0  0
  1  8  1  0  0  0  0
  1 10  1  0  0  0  0
  2 13  1  6  0  0  0
  2  6  1  0  0  0  0
  3  8  1  0  0  0  0
  3 17  1  0  0  0  0
  4 17  1  0  0  0  0
  5  6  1  0  0  0  0
  7 13  1  0  0  0  0
  8  2  1  0  0  0  0
  9 16  1  0  0  0  0
 10  5  1  0  0  0  0
 11 18  1  0  0  0  0
 11  3  1  0  0  0  0
 14  4  1  0  0  0  0
 15 11  1  0  0  0  0
 15 14  1  0  0  0  0
 16 27  1  0  0  0  0
 16  7  1  0  0  0  0
 17 16  1  0  0  0  0
 17  7  1  0  0  0  0
 18 12  1  0  0  0  0
 19 23  1  0  0  0  0
 20 19  2  0  0  0  0
 20 22  1  0  0  0  0
 21 15  1  0  0  0  0
 22 24  2  0  0  0  0
 23 21  2  0  0  0  0
 24 21  1  0  0  0  0
 25 19  1  0  0  0  0
 26 28  1  0  0  0  0
 26 27  2  0  0  0  0
 28 29  1  0  0  0  0
 29 30  1  0  0  0  0
 31 34  1  0  0  0  0
 32 31  1  0  0  0  0
 33 32  1  0  0  0  0
 33 29  1  0  0  0  0
 34 30  1  0  0  0  0
M  END
>  <MODEL>
6

>  <REMARK>
 VINA RESULT:      -8.0      2.804      7.979
  Name = 
  4 active torsions:
  status: ('A' for Active; 'I' for Inactive)
    1  A    between atoms: C_3  and  C_13
    2  A    between atoms: C_11  and  C_13
    3  A    between atoms: C_12  and  C_28
    4  A    between atoms: N_17  and  C_29
                            x       y       z     vdW  Elec       q    Type
                         _______ _______ _______ _____ _____    ______ ____

>  <TORSDO>
F 4

$$$$
=
 OpenBabel11052418573D

 34 40  0  0  1  0  0  0  0  0999 V2000
  185.4790  178.1700  144.9290 C   0  0  2  0  0  3  0  0  0  0  0  0
  187.0980  177.7280  146.6830 C   0  0  2  0  0  3  0  0  0  0  0  0
  187.3940  176.4600  144.4600 C   0  0  1  0  0  3  0  0  0  0  0  0
  189.3090  177.7920  143.5390 O   0  0  0  0  0  0  0  0  0  0  0  0
  184.9660  178.8360  147.3120 C   0  0  0  0  0  2  0  0  0  0  0  0
  186.0760  177.8870  147.7970 C   0  0  0  0  0  2  0  0  0  0  0  0
  189.4050  177.2870  145.9680 C   0  0  1  0  0  3  0  0  0  0  0  0
  186.4140  177.0920  145.4770 C   0  0  2  0  0  3  0  0  0  0  0  0
  189.4320  174.6500  145.6830 C   0  0  0  0  0  1  0  0  0  0  0  0
  184.3700  178.4000  145.9600 C   0  0  0  0  0  2  0  0  0  0  0  0
  186.9030  176.4050  143.0020 C   0  0  2  0  0  3  0  0  0  0  0  0
  184.9180  177.7990  143.5710 C   0  0  0  0  0  2  0  0  0  0  0  0
  188.3730  177.0040  147.0690 C   0  0  0  0  0  2  0  0  0  0  0  0
  189.3150  177.0860  142.3080 C   0  0  0  0  0  2  0  0  0  0  0  0
  188.0950  176.1630  142.0620 C   0  0  2  0  0  3  0  0  0  0  0  0
  189.8850  176.0350  145.2250 C   0  0  1  0  0  0  0  0  0  0  0  0
  188.8530  176.9430  144.5670 C   0  0  1  0  0  0  0  0  0  0  0  0
  186.0820  177.6350  142.6080 C   0  0  0  0  0  2  0  0  0  0  0  0
  187.8130  174.7400  138.5620 C   0  0  0  0  0  0  0  0  0  0  0  0
  187.0380  175.7110  137.9190 C   0  0  0  0  0  3  0  0  0  0  0  0
  187.7310  176.0270  140.6150 C   0  0  0  0  0  0  0  0  0  0  0  0
  186.6050  176.8380  138.6220 C   0  0  0  0  0  3  0  0  0  0  0  0
  188.1560  174.8970  139.9080 C   0  0  0  0  0  3  0  0  0  0  0  0
  186.9470  176.9960  139.9680 C   0  0  0  0  0  3  0  0  0  0  0  0
  188.2320  173.6470  137.8800 F   0  0  0  0  0  0  0  0  0  0  0  0
  191.9950  175.1290  144.6250 C   0  0  0  0  0  3  0  0  0  0  0  0
  191.2150  176.1460  144.6770 N   0  0  0  0  0  0  0  0  0  0  0  0
  193.3660  175.2700  144.0530 C   0  0  0  0  0  2  0  0  0  0  0  0
  194.2690  174.1490  144.5520 C   0  0  0  0  0  3  0  0  0  0  0  0
  195.4620  174.7310  145.3150 C   0  0  0  0  0  2  0  0  0  0  0  0
  196.9370  174.2500  143.4770 O   0  0  0  0  0  0  0  0  0  0  0  0
  195.8640  173.9630  142.6170 C   0  0  0  0  0  2  0  0  0  0  0  0
  194.7470  173.2610  143.3940 C   0  0  0  0  0  2  0  0  0  0  0  0
  196.5020  175.2770  144.3330 C   0  0  0  0  0  2  0  0  0  0  0  0
  1 12  1  6  0  0  0
  1  8  1  0  0  0  0
  1 10  1  0  0  0  0
  2 13  1  1  0  0  0
  2  6  1  0  0  0  0
  3 17  1  0  0  0  0
  3  8  1  0  0  0  0
  4 17  1  0  0  0  0
  5  6  1  0  0  0  0
  7 13  1  0  0  0  0
  8  2  1  0  0  0  0
 10  5  1  0  0  0  0
 11  3  1  0  0  0  0
 14  4  1  0  0  0  0
 15 14  1  0  0  0  0
 15 11  1  0  0  0  0
 16  9  1  0  0  0  0
 16  7  1  0  0  0  0
 17 16  1  0  0  0  0
 17  7  1  0  0  0  0
 18 11  1  0  0  0  0
 18 12  1  0  0  0  0
 19 23  1  0  0  0  0
 20 19  2  0  0  0  0
 20 22  1  0  0  0  0
 21 15  1  0  0  0  0
 22 24  2  0  0  0  0
 23 21  2  0  0  0  0
 24 21  1  0  0  0  0
 25 19  1  0  0  0  0
 26 27  2  0  0  0  0
 27 16  1  0  0  0  0
 28 29  1  0  0  0  0
 28 26  1  0  0  0  0
 29 30  1  0  0  0  0
 31 34  1  0  0  0  0
 32 33  1  0  0  0  0
 32 31  1  0  0  0  0
 33 29  1  0  0  0  0
 34 30  1  0  0  0  0
M  END
>  <MODEL>
7

>  <REMARK>
 VINA RESULT:      -7.9      3.108      6.208
  Name = 
  4 active torsions:
  status: ('A' for Active; 'I' for Inactive)
    1  A    between atoms: C_3  and  C_13
    2  A    between atoms: C_11  and  C_13
    3  A    between atoms: C_12  and  C_28
    4  A    between atoms: N_17  and  C_29
                            x       y       z     vdW  Elec       q    Type
                         _______ _______ _______ _____ _____    ______ ____

>  <TORSDO>
F 4

$$$$
=
 OpenBabel11052418573D

 34 40  0  0  1  0  0  0  0  0999 V2000
  195.1650  172.2520  143.8640 C   0  0  2  0  0  3  0  0  0  0  0  0
  195.1720  173.8910  145.6550 C   0  0  2  0  0  3  0  0  0  0  0  0
  193.6550  174.3680  143.6280 C   0  0  1  0  0  3  0  0  0  0  0  0
  191.4570  173.7770  144.6780 O   0  0  0  0  0  0  0  0  0  0  0  0
  197.0260  172.2390  145.5730 C   0  0  0  0  0  2  0  0  0  0  0  0
  196.6430  173.6750  145.9740 C   0  0  0  0  0  2  0  0  0  0  0  0
  193.0460  175.0280  146.1170 C   0  0  1  0  0  3  0  0  0  0  0  0
  194.9700  173.7400  144.1510 C   0  0  2  0  0  3  0  0  0  0  0  0
  193.1800  177.1670  144.5550 C   0  0  0  0  0  1  0  0  0  0  0  0
  196.6370  171.9120  144.1190 C   0  0  0  0  0  2  0  0  0  0  0  0
  193.0690  173.7300  142.3550 C   0  0  2  0  0  3  0  0  0  0  0  0
  194.7380  171.8830  142.4570 C   0  0  0  0  0  2  0  0  0  0  0  0
  194.5730  175.1760  146.1910 C   0  0  0  0  0  2  0  0  0  0  0  0
  190.7340  173.9760  143.4730 C   0  0  0  0  0  2  0  0  0  0  0  0
  191.5980  174.1460  142.1980 C   0  0  2  0  0  3  0  0  0  0  0  0
  192.3630  176.0490  145.2010 C   0  0  1  0  0  0  0  0  0  0  0  0
  192.5810  174.6260  144.7000 C   0  0  1  0  0  0  0  0  0  0  0  0
  193.2610  172.2130  142.3110 C   0  0  0  0  0  2  0  0  0  0  0  0
  188.9380  172.8170  139.8490 C   0  0  0  0  0  0  0  0  0  0  0  0
  189.6440  172.7150  138.6450 C   0  0  0  0  0  3  0  0  0  0  0  0
  190.9350  173.6350  140.9550 C   0  0  0  0  0  0  0  0  0  0  0  0
  190.9930  173.0750  138.5930 C   0  0  0  0  0  3  0  0  0  0  0  0
  189.5830  173.2790  141.0000 C   0  0  0  0  0  3  0  0  0  0  0  0
  191.6380  173.5370  139.7440 C   0  0  0  0  0  3  0  0  0  0  0  0
  187.6300  172.4690  139.8980 F   0  0  0  0  0  0  0  0  0  0  0  0
  190.4070  177.3900  145.0960 C   0  0  0  0  0  3  0  0  0  0  0  0
  191.0010  176.3540  145.5650 N   0  0  0  0  0  0  0  0  0  0  0  0
  188.9980  177.6830  145.4890 C   0  0  0  0  0  2  0  0  0  0  0  0
  188.1620  176.4090  145.4610 C   0  0  0  0  0  3  0  0  0  0  0  0
  187.0360  176.5370  144.4310 C   0  0  0  0  0  2  0  0  0  0  0  0
  185.4050  176.8210  146.1750 O   0  0  0  0  0  0  0  0  0  0  0  0
  186.3980  176.9940  147.1540 C   0  0  0  0  0  2  0  0  0  0  0  0
  187.5930  176.0860  146.8500 C   0  0  0  0  0  2  0  0  0  0  0  0
  185.9020  177.3980  144.9940 C   0  0  0  0  0  2  0  0  0  0  0  0
  1 12  1  6  0  0  0
  1 10  1  0  0  0  0
  1  8  1  0  0  0  0
  2  6  1  6  0  0  0
  2 13  1  0  0  0  0
  3  8  1  0  0  0  0
  3 17  1  0  0  0  0
  4 17  1  0  0  0  0
  5  6  1  0  0  0  0
  7 13  1  0  0  0  0
  8  2  1  0  0  0  0
  9 16  1  0  0  0  0
 10  5  1  0  0  0  0
 11  3  1  0  0  0  0
 14  4  1  0  0  0  0
 15 11  1  0  0  0  0
 15 14  1  0  0  0  0
 16 27  1  0  0  0  0
 16  7  1  0  0  0  0
 17 16  1  0  0  0  0
 17  7  1  0  0  0  0
 18 11  1  0  0  0  0
 18 12  1  0  0  0  0
 19 25  1  0  0  0  0
 19 23  1  0  0  0  0
 20 19  2  0  0  0  0
 21 23  2  0  0  0  0
 21 15  1  0  0  0  0
 22 20  1  0  0  0  0
 22 24  2  0  0  0  0
 24 21  1  0  0  0  0
 26 28  1  0  0  0  0
 26 27  2  0  0  0  0
 29 28  1  0  0  0  0
 29 33  1  0  0  0  0
 30 34  1  0  0  0  0
 30 29  1  0  0  0  0
 31 32  1  0  0  0  0
 33 32  1  0  0  0  0
 34 31  1  0  0  0  0
M  END
>  <MODEL>
8

>  <REMARK>
 VINA RESULT:      -7.4      3.137      8.330
  Name = 
  4 active torsions:
  status: ('A' for Active; 'I' for Inactive)
    1  A    between atoms: C_3  and  C_13
    2  A    between atoms: C_11  and  C_13
    3  A    between atoms: C_12  and  C_28
    4  A    between atoms: N_17  and  C_29
                            x       y       z     vdW  Elec       q    Type
                         _______ _______ _______ _____ _____    ______ ____

>  <TORSDO>
F 4

$$$$
=
 OpenBabel11052418573D

 34 40  0  0  1  0  0  0  0  0999 V2000
  192.3540  173.9890  139.0830 C   0  0  2  0  0  3  0  0  0  0  0  0
  189.9650  173.6520  138.8180 C   0  0  2  0  0  3  0  0  0  0  0  0
  190.8980  173.6280  141.2190 C   0  0  1  0  0  3  0  0  0  0  0  0
  190.1230  175.9050  141.9280 O   0  0  0  0  0  0  0  0  0  0  0  0
  191.4150  173.3680  136.8220 C   0  0  0  0  0  2  0  0  0  0  0  0
  190.1220  172.8960  137.5090 C   0  0  0  0  0  2  0  0  0  0  0  0
  188.5190  174.5860  140.5690 C   0  0  1  0  0  3  0  0  0  0  0  0
  191.1440  173.3110  139.7240 C   0  0  2  0  0  3  0  0  0  0  0  0
  188.3150  172.5760  142.2880 C   0  0  0  0  0  1  0  0  0  0  0  0
  192.6390  173.2850  137.7540 C   0  0  0  0  0  2  0  0  0  0  0  0
  192.1550  173.9410  142.0520 C   0  0  2  0  0  3  0  0  0  0  0  0
  193.5640  173.9760  139.9970 C   0  0  0  0  0  2  0  0  0  0  0  0
  188.6310  173.4730  139.5170 C   0  0  0  0  0  2  0  0  0  0  0  0
  190.7640  175.8200  143.1920 C   0  0  0  0  0  2  0  0  0  0  0  0
  191.7490  174.6360  143.3610 C   0  0  2  0  0  3  0  0  0  0  0  0
  188.4200  174.0750  142.0100 C   0  0  1  0  0  0  0  0  0  0  0  0
  189.7500  174.6160  141.5010 C   0  0  1  0  0  0  0  0  0  0  0  0
  193.2040  174.7310  141.2670 C   0  0  0  0  0  2  0  0  0  0  0  0
  194.2520  176.5710  145.4470 C   0  0  0  0  0  0  0  0  0  0  0  0
  194.9830  175.5400  146.0480 C   0  0  0  0  0  3  0  0  0  0  0  0
  192.8880  174.9350  144.2880 C   0  0  0  0  0  0  0  0  0  0  0  0
  194.6660  174.2070  145.7730 C   0  0  0  0  0  3  0  0  0  0  0  0
  193.2050  176.2680  144.5720 C   0  0  0  0  0  3  0  0  0  0  0  0
  193.6190  173.9030  144.8980 C   0  0  0  0  0  3  0  0  0  0  0  0
  194.5590  177.8630  145.7150 F   0  0  0  0  0  0  0  0  0  0  0  0
  186.7010  175.6350  142.5070 C   0  0  0  0  0  3  0  0  0  0  0  0
  187.7170  174.9610  142.9060 N   0  0  0  0  0  0  0  0  0  0  0  0
  185.9920  176.5440  143.4520 C   0  0  0  0  0  2  0  0  0  0  0  0
  186.8040  177.8130  143.6820 C   0  0  0  0  0  3  0  0  0  0  0  0
  187.3570  177.8360  145.1100 C   0  0  0  0  0  2  0  0  0  0  0  0
  185.7480  179.5020  145.7600 O   0  0  0  0  0  0  0  0  0  0  0  0
  185.0140  179.3370  144.5720 C   0  0  0  0  0  2  0  0  0  0  0  0
  185.9670  179.0690  143.4040 C   0  0  0  0  0  2  0  0  0  0  0  0
  186.2550  178.2350  146.0960 C   0  0  0  0  0  2  0  0  0  0  0  0
  1 10  1  6  0  0  0
  1  8  1  0  0  0  0
  1 12  1  0  0  0  0
  2  6  1  6  0  0  0
  2 13  1  0  0  0  0
  2  8  1  0  0  0  0
  3 17  1  0  0  0  0
  3 11  1  0  0  0  0
  4 14  1  0  0  0  0
  5  6  1  0  0  0  0
  5 10  1  0  0  0  0
  7 17  1  0  0  0  0
  7 16  1  0  0  0  0
  8  3  1  0  0  0  0
 11 15  1  0  0  0  0
 12 18  1  0  0  0  0
 13  7  1  0  0  0  0
 14 15  1  0  0  0  0
 15 21  1  0  0  0  0
 16  9  1  0  0  0  0
 16 27  1  0  0  0  0
 17  4  1  0  0  0  0
 17 16  1  0  0  0  0
 18 11  1  0  0  0  0
 19 25  1  0  0  0  0
 19 20  1  0  0  0  0
 21 23  1  0  0  0  0
 21 24  2  0  0  0  0
 22 20  2  0  0  0  0
 23 19  2  0  0  0  0
 24 22  1  0  0  0  0
 26 27  2  0  0  0  0
 26 28  1  0  0  0  0
 28 29  1  0  0  0  0
 29 30  1  0  0  0  0
 30 34  1  0  0  0  0
 31 34  1  0  0  0  0
 32 31  1  0  0  0  0
 33 29  1  0  0  0  0
 33 32  1  0  0  0  0
M  END
>  <MODEL>
9

>  <REMARK>
 VINA RESULT:      -7.4      1.978      6.874
  Name = 
  4 active torsions:
  status: ('A' for Active; 'I' for Inactive)
    1  A    between atoms: C_3  and  C_13
    2  A    between atoms: C_11  and  C_13
    3  A    between atoms: C_12  and  C_28
    4  A    between atoms: N_17  and  C_29
                            x       y       z     vdW  Elec       q    Type
                         _______ _______ _______ _____ _____    ______ ____

>  <TORSDO>
F 4

$$$$
