=
 OpenBabel11052418483D

 34 38  0  0  1  0  0  0  0  0999 V2000
  185.9100  176.8150  143.9920 C   0  0  1  0  0  3  0  0  0  0  0  0
  186.3050  177.3640  146.4450 C   0  0  0  0  0  2  0  0  0  0  0  0
  188.2410  176.5090  145.0490 C   0  0  0  0  0  0  0  0  0  0  0  0
  190.3830  175.9960  145.9990 N   0  0  0  0  0  0  0  0  0  0  0  0
  184.8840  179.1370  144.4460 C   0  0  0  0  0  2  0  0  0  0  0  0
  184.3010  178.8520  145.8330 C   0  0  0  0  0  2  0  0  0  0  0  0
  189.0410  177.5640  146.9540 O   0  0  0  0  0  0  0  0  0  0  0  0
  186.9410  177.3040  145.0380 C   0  0  1  0  0  3  0  0  0  0  0  0
  184.9330  177.9100  143.5280 C   0  0  0  0  0  2  0  0  0  0  0  0
  188.5410  175.6420  143.9800 C   0  0  0  0  0  0  0  0  0  0  0  0
  186.5080  176.1450  142.7970 C   0  0  0  0  0  3  0  0  0  0  0  0
  184.7830  177.5450  146.4690 C   0  0  0  0  0  2  0  0  0  0  0  0
  190.6260  175.1370  145.0120 N   0  0  0  0  0  0  0  0  0  0  0  0
  189.7540  174.9240  143.9910 C   0  0  0  0  0  0  0  0  0  0  0  0
  189.2220  176.7130  146.0400 C   0  0  0  0  0  0  0  0  0  0  0  0
  187.6770  175.5910  142.8370 N   0  0  0  0  0  0  0  0  0  0  0  0
  191.1990  173.4290  140.8000 C   0  0  0  0  0  0  0  0  0  0  0  0
  190.7900  172.1010  140.9190 C   0  0  0  0  0  3  0  0  0  0  0  0
  190.1410  173.9570  142.9290 C   0  0  0  0  0  0  0  0  0  0  0  0
  190.0500  171.6950  142.0330 C   0  0  0  0  0  3  0  0  0  0  0  0
  190.8720  174.3530  141.7970 C   0  0  0  0  0  3  0  0  0  0  0  0
  189.7260  172.6190  143.0290 C   0  0  0  0  0  3  0  0  0  0  0  0
  191.9300  173.8350  139.6930 O   0  0  0  0  0  1  0  0  0  0  0  0
  191.4080  176.1840  147.0180 C   0  0  0  0  0  2  0  0  0  0  0  0
  192.5940  175.2850  146.7280 C   0  0  0  0  0  2  0  0  0  0  0  0
  193.8350  176.1320  146.5250 C   0  0  0  0  0  2  0  0  0  0  0  0
  194.2720  176.0950  145.0680 C   0  0  0  0  0  2  0  0  0  0  0  0
  196.1020  176.5500  143.0340 O   0  0  0  0  0  0  0  0  0  0  0  0
  195.5470  175.3970  144.9260 N   0  0  0  0  0  0  0  0  0  0  0  0
  196.4010  175.6810  143.8960 C   0  0  0  0  0  0  0  0  0  0  0  0
  197.9410  174.0780  144.7040 C   0  0  0  0  0  3  0  0  0  0  0  0
  197.0870  173.7710  145.7590 C   0  0  0  0  0  3  0  0  0  0  0  0
  195.8760  174.4550  145.8500 C   0  0  0  0  0  3  0  0  0  0  0  0
  197.5860  175.0220  143.7960 N   0  0  0  0  0  0  0  0  0  0  0  0
  1 11  1  6  0  0  0
  1  8  1  0  0  0  0
  2 12  1  0  0  0  0
  3 15  1  0  0  0  0
  4 15  1  0  0  0  0
  4 24  1  0  0  0  0
  5  6  1  0  0  0  0
  6 12  1  0  0  0  0
  8  3  1  0  0  0  0
  8  2  1  1  0  0  0
  9  1  1  0  0  0  0
  9  5  1  0  0  0  0
 10 14  1  0  0  0  0
 10  3  2  0  0  0  0
 11 16  2  0  0  0  0
 13  4  1  0  0  0  0
 14 13  2  0  0  0  0
 15  7  2  0  0  0  0
 16 10  1  0  0  0  0
 17 18  2  0  0  0  0
 17 21  1  0  0  0  0
 18 20  1  0  0  0  0
 19 22  1  0  0  0  0
 19 14  1  0  0  0  0
 20 22  2  0  0  0  0
 21 19  2  0  0  0  0
 23 17  1  0  0  0  0
 25 24  1  0  0  0  0
 26 25  1  0  0  0  0
 27 26  1  0  0  0  0
 28 30  2  0  0  0  0
 29 27  1  0  0  0  0
 29 33  1  0  0  0  0
 30 29  1  0  0  0  0
 31 32  1  0  0  0  0
 32 33  2  0  0  0  0
 34 30  1  0  0  0  0
 34 31  2  0  0  0  0
M  END
>  <MODEL>
1

>  <REMARK>
 VINA RESULT:      -8.8      0.000      0.000
  Name = 
  6 active torsions:
  status: ('A' for Active; 'I' for Inactive)
    1  A    between atoms: C_3  and  N_13
    2  A    between atoms: C_3  and  C_17
    3  A    between atoms: N_5  and  C_18
    4  A    between atoms: C_12  and  C_28
    5  A    between atoms: C_17  and  C_29
    6  A    between atoms: C_18  and  C_29
                            x       y       z     vdW  Elec       q    Type
                         _______ _______ _______ _____ _____    ______ ____

>  <TORSDO>
F 6

$$$$
=
 OpenBabel11052418483D

 34 38  0  0  1  0  0  0  0  0999 V2000
  185.9070  176.7780  144.0080 C   0  0  1  0  0  3  0  0  0  0  0  0
  186.3640  177.3550  146.4440 C   0  0  0  0  0  2  0  0  0  0  0  0
  188.2550  176.4450  145.0200 C   0  0  0  0  0  0  0  0  0  0  0  0
  190.4070  175.9070  145.9330 N   0  0  0  0  0  0  0  0  0  0  0  0
  184.9330  179.1240  144.4480 C   0  0  0  0  0  2  0  0  0  0  0  0
  184.3740  178.8690  145.8520 C   0  0  0  0  0  2  0  0  0  0  0  0
  189.1130  177.5130  146.8930 O   0  0  0  0  0  0  0  0  0  0  0  0
  186.9690  177.2630  145.0250 C   0  0  1  0  0  3  0  0  0  0  0  0
  184.9410  177.8830  143.5480 C   0  0  0  0  0  2  0  0  0  0  0  0
  188.5160  175.5570  143.9590 C   0  0  0  0  0  0  0  0  0  0  0  0
  186.4680  176.0790  142.8110 C   0  0  0  0  0  3  0  0  0  0  0  0
  184.8460  177.5640  146.4970 C   0  0  0  0  0  2  0  0  0  0  0  0
  190.6140  175.0290  144.9540 N   0  0  0  0  0  0  0  0  0  0  0  0
  189.7170  174.8170  143.9550 C   0  0  0  0  0  0  0  0  0  0  0  0
  189.2600  176.6450  145.9870 C   0  0  0  0  0  0  0  0  0  0  0  0
  187.6280  175.5050  142.8350 N   0  0  0  0  0  0  0  0  0  0  0  0
  190.9770  173.2660  140.7130 C   0  0  0  0  0  0  0  0  0  0  0  0
  190.6390  171.9270  140.9100 C   0  0  0  0  0  3  0  0  0  0  0  0
  190.0640  173.8290  142.9000 C   0  0  0  0  0  0  0  0  0  0  0  0
  190.0070  171.5320  142.0920 C   0  0  0  0  0  3  0  0  0  0  0  0
  190.6860  174.2120  141.7010 C   0  0  0  0  0  3  0  0  0  0  0  0
  189.7190  172.4790  143.0780 C   0  0  0  0  0  3  0  0  0  0  0  0
  191.6010  173.6600  139.5380 O   0  0  0  0  0  1  0  0  0  0  0  0
  191.4560  176.0910  146.9280 C   0  0  0  0  0  2  0  0  0  0  0  0
  192.6620  175.2470  146.5660 C   0  0  0  0  0  2  0  0  0  0  0  0
  193.9090  176.1100  146.5790 C   0  0  0  0  0  2  0  0  0  0  0  0
  193.9760  176.9650  145.3220 C   0  0  0  0  0  2  0  0  0  0  0  0
  192.5890  176.7920  142.9260 O   0  0  0  0  0  0  0  0  0  0  0  0
  194.3970  176.1670  144.1740 N   0  0  0  0  0  0  0  0  0  0  0  0
  193.6610  176.1350  143.0220 C   0  0  0  0  0  0  0  0  0  0  0  0
  195.2310  174.6700  142.0320 C   0  0  0  0  0  3  0  0  0  0  0  0
  195.9970  174.6850  143.1950 C   0  0  0  0  0  3  0  0  0  0  0  0
  195.5520  175.4530  144.2690 C   0  0  0  0  0  3  0  0  0  0  0  0
  194.0830  175.3910  141.9660 N   0  0  0  0  0  0  0  0  0  0  0  0
  1 11  1  6  0  0  0
  1  8  1  0  0  0  0
  2 12  1  0  0  0  0
  3  8  1  0  0  0  0
  3 15  1  0  0  0  0
  4 15  1  0  0  0  0
  4 24  1  0  0  0  0
  5  6  1  0  0  0  0
  6 12  1  0  0  0  0
  8  2  1  1  0  0  0
  9  1  1  0  0  0  0
  9  5  1  0  0  0  0
 10  3  2  0  0  0  0
 11 16  2  0  0  0  0
 13  4  1  0  0  0  0
 14 10  1  0  0  0  0
 14 13  2  0  0  0  0
 15  7  2  0  0  0  0
 16 10  1  0  0  0  0
 17 18  2  0  0  0  0
 17 21  1  0  0  0  0
 18 20  1  0  0  0  0
 19 22  1  0  0  0  0
 19 14  1  0  0  0  0
 20 22  2  0  0  0  0
 21 19  2  0  0  0  0
 23 17  1  0  0  0  0
 25 26  1  0  0  0  0
 25 24  1  0  0  0  0
 27 26  1  0  0  0  0
 28 30  2  0  0  0  0
 29 33  1  0  0  0  0
 29 27  1  0  0  0  0
 30 29  1  0  0  0  0
 31 32  1  0  0  0  0
 32 33  2  0  0  0  0
 34 31  2  0  0  0  0
 34 30  1  0  0  0  0
M  END
>  <MODEL>
2

>  <REMARK>
 VINA RESULT:      -8.6      1.168      1.411
  Name = 
  6 active torsions:
  status: ('A' for Active; 'I' for Inactive)
    1  A    between atoms: C_3  and  N_13
    2  A    between atoms: C_3  and  C_17
    3  A    between atoms: N_5  and  C_18
    4  A    between atoms: C_12  and  C_28
    5  A    between atoms: C_17  and  C_29
    6  A    between atoms: C_18  and  C_29
                            x       y       z     vdW  Elec       q    Type
                         _______ _______ _______ _____ _____    ______ ____

>  <TORSDO>
F 6

$$$$
=
 OpenBabel11052418483D

 34 38  0  0  1  0  0  0  0  0999 V2000
  186.7210  178.2050  146.2320 C   0  0  1  0  0  3  0  0  0  0  0  0
  185.6270  178.2430  143.9350 C   0  0  0  0  0  2  0  0  0  0  0  0
  187.6080  176.7100  144.3280 C   0  0  0  0  0  0  0  0  0  0  0  0
  188.6250  175.4460  142.5610 N   0  0  0  0  0  0  0  0  0  0  0  0
  184.1740  178.0060  146.5800 C   0  0  0  0  0  2  0  0  0  0  0  0
  183.7270  178.9920  145.4960 C   0  0  0  0  0  2  0  0  0  0  0  0
  186.4260  176.0170  142.4550 O   0  0  0  0  0  0  0  0  0  0  0  0
  186.3950  177.3810  144.9620 C   0  0  1  0  0  3  0  0  0  0  0  0
  185.5350  178.3410  147.2020 C   0  0  0  0  0  2  0  0  0  0  0  0
  188.8140  176.6180  145.0490 C   0  0  0  0  0  0  0  0  0  0  0  0
  187.9250  177.7360  146.9840 C   0  0  0  0  0  3  0  0  0  0  0  0
  184.8340  179.4150  144.5260 C   0  0  0  0  0  2  0  0  0  0  0  0
  189.7760  175.4190  143.2310 N   0  0  0  0  0  0  0  0  0  0  0  0
  189.9250  175.9790  144.4600 C   0  0  0  0  0  0  0  0  0  0  0  0
  187.5210  176.0560  143.0830 C   0  0  0  0  0  0  0  0  0  0  0  0
  188.8690  177.0580  146.4120 N   0  0  0  0  0  0  0  0  0  0  0  0
  193.5790  176.5340  145.3770 C   0  0  0  0  0  0  0  0  0  0  0  0
  193.7530  175.5710  146.3720 C   0  0  0  0  0  3  0  0  0  0  0  0
  191.2500  175.8680  145.1250 C   0  0  0  0  0  0  0  0  0  0  0  0
  192.6860  174.7490  146.7430 C   0  0  0  0  0  3  0  0  0  0  0  0
  192.3360  176.6770  144.7540 C   0  0  0  0  0  3  0  0  0  0  0  0
  191.4440  174.8950  146.1200 C   0  0  0  0  0  3  0  0  0  0  0  0
  194.6390  177.3480  145.0050 O   0  0  0  0  0  1  0  0  0  0  0  0
  188.5620  174.7720  141.2710 C   0  0  0  0  0  2  0  0  0  0  0  0
  188.3430  173.2860  141.4750 C   0  0  0  0  0  2  0  0  0  0  0  0
  189.5020  172.5140  140.8750 C   0  0  0  0  0  2  0  0  0  0  0  0
  190.3490  171.8880  141.9730 C   0  0  0  0  0  2  0  0  0  0  0  0
  191.8580  171.8520  144.3000 O   0  0  0  0  0  0  0  0  0  0  0  0
  191.5770  172.6520  142.1800 N   0  0  0  0  0  0  0  0  0  0  0  0
  192.2700  172.5780  143.3560 C   0  0  0  0  0  0  0  0  0  0  0  0
  193.8900  174.0870  142.5230 C   0  0  0  0  0  3  0  0  0  0  0  0
  193.2010  174.1790  141.3170 C   0  0  0  0  0  3  0  0  0  0  0  0
  192.0280  173.4410  141.1670 C   0  0  0  0  0  3  0  0  0  0  0  0
  193.4160  173.2920  143.5160 N   0  0  0  0  0  0  0  0  0  0  0  0
  1 11  1  1  0  0  0
  1  9  1  0  0  0  0
  2 12  1  0  0  0  0
  3  8  1  0  0  0  0
  3 10  2  0  0  0  0
  4 15  1  0  0  0  0
  4 13  1  0  0  0  0
  5  9  1  0  0  0  0
  6  5  1  0  0  0  0
  7 15  2  0  0  0  0
  8  2  1  6  0  0  0
  8  1  1  0  0  0  0
 10 16  1  0  0  0  0
 12  6  1  0  0  0  0
 13 14  2  0  0  0  0
 14 10  1  0  0  0  0
 14 19  1  0  0  0  0
 15  3  1  0  0  0  0
 16 11  2  0  0  0  0
 17 18  1  0  0  0  0
 18 20  2  0  0  0  0
 19 22  2  0  0  0  0
 21 19  1  0  0  0  0
 21 17  2  0  0  0  0
 22 20  1  0  0  0  0
 23 17  1  0  0  0  0
 24 25  1  0  0  0  0
 24  4  1  0  0  0  0
 26 25  1  0  0  0  0
 26 27  1  0  0  0  0
 27 29  1  0  0  0  0
 29 30  1  0  0  0  0
 30 34  1  0  0  0  0
 30 28  2  0  0  0  0
 31 34  2  0  0  0  0
 32 31  1  0  0  0  0
 33 32  2  0  0  0  0
 33 29  1  0  0  0  0
M  END
>  <MODEL>
3

>  <REMARK>
 VINA RESULT:      -8.3      2.305      4.781
  Name = 
  6 active torsions:
  status: ('A' for Active; 'I' for Inactive)
    1  A    between atoms: C_3  and  N_13
    2  A    between atoms: C_3  and  C_17
    3  A    between atoms: N_5  and  C_18
    4  A    between atoms: C_12  and  C_28
    5  A    between atoms: C_17  and  C_29
    6  A    between atoms: C_18  and  C_29
                            x       y       z     vdW  Elec       q    Type
                         _______ _______ _______ _____ _____    ______ ____

>  <TORSDO>
F 6

$$$$
=
 OpenBabel11052418483D

 34 38  0  0  1  0  0  0  0  0999 V2000
  187.0480  178.0620  146.3150 C   0  0  1  0  0  3  0  0  0  0  0  0
  185.8990  178.2210  144.0490 C   0  0  0  0  0  2  0  0  0  0  0  0
  187.8620  176.6400  144.3250 C   0  0  0  0  0  0  0  0  0  0  0  0
  188.8150  175.4410  142.4790 N   0  0  0  0  0  0  0  0  0  0  0  0
  184.5060  177.8900  146.7160 C   0  0  0  0  0  2  0  0  0  0  0  0
  184.0510  178.9310  145.6880 C   0  0  0  0  0  2  0  0  0  0  0  0
  186.6250  176.0520  142.4520 O   0  0  0  0  0  0  0  0  0  0  0  0
  186.6770  177.3020  145.0170 C   0  0  1  0  0  3  0  0  0  0  0  0
  185.8870  178.1740  147.3180 C   0  0  0  0  0  2  0  0  0  0  0  0
  189.0840  176.4970  145.0100 C   0  0  0  0  0  0  0  0  0  0  0  0
  188.2610  177.5400  147.0150 C   0  0  0  0  0  3  0  0  0  0  0  0
  185.1410  179.3780  144.7110 C   0  0  0  0  0  2  0  0  0  0  0  0
  189.9810  175.3650  143.1180 N   0  0  0  0  0  0  0  0  0  0  0  0
  190.1690  175.8670  144.3670 C   0  0  0  0  0  0  0  0  0  0  0  0
  187.7340  176.0450  143.0540 C   0  0  0  0  0  0  0  0  0  0  0  0
  189.1780  176.8740  146.3900 N   0  0  0  0  0  0  0  0  0  0  0  0
  193.7200  176.5490  145.5610 C   0  0  0  0  0  0  0  0  0  0  0  0
  194.0480  175.3210  146.1370 C   0  0  0  0  0  3  0  0  0  0  0  0
  191.5070  175.7040  144.9930 C   0  0  0  0  0  0  0  0  0  0  0  0
  193.1170  174.2790  146.1380 C   0  0  0  0  0  3  0  0  0  0  0  0
  192.4590  176.7370  144.9890 C   0  0  0  0  0  3  0  0  0  0  0  0
  191.8560  174.4700  145.5660 C   0  0  0  0  0  3  0  0  0  0  0  0
  194.6450  177.5830  145.5560 O   0  0  0  0  0  1  0  0  0  0  0  0
  188.7090  174.8270  141.1610 C   0  0  0  0  0  2  0  0  0  0  0  0
  189.8270  173.8210  140.9700 C   0  0  0  0  0  2  0  0  0  0  0  0
  189.2450  172.4920  140.5300 C   0  0  0  0  0  2  0  0  0  0  0  0
  188.1970  172.7040  139.4470 C   0  0  0  0  0  2  0  0  0  0  0  0
  187.7560  174.9140  137.8300 O   0  0  0  0  0  0  0  0  0  0  0  0
  188.8310  172.9240  138.1490 N   0  0  0  0  0  0  0  0  0  0  0  0
  188.5660  174.0440  137.4100 C   0  0  0  0  0  0  0  0  0  0  0  0
  190.0550  173.3120  135.7260 C   0  0  0  0  0  3  0  0  0  0  0  0
  190.3400  172.1630  136.4580 C   0  0  0  0  0  3  0  0  0  0  0  0
  189.7050  171.9890  137.6870 C   0  0  0  0  0  3  0  0  0  0  0  0
  189.1790  174.2280  136.2110 N   0  0  0  0  0  0  0  0  0  0  0  0
  1 11  1  1  0  0  0
  1  9  1  0  0  0  0
  2 12  1  0  0  0  0
  3 10  2  0  0  0  0
  3  8  1  0  0  0  0
  4 15  1  0  0  0  0
  4 13  1  0  0  0  0
  5  9  1  0  0  0  0
  6  5  1  0  0  0  0
  7 15  2  0  0  0  0
  8  2  1  6  0  0  0
  8  1  1  0  0  0  0
 10 16  1  0  0  0  0
 12  6  1  0  0  0  0
 13 14  2  0  0  0  0
 14 19  1  0  0  0  0
 14 10  1  0  0  0  0
 15  3  1  0  0  0  0
 16 11  2  0  0  0  0
 17 18  1  0  0  0  0
 18 20  2  0  0  0  0
 19 22  2  0  0  0  0
 21 19  1  0  0  0  0
 21 17  2  0  0  0  0
 22 20  1  0  0  0  0
 23 17  1  0  0  0  0
 24  4  1  0  0  0  0
 25 24  1  0  0  0  0
 26 25  1  0  0  0  0
 27 26  1  0  0  0  0
 29 27  1  0  0  0  0
 30 28  2  0  0  0  0
 30 29  1  0  0  0  0
 31 34  2  0  0  0  0
 31 32  1  0  0  0  0
 32 33  2  0  0  0  0
 33 29  1  0  0  0  0
 34 30  1  0  0  0  0
M  END
>  <MODEL>
4

>  <REMARK>
 VINA RESULT:      -8.3      2.810      6.465
  Name = 
  6 active torsions:
  status: ('A' for Active; 'I' for Inactive)
    1  A    between atoms: C_3  and  N_13
    2  A    between atoms: C_3  and  C_17
    3  A    between atoms: N_5  and  C_18
    4  A    between atoms: C_12  and  C_28
    5  A    between atoms: C_17  and  C_29
    6  A    between atoms: C_18  and  C_29
                            x       y       z     vdW  Elec       q    Type
                         _______ _______ _______ _____ _____    ______ ____

>  <TORSDO>
F 6

$$$$
=
 OpenBabel11052418483D

 34 38  0  0  1  0  0  0  0  0999 V2000
  189.0530  174.5700  140.9350 C   0  0  1  0  0  3  0  0  0  0  0  0
  191.1060  173.7150  142.1730 C   0  0  0  0  0  2  0  0  0  0  0  0
  189.1740  174.6720  143.5080 C   0  0  0  0  0  0  0  0  0  0  0  0
  189.2900  174.9970  145.8820 N   0  0  0  0  0  0  0  0  0  0  0  0
  189.6260  172.2430  139.9810 C   0  0  0  0  0  2  0  0  0  0  0  0
  191.1510  172.3770  139.9790 C   0  0  0  0  0  2  0  0  0  0  0  0
  190.5190  173.3680  144.8780 O   0  0  0  0  0  0  0  0  0  0  0  0
  189.5760  173.9250  142.2420 C   0  0  1  0  0  3  0  0  0  0  0  0
  188.8850  173.5710  139.7770 C   0  0  0  0  0  2  0  0  0  0  0  0
  188.1640  175.6520  143.4530 C   0  0  0  0  0  0  0  0  0  0  0  0
  187.7940  175.3610  141.0940 C   0  0  0  0  0  3  0  0  0  0  0  0
  191.6850  173.5810  140.7590 C   0  0  0  0  0  2  0  0  0  0  0  0
  188.3750  175.9610  145.8040 N   0  0  0  0  0  0  0  0  0  0  0  0
  187.7870  176.3240  144.6340 C   0  0  0  0  0  0  0  0  0  0  0  0
  189.6940  174.3180  144.7690 C   0  0  0  0  0  0  0  0  0  0  0  0
  187.4440  175.8680  142.2330 N   0  0  0  0  0  0  0  0  0  0  0  0
  184.7420  178.4000  145.5930 C   0  0  0  0  0  0  0  0  0  0  0  0
  184.8090  179.4250  144.6490 C   0  0  0  0  0  3  0  0  0  0  0  0
  186.7610  177.3990  144.6680 C   0  0  0  0  0  0  0  0  0  0  0  0
  185.8430  179.4400  143.7080 C   0  0  0  0  0  3  0  0  0  0  0  0
  185.7090  177.3910  145.5990 C   0  0  0  0  0  3  0  0  0  0  0  0
  186.8090  178.4310  143.7170 C   0  0  0  0  0  3  0  0  0  0  0  0
  183.7140  178.3800  146.5260 O   0  0  0  0  0  1  0  0  0  0  0  0
  189.8210  174.6550  147.1950 C   0  0  0  0  0  2  0  0  0  0  0  0
  190.8020  175.7190  147.6470 C   0  0  0  0  0  2  0  0  0  0  0  0
  192.2000  175.3470  147.1920 C   0  0  0  0  0  2  0  0  0  0  0  0
  192.9230  176.5690  146.6440 C   0  0  0  0  0  2  0  0  0  0  0  0
  191.3160  177.4100  144.5450 O   0  0  0  0  0  0  0  0  0  0  0  0
  193.2420  176.3910  145.2290 N   0  0  0  0  0  0  0  0  0  0  0  0
  192.3990  176.8380  144.2490 C   0  0  0  0  0  0  0  0  0  0  0  0
  193.8840  176.0550  142.5840 C   0  0  0  0  0  3  0  0  0  0  0  0
  194.7570  175.5890  143.5640 C   0  0  0  0  0  3  0  0  0  0  0  0
  194.4080  175.7720  144.9010 C   0  0  0  0  0  3  0  0  0  0  0  0
  192.7270  176.6680  142.9410 N   0  0  0  0  0  0  0  0  0  0  0  0
  1  9  1  6  0  0  0
  1 11  1  0  0  0  0
  1  8  1  0  0  0  0
  3 15  1  0  0  0  0
  4 24  1  0  0  0  0
  6  5  1  0  0  0  0
  6 12  1  0  0  0  0
  8  2  1  6  0  0  0
  8  3  1  0  0  0  0
  9  5  1  0  0  0  0
 10  3  2  0  0  0  0
 10 14  1  0  0  0  0
 11 16  2  0  0  0  0
 12  2  1  0  0  0  0
 13  4  1  0  0  0  0
 14 19  1  0  0  0  0
 14 13  2  0  0  0  0
 15  7  2  0  0  0  0
 15  4  1  0  0  0  0
 16 10  1  0  0  0  0
 17 21  1  0  0  0  0
 17 23  1  0  0  0  0
 18 17  2  0  0  0  0
 19 21  2  0  0  0  0
 20 22  2  0  0  0  0
 20 18  1  0  0  0  0
 22 19  1  0  0  0  0
 24 25  1  0  0  0  0
 26 25  1  0  0  0  0
 27 26  1  0  0  0  0
 29 27  1  0  0  0  0
 30 28  2  0  0  0  0
 30 29  1  0  0  0  0
 31 34  2  0  0  0  0
 31 32  1  0  0  0  0
 32 33  2  0  0  0  0
 33 29  1  0  0  0  0
 34 30  1  0  0  0  0
M  END
>  <MODEL>
5

>  <REMARK>
 VINA RESULT:      -8.1      2.191      5.908
  Name = 
  6 active torsions:
  status: ('A' for Active; 'I' for Inactive)
    1  A    between atoms: C_3  and  N_13
    2  A    between atoms: C_3  and  C_17
    3  A    between atoms: N_5  and  C_18
    4  A    between atoms: C_12  and  C_28
    5  A    between atoms: C_17  and  C_29
    6  A    between atoms: C_18  and  C_29
                            x       y       z     vdW  Elec       q    Type
                         _______ _______ _______ _____ _____    ______ ____

>  <TORSDO>
F 6

$$$$
=
 OpenBabel11052418483D

 34 38  0  0  1  0  0  0  0  0999 V2000
  189.1020  174.1950  141.1260 C   0  0  1  0  0  3  0  0  0  0  0  0
  191.5860  174.0270  141.6530 C   0  0  0  0  0  2  0  0  0  0  0  0
  189.9860  174.7460  143.4840 C   0  0  0  0  0  0  0  0  0  0  0  0
  190.7450  175.4770  145.6390 N   0  0  0  0  0  0  0  0  0  0  0  0
  189.9370  171.9250  140.2310 C   0  0  0  0  0  2  0  0  0  0  0  0
  191.2960  172.3870  139.6960 C   0  0  0  0  0  2  0  0  0  0  0  0
  191.9820  174.0130  144.4150 O   0  0  0  0  0  0  0  0  0  0  0  0
  190.1550  173.9060  142.2240 C   0  0  1  0  0  3  0  0  0  0  0  0
  188.8500  173.0060  140.1830 C   0  0  0  0  0  2  0  0  0  0  0  0
  188.7900  175.4590  143.6960 C   0  0  0  0  0  0  0  0  0  0  0  0
  187.7950  174.7070  141.6390 C   0  0  0  0  0  3  0  0  0  0  0  0
  191.7120  173.7910  140.1430 C   0  0  0  0  0  2  0  0  0  0  0  0
  189.6330  176.1920  145.7980 N   0  0  0  0  0  0  0  0  0  0  0  0
  188.6370  176.2190  144.8740 C   0  0  0  0  0  0  0  0  0  0  0  0
  190.9460  174.7290  144.5160 C   0  0  0  0  0  0  0  0  0  0  0  0
  187.6960  175.3080  142.7820 N   0  0  0  0  0  0  0  0  0  0  0  0
  185.9400  178.9010  144.6880 C   0  0  0  0  0  0  0  0  0  0  0  0
  185.1690  178.5820  145.8070 C   0  0  0  0  0  3  0  0  0  0  0  0
  187.4290  177.0340  145.1680 C   0  0  0  0  0  0  0  0  0  0  0  0
  185.5250  177.4980  146.6140 C   0  0  0  0  0  3  0  0  0  0  0  0
  187.0660  178.1340  144.3740 C   0  0  0  0  0  3  0  0  0  0  0  0
  186.6510  176.7320  146.2970 C   0  0  0  0  0  3  0  0  0  0  0  0
  185.5910  179.9790  143.8880 O   0  0  0  0  0  1  0  0  0  0  0  0
  191.7280  175.4820  146.7150 C   0  0  0  0  0  2  0  0  0  0  0  0
  192.4950  176.7900  146.7060 C   0  0  0  0  0  2  0  0  0  0  0  0
  193.9780  176.5090  146.5630 C   0  0  0  0  0  2  0  0  0  0  0  0
  194.3640  176.4330  145.0930 C   0  0  0  0  0  2  0  0  0  0  0  0
  196.2730  176.7890  143.1120 O   0  0  0  0  0  0  0  0  0  0  0  0
  195.5390  175.5850  144.9080 N   0  0  0  0  0  0  0  0  0  0  0  0
  196.4410  175.8280  143.9090 C   0  0  0  0  0  0  0  0  0  0  0  0
  197.7440  173.9820  144.6070 C   0  0  0  0  0  3  0  0  0  0  0  0
  196.8390  173.7140  145.6300 C   0  0  0  0  0  3  0  0  0  0  0  0
  195.7270  174.5430  145.7630 C   0  0  0  0  0  3  0  0  0  0  0  0
  197.5310  175.0280  143.7690 N   0  0  0  0  0  0  0  0  0  0  0  0
  1  9  1  1  0  0  0
  1 11  1  0  0  0  0
  1  8  1  0  0  0  0
  3 10  2  0  0  0  0
  3 15  1  0  0  0  0
  4 13  1  0  0  0  0
  4 24  1  0  0  0  0
  6 12  1  0  0  0  0
  6  5  1  0  0  0  0
  7 15  2  0  0  0  0
  8  2  1  6  0  0  0
  8  3  1  0  0  0  0
  9  5  1  0  0  0  0
 10 14  1  0  0  0  0
 11 16  2  0  0  0  0
 12  2  1  0  0  0  0
 14 19  1  0  0  0  0
 14 13  2  0  0  0  0
 15  4  1  0  0  0  0
 16 10  1  0  0  0  0
 17 18  1  0  0  0  0
 18 20  2  0  0  0  0
 19 22  2  0  0  0  0
 21 17  2  0  0  0  0
 21 19  1  0  0  0  0
 22 20  1  0  0  0  0
 23 17  1  0  0  0  0
 25 24  1  0  0  0  0
 26 25  1  0  0  0  0
 27 26  1  0  0  0  0
 28 30  2  0  0  0  0
 29 27  1  0  0  0  0
 29 33  1  0  0  0  0
 30 29  1  0  0  0  0
 31 32  1  0  0  0  0
 32 33  2  0  0  0  0
 34 30  1  0  0  0  0
 34 31  2  0  0  0  0
M  END
>  <MODEL>
6

>  <REMARK>
 VINA RESULT:      -8.0      1.531      5.396
  Name = 
  6 active torsions:
  status: ('A' for Active; 'I' for Inactive)
    1  A    between atoms: C_3  and  N_13
    2  A    between atoms: C_3  and  C_17
    3  A    between atoms: N_5  and  C_18
    4  A    between atoms: C_12  and  C_28
    5  A    between atoms: C_17  and  C_29
    6  A    between atoms: C_18  and  C_29
                            x       y       z     vdW  Elec       q    Type
                         _______ _______ _______ _____ _____    ______ ____

>  <TORSDO>
F 6

$$$$
=
 OpenBabel11052418483D

 34 38  0  0  1  0  0  0  0  0999 V2000
  187.0510  177.9320  146.2890 C   0  0  1  0  0  3  0  0  0  0  0  0
  185.8680  178.2300  144.0560 C   0  0  0  0  0  2  0  0  0  0  0  0
  187.8020  176.5990  144.2150 C   0  0  0  0  0  0  0  0  0  0  0  0
  188.6990  175.4780  142.2930 N   0  0  0  0  0  0  0  0  0  0  0  0
  184.5130  177.7890  146.7270 C   0  0  0  0  0  2  0  0  0  0  0  0
  184.0620  178.8900  145.7620 C   0  0  0  0  0  2  0  0  0  0  0  0
  186.5210  176.1320  142.3370 O   0  0  0  0  0  0  0  0  0  0  0  0
  186.6430  177.2470  144.9620 C   0  0  1  0  0  3  0  0  0  0  0  0
  185.9100  178.0150  147.3180 C   0  0  0  0  0  2  0  0  0  0  0  0
  189.0320  176.3970  144.8700 C   0  0  0  0  0  0  0  0  0  0  0  0
  188.2650  177.3520  146.9400 C   0  0  0  0  0  3  0  0  0  0  0  0
  185.1440  179.3660  144.7900 C   0  0  0  0  0  2  0  0  0  0  0  0
  189.8740  175.3460  142.9060 N   0  0  0  0  0  0  0  0  0  0  0  0
  190.0930  175.7800  144.1760 C   0  0  0  0  0  0  0  0  0  0  0  0
  187.6410  176.0720  142.9180 C   0  0  0  0  0  0  0  0  0  0  0  0
  189.1580  176.7010  146.2650 N   0  0  0  0  0  0  0  0  0  0  0  0
  193.6470  176.3550  145.4170 C   0  0  0  0  0  0  0  0  0  0  0  0
  193.9930  175.0710  145.8410 C   0  0  0  0  0  3  0  0  0  0  0  0
  191.4390  175.5590  144.7690 C   0  0  0  0  0  0  0  0  0  0  0  0
  193.0720  174.0270  145.7250 C   0  0  0  0  0  3  0  0  0  0  0  0
  192.3790  176.5960  144.8800 C   0  0  0  0  0  3  0  0  0  0  0  0
  191.8040  174.2700  145.1890 C   0  0  0  0  0  3  0  0  0  0  0  0
  194.5620  177.3930  145.5270 O   0  0  0  0  0  1  0  0  0  0  0  0
  188.5580  174.9350  140.9480 C   0  0  0  0  0  2  0  0  0  0  0  0
  188.4020  173.4280  141.0150 C   0  0  0  0  0  2  0  0  0  0  0  0
  188.9300  172.8050  139.7370 C   0  0  0  0  0  2  0  0  0  0  0  0
  190.4150  172.4980  139.8720 C   0  0  0  0  0  2  0  0  0  0  0  0
  191.1210  171.7810  142.4560 O   0  0  0  0  0  0  0  0  0  0  0  0
  190.6210  171.1250  140.3260 N   0  0  0  0  0  0  0  0  0  0  0  0
  190.9640  170.8500  141.6210 C   0  0  0  0  0  0  0  0  0  0  0  0
  190.9800  168.5330  141.1470 C   0  0  0  0  0  3  0  0  0  0  0  0
  190.6330  168.7880  139.8240 C   0  0  0  0  0  3  0  0  0  0  0  0
  190.4560  170.1140  139.4310 C   0  0  0  0  0  3  0  0  0  0  0  0
  191.1390  169.5620  142.0180 N   0  0  0  0  0  0  0  0  0  0  0  0
  1 11  1  1  0  0  0
  1  9  1  0  0  0  0
  2 12  1  0  0  0  0
  3 10  2  0  0  0  0
  3  8  1  0  0  0  0
  4 13  1  0  0  0  0
  4 15  1  0  0  0  0
  5  9  1  0  0  0  0
  6  5  1  0  0  0  0
  7 15  2  0  0  0  0
  8  2  1  6  0  0  0
  8  1  1  0  0  0  0
 10 16  1  0  0  0  0
 12  6  1  0  0  0  0
 13 14  2  0  0  0  0
 14 19  1  0  0  0  0
 14 10  1  0  0  0  0
 15  3  1  0  0  0  0
 16 11  2  0  0  0  0
 17 23  1  0  0  0  0
 17 18  1  0  0  0  0
 19 21  1  0  0  0  0
 19 22  2  0  0  0  0
 20 18  2  0  0  0  0
 21 17  2  0  0  0  0
 22 20  1  0  0  0  0
 24 25  1  0  0  0  0
 24  4  1  0  0  0  0
 26 27  1  0  0  0  0
 26 25  1  0  0  0  0
 27 29  1  0  0  0  0
 29 30  1  0  0  0  0
 30 34  1  0  0  0  0
 30 28  2  0  0  0  0
 31 34  2  0  0  0  0
 32 31  1  0  0  0  0
 33 32  2  0  0  0  0
 33 29  1  0  0  0  0
M  END
>  <MODEL>
7

>  <REMARK>
 VINA RESULT:      -8.0      2.675      5.710
  Name = 
  6 active torsions:
  status: ('A' for Active; 'I' for Inactive)
    1  A    between atoms: C_3  and  N_13
    2  A    between atoms: C_3  and  C_17
    3  A    between atoms: N_5  and  C_18
    4  A    between atoms: C_12  and  C_28
    5  A    between atoms: C_17  and  C_29
    6  A    between atoms: C_18  and  C_29
                            x       y       z     vdW  Elec       q    Type
                         _______ _______ _______ _____ _____    ______ ____

>  <TORSDO>
F 6

$$$$
=
 OpenBabel11052418483D

 34 38  0  0  1  0  0  0  0  0999 V2000
  185.9080  176.8780  143.9570 C   0  0  1  0  0  3  0  0  0  0  0  0
  186.2020  177.3310  146.4440 C   0  0  0  0  0  2  0  0  0  0  0  0
  188.1200  176.2980  145.1470 C   0  0  0  0  0  0  0  0  0  0  0  0
  190.1290  175.5370  146.2140 N   0  0  0  0  0  0  0  0  0  0  0  0
  185.1100  179.2880  144.4100 C   0  0  0  0  0  2  0  0  0  0  0  0
  184.4120  179.0400  145.7500 C   0  0  0  0  0  2  0  0  0  0  0  0
  188.9050  177.2220  147.1260 O   0  0  0  0  0  0  0  0  0  0  0  0
  186.9170  177.2310  145.0780 C   0  0  1  0  0  3  0  0  0  0  0  0
  185.0870  178.0810  143.4640 C   0  0  0  0  0  2  0  0  0  0  0  0
  188.3930  175.4260  144.0760 C   0  0  0  0  0  0  0  0  0  0  0  0
  186.5060  176.1710  142.7840 C   0  0  0  0  0  3  0  0  0  0  0  0
  184.7090  177.6760  146.3790 C   0  0  0  0  0  2  0  0  0  0  0  0
  190.3420  174.6760  145.2200 N   0  0  0  0  0  0  0  0  0  0  0  0
  189.5190  174.5800  144.1420 C   0  0  0  0  0  0  0  0  0  0  0  0
  189.0520  176.3740  146.2020 C   0  0  0  0  0  0  0  0  0  0  0  0
  187.6040  175.4920  142.8810 N   0  0  0  0  0  0  0  0  0  0  0  0
  190.7410  173.0570  140.8730 C   0  0  0  0  0  0  0  0  0  0  0  0
  190.4460  171.7080  141.0800 C   0  0  0  0  0  3  0  0  0  0  0  0
  189.8670  173.5990  143.0810 C   0  0  0  0  0  0  0  0  0  0  0  0
  189.8560  171.2990  142.2790 C   0  0  0  0  0  3  0  0  0  0  0  0
  190.4490  173.9960  141.8660 C   0  0  0  0  0  3  0  0  0  0  0  0
  189.5660  172.2400  143.2700 C   0  0  0  0  0  3  0  0  0  0  0  0
  191.3240  173.4650  139.6820 O   0  0  0  0  0  1  0  0  0  0  0  0
  191.1010  175.5910  147.2990 C   0  0  0  0  0  2  0  0  0  0  0  0
  192.3910  174.9220  146.8690 C   0  0  0  0  0  2  0  0  0  0  0  0
  193.5280  175.9230  146.9290 C   0  0  0  0  0  2  0  0  0  0  0  0
  194.1900  176.0580  145.5660 C   0  0  0  0  0  2  0  0  0  0  0  0
  193.9590  175.1150  142.9670 O   0  0  0  0  0  0  0  0  0  0  0  0
  193.2430  176.5680  144.5770 N   0  0  0  0  0  0  0  0  0  0  0  0
  193.1850  176.0470  143.3140 C   0  0  0  0  0  0  0  0  0  0  0  0
  191.4370  177.5380  142.7550 C   0  0  0  0  0  3  0  0  0  0  0  0
  191.4780  178.0860  144.0350 C   0  0  0  0  0  3  0  0  0  0  0  0
  192.4050  177.5760  144.9420 C   0  0  0  0  0  3  0  0  0  0  0  0
  192.2860  176.5340  142.4190 N   0  0  0  0  0  0  0  0  0  0  0  0
  1 11  1  6  0  0  0
  1  8  1  0  0  0  0
  3 15  1  0  0  0  0
  4 24  1  0  0  0  0
  5  6  1  0  0  0  0
  6 12  1  0  0  0  0
  8  3  1  0  0  0  0
  8  2  1  1  0  0  0
  9  1  1  0  0  0  0
  9  5  1  0  0  0  0
 10 14  1  0  0  0  0
 10  3  2  0  0  0  0
 11 16  2  0  0  0  0
 12  2  1  0  0  0  0
 13  4  1  0  0  0  0
 14 13  2  0  0  0  0
 15  4  1  0  0  0  0
 15  7  2  0  0  0  0
 16 10  1  0  0  0  0
 17 18  2  0  0  0  0
 17 21  1  0  0  0  0
 18 20  1  0  0  0  0
 19 22  1  0  0  0  0
 19 14  1  0  0  0  0
 20 22  2  0  0  0  0
 21 19  2  0  0  0  0
 23 17  1  0  0  0  0
 25 26  1  0  0  0  0
 25 24  1  0  0  0  0
 27 26  1  0  0  0  0
 28 30  2  0  0  0  0
 29 33  1  0  0  0  0
 29 27  1  0  0  0  0
 30 29  1  0  0  0  0
 31 32  1  0  0  0  0
 32 33  2  0  0  0  0
 34 31  2  0  0  0  0
 34 30  1  0  0  0  0
M  END
>  <MODEL>
8

>  <REMARK>
 VINA RESULT:      -7.9      1.591      2.397
  Name = 
  6 active torsions:
  status: ('A' for Active; 'I' for Inactive)
    1  A    between atoms: C_3  and  N_13
    2  A    between atoms: C_3  and  C_17
    3  A    between atoms: N_5  and  C_18
    4  A    between atoms: C_12  and  C_28
    5  A    between atoms: C_17  and  C_29
    6  A    between atoms: C_18  and  C_29
                            x       y       z     vdW  Elec       q    Type
                         _______ _______ _______ _____ _____    ______ ____

>  <TORSDO>
F 6

$$$$
=
 OpenBabel11052418483D

 34 38  0  0  1  0  0  0  0  0999 V2000
  191.0770  172.4890  140.4950 C   0  0  1  0  0  3  0  0  0  0  0  0
  188.8970  172.7660  139.2110 C   0  0  0  0  0  2  0  0  0  0  0  0
  189.4110  174.3550  141.1190 C   0  0  0  0  0  0  0  0  0  0  0  0
  187.8280  175.9800  141.9000 N   0  0  0  0  0  0  0  0  0  0  0  0
  191.6420  172.4290  137.9800 C   0  0  0  0  0  2  0  0  0  0  0  0
  190.4350  171.6150  137.5040 C   0  0  0  0  0  2  0  0  0  0  0  0
  187.7840  175.2690  139.7400 O   0  0  0  0  0  0  0  0  0  0  0  0
  190.0020  173.4930  140.0100 C   0  0  1  0  0  3  0  0  0  0  0  0
  192.0910  172.0970  139.4080 C   0  0  0  0  0  2  0  0  0  0  0  0
  190.0440  174.4120  142.3760 C   0  0  0  0  0  0  0  0  0  0  0  0
  191.8090  172.9120  141.7280 C   0  0  0  0  0  3  0  0  0  0  0  0
  189.3260  171.4520  138.5460 C   0  0  0  0  0  2  0  0  0  0  0  0
  188.4040  175.9780  143.1000 N   0  0  0  0  0  0  0  0  0  0  0  0
  189.4990  175.2270  143.3890 C   0  0  0  0  0  0  0  0  0  0  0  0
  188.3120  175.2060  140.8850 C   0  0  0  0  0  0  0  0  0  0  0  0
  191.2990  173.7480  142.5750 N   0  0  0  0  0  0  0  0  0  0  0  0
  191.8440  175.9860  146.2920 C   0  0  0  0  0  0  0  0  0  0  0  0
  191.1440  175.4180  147.3570 C   0  0  0  0  0  3  0  0  0  0  0  0
  190.0730  175.3220  144.7570 C   0  0  0  0  0  0  0  0  0  0  0  0
  189.9140  174.7950  147.1290 C   0  0  0  0  0  3  0  0  0  0  0  0
  191.3140  175.9340  144.9990 C   0  0  0  0  0  3  0  0  0  0  0  0
  189.3850  174.7450  145.8370 C   0  0  0  0  0  3  0  0  0  0  0  0
  193.0680  176.6020  146.5140 O   0  0  0  0  0  1  0  0  0  0  0  0
  186.6870  176.8600  141.6840 C   0  0  0  0  0  2  0  0  0  0  0  0
  187.0500  178.2790  142.0730 C   0  0  0  0  0  2  0  0  0  0  0  0
  185.9480  178.8690  142.9320 C   0  0  0  0  0  2  0  0  0  0  0  0
  185.1660  177.7630  143.6250 C   0  0  0  0  0  2  0  0  0  0  0  0
  183.6020  179.0350  145.5300 O   0  0  0  0  0  0  0  0  0  0  0  0
  185.4370  177.7590  145.0610 N   0  0  0  0  0  0  0  0  0  0  0  0
  184.6140  178.4070  145.9410 C   0  0  0  0  0  0  0  0  0  0  0  0
  185.9670  177.7120  147.7510 C   0  0  0  0  0  3  0  0  0  0  0  0
  186.8200  177.0460  146.8750 C   0  0  0  0  0  3  0  0  0  0  0  0
  186.5300  177.0850  145.5130 C   0  0  0  0  0  3  0  0  0  0  0  0
  184.8850  178.3770  147.2720 N   0  0  0  0  0  0  0  0  0  0  0  0
  1  9  1  6  0  0  0
  1 11  1  0  0  0  0
  3 10  2  0  0  0  0
  4 13  1  0  0  0  0
  5  9  1  0  0  0  0
  6  5  1  0  0  0  0
  6 12  1  0  0  0  0
  7 15  2  0  0  0  0
  8  2  1  1  0  0  0
  8  1  1  0  0  0  0
  8  3  1  0  0  0  0
 10 16  1  0  0  0  0
 10 14  1  0  0  0  0
 11 16  2  0  0  0  0
 12  2  1  0  0  0  0
 13 14  2  0  0  0  0
 14 19  1  0  0  0  0
 15  3  1  0  0  0  0
 15  4  1  0  0  0  0
 17 23  1  0  0  0  0
 17 18  1  0  0  0  0
 19 21  1  0  0  0  0
 19 22  2  0  0  0  0
 20 18  2  0  0  0  0
 21 17  2  0  0  0  0
 22 20  1  0  0  0  0
 24  4  1  0  0  0  0
 24 25  1  0  0  0  0
 25 26  1  0  0  0  0
 26 27  1  0  0  0  0
 27 29  1  0  0  0  0
 28 30  2  0  0  0  0
 29 33  1  0  0  0  0
 29 30  1  0  0  0  0
 30 34  1  0  0  0  0
 32 31  1  0  0  0  0
 33 32  2  0  0  0  0
 34 31  2  0  0  0  0
M  END
>  <MODEL>
9

>  <REMARK>
 VINA RESULT:      -7.9      3.028      8.386
  Name = 
  6 active torsions:
  status: ('A' for Active; 'I' for Inactive)
    1  A    between atoms: C_3  and  N_13
    2  A    between atoms: C_3  and  C_17
    3  A    between atoms: N_5  and  C_18
    4  A    between atoms: C_12  and  C_28
    5  A    between atoms: C_17  and  C_29
    6  A    between atoms: C_18  and  C_29
                            x       y       z     vdW  Elec       q    Type
                         _______ _______ _______ _____ _____    ______ ____

>  <TORSDO>
F 6

$$$$
