=
 OpenBabel11052418513D

 34 37  0  0  1  0  0  0  0  0999 V2000
  192.9300  171.8680  142.6830 C   0  0  0  0  0  2  0  0  0  0  0  0
  190.1460  171.6490  139.8500 C   0  0  0  0  0  2  0  0  0  0  0  0
  189.6960  173.3530  141.6110 C   0  0  1  0  0  3  0  0  0  0  0  0
  188.3630  175.4830  141.9620 N   0  0  0  0  0  0  0  0  0  0  0  0
  193.0360  170.5510  140.5920 C   0  0  0  0  0  2  0  0  0  0  0  0
  192.0140  169.9660  139.6310 C   0  0  0  0  0  2  0  0  0  0  0  0
  188.4960  174.4730  139.8620 O   0  0  0  0  0  0  0  0  0  0  0  0
  190.6920  172.8710  140.5650 C   0  0  0  0  0  2  0  0  0  0  0  0
  192.4570  170.6030  141.9920 C   0  0  0  0  0  2  0  0  0  0  0  0
  190.4430  173.6990  142.9150 C   0  0  1  0  0  3  0  0  0  0  0  0
  192.1340  172.1180  143.9560 C   0  0  0  0  0  2  0  0  0  0  0  0
  191.2080  171.0590  138.9350 C   0  0  0  0  0  2  0  0  0  0  0  0
  188.8150  175.5450  143.3150 C   0  0  0  0  0  3  0  0  0  0  0  0
  189.7530  174.7280  143.8040 C   0  0  0  0  0  0  0  0  0  0  0  0
  188.8510  174.4730  141.0740 C   0  0  0  0  0  0  0  0  0  0  0  0
  190.6570  172.3890  143.6760 C   0  0  0  0  0  2  0  0  0  0  0  0
  191.9160  175.8970  146.6920 C   0  0  0  0  0  0  0  0  0  0  0  0
  191.1220  175.5570  147.7900 C   0  0  0  0  0  3  0  0  0  0  0  0
  190.2360  174.9940  145.1820 C   0  0  0  0  0  0  0  0  0  0  0  0
  189.8850  174.9400  147.5910 C   0  0  0  0  0  3  0  0  0  0  0  0
  191.4730  175.6210  145.3960 C   0  0  0  0  0  3  0  0  0  0  0  0
  189.4430  174.6620  146.2940 C   0  0  0  0  0  3  0  0  0  0  0  0
  193.1130  176.5000  146.8840 F   0  0  0  0  0  0  0  0  0  0  0  0
  187.4950  176.5470  141.4790 C   0  0  0  0  0  2  0  0  0  0  0  0
  186.2100  176.5550  142.2830 C   0  0  0  0  0  2  0  0  0  0  0  0
  185.4960  177.8790  142.1010 C   0  0  0  0  0  2  0  0  0  0  0  0
  186.1340  178.9360  142.9900 C   0  0  0  0  0  2  0  0  0  0  0  0
  183.6420  179.3290  144.3760 O   0  0  0  0  0  0  0  0  0  0  0  0
  185.8840  178.6380  144.3970 N   0  0  0  0  0  0  0  0  0  0  0  0
  184.5800  178.7410  144.9770 C   0  0  0  0  0  0  0  0  0  0  0  0
  185.1100  176.8050  146.3850 C   0  0  0  0  0  2  0  0  0  0  0  0
  186.6050  176.9240  146.0290 C   0  0  0  0  0  2  0  0  0  0  0  0
  186.9830  178.1920  145.2460 C   0  0  0  0  0  2  0  0  0  0  0  0
  184.3500  178.1320  146.3190 C   0  0  0  0  0  2  0  0  0  0  0  0
  1 11  1  0  0  0  0
  2  8  1  0  0  0  0
  3  8  1  6  0  0  0
  3 10  1  0  0  0  0
  4 13  1  0  0  0  0
  5  9  1  0  0  0  0
  6  5  1  0  0  0  0
  7 15  2  0  0  0  0
  9  1  1  0  0  0  0
 10 16  1  1  0  0  0
 10 14  1  0  0  0  0
 12  6  1  0  0  0  0
 12  2  1  0  0  0  0
 13 14  2  0  0  0  0
 14 19  1  0  0  0  0
 15  3  1  0  0  0  0
 15  4  1  0  0  0  0
 16 11  1  0  0  0  0
 17 23  1  0  0  0  0
 17 18  1  0  0  0  0
 19 21  1  0  0  0  0
 19 22  2  0  0  0  0
 20 18  2  0  0  0  0
 21 17  2  0  0  0  0
 22 20  1  0  0  0  0
 24  4  1  0  0  0  0
 24 25  1  0  0  0  0
 26 25  1  0  0  0  0
 26 27  1  0  0  0  0
 27 29  1  0  0  0  0
 28 30  2  0  0  0  0
 29 30  1  0  0  0  0
 29 33  1  0  0  0  0
 30 34  1  0  0  0  0
 32 31  1  0  0  0  0
 33 32  1  0  0  0  0
 34 31  1  0  0  0  0
M  END
>  <MODEL>
1

>  <REMARK>
 VINA RESULT:      -7.9      0.000      0.000
  Name = 
  6 active torsions:
  status: ('A' for Active; 'I' for Inactive)
    1  A    between atoms: C_3  and  N_13
    2  A    between atoms: C_3  and  C_17
    3  A    between atoms: N_5  and  C_18
    4  A    between atoms: C_12  and  C_28
    5  A    between atoms: C_17  and  C_29
    6  A    between atoms: C_18  and  C_29
                            x       y       z     vdW  Elec       q    Type
                         _______ _______ _______ _____ _____    ______ ____

>  <TORSDO>
F 6

$$$$
=
 OpenBabel11052418513D

 34 37  0  0  1  0  0  0  0  0999 V2000
  186.0800  177.6810  146.3460 C   0  0  0  0  0  2  0  0  0  0  0  0
  185.5030  178.0330  142.4260 C   0  0  0  0  0  2  0  0  0  0  0  0
  187.5870  176.8230  143.0590 C   0  0  1  0  0  3  0  0  0  0  0  0
  189.2420  175.1600  142.0920 N   0  0  0  0  0  0  0  0  0  0  0  0
  184.0570  178.5410  145.2110 C   0  0  0  0  0  2  0  0  0  0  0  0
  183.7620  179.1680  143.8580 C   0  0  0  0  0  2  0  0  0  0  0  0
  187.2850  175.7200  140.9510 O   0  0  0  0  0  0  0  0  0  0  0  0
  186.0730  176.8650  143.2100 C   0  0  0  0  0  2  0  0  0  0  0  0
  185.4730  178.8770  145.6360 C   0  0  0  0  0  2  0  0  0  0  0  0
  188.2360  176.5510  144.4310 C   0  0  1  0  0  3  0  0  0  0  0  0
  187.5830  177.8550  146.5100 C   0  0  0  0  0  2  0  0  0  0  0  0
  184.0190  178.1860  142.7180 C   0  0  0  0  0  2  0  0  0  0  0  0
  190.0200  175.2380  143.2870 C   0  0  0  0  0  3  0  0  0  0  0  0
  189.6080  175.8880  144.3800 C   0  0  0  0  0  0  0  0  0  0  0  0
  187.9950  175.8530  141.9860 C   0  0  0  0  0  0  0  0  0  0  0  0
  188.3150  177.8890  145.1690 C   0  0  0  0  0  2  0  0  0  0  0  0
  192.4780  176.2970  146.8260 C   0  0  0  0  0  0  0  0  0  0  0  0
  192.0010  175.5930  147.9340 C   0  0  0  0  0  3  0  0  0  0  0  0
  190.4440  175.7670  145.6000 C   0  0  0  0  0  0  0  0  0  0  0  0
  190.7480  174.9780  147.8830 C   0  0  0  0  0  3  0  0  0  0  0  0
  191.7010  176.3870  145.6670 C   0  0  0  0  0  3  0  0  0  0  0  0
  189.9730  175.0670  146.7240 C   0  0  0  0  0  3  0  0  0  0  0  0
  193.6900  176.8970  146.8760 F   0  0  0  0  0  0  0  0  0  0  0  0
  189.6880  174.2600  141.0400 C   0  0  0  0  0  2  0  0  0  0  0  0
  190.6520  173.2440  141.6190 C   0  0  0  0  0  2  0  0  0  0  0  0
  192.0170  173.4070  140.9830 C   0  0  0  0  0  2  0  0  0  0  0  0
  193.0560  172.6380  141.7850 C   0  0  0  0  0  2  0  0  0  0  0  0
  192.4110  171.4170  144.3110 O   0  0  0  0  0  0  0  0  0  0  0  0
  193.2410  173.2460  143.0990 N   0  0  0  0  0  0  0  0  0  0  0  0
  193.0160  172.5220  144.3130 C   0  0  0  0  0  0  0  0  0  0  0  0
  194.8810  173.7460  145.3290 C   0  0  0  0  0  2  0  0  0  0  0  0
  194.8830  174.7590  144.1660 C   0  0  0  0  0  2  0  0  0  0  0  0
  193.6970  174.6280  143.1950 C   0  0  0  0  0  2  0  0  0  0  0  0
  193.5160  173.1050  145.5910 C   0  0  0  0  0  2  0  0  0  0  0  0
  1 11  1  0  0  0  0
  2 12  1  0  0  0  0
  2  8  1  0  0  0  0
  3  8  1  1  0  0  0
  3 10  1  0  0  0  0
  4 13  1  0  0  0  0
  5  9  1  0  0  0  0
  6  5  1  0  0  0  0
  7 15  2  0  0  0  0
  9  1  1  0  0  0  0
 10 16  1  6  0  0  0
 12  6  1  0  0  0  0
 13 14  2  0  0  0  0
 14 10  1  0  0  0  0
 14 19  1  0  0  0  0
 15  4  1  0  0  0  0
 15  3  1  0  0  0  0
 16 11  1  0  0  0  0
 17 23  1  0  0  0  0
 17 18  1  0  0  0  0
 19 21  1  0  0  0  0
 19 22  2  0  0  0  0
 20 18  2  0  0  0  0
 21 17  2  0  0  0  0
 22 20  1  0  0  0  0
 24 25  1  0  0  0  0
 24  4  1  0  0  0  0
 26 25  1  0  0  0  0
 26 27  1  0  0  0  0
 27 29  1  0  0  0  0
 28 30  2  0  0  0  0
 29 33  1  0  0  0  0
 29 30  1  0  0  0  0
 30 34  1  0  0  0  0
 31 34  1  0  0  0  0
 32 31  1  0  0  0  0
 33 32  1  0  0  0  0
M  END
>  <MODEL>
2

>  <REMARK>
 VINA RESULT:      -7.9      2.109      7.322
  Name = 
  6 active torsions:
  status: ('A' for Active; 'I' for Inactive)
    1  A    between atoms: C_3  and  N_13
    2  A    between atoms: C_3  and  C_17
    3  A    between atoms: N_5  and  C_18
    4  A    between atoms: C_12  and  C_28
    5  A    between atoms: C_17  and  C_29
    6  A    between atoms: C_18  and  C_29
                            x       y       z     vdW  Elec       q    Type
                         _______ _______ _______ _____ _____    ______ ____

>  <TORSDO>
F 6

$$$$
=
 OpenBabel11052418513D

 34 37  0  0  1  0  0  0  0  0999 V2000
  187.0420  177.2630  141.6790 C   0  0  0  0  0  2  0  0  0  0  0  0
  186.3180  178.0610  145.5080 C   0  0  0  0  0  2  0  0  0  0  0  0
  188.1070  176.3680  145.1260 C   0  0  1  0  0  3  0  0  0  0  0  0
  190.1150  175.3600  146.3040 N   0  0  0  0  0  0  0  0  0  0  0  0
  185.5770  179.0420  142.5770 C   0  0  0  0  0  2  0  0  0  0  0  0
  184.8160  179.2630  143.8740 C   0  0  0  0  0  2  0  0  0  0  0  0
  188.9560  177.1650  147.2230 O   0  0  0  0  0  0  0  0  0  0  0  0
  187.6430  177.7860  144.8200 C   0  0  0  0  0  2  0  0  0  0  0  0
  185.6850  177.5580  142.2880 C   0  0  0  0  0  2  0  0  0  0  0  0
  188.6300  175.7070  143.8350 C   0  0  1  0  0  3  0  0  0  0  0  0
  187.3150  175.7660  141.6640 C   0  0  0  0  0  2  0  0  0  0  0  0
  185.7640  179.4050  145.0620 C   0  0  0  0  0  2  0  0  0  0  0  0
  190.3310  174.4900  145.1930 C   0  0  0  0  0  3  0  0  0  0  0  0
  189.6540  174.5970  144.0450 C   0  0  0  0  0  0  0  0  0  0  0  0
  189.0890  176.3570  146.2620 C   0  0  0  0  0  0  0  0  0  0  0  0
  187.4150  175.1780  143.0710 C   0  0  0  0  0  2  0  0  0  0  0  0
  190.2660  171.5180  141.9160 C   0  0  0  0  0  0  0  0  0  0  0  0
  190.8210  172.0820  140.7650 C   0  0  0  0  0  3  0  0  0  0  0  0
  190.0780  173.7250  142.9210 C   0  0  0  0  0  0  0  0  0  0  0  0
  191.0040  173.4640  140.6840 C   0  0  0  0  0  3  0  0  0  0  0  0
  189.8920  172.3360  142.9860 C   0  0  0  0  0  3  0  0  0  0  0  0
  190.6320  174.2820  141.7550 C   0  0  0  0  0  3  0  0  0  0  0  0
  190.0840  170.1780  141.9930 F   0  0  0  0  0  0  0  0  0  0  0  0
  191.0440  175.2900  147.4220 C   0  0  0  0  0  2  0  0  0  0  0  0
  192.4580  175.1550  146.8950 C   0  0  0  0  0  2  0  0  0  0  0  0
  193.0360  176.5270  146.6130 C   0  0  0  0  0  2  0  0  0  0  0  0
  194.5470  176.4320  146.4680 C   0  0  0  0  0  2  0  0  0  0  0  0
  196.2900  174.1650  146.1360 O   0  0  0  0  0  0  0  0  0  0  0  0
  194.9000  175.8050  145.1980 N   0  0  0  0  0  0  0  0  0  0  0  0
  195.6700  174.6000  145.1300 C   0  0  0  0  0  0  0  0  0  0  0  0
  194.3380  173.9190  143.1880 C   0  0  0  0  0  2  0  0  0  0  0  0
  193.7720  175.3460  143.0440 C   0  0  0  0  0  2  0  0  0  0  0  0
  194.4360  176.3980  143.9480 C   0  0  0  0  0  2  0  0  0  0  0  0
  195.7240  173.8650  143.8330 C   0  0  0  0  0  2  0  0  0  0  0  0
  1  9  1  0  0  0  0
  3  8  1  6  0  0  0
  3 15  1  0  0  0  0
  4 24  1  0  0  0  0
  5  6  1  0  0  0  0
  6 12  1  0  0  0  0
  8  2  1  0  0  0  0
  9  5  1  0  0  0  0
 10 16  1  1  0  0  0
 10 14  1  0  0  0  0
 10  3  1  0  0  0  0
 11  1  1  0  0  0  0
 11 16  1  0  0  0  0
 12  2  1  0  0  0  0
 13  4  1  0  0  0  0
 14 13  2  0  0  0  0
 15  4  1  0  0  0  0
 15  7  2  0  0  0  0
 17 23  1  0  0  0  0
 17 21  1  0  0  0  0
 18 17  2  0  0  0  0
 19 21  2  0  0  0  0
 19 14  1  0  0  0  0
 20 18  1  0  0  0  0
 20 22  2  0  0  0  0
 22 19  1  0  0  0  0
 25 24  1  0  0  0  0
 26 25  1  0  0  0  0
 27 26  1  0  0  0  0
 29 27  1  0  0  0  0
 30 29  1  0  0  0  0
 30 28  2  0  0  0  0
 31 34  1  0  0  0  0
 32 31  1  0  0  0  0
 32 33  1  0  0  0  0
 33 29  1  0  0  0  0
 34 30  1  0  0  0  0
M  END
>  <MODEL>
3

>  <REMARK>
 VINA RESULT:      -7.9      3.359      8.217
  Name = 
  6 active torsions:
  status: ('A' for Active; 'I' for Inactive)
    1  A    between atoms: C_3  and  N_13
    2  A    between atoms: C_3  and  C_17
    3  A    between atoms: N_5  and  C_18
    4  A    between atoms: C_12  and  C_28
    5  A    between atoms: C_17  and  C_29
    6  A    between atoms: C_18  and  C_29
                            x       y       z     vdW  Elec       q    Type
                         _______ _______ _______ _____ _____    ______ ____

>  <TORSDO>
F 6

$$$$
=
 OpenBabel11052418513D

 34 37  0  0  1  0  0  0  0  0999 V2000
  186.1390  177.6380  146.2570 C   0  0  0  0  0  2  0  0  0  0  0  0
  185.5430  177.9490  142.3350 C   0  0  0  0  0  2  0  0  0  0  0  0
  187.6250  176.7370  142.9710 C   0  0  1  0  0  3  0  0  0  0  0  0
  189.2670  175.0560  142.0140 N   0  0  0  0  0  0  0  0  0  0  0  0
  184.1150  178.4960  145.1220 C   0  0  0  0  0  2  0  0  0  0  0  0
  183.8150  179.1080  143.7640 C   0  0  0  0  0  2  0  0  0  0  0  0
  187.3070  175.6110  140.8770 O   0  0  0  0  0  0  0  0  0  0  0  0
  186.1120  176.7870  143.1290 C   0  0  0  0  0  2  0  0  0  0  0  0
  185.5340  178.8290  145.5360 C   0  0  0  0  0  2  0  0  0  0  0  0
  188.2800  176.4770  144.3430 C   0  0  1  0  0  3  0  0  0  0  0  0
  187.6430  177.8070  146.4100 C   0  0  0  0  0  2  0  0  0  0  0  0
  184.0610  178.1120  142.6340 C   0  0  0  0  0  2  0  0  0  0  0  0
  190.0510  175.1420  143.2040 C   0  0  0  0  0  3  0  0  0  0  0  0
  189.6480  175.8070  144.2930 C   0  0  0  0  0  0  0  0  0  0  0  0
  188.0230  175.7530  141.9070 C   0  0  0  0  0  0  0  0  0  0  0  0
  188.3690  177.8230  145.0660 C   0  0  0  0  0  2  0  0  0  0  0  0
  192.5480  176.1990  146.7050 C   0  0  0  0  0  0  0  0  0  0  0  0
  192.0600  175.5410  147.8360 C   0  0  0  0  0  3  0  0  0  0  0  0
  190.4900  175.6950  145.5090 C   0  0  0  0  0  0  0  0  0  0  0  0
  190.7880  174.9620  147.8120 C   0  0  0  0  0  3  0  0  0  0  0  0
  191.7650  176.2790  145.5500 C   0  0  0  0  0  3  0  0  0  0  0  0
  190.0070  175.0410  146.6560 C   0  0  0  0  0  3  0  0  0  0  0  0
  193.7780  176.7640  146.7290 F   0  0  0  0  0  0  0  0  0  0  0  0
  189.7040  174.1410  140.9700 C   0  0  0  0  0  2  0  0  0  0  0  0
  189.6800  172.7210  141.5000 C   0  0  0  0  0  2  0  0  0  0  0  0
  190.7250  171.8880  140.7850 C   0  0  0  0  0  2  0  0  0  0  0  0
  192.0380  172.6520  140.7150 C   0  0  0  0  0  2  0  0  0  0  0  0
  193.4260  174.8190  142.0050 O   0  0  0  0  0  0  0  0  0  0  0  0
  192.7420  172.5750  141.9910 N   0  0  0  0  0  0  0  0  0  0  0  0
  193.2960  173.7310  142.6280 C   0  0  0  0  0  0  0  0  0  0  0  0
  192.6980  172.7610  144.7980 C   0  0  0  0  0  2  0  0  0  0  0  0
  192.4420  171.3890  144.1420 C   0  0  0  0  0  2  0  0  0  0  0  0
  192.8680  171.2890  142.6680 C   0  0  0  0  0  2  0  0  0  0  0  0
  193.7210  173.6220  144.0530 C   0  0  0  0  0  2  0  0  0  0  0  0
  1 11  1  0  0  0  0
  2 12  1  0  0  0  0
  2  8  1  0  0  0  0
  3  8  1  1  0  0  0
  3 10  1  0  0  0  0
  4 13  1  0  0  0  0
  5  9  1  0  0  0  0
  6  5  1  0  0  0  0
  7 15  2  0  0  0  0
  9  1  1  0  0  0  0
 10 16  1  6  0  0  0
 12  6  1  0  0  0  0
 13 14  2  0  0  0  0
 14 10  1  0  0  0  0
 14 19  1  0  0  0  0
 15  4  1  0  0  0  0
 15  3  1  0  0  0  0
 16 11  1  0  0  0  0
 17 23  1  0  0  0  0
 17 18  1  0  0  0  0
 19 21  1  0  0  0  0
 19 22  2  0  0  0  0
 20 18  2  0  0  0  0
 21 17  2  0  0  0  0
 22 20  1  0  0  0  0
 24 25  1  0  0  0  0
 24  4  1  0  0  0  0
 26 25  1  0  0  0  0
 27 26  1  0  0  0  0
 27 29  1  0  0  0  0
 28 30  2  0  0  0  0
 29 30  1  0  0  0  0
 29 33  1  0  0  0  0
 30 34  1  0  0  0  0
 32 31  1  0  0  0  0
 33 32  1  0  0  0  0
 34 31  1  0  0  0  0
M  END
>  <MODEL>
4

>  <REMARK>
 VINA RESULT:      -7.9      1.871      7.207
  Name = 
  6 active torsions:
  status: ('A' for Active; 'I' for Inactive)
    1  A    between atoms: C_3  and  N_13
    2  A    between atoms: C_3  and  C_17
    3  A    between atoms: N_5  and  C_18
    4  A    between atoms: C_12  and  C_28
    5  A    between atoms: C_17  and  C_29
    6  A    between atoms: C_18  and  C_29
                            x       y       z     vdW  Elec       q    Type
                         _______ _______ _______ _____ _____    ______ ____

>  <TORSDO>
F 6

$$$$
=
 OpenBabel11052418513D

 34 37  0  0  1  0  0  0  0  0999 V2000
  186.8490  177.1460  141.7280 C   0  0  0  0  0  2  0  0  0  0  0  0
  186.5660  178.1020  145.5800 C   0  0  0  0  0  2  0  0  0  0  0  0
  188.3280  176.4180  145.0600 C   0  0  1  0  0  3  0  0  0  0  0  0
  190.4780  175.4890  146.0330 N   0  0  0  0  0  0  0  0  0  0  0  0
  185.4680  178.9440  142.7180 C   0  0  0  0  0  2  0  0  0  0  0  0
  184.8610  179.2120  144.0860 C   0  0  0  0  0  2  0  0  0  0  0  0
  189.4030  177.3170  147.0060 O   0  0  0  0  0  0  0  0  0  0  0  0
  187.8060  177.8150  144.7520 C   0  0  0  0  0  2  0  0  0  0  0  0
  185.5670  177.4500  142.4820 C   0  0  0  0  0  2  0  0  0  0  0  0
  188.7080  175.7080  143.7450 C   0  0  1  0  0  3  0  0  0  0  0  0
  187.1440  175.6540  141.7450 C   0  0  0  0  0  2  0  0  0  0  0  0
  185.9400  179.4180  145.1460 C   0  0  0  0  0  2  0  0  0  0  0  0
  190.5780  174.5730  144.9420 C   0  0  0  0  0  3  0  0  0  0  0  0
  189.7680  174.6210  143.8790 C   0  0  0  0  0  0  0  0  0  0  0  0
  189.4380  176.4700  146.0710 C   0  0  0  0  0  0  0  0  0  0  0  0
  187.4200  175.1300  143.1530 C   0  0  0  0  0  2  0  0  0  0  0  0
  190.9430  173.3370  140.5090 C   0  0  0  0  0  0  0  0  0  0  0  0
  190.7100  171.9660  140.6360 C   0  0  0  0  0  3  0  0  0  0  0  0
  190.0730  173.7070  142.7500 C   0  0  0  0  0  0  0  0  0  0  0  0
  190.1620  171.4590  141.8170 C   0  0  0  0  0  3  0  0  0  0  0  0
  190.6300  174.2020  141.5620 C   0  0  0  0  0  3  0  0  0  0  0  0
  189.8480  172.3240  142.8690 C   0  0  0  0  0  3  0  0  0  0  0  0
  191.4780  173.8290  139.3660 F   0  0  0  0  0  0  0  0  0  0  0  0
  191.5340  175.4800  147.0350 C   0  0  0  0  0  2  0  0  0  0  0  0
  192.7930  174.8840  146.4370 C   0  0  0  0  0  2  0  0  0  0  0  0
  193.9270  175.8850  146.5220 C   0  0  0  0  0  2  0  0  0  0  0  0
  193.8380  176.8680  145.3640 C   0  0  0  0  0  2  0  0  0  0  0  0
  192.3800  176.7450  142.8860 O   0  0  0  0  0  0  0  0  0  0  0  0
  194.3050  176.2460  144.1300 N   0  0  0  0  0  0  0  0  0  0  0  0
  193.5730  176.3420  142.9030 C   0  0  0  0  0  0  0  0  0  0  0  0
  195.7050  176.4400  141.6970 C   0  0  0  0  0  2  0  0  0  0  0  0
  196.4670  175.9790  142.9560 C   0  0  0  0  0  2  0  0  0  0  0  0
  195.5720  175.5240  144.1210 C   0  0  0  0  0  2  0  0  0  0  0  0
  194.2560  175.9520  141.6360 C   0  0  0  0  0  2  0  0  0  0  0  0
  1 11  1  0  0  0  0
  1  9  1  0  0  0  0
  3  8  1  6  0  0  0
  3 15  1  0  0  0  0
  4 15  1  0  0  0  0
  4 24  1  0  0  0  0
  5  6  1  0  0  0  0
  6 12  1  0  0  0  0
  8  2  1  0  0  0  0
  9  5  1  0  0  0  0
 10 16  1  1  0  0  0
 10 14  1  0  0  0  0
 10  3  1  0  0  0  0
 11 16  1  0  0  0  0
 12  2  1  0  0  0  0
 13  4  1  0  0  0  0
 14 13  2  0  0  0  0
 15  7  2  0  0  0  0
 17 18  2  0  0  0  0
 17 21  1  0  0  0  0
 18 20  1  0  0  0  0
 19 22  1  0  0  0  0
 19 14  1  0  0  0  0
 20 22  2  0  0  0  0
 21 19  2  0  0  0  0
 23 17  1  0  0  0  0
 25 26  1  0  0  0  0
 25 24  1  0  0  0  0
 27 26  1  0  0  0  0
 28 30  2  0  0  0  0
 29 27  1  0  0  0  0
 30 29  1  0  0  0  0
 31 32  1  0  0  0  0
 32 33  1  0  0  0  0
 33 29  1  0  0  0  0
 34 31  1  0  0  0  0
 34 30  1  0  0  0  0
M  END
>  <MODEL>
5

>  <REMARK>
 VINA RESULT:      -7.7      3.200      7.994
  Name = 
  6 active torsions:
  status: ('A' for Active; 'I' for Inactive)
    1  A    between atoms: C_3  and  N_13
    2  A    between atoms: C_3  and  C_17
    3  A    between atoms: N_5  and  C_18
    4  A    between atoms: C_12  and  C_28
    5  A    between atoms: C_17  and  C_29
    6  A    between atoms: C_18  and  C_29
                            x       y       z     vdW  Elec       q    Type
                         _______ _______ _______ _____ _____    ______ ____

>  <TORSDO>
F 6

$$$$
=
 OpenBabel11052418513D

 34 37  0  0  1  0  0  0  0  0999 V2000
  194.2200  171.9410  143.3000 C   0  0  0  0  0  2  0  0  0  0  0  0
  195.5160  174.8670  145.6640 C   0  0  0  0  0  2  0  0  0  0  0  0
  193.1080  175.0290  145.0450 C   0  0  1  0  0  3  0  0  0  0  0  0
  190.9550  176.0870  145.8700 N   0  0  0  0  0  0  0  0  0  0  0  0
  196.4260  172.0910  144.4080 C   0  0  0  0  0  2  0  0  0  0  0  0
  197.2900  173.2200  144.9470 C   0  0  0  0  0  2  0  0  0  0  0  0
  192.9080  176.1750  147.1430 O   0  0  0  0  0  0  0  0  0  0  0  0
  194.1800  174.1480  145.6730 C   0  0  0  0  0  2  0  0  0  0  0  0
  195.5900  172.5910  143.2470 C   0  0  0  0  0  2  0  0  0  0  0  0
  192.2370  174.1830  144.0940 C   0  0  1  0  0  3  0  0  0  0  0  0
  193.2530  172.6390  142.3540 C   0  0  0  0  0  2  0  0  0  0  0  0
  196.6200  173.9260  146.1220 C   0  0  0  0  0  2  0  0  0  0  0  0
  190.2620  175.5640  144.7350 C   0  0  0  0  0  3  0  0  0  0  0  0
  190.8210  174.7050  143.8770 C   0  0  0  0  0  0  0  0  0  0  0  0
  192.3290  175.7630  146.0990 C   0  0  0  0  0  0  0  0  0  0  0  0
  192.9820  174.0860  142.7610 C   0  0  0  0  0  2  0  0  0  0  0  0
  188.6410  174.3850  140.7900 C   0  0  0  0  0  0  0  0  0  0  0  0
  188.3430  173.0200  140.7990 C   0  0  0  0  0  3  0  0  0  0  0  0
  189.9460  174.1270  142.8260 C   0  0  0  0  0  0  0  0  0  0  0  0
  188.8460  172.2040  141.8160 C   0  0  0  0  0  3  0  0  0  0  0  0
  189.4420  174.9340  141.7950 C   0  0  0  0  0  3  0  0  0  0  0  0
  189.6450  172.7540  142.8220 C   0  0  0  0  0  3  0  0  0  0  0  0
  188.1580  175.1760  139.8020 F   0  0  0  0  0  0  0  0  0  0  0  0
  190.1920  176.8470  146.8490 C   0  0  0  0  0  2  0  0  0  0  0  0
  188.7890  176.2830  146.9460 C   0  0  0  0  0  2  0  0  0  0  0  0
  187.7760  177.4080  146.8850 C   0  0  0  0  0  2  0  0  0  0  0  0
  186.3750  176.8340  146.7320 C   0  0  0  0  0  2  0  0  0  0  0  0
  183.9610  178.4010  146.7070 O   0  0  0  0  0  0  0  0  0  0  0  0
  185.7260  177.3820  145.5450 N   0  0  0  0  0  0  0  0  0  0  0  0
  184.5990  178.2600  145.6300 C   0  0  0  0  0  0  0  0  0  0  0  0
  185.4560  179.4660  143.6750 C   0  0  0  0  0  2  0  0  0  0  0  0
  186.4460  178.3230  143.3730 C   0  0  0  0  0  2  0  0  0  0  0  0
  186.2490  177.0560  144.2230 C   0  0  0  0  0  2  0  0  0  0  0  0
  184.1920  179.0120  144.4080 C   0  0  0  0  0  2  0  0  0  0  0  0
  2  8  1  0  0  0  0
  2 12  1  0  0  0  0
  3  8  1  1  0  0  0
  3 15  1  0  0  0  0
  4 15  1  0  0  0  0
  4 24  1  0  0  0  0
  5  6  1  0  0  0  0
  6 12  1  0  0  0  0
  9  1  1  0  0  0  0
  9  5  1  0  0  0  0
 10 16  1  6  0  0  0
 10  3  1  0  0  0  0
 11 16  1  0  0  0  0
 11  1  1  0  0  0  0
 13  4  1  0  0  0  0
 14 10  1  0  0  0  0
 14 13  2  0  0  0  0
 15  7  2  0  0  0  0
 17 18  2  0  0  0  0
 17 21  1  0  0  0  0
 18 20  1  0  0  0  0
 19 14  1  0  0  0  0
 20 22  2  0  0  0  0
 21 19  2  0  0  0  0
 22 19  1  0  0  0  0
 23 17  1  0  0  0  0
 24 25  1  0  0  0  0
 26 25  1  0  0  0  0
 27 26  1  0  0  0  0
 29 30  1  0  0  0  0
 29 27  1  0  0  0  0
 30 28  2  0  0  0  0
 31 34  1  0  0  0  0
 32 31  1  0  0  0  0
 32 33  1  0  0  0  0
 33 29  1  0  0  0  0
 34 30  1  0  0  0  0
M  END
>  <MODEL>
6

>  <REMARK>
 VINA RESULT:      -7.5      3.087      5.208
  Name = 
  6 active torsions:
  status: ('A' for Active; 'I' for Inactive)
    1  A    between atoms: C_3  and  N_13
    2  A    between atoms: C_3  and  C_17
    3  A    between atoms: N_5  and  C_18
    4  A    between atoms: C_12  and  C_28
    5  A    between atoms: C_17  and  C_29
    6  A    between atoms: C_18  and  C_29
                            x       y       z     vdW  Elec       q    Type
                         _______ _______ _______ _____ _____    ______ ____

>  <TORSDO>
F 6

$$$$
=
 OpenBabel11052418513D

 34 37  0  0  1  0  0  0  0  0999 V2000
  187.6360  173.9910  141.4920 C   0  0  0  0  0  2  0  0  0  0  0  0
  191.5840  173.5010  141.4210 C   0  0  0  0  0  2  0  0  0  0  0  0
  190.7310  174.7370  143.4100 C   0  0  1  0  0  3  0  0  0  0  0  0
  191.4160  175.3090  145.7850 N   0  0  0  0  0  0  0  0  0  0  0  0
  188.9370  172.6150  139.9000 C   0  0  0  0  0  2  0  0  0  0  0  0
  190.3700  172.6120  139.3940 C   0  0  0  0  0  2  0  0  0  0  0  0
  192.6790  173.8400  144.4850 O   0  0  0  0  0  0  0  0  0  0  0  0
  190.6330  173.4500  142.6030 C   0  0  0  0  0  2  0  0  0  0  0  0
  188.5190  174.0270  140.2590 C   0  0  0  0  0  2  0  0  0  0  0  0
  189.3170  175.2220  143.7850 C   0  0  1  0  0  3  0  0  0  0  0  0
  187.4530  175.3880  142.0680 C   0  0  0  0  0  2  0  0  0  0  0  0
  191.3590  172.3010  140.5150 C   0  0  0  0  0  2  0  0  0  0  0  0
  190.2200  176.0720  145.9480 C   0  0  0  0  0  3  0  0  0  0  0  0
  189.2370  176.0820  145.0410 C   0  0  0  0  0  0  0  0  0  0  0  0
  191.6510  174.5660  144.5860 C   0  0  0  0  0  0  0  0  0  0  0  0
  188.7640  175.9840  142.5780 C   0  0  0  0  0  2  0  0  0  0  0  0
  186.4040  178.6030  145.0090 C   0  0  0  0  0  0  0  0  0  0  0  0
  185.5880  178.1180  146.0340 C   0  0  0  0  0  3  0  0  0  0  0  0
  187.9880  176.7980  145.3990 C   0  0  0  0  0  0  0  0  0  0  0  0
  185.9640  176.9740  146.7420 C   0  0  0  0  0  3  0  0  0  0  0  0
  187.5940  177.9440  144.6910 C   0  0  0  0  0  3  0  0  0  0  0  0
  187.1560  176.3160  146.4250 C   0  0  0  0  0  3  0  0  0  0  0  0
  186.0380  179.7100  144.3190 F   0  0  0  0  0  0  0  0  0  0  0  0
  192.3230  175.2060  146.9190 C   0  0  0  0  0  2  0  0  0  0  0  0
  192.8770  176.5780  147.2480 C   0  0  0  0  0  2  0  0  0  0  0  0
  194.1430  176.8270  146.4520 C   0  0  0  0  0  2  0  0  0  0  0  0
  194.9220  175.5290  146.3000 C   0  0  0  0  0  2  0  0  0  0  0  0
  197.2080  173.9090  145.6420 O   0  0  0  0  0  0  0  0  0  0  0  0
  195.5900  175.4840  145.0040 N   0  0  0  0  0  0  0  0  0  0  0  0
  196.6410  174.5540  144.7200 C   0  0  0  0  0  0  0  0  0  0  0  0
  195.8010  174.3830  142.4230 C   0  0  0  0  0  2  0  0  0  0  0  0
  194.9180  175.6300  142.6260 C   0  0  0  0  0  2  0  0  0  0  0  0
  195.1660  176.3890  143.9410 C   0  0  0  0  0  2  0  0  0  0  0  0
  197.0550  174.3620  143.3000 C   0  0  0  0  0  2  0  0  0  0  0  0
  1 11  1  0  0  0  0
  2  8  1  0  0  0  0
  3  8  1  1  0  0  0
  3 10  1  0  0  0  0
  3 15  1  0  0  0  0
  4 13  1  0  0  0  0
  4 24  1  0  0  0  0
  5  9  1  0  0  0  0
  6  5  1  0  0  0  0
  6 12  1  0  0  0  0
  7 15  2  0  0  0  0
  9  1  1  0  0  0  0
 10 16  1  6  0  0  0
 10 14  1  0  0  0  0
 11 16  1  0  0  0  0
 12  2  1  0  0  0  0
 14 19  1  0  0  0  0
 14 13  2  0  0  0  0
 15  4  1  0  0  0  0
 17 18  1  0  0  0  0
 18 20  2  0  0  0  0
 19 22  2  0  0  0  0
 21 17  2  0  0  0  0
 21 19  1  0  0  0  0
 22 20  1  0  0  0  0
 23 17  1  0  0  0  0
 24 25  1  0  0  0  0
 26 25  1  0  0  0  0
 27 26  1  0  0  0  0
 29 27  1  0  0  0  0
 30 29  1  0  0  0  0
 30 28  2  0  0  0  0
 31 32  1  0  0  0  0
 31 34  1  0  0  0  0
 32 33  1  0  0  0  0
 33 29  1  0  0  0  0
 34 30  1  0  0  0  0
M  END
>  <MODEL>
7

>  <REMARK>
 VINA RESULT:      -7.3      3.609      7.182
  Name = 
  6 active torsions:
  status: ('A' for Active; 'I' for Inactive)
    1  A    between atoms: C_3  and  N_13
    2  A    between atoms: C_3  and  C_17
    3  A    between atoms: N_5  and  C_18
    4  A    between atoms: C_12  and  C_28
    5  A    between atoms: C_17  and  C_29
    6  A    between atoms: C_18  and  C_29
                            x       y       z     vdW  Elec       q    Type
                         _______ _______ _______ _____ _____    ______ ____

>  <TORSDO>
F 6

$$$$
=
 OpenBabel11052418513D

 34 37  0  0  1  0  0  0  0  0999 V2000
  187.8090  177.2240  146.1860 C   0  0  0  0  0  2  0  0  0  0  0  0
  186.3820  177.2030  142.4730 C   0  0  0  0  0  2  0  0  0  0  0  0
  188.6790  176.2660  142.7020 C   0  0  1  0  0  3  0  0  0  0  0  0
  190.2750  174.7090  141.4900 N   0  0  0  0  0  0  0  0  0  0  0  0
  185.5060  177.7800  145.4740 C   0  0  0  0  0  2  0  0  0  0  0  0
  184.8610  178.2650  144.1860 C   0  0  0  0  0  2  0  0  0  0  0  0
  188.0690  174.9740  140.7750 O   0  0  0  0  0  0  0  0  0  0  0  0
  187.2360  176.1650  143.1770 C   0  0  0  0  0  2  0  0  0  0  0  0
  186.9310  178.2910  145.5610 C   0  0  0  0  0  2  0  0  0  0  0  0
  189.6290  176.1710  143.9120 C   0  0  1  0  0  3  0  0  0  0  0  0
  189.2820  177.5620  146.0080 C   0  0  0  0  0  2  0  0  0  0  0  0
  184.9850  177.2270  143.0730 C   0  0  0  0  0  2  0  0  0  0  0  0
  191.2730  174.9600  142.4800 C   0  0  0  0  0  3  0  0  0  0  0  0
  191.0270  175.6490  143.6000 C   0  0  0  0  0  0  0  0  0  0  0  0
  188.9610  175.2610  141.6210 C   0  0  0  0  0  0  0  0  0  0  0  0
  189.7050  177.5650  144.5400 C   0  0  0  0  0  2  0  0  0  0  0  0
  194.0710  176.8120  145.5410 C   0  0  0  0  0  0  0  0  0  0  0  0
  194.1240  175.8660  146.5680 C   0  0  0  0  0  3  0  0  0  0  0  0
  192.1110  175.7110  144.6120 C   0  0  0  0  0  0  0  0  0  0  0  0
  193.1730  174.8450  146.6240 C   0  0  0  0  0  3  0  0  0  0  0  0
  193.0670  176.7370  144.5720 C   0  0  0  0  0  3  0  0  0  0  0  0
  192.1700  174.7690  145.6530 C   0  0  0  0  0  3  0  0  0  0  0  0
  194.9900  177.8060  145.4880 F   0  0  0  0  0  0  0  0  0  0  0  0
  190.5910  173.7780  140.4170 C   0  0  0  0  0  2  0  0  0  0  0  0
  191.8230  172.9780  140.7900 C   0  0  0  0  0  2  0  0  0  0  0  0
  192.9080  173.1910  139.7540 C   0  0  0  0  0  2  0  0  0  0  0  0
  194.2730  172.9370  140.3760 C   0  0  0  0  0  2  0  0  0  0  0  0
  194.5590  173.7040  143.1360 O   0  0  0  0  0  0  0  0  0  0  0  0
  194.8540  174.1860  140.8590 N   0  0  0  0  0  0  0  0  0  0  0  0
  195.0780  174.4350  142.2510 C   0  0  0  0  0  0  0  0  0  0  0  0
  197.1160  175.6600  141.6510 C   0  0  0  0  0  2  0  0  0  0  0  0
  196.6850  175.7030  140.1720 C   0  0  0  0  0  2  0  0  0  0  0  0
  195.2520  175.2130  139.9030 C   0  0  0  0  0  2  0  0  0  0  0  0
  195.9460  175.5850  142.6350 C   0  0  0  0  0  2  0  0  0  0  0  0
  2 12  1  0  0  0  0
  2  8  1  0  0  0  0
  3  8  1  1  0  0  0
  3 10  1  0  0  0  0
  4 15  1  0  0  0  0
  4 13  1  0  0  0  0
  5  9  1  0  0  0  0
  6  5  1  0  0  0  0
  7 15  2  0  0  0  0
  9  1  1  0  0  0  0
 10 16  1  6  0  0  0
 11  1  1  0  0  0  0
 12  6  1  0  0  0  0
 13 14  2  0  0  0  0
 14 10  1  0  0  0  0
 14 19  1  0  0  0  0
 15  3  1  0  0  0  0
 16 11  1  0  0  0  0
 17 18  1  0  0  0  0
 18 20  2  0  0  0  0
 19 22  2  0  0  0  0
 21 19  1  0  0  0  0
 21 17  2  0  0  0  0
 22 20  1  0  0  0  0
 23 17  1  0  0  0  0
 24 25  1  0  0  0  0
 24  4  1  0  0  0  0
 26 27  1  0  0  0  0
 26 25  1  0  0  0  0
 27 29  1  0  0  0  0
 29 30  1  0  0  0  0
 30 34  1  0  0  0  0
 30 28  2  0  0  0  0
 31 34  1  0  0  0  0
 32 31  1  0  0  0  0
 33 32  1  0  0  0  0
 33 29  1  0  0  0  0
M  END
>  <MODEL>
8

>  <REMARK>
 VINA RESULT:      -7.2      2.963      7.670
  Name = 
  6 active torsions:
  status: ('A' for Active; 'I' for Inactive)
    1  A    between atoms: C_3  and  N_13
    2  A    between atoms: C_3  and  C_17
    3  A    between atoms: N_5  and  C_18
    4  A    between atoms: C_12  and  C_28
    5  A    between atoms: C_17  and  C_29
    6  A    between atoms: C_18  and  C_29
                            x       y       z     vdW  Elec       q    Type
                         _______ _______ _______ _____ _____    ______ ____

>  <TORSDO>
F 6

$$$$
=
 OpenBabel11052418513D

 34 37  0  0  1  0  0  0  0  0999 V2000
  188.4200  177.0060  147.4420 C   0  0  0  0  0  2  0  0  0  0  0  0
  185.9760  177.9270  144.4400 C   0  0  0  0  0  2  0  0  0  0  0  0
  188.0530  176.7340  143.7530 C   0  0  1  0  0  3  0  0  0  0  0  0
  188.9410  175.3180  141.8440 N   0  0  0  0  0  0  0  0  0  0  0  0
  186.1340  177.9350  147.6150 C   0  0  0  0  0  2  0  0  0  0  0  0
  185.2260  178.7470  146.7070 C   0  0  0  0  0  2  0  0  0  0  0  0
  186.6980  175.9540  141.9340 O   0  0  0  0  0  0  0  0  0  0  0  0
  186.8180  176.6810  144.6430 C   0  0  0  0  0  2  0  0  0  0  0  0
  187.5840  178.2670  147.3250 C   0  0  0  0  0  2  0  0  0  0  0  0
  189.2890  176.2850  144.5580 C   0  0  1  0  0  3  0  0  0  0  0  0
  189.8090  177.2220  146.8590 C   0  0  0  0  0  2  0  0  0  0  0  0
  184.8430  177.9640  145.4530 C   0  0  0  0  0  2  0  0  0  0  0  0
  190.2140  175.2470  142.4880 C   0  0  0  0  0  3  0  0  0  0  0  0
  190.4270  175.7020  143.7270 C   0  0  0  0  0  0  0  0  0  0  0  0
  187.8340  175.9600  142.4840 C   0  0  0  0  0  0  0  0  0  0  0  0
  189.7750  177.4960  145.3570 C   0  0  0  0  0  2  0  0  0  0  0  0
  194.1240  175.9510  144.5360 C   0  0  0  0  0  0  0  0  0  0  0  0
  194.2590  174.9730  145.5230 C   0  0  0  0  0  3  0  0  0  0  0  0
  191.7560  175.4350  144.3320 C   0  0  0  0  0  0  0  0  0  0  0  0
  193.1480  174.2250  145.9210 C   0  0  0  0  0  3  0  0  0  0  0  0
  192.8780  176.1840  143.9470 C   0  0  0  0  0  3  0  0  0  0  0  0
  191.9030  174.4570  145.3300 C   0  0  0  0  0  3  0  0  0  0  0  0
  195.2000  176.6800  144.1530 F   0  0  0  0  0  0  0  0  0  0  0  0
  188.7700  174.6110  140.5840 C   0  0  0  0  0  2  0  0  0  0  0  0
  188.4240  173.1620  140.8600 C   0  0  0  0  0  2  0  0  0  0  0  0
  189.6750  172.3100  140.7790 C   0  0  0  0  0  2  0  0  0  0  0  0
  190.4720  172.6790  139.5370 C   0  0  0  0  0  2  0  0  0  0  0  0
  189.4800  173.9420  137.1490 O   0  0  0  0  0  0  0  0  0  0  0  0
  189.9390  171.9900  138.3660 N   0  0  0  0  0  0  0  0  0  0  0  0
  189.5870  172.6870  137.1660 C   0  0  0  0  0  0  0  0  0  0  0  0
  190.3730  170.7570  135.8740 C   0  0  0  0  0  2  0  0  0  0  0  0
  190.4080  169.8880  137.1470 C   0  0  0  0  0  2  0  0  0  0  0  0
  189.7820  170.5400  138.3920 C   0  0  0  0  0  2  0  0  0  0  0  0
  189.3480  171.8920  135.9270 C   0  0  0  0  0  2  0  0  0  0  0  0
  2  8  1  0  0  0  0
  2 12  1  0  0  0  0
  3 10  1  0  0  0  0
  3  8  1  1  0  0  0
  4 15  1  0  0  0  0
  4 13  1  0  0  0  0
  6  5  1  0  0  0  0
  7 15  2  0  0  0  0
  9  1  1  0  0  0  0
  9  5  1  0  0  0  0
 10 16  1  6  0  0  0
 11  1  1  0  0  0  0
 12  6  1  0  0  0  0
 13 14  2  0  0  0  0
 14 19  1  0  0  0  0
 14 10  1  0  0  0  0
 15  3  1  0  0  0  0
 16 11  1  0  0  0  0
 17 18  1  0  0  0  0
 18 20  2  0  0  0  0
 19 22  2  0  0  0  0
 21 19  1  0  0  0  0
 21 17  2  0  0  0  0
 22 20  1  0  0  0  0
 23 17  1  0  0  0  0
 24 25  1  0  0  0  0
 24  4  1  0  0  0  0
 26 25  1  0  0  0  0
 27 26  1  0  0  0  0
 28 30  2  0  0  0  0
 29 33  1  0  0  0  0
 29 27  1  0  0  0  0
 30 29  1  0  0  0  0
 31 34  1  0  0  0  0
 31 32  1  0  0  0  0
 32 33  1  0  0  0  0
 34 30  1  0  0  0  0
M  END
>  <MODEL>
9

>  <REMARK>
 VINA RESULT:      -7.1      2.394      7.720
  Name = 
  6 active torsions:
  status: ('A' for Active; 'I' for Inactive)
    1  A    between atoms: C_3  and  N_13
    2  A    between atoms: C_3  and  C_17
    3  A    between atoms: N_5  and  C_18
    4  A    between atoms: C_12  and  C_28
    5  A    between atoms: C_17  and  C_29
    6  A    between atoms: C_18  and  C_29
                            x       y       z     vdW  Elec       q    Type
                         _______ _______ _______ _____ _____    ______ ____

>  <TORSDO>
F 6

$$$$
