=
 OpenBabel11052417193D

 30 33  0  0  0  0  0  0  0  0999 V2000
  187.2870  176.8110  141.8050 N   0  0  0  0  0  0  0  0  0  0  0  0
  185.4170  177.7550  140.5340 C   0  0  0  0  0  0  0  0  0  0  0  0
  185.2370  177.5460  145.4600 C   0  0  0  0  0  3  0  0  0  0  0  0
  187.8470  176.1970  143.0070 C   0  0  0  0  0  0  0  0  0  0  0  0
  185.8150  177.2010  146.6840 C   0  0  0  0  0  3  0  0  0  0  0  0
  184.1450  178.3310  140.4900 C   0  0  0  0  0  3  0  0  0  0  0  0
  186.1030  177.5600  139.3810 F   0  0  0  0  0  0  0  0  0  0  0  0
  185.8860  177.2430  144.2520 C   0  0  0  0  0  0  0  0  0  0  0  0
  183.4310  178.5440  141.6710 C   0  0  0  0  0  3  0  0  0  0  0  0
  185.9750  177.3790  141.7620 C   0  0  0  0  0  0  0  0  0  0  0  0
  187.1440  176.6000  144.2860 C   0  0  0  0  0  0  0  0  0  0  0  0
  187.0430  176.5420  146.7130 C   0  0  0  0  0  3  0  0  0  0  0  0
  187.7000  176.2350  145.5210 C   0  0  0  0  0  3  0  0  0  0  0  0
  183.9890  178.1820  142.8990 C   0  0  0  0  0  3  0  0  0  0  0  0
  185.2660  177.6000  142.9570 C   0  0  0  0  0  0  0  0  0  0  0  0
  191.4140  175.5620  142.4860 O   0  0  0  0  0  0  0  0  0  0  0  0
  190.2660  175.3080  142.9390 C   0  0  0  0  0  0  0  0  0  0  0  0
  189.3010  176.3800  143.0490 N   0  0  0  0  0  0  0  0  0  0  0  0
  190.0560  173.4270  144.6220 C   0  0  0  0  0  3  0  0  0  0  0  0
  189.5210  172.9580  142.5120 N   0  0  0  0  0  0  0  0  0  0  0  0
  189.9670  173.9170  143.3380 C   0  0  0  0  0  0  0  0  0  0  0  0
  189.6750  172.1370  144.5930 N   0  0  0  0  0  2  0  0  0  0  0  0
  189.3580  171.8830  143.3070 C   0  0  0  0  0  3  0  0  0  0  0  0
  189.7690  177.7600  143.0630 C   0  0  0  0  0  2  0  0  0  0  0  0
  190.9710  177.8960  143.9850 C   0  0  0  0  0  2  0  0  0  0  0  0
  191.3490  176.7030  146.0920 C   0  0  0  0  0  3  0  0  0  0  0  0
  190.5970  177.5340  145.3810 C   0  0  0  0  0  3  0  0  0  0  0  0
  191.3820  177.1350  148.5370 O   0  0  0  0  0  1  0  0  0  0  0  0
  190.9960  176.3370  147.4650 C   0  0  0  0  0  0  0  0  0  0  0  0
  190.3350  175.2880  147.6760 O   0  0  0  0  0  0  0  0  0  0  0  0
  1  4  1  0  0  0  0
  2 10  1  0  0  0  0
  3  5  2  0  0  0  0
  4 18  1  0  0  0  0
  4 11  2  0  0  0  0
  5 12  1  0  0  0  0
  6  2  2  0  0  0  0
  6  9  1  0  0  0  0
  7  2  1  0  0  0  0
  8 11  1  0  0  0  0
  8  3  1  0  0  0  0
  9 14  2  0  0  0  0
 10  1  2  0  0  0  0
 10 15  1  0  0  0  0
 11 13  1  0  0  0  0
 13 12  2  0  0  0  0
 14 15  1  0  0  0  0
 15  8  2  0  0  0  0
 16 17  2  0  0  0  0
 17 18  1  0  0  0  0
 17 21  1  0  0  0  0
 18 24  1  0  0  0  0
 20 23  2  0  0  0  0
 20 21  1  0  0  0  0
 21 19  2  0  0  0  0
 22 19  1  0  0  0  0
 23 22  1  0  0  0  0
 24 25  1  0  0  0  0
 25 27  1  0  0  0  0
 26 29  1  0  0  0  0
 27 26  2  0  0  0  0
 29 30  2  0  0  0  0
 29 28  1  0  0  0  0
M  END
>  <MODEL>
1

>  <REMARK>
 VINA RESULT:      -7.9      0.000      0.000
  Name = 
  6 active torsions:
  status: ('A' for Active; 'I' for Inactive)
    1  A    between atoms: C_4  and  N_13
    2  A    between atoms: C_7  and  C_15
    3  A    between atoms: C_8  and  C_12
    4  A    between atoms: N_13  and  C_27
    5  A    between atoms: C_16  and  C_30
    6  A    between atoms: C_27  and  C_30
                            x       y       z     vdW  Elec       q    Type
                         _______ _______ _______ _____ _____    ______ ____

>  <TORSDO>
F 6

$$$$
=
 OpenBabel11052417193D

 30 33  0  0  1  0  0  0  0  0999 V2000
  188.5010  176.9650  142.7490 N   0  0  0  0  0  0  0  0  0  0  0  0
  186.6290  178.5460  142.7780 C   0  0  0  0  0  0  0  0  0  0  0  0
  187.8590  176.0540  146.8550 C   0  0  0  0  0  3  0  0  0  0  0  0
  189.2220  175.8140  143.2870 C   0  0  0  0  0  0  0  0  0  0  0  0
  188.6690  175.1280  147.5150 C   0  0  0  0  0  3  0  0  0  0  0  0
  185.5800  179.1760  143.4530 C   0  0  0  0  0  3  0  0  0  0  0  0
  186.8760  178.8620  141.4840 F   0  0  0  0  0  0  0  0  0  0  0  0
  188.0300  176.3050  145.4840 C   0  0  0  0  0  0  0  0  0  0  0  0
  185.3190  178.8640  144.7900 C   0  0  0  0  0  3  0  0  0  0  0  0
  187.4140  177.5910  143.4370 C   0  0  0  0  0  0  0  0  0  0  0  0
  189.0460  175.6220  144.7780 C   0  0  0  0  0  0  0  0  0  0  0  0
  189.6530  174.4350  146.8110 C   0  0  0  0  0  3  0  0  0  0  0  0
  189.8350  174.6740  145.4480 C   0  0  0  0  0  3  0  0  0  0  0  0
  186.1080  177.9220  145.4530 C   0  0  0  0  0  3  0  0  0  0  0  0
  187.1630  177.2800  144.7850 C   0  0  0  0  0  0  0  0  0  0  0  0
  192.2660  174.9930  141.4250 O   0  0  0  0  0  0  0  0  0  0  0  0
  191.2930  174.7420  142.1870 C   0  0  0  0  0  0  0  0  0  0  0  0
  190.6230  175.8360  142.8560 N   0  0  0  0  0  0  0  0  0  0  0  0
  189.9410  172.6850  141.5940 C   0  0  0  0  0  3  0  0  0  0  0  0
  191.4210  172.4780  143.2440 N   0  0  0  0  0  0  0  0  0  0  0  0
  190.8880  173.3320  142.3570 C   0  0  1  0  0  3  0  0  0  0  0  0
  189.8720  171.4120  142.0230 N   0  0  0  0  0  0  0  0  0  0  0  0
  190.7760  171.3170  143.0190 C   0  0  0  0  0  3  0  0  0  0  0  0
  191.3140  177.1110  143.0000 C   0  0  0  0  0  2  0  0  0  0  0  0
  191.9010  177.2330  144.3980 C   0  0  0  0  0  2  0  0  0  0  0  0
  193.7830  175.9050  145.2340 C   0  0  0  0  0  3  0  0  0  0  0  0
  193.3350  176.8310  144.3950 C   0  0  0  0  0  3  0  0  0  0  0  0
  196.0460  175.8690  144.2120 O   0  0  0  0  0  0  0  0  0  0  0  0
  195.1900  175.4990  145.2440 C   0  0  0  0  0  0  0  0  0  0  0  0
  195.6290  174.8070  146.1980 O   0  0  0  0  0  1  0  0  0  0  0  0
  1  4  2  0  0  0  0
  1 10  1  0  0  0  0
  2 10  2  0  0  0  0
  2  6  1  0  0  0  0
  3  5  1  0  0  0  0
  4 11  1  0  0  0  0
  6  9  2  0  0  0  0
  7  2  1  0  0  0  0
  8  3  2  0  0  0  0
  9 14  1  0  0  0  0
 10 15  1  0  0  0  0
 11 13  2  0  0  0  0
 11  8  1  0  0  0  0
 12  5  2  0  0  0  0
 13 12  1  0  0  0  0
 15 14  2  0  0  0  0
 15  8  1  0  0  0  0
 16 17  2  0  0  0  0
 17 18  1  0  0  0  0
 18 24  1  0  0  0  0
 18  4  1  0  0  0  0
 19 22  2  0  0  0  0
 19 21  1  0  0  0  0
 21 17  1  6  0  0  0
 21 20  1  0  0  0  0
 22 23  1  0  0  0  0
 23 20  2  0  0  0  0
 24 25  1  0  0  0  0
 26 29  1  0  0  0  0
 27 25  1  0  0  0  0
 27 26  2  0  0  0  0
 28 29  2  0  0  0  0
 29 30  1  0  0  0  0
M  END
>  <MODEL>
2

>  <REMARK>
 VINA RESULT:      -7.4      2.230      2.994
  Name = 
  6 active torsions:
  status: ('A' for Active; 'I' for Inactive)
    1  A    between atoms: C_4  and  N_13
    2  A    between atoms: C_7  and  C_15
    3  A    between atoms: C_8  and  C_12
    4  A    between atoms: N_13  and  C_27
    5  A    between atoms: C_16  and  C_30
    6  A    between atoms: C_27  and  C_30
                            x       y       z     vdW  Elec       q    Type
                         _______ _______ _______ _____ _____    ______ ____

>  <TORSDO>
F 6

$$$$
=
 OpenBabel11052417193D

 30 33  0  0  1  0  0  0  0  0999 V2000
  189.1340  174.7300  144.6480 N   0  0  0  0  0  0  0  0  0  0  0  0
  189.9310  172.6380  143.6500 C   0  0  0  0  0  0  0  0  0  0  0  0
  187.7600  176.0740  140.8530 C   0  0  0  0  0  3  0  0  0  0  0  0
  188.2830  175.9180  144.6410 C   0  0  0  0  0  0  0  0  0  0  0  0
  187.1410  177.3180  140.7180 C   0  0  0  0  0  3  0  0  0  0  0  0
  190.0920  171.8050  142.5400 C   0  0  0  0  0  3  0  0  0  0  0  0
  190.4080  172.2440  144.8560 F   0  0  0  0  0  0  0  0  0  0  0  0
  188.1540  175.6040  142.1160 C   0  0  0  0  0  0  0  0  0  0  0  0
  189.6110  172.2020  141.2900 C   0  0  0  0  0  3  0  0  0  0  0  0
  189.2770  173.8690  143.5140 C   0  0  0  0  0  0  0  0  0  0  0  0
  187.9340  176.4130  143.2540 C   0  0  0  0  0  0  0  0  0  0  0  0
  186.9000  178.1030  141.8450 C   0  0  0  0  0  3  0  0  0  0  0  0
  187.2870  177.6490  143.1070 C   0  0  0  0  0  3  0  0  0  0  0  0
  188.9700  173.4350  141.1480 C   0  0  0  0  0  3  0  0  0  0  0  0
  188.8000  174.2800  142.2560 C   0  0  0  0  0  0  0  0  0  0  0  0
  188.7290  178.0880  147.5550 O   0  0  0  0  0  0  0  0  0  0  0  0
  188.1010  177.6230  146.5660 C   0  0  0  0  0  0  0  0  0  0  0  0
  188.8380  176.9540  145.5160 N   0  0  0  0  0  0  0  0  0  0  0  0
  185.9770  178.9750  146.2990 C   0  0  0  0  0  3  0  0  0  0  0  0
  185.7430  176.7930  146.6780 N   0  0  0  0  0  0  0  0  0  0  0  0
  186.6330  177.7870  146.5330 C   0  0  1  0  0  3  0  0  0  0  0  0
  184.6560  178.7210  146.3140 N   0  0  0  0  0  0  0  0  0  0  0  0
  184.5460  177.3960  146.5450 C   0  0  0  0  0  3  0  0  0  0  0  0
  190.2680  177.2010  145.3830 C   0  0  0  0  0  2  0  0  0  0  0  0
  190.5230  178.2230  144.2850 C   0  0  0  0  0  2  0  0  0  0  0  0
  191.8740  176.4090  143.3410 C   0  0  0  0  0  3  0  0  0  0  0  0
  191.3760  177.6330  143.2160 C   0  0  0  0  0  3  0  0  0  0  0  0
  192.3040  174.6760  141.6160 O   0  0  0  0  0  0  0  0  0  0  0  0
  192.7150  175.8150  142.2990 C   0  0  0  0  0  0  0  0  0  0  0  0
  193.8220  176.3440  142.0200 O   0  0  0  0  0  1  0  0  0  0  0  0
  2  7  1  0  0  0  0
  3  8  1  0  0  0  0
  4  1  1  0  0  0  0
  4 18  1  0  0  0  0
  5  3  2  0  0  0  0
  5 12  1  0  0  0  0
  6  2  2  0  0  0  0
  8 15  2  0  0  0  0
  8 11  1  0  0  0  0
  9  6  1  0  0  0  0
 10  2  1  0  0  0  0
 10  1  2  0  0  0  0
 11  4  2  0  0  0  0
 12 13  2  0  0  0  0
 13 11  1  0  0  0  0
 14  9  2  0  0  0  0
 14 15  1  0  0  0  0
 15 10  1  0  0  0  0
 17 16  2  0  0  0  0
 18 17  1  0  0  0  0
 19 22  2  0  0  0  0
 19 21  1  0  0  0  0
 21 17  1  6  0  0  0
 21 20  1  0  0  0  0
 22 23  1  0  0  0  0
 23 20  2  0  0  0  0
 24 18  1  0  0  0  0
 25 24  1  0  0  0  0
 27 26  2  0  0  0  0
 27 25  1  0  0  0  0
 28 29  2  0  0  0  0
 29 26  1  0  0  0  0
 30 29  1  0  0  0  0
M  END
>  <MODEL>
3

>  <REMARK>
 VINA RESULT:      -7.3      2.661      5.819
  Name = 
  6 active torsions:
  status: ('A' for Active; 'I' for Inactive)
    1  A    between atoms: C_4  and  N_13
    2  A    between atoms: C_7  and  C_15
    3  A    between atoms: C_8  and  C_12
    4  A    between atoms: N_13  and  C_27
    5  A    between atoms: C_16  and  C_30
    6  A    between atoms: C_27  and  C_30
                            x       y       z     vdW  Elec       q    Type
                         _______ _______ _______ _____ _____    ______ ____

>  <TORSDO>
F 6

$$$$
=
 OpenBabel11052417193D

 30 33  0  0  0  0  0  0  0  0999 V2000
  191.8880  175.8890  142.9020 N   0  0  0  0  0  0  0  0  0  0  0  0
  194.2750  176.2480  143.3220 C   0  0  0  0  0  0  0  0  0  0  0  0
  191.1850  175.3660  147.0650 C   0  0  0  0  0  3  0  0  0  0  0  0
  190.4930  175.8730  143.3350 C   0  0  0  0  0  0  0  0  0  0  0  0
  189.8990  175.1080  147.5450 C   0  0  0  0  0  3  0  0  0  0  0  0
  195.3510  176.3580  144.2070 C   0  0  0  0  0  3  0  0  0  0  0  0
  194.4920  176.3630  141.9890 F   0  0  0  0  0  0  0  0  0  0  0  0
  191.4040  175.6030  145.6990 C   0  0  0  0  0  0  0  0  0  0  0  0
  195.1420  176.2340  145.5830 C   0  0  0  0  0  3  0  0  0  0  0  0
  192.9830  176.0240  143.8130 C   0  0  0  0  0  0  0  0  0  0  0  0
  190.3110  175.5590  144.8050 C   0  0  0  0  0  0  0  0  0  0  0  0
  188.8170  175.0920  146.6650 C   0  0  0  0  0  3  0  0  0  0  0  0
  189.0210  175.3250  145.3040 C   0  0  0  0  0  3  0  0  0  0  0  0
  193.8570  175.9980  146.0750 C   0  0  0  0  0  3  0  0  0  0  0  0
  192.7670  175.8880  145.1960 C   0  0  0  0  0  0  0  0  0  0  0  0
  188.1800  174.9070  140.6670 O   0  0  0  0  0  0  0  0  0  0  0  0
  188.5030  175.4750  141.7450 C   0  0  0  0  0  0  0  0  0  0  0  0
  189.6870  175.0300  142.4470 N   0  0  0  0  0  0  0  0  0  0  0  0
  187.8450  177.9100  141.9660 C   0  0  0  0  0  3  0  0  0  0  0  0
  186.5350  176.4160  142.9710 N   0  0  0  0  0  0  0  0  0  0  0  0
  187.6470  176.5740  142.2360 C   0  0  0  0  0  0  0  0  0  0  0  0
  186.8490  178.5970  142.5550 N   0  0  0  0  0  2  0  0  0  0  0  0
  186.0750  177.6680  143.1530 C   0  0  0  0  0  3  0  0  0  0  0  0
  190.2230  173.7040  142.1680 C   0  0  0  0  0  2  0  0  0  0  0  0
  189.6020  172.6800  143.1050 C   0  0  0  0  0  2  0  0  0  0  0  0
  191.9260  172.3920  143.8240 C   0  0  0  0  0  3  0  0  0  0  0  0
  190.6520  172.0440  143.9480 C   0  0  0  0  0  3  0  0  0  0  0  0
  193.2230  170.4110  144.5710 O   0  0  0  0  0  0  0  0  0  0  0  0
  192.9710  171.7760  144.6450 C   0  0  0  0  0  0  0  0  0  0  0  0
  193.6480  172.4930  145.4270 O   0  0  0  0  0  1  0  0  0  0  0  0
  1  4  2  0  0  0  0
  1 10  1  0  0  0  0
  2 10  2  0  0  0  0
  2  6  1  0  0  0  0
  3  5  1  0  0  0  0
  4 11  1  0  0  0  0
  6  9  2  0  0  0  0
  7  2  1  0  0  0  0
  8  3  2  0  0  0  0
  9 14  1  0  0  0  0
 10 15  1  0  0  0  0
 11 13  2  0  0  0  0
 11  8  1  0  0  0  0
 12  5  2  0  0  0  0
 13 12  1  0  0  0  0
 15  8  1  0  0  0  0
 15 14  2  0  0  0  0
 16 17  2  0  0  0  0
 17 21  1  0  0  0  0
 17 18  1  0  0  0  0
 18  4  1  0  0  0  0
 19 21  2  0  0  0  0
 19 22  1  0  0  0  0
 20 23  2  0  0  0  0
 21 20  1  0  0  0  0
 22 23  1  0  0  0  0
 24 18  1  0  0  0  0
 24 25  1  0  0  0  0
 25 27  1  0  0  0  0
 26 27  2  0  0  0  0
 26 29  1  0  0  0  0
 28 29  2  0  0  0  0
 29 30  1  0  0  0  0
M  END
>  <MODEL>
4

>  <REMARK>
 VINA RESULT:      -7.3      3.034      6.480
  Name = 
  6 active torsions:
  status: ('A' for Active; 'I' for Inactive)
    1  A    between atoms: C_4  and  N_13
    2  A    between atoms: C_7  and  C_15
    3  A    between atoms: C_8  and  C_12
    4  A    between atoms: N_13  and  C_27
    5  A    between atoms: C_16  and  C_30
    6  A    between atoms: C_27  and  C_30
                            x       y       z     vdW  Elec       q    Type
                         _______ _______ _______ _____ _____    ______ ____

>  <TORSDO>
F 6

$$$$
=
 OpenBabel11052417193D

 30 33  0  0  0  0  0  0  0  0999 V2000
  190.8620  176.1980  143.0490 N   0  0  0  0  0  0  0  0  0  0  0  0
  193.1620  176.2130  143.8930 C   0  0  0  0  0  0  0  0  0  0  0  0
  189.3510  176.3750  147.0210 C   0  0  0  0  0  3  0  0  0  0  0  0
  189.4340  176.4720  143.1960 C   0  0  0  0  0  0  0  0  0  0  0  0
  187.9750  176.4000  147.2610 C   0  0  0  0  0  3  0  0  0  0  0  0
  194.0660  176.2650  144.9570 C   0  0  0  0  0  3  0  0  0  0  0  0
  193.6280  176.1070  142.6240 F   0  0  0  0  0  0  0  0  0  0  0  0
  189.8480  176.3830  145.7090 C   0  0  0  0  0  0  0  0  0  0  0  0
  193.5990  176.3680  146.2690 C   0  0  0  0  0  3  0  0  0  0  0  0
  191.7850  176.2750  144.1390 C   0  0  0  0  0  0  0  0  0  0  0  0
  188.9400  176.3970  144.6250 C   0  0  0  0  0  0  0  0  0  0  0  0
  187.0820  176.4420  146.1910 C   0  0  0  0  0  3  0  0  0  0  0  0
  187.5620  176.4490  144.8810 C   0  0  0  0  0  3  0  0  0  0  0  0
  192.2250  176.4160  146.5190 C   0  0  0  0  0  3  0  0  0  0  0  0
  191.3070  176.3670  145.4580 C   0  0  0  0  0  0  0  0  0  0  0  0
  187.5130  173.6640  141.8460 O   0  0  0  0  0  0  0  0  0  0  0  0
  188.5420  174.2180  142.3180 C   0  0  0  0  0  0  0  0  0  0  0  0
  188.6540  175.6590  142.2590 N   0  0  0  0  0  0  0  0  0  0  0  0
  190.6300  172.7900  142.2160 C   0  0  0  0  0  3  0  0  0  0  0  0
  189.6860  173.0550  144.2150 N   0  0  0  0  0  0  0  0  0  0  0  0
  189.5860  173.3590  142.9110 C   0  0  0  0  0  0  0  0  0  0  0  0
  191.3840  172.1090  143.0980 N   0  0  0  0  0  2  0  0  0  0  0  0
  190.7890  172.2870  144.2950 C   0  0  0  0  0  3  0  0  0  0  0  0
  187.8380  176.3980  141.3030 C   0  0  0  0  0  2  0  0  0  0  0  0
  187.9470  177.8920  141.5660 C   0  0  0  0  0  2  0  0  0  0  0  0
  185.5850  177.6400  142.1680 C   0  0  0  0  0  3  0  0  0  0  0  0
  186.6360  178.4370  142.0140 C   0  0  0  0  0  3  0  0  0  0  0  0
  184.0760  178.5150  143.9350 O   0  0  0  0  0  1  0  0  0  0  0  0
  184.2890  178.1610  142.6080 C   0  0  0  0  0  0  0  0  0  0  0  0
  183.3570  178.2890  141.7730 O   0  0  0  0  0  0  0  0  0  0  0  0
  1  4  2  0  0  0  0
  1 10  1  0  0  0  0
  2 10  2  0  0  0  0
  2  6  1  0  0  0  0
  3  5  1  0  0  0  0
  4 11  1  0  0  0  0
  6  9  2  0  0  0  0
  7  2  1  0  0  0  0
  8  3  2  0  0  0  0
  9 14  1  0  0  0  0
 10 15  1  0  0  0  0
 11 13  2  0  0  0  0
 11  8  1  0  0  0  0
 12  5  2  0  0  0  0
 13 12  1  0  0  0  0
 15  8  1  0  0  0  0
 15 14  2  0  0  0  0
 16 17  2  0  0  0  0
 17 21  1  0  0  0  0
 18 17  1  0  0  0  0
 18  4  1  0  0  0  0
 19 21  2  0  0  0  0
 19 22  1  0  0  0  0
 20 23  2  0  0  0  0
 21 20  1  0  0  0  0
 22 23  1  0  0  0  0
 24 25  1  0  0  0  0
 24 18  1  0  0  0  0
 25 27  1  0  0  0  0
 26 29  1  0  0  0  0
 27 26  2  0  0  0  0
 29 28  1  0  0  0  0
 30 29  2  0  0  0  0
M  END
>  <MODEL>
5

>  <REMARK>
 VINA RESULT:      -7.2      3.110      5.819
  Name = 
  6 active torsions:
  status: ('A' for Active; 'I' for Inactive)
    1  A    between atoms: C_4  and  N_13
    2  A    between atoms: C_7  and  C_15
    3  A    between atoms: C_8  and  C_12
    4  A    between atoms: N_13  and  C_27
    5  A    between atoms: C_16  and  C_30
    6  A    between atoms: C_27  and  C_30
                            x       y       z     vdW  Elec       q    Type
                         _______ _______ _______ _____ _____    ______ ____

>  <TORSDO>
F 6

$$$$
=
 OpenBabel11052417193D

 30 33  0  0  1  0  0  0  0  0999 V2000
  190.5030  176.9300  143.6550 N   0  0  0  0  0  0  0  0  0  0  0  0
  188.8260  177.8630  142.1330 C   0  0  0  0  0  0  0  0  0  0  0  0
  188.9450  173.0170  143.0520 C   0  0  0  0  0  3  0  0  0  0  0  0
  191.3050  175.8180  144.1630 C   0  0  0  0  0  0  0  0  0  0  0  0
  189.5130  171.9160  143.6960 C   0  0  0  0  0  3  0  0  0  0  0  0
  187.7450  177.6940  141.2630 C   0  0  0  0  0  3  0  0  0  0  0  0
  189.3010  179.1090  142.3730 F   0  0  0  0  0  0  0  0  0  0  0  0
  189.5010  174.2980  143.2010 C   0  0  0  0  0  0  0  0  0  0  0  0
  187.2410  176.4150  141.0130 C   0  0  0  0  0  3  0  0  0  0  0  0
  189.4130  176.7500  142.7470 C   0  0  0  0  0  0  0  0  0  0  0  0
  190.6350  174.4670  144.0270 C   0  0  0  0  0  0  0  0  0  0  0  0
  190.6490  172.0810  144.4890 C   0  0  0  0  0  3  0  0  0  0  0  0
  191.2120  173.3480  144.6460 C   0  0  0  0  0  3  0  0  0  0  0  0
  187.8160  175.3040  141.6340 C   0  0  0  0  0  3  0  0  0  0  0  0
  188.9030  175.4610  142.5080 C   0  0  0  0  0  0  0  0  0  0  0  0
  193.5570  176.7600  146.8910 O   0  0  0  0  0  0  0  0  0  0  0  0
  193.1710  176.0450  145.9270 C   0  0  0  0  0  0  0  0  0  0  0  0
  191.7850  176.1060  145.5180 N   0  0  0  0  0  0  0  0  0  0  0  0
  194.9130  175.5320  144.1620 C   0  0  0  0  0  3  0  0  0  0  0  0
  194.5060  173.9440  145.6700 N   0  0  0  0  0  0  0  0  0  0  0  0
  194.1650  175.1770  145.2620 C   0  0  1  0  0  3  0  0  0  0  0  0
  195.7240  174.4990  143.8700 N   0  0  0  0  0  0  0  0  0  0  0  0
  195.4550  173.5560  144.7970 C   0  0  0  0  0  3  0  0  0  0  0  0
  190.7890  176.6180  146.4500 C   0  0  0  0  0  2  0  0  0  0  0  0
  190.0470  175.4660  147.1090 C   0  0  0  0  0  2  0  0  0  0  0  0
  188.0850  176.6200  146.2000 C   0  0  0  0  0  3  0  0  0  0  0  0
  188.5850  175.5710  146.8420 C   0  0  0  0  0  3  0  0  0  0  0  0
  186.1740  176.7920  144.6250 O   0  0  0  0  0  0  0  0  0  0  0  0
  186.6500  176.7380  145.9300 C   0  0  0  0  0  0  0  0  0  0  0  0
  185.8410  176.7910  146.8910 O   0  0  0  0  0  1  0  0  0  0  0  0
  1  4  1  0  0  0  0
  2  7  1  0  0  0  0
  2 10  1  0  0  0  0
  3  8  1  0  0  0  0
  3  5  2  0  0  0  0
  4 18  1  0  0  0  0
  5 12  1  0  0  0  0
  6  2  2  0  0  0  0
  8 11  1  0  0  0  0
  9  6  1  0  0  0  0
  9 14  2  0  0  0  0
 10  1  2  0  0  0  0
 11  4  2  0  0  0  0
 11 13  1  0  0  0  0
 12 13  2  0  0  0  0
 14 15  1  0  0  0  0
 15 10  1  0  0  0  0
 15  8  2  0  0  0  0
 17 16  2  0  0  0  0
 18 17  1  0  0  0  0
 18 24  1  0  0  0  0
 19 21  1  0  0  0  0
 21 20  1  0  0  0  0
 21 17  1  1  0  0  0
 22 19  2  0  0  0  0
 22 23  1  0  0  0  0
 23 20  2  0  0  0  0
 24 25  1  0  0  0  0
 26 27  2  0  0  0  0
 27 25  1  0  0  0  0
 28 29  2  0  0  0  0
 29 26  1  0  0  0  0
 29 30  1  0  0  0  0
M  END
>  <MODEL>
6

>  <REMARK>
 VINA RESULT:      -7.1      2.930      4.855
  Name = 
  6 active torsions:
  status: ('A' for Active; 'I' for Inactive)
    1  A    between atoms: C_4  and  N_13
    2  A    between atoms: C_7  and  C_15
    3  A    between atoms: C_8  and  C_12
    4  A    between atoms: N_13  and  C_27
    5  A    between atoms: C_16  and  C_30
    6  A    between atoms: C_27  and  C_30
                            x       y       z     vdW  Elec       q    Type
                         _______ _______ _______ _____ _____    ______ ____

>  <TORSDO>
F 6

$$$$
=
 OpenBabel11052417193D

 30 33  0  0  0  0  0  0  0  0999 V2000
  191.5560  176.1450  142.9920 N   0  0  0  0  0  0  0  0  0  0  0  0
  193.9860  176.1660  143.3100 C   0  0  0  0  0  0  0  0  0  0  0  0
  190.9750  175.2700  147.1150 C   0  0  0  0  0  3  0  0  0  0  0  0
  190.1900  176.2520  143.5000 C   0  0  0  0  0  0  0  0  0  0  0  0
  189.6890  175.1190  147.6380 C   0  0  0  0  0  3  0  0  0  0  0  0
  195.1040  176.0500  144.1400 C   0  0  0  0  0  3  0  0  0  0  0  0
  194.1570  176.3950  141.9850 F   0  0  0  0  0  0  0  0  0  0  0  0
  191.1630  175.6230  145.7690 C   0  0  0  0  0  0  0  0  0  0  0  0
  194.9420  175.8070  145.5060 C   0  0  0  0  0  3  0  0  0  0  0  0
  192.6980  176.0490  143.8490 C   0  0  0  0  0  0  0  0  0  0  0  0
  190.0340  175.8070  144.9380 C   0  0  0  0  0  0  0  0  0  0  0  0
  188.5760  175.3280  146.8230 C   0  0  0  0  0  3  0  0  0  0  0  0
  188.7480  175.6790  145.4830 C   0  0  0  0  0  3  0  0  0  0  0  0
  193.6590  175.6760  146.0430 C   0  0  0  0  0  3  0  0  0  0  0  0
  192.5270  175.7930  145.2210 C   0  0  0  0  0  0  0  0  0  0  0  0
  187.9300  173.7500  142.0730 O   0  0  0  0  0  0  0  0  0  0  0  0
  189.0450  174.1840  142.4720 C   0  0  0  0  0  0  0  0  0  0  0  0
  189.2470  175.6120  142.5780 N   0  0  0  0  0  0  0  0  0  0  0  0
  190.0910  172.3990  143.9330 C   0  0  0  0  0  3  0  0  0  0  0  0
  191.1620  172.9190  142.0500 N   0  0  0  0  0  0  0  0  0  0  0  0
  190.0930  173.2000  142.8120 C   0  0  0  0  0  0  0  0  0  0  0  0
  191.1850  171.6180  143.8770 N   0  0  0  0  0  2  0  0  0  0  0  0
  191.8110  171.9550  142.7310 C   0  0  0  0  0  3  0  0  0  0  0  0
  188.3720  176.5110  141.8370 C   0  0  0  0  0  2  0  0  0  0  0  0
  188.4120  177.9030  142.4500 C   0  0  0  0  0  2  0  0  0  0  0  0
  186.7430  178.2340  144.2140 C   0  0  0  0  0  3  0  0  0  0  0  0
  187.0580  178.3000  142.9260 C   0  0  0  0  0  3  0  0  0  0  0  0
  184.8130  179.7940  144.2630 O   0  0  0  0  0  0  0  0  0  0  0  0
  185.4160  178.6200  144.6980 C   0  0  0  0  0  0  0  0  0  0  0  0
  184.8160  177.8780  145.5180 O   0  0  0  0  0  1  0  0  0  0  0  0
  1  4  2  0  0  0  0
  1 10  1  0  0  0  0
  2 10  2  0  0  0  0
  2  6  1  0  0  0  0
  3  5  1  0  0  0  0
  4 11  1  0  0  0  0
  6  9  2  0  0  0  0
  7  2  1  0  0  0  0
  8  3  2  0  0  0  0
  9 14  1  0  0  0  0
 10 15  1  0  0  0  0
 11 13  2  0  0  0  0
 11  8  1  0  0  0  0
 12  5  2  0  0  0  0
 13 12  1  0  0  0  0
 15  8  1  0  0  0  0
 15 14  2  0  0  0  0
 16 17  2  0  0  0  0
 17 18  1  0  0  0  0
 17 21  1  0  0  0  0
 18  4  1  0  0  0  0
 20 23  2  0  0  0  0
 20 21  1  0  0  0  0
 21 19  2  0  0  0  0
 22 19  1  0  0  0  0
 23 22  1  0  0  0  0
 24 25  1  0  0  0  0
 24 18  1  0  0  0  0
 25 27  1  0  0  0  0
 26 29  1  0  0  0  0
 27 26  2  0  0  0  0
 28 29  2  0  0  0  0
 29 30  1  0  0  0  0
M  END
>  <MODEL>
7

>  <REMARK>
 VINA RESULT:      -7.1      3.171      5.930
  Name = 
  6 active torsions:
  status: ('A' for Active; 'I' for Inactive)
    1  A    between atoms: C_4  and  N_13
    2  A    between atoms: C_7  and  C_15
    3  A    between atoms: C_8  and  C_12
    4  A    between atoms: N_13  and  C_27
    5  A    between atoms: C_16  and  C_30
    6  A    between atoms: C_27  and  C_30
                            x       y       z     vdW  Elec       q    Type
                         _______ _______ _______ _____ _____    ______ ____

>  <TORSDO>
F 6

$$$$
=
 OpenBabel11052417193D

 30 33  0  0  1  0  0  0  0  0999 V2000
  189.3610  176.8560  143.9870 N   0  0  0  0  0  0  0  0  0  0  0  0
  188.1200  177.8300  142.1120 C   0  0  0  0  0  0  0  0  0  0  0  0
  188.7900  172.9510  142.3990 C   0  0  0  0  0  3  0  0  0  0  0  0
  190.1410  175.7800  144.5950 C   0  0  0  0  0  0  0  0  0  0  0  0
  189.3070  171.8310  143.0550 C   0  0  0  0  0  3  0  0  0  0  0  0
  187.4210  177.6860  140.9110 C   0  0  0  0  0  3  0  0  0  0  0  0
  188.2680  179.0630  142.6550 F   0  0  0  0  0  0  0  0  0  0  0  0
  189.0360  174.2430  142.8900 C   0  0  0  0  0  0  0  0  0  0  0  0
  187.2570  176.4200  140.3440 C   0  0  0  0  0  3  0  0  0  0  0  0
  188.6670  176.7070  142.7450 C   0  0  0  0  0  0  0  0  0  0  0  0
  189.7980  174.4030  144.0690 C   0  0  0  0  0  0  0  0  0  0  0  0
  190.0830  171.9920  144.2030 C   0  0  0  0  0  3  0  0  0  0  0  0
  190.3340  173.2710  144.7020 C   0  0  0  0  0  3  0  0  0  0  0  0
  187.7890  175.2960  140.9800 C   0  0  0  0  0  3  0  0  0  0  0  0
  188.4950  175.4280  142.1860 C   0  0  0  0  0  0  0  0  0  0  0  0
  191.0030  176.8190  147.9970 O   0  0  0  0  0  0  0  0  0  0  0  0
  191.2260  176.2810  146.8790 C   0  0  0  0  0  0  0  0  0  0  0  0
  190.1050  175.8800  146.0570 N   0  0  0  0  0  0  0  0  0  0  0  0
  193.2390  174.8680  146.2800 C   0  0  0  0  0  3  0  0  0  0  0  0
  193.4890  177.0780  146.1700 N   0  0  0  0  0  0  0  0  0  0  0  0
  192.6310  176.0890  146.4660 C   0  0  1  0  0  3  0  0  0  0  0  0
  194.5020  175.0990  145.8770 N   0  0  0  0  0  0  0  0  0  0  0  0
  194.6230  176.4410  145.8200 C   0  0  0  0  0  3  0  0  0  0  0  0
  188.8000  175.6900  146.6760 C   0  0  0  0  0  2  0  0  0  0  0  0
  188.0970  177.0300  146.8360 C   0  0  0  0  0  2  0  0  0  0  0  0
  186.3910  178.1510  145.4810 C   0  0  0  0  0  3  0  0  0  0  0  0
  186.8210  177.0410  146.0670 C   0  0  0  0  0  3  0  0  0  0  0  0
  184.0640  178.9510  145.1490 O   0  0  0  0  0  1  0  0  0  0  0  0
  185.1380  178.1790  144.7220 C   0  0  0  0  0  0  0  0  0  0  0  0
  185.0350  177.4960  143.6710 O   0  0  0  0  0  0  0  0  0  0  0  0
  1  4  1  0  0  0  0
  2  7  1  0  0  0  0
  2 10  1  0  0  0  0
  3  8  1  0  0  0  0
  3  5  2  0  0  0  0
  4 18  1  0  0  0  0
  5 12  1  0  0  0  0
  6  2  2  0  0  0  0
  8 11  1  0  0  0  0
  9  6  1  0  0  0  0
  9 14  2  0  0  0  0
 10  1  2  0  0  0  0
 11  4  2  0  0  0  0
 11 13  1  0  0  0  0
 12 13  2  0  0  0  0
 14 15  1  0  0  0  0
 15 10  1  0  0  0  0
 15  8  2  0  0  0  0
 17 16  2  0  0  0  0
 18 24  1  0  0  0  0
 18 17  1  0  0  0  0
 19 21  1  0  0  0  0
 20 21  1  0  0  0  0
 21 17  1  6  0  0  0
 22 19  2  0  0  0  0
 23 22  1  0  0  0  0
 23 20  2  0  0  0  0
 24 25  1  0  0  0  0
 26 27  2  0  0  0  0
 27 25  1  0  0  0  0
 29 28  1  0  0  0  0
 29 26  1  0  0  0  0
 30 29  2  0  0  0  0
M  END
>  <MODEL>
8

>  <REMARK>
 VINA RESULT:      -6.9      2.893      5.102
  Name = 
  6 active torsions:
  status: ('A' for Active; 'I' for Inactive)
    1  A    between atoms: C_4  and  N_13
    2  A    between atoms: C_7  and  C_15
    3  A    between atoms: C_8  and  C_12
    4  A    between atoms: N_13  and  C_27
    5  A    between atoms: C_16  and  C_30
    6  A    between atoms: C_27  and  C_30
                            x       y       z     vdW  Elec       q    Type
                         _______ _______ _______ _____ _____    ______ ____

>  <TORSDO>
F 6

$$$$
=
 OpenBabel11052417193D

 30 33  0  0  1  0  0  0  0  0999 V2000
  191.3440  176.6980  143.0900 N   0  0  0  0  0  0  0  0  0  0  0  0
  189.1000  177.3960  142.3980 C   0  0  0  0  0  0  0  0  0  0  0  0
  189.9800  172.7090  143.6600 C   0  0  0  0  0  3  0  0  0  0  0  0
  192.3690  175.6770  143.2950 C   0  0  0  0  0  0  0  0  0  0  0  0
  190.8560  171.7100  144.0900 C   0  0  0  0  0  3  0  0  0  0  0  0
  187.7620  177.0960  142.1300 C   0  0  0  0  0  3  0  0  0  0  0  0
  189.5370  178.6730  142.2680 F   0  0  0  0  0  0  0  0  0  0  0  0
  190.4460  174.0090  143.4100 C   0  0  0  0  0  0  0  0  0  0  0  0
  187.2970  175.7860  142.2660 C   0  0  0  0  0  3  0  0  0  0  0  0
  189.9800  176.3820  142.7940 C   0  0  0  0  0  0  0  0  0  0  0  0
  191.8120  174.3060  143.6150 C   0  0  0  0  0  0  0  0  0  0  0  0
  192.2090  171.9980  144.2650 C   0  0  0  0  0  3  0  0  0  0  0  0
  192.6860  173.2860  144.0210 C   0  0  0  0  0  3  0  0  0  0  0  0
  188.1690  174.7740  142.6740 C   0  0  0  0  0  3  0  0  0  0  0  0
  189.5170  175.0630  142.9440 C   0  0  0  0  0  0  0  0  0  0  0  0
  195.5330  176.9690  144.6070 O   0  0  0  0  0  0  0  0  0  0  0  0
  194.8030  176.1320  144.0100 C   0  0  0  0  0  0  0  0  0  0  0  0
  193.3770  176.1430  144.2510 N   0  0  0  0  0  0  0  0  0  0  0  0
  196.1940  174.0840  143.4770 C   0  0  0  0  0  3  0  0  0  0  0  0
  195.3640  175.2170  141.7490 N   0  0  0  0  0  0  0  0  0  0  0  0
  195.4520  175.1770  143.0880 C   0  0  1  0  0  3  0  0  0  0  0  0
  196.5890  173.4410  142.3630 N   0  0  0  0  0  0  0  0  0  0  0  0
  196.0730  174.1490  141.3370 C   0  0  0  0  0  3  0  0  0  0  0  0
  192.8640  176.7830  145.4560 C   0  0  0  0  0  2  0  0  0  0  0  0
  192.8990  175.8060  146.6220 C   0  0  0  0  0  2  0  0  0  0  0  0
  190.4560  175.9790  146.5470 C   0  0  0  0  0  3  0  0  0  0  0  0
  191.5320  175.2900  146.9060 C   0  0  0  0  0  3  0  0  0  0  0  0
  188.0000  176.0470  146.1890 O   0  0  0  0  0  0  0  0  0  0  0  0
  189.1040  175.4850  146.8200 C   0  0  0  0  0  0  0  0  0  0  0  0
  188.9420  174.5400  147.6350 O   0  0  0  0  0  1  0  0  0  0  0  0
  1  4  1  0  0  0  0
  2 10  1  0  0  0  0
  3  5  2  0  0  0  0
  4 11  2  0  0  0  0
  4 18  1  0  0  0  0
  5 12  1  0  0  0  0
  6  9  1  0  0  0  0
  6  2  2  0  0  0  0
  7  2  1  0  0  0  0
  8 11  1  0  0  0  0
  8  3  1  0  0  0  0
  9 14  2  0  0  0  0
 10 15  1  0  0  0  0
 10  1  2  0  0  0  0
 11 13  1  0  0  0  0
 13 12  2  0  0  0  0
 14 15  1  0  0  0  0
 15  8  2  0  0  0  0
 17 18  1  0  0  0  0
 17 16  2  0  0  0  0
 18 24  1  0  0  0  0
 20 21  1  0  0  0  0
 21 19  1  0  0  0  0
 21 17  1  1  0  0  0
 22 19  2  0  0  0  0
 23 20  2  0  0  0  0
 23 22  1  0  0  0  0
 24 25  1  0  0  0  0
 25 27  1  0  0  0  0
 26 29  1  0  0  0  0
 26 27  2  0  0  0  0
 28 29  2  0  0  0  0
 29 30  1  0  0  0  0
M  END
>  <MODEL>
9

>  <REMARK>
 VINA RESULT:      -6.9      3.336      5.162
  Name = 
  6 active torsions:
  status: ('A' for Active; 'I' for Inactive)
    1  A    between atoms: C_4  and  N_13
    2  A    between atoms: C_7  and  C_15
    3  A    between atoms: C_8  and  C_12
    4  A    between atoms: N_13  and  C_27
    5  A    between atoms: C_16  and  C_30
    6  A    between atoms: C_27  and  C_30
                            x       y       z     vdW  Elec       q    Type
                         _______ _______ _______ _____ _____    ______ ____

>  <TORSDO>
F 6

$$$$
