=
 OpenBabel11052420023D

 37 41  0  0  1  0  0  0  0  0999 V2000
  193.1130  175.5440  145.5400 C   0  0  2  0  0  3  0  0  0  0  0  0
  189.9900  177.2050  144.9110 C   0  0  0  0  0  2  0  0  0  0  0  0
  189.8000  174.6440  144.8100 C   0  0  2  0  0  3  0  0  0  0  0  0
  191.9310  177.0640  148.4320 O   0  0  0  0  0  1  0  0  0  0  0  0
  189.8930  175.9570  144.0290 C   0  0  0  0  0  2  0  0  0  0  0  0
  193.1360  175.8720  146.9030 O   0  0  0  0  0  0  0  0  0  0  0  0
  191.8960  176.4710  147.1710 C   0  0  1  0  0  3  0  0  0  0  0  0
  189.0960  177.2120  146.1650 C   0  0  2  0  0  3  0  0  0  0  0  0
  190.8690  174.4640  145.9000 C   0  0  2  0  0  3  0  0  0  0  0  0
  189.3710  176.1050  147.2070 C   0  0  0  0  0  2  0  0  0  0  0  0
  190.7550  175.4370  147.1080 C   0  0  2  0  0  3  0  0  0  0  0  0
  192.2920  174.2760  145.3550 C   0  0  0  0  0  2  0  0  0  0  0  0
  187.6380  177.3280  145.8440 C   0  0  0  0  0  0  0  0  0  0  0  0
  184.7210  178.4070  146.5140 C   0  0  0  0  0  2  0  0  0  0  0  0
  183.8920  178.8490  145.3190 C   0  0  0  0  0  2  0  0  0  0  0  0
  184.7470  179.6010  144.3080 C   0  0  0  0  0  2  0  0  0  0  0  0
  186.8930  178.5170  143.6410 C   0  0  0  0  0  3  0  0  0  0  0  0
  185.4360  178.6470  143.3380 C   0  0  0  0  0  2  0  0  0  0  0  0
  185.1580  176.9630  146.3410 C   0  0  0  0  0  2  0  0  0  0  0  0
  187.2910  177.9240  144.7320 C   0  0  0  0  0  0  0  0  0  0  0  0
  186.6020  176.7890  146.8050 C   0  0  0  0  0  2  0  0  0  0  0  0
  194.5280  175.3180  145.0410 C   0  0  0  0  0  3  0  0  0  0  0  0
  195.2390  176.6510  144.9270 C   0  0  0  0  0  2  0  0  0  0  0  0
  194.6930  175.9760  143.6870 C   0  0  0  0  0  2  0  0  0  0  0  0
  189.7260  173.4400  143.8800 C   0  0  0  0  0  2  0  0  0  0  0  0
  189.2670  173.8650  140.1420 N   0  0  0  0  0  0  0  0  0  0  0  0
  189.7600  173.3800  141.3170 C   0  0  0  0  0  0  0  0  0  0  0  0
  188.2560  174.7710  140.0930 C   0  0  0  0  0  3  0  0  0  0  0  0
  188.1640  174.7780  142.4920 C   0  0  0  0  0  3  0  0  0  0  0  0
  187.6820  175.2430  141.2700 C   0  0  0  0  0  3  0  0  0  0  0  0
  189.2050  173.8450  142.5350 C   0  0  0  0  0  0  0  0  0  0  0  0
  191.4830  169.9190  141.3440 C   0  0  0  0  0  0  0  0  0  0  0  0
  190.8530  172.3830  141.2490 C   0  0  0  0  0  0  0  0  0  0  0  0
  190.5380  170.9910  141.3920 N   0  0  0  0  0  2  0  0  0  0  0  0
  192.0510  172.7440  141.0860 O   0  0  0  0  0  0  0  0  0  0  0  0
  190.9130  168.2390  141.5490 S   0  0  0  0  0  1  0  0  0  0  0  0
  192.7090  170.1380  141.1590 O   0  0  0  0  0  0  0  0  0  0  0  0
  1 22  1  1  0  0  0
  1  6  1  0  0  0  0
  2  8  1  0  0  0  0
  3 25  1  6  0  0  0
  3  9  1  0  0  0  0
  5  3  1  0  0  0  0
  5  2  1  0  0  0  0
  6  7  1  0  0  0  0
  7  4  1  1  0  0  0
  8 13  1  6  0  0  0
  8 10  1  0  0  0  0
  9 12  1  6  0  0  0
  9 11  1  0  0  0  0
 11  7  1  0  0  0  0
 11 10  1  6  0  0  0
 12  1  1  0  0  0  0
 13 21  1  0  0  0  0
 15 14  1  0  0  0  0
 16 15  1  0  0  0  0
 17 20  2  0  0  0  0
 18 17  1  0  0  0  0
 18 16  1  0  0  0  0
 19 14  1  0  0  0  0
 19 21  1  0  0  0  0
 20 13  2  0  0  0  0
 23 22  1  0  0  0  0
 24 23  1  0  0  0  0
 24 22  1  0  0  0  0
 26 27  1  0  0  0  0
 27 31  2  0  0  0  0
 28 26  2  0  0  0  0
 28 30  1  0  0  0  0
 29 31  1  0  0  0  0
 30 29  2  0  0  0  0
 31 25  1  0  0  0  0
 32 34  1  0  0  0  0
 32 36  1  0  0  0  0
 33 27  1  0  0  0  0
 33 34  1  0  0  0  0
 35 33  2  0  0  0  0
 37 32  2  0  0  0  0
M  END
>  <MODEL>
1

>  <REMARK>
 VINA RESULT:      -9.4      0.000      0.000
  Name = 
  5 active torsions:
  status: ('A' for Active; 'I' for Inactive)
    1  A    between atoms: C_1  and  C_5
    2  A    between atoms: C_2  and  C_27
    3  A    between atoms: C_4  and  C_10
    4  A    between atoms: C_4  and  C_28
    5  A    between atoms: C_13  and  C_20
                            x       y       z     vdW  Elec       q    Type
                         _______ _______ _______ _____ _____    ______ ____

>  <TORSDO>
F 5

$$$$
=
 OpenBabel11052420023D

 37 41  0  0  1  0  0  0  0  0999 V2000
  193.0680  176.3410  146.2650 C   0  0  2  0  0  3  0  0  0  0  0  0
  189.8280  177.8710  146.5300 C   0  0  0  0  0  2  0  0  0  0  0  0
  190.1320  176.5410  144.3510 C   0  0  2  0  0  3  0  0  0  0  0  0
  191.1910  174.8100  148.7560 O   0  0  0  0  0  1  0  0  0  0  0  0
  190.1010  177.9160  145.0230 C   0  0  0  0  0  2  0  0  0  0  0  0
  192.8180  175.3880  147.2630 O   0  0  0  0  0  0  0  0  0  0  0  0
  191.4630  175.5320  147.5940 C   0  0  1  0  0  3  0  0  0  0  0  0
  188.7650  176.8560  146.9900 C   0  0  2  0  0  3  0  0  0  0  0  0
  191.0340  175.5050  145.0420 C   0  0  2  0  0  3  0  0  0  0  0  0
  189.0740  175.3690  146.7110 C   0  0  0  0  0  2  0  0  0  0  0  0
  190.5560  175.0420  146.4480 C   0  0  2  0  0  3  0  0  0  0  0  0
  192.5340  175.8140  144.9400 C   0  0  0  0  0  2  0  0  0  0  0  0
  187.3780  177.2280  146.5620 C   0  0  0  0  0  0  0  0  0  0  0  0
  185.1960  179.4150  145.8030 C   0  0  0  0  0  2  0  0  0  0  0  0
  184.2640  179.0470  144.6620 C   0  0  0  0  0  2  0  0  0  0  0  0
  185.0190  178.3350  143.5470 C   0  0  0  0  0  2  0  0  0  0  0  0
  186.4930  176.4430  144.2340 C   0  0  0  0  0  3  0  0  0  0  0  0
  185.1160  176.8350  143.8060 C   0  0  0  0  0  2  0  0  0  0  0  0
  185.1160  178.3690  146.9010 C   0  0  0  0  0  2  0  0  0  0  0  0
  186.9570  176.8190  145.3930 C   0  0  0  0  0  0  0  0  0  0  0  0
  186.5090  178.0800  147.4580 C   0  0  0  0  0  2  0  0  0  0  0  0
  194.5600  176.5910  146.1540 C   0  0  0  0  0  3  0  0  0  0  0  0
  195.0040  176.3530  144.7250 C   0  0  0  0  0  2  0  0  0  0  0  0
  195.2580  175.2990  145.7810 C   0  0  0  0  0  2  0  0  0  0  0  0
  190.4270  176.6490  142.8600 C   0  0  0  0  0  2  0  0  0  0  0  0
  187.3700  175.9170  140.7430 N   0  0  0  0  0  0  0  0  0  0  0  0
  188.4810  175.6850  141.5000 C   0  0  0  0  0  0  0  0  0  0  0  0
  186.8800  177.1670  140.5310 C   0  0  0  0  0  3  0  0  0  0  0  0
  188.6560  178.0760  141.8670 C   0  0  0  0  0  3  0  0  0  0  0  0
  187.5140  178.2710  141.0950 C   0  0  0  0  0  3  0  0  0  0  0  0
  189.1550  176.7860  142.0810 C   0  0  0  0  0  0  0  0  0  0  0  0
  190.1160  172.2870  140.6420 C   0  0  0  0  0  0  0  0  0  0  0  0
  188.9150  174.2790  141.6750 C   0  0  0  0  0  0  0  0  0  0  0  0
  189.6310  173.6330  140.6140 N   0  0  0  0  0  2  0  0  0  0  0  0
  188.6480  173.6460  142.7330 O   0  0  0  0  0  0  0  0  0  0  0  0
  190.9850  171.6410  139.2220 S   0  0  0  0  0  1  0  0  0  0  0  0
  189.9410  171.5520  141.6490 O   0  0  0  0  0  0  0  0  0  0  0  0
  1 22  1  6  0  0  0
  1  6  1  0  0  0  0
  2  8  1  0  0  0  0
  3 25  1  6  0  0  0
  3  5  1  0  0  0  0
  3  9  1  0  0  0  0
  5  2  1  0  0  0  0
  6  7  1  0  0  0  0
  7  4  1  1  0  0  0
  8 13  1  6  0  0  0
  9 12  1  1  0  0  0
  9 11  1  0  0  0  0
 10  8  1  0  0  0  0
 11 10  1  1  0  0  0
 11  7  1  0  0  0  0
 12  1  1  0  0  0  0
 13 21  1  0  0  0  0
 14 19  1  0  0  0  0
 15 14  1  0  0  0  0
 16 18  1  0  0  0  0
 16 15  1  0  0  0  0
 17 20  2  0  0  0  0
 18 17  1  0  0  0  0
 19 21  1  0  0  0  0
 20 13  2  0  0  0  0
 23 24  1  0  0  0  0
 23 22  1  0  0  0  0
 24 22  1  0  0  0  0
 26 27  1  0  0  0  0
 27 33  1  0  0  0  0
 27 31  2  0  0  0  0
 28 26  2  0  0  0  0
 28 30  1  0  0  0  0
 29 31  1  0  0  0  0
 30 29  2  0  0  0  0
 31 25  1  0  0  0  0
 32 37  2  0  0  0  0
 33 35  2  0  0  0  0
 34 32  1  0  0  0  0
 34 33  1  0  0  0  0
 36 32  1  0  0  0  0
M  END
>  <MODEL>
2

>  <REMARK>
 VINA RESULT:      -9.3      1.700      2.240
  Name = 
  5 active torsions:
  status: ('A' for Active; 'I' for Inactive)
    1  A    between atoms: C_1  and  C_5
    2  A    between atoms: C_2  and  C_27
    3  A    between atoms: C_4  and  C_10
    4  A    between atoms: C_4  and  C_28
    5  A    between atoms: C_13  and  C_20
                            x       y       z     vdW  Elec       q    Type
                         _______ _______ _______ _____ _____    ______ ____

>  <TORSDO>
F 5

$$$$
=
 OpenBabel11052420023D

 37 41  0  0  1  0  0  0  0  0999 V2000
  194.9310  175.6620  143.9480 C   0  0  2  0  0  3  0  0  0  0  0  0
  191.5860  176.9700  144.0430 C   0  0  0  0  0  2  0  0  0  0  0  0
  191.6600  174.4030  144.1430 C   0  0  2  0  0  3  0  0  0  0  0  0
  194.3430  177.3060  146.9530 O   0  0  0  0  0  1  0  0  0  0  0  0
  191.4110  175.6480  143.2890 C   0  0  0  0  0  2  0  0  0  0  0  0
  195.2550  176.1050  145.2380 O   0  0  0  0  0  0  0  0  0  0  0  0
  194.0620  176.6080  145.7790 C   0  0  1  0  0  3  0  0  0  0  0  0
  191.0360  177.0010  145.4810 C   0  0  2  0  0  3  0  0  0  0  0  0
  192.9800  174.4150  144.9320 C   0  0  2  0  0  3  0  0  0  0  0  0
  191.6810  176.0150  146.4810 C   0  0  0  0  0  2  0  0  0  0  0  0
  193.0620  175.4710  146.0700 C   0  0  2  0  0  3  0  0  0  0  0  0
  194.2340  174.3120  144.0540 C   0  0  0  0  0  2  0  0  0  0  0  0
  189.5400  176.9540  145.5370 C   0  0  0  0  0  0  0  0  0  0  0  0
  186.7800  177.8060  146.8710 C   0  0  0  0  0  2  0  0  0  0  0  0
  185.6370  178.0730  145.9060 C   0  0  0  0  0  2  0  0  0  0  0  0
  186.1260  178.8190  144.6710 C   0  0  0  0  0  2  0  0  0  0  0  0
  188.1450  177.8900  143.5380 C   0  0  0  0  0  3  0  0  0  0  0  0
  186.6530  177.8600  143.6100 C   0  0  0  0  0  2  0  0  0  0  0  0
  187.3170  176.4000  146.6700 C   0  0  0  0  0  2  0  0  0  0  0  0
  188.8650  177.4260  144.5210 C   0  0  0  0  0  0  0  0  0  0  0  0
  188.8420  176.3980  146.7570 C   0  0  0  0  0  2  0  0  0  0  0  0
  196.1940  175.5250  143.1190 C   0  0  0  0  0  3  0  0  0  0  0  0
  196.9840  176.8160  143.1910 C   0  0  0  0  0  2  0  0  0  0  0  0
  196.1460  176.5110  141.9680 C   0  0  0  0  0  2  0  0  0  0  0  0
  191.4910  173.1220  143.3350 C   0  0  0  0  0  2  0  0  0  0  0  0
  189.4610  173.3410  140.1420 N   0  0  0  0  0  0  0  0  0  0  0  0
  190.5320  173.1210  140.9580 C   0  0  0  0  0  0  0  0  0  0  0  0
  188.2370  173.6840  140.6210 C   0  0  0  0  0  3  0  0  0  0  0  0
  189.1060  173.6140  142.8580 C   0  0  0  0  0  3  0  0  0  0  0  0
  188.0360  173.8230  141.9910 C   0  0  0  0  0  3  0  0  0  0  0  0
  190.3650  173.2620  142.3580 C   0  0  0  0  0  0  0  0  0  0  0  0
  193.9520  173.5470  139.2060 C   0  0  0  0  0  0  0  0  0  0  0  0
  191.8150  172.7370  140.3260 C   0  0  0  0  0  0  0  0  0  0  0  0
  192.6840  173.7650  139.8330 N   0  0  0  0  0  2  0  0  0  0  0  0
  192.1390  171.5240  140.2020 O   0  0  0  0  0  0  0  0  0  0  0  0
  194.9040  174.9500  138.6450 S   0  0  0  0  0  1  0  0  0  0  0  0
  194.4080  172.3850  139.0440 O   0  0  0  0  0  0  0  0  0  0  0  0
  1 22  1  6  0  0  0
  1 12  1  0  0  0  0
  1  6  1  0  0  0  0
  2  8  1  0  0  0  0
  3 25  1  6  0  0  0
  3  9  1  0  0  0  0
  5  2  1  0  0  0  0
  5  3  1  0  0  0  0
  6  7  1  0  0  0  0
  7 11  1  0  0  0  0
  7  4  1  1  0  0  0
  8 13  1  6  0  0  0
  8 10  1  0  0  0  0
  9 12  1  6  0  0  0
  9 11  1  0  0  0  0
 11 10  1  6  0  0  0
 13 21  1  0  0  0  0
 15 14  1  0  0  0  0
 16 15  1  0  0  0  0
 17 18  1  0  0  0  0
 17 20  2  0  0  0  0
 18 16  1  0  0  0  0
 19 21  1  0  0  0  0
 19 14  1  0  0  0  0
 20 13  2  0  0  0  0
 22 23  1  0  0  0  0
 24 22  1  0  0  0  0
 24 23  1  0  0  0  0
 26 28  2  0  0  0  0
 26 27  1  0  0  0  0
 27 31  2  0  0  0  0
 28 30  1  0  0  0  0
 30 29  2  0  0  0  0
 31 29  1  0  0  0  0
 31 25  1  0  0  0  0
 32 34  1  0  0  0  0
 33 27  1  0  0  0  0
 34 33  1  0  0  0  0
 35 33  2  0  0  0  0
 36 32  1  0  0  0  0
 37 32  2  0  0  0  0
M  END
>  <MODEL>
3

>  <REMARK>
 VINA RESULT:      -9.1      2.143      2.617
  Name = 
  5 active torsions:
  status: ('A' for Active; 'I' for Inactive)
    1  A    between atoms: C_1  and  C_5
    2  A    between atoms: C_2  and  C_27
    3  A    between atoms: C_4  and  C_10
    4  A    between atoms: C_4  and  C_28
    5  A    between atoms: C_13  and  C_20
                            x       y       z     vdW  Elec       q    Type
                         _______ _______ _______ _____ _____    ______ ____

>  <TORSDO>
F 5

$$$$
=
 OpenBabel11052420023D

 37 41  0  0  1  0  0  0  0  0999 V2000
  193.0160  176.2920  146.1750 C   0  0  2  0  0  3  0  0  0  0  0  0
  189.7090  177.6950  146.1800 C   0  0  0  0  0  2  0  0  0  0  0  0
  190.1450  176.1690  144.1590 C   0  0  2  0  0  3  0  0  0  0  0  0
  191.1150  174.9360  148.7470 O   0  0  0  0  0  1  0  0  0  0  0  0
  190.0340  177.6020  144.6860 C   0  0  0  0  0  2  0  0  0  0  0  0
  192.7700  175.4340  147.2550 O   0  0  0  0  0  0  0  0  0  0  0  0
  191.3990  175.5500  147.5280 C   0  0  1  0  0  3  0  0  0  0  0  0
  188.6720  176.6860  146.7070 C   0  0  2  0  0  3  0  0  0  0  0  0
  191.0630  175.2480  144.9790 C   0  0  2  0  0  3  0  0  0  0  0  0
  189.0520  175.1930  146.5910 C   0  0  0  0  0  2  0  0  0  0  0  0
  190.5540  174.9080  146.4090 C   0  0  2  0  0  3  0  0  0  0  0  0
  192.5520  175.6130  144.8930 C   0  0  0  0  0  2  0  0  0  0  0  0
  187.2880  176.9510  146.2000 C   0  0  0  0  0  0  0  0  0  0  0  0
  184.7840  178.8800  145.8320 C   0  0  0  0  0  2  0  0  0  0  0  0
  184.0660  178.7790  144.4970 C   0  0  0  0  0  2  0  0  0  0  0  0
  185.0590  178.6260  143.3520 C   0  0  0  0  0  2  0  0  0  0  0  0
  186.8190  176.8790  143.6320 C   0  0  0  0  0  3  0  0  0  0  0  0
  185.4400  177.1660  143.1330 C   0  0  0  0  0  2  0  0  0  0  0  0
  184.8160  177.5220  146.5120 C   0  0  0  0  0  2  0  0  0  0  0  0
  187.0780  176.9050  144.9090 C   0  0  0  0  0  0  0  0  0  0  0  0
  186.1760  177.2900  147.1670 C   0  0  0  0  0  2  0  0  0  0  0  0
  194.5000  176.5960  146.0860 C   0  0  0  0  0  3  0  0  0  0  0  0
  194.9890  176.3020  144.6820 C   0  0  0  0  0  2  0  0  0  0  0  0
  195.2570  175.3150  145.7980 C   0  0  0  0  0  2  0  0  0  0  0  0
  190.4890  176.1410  142.6740 C   0  0  0  0  0  2  0  0  0  0  0  0
  190.4370  172.7920  140.9010 N   0  0  0  0  0  0  0  0  0  0  0  0
  190.9420  173.9010  141.5120 C   0  0  0  0  0  0  0  0  0  0  0  0
  189.1020  172.5580  140.8000 C   0  0  0  0  0  3  0  0  0  0  0  0
  188.6670  174.6170  141.9550 C   0  0  0  0  0  3  0  0  0  0  0  0
  188.1910  173.4670  141.3300 C   0  0  0  0  0  3  0  0  0  0  0  0
  190.0430  174.8520  142.0550 C   0  0  0  0  0  0  0  0  0  0  0  0
  194.5820  173.2090  142.6200 C   0  0  0  0  0  0  0  0  0  0  0  0
  192.4150  174.0440  141.5780 C   0  0  0  0  0  0  0  0  0  0  0  0
  193.1600  173.1900  142.4550 N   0  0  0  0  0  2  0  0  0  0  0  0
  193.0120  174.9160  140.8880 O   0  0  0  0  0  0  0  0  0  0  0  0
  195.3450  172.0730  143.7660 S   0  0  0  0  0  1  0  0  0  0  0  0
  195.3020  174.0120  141.9710 O   0  0  0  0  0  0  0  0  0  0  0  0
  1 22  1  6  0  0  0
  1  6  1  0  0  0  0
  2  8  1  0  0  0  0
  3 25  1  6  0  0  0
  3  5  1  0  0  0  0
  3  9  1  0  0  0  0
  5  2  1  0  0  0  0
  6  7  1  0  0  0  0
  7  4  1  1  0  0  0
  8 13  1  6  0  0  0
  9 12  1  1  0  0  0
  9 11  1  0  0  0  0
 10  8  1  0  0  0  0
 11 10  1  6  0  0  0
 11  7  1  0  0  0  0
 12  1  1  0  0  0  0
 13 21  1  0  0  0  0
 14 19  1  0  0  0  0
 15 14  1  0  0  0  0
 16 15  1  0  0  0  0
 17 20  2  0  0  0  0
 18 16  1  0  0  0  0
 18 17  1  0  0  0  0
 19 21  1  0  0  0  0
 20 13  2  0  0  0  0
 23 24  1  0  0  0  0
 23 22  1  0  0  0  0
 24 22  1  0  0  0  0
 26 27  1  0  0  0  0
 27 33  1  0  0  0  0
 27 31  2  0  0  0  0
 28 26  2  0  0  0  0
 28 30  1  0  0  0  0
 29 31  1  0  0  0  0
 30 29  2  0  0  0  0
 31 25  1  0  0  0  0
 32 36  1  0  0  0  0
 33 34  1  0  0  0  0
 34 32  1  0  0  0  0
 35 33  2  0  0  0  0
 37 32  2  0  0  0  0
M  END
>  <MODEL>
4

>  <REMARK>
 VINA RESULT:      -9.1      1.858      2.175
  Name = 
  5 active torsions:
  status: ('A' for Active; 'I' for Inactive)
    1  A    between atoms: C_1  and  C_5
    2  A    between atoms: C_2  and  C_27
    3  A    between atoms: C_4  and  C_10
    4  A    between atoms: C_4  and  C_28
    5  A    between atoms: C_13  and  C_20
                            x       y       z     vdW  Elec       q    Type
                         _______ _______ _______ _____ _____    ______ ____

>  <TORSDO>
F 5

$$$$
=
 OpenBabel11052420023D

 37 41  0  0  1  0  0  0  0  0999 V2000
  194.7500  174.1440  145.1800 C   0  0  2  0  0  3  0  0  0  0  0  0
  192.3080  176.1450  143.4650 C   0  0  0  0  0  2  0  0  0  0  0  0
  191.3060  174.0210  144.5100 C   0  0  2  0  0  3  0  0  0  0  0  0
  194.1850  177.1160  146.8880 O   0  0  0  0  0  1  0  0  0  0  0  0
  191.7960  174.7190  143.2390 C   0  0  0  0  0  2  0  0  0  0  0  0
  194.9090  175.0510  146.2360 O   0  0  0  0  0  0  0  0  0  0  0  0
  193.9330  176.0390  146.0390 C   0  0  1  0  0  3  0  0  0  0  0  0
  191.4940  177.0030  144.4510 C   0  0  2  0  0  3  0  0  0  0  0  0
  192.2880  174.0710  145.6930 C   0  0  2  0  0  3  0  0  0  0  0  0
  191.4240  176.4910  145.9070 C   0  0  0  0  0  2  0  0  0  0  0  0
  192.5190  175.4830  146.3030 C   0  0  2  0  0  3  0  0  0  0  0  0
  193.5620  173.2410  145.4830 C   0  0  0  0  0  2  0  0  0  0  0  0
  190.1420  177.3750  143.9250 C   0  0  0  0  0  0  0  0  0  0  0  0
  187.7890  177.0250  141.8110 C   0  0  0  0  0  2  0  0  0  0  0  0
  186.3810  177.1170  142.3730 C   0  0  0  0  0  2  0  0  0  0  0  0
  186.2800  176.4100  143.7180 C   0  0  0  0  0  2  0  0  0  0  0  0
  188.0280  176.9770  145.4060 C   0  0  0  0  0  3  0  0  0  0  0  0
  186.6800  177.3300  144.8660 C   0  0  0  0  0  2  0  0  0  0  0  0
  188.5640  178.2900  142.1350 C   0  0  0  0  0  2  0  0  0  0  0  0
  189.0990  177.1690  144.6890 C   0  0  0  0  0  0  0  0  0  0  0  0
  189.9980  177.9450  142.5330 C   0  0  0  0  0  2  0  0  0  0  0  0
  196.0060  173.3060  145.0270 C   0  0  0  0  0  3  0  0  0  0  0  0
  197.2200  174.1670  145.3100 C   0  0  0  0  0  2  0  0  0  0  0  0
  196.8350  173.8500  143.8810 C   0  0  0  0  0  2  0  0  0  0  0  0
  190.8290  172.6030  144.2250 C   0  0  0  0  0  2  0  0  0  0  0  0
  189.6870  171.9100  140.6780 N   0  0  0  0  0  0  0  0  0  0  0  0
  190.4380  171.8270  141.8130 C   0  0  0  0  0  0  0  0  0  0  0  0
  188.5590  172.6650  140.6030 C   0  0  0  0  0  3  0  0  0  0  0  0
  188.8740  173.3390  142.8860 C   0  0  0  0  0  3  0  0  0  0  0  0
  188.1290  173.3910  141.7100 C   0  0  0  0  0  3  0  0  0  0  0  0
  190.0340  172.5600  142.9560 C   0  0  0  0  0  0  0  0  0  0  0  0
  194.1400  170.8190  141.3290 C   0  0  0  0  0  0  0  0  0  0  0  0
  191.6390  170.9610  141.7840 C   0  0  0  0  0  0  0  0  0  0  0  0
  192.8980  171.5280  141.3980 N   0  0  0  0  0  2  0  0  0  0  0  0
  191.5620  169.7360  142.0760 O   0  0  0  0  0  0  0  0  0  0  0  0
  195.6150  171.6850  140.8190 S   0  0  0  0  0  1  0  0  0  0  0  0
  194.2090  169.5960  141.6200 O   0  0  0  0  0  0  0  0  0  0  0  0
  1 22  1  1  0  0  0
  1 12  1  0  0  0  0
  1  6  1  0  0  0  0
  2  8  1  0  0  0  0
  3 25  1  6  0  0  0
  3  9  1  0  0  0  0
  5  2  1  0  0  0  0
  5  3  1  0  0  0  0
  7  6  1  0  0  0  0
  7 11  1  0  0  0  0
  7  4  1  1  0  0  0
  8 13  1  6  0  0  0
  8 10  1  0  0  0  0
  9 12  1  6  0  0  0
  9 11  1  0  0  0  0
 11 10  1  6  0  0  0
 13 20  2  0  0  0  0
 14 19  1  0  0  0  0
 14 15  1  0  0  0  0
 15 16  1  0  0  0  0
 16 18  1  0  0  0  0
 18 17  1  0  0  0  0
 19 21  1  0  0  0  0
 20 17  2  0  0  0  0
 21 13  1  0  0  0  0
 22 23  1  0  0  0  0
 24 22  1  0  0  0  0
 24 23  1  0  0  0  0
 26 27  1  0  0  0  0
 27 31  2  0  0  0  0
 28 26  2  0  0  0  0
 28 30  1  0  0  0  0
 29 31  1  0  0  0  0
 30 29  2  0  0  0  0
 31 25  1  0  0  0  0
 32 34  1  0  0  0  0
 32 37  2  0  0  0  0
 33 27  1  0  0  0  0
 33 35  2  0  0  0  0
 34 33  1  0  0  0  0
 36 32  1  0  0  0  0
M  END
>  <MODEL>
5

>  <REMARK>
 VINA RESULT:      -8.9      2.059      2.979
  Name = 
  5 active torsions:
  status: ('A' for Active; 'I' for Inactive)
    1  A    between atoms: C_1  and  C_5
    2  A    between atoms: C_2  and  C_27
    3  A    between atoms: C_4  and  C_10
    4  A    between atoms: C_4  and  C_28
    5  A    between atoms: C_13  and  C_20
                            x       y       z     vdW  Elec       q    Type
                         _______ _______ _______ _____ _____    ______ ____

>  <TORSDO>
F 5

$$$$
=
 OpenBabel11052420023D

 37 41  0  0  1  0  0  0  0  0999 V2000
  196.2870  174.8370  141.0590 C   0  0  2  0  0  3  0  0  0  0  0  0
  193.3040  176.3040  142.4220 C   0  0  0  0  0  2  0  0  0  0  0  0
  193.5870  173.8310  143.0640 C   0  0  2  0  0  3  0  0  0  0  0  0
  197.0790  177.1660  143.5130 O   0  0  0  0  0  1  0  0  0  0  0  0
  192.8820  174.8530  142.1690 C   0  0  0  0  0  2  0  0  0  0  0  0
  197.1510  175.5520  141.9010 O   0  0  0  0  0  0  0  0  0  0  0  0
  196.3240  176.2290  142.8090 C   0  0  1  0  0  3  0  0  0  0  0  0
  193.4970  176.6990  143.8980 C   0  0  2  0  0  3  0  0  0  0  0  0
  195.1190  173.9580  143.1070 C   0  0  2  0  0  3  0  0  0  0  0  0
  194.6010  175.9430  144.6700 C   0  0  0  0  0  2  0  0  0  0  0  0
  195.6580  175.2460  143.7920 C   0  0  2  0  0  3  0  0  0  0  0  0
  195.8140  173.5880  141.7900 C   0  0  0  0  0  2  0  0  0  0  0  0
  192.2120  176.7450  144.6650 C   0  0  0  0  0  0  0  0  0  0  0  0
  189.0900  176.1710  144.8950 C   0  0  0  0  0  2  0  0  0  0  0  0
  188.6070  175.6970  146.2550 C   0  0  0  0  0  2  0  0  0  0  0  0
  189.5900  174.7110  146.8730 C   0  0  0  0  0  2  0  0  0  0  0  0
  191.9890  175.3960  146.8900 C   0  0  0  0  0  3  0  0  0  0  0  0
  190.6960  175.4290  147.6380 C   0  0  0  0  0  2  0  0  0  0  0  0
  189.7990  177.5070  145.0290 C   0  0  0  0  0  2  0  0  0  0  0  0
  192.1270  176.0630  145.7790 C   0  0  0  0  0  0  0  0  0  0  0  0
  191.0390  177.5400  144.1370 C   0  0  0  0  0  2  0  0  0  0  0  0
  197.0150  174.4440  139.7880 C   0  0  0  0  0  3  0  0  0  0  0  0
  197.8190  175.6250  139.2840 C   0  0  0  0  0  2  0  0  0  0  0  0
  196.4960  175.2790  138.6350 C   0  0  0  0  0  2  0  0  0  0  0  0
  193.1420  172.4080  142.7520 C   0  0  0  0  0  2  0  0  0  0  0  0
  189.4210  171.8930  142.2490 N   0  0  0  0  0  0  0  0  0  0  0  0
  190.7520  171.9370  141.9540 C   0  0  0  0  0  0  0  0  0  0  0  0
  188.9410  172.1340  143.4970 C   0  0  0  0  0  3  0  0  0  0  0  0
  191.1830  172.5030  144.2730 C   0  0  0  0  0  3  0  0  0  0  0  0
  189.8170  172.4400  144.5350 C   0  0  0  0  0  3  0  0  0  0  0  0
  191.6700  172.2540  142.9850 C   0  0  0  0  0  0  0  0  0  0  0  0
  191.5090  172.5610  138.2140 C   0  0  0  0  0  0  0  0  0  0  0  0
  191.1620  171.6410  140.5620 C   0  0  0  0  0  0  0  0  0  0  0  0
  191.1380  172.6950  139.5900 N   0  0  0  0  0  2  0  0  0  0  0  0
  191.5100  170.4770  140.2220 O   0  0  0  0  0  0  0  0  0  0  0  0
  191.4120  173.9830  137.1390 S   0  0  0  0  0  1  0  0  0  0  0  0
  191.9020  171.4590  137.7490 O   0  0  0  0  0  0  0  0  0  0  0  0
  1 22  1  6  0  0  0
  1 12  1  0  0  0  0
  1  6  1  0  0  0  0
  2  8  1  0  0  0  0
  3 25  1  6  0  0  0
  3  9  1  0  0  0  0
  5  2  1  0  0  0  0
  5  3  1  0  0  0  0
  6  7  1  0  0  0  0
  7  4  1  1  0  0  0
  7 11  1  0  0  0  0
  8 13  1  1  0  0  0
  8 10  1  0  0  0  0
  9 12  1  6  0  0  0
  9 11  1  0  0  0  0
 11 10  1  6  0  0  0
 13 20  2  0  0  0  0
 14 19  1  0  0  0  0
 14 15  1  0  0  0  0
 15 16  1  0  0  0  0
 16 18  1  0  0  0  0
 17 18  1  0  0  0  0
 20 17  2  0  0  0  0
 21 13  1  0  0  0  0
 21 19  1  0  0  0  0
 23 22  1  0  0  0  0
 24 23  1  0  0  0  0
 24 22  1  0  0  0  0
 25 31  1  0  0  0  0
 26 28  1  0  0  0  0
 27 26  2  0  0  0  0
 27 31  1  0  0  0  0
 28 30  2  0  0  0  0
 29 30  1  0  0  0  0
 31 29  2  0  0  0  0
 32 34  1  0  0  0  0
 33 27  1  0  0  0  0
 34 33  1  0  0  0  0
 35 33  2  0  0  0  0
 36 32  1  0  0  0  0
 37 32  2  0  0  0  0
M  END
>  <MODEL>
6

>  <REMARK>
 VINA RESULT:      -8.8      3.170      5.118
  Name = 
  5 active torsions:
  status: ('A' for Active; 'I' for Inactive)
    1  A    between atoms: C_1  and  C_5
    2  A    between atoms: C_2  and  C_27
    3  A    between atoms: C_4  and  C_10
    4  A    between atoms: C_4  and  C_28
    5  A    between atoms: C_13  and  C_20
                            x       y       z     vdW  Elec       q    Type
                         _______ _______ _______ _____ _____    ______ ____

>  <TORSDO>
F 5

$$$$
=
 OpenBabel11052420023D

 37 41  0  0  1  0  0  0  0  0999 V2000
  190.1020  176.8970  144.9740 C   0  0  2  0  0  3  0  0  0  0  0  0
  192.0870  173.9030  144.9850 C   0  0  0  0  0  2  0  0  0  0  0  0
  193.1800  175.8230  143.6720 C   0  0  2  0  0  3  0  0  0  0  0  0
  191.3720  176.2830  148.1490 O   0  0  0  0  0  1  0  0  0  0  0  0
  192.3980  174.5090  143.6130 C   0  0  0  0  0  2  0  0  0  0  0  0
  190.3300  177.1820  146.3270 O   0  0  0  0  0  0  0  0  0  0  0  0
  191.2810  176.2450  146.7580 C   0  0  1  0  0  3  0  0  0  0  0  0
  193.2180  173.9840  146.0270 C   0  0  2  0  0  3  0  0  0  0  0  0
  192.5940  176.8820  144.6210 C   0  0  2  0  0  3  0  0  0  0  0  0
  193.6690  175.4030  146.4380 C   0  0  0  0  0  2  0  0  0  0  0  0
  192.6620  176.5280  146.1330 C   0  0  2  0  0  3  0  0  0  0  0  0
  191.2530  177.4650  144.1530 C   0  0  0  0  0  2  0  0  0  0  0  0
  194.3830  173.1030  145.6960 C   0  0  0  0  0  0  0  0  0  0  0  0
  195.8600  171.0600  143.7540 C   0  0  0  0  0  2  0  0  0  0  0  0
  197.3660  171.2270  143.6450 C   0  0  0  0  0  2  0  0  0  0  0  0
  197.7520  172.7000  143.6050 C   0  0  0  0  0  2  0  0  0  0  0  0
  196.7470  174.1620  145.3590 C   0  0  0  0  0  3  0  0  0  0  0  0
  197.9000  173.2790  145.0080 C   0  0  0  0  0  2  0  0  0  0  0  0
  195.4620  170.8390  145.2030 C   0  0  0  0  0  2  0  0  0  0  0  0
  195.5570  173.6580  145.5360 C   0  0  0  0  0  0  0  0  0  0  0  0
  194.1860  171.6140  145.5250 C   0  0  0  0  0  2  0  0  0  0  0  0
  188.7950  177.5260  144.5280 C   0  0  0  0  0  3  0  0  0  0  0  0
  187.7100  177.1890  145.5310 C   0  0  0  0  0  2  0  0  0  0  0  0
  187.7920  176.4320  144.2230 C   0  0  0  0  0  2  0  0  0  0  0  0
  193.4410  176.3860  142.2810 C   0  0  0  0  0  2  0  0  0  0  0  0
  196.3900  174.9810  140.3600 N   0  0  0  0  0  0  0  0  0  0  0  0
  195.0980  175.3060  140.6500 C   0  0  0  0  0  0  0  0  0  0  0  0
  197.4310  175.3480  141.1520 C   0  0  0  0  0  3  0  0  0  0  0  0
  195.8950  176.4290  142.6480 C   0  0  0  0  0  3  0  0  0  0  0  0
  197.2020  176.0840  142.3120 C   0  0  0  0  0  3  0  0  0  0  0  0
  194.8280  176.0470  141.8270 C   0  0  0  0  0  0  0  0  0  0  0  0
  191.9800  173.4200  139.3570 C   0  0  0  0  0  0  0  0  0  0  0  0
  194.0460  174.8660  139.7060 C   0  0  0  0  0  0  0  0  0  0  0  0
  193.0560  173.9300  140.1520 N   0  0  0  0  0  2  0  0  0  0  0  0
  194.0240  175.2900  138.5170 O   0  0  0  0  0  0  0  0  0  0  0  0
  190.8380  172.2510  140.0760 S   0  0  0  0  0  1  0  0  0  0  0  0
  191.8250  173.7810  138.1610 O   0  0  0  0  0  0  0  0  0  0  0  0
  1 22  1  6  0  0  0
  1  6  1  0  0  0  0
  2  8  1  0  0  0  0
  3 25  1  6  0  0  0
  3  9  1  0  0  0  0
  5  3  1  0  0  0  0
  5  2  1  0  0  0  0
  6  7  1  0  0  0  0
  7  4  1  1  0  0  0
  8 13  1  6  0  0  0
  8 10  1  0  0  0  0
  9 12  1  6  0  0  0
  9 11  1  0  0  0  0
 11 10  1  6  0  0  0
 11  7  1  0  0  0  0
 12  1  1  0  0  0  0
 14 19  1  0  0  0  0
 15 14  1  0  0  0  0
 16 15  1  0  0  0  0
 16 18  1  0  0  0  0
 17 20  2  0  0  0  0
 18 17  1  0  0  0  0
 19 21  1  0  0  0  0
 20 13  2  0  0  0  0
 21 13  1  0  0  0  0
 22 23  1  0  0  0  0
 24 22  1  0  0  0  0
 24 23  1  0  0  0  0
 26 27  2  0  0  0  0
 26 28  1  0  0  0  0
 27 31  1  0  0  0  0
 28 30  2  0  0  0  0
 30 29  1  0  0  0  0
 31 25  1  0  0  0  0
 31 29  2  0  0  0  0
 32 36  1  0  0  0  0
 32 34  1  0  0  0  0
 33 34  1  0  0  0  0
 33 27  1  0  0  0  0
 35 33  2  0  0  0  0
 37 32  2  0  0  0  0
M  END
>  <MODEL>
7

>  <REMARK>
 VINA RESULT:      -8.7      3.009      7.552
  Name = 
  5 active torsions:
  status: ('A' for Active; 'I' for Inactive)
    1  A    between atoms: C_1  and  C_5
    2  A    between atoms: C_2  and  C_27
    3  A    between atoms: C_4  and  C_10
    4  A    between atoms: C_4  and  C_28
    5  A    between atoms: C_13  and  C_20
                            x       y       z     vdW  Elec       q    Type
                         _______ _______ _______ _____ _____    ______ ____

>  <TORSDO>
F 5

$$$$
=
 OpenBabel11052420023D

 37 41  0  0  1  0  0  0  0  0999 V2000
  190.1070  176.9650  144.8230 C   0  0  2  0  0  3  0  0  0  0  0  0
  191.9610  173.8890  144.7400 C   0  0  0  0  0  2  0  0  0  0  0  0
  193.1550  175.8100  143.5200 C   0  0  2  0  0  3  0  0  0  0  0  0
  191.3020  176.1700  147.9870 O   0  0  0  0  0  1  0  0  0  0  0  0
  192.3180  174.5340  143.3980 C   0  0  0  0  0  2  0  0  0  0  0  0
  190.3260  177.1850  146.1900 O   0  0  0  0  0  0  0  0  0  0  0  0
  191.2300  176.1910  146.5940 C   0  0  1  0  0  3  0  0  0  0  0  0
  193.0790  173.8790  145.7990 C   0  0  2  0  0  3  0  0  0  0  0  0
  192.6000  176.8550  144.5020 C   0  0  2  0  0  3  0  0  0  0  0  0
  193.5840  175.2600  146.2720 C   0  0  0  0  0  2  0  0  0  0  0  0
  192.6300  176.4380  146.0000 C   0  0  2  0  0  3  0  0  0  0  0  0
  191.2920  177.5140  144.0410 C   0  0  0  0  0  2  0  0  0  0  0  0
  194.2100  172.9620  145.4480 C   0  0  0  0  0  0  0  0  0  0  0  0
  196.9290  171.4880  146.1970 C   0  0  0  0  0  2  0  0  0  0  0  0
  197.0680  170.0640  145.6850 C   0  0  0  0  0  2  0  0  0  0  0  0
  195.7530  169.3060  145.8130 C   0  0  0  0  0  2  0  0  0  0  0  0
  193.7190  170.4490  144.9320 C   0  0  0  0  0  3  0  0  0  0  0  0
  194.8550  169.5350  144.6040 C   0  0  0  0  0  2  0  0  0  0  0  0
  196.6780  172.4370  145.0380 C   0  0  0  0  0  2  0  0  0  0  0  0
  193.9370  171.7090  145.1900 C   0  0  0  0  0  0  0  0  0  0  0  0
  195.6300  173.4790  145.4260 C   0  0  0  0  0  2  0  0  0  0  0  0
  188.8340  177.6660  144.3860 C   0  0  0  0  0  3  0  0  0  0  0  0
  187.7170  177.3230  145.3500 C   0  0  0  0  0  2  0  0  0  0  0  0
  187.7960  176.6300  144.0070 C   0  0  0  0  0  2  0  0  0  0  0  0
  193.4600  176.4160  142.1550 C   0  0  0  0  0  2  0  0  0  0  0  0
  196.3750  174.9520  140.2260 N   0  0  0  0  0  0  0  0  0  0  0  0
  195.0930  175.3190  140.5120 C   0  0  0  0  0  0  0  0  0  0  0  0
  197.4200  175.2550  141.0400 C   0  0  0  0  0  3  0  0  0  0  0  0
  195.9090  176.3520  142.5500 C   0  0  0  0  0  3  0  0  0  0  0  0
  197.2050  175.9660  142.2180 C   0  0  0  0  0  3  0  0  0  0  0  0
  194.8380  176.0360  141.7070 C   0  0  0  0  0  0  0  0  0  0  0  0
  191.9530  173.5500  139.1130 C   0  0  0  0  0  0  0  0  0  0  0  0
  194.0360  174.9470  139.5440 C   0  0  0  0  0  0  0  0  0  0  0  0
  193.0340  173.9990  139.9360 N   0  0  0  0  0  2  0  0  0  0  0  0
  194.0190  175.4390  138.3830 O   0  0  0  0  0  0  0  0  0  0  0  0
  190.7960  172.3550  139.7640 S   0  0  0  0  0  1  0  0  0  0  0  0
  191.8020  173.9810  137.9400 O   0  0  0  0  0  0  0  0  0  0  0  0
  1 22  1  6  0  0  0
  1  6  1  0  0  0  0
  2  8  1  0  0  0  0
  3 25  1  6  0  0  0
  3  9  1  0  0  0  0
  5  3  1  0  0  0  0
  5  2  1  0  0  0  0
  6  7  1  0  0  0  0
  7  4  1  1  0  0  0
  8 13  1  6  0  0  0
  8 10  1  0  0  0  0
  9 12  1  6  0  0  0
  9 11  1  0  0  0  0
 11 10  1  6  0  0  0
 11  7  1  0  0  0  0
 12  1  1  0  0  0  0
 15 16  1  0  0  0  0
 15 14  1  0  0  0  0
 17 20  2  0  0  0  0
 18 17  1  0  0  0  0
 18 16  1  0  0  0  0
 19 21  1  0  0  0  0
 19 14  1  0  0  0  0
 20 13  2  0  0  0  0
 21 13  1  0  0  0  0
 22 23  1  0  0  0  0
 24 22  1  0  0  0  0
 24 23  1  0  0  0  0
 26 27  2  0  0  0  0
 26 28  1  0  0  0  0
 27 31  1  0  0  0  0
 28 30  2  0  0  0  0
 30 29  1  0  0  0  0
 31 25  1  0  0  0  0
 31 29  2  0  0  0  0
 32 36  1  0  0  0  0
 32 34  1  0  0  0  0
 33 34  1  0  0  0  0
 33 27  1  0  0  0  0
 35 33  2  0  0  0  0
 37 32  2  0  0  0  0
M  END
>  <MODEL>
8

>  <REMARK>
 VINA RESULT:      -8.6      3.208      7.618
  Name = 
  5 active torsions:
  status: ('A' for Active; 'I' for Inactive)
    1  A    between atoms: C_1  and  C_5
    2  A    between atoms: C_2  and  C_27
    3  A    between atoms: C_4  and  C_10
    4  A    between atoms: C_4  and  C_28
    5  A    between atoms: C_13  and  C_20
                            x       y       z     vdW  Elec       q    Type
                         _______ _______ _______ _____ _____    ______ ____

>  <TORSDO>
F 5

$$$$
=
 OpenBabel11052420023D

 37 41  0  0  1  0  0  0  0  0999 V2000
  189.3710  172.6290  139.4780 C   0  0  2  0  0  3  0  0  0  0  0  0
  192.2530  173.8100  141.2690 C   0  0  0  0  0  2  0  0  0  0  0  0
  190.1460  173.6820  142.7360 C   0  0  2  0  0  3  0  0  0  0  0  0
  191.6900  170.0750  139.8860 O   0  0  0  0  0  1  0  0  0  0  0  0
  191.1040  174.5710  141.9390 C   0  0  0  0  0  2  0  0  0  0  0  0
  189.8430  171.3140  139.3720 O   0  0  0  0  0  0  0  0  0  0  0  0
  191.0130  171.2660  140.1440 C   0  0  1  0  0  3  0  0  0  0  0  0
  192.8930  172.6870  142.1050 C   0  0  2  0  0  3  0  0  0  0  0  0
  189.6220  172.4520  141.9760 C   0  0  2  0  0  3  0  0  0  0  0  0
  191.9660  171.5150  142.4980 C   0  0  0  0  0  2  0  0  0  0  0  0
  190.6900  171.3710  141.6480 C   0  0  2  0  0  3  0  0  0  0  0  0
  188.6700  172.7910  140.8210 C   0  0  0  0  0  2  0  0  0  0  0  0
  193.6710  173.2010  143.2770 C   0  0  0  0  0  0  0  0  0  0  0  0
  195.6150  172.7190  145.7500 C   0  0  0  0  0  2  0  0  0  0  0  0
  196.6580  173.7980  145.9860 C   0  0  0  0  0  2  0  0  0  0  0  0
  197.2420  174.2930  144.6690 C   0  0  0  0  0  2  0  0  0  0  0  0
  195.6050  174.9120  142.8910 C   0  0  0  0  0  3  0  0  0  0  0  0
  196.3910  175.4030  144.0630 C   0  0  0  0  0  2  0  0  0  0  0  0
  194.2230  173.3260  145.7700 C   0  0  0  0  0  2  0  0  0  0  0  0
  194.6320  174.0600  143.0570 C   0  0  0  0  0  0  0  0  0  0  0  0
  193.3600  172.7070  144.6720 C   0  0  0  0  0  2  0  0  0  0  0  0
  188.3960  172.9190  138.3520 C   0  0  0  0  0  3  0  0  0  0  0  0
  189.1050  172.7610  137.0220 C   0  0  0  0  0  2  0  0  0  0  0  0
  188.8630  174.1430  137.5900 C   0  0  0  0  0  2  0  0  0  0  0  0
  189.0160  174.4910  143.3600 C   0  0  0  0  0  2  0  0  0  0  0  0
  189.8100  177.1940  145.8950 N   0  0  0  0  0  0  0  0  0  0  0  0
  189.2630  176.6000  144.7950 C   0  0  0  0  0  0  0  0  0  0  0  0
  190.5670  176.5120  146.7930 C   0  0  0  0  0  3  0  0  0  0  0  0
  190.2790  174.5120  145.4960 C   0  0  0  0  0  3  0  0  0  0  0  0
  190.8120  175.1540  146.6110 C   0  0  0  0  0  3  0  0  0  0  0  0
  189.5000  175.2210  144.5750 C   0  0  0  0  0  0  0  0  0  0  0  0
  186.1620  178.4840  143.4600 C   0  0  0  0  0  0  0  0  0  0  0  0
  188.4420  177.4390  143.8920 C   0  0  0  0  0  0  0  0  0  0  0  0
  187.0720  177.6920  144.2300 N   0  0  0  0  0  2  0  0  0  0  0  0
  188.9280  177.9140  142.8300 O   0  0  0  0  0  0  0  0  0  0  0  0
  184.4820  178.6880  144.0290 S   0  0  0  0  0  1  0  0  0  0  0  0
  186.5250  179.0390  142.3900 O   0  0  0  0  0  0  0  0  0  0  0  0
  1 22  1  6  0  0  0
  1 12  1  0  0  0  0
  2  5  1  0  0  0  0
  2  8  1  0  0  0  0
  3 25  1  6  0  0  0
  5  3  1  0  0  0  0
  6  1  1  0  0  0  0
  6  7  1  0  0  0  0
  7  4  1  1  0  0  0
  7 11  1  0  0  0  0
  8 10  1  0  0  0  0
  8 13  1  1  0  0  0
  9 12  1  6  0  0  0
  9  3  1  0  0  0  0
 11  9  1  0  0  0  0
 11 10  1  1  0  0  0
 13 21  1  0  0  0  0
 14 19  1  0  0  0  0
 14 15  1  0  0  0  0
 16 15  1  0  0  0  0
 17 20  2  0  0  0  0
 17 18  1  0  0  0  0
 18 16  1  0  0  0  0
 20 13  2  0  0  0  0
 21 19  1  0  0  0  0
 23 24  1  0  0  0  0
 23 22  1  0  0  0  0
 24 22  1  0  0  0  0
 25 31  1  0  0  0  0
 26 28  1  0  0  0  0
 27 26  2  0  0  0  0
 29 30  1  0  0  0  0
 30 28  2  0  0  0  0
 31 27  1  0  0  0  0
 31 29  2  0  0  0  0
 32 36  1  0  0  0  0
 32 34  1  0  0  0  0
 33 34  1  0  0  0  0
 33 27  1  0  0  0  0
 35 33  2  0  0  0  0
 37 32  2  0  0  0  0
M  END
>  <MODEL>
9

>  <REMARK>
 VINA RESULT:      -8.6      3.571      8.410
  Name = 
  5 active torsions:
  status: ('A' for Active; 'I' for Inactive)
    1  A    between atoms: C_1  and  C_5
    2  A    between atoms: C_2  and  C_27
    3  A    between atoms: C_4  and  C_10
    4  A    between atoms: C_4  and  C_28
    5  A    between atoms: C_13  and  C_20
                            x       y       z     vdW  Elec       q    Type
                         _______ _______ _______ _____ _____    ______ ____

>  <TORSDO>
F 5

$$$$
