=
 OpenBabel11052421323D

 32 35  0  0  1  0  0  0  0  0999 V2000
  188.1670  176.9950  143.8550 C   0  0  0  0  0  0  0  0  0  0  0  0
  185.8140  178.2520  148.1280 C   0  0  0  0  0  3  0  0  0  0  0  0
  184.6880  178.4880  147.4420 C   0  0  0  0  0  3  0  0  0  0  0  0
  186.9720  177.1160  141.6520 C   0  0  0  0  0  0  0  0  0  0  0  0
  185.8070  177.5710  140.9340 N   0  0  0  0  0  0  0  0  0  0  0  0
  190.2020  175.5450  143.8160 C   0  0  1  0  0  3  0  0  0  0  0  0
  188.9720  175.9250  145.9590 C   0  0  0  0  0  2  0  0  0  0  0  0
  183.4300  178.1430  141.2150 C   0  0  0  0  0  0  0  0  0  0  0  0
  187.0930  177.8290  147.4570 C   0  0  0  0  0  2  0  0  0  0  0  0
  188.2300  177.1230  145.3650 C   0  0  2  0  0  3  0  0  0  0  0  0
  186.8720  177.2600  146.0520 C   0  0  2  0  0  3  0  0  0  0  0  0
  185.7560  177.6680  143.8410 C   0  0  1  0  0  3  0  0  0  0  0  0
  183.0290  177.4670  139.9470 C   0  0  0  0  0  1  0  0  0  0  0  0
  190.3530  175.7580  145.3250 C   0  0  1  0  0  3  0  0  0  0  0  0
  185.8740  177.6410  139.4780 C   0  0  0  0  0  1  0  0  0  0  0  0
  184.5830  178.2400  145.9620 C   0  0  0  0  0  2  0  0  0  0  0  0
  185.9490  178.1890  145.2650 C   0  0  1  0  0  3  0  0  0  0  0  0
  184.9990  178.7070  143.0190 C   0  0  0  0  0  2  0  0  0  0  0  0
  189.4900  176.7400  143.1860 C   0  0  0  0  0  2  0  0  0  0  0  0
  187.9090  176.5650  141.0120 O   0  0  0  0  0  0  0  0  0  0  0  0
  182.3940  178.7350  141.9960 N   0  0  0  0  0  1  0  0  0  0  0  0
  187.0460  177.2740  143.1410 C   0  0  0  0  0  0  0  0  0  0  0  0
  184.7030  178.1470  141.6640 C   0  0  0  0  0  0  0  0  0  0  0  0
  191.8770  176.7000  142.9410 C   0  0  0  0  0  1  0  0  0  0  0  0
  191.4570  175.3970  143.2200 O   0  0  0  0  0  0  0  0  0  0  0  0
  191.0610  174.5670  145.9610 C   0  0  0  0  0  2  0  0  0  0  0  0
  192.2400  175.0160  146.8110 C   0  0  0  0  0  2  0  0  0  0  0  0
  192.5720  176.4680  146.5270 C   0  0  0  0  0  2  0  0  0  0  0  0
  194.0800  176.6530  146.5310 C   0  0  0  0  0  2  0  0  0  0  0  0
  194.7470  175.8560  145.4170 C   0  0  0  0  0  3  0  0  0  0  0  0
  195.3870  176.7120  144.5200 O   0  0  0  0  0  1  0  0  0  0  0  0
  195.6690  174.9530  145.9490 O   0  0  0  0  0  1  0  0  0  0  0  0
  1 10  1  0  0  0  0
  3  2  2  0  0  0  0
  4 22  1  0  0  0  0
  5  4  1  0  0  0  0
  5 23  1  0  0  0  0
  6 25  1  6  0  0  0
  6 14  1  0  0  0  0
  8 23  2  0  0  0  0
  8 21  1  0  0  0  0
  9  2  1  0  0  0  0
 10  7  1  1  0  0  0
 10 11  1  0  0  0  0
 11  9  1  1  0  0  0
 12 18  1  6  0  0  0
 12 17  1  0  0  0  0
 13  8  1  0  0  0  0
 14  7  1  0  0  0  0
 14 26  1  1  0  0  0
 15  5  1  0  0  0  0
 16  3  1  0  0  0  0
 17 16  1  1  0  0  0
 17 11  1  0  0  0  0
 19  6  1  0  0  0  0
 19  1  1  0  0  0  0
 20  4  2  0  0  0  0
 22 12  1  0  0  0  0
 22  1  2  0  0  0  0
 23 18  1  0  0  0  0
 24 25  1  0  0  0  0
 26 27  1  0  0  0  0
 28 29  1  0  0  0  0
 28 27  1  0  0  0  0
 30 32  1  0  0  0  0
 30 29  1  0  0  0  0
 31 30  1  0  0  0  0
M  END
>  <MODEL>
1

>  <REMARK>
 VINA RESULT:      -8.3      0.000      0.000
  Name = 
  6 active torsions:
  status: ('A' for Active; 'I' for Inactive)
    1  A    between atoms: C_1  and  C_10
    2  A    between atoms: C_2  and  C_12
    3  A    between atoms: C_2  and  C_24
    4  A    between atoms: C_8  and  O_23
    5  A    between atoms: C_10  and  C_24
    6  A    between atoms: C_12  and  C_21
                            x       y       z     vdW  Elec       q    Type
                         _______ _______ _______ _____ _____    ______ ____

>  <TORSDO>
F 6

$$$$
=
 OpenBabel11052421323D

 32 35  0  0  1  0  0  0  0  0999 V2000
  188.2590  175.7110  143.2390 C   0  0  0  0  0  0  0  0  0  0  0  0
  190.7770  175.9090  147.5980 C   0  0  0  0  0  3  0  0  0  0  0  0
  191.7890  175.2280  147.0460 C   0  0  0  0  0  3  0  0  0  0  0  0
  189.2210  174.5080  141.2580 C   0  0  0  0  0  0  0  0  0  0  0  0
  190.2380  173.6100  140.7680 N   0  0  0  0  0  0  0  0  0  0  0  0
  186.4630  177.3440  142.6470 C   0  0  1  0  0  3  0  0  0  0  0  0
  187.8100  177.6610  144.7280 C   0  0  0  0  0  2  0  0  0  0  0  0
  192.5210  172.8060  141.2090 C   0  0  0  0  0  0  0  0  0  0  0  0
  189.5180  176.2350  146.8390 C   0  0  0  0  0  2  0  0  0  0  0  0
  188.3140  176.2170  144.6670 C   0  0  2  0  0  3  0  0  0  0  0  0
  189.6930  176.1410  145.3200 C   0  0  2  0  0  3  0  0  0  0  0  0
  190.5340  174.6900  143.4530 C   0  0  1  0  0  3  0  0  0  0  0  0
  192.9020  172.8320  139.7670 C   0  0  0  0  0  1  0  0  0  0  0  0
  186.4180  177.7890  144.1120 C   0  0  1  0  0  3  0  0  0  0  0  0
  190.0310  172.9690  139.4730 C   0  0  0  0  0  1  0  0  0  0  0  0
  191.7970  174.8350  145.5950 C   0  0  0  0  0  2  0  0  0  0  0  0
  190.3970  174.8310  144.9690 C   0  0  1  0  0  3  0  0  0  0  0  0
  191.0540  173.2960  143.1180 C   0  0  0  0  0  2  0  0  0  0  0  0
  186.9330  175.8940  142.5530 C   0  0  0  0  0  2  0  0  0  0  0  0
  188.3210  174.9040  140.4680 O   0  0  0  0  0  0  0  0  0  0  0  0
  193.5250  172.4130  142.1430 N   0  0  0  0  0  1  0  0  0  0  0  0
  189.2580  174.9810  142.6810 C   0  0  0  0  0  0  0  0  0  0  0  0
  191.3070  173.2000  141.6470 C   0  0  0  0  0  0  0  0  0  0  0  0
  185.4240  177.9370  140.7820 C   0  0  0  0  0  1  0  0  0  0  0  0
  185.1940  177.4490  142.0710 O   0  0  0  0  0  0  0  0  0  0  0  0
  185.9520  179.2360  144.2130 C   0  0  0  0  0  2  0  0  0  0  0  0
  184.6380  179.3410  144.9730 C   0  0  0  0  0  2  0  0  0  0  0  0
  184.4770  178.1610  145.9120 C   0  0  0  0  0  2  0  0  0  0  0  0
  184.6650  178.6260  147.3460 C   0  0  0  0  0  2  0  0  0  0  0  0
  185.8220  177.9030  148.0250 C   0  0  0  0  0  3  0  0  0  0  0  0
  186.0300  176.6540  147.4370 O   0  0  0  0  0  1  0  0  0  0  0  0
  186.9890  178.6650  147.9430 O   0  0  0  0  0  1  0  0  0  0  0  0
  1 10  1  0  0  0  0
  3  2  2  0  0  0  0
  4 22  1  0  0  0  0
  5  4  1  0  0  0  0
  5 23  1  0  0  0  0
  6 25  1  1  0  0  0
  6 14  1  0  0  0  0
  8 23  2  0  0  0  0
  8 21  1  0  0  0  0
  9  2  1  0  0  0  0
 10  7  1  6  0  0  0
 10 11  1  0  0  0  0
 11  9  1  1  0  0  0
 12 18  1  1  0  0  0
 12 17  1  0  0  0  0
 13  8  1  0  0  0  0
 14 26  1  6  0  0  0
 14  7  1  0  0  0  0
 15  5  1  0  0  0  0
 16  3  1  0  0  0  0
 17 11  1  0  0  0  0
 17 16  1  1  0  0  0
 19  6  1  0  0  0  0
 19  1  1  0  0  0  0
 20  4  2  0  0  0  0
 22  1  2  0  0  0  0
 22 12  1  0  0  0  0
 23 18  1  0  0  0  0
 24 25  1  0  0  0  0
 26 27  1  0  0  0  0
 27 28  1  0  0  0  0
 28 29  1  0  0  0  0
 29 30  1  0  0  0  0
 31 30  1  0  0  0  0
 32 30  1  0  0  0  0
M  END
>  <MODEL>
2

>  <REMARK>
 VINA RESULT:      -8.1      3.350      7.042
  Name = 
  6 active torsions:
  status: ('A' for Active; 'I' for Inactive)
    1  A    between atoms: C_1  and  C_10
    2  A    between atoms: C_2  and  C_12
    3  A    between atoms: C_2  and  C_24
    4  A    between atoms: C_8  and  O_23
    5  A    between atoms: C_10  and  C_24
    6  A    between atoms: C_12  and  C_21
                            x       y       z     vdW  Elec       q    Type
                         _______ _______ _______ _____ _____    ______ ____

>  <TORSDO>
F 6

$$$$
=
 OpenBabel11052421323D

 32 35  0  0  1  0  0  0  0  0999 V2000
  189.2590  175.9780  145.5710 C   0  0  0  0  0  0  0  0  0  0  0  0
  189.8760  173.9330  141.0090 C   0  0  0  0  0  3  0  0  0  0  0  0
  188.7560  174.5320  140.5860 C   0  0  0  0  0  3  0  0  0  0  0  0
  187.2610  177.4130  146.0710 C   0  0  0  0  0  0  0  0  0  0  0  0
  185.9650  177.8720  145.6360 N   0  0  0  0  0  0  0  0  0  0  0  0
  191.1520  176.3000  147.1690 C   0  0  1  0  0  3  0  0  0  0  0  0
  191.5940  175.4900  144.8460 C   0  0  0  0  0  2  0  0  0  0  0  0
  184.5950  178.2610  143.6290 C   0  0  0  0  0  0  0  0  0  0  0  0
  190.3720  174.0600  142.4240 C   0  0  0  0  0  2  0  0  0  0  0  0
  190.1190  175.1380  144.6470 C   0  0  2  0  0  3  0  0  0  0  0  0
  189.7720  175.2600  143.1640 C   0  0  2  0  0  3  0  0  0  0  0  0
  187.6300  176.4410  143.7270 C   0  0  1  0  0  3  0  0  0  0  0  0
  184.0540  179.5520  144.1440 C   0  0  0  0  0  1  0  0  0  0  0  0
  192.0040  175.3590  146.3120 C   0  0  1  0  0  3  0  0  0  0  0  0
  185.0780  178.4790  146.6230 C   0  0  0  0  0  1  0  0  0  0  0  0
  187.9670  175.4690  141.4590 C   0  0  0  0  0  2  0  0  0  0  0  0
  188.2590  175.2820  142.9530 C   0  0  1  0  0  3  0  0  0  0  0  0
  186.1100  176.3270  143.6660 C   0  0  0  0  0  2  0  0  0  0  0  0
  189.6720  175.9550  147.0170 C   0  0  0  0  0  2  0  0  0  0  0  0
  187.6860  177.7650  147.2050 O   0  0  0  0  0  0  0  0  0  0  0  0
  184.1800  177.8510  142.3280 N   0  0  0  0  0  1  0  0  0  0  0  0
  188.0970  176.5540  145.1690 C   0  0  0  0  0  0  0  0  0  0  0  0
  185.4970  177.5260  144.3150 C   0  0  0  0  0  0  0  0  0  0  0  0
  191.4960  177.4940  149.0030 C   0  0  0  0  0  1  0  0  0  0  0  0
  191.5100  176.1860  148.5150 O   0  0  0  0  0  0  0  0  0  0  0  0
  193.4820  175.6990  146.4570 C   0  0  0  0  0  2  0  0  0  0  0  0
  193.8760  176.8510  145.5450 C   0  0  0  0  0  2  0  0  0  0  0  0
  195.1290  176.5000  144.7650 C   0  0  0  0  0  2  0  0  0  0  0  0
  195.3580  174.9990  144.8250 C   0  0  0  0  0  2  0  0  0  0  0  0
  196.7360  174.6200  144.2960 C   0  0  0  0  0  3  0  0  0  0  0  0
  197.3320  175.7090  143.6590 O   0  0  0  0  0  1  0  0  0  0  0  0
  197.5530  174.1760  145.3380 O   0  0  0  0  0  1  0  0  0  0  0  0
  1 19  1  0  0  0  0
  2  9  1  0  0  0  0
  3  2  2  0  0  0  0
  3 16  1  0  0  0  0
  4 20  2  0  0  0  0
  5  4  1  0  0  0  0
  5 15  1  0  0  0  0
  6 25  1  1  0  0  0
  7 14  1  0  0  0  0
  8 13  1  0  0  0  0
  8 23  2  0  0  0  0
 10  7  1  6  0  0  0
 10  1  1  0  0  0  0
 11  9  1  6  0  0  0
 11 10  1  0  0  0  0
 12 18  1  1  0  0  0
 12 22  1  0  0  0  0
 14 26  1  6  0  0  0
 14  6  1  0  0  0  0
 17 16  1  6  0  0  0
 17 11  1  0  0  0  0
 17 12  1  0  0  0  0
 18 23  1  0  0  0  0
 19  6  1  0  0  0  0
 21  8  1  0  0  0  0
 22  1  2  0  0  0  0
 22  4  1  0  0  0  0
 23  5  1  0  0  0  0
 25 24  1  0  0  0  0
 27 26  1  0  0  0  0
 28 29  1  0  0  0  0
 28 27  1  0  0  0  0
 30 29  1  0  0  0  0
 30 32  1  0  0  0  0
 31 30  1  0  0  0  0
M  END
>  <MODEL>
3

>  <REMARK>
 VINA RESULT:      -7.7      2.280      4.533
  Name = 
  6 active torsions:
  status: ('A' for Active; 'I' for Inactive)
    1  A    between atoms: C_1  and  C_10
    2  A    between atoms: C_2  and  C_12
    3  A    between atoms: C_2  and  C_24
    4  A    between atoms: C_8  and  O_23
    5  A    between atoms: C_10  and  C_24
    6  A    between atoms: C_12  and  C_21
                            x       y       z     vdW  Elec       q    Type
                         _______ _______ _______ _____ _____    ______ ____

>  <TORSDO>
F 6

$$$$
=
 OpenBabel11052421323D

 32 35  0  0  1  0  0  0  0  0999 V2000
  187.9370  177.0460  143.5750 C   0  0  0  0  0  0  0  0  0  0  0  0
  185.9390  178.0360  148.0930 C   0  0  0  0  0  3  0  0  0  0  0  0
  184.7590  178.2990  147.5160 C   0  0  0  0  0  3  0  0  0  0  0  0
  186.5620  177.2790  141.4890 C   0  0  0  0  0  0  0  0  0  0  0  0
  185.3390  177.7620  140.8960 N   0  0  0  0  0  0  0  0  0  0  0  0
  189.9690  175.6210  143.2860 C   0  0  1  0  0  3  0  0  0  0  0  0
  188.9190  175.8670  145.5410 C   0  0  0  0  0  2  0  0  0  0  0  0
  182.9910  178.2930  141.4040 C   0  0  0  0  0  0  0  0  0  0  0  0
  187.1600  177.6650  147.2950 C   0  0  0  0  0  2  0  0  0  0  0  0
  188.1230  177.0890  145.0800 C   0  0  2  0  0  3  0  0  0  0  0  0
  186.8270  177.1730  145.8830 C   0  0  2  0  0  3  0  0  0  0  0  0
  185.5290  177.6940  143.7980 C   0  0  1  0  0  3  0  0  0  0  0  0
  182.4890  177.6860  140.1380 C   0  0  0  0  0  1  0  0  0  0  0  0
  190.2430  175.7500  144.7870 C   0  0  1  0  0  3  0  0  0  0  0  0
  185.2850  177.9150  139.4460 C   0  0  0  0  0  1  0  0  0  0  0  0
  184.5330  178.1330  146.0380 C   0  0  0  0  0  2  0  0  0  0  0  0
  185.8360  178.1350  145.2300 C   0  0  1  0  0  3  0  0  0  0  0  0
  184.7010  178.7700  143.1030 C   0  0  0  0  0  2  0  0  0  0  0  0
  189.2010  176.8430  142.7860 C   0  0  0  0  0  2  0  0  0  0  0  0
  187.4460  176.7740  140.7440 O   0  0  0  0  0  0  0  0  0  0  0  0
  182.0200  178.8290  142.3010 N   0  0  0  0  0  1  0  0  0  0  0  0
  186.7590  177.3530  142.9740 C   0  0  0  0  0  0  0  0  0  0  0  0
  184.2960  178.2840  141.7470 C   0  0  0  0  0  0  0  0  0  0  0  0
  191.7990  176.7550  142.7640 C   0  0  0  0  0  1  0  0  0  0  0  0
  191.1720  175.5210  142.5810 O   0  0  0  0  0  0  0  0  0  0  0  0
  191.0080  174.5330  145.2930 C   0  0  0  0  0  2  0  0  0  0  0  0
  190.0960  173.3230  145.4260 C   0  0  0  0  0  2  0  0  0  0  0  0
  190.4930  172.2520  144.4270 C   0  0  0  0  0  2  0  0  0  0  0  0
  189.3160  171.9500  143.5140 C   0  0  0  0  0  2  0  0  0  0  0  0
  189.7340  171.9230  142.0490 C   0  0  0  0  0  3  0  0  0  0  0  0
  188.9570  172.8100  141.3030 O   0  0  0  0  0  1  0  0  0  0  0  0
  191.0850  172.2520  141.9210 O   0  0  0  0  0  1  0  0  0  0  0  0
  1 10  1  0  0  0  0
  3  2  2  0  0  0  0
  4 22  1  0  0  0  0
  5  4  1  0  0  0  0
  5 23  1  0  0  0  0
  6 25  1  6  0  0  0
  6 14  1  0  0  0  0
  8 23  2  0  0  0  0
  8 21  1  0  0  0  0
  9  2  1  0  0  0  0
 10  7  1  1  0  0  0
 10 11  1  0  0  0  0
 11  9  1  1  0  0  0
 12 18  1  6  0  0  0
 12 17  1  0  0  0  0
 13  8  1  0  0  0  0
 14 26  1  1  0  0  0
 14  7  1  0  0  0  0
 15  5  1  0  0  0  0
 16  3  1  0  0  0  0
 17 11  1  0  0  0  0
 17 16  1  1  0  0  0
 19  6  1  0  0  0  0
 19  1  1  0  0  0  0
 20  4  2  0  0  0  0
 22  1  2  0  0  0  0
 22 12  1  0  0  0  0
 23 18  1  0  0  0  0
 25 24  1  0  0  0  0
 26 27  1  0  0  0  0
 28 27  1  0  0  0  0
 29 28  1  0  0  0  0
 30 29  1  0  0  0  0
 31 30  1  0  0  0  0
 32 30  1  0  0  0  0
M  END
>  <MODEL>
4

>  <REMARK>
 VINA RESULT:      -7.7      1.793      2.841
  Name = 
  6 active torsions:
  status: ('A' for Active; 'I' for Inactive)
    1  A    between atoms: C_1  and  C_10
    2  A    between atoms: C_2  and  C_12
    3  A    between atoms: C_2  and  C_24
    4  A    between atoms: C_8  and  O_23
    5  A    between atoms: C_10  and  C_24
    6  A    between atoms: C_12  and  C_21
                            x       y       z     vdW  Elec       q    Type
                         _______ _______ _______ _____ _____    ______ ____

>  <TORSDO>
F 6

$$$$
=
 OpenBabel11052421323D

 32 35  0  0  1  0  0  0  0  0999 V2000
  187.8400  176.8810  143.6750 C   0  0  0  0  0  0  0  0  0  0  0  0
  185.6410  178.2120  148.0080 C   0  0  0  0  0  3  0  0  0  0  0  0
  184.5090  178.4930  147.3500 C   0  0  0  0  0  3  0  0  0  0  0  0
  186.5960  177.0540  141.5020 C   0  0  0  0  0  0  0  0  0  0  0  0
  185.4320  177.5550  140.8140 N   0  0  0  0  0  0  0  0  0  0  0  0
  189.8160  175.3550  143.5820 C   0  0  1  0  0  3  0  0  0  0  0  0
  188.6550  175.7740  145.7560 C   0  0  0  0  0  2  0  0  0  0  0  0
  183.0860  178.2160  141.1550 C   0  0  0  0  0  0  0  0  0  0  0  0
  186.8870  177.7440  147.3040 C   0  0  0  0  0  2  0  0  0  0  0  0
  187.9440  177.0010  145.1830 C   0  0  2  0  0  3  0  0  0  0  0  0
  186.6100  177.1870  145.9030 C   0  0  2  0  0  3  0  0  0  0  0  0
  185.4570  177.6450  143.7220 C   0  0  1  0  0  3  0  0  0  0  0  0
  182.6290  177.5600  139.8960 C   0  0  0  0  0  1  0  0  0  0  0  0
  190.0120  175.5570  145.0880 C   0  0  1  0  0  3  0  0  0  0  0  0
  185.4660  177.6280  139.3570 C   0  0  0  0  0  1  0  0  0  0  0  0
  184.3580  178.2540  145.8730 C   0  0  0  0  0  2  0  0  0  0  0  0
  185.7030  178.1530  145.1420 C   0  0  1  0  0  3  0  0  0  0  0  0
  184.7200  178.7140  142.9210 C   0  0  0  0  0  2  0  0  0  0  0  0
  189.1350  176.5790  142.9730 C   0  0  0  0  0  2  0  0  0  0  0  0
  187.4950  176.4700  140.8380 O   0  0  0  0  0  0  0  0  0  0  0  0
  182.0930  178.8450  141.9630 N   0  0  0  0  0  1  0  0  0  0  0  0
  186.7130  177.2050  142.9900 C   0  0  0  0  0  0  0  0  0  0  0  0
  184.3690  178.1700  141.5730 C   0  0  0  0  0  0  0  0  0  0  0  0
  191.5760  176.4460  142.7960 C   0  0  0  0  0  1  0  0  0  0  0  0
  191.0500  175.1620  142.9560 O   0  0  0  0  0  0  0  0  0  0  0  0
  190.6900  174.3390  145.7030 C   0  0  0  0  0  2  0  0  0  0  0  0
  191.9680  174.7270  146.4310 C   0  0  0  0  0  2  0  0  0  0  0  0
  191.6550  175.1590  147.8510 C   0  0  0  0  0  2  0  0  0  0  0  0
  192.0470  176.6160  148.0340 C   0  0  0  0  0  2  0  0  0  0  0  0
  190.9590  177.4050  148.7520 C   0  0  0  0  0  3  0  0  0  0  0  0
  191.5250  178.3310  149.6290 O   0  0  0  0  0  1  0  0  0  0  0  0
  190.1440  178.0620  147.8290 O   0  0  0  0  0  1  0  0  0  0  0  0
  1 10  1  0  0  0  0
  3  2  2  0  0  0  0
  4 22  1  0  0  0  0
  5  4  1  0  0  0  0
  5 23  1  0  0  0  0
  6 25  1  6  0  0  0
  6 14  1  0  0  0  0
  8 23  2  0  0  0  0
  8 21  1  0  0  0  0
  9  2  1  0  0  0  0
 10  7  1  1  0  0  0
 10 11  1  0  0  0  0
 11  9  1  1  0  0  0
 12 18  1  6  0  0  0
 12 17  1  0  0  0  0
 13  8  1  0  0  0  0
 14 26  1  1  0  0  0
 14  7  1  0  0  0  0
 15  5  1  0  0  0  0
 16  3  1  0  0  0  0
 17 16  1  1  0  0  0
 17 11  1  0  0  0  0
 19  6  1  0  0  0  0
 19  1  1  0  0  0  0
 20  4  2  0  0  0  0
 22  1  2  0  0  0  0
 22 12  1  0  0  0  0
 23 18  1  0  0  0  0
 24 25  1  0  0  0  0
 26 27  1  0  0  0  0
 27 28  1  0  0  0  0
 28 29  1  0  0  0  0
 29 30  1  0  0  0  0
 30 31  1  0  0  0  0
 32 30  1  0  0  0  0
M  END
>  <MODEL>
5

>  <REMARK>
 VINA RESULT:      -7.6      1.665      2.016
  Name = 
  6 active torsions:
  status: ('A' for Active; 'I' for Inactive)
    1  A    between atoms: C_1  and  C_10
    2  A    between atoms: C_2  and  C_12
    3  A    between atoms: C_2  and  C_24
    4  A    between atoms: C_8  and  O_23
    5  A    between atoms: C_10  and  C_24
    6  A    between atoms: C_12  and  C_21
                            x       y       z     vdW  Elec       q    Type
                         _______ _______ _______ _____ _____    ______ ____

>  <TORSDO>
F 6

$$$$
=
 OpenBabel11052421323D

 32 35  0  0  1  0  0  0  0  0999 V2000
  190.1290  175.8610  143.7470 C   0  0  0  0  0  0  0  0  0  0  0  0
  190.3010  177.8160  148.3860 C   0  0  0  0  0  3  0  0  0  0  0  0
  191.5660  177.3980  148.5180 C   0  0  0  0  0  3  0  0  0  0  0  0
  192.1030  174.6330  142.8010 C   0  0  0  0  0  0  0  0  0  0  0  0
  193.3870  174.0310  143.0600 N   0  0  0  0  0  0  0  0  0  0  0  0
  188.5120  176.6500  142.0130 C   0  0  1  0  0  3  0  0  0  0  0  0
  188.6760  177.8350  144.2080 C   0  0  0  0  0  2  0  0  0  0  0  0
  195.3310  174.1290  144.5660 C   0  0  0  0  0  0  0  0  0  0  0  0
  189.4870  177.5410  147.1510 C   0  0  0  0  0  2  0  0  0  0  0  0
  189.4290  176.6570  144.8310 C   0  0  2  0  0  3  0  0  0  0  0  0
  190.3460  177.1780  145.9350 C   0  0  2  0  0  3  0  0  0  0  0  0
  192.2130  175.7080  145.1260 C   0  0  1  0  0  3  0  0  0  0  0  0
  196.3100  173.9610  143.4540 C   0  0  0  0  0  1  0  0  0  0  0  0
  187.7210  177.3660  143.1120 C   0  0  1  0  0  3  0  0  0  0  0  0
  193.9230  173.0900  142.0810 C   0  0  0  0  0  1  0  0  0  0  0  0
  192.3100  176.7210  147.4000 C   0  0  0  0  0  2  0  0  0  0  0  0
  191.3780  176.1250  146.3370 C   0  0  1  0  0  3  0  0  0  0  0  0
  193.0940  174.5210  145.5020 C   0  0  0  0  0  2  0  0  0  0  0  0
  189.2520  175.4480  142.5970 C   0  0  0  0  0  2  0  0  0  0  0  0
  191.6010  174.5320  141.6480 O   0  0  0  0  0  0  0  0  0  0  0  0
  195.8580  174.2990  145.8800 N   0  0  0  0  0  1  0  0  0  0  0  0
  191.3960  175.3920  143.8850 C   0  0  0  0  0  0  0  0  0  0  0  0
  193.9990  174.1940  144.3580 C   0  0  0  0  0  0  0  0  0  0  0  0
  188.1910  174.9940  140.5770 C   0  0  0  0  0  1  0  0  0  0  0  0
  187.6500  176.2080  141.0060 O   0  0  0  0  0  0  0  0  0  0  0  0
  186.9820  178.5670  142.5370 C   0  0  0  0  0  2  0  0  0  0  0  0
  185.5510  178.6330  143.0490 C   0  0  0  0  0  2  0  0  0  0  0  0
  185.4640  179.5490  144.2550 C   0  0  0  0  0  2  0  0  0  0  0  0
  184.6980  178.8510  145.3670 C   0  0  0  0  0  2  0  0  0  0  0  0
  185.6310  178.0820  146.2950 C   0  0  0  0  0  3  0  0  0  0  0  0
  185.7660  178.7490  147.5130 O   0  0  0  0  0  1  0  0  0  0  0  0
  185.1460  176.7910  146.5130 O   0  0  0  0  0  1  0  0  0  0  0  0
  1 22  2  0  0  0  0
  1 10  1  0  0  0  0
  2  3  2  0  0  0  0
  4  5  1  0  0  0  0
  4 22  1  0  0  0  0
  5 23  1  0  0  0  0
  6 25  1  6  0  0  0
  6 19  1  0  0  0  0
  6 14  1  0  0  0  0
  8 21  1  0  0  0  0
  9  2  1  0  0  0  0
 10  7  1  6  0  0  0
 10 11  1  0  0  0  0
 11 17  1  0  0  0  0
 11  9  1  1  0  0  0
 12 18  1  1  0  0  0
 12 17  1  0  0  0  0
 13  8  1  0  0  0  0
 14 26  1  6  0  0  0
 14  7  1  0  0  0  0
 15  5  1  0  0  0  0
 16  3  1  0  0  0  0
 17 16  1  1  0  0  0
 19  1  1  0  0  0  0
 20  4  2  0  0  0  0
 22 12  1  0  0  0  0
 23  8  2  0  0  0  0
 23 18  1  0  0  0  0
 24 25  1  0  0  0  0
 26 27  1  0  0  0  0
 27 28  1  0  0  0  0
 28 29  1  0  0  0  0
 29 30  1  0  0  0  0
 30 32  1  0  0  0  0
 30 31  1  0  0  0  0
M  END
>  <MODEL>
6

>  <REMARK>
 VINA RESULT:      -7.2      3.529      7.756
  Name = 
  6 active torsions:
  status: ('A' for Active; 'I' for Inactive)
    1  A    between atoms: C_1  and  C_10
    2  A    between atoms: C_2  and  C_12
    3  A    between atoms: C_2  and  C_24
    4  A    between atoms: C_8  and  O_23
    5  A    between atoms: C_10  and  C_24
    6  A    between atoms: C_12  and  C_21
                            x       y       z     vdW  Elec       q    Type
                         _______ _______ _______ _____ _____    ______ ____

>  <TORSDO>
F 6

$$$$
=
 OpenBabel11052421323D

 32 35  0  0  1  0  0  0  0  0999 V2000
  189.8200  176.5300  145.0370 C   0  0  0  0  0  0  0  0  0  0  0  0
  188.3760  174.5420  140.6390 C   0  0  0  0  0  3  0  0  0  0  0  0
  189.5780  173.9680  140.5000 C   0  0  0  0  0  3  0  0  0  0  0  0
  192.1470  176.1640  145.9040 C   0  0  0  0  0  0  0  0  0  0  0  0
  193.4820  175.6990  145.6200 N   0  0  0  0  0  0  0  0  0  0  0  0
  188.1910  177.2310  146.7960 C   0  0  1  0  0  3  0  0  0  0  0  0
  187.3910  176.0460  144.7450 C   0  0  0  0  0  2  0  0  0  0  0  0
  194.7570  174.1540  144.1920 C   0  0  0  0  0  0  0  0  0  0  0  0
  188.0320  175.4180  141.8130 C   0  0  0  0  0  2  0  0  0  0  0  0
  188.7110  176.3250  144.0230 C   0  0  2  0  0  3  0  0  0  0  0  0
  188.9690  175.2130  143.0080 C   0  0  2  0  0  3  0  0  0  0  0  0
  191.3750  175.0830  143.7110 C   0  0  1  0  0  3  0  0  0  0  0  0
  195.6440  173.7160  145.3080 C   0  0  0  0  0  1  0  0  0  0  0  0
  187.0690  177.1450  145.7560 C   0  0  1  0  0  3  0  0  0  0  0  0
  194.5630  176.1110  146.5090 C   0  0  0  0  0  1  0  0  0  0  0  0
  190.6400  174.0610  141.5620 C   0  0  0  0  0  2  0  0  0  0  0  0
  190.4190  175.2330  142.5270 C   0  0  1  0  0  3  0  0  0  0  0  0
  192.8080  175.3050  143.2370 C   0  0  0  0  0  2  0  0  0  0  0  0
  189.5200  177.5400  146.1100 C   0  0  0  0  0  2  0  0  0  0  0  0
  191.9080  176.6930  147.0240 O   0  0  0  0  0  0  0  0  0  0  0  0
  194.9590  173.5420  142.9190 N   0  0  0  0  0  1  0  0  0  0  0  0
  191.0580  175.9910  144.8870 C   0  0  0  0  0  0  0  0  0  0  0  0
  193.7510  175.0370  144.3660 C   0  0  0  0  0  0  0  0  0  0  0  0
  189.1650  178.6620  148.1780 C   0  0  0  0  0  1  0  0  0  0  0  0
  187.9140  178.2390  147.7240 O   0  0  0  0  0  0  0  0  0  0  0  0
  185.7400  176.8360  146.4340 C   0  0  0  0  0  2  0  0  0  0  0  0
  184.7530  177.9800  146.2620 C   0  0  0  0  0  2  0  0  0  0  0  0
  185.3610  179.0780  145.4110 C   0  0  0  0  0  2  0  0  0  0  0  0
  184.4680  179.3410  144.2100 C   0  0  0  0  0  2  0  0  0  0  0  0
  184.5640  178.2200  143.1820 C   0  0  0  0  0  3  0  0  0  0  0  0
  183.4890  178.2780  142.2940 O   0  0  0  0  0  1  0  0  0  0  0  0
  185.7650  178.3060  142.4770 O   0  0  0  0  0  1  0  0  0  0  0  0
  1 19  1  0  0  0  0
  2  9  1  0  0  0  0
  3  2  2  0  0  0  0
  3 16  1  0  0  0  0
  4 20  2  0  0  0  0
  5  4  1  0  0  0  0
  5 15  1  0  0  0  0
  6 25  1  1  0  0  0
  7 14  1  0  0  0  0
  8 23  2  0  0  0  0
  8 13  1  0  0  0  0
 10  7  1  1  0  0  0
 10  1  1  0  0  0  0
 11  9  1  6  0  0  0
 11 10  1  0  0  0  0
 12 18  1  6  0  0  0
 12 22  1  0  0  0  0
 14 26  1  1  0  0  0
 14  6  1  0  0  0  0
 17 16  1  6  0  0  0
 17 11  1  0  0  0  0
 17 12  1  0  0  0  0
 18 23  1  0  0  0  0
 19  6  1  0  0  0  0
 21  8  1  0  0  0  0
 22  1  2  0  0  0  0
 22  4  1  0  0  0  0
 23  5  1  0  0  0  0
 25 24  1  0  0  0  0
 27 26  1  0  0  0  0
 28 27  1  0  0  0  0
 29 28  1  0  0  0  0
 30 29  1  0  0  0  0
 31 30  1  0  0  0  0
 32 30  1  0  0  0  0
M  END
>  <MODEL>
7

>  <REMARK>
 VINA RESULT:      -7.2      3.390      8.278
  Name = 
  6 active torsions:
  status: ('A' for Active; 'I' for Inactive)
    1  A    between atoms: C_1  and  C_10
    2  A    between atoms: C_2  and  C_12
    3  A    between atoms: C_2  and  C_24
    4  A    between atoms: C_8  and  O_23
    5  A    between atoms: C_10  and  C_24
    6  A    between atoms: C_12  and  C_21
                            x       y       z     vdW  Elec       q    Type
                         _______ _______ _______ _____ _____    ______ ____

>  <TORSDO>
F 6

$$$$
=
 OpenBabel11052421323D

 32 35  0  0  1  0  0  0  0  0999 V2000
  188.7530  175.1230  143.3680 C   0  0  0  0  0  0  0  0  0  0  0  0
  192.2520  175.0880  146.9920 C   0  0  0  0  0  3  0  0  0  0  0  0
  191.4780  175.8750  147.7500 C   0  0  0  0  0  3  0  0  0  0  0  0
  186.6410  176.4500  143.6410 C   0  0  0  0  0  0  0  0  0  0  0  0
  185.9330  177.4510  144.4010 N   0  0  0  0  0  0  0  0  0  0  0  0
  188.5980  173.3350  141.6300 C   0  0  1  0  0  3  0  0  0  0  0  0
  190.2200  173.1120  143.5190 C   0  0  0  0  0  2  0  0  0  0  0  0
  185.7740  178.4650  146.6380 C   0  0  0  0  0  0  0  0  0  0  0  0
  191.8500  174.6560  145.6070 C   0  0  0  0  0  2  0  0  0  0  0  0
  190.0890  174.5980  143.8570 C   0  0  2  0  0  3  0  0  0  0  0  0
  190.3450  174.7950  145.3500 C   0  0  2  0  0  3  0  0  0  0  0  0
  188.3870  176.3550  145.5160 C   0  0  1  0  0  3  0  0  0  0  0  0
  184.2840  178.5030  146.6090 C   0  0  0  0  0  1  0  0  0  0  0  0
  189.9990  172.8600  142.0280 C   0  0  1  0  0  3  0  0  0  0  0  0
  184.7730  178.0930  143.7920 C   0  0  0  0  0  1  0  0  0  0  0  0
  190.0980  176.2940  147.3250 C   0  0  0  0  0  2  0  0  0  0  0  0
  189.8750  176.1730  145.8120 C   0  0  1  0  0  3  0  0  0  0  0  0
  187.9860  177.8000  145.7990 C   0  0  0  0  0  2  0  0  0  0  0  0
  188.4440  174.8250  141.9260 C   0  0  0  0  0  2  0  0  0  0  0  0
  186.1070  175.9840  142.5980 O   0  0  0  0  0  0  0  0  0  0  0  0
  186.4170  178.9360  147.8200 N   0  0  0  0  0  1  0  0  0  0  0  0
  187.9770  175.9570  144.1080 C   0  0  0  0  0  0  0  0  0  0  0  0
  186.5070  177.9460  145.6300 C   0  0  0  0  0  0  0  0  0  0  0  0
  188.4800  174.3820  139.6820 C   0  0  0  0  0  1  0  0  0  0  0  0
  188.3830  173.1180  140.2660 O   0  0  0  0  0  0  0  0  0  0  0  0
  190.1580  171.3730  141.7370 C   0  0  0  0  0  2  0  0  0  0  0  0
  191.2700  171.1240  140.7290 C   0  0  0  0  0  2  0  0  0  0  0  0
  192.0500  172.4010  140.4790 C   0  0  0  0  0  2  0  0  0  0  0  0
  193.5020  172.1930  140.8760 C   0  0  0  0  0  2  0  0  0  0  0  0
  193.9010  173.0910  142.0400 C   0  0  0  0  0  3  0  0  0  0  0  0
  193.2100  174.3020  141.9820 O   0  0  0  0  0  1  0  0  0  0  0  0
  193.6440  172.4570  143.2560 O   0  0  0  0  0  1  0  0  0  0  0  0
  1 10  1  0  0  0  0
  1 22  2  0  0  0  0
  2  3  2  0  0  0  0
  4 22  1  0  0  0  0
  4  5  1  0  0  0  0
  5 23  1  0  0  0  0
  6 25  1  6  0  0  0
  6 19  1  0  0  0  0
  6 14  1  0  0  0  0
  8 21  1  0  0  0  0
  9  2  1  0  0  0  0
 10  7  1  1  0  0  0
 10 11  1  0  0  0  0
 11  9  1  6  0  0  0
 11 17  1  0  0  0  0
 12 18  1  6  0  0  0
 12 17  1  0  0  0  0
 13  8  1  0  0  0  0
 14 26  1  1  0  0  0
 14  7  1  0  0  0  0
 15  5  1  0  0  0  0
 16  3  1  0  0  0  0
 17 16  1  1  0  0  0
 19  1  1  0  0  0  0
 20  4  2  0  0  0  0
 22 12  1  0  0  0  0
 23 18  1  0  0  0  0
 23  8  2  0  0  0  0
 24 25  1  0  0  0  0
 27 26  1  0  0  0  0
 28 27  1  0  0  0  0
 28 29  1  0  0  0  0
 29 30  1  0  0  0  0
 30 32  1  0  0  0  0
 31 30  1  0  0  0  0
M  END
>  <MODEL>
8

>  <REMARK>
 VINA RESULT:      -7.1      3.003      5.016
  Name = 
  6 active torsions:
  status: ('A' for Active; 'I' for Inactive)
    1  A    between atoms: C_1  and  C_10
    2  A    between atoms: C_2  and  C_12
    3  A    between atoms: C_2  and  C_24
    4  A    between atoms: C_8  and  O_23
    5  A    between atoms: C_10  and  C_24
    6  A    between atoms: C_12  and  C_21
                            x       y       z     vdW  Elec       q    Type
                         _______ _______ _______ _____ _____    ______ ____

>  <TORSDO>
F 6

$$$$
=
 OpenBabel11052421323D

 32 35  0  0  1  0  0  0  0  0999 V2000
  189.7530  175.7440  144.3980 C   0  0  0  0  0  0  0  0  0  0  0  0
  186.8020  177.8980  140.9290 C   0  0  0  0  0  3  0  0  0  0  0  0
  187.0020  176.8580  140.1100 C   0  0  0  0  0  3  0  0  0  0  0  0
  190.8780  173.5480  143.9350 C   0  0  0  0  0  0  0  0  0  0  0  0
  191.2250  172.5530  142.9520 N   0  0  0  0  0  0  0  0  0  0  0  0
  189.6030  176.3040  146.8280 C   0  0  1  0  0  3  0  0  0  0  0  0
  187.9450  177.2540  145.2160 C   0  0  0  0  0  2  0  0  0  0  0  0
  190.5250  171.6040  140.7920 C   0  0  0  0  0  0  0  0  0  0  0  0
  187.4570  177.9960  142.2810 C   0  0  0  0  0  2  0  0  0  0  0  0
  188.8380  176.8950  144.0270 C   0  0  2  0  0  3  0  0  0  0  0  0
  187.9610  176.6450  142.8010 C   0  0  2  0  0  3  0  0  0  0  0  0
  189.3040  174.6090  142.2120 C   0  0  1  0  0  3  0  0  0  0  0  0
  190.8020  170.2020  141.2200 C   0  0  0  0  0  1  0  0  0  0  0  0
  188.7750  177.5410  146.4660 C   0  0  1  0  0  3  0  0  0  0  0  0
  192.2780  171.5960  143.2750 C   0  0  0  0  0  1  0  0  0  0  0  0
  187.8040  175.6540  140.5200 C   0  0  0  0  0  2  0  0  0  0  0  0
  188.7450  175.9360  141.6980 C   0  0  1  0  0  3  0  0  0  0  0  0
  190.2440  174.0160  141.1660 C   0  0  0  0  0  2  0  0  0  0  0  0
  190.5300  175.9370  145.6710 C   0  0  0  0  0  2  0  0  0  0  0  0
  191.3040  173.4170  145.1160 O   0  0  0  0  0  0  0  0  0  0  0  0
  189.9940  171.7940  139.4820 N   0  0  0  0  0  1  0  0  0  0  0  0
  190.0000  174.7040  143.5590 C   0  0  0  0  0  0  0  0  0  0  0  0
  190.6920  172.6610  141.6140 C   0  0  0  0  0  0  0  0  0  0  0  0
  191.6900  176.6200  147.5020 C   0  0  0  0  0  1  0  0  0  0  0  0
  190.3740  176.5540  147.9660 O   0  0  0  0  0  0  0  0  0  0  0  0
  187.8460  177.9120  147.6160 C   0  0  0  0  0  2  0  0  0  0  0  0
  186.4310  177.4140  147.3660 C   0  0  0  0  0  2  0  0  0  0  0  0
  185.4680  178.5840  147.2850 C   0  0  0  0  0  2  0  0  0  0  0  0
  184.3390  178.2440  146.3250 C   0  0  0  0  0  2  0  0  0  0  0  0
  184.4540  179.0270  145.0230 C   0  0  0  0  0  3  0  0  0  0  0  0
  185.6250  179.7860  145.0100 O   0  0  0  0  0  1  0  0  0  0  0  0
  184.4390  178.1600  143.9290 O   0  0  0  0  0  1  0  0  0  0  0  0
  1 19  1  0  0  0  0
  2  9  1  0  0  0  0
  3 16  1  0  0  0  0
  3  2  2  0  0  0  0
  4 20  2  0  0  0  0
  5 15  1  0  0  0  0
  5  4  1  0  0  0  0
  6 25  1  1  0  0  0
  7 14  1  0  0  0  0
  8 13  1  0  0  0  0
  8 23  2  0  0  0  0
 10  1  1  0  0  0  0
 10  7  1  1  0  0  0
 11  9  1  6  0  0  0
 11 10  1  0  0  0  0
 12 18  1  6  0  0  0
 12 22  1  0  0  0  0
 14  6  1  0  0  0  0
 14 26  1  1  0  0  0
 17 16  1  6  0  0  0
 17 12  1  0  0  0  0
 17 11  1  0  0  0  0
 18 23  1  0  0  0  0
 19  6  1  0  0  0  0
 21  8  1  0  0  0  0
 22  4  1  0  0  0  0
 22  1  2  0  0  0  0
 23  5  1  0  0  0  0
 24 25  1  0  0  0  0
 27 26  1  0  0  0  0
 28 27  1  0  0  0  0
 29 28  1  0  0  0  0
 30 29  1  0  0  0  0
 31 30  1  0  0  0  0
 32 30  1  0  0  0  0
M  END
>  <MODEL>
9

>  <REMARK>
 VINA RESULT:      -7.0      3.254      7.042
  Name = 
  6 active torsions:
  status: ('A' for Active; 'I' for Inactive)
    1  A    between atoms: C_1  and  C_10
    2  A    between atoms: C_2  and  C_12
    3  A    between atoms: C_2  and  C_24
    4  A    between atoms: C_8  and  O_23
    5  A    between atoms: C_10  and  C_24
    6  A    between atoms: C_12  and  C_21
                            x       y       z     vdW  Elec       q    Type
                         _______ _______ _______ _____ _____    ______ ____

>  <TORSDO>
F 6

$$$$
