=
 OpenBabel11052419353D

 55 59  0  0  1  0  0  0  0  0999 V2000
  187.3670  176.4980  140.6690 C   0  0  0  0  0  3  0  0  0  0  0  0
  185.5440  177.4100  142.6000 C   0  0  0  0  0  0  0  0  0  0  0  0
  186.4200  176.3570  142.8860 C   0  0  0  0  0  3  0  0  0  0  0  0
  186.4930  177.5470  140.3690 C   0  0  0  0  0  3  0  0  0  0  0  0
  187.3460  175.9080  141.9350 C   0  0  0  0  0  0  0  0  0  0  0  0
  185.5920  178.0080  141.3380 C   0  0  0  0  0  3  0  0  0  0  0  0
  184.6210  177.8640  143.5470 O   0  0  0  0  0  0  0  0  0  0  0  0
  184.9580  178.8160  144.5440 C   0  0  0  0  0  2  0  0  0  0  0  0
  183.9140  178.8030  145.6370 C   0  0  0  0  0  2  0  0  0  0  0  0
  184.4950  178.1150  146.8600 C   0  0  0  0  0  2  0  0  0  0  0  0
  186.0160  178.0270  146.7960 C   0  0  0  0  0  2  0  0  0  0  0  0
  186.5220  176.7110  147.3510 C   0  0  0  0  0  2  0  0  0  0  0  0
  187.4870  176.0820  146.3520 C   0  0  0  0  0  2  0  0  0  0  0  0
  188.8260  175.6950  146.9790 C   0  0  1  0  0  3  0  0  0  0  0  0
  189.1420  174.3600  146.7150 O   0  0  0  0  0  1  0  0  0  0  0  0
  189.7420  177.7840  144.5400 O   0  0  0  0  0  1  0  0  0  0  0  0
  189.9990  176.6560  146.6940 C   0  0  1  0  0  0  0  0  0  0  0  0
  194.4210  175.7310  145.5640 C   0  0  0  0  0  3  0  0  0  0  0  0
  190.2410  175.5670  144.5380 F   0  0  0  0  0  0  0  0  0  0  0  0
  190.4280  176.7680  145.2090 C   0  0  1  0  0  0  0  0  0  0  0  0
  193.8860  176.0670  144.2310 C   0  0  0  0  0  3  0  0  0  0  0  0
  192.7110  176.6850  144.0910 C   0  0  0  0  0  3  0  0  0  0  0  0
  192.3730  176.5070  146.5250 N   0  0  0  0  0  0  0  0  0  0  0  0
  191.9070  177.1150  145.2890 C   0  0  2  0  0  3  0  0  0  0  0  0
  189.6670  177.9340  147.1650 O   0  0  0  0  0  1  0  0  0  0  0  0
  193.6770  175.9290  146.6560 C   0  0  0  0  0  3  0  0  0  0  0  0
  191.2710  176.1510  147.4020 C   0  0  1  0  0  3  0  0  0  0  0  0
  191.4710  176.7060  148.7860 C   0  0  0  0  0  3  0  0  0  0  0  0
  191.8890  177.8380  148.9400 O   0  0  0  0  0  0  0  0  0  0  0  0
  188.2770  174.7690  142.2150 C   0  0  0  0  0  2  0  0  0  0  0  0
  189.6120  174.9350  141.5420 C   0  0  0  0  0  3  0  0  0  0  0  0
  190.5470  173.9840  141.5110 C   0  0  0  0  0  3  0  0  0  0  0  0
  190.4000  172.6250  142.1320 C   0  0  2  0  0  3  0  0  0  0  0  0
  191.9460  170.8100  142.7040 O   0  0  0  0  0  0  0  0  0  0  0  0
  191.7370  172.2040  142.7590 C   0  0  2  0  0  0  0  0  0  0  0  0
  191.7290  171.3720  143.9870 C   0  0  0  0  0  2  0  0  0  0  0  0
  192.9950  173.0650  142.5000 C   0  0  0  0  0  2  0  0  0  0  0  0
  193.7210  172.7850  141.1770 C   0  0  0  0  0  2  0  0  0  0  0  0
  193.6520  174.0240  139.2130 C   0  0  0  0  0  1  0  0  0  0  0  0
  194.2480  173.9980  140.5420 N   0  0  0  0  0  0  0  0  0  0  0  0
  195.6900  173.8480  140.3460 C   0  0  0  0  0  2  0  0  0  0  0  0
  197.7880  175.2310  140.3230 C   0  0  0  0  0  1  0  0  0  0  0  0
  196.7330  174.5690  142.4600 C   0  0  0  0  0  1  0  0  0  0  0  0
  195.6610  176.2540  141.0340 C   0  0  0  0  0  1  0  0  0  0  0  0
  196.4680  174.9730  141.0320 C   0  0  0  0  0  0  0  0  0  0  0  0
  189.9520  171.6630  141.1240 N   0  0  0  0  0  2  0  0  0  0  0  0
  190.5950  171.9900  139.9240 N   0  0  0  0  0  2  0  0  0  0  0  0
  189.5660  170.4320  138.3220 C   0  0  0  0  0  2  0  0  0  0  0  0
  191.3420  171.1120  136.8350 C   0  0  2  0  0  3  0  0  0  0  0  0
  190.7920  170.7540  139.1720 C   0  0  1  0  0  3  0  0  0  0  0  0
  191.9510  170.9300  138.2120 C   0  0  0  0  0  2  0  0  0  0  0  0
  190.0130  170.3940  136.8770 C   0  0  0  0  0  2  0  0  0  0  0  0
  192.2360  170.5660  135.7250 C   0  0  0  0  0  3  0  0  0  0  0  0
  193.2280  171.4950  135.3860 O   0  0  0  0  0  1  0  0  0  0  0  0
  192.8080  169.3430  136.0730 O   0  0  0  0  0  1  0  0  0  0  0  0
  1  5  1  0  0  0  0
  2  3  1  0  0  0  0
  2  7  1  0  0  0  0
  4  1  2  0  0  0  0
  4  6  1  0  0  0  0
  5 30  1  0  0  0  0
  5  3  2  0  0  0  0
  6  2  2  0  0  0  0
  7  8  1  0  0  0  0
  8  9  1  0  0  0  0
  9 10  1  0  0  0  0
 11 10  1  0  0  0  0
 11 12  1  0  0  0  0
 13 14  1  0  0  0  0
 13 12  1  0  0  0  0
 14 15  1  6  0  0  0
 16 20  1  0  0  0  0
 17 14  1  0  0  0  0
 17 25  1  1  0  0  0
 17 27  1  0  0  0  0
 18 26  2  0  0  0  0
 20 19  1  6  0  0  0
 20 24  1  0  0  0  0
 20 17  1  0  0  0  0
 21 18  1  0  0  0  0
 22 21  2  0  0  0  0
 23 26  1  0  0  0  0
 23 27  1  0  0  0  0
 24 22  1  6  0  0  0
 24 23  1  0  0  0  0
 27 28  1  1  0  0  0
 28 29  2  0  0  0  0
 31 30  1  0  0  0  0
 32 31  2  0  0  0  0
 33 32  1  6  0  0  0
 33 35  1  0  0  0  0
 34 35  1  0  0  0  0
 34 36  1  0  0  0  0
 35 37  1  6  0  0  0
 35 36  1  0  0  0  0
 38 37  1  0  0  0  0
 39 40  1  0  0  0  0
 40 38  1  0  0  0  0
 41 40  1  0  0  0  0
 41 45  1  0  0  0  0
 42 45  1  0  0  0  0
 45 44  1  0  0  0  0
 45 43  1  0  0  0  0
 46 33  1  0  0  0  0
 47 46  1  0  0  0  0
 48 50  1  0  0  0  0
 49 53  1  6  0  0  0
 49 52  1  0  0  0  0
 49 51  1  0  0  0  0
 50 47  1  6  0  0  0
 51 50  1  0  0  0  0
 52 48  1  0  0  0  0
 53 55  1  0  0  0  0
 54 53  1  0  0  0  0
M  END
>  <MODEL>
1

>  <REMARK>
 VINA RESULT:      -6.3      0.000      0.000
  Name = 
  23 active torsions:
  status: ('A' for Active; 'I' for Inactive)
    1  A    between atoms: C_1  and  C_53
    2  A    between atoms: C_2  and  C_28
    3  A    between atoms: C_2  and  C_44
    4  A    between atoms: C_6  and  C_20
    5  A    between atoms: C_7  and  C_20
    6  A    between atoms: C_7  and  C_22
    7  A    between atoms: C_8  and  C_22
    8  A    between atoms: C_8  and  C_35
    9  A    between atoms: C_10  and  C_32
   10  A    between atoms: C_16  and  C_17
   11  A    between atoms: C_16  and  C_26
   12  A    between atoms: C_17  and  C_33
   13  A    between atoms: C_19  and  C_40
   14  A    between atoms: C_19  and  N_45
   15  A    between atoms: C_26  and  N_45
   16  A    between atoms: C_27  and  O_54
   17  A    between atoms: C_33  and  N_36
   18  A    between atoms: C_33  and  C_49
   19  A    between atoms: C_34  and  N_52
   20  A    between atoms: C_35  and  C_43
   21  A    between atoms: N_36  and  N_52
   22  A    between atoms: C_43  and  C_51
   23  A    between atoms: C_51  and  O_54
                            x       y       z     vdW  Elec       q    Type
                         _______ _______ _______ _____ _____    ______ ____

>  <TORSDO>
F 23

$$$$
=
 OpenBabel11052419353D

 55 59  0  0  1  0  0  0  0  0999 V2000
  188.1570  177.3100  141.4540 C   0  0  0  0  0  3  0  0  0  0  0  0
  185.9090  177.3830  143.1340 C   0  0  0  0  0  0  0  0  0  0  0  0
  186.3810  176.1680  142.6260 C   0  0  0  0  0  3  0  0  0  0  0  0
  187.6910  178.5310  141.9510 C   0  0  0  0  0  3  0  0  0  0  0  0
  187.5130  176.1200  141.8020 C   0  0  0  0  0  0  0  0  0  0  0  0
  186.5770  178.5640  142.7980 C   0  0  0  0  0  3  0  0  0  0  0  0
  184.7830  177.4350  143.9600 O   0  0  0  0  0  0  0  0  0  0  0  0
  184.4750  178.5660  144.7600 C   0  0  0  0  0  2  0  0  0  0  0  0
  184.1840  178.1270  146.1770 C   0  0  0  0  0  2  0  0  0  0  0  0
  185.4230  178.3570  147.0250 C   0  0  0  0  0  2  0  0  0  0  0  0
  186.2320  177.0780  147.2100 C   0  0  0  0  0  2  0  0  0  0  0  0
  187.3450  176.9700  146.1860 C   0  0  0  0  0  2  0  0  0  0  0  0
  188.5420  176.2660  146.8180 C   0  0  0  0  0  2  0  0  0  0  0  0
  189.8790  176.8800  146.4060 C   0  0  1  0  0  3  0  0  0  0  0  0
  190.6360  177.2420  147.5240 O   0  0  0  0  0  1  0  0  0  0  0  0
  190.4750  173.6680  145.7160 O   0  0  0  0  0  1  0  0  0  0  0  0
  190.6900  176.0780  145.3680 C   0  0  1  0  0  0  0  0  0  0  0  0
  195.2930  175.5020  144.9590 C   0  0  0  0  0  3  0  0  0  0  0  0
  191.6830  174.8660  147.2210 F   0  0  0  0  0  0  0  0  0  0  0  0
  191.3250  174.7620  145.8840 C   0  0  1  0  0  0  0  0  0  0  0  0
  194.9350  174.2200  145.5960 C   0  0  0  0  0  3  0  0  0  0  0  0
  193.6690  173.8010  145.6480 C   0  0  0  0  0  3  0  0  0  0  0  0
  192.9620  175.9440  144.6560 N   0  0  0  0  0  0  0  0  0  0  0  0
  192.5570  174.5920  145.0090 C   0  0  2  0  0  3  0  0  0  0  0  0
  189.8640  175.7810  144.2740 O   0  0  0  0  0  1  0  0  0  0  0  0
  194.3360  176.3280  144.5290 C   0  0  0  0  0  3  0  0  0  0  0  0
  191.9020  176.9060  144.8990 C   0  0  1  0  0  3  0  0  0  0  0  0
  191.6400  177.7520  143.6830 C   0  0  0  0  0  3  0  0  0  0  0  0
  191.3350  178.9230  143.8030 O   0  0  0  0  0  0  0  0  0  0  0  0
  188.0220  174.8320  141.2310 C   0  0  0  0  0  2  0  0  0  0  0  0
  188.1010  173.7360  142.2580 C   0  0  0  0  0  3  0  0  0  0  0  0
  189.1160  172.8730  142.3400 C   0  0  0  0  0  3  0  0  0  0  0  0
  190.3110  172.8750  141.4310 C   0  0  2  0  0  3  0  0  0  0  0  0
  190.2200  170.5460  142.1920 O   0  0  0  0  0  0  0  0  0  0  0  0
  190.8980  171.4580  141.3580 C   0  0  2  0  0  0  0  0  0  0  0  0
  191.5460  170.8810  142.5610 C   0  0  0  0  0  2  0  0  0  0  0  0
  191.3320  170.8920  139.9850 C   0  0  0  0  0  2  0  0  0  0  0  0
  190.2690  170.9670  138.8800 C   0  0  0  0  0  2  0  0  0  0  0  0
  192.1570  170.8380  137.5330 C   0  0  0  0  0  1  0  0  0  0  0  0
  190.8130  171.3980  137.5870 N   0  0  0  0  0  0  0  0  0  0  0  0
  190.9700  172.8530  137.5950 C   0  0  0  0  0  2  0  0  0  0  0  0
  190.6190  174.7140  135.9440 C   0  0  0  0  0  1  0  0  0  0  0  0
  188.7910  173.9960  137.4460 C   0  0  0  0  0  1  0  0  0  0  0  0
  189.4970  172.5480  135.5950 C   0  0  0  0  0  1  0  0  0  0  0  0
  189.9780  173.5270  136.6440 C   0  0  0  0  0  0  0  0  0  0  0  0
  191.2990  173.8420  141.9100 N   0  0  0  0  0  2  0  0  0  0  0  0
  192.0570  174.2440  140.8020 N   0  0  0  0  0  2  0  0  0  0  0  0
  194.0990  173.4440  141.9150 C   0  0  0  0  0  2  0  0  0  0  0  0
  195.1890  173.9410  139.8200 C   0  0  2  0  0  3  0  0  0  0  0  0
  193.3790  174.6320  141.2830 C   0  0  1  0  0  3  0  0  0  0  0  0
  194.2280  175.0790  140.1100 C   0  0  0  0  0  2  0  0  0  0  0  0
  195.3740  173.2160  141.1330 C   0  0  0  0  0  2  0  0  0  0  0  0
  196.5220  174.4320  139.2610 C   0  0  0  0  0  3  0  0  0  0  0  0
  197.5780  174.0670  140.1050 O   0  0  0  0  0  1  0  0  0  0  0  0
  196.7450  173.9660  137.9660 O   0  0  0  0  0  1  0  0  0  0  0  0
  1  5  2  0  0  0  0
  1  4  1  0  0  0  0
  2  7  1  0  0  0  0
  3  2  2  0  0  0  0
  4  6  2  0  0  0  0
  5  3  1  0  0  0  0
  6  2  1  0  0  0  0
  7  8  1  0  0  0  0
  8  9  1  0  0  0  0
  9 10  1  0  0  0  0
 10 11  1  0  0  0  0
 12 13  1  0  0  0  0
 12 11  1  0  0  0  0
 14 13  1  0  0  0  0
 14 15  1  1  0  0  0
 17 25  1  6  0  0  0
 17 20  1  0  0  0  0
 17 14  1  0  0  0  0
 18 21  1  0  0  0  0
 20 16  1  6  0  0  0
 20 19  1  0  0  0  0
 21 22  2  0  0  0  0
 23 27  1  0  0  0  0
 23 24  1  0  0  0  0
 24 22  1  1  0  0  0
 24 20  1  0  0  0  0
 26 23  1  0  0  0  0
 26 18  2  0  0  0  0
 27 28  1  6  0  0  0
 27 17  1  0  0  0  0
 28 29  2  0  0  0  0
 30  5  1  0  0  0  0
 30 31  1  0  0  0  0
 31 32  2  0  0  0  0
 33 46  1  0  0  0  0
 33 32  1  1  0  0  0
 34 36  1  0  0  0  0
 35 37  1  6  0  0  0
 35 33  1  0  0  0  0
 35 34  1  0  0  0  0
 35 36  1  0  0  0  0
 38 37  1  0  0  0  0
 39 40  1  0  0  0  0
 40 41  1  0  0  0  0
 40 38  1  0  0  0  0
 42 45  1  0  0  0  0
 44 45  1  0  0  0  0
 45 43  1  0  0  0  0
 45 41  1  0  0  0  0
 47 46  1  0  0  0  0
 49 53  1  1  0  0  0
 49 51  1  0  0  0  0
 49 52  1  0  0  0  0
 50 47  1  6  0  0  0
 50 48  1  0  0  0  0
 51 50  1  0  0  0  0
 52 48  1  0  0  0  0
 53 54  1  0  0  0  0
 55 53  1  0  0  0  0
M  END
>  <MODEL>
2

>  <REMARK>
 VINA RESULT:      -6.2      2.012      4.134
  Name = 
  23 active torsions:
  status: ('A' for Active; 'I' for Inactive)
    1  A    between atoms: C_1  and  C_53
    2  A    between atoms: C_2  and  C_28
    3  A    between atoms: C_2  and  C_44
    4  A    between atoms: C_6  and  C_20
    5  A    between atoms: C_7  and  C_20
    6  A    between atoms: C_7  and  C_22
    7  A    between atoms: C_8  and  C_22
    8  A    between atoms: C_8  and  C_35
    9  A    between atoms: C_10  and  C_32
   10  A    between atoms: C_16  and  C_17
   11  A    between atoms: C_16  and  C_26
   12  A    between atoms: C_17  and  C_33
   13  A    between atoms: C_19  and  C_40
   14  A    between atoms: C_19  and  N_45
   15  A    between atoms: C_26  and  N_45
   16  A    between atoms: C_27  and  O_54
   17  A    between atoms: C_33  and  N_36
   18  A    between atoms: C_33  and  C_49
   19  A    between atoms: C_34  and  N_52
   20  A    between atoms: C_35  and  C_43
   21  A    between atoms: N_36  and  N_52
   22  A    between atoms: C_43  and  C_51
   23  A    between atoms: C_51  and  O_54
                            x       y       z     vdW  Elec       q    Type
                         _______ _______ _______ _____ _____    ______ ____

>  <TORSDO>
F 23

$$$$
=
 OpenBabel11052419353D

 55 59  0  0  1  0  0  0  0  0999 V2000
  187.9710  177.5860  142.0070 C   0  0  0  0  0  3  0  0  0  0  0  0
  185.5140  177.8480  143.3400 C   0  0  0  0  0  0  0  0  0  0  0  0
  185.8590  176.6480  142.7090 C   0  0  0  0  0  3  0  0  0  0  0  0
  187.6360  178.7920  142.6300 C   0  0  0  0  0  3  0  0  0  0  0  0
  187.0910  176.5020  142.0570 C   0  0  0  0  0  0  0  0  0  0  0  0
  186.4140  178.9160  143.3040 C   0  0  0  0  0  3  0  0  0  0  0  0
  184.2880  177.9970  143.9950 O   0  0  0  0  0  0  0  0  0  0  0  0
  184.1310  178.8160  145.1430 C   0  0  0  0  0  2  0  0  0  0  0  0
  184.0850  177.9560  146.3840 C   0  0  0  0  0  2  0  0  0  0  0  0
  185.4400  178.0120  147.0700 C   0  0  0  0  0  2  0  0  0  0  0  0
  186.3200  176.8270  146.6880 C   0  0  0  0  0  2  0  0  0  0  0  0
  187.6690  177.2810  146.1660 C   0  0  0  0  0  2  0  0  0  0  0  0
  188.7490  176.3320  146.6760 C   0  0  0  0  0  2  0  0  0  0  0  0
  190.1650  176.8450  146.4130 C   0  0  1  0  0  3  0  0  0  0  0  0
  190.8690  177.0210  147.6080 O   0  0  0  0  0  1  0  0  0  0  0  0
  190.7780  173.6510  145.6600 O   0  0  0  0  0  1  0  0  0  0  0  0
  190.9710  176.0680  145.3520 C   0  0  1  0  0  0  0  0  0  0  0  0
  195.5730  175.5360  144.8830 C   0  0  0  0  0  3  0  0  0  0  0  0
  191.9930  174.8310  147.1730 F   0  0  0  0  0  0  0  0  0  0  0  0
  191.6220  174.7480  145.8380 C   0  0  1  0  0  0  0  0  0  0  0  0
  195.2320  174.2400  145.5010 C   0  0  0  0  0  3  0  0  0  0  0  0
  193.9690  173.8110  145.5590 C   0  0  0  0  0  3  0  0  0  0  0  0
  193.2360  175.9650  144.6140 N   0  0  0  0  0  0  0  0  0  0  0  0
  192.8450  174.6040  144.9460 C   0  0  2  0  0  3  0  0  0  0  0  0
  190.1350  175.7850  144.2630 O   0  0  0  0  0  1  0  0  0  0  0  0
  194.6050  176.3630  144.4790 C   0  0  0  0  0  3  0  0  0  0  0  0
  192.1710  176.9140  144.8860 C   0  0  1  0  0  3  0  0  0  0  0  0
  191.8890  177.7800  143.6870 C   0  0  0  0  0  3  0  0  0  0  0  0
  191.3360  178.8550  143.8220 O   0  0  0  0  0  0  0  0  0  0  0  0
  187.4700  175.2340  141.3570 C   0  0  0  0  0  2  0  0  0  0  0  0
  187.7890  174.1190  142.3140 C   0  0  0  0  0  3  0  0  0  0  0  0
  188.9020  173.3850  142.2490 C   0  0  0  0  0  3  0  0  0  0  0  0
  189.9840  173.5690  141.2250 C   0  0  2  0  0  3  0  0  0  0  0  0
  189.9860  172.9900  138.8440 O   0  0  0  0  0  0  0  0  0  0  0  0
  189.8610  172.4790  140.1510 C   0  0  2  0  0  0  0  0  0  0  0  0
  188.7070  172.5090  139.2190 C   0  0  0  0  0  2  0  0  0  0  0  0
  190.5390  171.1090  140.3870 C   0  0  0  0  0  2  0  0  0  0  0  0
  191.5970  170.7140  139.3470 C   0  0  0  0  0  2  0  0  0  0  0  0
  191.2750  168.7140  140.4830 C   0  0  0  0  0  1  0  0  0  0  0  0
  192.2200  169.4150  139.6250 N   0  0  0  0  0  0  0  0  0  0  0  0
  193.4280  169.6250  140.4240 C   0  0  0  0  0  2  0  0  0  0  0  0
  195.8270  168.8880  140.5490 C   0  0  0  0  0  1  0  0  0  0  0  0
  195.0930  170.5220  138.8430 C   0  0  0  0  0  1  0  0  0  0  0  0
  194.4270  168.1680  138.6520 C   0  0  0  0  0  1  0  0  0  0  0  0
  194.6910  169.2970  139.6250 C   0  0  0  0  0  0  0  0  0  0  0  0
  191.2950  173.5370  141.8760 N   0  0  0  0  0  2  0  0  0  0  0  0
  191.9670  174.7120  141.5120 N   0  0  0  0  0  2  0  0  0  0  0  0
  194.1910  175.4030  140.7220 C   0  0  0  0  0  2  0  0  0  0  0  0
  194.9920  173.4660  141.9190 C   0  0  2  0  0  3  0  0  0  0  0  0
  193.0990  174.3370  140.6720 C   0  0  1  0  0  3  0  0  0  0  0  0
  193.7180  173.0590  141.2030 C   0  0  0  0  0  2  0  0  0  0  0  0
  195.4460  174.7440  141.2530 C   0  0  0  0  0  2  0  0  0  0  0  0
  196.0690  172.3880  141.8480 C   0  0  0  0  0  3  0  0  0  0  0  0
  197.1720  172.8350  141.1110 O   0  0  0  0  0  1  0  0  0  0  0  0
  196.4660  171.9670  143.1170 O   0  0  0  0  0  1  0  0  0  0  0  0
  1  5  2  0  0  0  0
  1  4  1  0  0  0  0
  2  7  1  0  0  0  0
  3  2  2  0  0  0  0
  4  6  2  0  0  0  0
  5  3  1  0  0  0  0
  6  2  1  0  0  0  0
  7  8  1  0  0  0  0
  8  9  1  0  0  0  0
  9 10  1  0  0  0  0
 11 10  1  0  0  0  0
 12 13  1  0  0  0  0
 12 11  1  0  0  0  0
 14 13  1  0  0  0  0
 14 15  1  1  0  0  0
 17 25  1  6  0  0  0
 17 20  1  0  0  0  0
 17 14  1  0  0  0  0
 18 21  1  0  0  0  0
 20 16  1  6  0  0  0
 20 19  1  0  0  0  0
 21 22  2  0  0  0  0
 23 27  1  0  0  0  0
 23 24  1  0  0  0  0
 24 22  1  1  0  0  0
 24 20  1  0  0  0  0
 26 23  1  0  0  0  0
 26 18  2  0  0  0  0
 27 28  1  6  0  0  0
 27 17  1  0  0  0  0
 28 29  2  0  0  0  0
 30  5  1  0  0  0  0
 30 31  1  0  0  0  0
 32 31  2  0  0  0  0
 33 46  1  0  0  0  0
 33 32  1  1  0  0  0
 34 36  1  0  0  0  0
 34 35  1  0  0  0  0
 35 37  1  1  0  0  0
 35 33  1  0  0  0  0
 36 35  1  0  0  0  0
 38 40  1  0  0  0  0
 38 37  1  0  0  0  0
 40 41  1  0  0  0  0
 40 39  1  0  0  0  0
 43 45  1  0  0  0  0
 44 45  1  0  0  0  0
 45 41  1  0  0  0  0
 45 42  1  0  0  0  0
 47 46  1  0  0  0  0
 48 52  1  0  0  0  0
 49 53  1  6  0  0  0
 50 48  1  0  0  0  0
 50 51  1  0  0  0  0
 50 47  1  1  0  0  0
 51 49  1  0  0  0  0
 52 49  1  0  0  0  0
 53 55  1  0  0  0  0
 54 53  1  0  0  0  0
M  END
>  <MODEL>
3

>  <REMARK>
 VINA RESULT:      -6.0      2.229      4.191
  Name = 
  23 active torsions:
  status: ('A' for Active; 'I' for Inactive)
    1  A    between atoms: C_1  and  C_53
    2  A    between atoms: C_2  and  C_28
    3  A    between atoms: C_2  and  C_44
    4  A    between atoms: C_6  and  C_20
    5  A    between atoms: C_7  and  C_20
    6  A    between atoms: C_7  and  C_22
    7  A    between atoms: C_8  and  C_22
    8  A    between atoms: C_8  and  C_35
    9  A    between atoms: C_10  and  C_32
   10  A    between atoms: C_16  and  C_17
   11  A    between atoms: C_16  and  C_26
   12  A    between atoms: C_17  and  C_33
   13  A    between atoms: C_19  and  C_40
   14  A    between atoms: C_19  and  N_45
   15  A    between atoms: C_26  and  N_45
   16  A    between atoms: C_27  and  O_54
   17  A    between atoms: C_33  and  N_36
   18  A    between atoms: C_33  and  C_49
   19  A    between atoms: C_34  and  N_52
   20  A    between atoms: C_35  and  C_43
   21  A    between atoms: N_36  and  N_52
   22  A    between atoms: C_43  and  C_51
   23  A    between atoms: C_51  and  O_54
                            x       y       z     vdW  Elec       q    Type
                         _______ _______ _______ _____ _____    ______ ____

>  <TORSDO>
F 23

$$$$
=
 OpenBabel11052419353D

 55 59  0  0  1  0  0  0  0  0999 V2000
  193.2690  177.0590  145.4070 C   0  0  0  0  0  3  0  0  0  0  0  0
  194.1970  174.4100  145.4320 C   0  0  0  0  0  0  0  0  0  0  0  0
  193.0130  174.7450  144.7660 C   0  0  0  0  0  3  0  0  0  0  0  0
  194.4500  176.7360  146.0800 C   0  0  0  0  0  3  0  0  0  0  0  0
  192.5520  176.0680  144.7320 C   0  0  0  0  0  0  0  0  0  0  0  0
  194.9170  175.4150  146.0830 C   0  0  0  0  0  3  0  0  0  0  0  0
  194.6630  173.0920  145.4650 O   0  0  0  0  0  0  0  0  0  0  0  0
  195.9880  172.7610  145.8480 C   0  0  0  0  0  2  0  0  0  0  0  0
  196.7980  172.3960  144.6260 C   0  0  0  0  0  2  0  0  0  0  0  0
  197.9410  173.3860  144.4830 C   0  0  0  0  0  2  0  0  0  0  0  0
  197.5240  174.6280  143.7020 C   0  0  0  0  0  2  0  0  0  0  0  0
  197.8960  174.5150  142.2370 C   0  0  0  0  0  2  0  0  0  0  0  0
  196.6360  174.6460  141.3870 C   0  0  0  0  0  2  0  0  0  0  0  0
  196.0440  173.2950  140.9860 C   0  0  1  0  0  3  0  0  0  0  0  0
  194.9490  172.9640  141.7890 O   0  0  0  0  0  1  0  0  0  0  0  0
  195.3930  175.2510  138.3600 O   0  0  0  0  0  1  0  0  0  0  0  0
  195.7610  173.1110  139.4810 C   0  0  1  0  0  0  0  0  0  0  0  0
  191.9810  171.4500  137.3260 C   0  0  0  0  0  3  0  0  0  0  0  0
  193.7900  174.4940  139.7800 F   0  0  0  0  0  0  0  0  0  0  0  0
  194.7570  174.1140  138.8590 C   0  0  1  0  0  0  0  0  0  0  0  0
  191.7620  172.8980  137.1400 C   0  0  0  0  0  3  0  0  0  0  0  0
  192.7430  173.7790  137.3420 C   0  0  0  0  0  3  0  0  0  0  0  0
  194.1780  171.9400  138.1360 N   0  0  0  0  0  0  0  0  0  0  0  0
  194.1320  173.3310  137.7150 C   0  0  2  0  0  3  0  0  0  0  0  0
  196.9710  173.1890  138.7760 O   0  0  0  0  0  1  0  0  0  0  0  0
  193.1390  171.0060  137.8230 C   0  0  0  0  0  3  0  0  0  0  0  0
  195.1020  171.7400  139.2390 C   0  0  1  0  0  3  0  0  0  0  0  0
  196.0730  170.6290  138.9450 C   0  0  0  0  0  3  0  0  0  0  0  0
  196.5130  169.9430  139.8480 O   0  0  0  0  0  0  0  0  0  0  0  0
  191.2770  176.4430  144.0420 C   0  0  0  0  0  2  0  0  0  0  0  0
  190.1230  175.5670  144.4430 C   0  0  0  0  0  3  0  0  0  0  0  0
  189.1270  175.2340  143.6190 C   0  0  0  0  0  3  0  0  0  0  0  0
  189.0210  175.6780  142.1890 C   0  0  2  0  0  3  0  0  0  0  0  0
  187.3970  176.7320  140.6860 O   0  0  0  0  0  0  0  0  0  0  0  0
  187.8010  176.5960  142.0300 C   0  0  2  0  0  0  0  0  0  0  0  0
  187.9520  177.8810  141.3040 C   0  0  0  0  0  2  0  0  0  0  0  0
  186.6450  176.4990  143.0540 C   0  0  0  0  0  2  0  0  0  0  0  0
  185.6990  177.7070  143.0900 C   0  0  0  0  0  2  0  0  0  0  0  0
  184.5730  179.3280  144.3140 C   0  0  0  0  0  1  0  0  0  0  0  0
  185.2500  178.0460  144.4450 N   0  0  0  0  0  0  0  0  0  0  0  0
  186.4200  178.2790  145.2920 C   0  0  0  0  0  2  0  0  0  0  0  0
  187.4900  176.5730  146.7940 C   0  0  0  0  0  1  0  0  0  0  0  0
  185.0290  176.7280  146.6100 C   0  0  0  0  0  1  0  0  0  0  0  0
  186.2840  178.4800  147.7830 C   0  0  0  0  0  1  0  0  0  0  0  0
  186.3140  177.5180  146.6150 C   0  0  0  0  0  0  0  0  0  0  0  0
  188.9330  174.5100  141.3100 N   0  0  0  0  0  2  0  0  0  0  0  0
  188.4430  173.4480  142.0810 N   0  0  0  0  0  2  0  0  0  0  0  0
  190.0770  172.5210  140.4930 C   0  0  0  0  0  2  0  0  0  0  0  0
  191.4410  172.1240  142.4440 C   0  0  2  0  0  3  0  0  0  0  0  0
  189.1440  172.2360  141.6670 C   0  0  1  0  0  3  0  0  0  0  0  0
  190.0160  171.7470  142.8050 C   0  0  0  0  0  2  0  0  0  0  0  0
  191.4820  172.1740  140.9350 C   0  0  0  0  0  2  0  0  0  0  0  0
  192.4630  171.1360  142.9990 C   0  0  0  0  0  3  0  0  0  0  0  0
  192.2810  170.9540  144.3750 O   0  0  0  0  0  1  0  0  0  0  0  0
  192.4170  169.9120  142.3320 O   0  0  0  0  0  1  0  0  0  0  0  0
  1  4  1  0  0  0  0
  2  7  1  0  0  0  0
  2  6  1  0  0  0  0
  3  2  2  0  0  0  0
  4  6  2  0  0  0  0
  5  3  1  0  0  0  0
  5  1  2  0  0  0  0
  7  8  1  0  0  0  0
  9  8  1  0  0  0  0
 10  9  1  0  0  0  0
 11 10  1  0  0  0  0
 12 11  1  0  0  0  0
 13 12  1  0  0  0  0
 14 13  1  0  0  0  0
 14 15  1  1  0  0  0
 17 25  1  6  0  0  0
 17 14  1  0  0  0  0
 18 26  2  0  0  0  0
 20 16  1  6  0  0  0
 20 17  1  0  0  0  0
 20 19  1  0  0  0  0
 21 18  1  0  0  0  0
 21 22  2  0  0  0  0
 23 27  1  0  0  0  0
 24 22  1  1  0  0  0
 24 23  1  0  0  0  0
 24 20  1  0  0  0  0
 26 23  1  0  0  0  0
 27 28  1  6  0  0  0
 27 17  1  0  0  0  0
 28 29  2  0  0  0  0
 30 31  1  0  0  0  0
 30  5  1  0  0  0  0
 32 31  2  0  0  0  0
 33 32  1  1  0  0  0
 34 36  1  0  0  0  0
 34 35  1  0  0  0  0
 35 33  1  0  0  0  0
 35 37  1  1  0  0  0
 36 35  1  0  0  0  0
 37 38  1  0  0  0  0
 38 40  1  0  0  0  0
 39 40  1  0  0  0  0
 40 41  1  0  0  0  0
 41 45  1  0  0  0  0
 43 45  1  0  0  0  0
 45 42  1  0  0  0  0
 45 44  1  0  0  0  0
 46 47  1  0  0  0  0
 46 33  1  0  0  0  0
 48 52  1  0  0  0  0
 48 50  1  0  0  0  0
 49 51  1  0  0  0  0
 49 53  1  6  0  0  0
 50 47  1  1  0  0  0
 50 51  1  0  0  0  0
 52 49  1  0  0  0  0
 53 54  1  0  0  0  0
 55 53  1  0  0  0  0
M  END
>  <MODEL>
4

>  <REMARK>
 VINA RESULT:      -5.7      2.797      9.213
  Name = 
  23 active torsions:
  status: ('A' for Active; 'I' for Inactive)
    1  A    between atoms: C_1  and  C_53
    2  A    between atoms: C_2  and  C_28
    3  A    between atoms: C_2  and  C_44
    4  A    between atoms: C_6  and  C_20
    5  A    between atoms: C_7  and  C_20
    6  A    between atoms: C_7  and  C_22
    7  A    between atoms: C_8  and  C_22
    8  A    between atoms: C_8  and  C_35
    9  A    between atoms: C_10  and  C_32
   10  A    between atoms: C_16  and  C_17
   11  A    between atoms: C_16  and  C_26
   12  A    between atoms: C_17  and  C_33
   13  A    between atoms: C_19  and  C_40
   14  A    between atoms: C_19  and  N_45
   15  A    between atoms: C_26  and  N_45
   16  A    between atoms: C_27  and  O_54
   17  A    between atoms: C_33  and  N_36
   18  A    between atoms: C_33  and  C_49
   19  A    between atoms: C_34  and  N_52
   20  A    between atoms: C_35  and  C_43
   21  A    between atoms: N_36  and  N_52
   22  A    between atoms: C_43  and  C_51
   23  A    between atoms: C_51  and  O_54
                            x       y       z     vdW  Elec       q    Type
                         _______ _______ _______ _____ _____    ______ ____

>  <TORSDO>
F 23

$$$$
=
 OpenBabel11052419353D

 55 59  0  0  1  0  0  0  0  0999 V2000
  194.9700  176.6250  144.5820 C   0  0  0  0  0  3  0  0  0  0  0  0
  195.3540  173.9180  145.2160 C   0  0  0  0  0  0  0  0  0  0  0  0
  195.8210  174.4410  144.0050 C   0  0  0  0  0  3  0  0  0  0  0  0
  194.4940  176.1130  145.7930 C   0  0  0  0  0  3  0  0  0  0  0  0
  195.6500  175.7950  143.6890 C   0  0  0  0  0  0  0  0  0  0  0  0
  194.6960  174.7650  146.1110 C   0  0  0  0  0  3  0  0  0  0  0  0
  195.5260  172.5680  145.5370 O   0  0  0  0  0  0  0  0  0  0  0  0
  194.4430  171.6550  145.6000 C   0  0  0  0  0  2  0  0  0  0  0  0
  193.9780  171.3140  144.2020 C   0  0  0  0  0  2  0  0  0  0  0  0
  192.4710  171.4900  144.1300 C   0  0  0  0  0  2  0  0  0  0  0  0
  192.0670  172.9590  144.1800 C   0  0  0  0  0  2  0  0  0  0  0  0
  192.1830  173.6150  142.8190 C   0  0  0  0  0  2  0  0  0  0  0  0
  191.9530  175.1160  142.9640 C   0  0  0  0  0  2  0  0  0  0  0  0
  190.5610  175.5520  142.5050 C   0  0  1  0  0  3  0  0  0  0  0  0
  189.7080  174.4550  142.3620 O   0  0  0  0  0  1  0  0  0  0  0  0
  191.0480  177.0430  145.4530 O   0  0  0  0  0  1  0  0  0  0  0  0
  189.9250  176.7050  143.3090 C   0  0  1  0  0  0  0  0  0  0  0  0
  185.8400  176.9020  145.5370 C   0  0  0  0  0  3  0  0  0  0  0  0
  189.7730  175.1810  145.1910 F   0  0  0  0  0  0  0  0  0  0  0  0
  189.9050  176.5190  144.8470 C   0  0  1  0  0  0  0  0  0  0  0  0
  186.7400  176.6670  146.6820 C   0  0  0  0  0  3  0  0  0  0  0  0
  188.0600  176.8280  146.5710 C   0  0  0  0  0  3  0  0  0  0  0  0
  187.7650  177.2500  144.1610 N   0  0  0  0  0  0  0  0  0  0  0  0
  188.6830  177.3110  145.2870 C   0  0  2  0  0  3  0  0  0  0  0  0
  190.5970  177.8980  143.0070 O   0  0  0  0  0  1  0  0  0  0  0  0
  186.3460  177.1630  144.3280 C   0  0  0  0  0  3  0  0  0  0  0  0
  188.4340  176.8360  142.9400 C   0  0  1  0  0  3  0  0  0  0  0  0
  188.1580  177.7930  141.8120 C   0  0  0  0  0  3  0  0  0  0  0  0
  187.0550  178.2920  141.6860 O   0  0  0  0  0  0  0  0  0  0  0  0
  196.1240  176.3700  142.3890 C   0  0  0  0  0  2  0  0  0  0  0  0
  195.0120  176.5380  141.3920 C   0  0  0  0  0  3  0  0  0  0  0  0
  194.8220  175.7230  140.3520 C   0  0  0  0  0  3  0  0  0  0  0  0
  195.6800  174.5330  140.0360 C   0  0  2  0  0  3  0  0  0  0  0  0
  196.9230  173.5060  138.1890 O   0  0  0  0  0  0  0  0  0  0  0  0
  196.0340  174.5420  138.5420 C   0  0  2  0  0  0  0  0  0  0  0  0
  197.4300  174.8280  138.1310 C   0  0  0  0  0  2  0  0  0  0  0  0
  194.9220  174.8320  137.5060 C   0  0  0  0  0  2  0  0  0  0  0  0
  194.1040  173.6110  137.0640 C   0  0  0  0  0  2  0  0  0  0  0  0
  192.5480  175.2720  136.6020 C   0  0  0  0  0  1  0  0  0  0  0  0
  192.6620  173.8770  137.0030 N   0  0  0  0  0  0  0  0  0  0  0  0
  192.1010  173.7860  138.3520 C   0  0  0  0  0  2  0  0  0  0  0  0
  190.6480  172.2770  139.7390 C   0  0  0  0  0  1  0  0  0  0  0  0
  190.9790  171.8440  137.3270 C   0  0  0  0  0  1  0  0  0  0  0  0
  189.6170  173.7510  138.0540 C   0  0  0  0  0  1  0  0  0  0  0  0
  190.8400  172.9200  138.3750 C   0  0  0  0  0  0  0  0  0  0  0  0
  194.9850  173.3020  140.4160 N   0  0  0  0  0  2  0  0  0  0  0  0
  195.9320  172.4600  141.0130 N   0  0  0  0  0  2  0  0  0  0  0  0
  193.9790  171.0550  140.4990 C   0  0  0  0  0  2  0  0  0  0  0  0
  195.2420  170.3670  138.5600 C   0  0  2  0  0  3  0  0  0  0  0  0
  195.4600  171.0860  140.8690 C   0  0  1  0  0  3  0  0  0  0  0  0
  196.2050  170.4160  139.7310 C   0  0  0  0  0  2  0  0  0  0  0  0
  193.8580  170.3470  139.1670 C   0  0  0  0  0  2  0  0  0  0  0  0
  195.4760  169.1550  137.6630 C   0  0  0  0  0  3  0  0  0  0  0  0
  196.7490  168.6150  137.8820 O   0  0  0  0  0  1  0  0  0  0  0  0
  194.4930  168.1820  137.8390 O   0  0  0  0  0  1  0  0  0  0  0  0
  1  4  1  0  0  0  0
  2  7  1  0  0  0  0
  2  6  1  0  0  0  0
  3  2  2  0  0  0  0
  4  6  2  0  0  0  0
  5  3  1  0  0  0  0
  5  1  2  0  0  0  0
  7  8  1  0  0  0  0
  9  8  1  0  0  0  0
 10 11  1  0  0  0  0
 10  9  1  0  0  0  0
 12 13  1  0  0  0  0
 12 11  1  0  0  0  0
 14 15  1  1  0  0  0
 14 13  1  0  0  0  0
 14 17  1  0  0  0  0
 17 25  1  6  0  0  0
 17 20  1  0  0  0  0
 18 21  1  0  0  0  0
 20 19  1  1  0  0  0
 20 24  1  0  0  0  0
 20 16  1  0  0  0  0
 22 21  2  0  0  0  0
 23 26  1  0  0  0  0
 23 24  1  0  0  0  0
 24 22  1  1  0  0  0
 26 18  2  0  0  0  0
 27 28  1  6  0  0  0
 27 17  1  0  0  0  0
 27 23  1  0  0  0  0
 29 28  2  0  0  0  0
 30  5  1  0  0  0  0
 31 30  1  0  0  0  0
 32 31  2  0  0  0  0
 33 32  1  6  0  0  0
 33 46  1  0  0  0  0
 34 35  1  0  0  0  0
 35 37  1  6  0  0  0
 35 33  1  0  0  0  0
 36 34  1  0  0  0  0
 36 35  1  0  0  0  0
 38 37  1  0  0  0  0
 39 40  1  0  0  0  0
 40 38  1  0  0  0  0
 40 41  1  0  0  0  0
 41 45  1  0  0  0  0
 43 45  1  0  0  0  0
 44 45  1  0  0  0  0
 45 42  1  0  0  0  0
 46 47  1  0  0  0  0
 48 50  1  0  0  0  0
 49 53  1  1  0  0  0
 49 52  1  0  0  0  0
 49 51  1  0  0  0  0
 50 47  1  6  0  0  0
 51 50  1  0  0  0  0
 52 48  1  0  0  0  0
 53 55  1  0  0  0  0
 53 54  1  0  0  0  0
M  END
>  <MODEL>
5

>  <REMARK>
 VINA RESULT:      -5.6      2.447      6.948
  Name = 
  23 active torsions:
  status: ('A' for Active; 'I' for Inactive)
    1  A    between atoms: C_1  and  C_53
    2  A    between atoms: C_2  and  C_28
    3  A    between atoms: C_2  and  C_44
    4  A    between atoms: C_6  and  C_20
    5  A    between atoms: C_7  and  C_20
    6  A    between atoms: C_7  and  C_22
    7  A    between atoms: C_8  and  C_22
    8  A    between atoms: C_8  and  C_35
    9  A    between atoms: C_10  and  C_32
   10  A    between atoms: C_16  and  C_17
   11  A    between atoms: C_16  and  C_26
   12  A    between atoms: C_17  and  C_33
   13  A    between atoms: C_19  and  C_40
   14  A    between atoms: C_19  and  N_45
   15  A    between atoms: C_26  and  N_45
   16  A    between atoms: C_27  and  O_54
   17  A    between atoms: C_33  and  N_36
   18  A    between atoms: C_33  and  C_49
   19  A    between atoms: C_34  and  N_52
   20  A    between atoms: C_35  and  C_43
   21  A    between atoms: N_36  and  N_52
   22  A    between atoms: C_43  and  C_51
   23  A    between atoms: C_51  and  O_54
                            x       y       z     vdW  Elec       q    Type
                         _______ _______ _______ _____ _____    ______ ____

>  <TORSDO>
F 23

$$$$
=
 OpenBabel11052419353D

 55 59  0  0  1  0  0  0  0  0999 V2000
  189.4340  172.6560  141.7300 C   0  0  0  0  0  3  0  0  0  0  0  0
  187.8490  174.9710  141.6290 C   0  0  0  0  0  0  0  0  0  0  0  0
  189.1220  174.9510  141.0480 C   0  0  0  0  0  3  0  0  0  0  0  0
  188.1660  172.6650  142.3180 C   0  0  0  0  0  3  0  0  0  0  0  0
  189.9120  173.7950  141.0770 C   0  0  0  0  0  0  0  0  0  0  0  0
  187.3730  173.8170  142.2570 C   0  0  0  0  0  3  0  0  0  0  0  0
  187.0550  176.1210  141.5990 O   0  0  0  0  0  0  0  0  0  0  0  0
  187.5840  177.4050  141.3090 C   0  0  0  0  0  2  0  0  0  0  0  0
  187.4490  178.3000  142.5200 C   0  0  0  0  0  2  0  0  0  0  0  0
  186.2870  177.8070  143.3650 C   0  0  0  0  0  2  0  0  0  0  0  0
  186.5510  177.9890  144.8560 C   0  0  0  0  0  2  0  0  0  0  0  0
  186.3010  176.7070  145.6260 C   0  0  0  0  0  2  0  0  0  0  0  0
  187.4710  176.4530  146.5710 C   0  0  0  0  0  2  0  0  0  0  0  0
  188.7300  177.2270  146.1820 C   0  0  1  0  0  3  0  0  0  0  0  0
  189.2500  177.9300  147.2730 O   0  0  0  0  0  1  0  0  0  0  0  0
  189.8750  174.0910  146.1660 O   0  0  0  0  0  1  0  0  0  0  0  0
  189.8040  176.4190  145.4240 C   0  0  1  0  0  0  0  0  0  0  0  0
  194.4470  176.5580  145.7570 C   0  0  0  0  0  3  0  0  0  0  0  0
  190.6430  175.6920  147.5830 F   0  0  0  0  0  0  0  0  0  0  0  0
  190.5250  175.3230  146.2500 C   0  0  1  0  0  0  0  0  0  0  0  0
  194.1730  175.3490  146.5590 C   0  0  0  0  0  3  0  0  0  0  0  0
  192.9870  174.7400  146.5110 C   0  0  0  0  0  3  0  0  0  0  0  0
  192.1570  176.5540  145.0650 N   0  0  0  0  0  0  0  0  0  0  0  0
  191.8940  175.2260  145.5950 C   0  0  2  0  0  3  0  0  0  0  0  0
  189.2160  175.8230  144.3000 O   0  0  0  0  0  1  0  0  0  0  0  0
  193.4660  177.1370  145.0600 C   0  0  0  0  0  3  0  0  0  0  0  0
  190.9470  177.3530  144.9850 C   0  0  1  0  0  3  0  0  0  0  0  0
  190.7710  177.9440  143.6120 C   0  0  0  0  0  3  0  0  0  0  0  0
  191.5410  177.6560  142.7160 O   0  0  0  0  0  0  0  0  0  0  0  0
  191.2850  173.7600  140.4800 C   0  0  0  0  0  2  0  0  0  0  0  0
  192.3680  173.7130  141.5220 C   0  0  0  0  0  3  0  0  0  0  0  0
  193.0900  172.6230  141.7880 C   0  0  0  0  0  3  0  0  0  0  0  0
  192.9290  171.3040  141.0910 C   0  0  2  0  0  3  0  0  0  0  0  0
  193.1430  168.9130  141.5860 O   0  0  0  0  0  0  0  0  0  0  0  0
  192.8600  170.1800  142.1340 C   0  0  2  0  0  0  0  0  0  0  0  0
  191.8090  169.1400  142.0080 C   0  0  0  0  0  2  0  0  0  0  0  0
  193.4380  170.4270  143.5470 C   0  0  0  0  0  2  0  0  0  0  0  0
  194.8930  169.9800  143.7460 C   0  0  0  0  0  2  0  0  0  0  0  0
  194.8340  170.1710  146.0600 C   0  0  0  0  0  1  0  0  0  0  0  0
  195.5480  170.6420  144.8810 N   0  0  0  0  0  0  0  0  0  0  0  0
  195.3060  172.0830  144.7990 C   0  0  0  0  0  2  0  0  0  0  0  0
  196.4870  174.1450  143.9820 C   0  0  0  0  0  1  0  0  0  0  0  0
  197.6980  172.0000  144.2060 C   0  0  0  0  0  1  0  0  0  0  0  0
  197.0180  173.2390  146.2120 C   0  0  0  0  0  1  0  0  0  0  0  0
  196.6190  172.8700  144.8000 C   0  0  0  0  0  0  0  0  0  0  0  0
  194.0340  171.0980  140.1520 N   0  0  0  0  0  2  0  0  0  0  0  0
  193.5350  171.3370  138.8660 N   0  0  0  0  0  2  0  0  0  0  0  0
  194.0470  173.5850  138.0080 C   0  0  0  0  0  2  0  0  0  0  0  0
  195.8700  173.5490  139.5890 C   0  0  2  0  0  3  0  0  0  0  0  0
  194.5190  172.1400  138.1470 C   0  0  1  0  0  3  0  0  0  0  0  0
  195.8100  172.1800  138.9390 C   0  0  0  0  0  2  0  0  0  0  0  0
  195.0710  174.4650  138.6920 C   0  0  0  0  0  2  0  0  0  0  0  0
  197.3010  174.0490  139.7640 C   0  0  0  0  0  3  0  0  0  0  0  0
  197.3420  175.4490  139.7540 O   0  0  0  0  0  1  0  0  0  0  0  0
  197.8870  173.5500  140.9270 O   0  0  0  0  0  1  0  0  0  0  0  0
  1  4  1  0  0  0  0
  2  6  1  0  0  0  0
  3  5  1  0  0  0  0
  3  2  2  0  0  0  0
  5  1  2  0  0  0  0
  6  4  2  0  0  0  0
  7  2  1  0  0  0  0
  8  7  1  0  0  0  0
  8  9  1  0  0  0  0
  9 10  1  0  0  0  0
 10 11  1  0  0  0  0
 11 12  1  0  0  0  0
 12 13  1  0  0  0  0
 14 13  1  0  0  0  0
 14 15  1  1  0  0  0
 17 25  1  6  0  0  0
 17 14  1  0  0  0  0
 17 20  1  0  0  0  0
 18 21  1  0  0  0  0
 20 16  1  6  0  0  0
 20 19  1  0  0  0  0
 22 21  2  0  0  0  0
 23 24  1  0  0  0  0
 24 20  1  0  0  0  0
 24 22  1  1  0  0  0
 26 23  1  0  0  0  0
 26 18  2  0  0  0  0
 27 28  1  6  0  0  0
 27 23  1  0  0  0  0
 27 17  1  0  0  0  0
 29 28  2  0  0  0  0
 30  5  1  0  0  0  0
 30 31  1  0  0  0  0
 31 32  2  0  0  0  0
 33 32  1  1  0  0  0
 33 35  1  0  0  0  0
 34 36  1  0  0  0  0
 34 35  1  0  0  0  0
 35 37  1  1  0  0  0
 36 35  1  0  0  0  0
 37 38  1  0  0  0  0
 38 40  1  0  0  0  0
 40 39  1  0  0  0  0
 41 45  1  0  0  0  0
 41 40  1  0  0  0  0
 42 45  1  0  0  0  0
 43 45  1  0  0  0  0
 45 44  1  0  0  0  0
 46 33  1  0  0  0  0
 47 46  1  0  0  0  0
 48 50  1  0  0  0  0
 48 52  1  0  0  0  0
 49 53  1  6  0  0  0
 50 47  1  1  0  0  0
 50 51  1  0  0  0  0
 51 49  1  0  0  0  0
 52 49  1  0  0  0  0
 53 55  1  0  0  0  0
 54 53  1  0  0  0  0
M  END
>  <MODEL>
6

>  <REMARK>
 VINA RESULT:      -5.6      2.513      4.216
  Name = 
  23 active torsions:
  status: ('A' for Active; 'I' for Inactive)
    1  A    between atoms: C_1  and  C_53
    2  A    between atoms: C_2  and  C_28
    3  A    between atoms: C_2  and  C_44
    4  A    between atoms: C_6  and  C_20
    5  A    between atoms: C_7  and  C_20
    6  A    between atoms: C_7  and  C_22
    7  A    between atoms: C_8  and  C_22
    8  A    between atoms: C_8  and  C_35
    9  A    between atoms: C_10  and  C_32
   10  A    between atoms: C_16  and  C_17
   11  A    between atoms: C_16  and  C_26
   12  A    between atoms: C_17  and  C_33
   13  A    between atoms: C_19  and  C_40
   14  A    between atoms: C_19  and  N_45
   15  A    between atoms: C_26  and  N_45
   16  A    between atoms: C_27  and  O_54
   17  A    between atoms: C_33  and  N_36
   18  A    between atoms: C_33  and  C_49
   19  A    between atoms: C_34  and  N_52
   20  A    between atoms: C_35  and  C_43
   21  A    between atoms: N_36  and  N_52
   22  A    between atoms: C_43  and  C_51
   23  A    between atoms: C_51  and  O_54
                            x       y       z     vdW  Elec       q    Type
                         _______ _______ _______ _____ _____    ______ ____

>  <TORSDO>
F 23

$$$$
=
 OpenBabel11052419353D

 55 59  0  0  1  0  0  0  0  0999 V2000
  193.3360  174.9550  145.2710 C   0  0  0  0  0  3  0  0  0  0  0  0
  195.6550  176.0140  144.0960 C   0  0  0  0  0  0  0  0  0  0  0  0
  194.3890  176.3600  143.6130 C   0  0  0  0  0  3  0  0  0  0  0  0
  194.5960  174.5970  145.7590 C   0  0  0  0  0  3  0  0  0  0  0  0
  193.2250  175.8510  144.2050 C   0  0  0  0  0  0  0  0  0  0  0  0
  195.7520  175.1350  145.1790 C   0  0  0  0  0  3  0  0  0  0  0  0
  196.8190  176.5220  143.5110 O   0  0  0  0  0  0  0  0  0  0  0  0
  197.7250  175.7090  142.7830 C   0  0  0  0  0  2  0  0  0  0  0  0
  197.3430  175.6980  141.3210 C   0  0  0  0  0  2  0  0  0  0  0  0
  196.8710  174.3030  140.9480 C   0  0  0  0  0  2  0  0  0  0  0  0
  195.3490  174.2090  140.9130 C   0  0  0  0  0  2  0  0  0  0  0  0
  194.7620  175.0850  139.8250 C   0  0  0  0  0  2  0  0  0  0  0  0
  193.8280  174.2480  138.9560 C   0  0  0  0  0  2  0  0  0  0  0  0
  193.5010  174.9150  137.6200 C   0  0  1  0  0  3  0  0  0  0  0  0
  194.6020  175.6150  137.1200 O   0  0  0  0  0  1  0  0  0  0  0  0
  190.6780  174.8830  135.8360 O   0  0  0  0  0  1  0  0  0  0  0  0
  192.8400  174.0050  136.5640 C   0  0  1  0  0  0  0  0  0  0  0  0
  190.8610  169.8160  137.0370 C   0  0  0  0  0  3  0  0  0  0  0  0
  190.8380  174.0280  137.9350 F   0  0  0  0  0  0  0  0  0  0  0  0
  191.2950  173.9130  136.6290 C   0  0  1  0  0  0  0  0  0  0  0  0
  189.6530  170.6610  136.9920 C   0  0  0  0  0  3  0  0  0  0  0  0
  189.7070  171.9270  136.5720 C   0  0  0  0  0  3  0  0  0  0  0  0
  192.1580  171.7250  136.4090 N   0  0  0  0  0  0  0  0  0  0  0  0
  190.9940  172.5300  136.0730 C   0  0  2  0  0  3  0  0  0  0  0  0
  193.2130  174.4450  135.2860 O   0  0  0  0  0  1  0  0  0  0  0  0
  192.0600  170.3430  136.7730 C   0  0  0  0  0  3  0  0  0  0  0  0
  193.2980  172.5480  136.7710 C   0  0  1  0  0  3  0  0  0  0  0  0
  194.5220  172.1660  135.9820 C   0  0  0  0  0  3  0  0  0  0  0  0
  195.5770  171.9570  136.5490 O   0  0  0  0  0  0  0  0  0  0  0  0
  191.8610  176.1920  143.6900 C   0  0  0  0  0  2  0  0  0  0  0  0
  191.3010  177.4380  144.3190 C   0  0  0  0  0  3  0  0  0  0  0  0
  190.0500  177.5370  144.7730 C   0  0  0  0  0  3  0  0  0  0  0  0
  189.0360  176.4320  144.7240 C   0  0  2  0  0  3  0  0  0  0  0  0
  189.6360  176.2250  147.0910 O   0  0  0  0  0  0  0  0  0  0  0  0
  188.5960  176.0790  146.1520 C   0  0  2  0  0  0  0  0  0  0  0  0
  189.1990  174.9030  146.8250 C   0  0  0  0  0  2  0  0  0  0  0  0
  187.2010  176.5320  146.6440 C   0  0  0  0  0  2  0  0  0  0  0  0
  187.0370  178.0440  146.8490 C   0  0  0  0  0  2  0  0  0  0  0  0
  184.7730  178.2940  147.3010 C   0  0  0  0  0  1  0  0  0  0  0  0
  185.7850  178.5680  146.2910 N   0  0  0  0  0  0  0  0  0  0  0  0
  185.4200  177.7800  145.1130 C   0  0  0  0  0  2  0  0  0  0  0  0
  186.6330  178.4710  143.0230 C   0  0  0  0  0  1  0  0  0  0  0  0
  185.2430  180.0910  144.2720 C   0  0  0  0  0  1  0  0  0  0  0  0
  184.1750  178.2840  143.0010 C   0  0  0  0  0  1  0  0  0  0  0  0
  185.3720  178.6480  143.8530 C   0  0  0  0  0  0  0  0  0  0  0  0
  189.5980  175.2700  144.0330 N   0  0  0  0  0  2  0  0  0  0  0  0
  188.7460  174.9730  142.9620 N   0  0  0  0  0  2  0  0  0  0  0  0
  188.1060  173.1760  141.4090 C   0  0  0  0  0  2  0  0  0  0  0  0
  190.4700  173.0120  140.9490 C   0  0  2  0  0  3  0  0  0  0  0  0
  188.8590  173.5440  142.6850 C   0  0  1  0  0  3  0  0  0  0  0  0
  190.3130  173.1920  142.4470 C   0  0  0  0  0  2  0  0  0  0  0  0
  189.1110  172.5870  140.4430 C   0  0  0  0  0  2  0  0  0  0  0  0
  191.5430  171.9860  140.5940 C   0  0  0  0  0  3  0  0  0  0  0  0
  192.6010  172.0400  141.5090 O   0  0  0  0  0  1  0  0  0  0  0  0
  191.0230  170.6950  140.5210 O   0  0  0  0  0  1  0  0  0  0  0  0
  1  4  1  0  0  0  0
  2  6  1  0  0  0  0
  3  2  2  0  0  0  0
  3  5  1  0  0  0  0
  5  1  2  0  0  0  0
  6  4  2  0  0  0  0
  7  2  1  0  0  0  0
  8  7  1  0  0  0  0
  9  8  1  0  0  0  0
 10  9  1  0  0  0  0
 11 10  1  0  0  0  0
 12 11  1  0  0  0  0
 13 12  1  0  0  0  0
 14 15  1  6  0  0  0
 14 13  1  0  0  0  0
 17 25  1  6  0  0  0
 17 20  1  0  0  0  0
 17 27  1  0  0  0  0
 17 14  1  0  0  0  0
 20 16  1  6  0  0  0
 20 19  1  0  0  0  0
 21 18  1  0  0  0  0
 22 21  2  0  0  0  0
 23 27  1  0  0  0  0
 23 26  1  0  0  0  0
 24 23  1  0  0  0  0
 24 22  1  1  0  0  0
 24 20  1  0  0  0  0
 26 18  2  0  0  0  0
 27 28  1  6  0  0  0
 28 29  2  0  0  0  0
 30  5  1  0  0  0  0
 30 31  1  0  0  0  0
 31 32  2  0  0  0  0
 33 32  1  1  0  0  0
 33 35  1  0  0  0  0
 35 37  1  1  0  0  0
 35 36  1  0  0  0  0
 35 34  1  0  0  0  0
 36 34  1  0  0  0  0
 37 38  1  0  0  0  0
 40 38  1  0  0  0  0
 40 39  1  0  0  0  0
 41 40  1  0  0  0  0
 42 45  1  0  0  0  0
 44 45  1  0  0  0  0
 45 43  1  0  0  0  0
 45 41  1  0  0  0  0
 46 33  1  0  0  0  0
 47 46  1  0  0  0  0
 48 50  1  0  0  0  0
 49 53  1  1  0  0  0
 49 51  1  0  0  0  0
 50 47  1  6  0  0  0
 51 50  1  0  0  0  0
 52 49  1  0  0  0  0
 52 48  1  0  0  0  0
 53 54  1  0  0  0  0
 55 53  1  0  0  0  0
M  END
>  <MODEL>
7

>  <REMARK>
 VINA RESULT:      -5.4      2.532      9.683
  Name = 
  23 active torsions:
  status: ('A' for Active; 'I' for Inactive)
    1  A    between atoms: C_1  and  C_53
    2  A    between atoms: C_2  and  C_28
    3  A    between atoms: C_2  and  C_44
    4  A    between atoms: C_6  and  C_20
    5  A    between atoms: C_7  and  C_20
    6  A    between atoms: C_7  and  C_22
    7  A    between atoms: C_8  and  C_22
    8  A    between atoms: C_8  and  C_35
    9  A    between atoms: C_10  and  C_32
   10  A    between atoms: C_16  and  C_17
   11  A    between atoms: C_16  and  C_26
   12  A    between atoms: C_17  and  C_33
   13  A    between atoms: C_19  and  C_40
   14  A    between atoms: C_19  and  N_45
   15  A    between atoms: C_26  and  N_45
   16  A    between atoms: C_27  and  O_54
   17  A    between atoms: C_33  and  N_36
   18  A    between atoms: C_33  and  C_49
   19  A    between atoms: C_34  and  N_52
   20  A    between atoms: C_35  and  C_43
   21  A    between atoms: N_36  and  N_52
   22  A    between atoms: C_43  and  C_51
   23  A    between atoms: C_51  and  O_54
                            x       y       z     vdW  Elec       q    Type
                         _______ _______ _______ _____ _____    ______ ____

>  <TORSDO>
F 23

$$$$
=
 OpenBabel11052419353D

 55 59  0  0  1  0  0  0  0  0999 V2000
  192.5250  171.2480  142.0160 C   0  0  0  0  0  3  0  0  0  0  0  0
  191.1870  171.4790  139.5590 C   0  0  0  0  0  0  0  0  0  0  0  0
  192.3870  172.1610  139.7850 C   0  0  0  0  0  3  0  0  0  0  0  0
  191.3240  170.5650  141.8040 C   0  0  0  0  0  3  0  0  0  0  0  0
  193.0710  172.0380  141.0010 C   0  0  0  0  0  0  0  0  0  0  0  0
  190.6640  170.6730  140.5740 C   0  0  0  0  0  3  0  0  0  0  0  0
  190.5020  171.5960  138.3460 O   0  0  0  0  0  0  0  0  0  0  0  0
  189.9280  172.8180  137.9090 C   0  0  0  0  0  2  0  0  0  0  0  0
  188.5670  172.9990  138.5400 C   0  0  0  0  0  2  0  0  0  0  0  0
  188.7200  173.8180  139.8100 C   0  0  0  0  0  2  0  0  0  0  0  0
  188.2020  173.0720  141.0350 C   0  0  0  0  0  2  0  0  0  0  0  0
  189.0210  173.3920  142.2690 C   0  0  0  0  0  2  0  0  0  0  0  0
  189.5030  174.8370  142.1900 C   0  0  0  0  0  2  0  0  0  0  0  0
  190.4480  175.2130  143.3320 C   0  0  1  0  0  3  0  0  0  0  0  0
  191.7670  175.3240  142.8830 O   0  0  0  0  0  1  0  0  0  0  0  0
  190.4540  176.0330  146.5690 O   0  0  0  0  0  1  0  0  0  0  0  0
  190.0070  176.4130  144.1960 C   0  0  1  0  0  0  0  0  0  0  0  0
  185.7340  177.8680  145.3400 C   0  0  0  0  0  3  0  0  0  0  0  0
  188.7880  174.8410  145.5860 F   0  0  0  0  0  0  0  0  0  0  0  0
  189.4500  176.0610  145.5980 C   0  0  1  0  0  0  0  0  0  0  0  0
  186.1040  177.1710  146.5870 C   0  0  0  0  0  3  0  0  0  0  0  0
  187.3700  176.8320  146.8420 C   0  0  0  0  0  3  0  0  0  0  0  0
  187.9930  177.6270  144.5940 N   0  0  0  0  0  0  0  0  0  0  0  0
  188.4830  177.1960  145.8940 C   0  0  2  0  0  3  0  0  0  0  0  0
  191.0910  177.2890  144.3470 O   0  0  0  0  0  1  0  0  0  0  0  0
  186.6460  178.0640  144.3840 C   0  0  0  0  0  3  0  0  0  0  0  0
  188.8340  177.1430  143.5130 C   0  0  1  0  0  3  0  0  0  0  0  0
  189.2510  178.2640  142.6000 C   0  0  0  0  0  3  0  0  0  0  0  0
  188.6780  178.4400  141.5420 O   0  0  0  0  0  0  0  0  0  0  0  0
  194.3460  172.7760  141.2700 C   0  0  0  0  0  2  0  0  0  0  0  0
  194.2540  174.2360  140.9180 C   0  0  0  0  0  3  0  0  0  0  0  0
  195.2170  175.1210  141.1810 C   0  0  0  0  0  3  0  0  0  0  0  0
  196.5180  174.7900  141.8530 C   0  0  2  0  0  3  0  0  0  0  0  0
  195.8230  176.7280  143.1830 O   0  0  0  0  0  0  0  0  0  0  0  0
  196.6210  175.5660  143.1740 C   0  0  2  0  0  0  0  0  0  0  0  0
  197.2270  176.9210  143.1710 C   0  0  0  0  0  2  0  0  0  0  0  0
  196.6550  174.7840  144.5080 C   0  0  0  0  0  2  0  0  0  0  0  0
  196.1440  173.3390  144.4320 C   0  0  0  0  0  2  0  0  0  0  0  0
  197.0400  173.5080  146.5680 C   0  0  0  0  0  1  0  0  0  0  0  0
  196.3100  172.6030  145.6920 N   0  0  0  0  0  0  0  0  0  0  0  0
  197.1840  171.4530  145.4610 C   0  0  0  0  0  2  0  0  0  0  0  0
  196.2630  169.5690  144.0770 C   0  0  0  0  0  1  0  0  0  0  0  0
  195.0260  170.4130  146.0460 C   0  0  0  0  0  1  0  0  0  0  0  0
  197.0870  169.1170  146.3560 C   0  0  0  0  0  1  0  0  0  0  0  0
  196.3970  170.1400  145.4800 C   0  0  0  0  0  0  0  0  0  0  0  0
  197.6340  175.0990  140.9590 N   0  0  0  0  0  2  0  0  0  0  0  0
  197.1020  175.7640  139.8460 N   0  0  0  0  0  2  0  0  0  0  0  0
  197.9310  173.6200  138.9720 C   0  0  0  0  0  2  0  0  0  0  0  0
  195.8850  173.5840  137.6930 C   0  0  2  0  0  3  0  0  0  0  0  0
  197.5550  175.0640  138.6490 C   0  0  1  0  0  3  0  0  0  0  0  0
  196.4230  175.0020  137.6440 C   0  0  0  0  0  2  0  0  0  0  0  0
  197.0420  172.7220  138.1400 C   0  0  0  0  0  2  0  0  0  0  0  0
  195.3330  173.1240  136.3470 C   0  0  0  0  0  3  0  0  0  0  0  0
  196.3660  172.6770  135.5140 O   0  0  0  0  0  1  0  0  0  0  0  0
  194.3600  172.1350  136.4950 O   0  0  0  0  0  1  0  0  0  0  0  0
  2  3  2  0  0  0  0
  2  6  1  0  0  0  0
  3  5  1  0  0  0  0
  4  1  1  0  0  0  0
  5 30  1  0  0  0  0
  5  1  2  0  0  0  0
  6  4  2  0  0  0  0
  7  2  1  0  0  0  0
  8  7  1  0  0  0  0
  8  9  1  0  0  0  0
  9 10  1  0  0  0  0
 10 11  1  0  0  0  0
 11 12  1  0  0  0  0
 13 12  1  0  0  0  0
 13 14  1  0  0  0  0
 14 15  1  6  0  0  0
 14 17  1  0  0  0  0
 17 25  1  1  0  0  0
 17 20  1  0  0  0  0
 18 21  1  0  0  0  0
 20 19  1  6  0  0  0
 20 24  1  0  0  0  0
 20 16  1  0  0  0  0
 21 22  2  0  0  0  0
 23 24  1  0  0  0  0
 24 22  1  1  0  0  0
 26 23  1  0  0  0  0
 26 18  2  0  0  0  0
 27 28  1  1  0  0  0
 27 17  1  0  0  0  0
 27 23  1  0  0  0  0
 29 28  2  0  0  0  0
 31 32  2  0  0  0  0
 31 30  1  0  0  0  0
 33 32  1  6  0  0  0
 33 35  1  0  0  0  0
 35 34  1  0  0  0  0
 35 37  1  1  0  0  0
 36 35  1  0  0  0  0
 36 34  1  0  0  0  0
 38 37  1  0  0  0  0
 38 40  1  0  0  0  0
 40 39  1  0  0  0  0
 41 45  1  0  0  0  0
 41 40  1  0  0  0  0
 42 45  1  0  0  0  0
 45 43  1  0  0  0  0
 45 44  1  0  0  0  0
 46 33  1  0  0  0  0
 47 46  1  0  0  0  0
 49 53  1  6  0  0  0
 49 52  1  0  0  0  0
 50 48  1  0  0  0  0
 50 47  1  1  0  0  0
 51 49  1  0  0  0  0
 51 50  1  0  0  0  0
 52 48  1  0  0  0  0
 53 55  1  0  0  0  0
 54 53  1  0  0  0  0
M  END
>  <MODEL>
8

>  <REMARK>
 VINA RESULT:      -5.3      2.884      6.726
  Name = 
  23 active torsions:
  status: ('A' for Active; 'I' for Inactive)
    1  A    between atoms: C_1  and  C_53
    2  A    between atoms: C_2  and  C_28
    3  A    between atoms: C_2  and  C_44
    4  A    between atoms: C_6  and  C_20
    5  A    between atoms: C_7  and  C_20
    6  A    between atoms: C_7  and  C_22
    7  A    between atoms: C_8  and  C_22
    8  A    between atoms: C_8  and  C_35
    9  A    between atoms: C_10  and  C_32
   10  A    between atoms: C_16  and  C_17
   11  A    between atoms: C_16  and  C_26
   12  A    between atoms: C_17  and  C_33
   13  A    between atoms: C_19  and  C_40
   14  A    between atoms: C_19  and  N_45
   15  A    between atoms: C_26  and  N_45
   16  A    between atoms: C_27  and  O_54
   17  A    between atoms: C_33  and  N_36
   18  A    between atoms: C_33  and  C_49
   19  A    between atoms: C_34  and  N_52
   20  A    between atoms: C_35  and  C_43
   21  A    between atoms: N_36  and  N_52
   22  A    between atoms: C_43  and  C_51
   23  A    between atoms: C_51  and  O_54
                            x       y       z     vdW  Elec       q    Type
                         _______ _______ _______ _____ _____    ______ ____

>  <TORSDO>
F 23

$$$$
=
 OpenBabel11052419353D

 55 59  0  0  1  0  0  0  0  0999 V2000
  187.8020  174.9190  138.3830 C   0  0  0  0  0  3  0  0  0  0  0  0
  187.0650  176.7950  140.3370 C   0  0  0  0  0  0  0  0  0  0  0  0
  187.8120  175.6630  140.6800 C   0  0  0  0  0  3  0  0  0  0  0  0
  187.0510  176.0440  138.0280 C   0  0  0  0  0  3  0  0  0  0  0  0
  188.2000  174.7310  139.7090 C   0  0  0  0  0  0  0  0  0  0  0  0
  186.6940  176.9840  139.0030 C   0  0  0  0  0  3  0  0  0  0  0  0
  186.6780  177.7290  141.3030 O   0  0  0  0  0  0  0  0  0  0  0  0
  185.3370  178.1690  141.4450 C   0  0  0  0  0  2  0  0  0  0  0  0
  184.9290  178.1070  142.8980 C   0  0  0  0  0  2  0  0  0  0  0  0
  186.1200  177.6490  143.7230 C   0  0  0  0  0  2  0  0  0  0  0  0
  186.0620  178.1810  145.1500 C   0  0  0  0  0  2  0  0  0  0  0  0
  185.6310  177.1060  146.1280 C   0  0  0  0  0  2  0  0  0  0  0  0
  186.8670  176.4930  146.7780 C   0  0  0  0  0  2  0  0  0  0  0  0
  188.1610  177.2050  146.3860 C   0  0  1  0  0  3  0  0  0  0  0  0
  188.6950  177.9140  147.4660 O   0  0  0  0  0  1  0  0  0  0  0  0
  189.4950  174.1670  146.7560 O   0  0  0  0  0  1  0  0  0  0  0  0
  189.2100  176.3350  145.6640 C   0  0  1  0  0  0  0  0  0  0  0  0
  193.8460  176.7470  145.5030 C   0  0  0  0  0  3  0  0  0  0  0  0
  190.2860  176.0140  147.8150 F   0  0  0  0  0  0  0  0  0  0  0  0
  190.0710  175.4260  146.5760 C   0  0  1  0  0  0  0  0  0  0  0  0
  193.7230  175.6760  146.5100 C   0  0  0  0  0  3  0  0  0  0  0  0
  192.5780  175.0110  146.6800 C   0  0  0  0  0  3  0  0  0  0  0  0
  191.5080  176.5210  145.0540 N   0  0  0  0  0  0  0  0  0  0  0  0
  191.3780  175.2880  145.8120 C   0  0  2  0  0  3  0  0  0  0  0  0
  188.5610  175.5350  144.7130 O   0  0  0  0  0  1  0  0  0  0  0  0
  192.7710  177.1570  144.8250 C   0  0  0  0  0  3  0  0  0  0  0  0
  190.2470  177.2380  144.9690 C   0  0  1  0  0  3  0  0  0  0  0  0
  189.9090  177.5860  143.5440 C   0  0  0  0  0  3  0  0  0  0  0  0
  190.6480  178.3020  142.8950 O   0  0  0  0  0  0  0  0  0  0  0  0
  188.9820  173.5030  140.0590 C   0  0  0  0  0  2  0  0  0  0  0  0
  188.5920  172.3130  139.2260 C   0  0  0  0  0  3  0  0  0  0  0  0
  189.4560  171.3770  138.8240 C   0  0  0  0  0  3  0  0  0  0  0  0
  190.9220  171.3780  139.1470 C   0  0  2  0  0  3  0  0  0  0  0  0
  190.9540  171.2880  136.6970 O   0  0  0  0  0  0  0  0  0  0  0  0
  191.7290  171.5310  137.8500 C   0  0  2  0  0  0  0  0  0  0  0  0
  191.9620  170.3390  136.9980 C   0  0  0  0  0  2  0  0  0  0  0  0
  192.7420  172.6930  137.7260 C   0  0  0  0  0  2  0  0  0  0  0  0
  192.4890  173.8850  138.6590 C   0  0  0  0  0  2  0  0  0  0  0  0
  194.7890  173.6250  138.8400 C   0  0  0  0  0  1  0  0  0  0  0  0
  193.6350  174.1950  139.5200 N   0  0  0  0  0  0  0  0  0  0  0  0
  193.4960  173.4670  140.7820 C   0  0  0  0  0  2  0  0  0  0  0  0
  193.7280  173.7980  143.2620 C   0  0  0  0  0  1  0  0  0  0  0  0
  191.7880  174.7240  142.0390 C   0  0  0  0  0  1  0  0  0  0  0  0
  194.0110  175.7190  141.7440 C   0  0  0  0  0  1  0  0  0  0  0  0
  193.2630  174.4210  141.9550 C   0  0  0  0  0  0  0  0  0  0  0  0
  191.2750  170.1480  139.8580 N   0  0  0  0  0  2  0  0  0  0  0  0
  190.7490  170.2520  141.1520 N   0  0  0  0  0  2  0  0  0  0  0  0
  192.5080  168.5340  141.2020 C   0  0  0  0  0  2  0  0  0  0  0  0
  193.7260  170.1130  142.5620 C   0  0  2  0  0  3  0  0  0  0  0  0
  191.4920  169.3360  142.0110 C   0  0  1  0  0  3  0  0  0  0  0  0
  192.2830  170.1330  143.0300 C   0  0  0  0  0  2  0  0  0  0  0  0
  193.8800  168.8400  141.7630 C   0  0  0  0  0  2  0  0  0  0  0  0
  194.7150  170.1660  143.7230 C   0  0  0  0  0  3  0  0  0  0  0  0
  195.8140  170.9720  143.4010 O   0  0  0  0  0  1  0  0  0  0  0  0
  194.1110  170.6080  144.9000 O   0  0  0  0  0  1  0  0  0  0  0  0
  1  5  1  0  0  0  0
  2  3  1  0  0  0  0
  2  7  1  0  0  0  0
  4  1  2  0  0  0  0
  4  6  1  0  0  0  0
  5 30  1  0  0  0  0
  5  3  2  0  0  0  0
  6  2  2  0  0  0  0
  7  8  1  0  0  0  0
  8  9  1  0  0  0  0
  9 10  1  0  0  0  0
 10 11  1  0  0  0  0
 11 12  1  0  0  0  0
 12 13  1  0  0  0  0
 14 13  1  0  0  0  0
 14 15  1  1  0  0  0
 17 25  1  6  0  0  0
 17 14  1  0  0  0  0
 17 20  1  0  0  0  0
 18 21  1  0  0  0  0
 20 16  1  1  0  0  0
 20 19  1  0  0  0  0
 21 22  2  0  0  0  0
 23 24  1  0  0  0  0
 24 20  1  0  0  0  0
 24 22  1  1  0  0  0
 26 23  1  0  0  0  0
 26 18  2  0  0  0  0
 27 28  1  6  0  0  0
 27 23  1  0  0  0  0
 27 17  1  0  0  0  0
 29 28  2  0  0  0  0
 31 30  1  0  0  0  0
 32 31  2  0  0  0  0
 33 32  1  6  0  0  0
 33 46  1  0  0  0  0
 34 36  1  0  0  0  0
 34 35  1  0  0  0  0
 35 37  1  6  0  0  0
 35 33  1  0  0  0  0
 36 35  1  0  0  0  0
 37 38  1  0  0  0  0
 38 40  1  0  0  0  0
 39 40  1  0  0  0  0
 40 41  1  0  0  0  0
 41 45  1  0  0  0  0
 44 45  1  0  0  0  0
 45 43  1  0  0  0  0
 45 42  1  0  0  0  0
 46 47  1  0  0  0  0
 48 52  1  0  0  0  0
 48 50  1  0  0  0  0
 49 51  1  0  0  0  0
 49 53  1  1  0  0  0
 50 47  1  6  0  0  0
 50 51  1  0  0  0  0
 52 49  1  0  0  0  0
 53 55  1  0  0  0  0
 54 53  1  0  0  0  0
M  END
>  <MODEL>
9

>  <REMARK>
 VINA RESULT:      -5.3      1.944      4.037
  Name = 
  23 active torsions:
  status: ('A' for Active; 'I' for Inactive)
    1  A    between atoms: C_1  and  C_53
    2  A    between atoms: C_2  and  C_28
    3  A    between atoms: C_2  and  C_44
    4  A    between atoms: C_6  and  C_20
    5  A    between atoms: C_7  and  C_20
    6  A    between atoms: C_7  and  C_22
    7  A    between atoms: C_8  and  C_22
    8  A    between atoms: C_8  and  C_35
    9  A    between atoms: C_10  and  C_32
   10  A    between atoms: C_16  and  C_17
   11  A    between atoms: C_16  and  C_26
   12  A    between atoms: C_17  and  C_33
   13  A    between atoms: C_19  and  C_40
   14  A    between atoms: C_19  and  N_45
   15  A    between atoms: C_26  and  N_45
   16  A    between atoms: C_27  and  O_54
   17  A    between atoms: C_33  and  N_36
   18  A    between atoms: C_33  and  C_49
   19  A    between atoms: C_34  and  N_52
   20  A    between atoms: C_35  and  C_43
   21  A    between atoms: N_36  and  N_52
   22  A    between atoms: C_43  and  C_51
   23  A    between atoms: C_51  and  O_54
                            x       y       z     vdW  Elec       q    Type
                         _______ _______ _______ _____ _____    ______ ____

>  <TORSDO>
F 23

$$$$
