=
 OpenBabel11052417583D

 31 34  0  0  1  0  0  0  0  0999 V2000
  189.9250  177.4320  146.8250 C   0  0  0  0  0  2  0  0  0  0  0  0
  188.6210  177.2430  143.5700 C   0  0  1  0  0  3  0  0  0  0  0  0
  187.3120  177.5240  144.2630 C   0  0  0  0  0  0  0  0  0  0  0  0
  185.6870  176.8670  146.0520 C   0  0  0  0  0  2  0  0  0  0  0  0
  189.7520  176.6300  144.4030 C   0  0  1  0  0  3  0  0  0  0  0  0
  189.9360  174.9370  147.1520 C   0  0  0  0  0  2  0  0  0  0  0  0
  187.1030  177.3540  145.7460 C   0  0  0  0  0  2  0  0  0  0  0  0
  188.0500  174.8950  142.7550 C   0  0  1  0  0  3  0  0  0  0  0  0
  190.5570  176.2630  147.5640 C   0  0  0  0  0  2  0  0  0  0  0  0
  186.5780  177.9560  141.9860 C   0  0  0  0  0  2  0  0  0  0  0  0
  184.6650  177.8360  145.4600 C   0  0  0  0  0  2  0  0  0  0  0  0
  188.9020  174.3700  143.8890 C   0  0  0  0  0  3  0  0  0  0  0  0
  188.3310  176.3540  142.3350 C   0  0  1  0  0  3  0  0  0  0  0  0
  190.4630  177.5440  145.4050 C   0  0  0  0  0  2  0  0  0  0  0  0
  183.9880  178.3980  143.2400 O   0  0  0  0  0  0  0  0  0  0  0  0
  189.6270  175.1550  144.6980 C   0  0  0  0  0  0  0  0  0  0  0  0
  190.4290  174.5060  145.7800 C   0  0  0  0  0  2  0  0  0  0  0  0
  187.2570  176.8030  141.5020 O   0  0  0  0  0  0  0  0  0  0  0  0
  186.2960  177.8710  143.4620 C   0  0  0  0  0  0  0  0  0  0  0  0
  184.9300  178.0470  143.9970 C   0  0  0  0  0  0  0  0  0  0  0  0
  188.0510  173.9310  141.5690 C   0  0  0  0  0  2  0  0  0  0  0  0
  188.7700  174.3260  139.3090 O   0  0  0  0  0  1  0  0  0  0  0  0
  189.2310  174.1610  140.6190 C   0  0  2  0  0  3  0  0  0  0  0  0
  190.2920  173.0460  140.6970 C   0  0  2  0  0  0  0  0  0  0  0  0
  189.7480  171.9360  141.3540 O   0  0  0  0  0  1  0  0  0  0  0  0
  191.4570  173.5680  141.4990 C   0  0  0  0  0  0  0  0  0  0  0  0
  192.2790  172.7700  142.0240 O   0  0  0  0  0  1  0  0  0  0  0  0
  191.5960  174.9330  141.7270 O   0  0  0  0  0  0  0  0  0  0  0  0
  191.1330  171.2790  139.2800 F   0  0  0  0  0  0  0  0  0  0  0  0
  191.8530  173.3890  138.8800 O   0  0  0  0  0  1  0  0  0  0  0  0
  190.7670  172.6140  139.2960 C   0  0  2  0  0  3  0  0  0  0  0  0
  1  9  1  0  0  0  0
  2  3  1  1  0  0  0
  2  5  1  0  0  0  0
  3  7  1  0  0  0  0
  5 16  1  0  0  0  0
  5 14  1  1  0  0  0
  6  9  1  0  0  0  0
  7  4  1  0  0  0  0
  8 21  1  6  0  0  0
  8 12  1  0  0  0  0
 10 19  1  0  0  0  0
 11  4  1  0  0  0  0
 12 16  2  0  0  0  0
 13 18  1  1  0  0  0
 13  8  1  0  0  0  0
 13  2  1  0  0  0  0
 14  1  1  0  0  0  0
 15 20  2  0  0  0  0
 16 17  1  0  0  0  0
 17  6  1  0  0  0  0
 18 10  1  0  0  0  0
 19 20  1  0  0  0  0
 19  3  2  0  0  0  0
 20 11  1  0  0  0  0
 23 22  1  6  0  0  0
 23 24  1  0  0  0  0
 23 21  1  0  0  0  0
 24 25  1  1  0  0  0
 24 26  1  0  0  0  0
 26 28  2  0  0  0  0
 26 27  1  0  0  0  0
 29 31  1  0  0  0  0
 31 30  1  1  0  0  0
 31 24  1  0  0  0  0
M  END
>  <MODEL>
1

>  <REMARK>
 VINA RESULT:      -7.4      0.000      0.000
  Name = 
  5 active torsions:
  status: ('A' for Active; 'I' for Inactive)
    1  A    between atoms: C_1  and  C_19
    2  A    between atoms: C_9  and  C_19
    3  A    between atoms: C_9  and  C_23
    4  A    between atoms: C_15  and  C_23
    5  A    between atoms: C_19  and  C_22
                            x       y       z     vdW  Elec       q    Type
                         _______ _______ _______ _____ _____    ______ ____

>  <TORSDO>
F 5

$$$$
=
 OpenBabel11052417583D

 31 34  0  0  1  0  0  0  0  0999 V2000
  191.2930  172.6600  142.6360 C   0  0  0  0  0  2  0  0  0  0  0  0
  190.3710  176.0210  143.0700 C   0  0  1  0  0  3  0  0  0  0  0  0
  190.4040  175.6620  144.5330 C   0  0  0  0  0  0  0  0  0  0  0  0
  189.5970  174.1400  146.3520 C   0  0  0  0  0  2  0  0  0  0  0  0
  190.1700  174.8840  142.0610 C   0  0  1  0  0  3  0  0  0  0  0  0
  188.9410  171.8950  142.1670 C   0  0  0  0  0  2  0  0  0  0  0  0
  190.3780  174.2430  145.0420 C   0  0  0  0  0  2  0  0  0  0  0  0
  187.8710  176.4980  142.9170 C   0  0  1  0  0  3  0  0  0  0  0  0
  190.4210  171.6130  141.9590 C   0  0  0  0  0  2  0  0  0  0  0  0
  190.3450  178.0790  144.7880 C   0  0  0  0  0  2  0  0  0  0  0  0
  190.1980  175.0870  147.3900 C   0  0  0  0  0  2  0  0  0  0  0  0
  187.7240  175.1420  142.2610 C   0  0  0  0  0  3  0  0  0  0  0  0
  189.2880  177.1090  142.8650 C   0  0  1  0  0  3  0  0  0  0  0  0
  191.3530  173.9420  141.8170 C   0  0  0  0  0  2  0  0  0  0  0  0
  190.2860  177.4610  147.6330 O   0  0  0  0  0  0  0  0  0  0  0  0
  188.7610  174.3610  141.9320 C   0  0  0  0  0  0  0  0  0  0  0  0
  188.4750  173.0430  141.2850 C   0  0  0  0  0  2  0  0  0  0  0  0
  189.3450  178.2050  143.7840 O   0  0  0  0  0  0  0  0  0  0  0  0
  190.3820  176.6960  145.3840 C   0  0  0  0  0  0  0  0  0  0  0  0
  190.2800  176.4820  146.8420 C   0  0  0  0  0  0  0  0  0  0  0  0
  186.7940  177.4680  142.4310 C   0  0  0  0  0  2  0  0  0  0  0  0
  184.3950  177.6200  142.4210 O   0  0  0  0  0  1  0  0  0  0  0  0
  185.4990  177.3720  143.2430 C   0  0  2  0  0  3  0  0  0  0  0  0
  185.4910  178.2980  144.4750 C   0  0  2  0  0  0  0  0  0  0  0  0
  186.3420  179.3860  144.2400 O   0  0  0  0  0  1  0  0  0  0  0  0
  186.0130  177.5120  145.6500 C   0  0  0  0  0  0  0  0  0  0  0  0
  187.0790  177.8590  146.2270 O   0  0  0  0  0  1  0  0  0  0  0  0
  185.3630  176.3550  146.0660 O   0  0  0  0  0  0  0  0  0  0  0  0
  183.8570  180.0520  144.1720 F   0  0  0  0  0  0  0  0  0  0  0  0
  183.8840  178.9620  146.1570 O   0  0  0  0  0  1  0  0  0  0  0  0
  184.0760  178.8270  144.7790 C   0  0  2  0  0  3  0  0  0  0  0  0
  2  3  1  1  0  0  0
  3  7  1  0  0  0  0
  3 19  2  0  0  0  0
  4 11  1  0  0  0  0
  5 14  1  1  0  0  0
  5  2  1  0  0  0  0
  7  4  1  0  0  0  0
  8 21  1  6  0  0  0
  9  6  1  0  0  0  0
  9  1  1  0  0  0  0
 10 19  1  0  0  0  0
 12  8  1  0  0  0  0
 13  8  1  0  0  0  0
 13  2  1  0  0  0  0
 13 18  1  1  0  0  0
 14  1  1  0  0  0  0
 16  5  1  0  0  0  0
 16 12  2  0  0  0  0
 17 16  1  0  0  0  0
 17  6  1  0  0  0  0
 18 10  1  0  0  0  0
 19 20  1  0  0  0  0
 20 11  1  0  0  0  0
 20 15  2  0  0  0  0
 21 23  1  0  0  0  0
 23 22  1  6  0  0  0
 23 24  1  0  0  0  0
 24 25  1  6  0  0  0
 24 31  1  0  0  0  0
 24 26  1  0  0  0  0
 26 28  2  0  0  0  0
 26 27  1  0  0  0  0
 31 29  1  6  0  0  0
 31 30  1  0  0  0  0
M  END
>  <MODEL>
2

>  <REMARK>
 VINA RESULT:      -7.2      3.568      6.479
  Name = 
  5 active torsions:
  status: ('A' for Active; 'I' for Inactive)
    1  A    between atoms: C_1  and  C_19
    2  A    between atoms: C_9  and  C_19
    3  A    between atoms: C_9  and  C_23
    4  A    between atoms: C_15  and  C_23
    5  A    between atoms: C_19  and  C_22
                            x       y       z     vdW  Elec       q    Type
                         _______ _______ _______ _____ _____    ______ ____

>  <TORSDO>
F 5

$$$$
=
 OpenBabel11052417583D

 31 34  0  0  1  0  0  0  0  0999 V2000
  191.1360  174.7290  147.0180 C   0  0  0  0  0  2  0  0  0  0  0  0
  189.5800  174.8040  143.8700 C   0  0  1  0  0  3  0  0  0  0  0  0
  190.9980  174.7540  143.3600 C   0  0  0  0  0  0  0  0  0  0  0  0
  193.2890  175.7660  143.3900 C   0  0  0  0  0  2  0  0  0  0  0  0
  189.3520  175.3360  145.2890 C   0  0  1  0  0  3  0  0  0  0  0  0
  190.9940  177.2210  147.3390 C   0  0  0  0  0  2  0  0  0  0  0  0
  192.2000  175.0770  144.2110 C   0  0  0  0  0  2  0  0  0  0  0  0
  189.0080  177.1270  142.9880 C   0  0  1  0  0  3  0  0  0  0  0  0
  191.0840  175.8670  148.0260 C   0  0  0  0  0  2  0  0  0  0  0  0
  189.8770  174.2260  141.2680 C   0  0  0  0  0  2  0  0  0  0  0  0
  193.6760  174.8890  142.2000 C   0  0  0  0  0  2  0  0  0  0  0  0
  189.1970  177.6330  144.4000 C   0  0  0  0  0  3  0  0  0  0  0  0
  188.7320  175.6130  142.8570 C   0  0  1  0  0  3  0  0  0  0  0  0
  189.7530  174.4270  146.4550 C   0  0  0  0  0  2  0  0  0  0  0  0
  192.5790  174.2300  140.1840 O   0  0  0  0  0  0  0  0  0  0  0  0
  189.4290  176.8340  145.4510 C   0  0  0  0  0  0  0  0  0  0  0  0
  189.5950  177.4650  146.7960 C   0  0  0  0  0  2  0  0  0  0  0  0
  188.8990  175.2360  141.4860 O   0  0  0  0  0  0  0  0  0  0  0  0
  191.1350  174.4730  142.0570 C   0  0  0  0  0  0  0  0  0  0  0  0
  192.4590  174.5210  141.4030 C   0  0  0  0  0  0  0  0  0  0  0  0
  187.9910  177.9770  142.2260 C   0  0  0  0  0  2  0  0  0  0  0  0
  186.0360  177.2380  141.0390 O   0  0  0  0  0  1  0  0  0  0  0  0
  186.5660  177.4230  142.3200 C   0  0  2  0  0  3  0  0  0  0  0  0
  185.6360  178.2980  143.1830 C   0  0  2  0  0  0  0  0  0  0  0  0
  186.0580  179.6310  143.1100 O   0  0  0  0  0  1  0  0  0  0  0  0
  185.7460  177.8260  144.6100 C   0  0  0  0  0  0  0  0  0  0  0  0
  185.7490  176.5940  144.8760 O   0  0  0  0  0  0  0  0  0  0  0  0
  185.7740  178.7450  145.6540 O   0  0  0  0  0  1  0  0  0  0  0  0
  184.0100  178.8050  141.4690 F   0  0  0  0  0  0  0  0  0  0  0  0
  183.3180  178.8310  143.6240 O   0  0  0  0  0  1  0  0  0  0  0  0
  184.1730  178.2110  142.7090 C   0  0  2  0  0  3  0  0  0  0  0  0
  1  9  1  0  0  0  0
  2  3  1  6  0  0  0
  2  5  1  0  0  0  0
  3  7  1  0  0  0  0
  4  7  1  0  0  0  0
  5 16  1  0  0  0  0
  5 14  1  1  0  0  0
  6  9  1  0  0  0  0
  8 21  1  1  0  0  0
  8 12  1  0  0  0  0
 10 18  1  0  0  0  0
 10 19  1  0  0  0  0
 11  4  1  0  0  0  0
 12 16  2  0  0  0  0
 13 18  1  6  0  0  0
 13  8  1  0  0  0  0
 13  2  1  0  0  0  0
 14  1  1  0  0  0  0
 15 20  2  0  0  0  0
 16 17  1  0  0  0  0
 17  6  1  0  0  0  0
 19  3  2  0  0  0  0
 20 19  1  0  0  0  0
 20 11  1  0  0  0  0
 21 23  1  0  0  0  0
 23 22  1  6  0  0  0
 23 24  1  0  0  0  0
 24 25  1  6  0  0  0
 24 26  1  0  0  0  0
 26 27  2  0  0  0  0
 26 28  1  0  0  0  0
 31 29  1  6  0  0  0
 31 24  1  0  0  0  0
 31 30  1  0  0  0  0
M  END
>  <MODEL>
3

>  <REMARK>
 VINA RESULT:      -7.0      2.510      6.313
  Name = 
  5 active torsions:
  status: ('A' for Active; 'I' for Inactive)
    1  A    between atoms: C_1  and  C_19
    2  A    between atoms: C_9  and  C_19
    3  A    between atoms: C_9  and  C_23
    4  A    between atoms: C_15  and  C_23
    5  A    between atoms: C_19  and  C_22
                            x       y       z     vdW  Elec       q    Type
                         _______ _______ _______ _____ _____    ______ ____

>  <TORSDO>
F 5

$$$$
=
 OpenBabel11052417583D

 31 34  0  0  1  0  0  0  0  0999 V2000
  191.5010  172.4930  141.7910 C   0  0  0  0  0  2  0  0  0  0  0  0
  191.1920  175.9030  142.5740 C   0  0  1  0  0  3  0  0  0  0  0  0
  192.0820  175.5400  143.7350 C   0  0  0  0  0  0  0  0  0  0  0  0
  192.4600  174.0660  145.7250 C   0  0  0  0  0  2  0  0  0  0  0  0
  190.3700  174.7820  141.9290 C   0  0  1  0  0  3  0  0  0  0  0  0
  189.3070  171.8720  142.8560 C   0  0  0  0  0  2  0  0  0  0  0  0
  192.2990  174.1240  144.2060 C   0  0  0  0  0  2  0  0  0  0  0  0
  189.1320  176.5290  143.9380 C   0  0  1  0  0  3  0  0  0  0  0  0
  190.3480  171.5020  141.8100 C   0  0  0  0  0  2  0  0  0  0  0  0
  192.3080  177.9550  143.8900 C   0  0  0  0  0  2  0  0  0  0  0  0
  193.6110  174.9730  146.1590 C   0  0  0  0  0  2  0  0  0  0  0  0
  188.5530  175.1860  143.5500 C   0  0  0  0  0  3  0  0  0  0  0  0
  190.2590  177.0540  143.0240 C   0  0  1  0  0  3  0  0  0  0  0  0
  191.1190  173.7710  141.0560 C   0  0  0  0  0  2  0  0  0  0  0  0
  193.9440  177.3370  146.2180 O   0  0  0  0  0  0  0  0  0  0  0  0
  189.1430  174.3440  142.6910 C   0  0  0  0  0  0  0  0  0  0  0  0
  188.4610  173.0470  142.3920 C   0  0  0  0  0  2  0  0  0  0  0  0
  190.9130  178.1430  143.6850 O   0  0  0  0  0  0  0  0  0  0  0  0
  192.6280  176.5720  144.3910 C   0  0  0  0  0  0  0  0  0  0  0  0
  193.4140  176.3610  145.6240 C   0  0  0  0  0  0  0  0  0  0  0  0
  188.0290  177.5630  144.1630 C   0  0  0  0  0  2  0  0  0  0  0  0
  185.7970  177.1460  143.3730 O   0  0  0  0  0  1  0  0  0  0  0  0
  186.6650  176.9240  144.4470 C   0  0  2  0  0  3  0  0  0  0  0  0
  186.0410  177.4010  145.7720 C   0  0  2  0  0  0  0  0  0  0  0  0
  185.1470  176.4270  146.2370 O   0  0  0  0  0  1  0  0  0  0  0  0
  185.2800  178.6720  145.4960 C   0  0  0  0  0  0  0  0  0  0  0  0
  184.0320  178.7180  145.6640 O   0  0  0  0  0  1  0  0  0  0  0  0
  185.9370  179.7860  144.9850 O   0  0  0  0  0  0  0  0  0  0  0  0
  187.6880  176.4620  147.2700 F   0  0  0  0  0  0  0  0  0  0  0  0
  186.5630  178.3030  147.9550 O   0  0  0  0  0  1  0  0  0  0  0  0
  187.1130  177.6490  146.8490 C   0  0  2  0  0  3  0  0  0  0  0  0
  1  9  1  0  0  0  0
  2 13  1  0  0  0  0
  2  3  1  1  0  0  0
  3  7  1  0  0  0  0
  3 19  2  0  0  0  0
  4 11  1  0  0  0  0
  5 14  1  1  0  0  0
  5  2  1  0  0  0  0
  5 16  1  0  0  0  0
  7  4  1  0  0  0  0
  8 21  1  6  0  0  0
  9  6  1  0  0  0  0
 10 19  1  0  0  0  0
 12  8  1  0  0  0  0
 13 18  1  1  0  0  0
 13  8  1  0  0  0  0
 14  1  1  0  0  0  0
 16 12  2  0  0  0  0
 17 16  1  0  0  0  0
 17  6  1  0  0  0  0
 18 10  1  0  0  0  0
 19 20  1  0  0  0  0
 20 11  1  0  0  0  0
 20 15  2  0  0  0  0
 21 23  1  0  0  0  0
 23 22  1  6  0  0  0
 23 24  1  0  0  0  0
 24 25  1  1  0  0  0
 24 31  1  0  0  0  0
 26 27  1  0  0  0  0
 26 24  1  0  0  0  0
 28 26  2  0  0  0  0
 31 29  1  1  0  0  0
 31 30  1  0  0  0  0
M  END
>  <MODEL>
4

>  <REMARK>
 VINA RESULT:      -6.8      3.406      7.010
  Name = 
  5 active torsions:
  status: ('A' for Active; 'I' for Inactive)
    1  A    between atoms: C_1  and  C_19
    2  A    between atoms: C_9  and  C_19
    3  A    between atoms: C_9  and  C_23
    4  A    between atoms: C_15  and  C_23
    5  A    between atoms: C_19  and  C_22
                            x       y       z     vdW  Elec       q    Type
                         _______ _______ _______ _____ _____    ______ ____

>  <TORSDO>
F 5

$$$$
=
 OpenBabel11052417583D

 31 34  0  0  1  0  0  0  0  0999 V2000
  188.1920  173.0740  141.2960 C   0  0  0  0  0  2  0  0  0  0  0  0
  188.9400  175.0460  144.1040 C   0  0  1  0  0  3  0  0  0  0  0  0
  187.9840  176.0180  143.4620 C   0  0  0  0  0  0  0  0  0  0  0  0
  187.3660  177.3370  141.4240 C   0  0  0  0  0  2  0  0  0  0  0  0
  189.6190  174.0110  143.2000 C   0  0  1  0  0  3  0  0  0  0  0  0
  190.2570  173.7730  140.0390 C   0  0  0  0  0  2  0  0  0  0  0  0
  187.5680  175.9420  142.0150 C   0  0  0  0  0  2  0  0  0  0  0  0
  191.0360  176.4840  143.9030 C   0  0  1  0  0  3  0  0  0  0  0  0
  189.2000  172.6950  140.2230 C   0  0  0  0  0  2  0  0  0  0  0  0
  188.0830  177.0560  145.6580 C   0  0  0  0  0  2  0  0  0  0  0  0
  186.3390  178.1080  142.2530 C   0  0  0  0  0  2  0  0  0  0  0  0
  191.4360  175.6140  142.7320 C   0  0  0  0  0  3  0  0  0  0  0  0
  190.0100  175.8600  144.8730 C   0  0  1  0  0  3  0  0  0  0  0  0
  188.7600  172.8490  142.6910 C   0  0  0  0  0  2  0  0  0  0  0  0
  186.3270  179.0400  144.4510 O   0  0  0  0  0  0  0  0  0  0  0  0
  190.7580  174.5230  142.3530 C   0  0  0  0  0  0  0  0  0  0  0  0
  191.2640  173.7490  141.1780 C   0  0  0  0  0  2  0  0  0  0  0  0
  189.4950  176.8940  145.7190 O   0  0  0  0  0  0  0  0  0  0  0  0
  187.5680  177.0230  144.2430 C   0  0  0  0  0  0  0  0  0  0  0  0
  186.7330  178.1140  143.7010 C   0  0  0  0  0  0  0  0  0  0  0  0
  192.2630  177.0420  144.6240 C   0  0  0  0  0  2  0  0  0  0  0  0
  192.8760  176.7900  146.9350 O   0  0  0  0  0  1  0  0  0  0  0  0
  192.7840  176.1060  145.7180 C   0  0  2  0  0  3  0  0  0  0  0  0
  194.1270  175.4420  145.3540 C   0  0  2  0  0  0  0  0  0  0  0  0
  194.9010  175.3010  146.5130 O   0  0  0  0  0  1  0  0  0  0  0  0
  194.8470  176.3500  144.3910 C   0  0  0  0  0  0  0  0  0  0  0  0
  194.9360  176.0440  143.1710 O   0  0  0  0  0  0  0  0  0  0  0  0
  195.4830  177.4980  144.8510 O   0  0  0  0  0  1  0  0  0  0  0  0
  192.6750  173.5370  145.0330 F   0  0  0  0  0  0  0  0  0  0  0  0
  194.9050  173.1600  145.1510 O   0  0  0  0  0  1  0  0  0  0  0  0
  193.9210  174.0540  144.7190 C   0  0  2  0  0  3  0  0  0  0  0  0
  1 14  1  0  0  0  0
  2  3  1  6  0  0  0
  2 13  1  0  0  0  0
  3 19  2  0  0  0  0
  4  7  1  0  0  0  0
  4 11  1  0  0  0  0
  5 14  1  6  0  0  0
  5  2  1  0  0  0  0
  6  9  1  0  0  0  0
  6 17  1  0  0  0  0
  7  3  1  0  0  0  0
  8 21  1  1  0  0  0
  8 13  1  0  0  0  0
  9  1  1  0  0  0  0
 10 18  1  0  0  0  0
 11 20  1  0  0  0  0
 12  8  1  0  0  0  0
 13 18  1  6  0  0  0
 16 12  2  0  0  0  0
 16  5  1  0  0  0  0
 17 16  1  0  0  0  0
 19 10  1  0  0  0  0
 20 19  1  0  0  0  0
 20 15  2  0  0  0  0
 21 23  1  0  0  0  0
 23 22  1  1  0  0  0
 24 23  1  0  0  0  0
 24 25  1  1  0  0  0
 26 28  1  0  0  0  0
 26 24  1  0  0  0  0
 27 26  2  0  0  0  0
 31 29  1  1  0  0  0
 31 30  1  0  0  0  0
 31 24  1  0  0  0  0
M  END
>  <MODEL>
5

>  <REMARK>
 VINA RESULT:      -6.6      3.030      5.285
  Name = 
  5 active torsions:
  status: ('A' for Active; 'I' for Inactive)
    1  A    between atoms: C_1  and  C_19
    2  A    between atoms: C_9  and  C_19
    3  A    between atoms: C_9  and  C_23
    4  A    between atoms: C_15  and  C_23
    5  A    between atoms: C_19  and  C_22
                            x       y       z     vdW  Elec       q    Type
                         _______ _______ _______ _____ _____    ______ ____

>  <TORSDO>
F 5

$$$$
=
 OpenBabel11052417583D

 31 34  0  0  1  0  0  0  0  0999 V2000
  192.2310  176.9240  145.6030 C   0  0  0  0  0  2  0  0  0  0  0  0
  189.6520  176.2260  143.3240 C   0  0  1  0  0  3  0  0  0  0  0  0
  188.7620  176.5460  144.4980 C   0  0  0  0  0  0  0  0  0  0  0  0
  188.1680  176.0770  146.8850 C   0  0  0  0  0  2  0  0  0  0  0  0
  191.0900  175.7850  143.6190 C   0  0  1  0  0  3  0  0  0  0  0  0
  192.6360  174.5020  146.1520 C   0  0  0  0  0  2  0  0  0  0  0  0
  189.2470  176.5760  145.9250 C   0  0  0  0  0  2  0  0  0  0  0  0
  189.0190  173.7660  143.1070 C   0  0  1  0  0  3  0  0  0  0  0  0
  193.2380  175.8970  146.0970 C   0  0  0  0  0  2  0  0  0  0  0  0
  187.0600  176.6240  142.7640 C   0  0  0  0  0  2  0  0  0  0  0  0
  186.8980  176.9100  146.7180 C   0  0  0  0  0  2  0  0  0  0  0  0
  190.3330  173.4410  143.7850 C   0  0  0  0  0  3  0  0  0  0  0  0
  188.9380  175.1620  142.4540 C   0  0  1  0  0  3  0  0  0  0  0  0
  192.0740  176.8590  144.0890 C   0  0  0  0  0  2  0  0  0  0  0  0
  185.2590  177.1270  144.9960 O   0  0  0  0  0  0  0  0  0  0  0  0
  191.2570  174.3620  144.0920 C   0  0  0  0  0  0  0  0  0  0  0  0
  192.5150  173.9050  144.7590 C   0  0  0  0  0  2  0  0  0  0  0  0
  187.5670  175.4440  142.1510 O   0  0  0  0  0  0  0  0  0  0  0  0
  187.4680  176.7350  144.2090 C   0  0  0  0  0  0  0  0  0  0  0  0
  186.4680  176.9260  145.2800 C   0  0  0  0  0  0  0  0  0  0  0  0
  188.5940  172.6470  142.1580 C   0  0  0  0  0  2  0  0  0  0  0  0
  188.1760  172.6800  139.7900 O   0  0  0  0  0  1  0  0  0  0  0  0
  189.1840  172.8060  140.7520 C   0  0  2  0  0  3  0  0  0  0  0  0
  190.3420  171.8290  140.4710 C   0  0  2  0  0  0  0  0  0  0  0  0
  190.2990  170.7820  141.4000 O   0  0  0  0  0  1  0  0  0  0  0  0
  191.6360  172.5830  140.6420 C   0  0  0  0  0  0  0  0  0  0  0  0
  191.6960  173.8150  140.3850 O   0  0  0  0  0  0  0  0  0  0  0  0
  192.7950  171.9120  141.0180 O   0  0  0  0  0  1  0  0  0  0  0  0
  190.0830  169.8670  139.0860 F   0  0  0  0  0  0  0  0  0  0  0  0
  191.4150  171.5320  138.3230 O   0  0  0  0  0  1  0  0  0  0  0  0
  190.2580  171.2400  139.0500 C   0  0  2  0  0  3  0  0  0  0  0  0
  1  9  1  0  0  0  0
  2  5  1  0  0  0  0
  2  3  1  1  0  0  0
  3  7  1  0  0  0  0
  5 14  1  1  0  0  0
  5 16  1  0  0  0  0
  7  4  1  0  0  0  0
  8 21  1  6  0  0  0
  8 12  1  0  0  0  0
  9  6  1  0  0  0  0
 10 19  1  0  0  0  0
 11  4  1  0  0  0  0
 12 16  2  0  0  0  0
 13 18  1  1  0  0  0
 13  8  1  0  0  0  0
 13  2  1  0  0  0  0
 14  1  1  0  0  0  0
 15 20  2  0  0  0  0
 16 17  1  0  0  0  0
 17  6  1  0  0  0  0
 18 10  1  0  0  0  0
 19  3  2  0  0  0  0
 19 20  1  0  0  0  0
 20 11  1  0  0  0  0
 23 22  1  6  0  0  0
 23 21  1  0  0  0  0
 24 26  1  0  0  0  0
 24 23  1  0  0  0  0
 24 25  1  1  0  0  0
 26 28  1  0  0  0  0
 27 26  2  0  0  0  0
 31 30  1  6  0  0  0
 31 29  1  0  0  0  0
 31 24  1  0  0  0  0
M  END
>  <MODEL>
6

>  <REMARK>
 VINA RESULT:      -6.5      1.678      2.059
  Name = 
  5 active torsions:
  status: ('A' for Active; 'I' for Inactive)
    1  A    between atoms: C_1  and  C_19
    2  A    between atoms: C_9  and  C_19
    3  A    between atoms: C_9  and  C_23
    4  A    between atoms: C_15  and  C_23
    5  A    between atoms: C_19  and  C_22
                            x       y       z     vdW  Elec       q    Type
                         _______ _______ _______ _____ _____    ______ ____

>  <TORSDO>
F 5

$$$$
=
 OpenBabel11052417583D

 31 34  0  0  1  0  0  0  0  0999 V2000
  194.9730  173.7700  145.0510 C   0  0  0  0  0  2  0  0  0  0  0  0
  191.6250  173.1580  144.1850 C   0  0  1  0  0  3  0  0  0  0  0  0
  192.1190  173.4190  142.7850 C   0  0  0  0  0  0  0  0  0  0  0  0
  193.3100  174.9710  141.2220 C   0  0  0  0  0  2  0  0  0  0  0  0
  192.4330  173.7450  145.3480 C   0  0  1  0  0  3  0  0  0  0  0  0
  194.5490  176.1650  145.6970 C   0  0  0  0  0  2  0  0  0  0  0  0
  193.4230  174.1100  142.4790 C   0  0  0  0  0  2  0  0  0  0  0  0
  190.0670  175.1700  144.3510 C   0  0  1  0  0  3  0  0  0  0  0  0
  195.4380  174.9470  145.8940 C   0  0  0  0  0  2  0  0  0  0  0  0
  189.9750  172.4330  142.1990 C   0  0  0  0  0  2  0  0  0  0  0  0
  192.8520  174.1130  140.0440 C   0  0  0  0  0  2  0  0  0  0  0  0
  191.1330  175.8370  145.1920 C   0  0  0  0  0  3  0  0  0  0  0  0
  190.1520  173.6300  144.2720 C   0  0  1  0  0  3  0  0  0  0  0  0
  193.7710  173.0790  145.6820 C   0  0  0  0  0  2  0  0  0  0  0  0
  190.8110  173.0140  139.4710 O   0  0  0  0  0  0  0  0  0  0  0  0
  192.2540  175.2230  145.5930 C   0  0  0  0  0  0  0  0  0  0  0  0
  193.2250  175.9980  146.4250 C   0  0  0  0  0  2  0  0  0  0  0  0
  189.3060  173.1810  143.2080 O   0  0  0  0  0  0  0  0  0  0  0  0
  191.2850  173.0600  141.8010 C   0  0  0  0  0  0  0  0  0  0  0  0
  191.5900  173.3780  140.3910 C   0  0  0  0  0  0  0  0  0  0  0  0
  188.6710  175.6630  144.7310 C   0  0  0  0  0  2  0  0  0  0  0  0
  187.9630  177.9190  145.1660 O   0  0  0  0  0  1  0  0  0  0  0  0
  188.3500  177.0420  144.1470 C   0  0  2  0  0  3  0  0  0  0  0  0
  187.2890  176.9900  143.0300 C   0  0  2  0  0  0  0  0  0  0  0  0
  186.9030  175.6600  142.8220 O   0  0  0  0  0  1  0  0  0  0  0  0
  187.9180  177.5220  141.7680 C   0  0  0  0  0  0  0  0  0  0  0  0
  188.9160  178.2890  141.8270 O   0  0  0  0  0  1  0  0  0  0  0  0
  187.3610  177.2270  140.5280 O   0  0  0  0  0  0  0  0  0  0  0  0
  184.8790  177.1600  143.0390 F   0  0  0  0  0  0  0  0  0  0  0  0
  186.0720  179.0620  142.7470 O   0  0  0  0  0  1  0  0  0  0  0  0
  186.0430  177.8220  143.3900 C   0  0  2  0  0  3  0  0  0  0  0  0
  1 14  1  0  0  0  0
  1  9  1  0  0  0  0
  2  3  1  6  0  0  0
  2 13  1  0  0  0  0
  2  5  1  0  0  0  0
  4  7  1  0  0  0  0
  5 16  1  0  0  0  0
  5 14  1  6  0  0  0
  6  9  1  0  0  0  0
  6 17  1  0  0  0  0
  7  3  1  0  0  0  0
  8 21  1  1  0  0  0
  8 12  1  0  0  0  0
 10 18  1  0  0  0  0
 11 20  1  0  0  0  0
 11  4  1  0  0  0  0
 12 16  2  0  0  0  0
 13 18  1  6  0  0  0
 13  8  1  0  0  0  0
 15 20  2  0  0  0  0
 16 17  1  0  0  0  0
 19 10  1  0  0  0  0
 19  3  2  0  0  0  0
 20 19  1  0  0  0  0
 23 21  1  0  0  0  0
 23 22  1  1  0  0  0
 24 25  1  6  0  0  0
 24 31  1  0  0  0  0
 24 23  1  0  0  0  0
 26 27  1  0  0  0  0
 26 24  1  0  0  0  0
 28 26  2  0  0  0  0
 29 31  1  0  0  0  0
 31 30  1  6  0  0  0
M  END
>  <MODEL>
7

>  <REMARK>
 VINA RESULT:      -6.4      2.885      6.384
  Name = 
  5 active torsions:
  status: ('A' for Active; 'I' for Inactive)
    1  A    between atoms: C_1  and  C_19
    2  A    between atoms: C_9  and  C_19
    3  A    between atoms: C_9  and  C_23
    4  A    between atoms: C_15  and  C_23
    5  A    between atoms: C_19  and  C_22
                            x       y       z     vdW  Elec       q    Type
                         _______ _______ _______ _____ _____    ______ ____

>  <TORSDO>
F 5

$$$$
=
 OpenBabel11052417583D

 31 34  0  0  1  0  0  0  0  0999 V2000
  194.6310  174.4060  145.4340 C   0  0  0  0  0  2  0  0  0  0  0  0
  191.9050  174.0990  143.2410 C   0  0  1  0  0  3  0  0  0  0  0  0
  192.9400  174.4020  142.1880 C   0  0  0  0  0  0  0  0  0  0  0  0
  194.7340  175.9480  141.3750 C   0  0  0  0  0  2  0  0  0  0  0  0
  192.1940  174.5550  144.6760 C   0  0  1  0  0  3  0  0  0  0  0  0
  194.0890  176.7850  146.0510 C   0  0  0  0  0  2  0  0  0  0  0  0
  194.2850  175.0100  142.4940 C   0  0  0  0  0  2  0  0  0  0  0  0
  190.5090  176.2090  142.9300 C   0  0  1  0  0  3  0  0  0  0  0  0
  194.7640  175.4940  146.4890 C   0  0  0  0  0  2  0  0  0  0  0  0
  191.1810  173.6160  140.7050 C   0  0  0  0  0  2  0  0  0  0  0  0
  194.7600  175.1960  140.0450 C   0  0  0  0  0  2  0  0  0  0  0  0
  191.1660  176.7440  144.1830 C   0  0  0  0  0  3  0  0  0  0  0  0
  190.5490  174.6740  142.7640 C   0  0  1  0  0  3  0  0  0  0  0  0
  193.2470  173.7720  145.4660 C   0  0  0  0  0  2  0  0  0  0  0  0
  193.0840  174.2890  138.6060 O   0  0  0  0  0  0  0  0  0  0  0  0
  191.9960  176.0250  144.9500 C   0  0  0  0  0  0  0  0  0  0  0  0
  192.5760  176.6760  146.1650 C   0  0  0  0  0  2  0  0  0  0  0  0
  190.1930  174.3520  141.4150 O   0  0  0  0  0  0  0  0  0  0  0  0
  192.5660  174.1650  140.9240 C   0  0  0  0  0  0  0  0  0  0  0  0
  193.4350  174.5390  139.7890 C   0  0  0  0  0  0  0  0  0  0  0  0
  189.1030  176.7820  142.7540 C   0  0  0  0  0  2  0  0  0  0  0  0
  187.0500  175.5310  142.7860 O   0  0  0  0  0  1  0  0  0  0  0  0
  188.0560  176.0570  143.6040 C   0  0  2  0  0  3  0  0  0  0  0  0
  187.4590  176.9460  144.7120 C   0  0  2  0  0  0  0  0  0  0  0  0
  187.7140  178.2900  144.4120 O   0  0  0  0  0  1  0  0  0  0  0  0
  188.1420  176.5950  146.0080 C   0  0  0  0  0  0  0  0  0  0  0  0
  188.3910  177.4890  146.8610 O   0  0  0  0  0  1  0  0  0  0  0  0
  188.5690  175.2930  146.2470 O   0  0  0  0  0  0  0  0  0  0  0  0
  185.2390  177.7100  144.1400 F   0  0  0  0  0  0  0  0  0  0  0  0
  185.5460  176.7900  146.1860 O   0  0  0  0  0  1  0  0  0  0  0  0
  185.9370  176.7450  144.8450 C   0  0  2  0  0  3  0  0  0  0  0  0
  1 14  1  0  0  0  0
  1  9  1  0  0  0  0
  2  3  1  6  0  0  0
  2  5  1  0  0  0  0
  3  7  1  0  0  0  0
  4  7  1  0  0  0  0
  5 16  1  0  0  0  0
  5 14  1  6  0  0  0
  6 17  1  0  0  0  0
  6  9  1  0  0  0  0
  8 21  1  1  0  0  0
  8 12  1  0  0  0  0
 10 19  1  0  0  0  0
 10 18  1  0  0  0  0
 11  4  1  0  0  0  0
 12 16  2  0  0  0  0
 13 18  1  6  0  0  0
 13  8  1  0  0  0  0
 13  2  1  0  0  0  0
 15 20  2  0  0  0  0
 16 17  1  0  0  0  0
 19  3  2  0  0  0  0
 20 11  1  0  0  0  0
 20 19  1  0  0  0  0
 21 23  1  0  0  0  0
 23 22  1  6  0  0  0
 23 24  1  0  0  0  0
 24 25  1  6  0  0  0
 24 31  1  0  0  0  0
 24 26  1  0  0  0  0
 26 28  2  0  0  0  0
 26 27  1  0  0  0  0
 31 29  1  6  0  0  0
 31 30  1  0  0  0  0
M  END
>  <MODEL>
8

>  <REMARK>
 VINA RESULT:      -6.4      3.311      6.735
  Name = 
  5 active torsions:
  status: ('A' for Active; 'I' for Inactive)
    1  A    between atoms: C_1  and  C_19
    2  A    between atoms: C_9  and  C_19
    3  A    between atoms: C_9  and  C_23
    4  A    between atoms: C_15  and  C_23
    5  A    between atoms: C_19  and  C_22
                            x       y       z     vdW  Elec       q    Type
                         _______ _______ _______ _____ _____    ______ ____

>  <TORSDO>
F 5

$$$$
=
 OpenBabel11052417583D

 31 34  0  0  1  0  0  0  0  0999 V2000
  189.2720  176.3920  146.7540 C   0  0  0  0  0  2  0  0  0  0  0  0
  191.3010  173.8070  145.5160 C   0  0  1  0  0  3  0  0  0  0  0  0
  192.4180  174.7770  145.8080 C   0  0  0  0  0  0  0  0  0  0  0  0
  193.3640  177.0700  145.4640 C   0  0  0  0  0  2  0  0  0  0  0  0
  189.8960  174.3800  145.3050 C   0  0  1  0  0  3  0  0  0  0  0  0
  188.6790  177.2560  144.4660 C   0  0  0  0  0  2  0  0  0  0  0  0
  192.2010  176.2530  146.0250 C   0  0  0  0  0  2  0  0  0  0  0  0
  191.5810  173.7530  142.9830 C   0  0  1  0  0  3  0  0  0  0  0  0
  188.2510  177.1520  145.9220 C   0  0  0  0  0  2  0  0  0  0  0  0
  193.7810  172.7880  145.5030 C   0  0  0  0  0  2  0  0  0  0  0  0
  194.6760  176.6080  146.0960 C   0  0  0  0  0  2  0  0  0  0  0  0
  190.3790  174.6690  142.9010 C   0  0  0  0  0  3  0  0  0  0  0  0
  191.7140  172.9500  144.2940 C   0  0  1  0  0  3  0  0  0  0  0  0
  189.1480  174.8890  146.5410 C   0  0  0  0  0  2  0  0  0  0  0  0
  195.9980  174.6250  145.9380 O   0  0  0  0  0  0  0  0  0  0  0  0
  189.6430  175.0240  143.9630 C   0  0  0  0  0  0  0  0  0  0  0  0
  188.4770  175.9340  143.7430 C   0  0  0  0  0  2  0  0  0  0  0  0
  193.0330  172.3970  144.3570 O   0  0  0  0  0  0  0  0  0  0  0  0
  193.6530  174.2600  145.7900 C   0  0  0  0  0  0  0  0  0  0  0  0
  194.8420  175.1250  145.9310 C   0  0  0  0  0  0  0  0  0  0  0  0
  191.6910  172.8720  141.7390 C   0  0  0  0  0  2  0  0  0  0  0  0
  190.0230  171.1400  141.7050 O   0  0  0  0  0  1  0  0  0  0  0  0
  190.3260  172.4140  141.2140 C   0  0  2  0  0  3  0  0  0  0  0  0
  190.2290  172.4530  139.6770 C   0  0  2  0  0  0  0  0  0  0  0  0
  191.2720  173.2370  139.1680 O   0  0  0  0  0  1  0  0  0  0  0  0
  188.9130  173.0890  139.3100 C   0  0  0  0  0  0  0  0  0  0  0  0
  187.8360  172.6520  139.7970 O   0  0  0  0  0  1  0  0  0  0  0  0
  188.8670  174.1190  138.3760 O   0  0  0  0  0  0  0  0  0  0  0  0
  191.6190  170.5600  139.1090 F   0  0  0  0  0  0  0  0  0  0  0  0
  189.8830  171.0460  137.7390 O   0  0  0  0  0  1  0  0  0  0  0  0
  190.3220  171.0410  139.0660 C   0  0  2  0  0  3  0  0  0  0  0  0
  2  3  1  6  0  0  0
  3  7  1  0  0  0  0
  4  7  1  0  0  0  0
  4 11  1  0  0  0  0
  5  2  1  0  0  0  0
  5 14  1  1  0  0  0
  6  9  1  0  0  0  0
  8 21  1  6  0  0  0
  8 13  1  0  0  0  0
  9  1  1  0  0  0  0
 10 19  1  0  0  0  0
 12  8  1  0  0  0  0
 12 16  2  0  0  0  0
 13 18  1  1  0  0  0
 13  2  1  0  0  0  0
 14  1  1  0  0  0  0
 16  5  1  0  0  0  0
 17 16  1  0  0  0  0
 17  6  1  0  0  0  0
 18 10  1  0  0  0  0
 19  3  2  0  0  0  0
 19 20  1  0  0  0  0
 20 15  2  0  0  0  0
 20 11  1  0  0  0  0
 23 22  1  6  0  0  0
 23 21  1  0  0  0  0
 24 25  1  6  0  0  0
 24 23  1  0  0  0  0
 26 24  1  0  0  0  0
 26 27  1  0  0  0  0
 28 26  2  0  0  0  0
 31 30  1  6  0  0  0
 31 29  1  0  0  0  0
 31 24  1  0  0  0  0
M  END
>  <MODEL>
9

>  <REMARK>
 VINA RESULT:      -6.3      2.432      5.564
  Name = 
  5 active torsions:
  status: ('A' for Active; 'I' for Inactive)
    1  A    between atoms: C_1  and  C_19
    2  A    between atoms: C_9  and  C_19
    3  A    between atoms: C_9  and  C_23
    4  A    between atoms: C_15  and  C_23
    5  A    between atoms: C_19  and  C_22
                            x       y       z     vdW  Elec       q    Type
                         _______ _______ _______ _____ _____    ______ ____

>  <TORSDO>
F 5

$$$$
