=
 OpenBabel11052418273D

 27 30  0  0  1  0  0  0  0  0999 V2000
  190.2050  176.1850  145.0360 N   0  0  0  0  0  0  0  0  0  0  0  0
  188.9930  177.0140  144.9700 C   0  0  1  0  0  3  0  0  0  0  0  0
  185.0320  178.5320  144.6360 C   0  0  0  0  0  3  0  0  0  0  0  0
  182.9790  179.1910  145.6490 F   0  0  0  0  0  0  0  0  0  0  0  0
  188.2900  176.8860  143.6230 C   0  0  0  0  0  2  0  0  0  0  0  0
  185.8800  177.4960  147.0910 C   0  0  0  0  0  3  0  0  0  0  0  0
  184.6210  178.0920  146.9810 C   0  0  0  0  0  3  0  0  0  0  0  0
  186.7270  177.4220  145.9800 C   0  0  0  0  0  0  0  0  0  0  0  0
  184.1970  178.6100  145.7540 C   0  0  0  0  0  0  0  0  0  0  0  0
  186.2890  177.9270  144.7340 C   0  0  0  0  0  0  0  0  0  0  0  0
  188.0410  176.7110  146.1270 C   0  0  0  0  0  2  0  0  0  0  0  0
  187.1840  177.9320  143.5270 C   0  0  0  0  0  2  0  0  0  0  0  0
  190.2900  172.1880  143.5650 C   0  0  0  0  0  3  0  0  0  0  0  0
  190.2360  174.8330  144.5250 C   0  0  0  0  0  0  0  0  0  0  0  0
  190.7080  174.5480  143.2320 C   0  0  0  0  0  3  0  0  0  0  0  0
  190.7350  173.2350  142.7550 C   0  0  0  0  0  3  0  0  0  0  0  0
  189.8200  172.4550  144.8530 C   0  0  0  0  0  3  0  0  0  0  0  0
  189.7930  173.7690  145.3290 C   0  0  0  0  0  3  0  0  0  0  0  0
  191.3210  176.6480  145.7620 N   0  0  0  0  0  2  0  0  0  0  0  0
  193.6020  173.8380  145.7430 C   0  0  0  0  0  3  0  0  0  0  0  0
  195.4690  175.1620  144.7420 C   0  0  0  0  0  0  0  0  0  0  0  0
  196.8220  175.0210  144.4640 O   0  0  0  0  0  1  0  0  0  0  0  0
  192.6500  176.1160  145.6720 C   0  0  0  0  0  0  0  0  0  0  0  0
  194.6870  173.9310  144.9750 C   0  0  0  0  0  3  0  0  0  0  0  0
  194.9470  176.3960  144.7070 C   0  0  0  0  0  3  0  0  0  0  0  0
  193.5370  176.7790  144.9290 C   0  0  0  0  0  3  0  0  0  0  0  0
  193.0770  174.9790  146.5460 C   0  0  0  0  0  2  0  0  0  0  0  0
  1 19  1  0  0  0  0
  2  1  1  6  0  0  0
  2 11  1  0  0  0  0
  3 10  2  0  0  0  0
  3  9  1  0  0  0  0
  4  9  1  0  0  0  0
  5  2  1  0  0  0  0
  7  6  1  0  0  0  0
  8 11  1  0  0  0  0
  8  6  2  0  0  0  0
  9  7  2  0  0  0  0
 10  8  1  0  0  0  0
 12  5  1  0  0  0  0
 12 10  1  0  0  0  0
 13 17  1  0  0  0  0
 14  1  1  0  0  0  0
 14 18  1  0  0  0  0
 15 14  2  0  0  0  0
 16 15  1  0  0  0  0
 16 13  2  0  0  0  0
 17 18  2  0  0  0  0
 20 27  1  0  0  0  0
 21 24  1  0  0  0  0
 22 21  1  0  0  0  0
 23 19  1  0  0  0  0
 23 27  1  0  0  0  0
 24 20  2  0  0  0  0
 25 21  2  0  0  0  0
 25 26  1  0  0  0  0
 26 23  2  0  0  0  0
M  END
>  <MODEL>
1

>  <REMARK>
 VINA RESULT:      -7.9      0.000      0.000
  Name = 
  4 active torsions:
  status: ('A' for Active; 'I' for Inactive)
    1  A    between atoms: N_1  and  N_15
    2  A    between atoms: N_1  and  C_18
    3  A    between atoms: C_2  and  N_15
    4  A    between atoms: C_9  and  N_15
                            x       y       z     vdW  Elec       q    Type
                         _______ _______ _______ _____ _____    ______ ____

>  <TORSDO>
F 4

$$$$
=
 OpenBabel11052418273D

 27 30  0  0  1  0  0  0  0  0999 V2000
  190.2700  175.8610  144.4830 N   0  0  0  0  0  0  0  0  0  0  0  0
  188.8860  176.1500  144.8820 C   0  0  1  0  0  3  0  0  0  0  0  0
  185.2800  177.8340  146.3900 C   0  0  0  0  0  3  0  0  0  0  0  0
  183.3160  179.1430  146.0650 F   0  0  0  0  0  0  0  0  0  0  0  0
  188.7540  176.3240  146.3920 C   0  0  0  0  0  2  0  0  0  0  0  0
  186.2050  178.6460  143.8790 C   0  0  0  0  0  3  0  0  0  0  0  0
  184.9740  179.1070  144.3530 C   0  0  0  0  0  3  0  0  0  0  0  0
  186.9760  177.7710  144.6490 C   0  0  0  0  0  0  0  0  0  0  0  0
  184.5110  178.7010  145.6080 C   0  0  0  0  0  0  0  0  0  0  0  0
  186.5180  177.3770  145.9280 C   0  0  0  0  0  0  0  0  0  0  0  0
  188.3240  177.3570  144.1320 C   0  0  0  0  0  2  0  0  0  0  0  0
  187.2770  176.3880  146.7670 C   0  0  0  0  0  2  0  0  0  0  0  0
  191.2240  172.8370  141.6380 C   0  0  0  0  0  3  0  0  0  0  0  0
  190.5910  174.8260  143.5260 C   0  0  0  0  0  0  0  0  0  0  0  0
  190.2760  173.4770  143.7700 C   0  0  0  0  0  3  0  0  0  0  0  0
  190.5910  172.4900  142.8340 C   0  0  0  0  0  3  0  0  0  0  0  0
  191.5410  174.1720  141.3800 C   0  0  0  0  0  3  0  0  0  0  0  0
  191.2270  175.1590  142.3180 C   0  0  0  0  0  3  0  0  0  0  0  0
  191.3320  176.4880  145.1660 N   0  0  0  0  0  2  0  0  0  0  0  0
  193.4520  173.6110  145.7440 C   0  0  0  0  0  3  0  0  0  0  0  0
  195.5450  174.8440  145.1610 C   0  0  0  0  0  0  0  0  0  0  0  0
  196.9200  174.6530  145.2040 O   0  0  0  0  0  1  0  0  0  0  0  0
  192.6250  175.9130  145.3970 C   0  0  0  0  0  0  0  0  0  0  0  0
  194.6860  173.6450  145.2430 C   0  0  0  0  0  3  0  0  0  0  0  0
  195.0910  176.0910  144.9750 C   0  0  0  0  0  3  0  0  0  0  0  0
  193.6820  176.5230  144.8590 C   0  0  0  0  0  3  0  0  0  0  0  0
  192.8000  174.7940  146.3750 C   0  0  0  0  0  2  0  0  0  0  0  0
  1 19  1  0  0  0  0
  2  1  1  1  0  0  0
  2  5  1  0  0  0  0
  5 12  1  0  0  0  0
  6  7  2  0  0  0  0
  6  8  1  0  0  0  0
  7  9  1  0  0  0  0
  8 10  2  0  0  0  0
  9  4  1  0  0  0  0
  9  3  2  0  0  0  0
 10  3  1  0  0  0  0
 10 12  1  0  0  0  0
 11  8  1  0  0  0  0
 11  2  1  0  0  0  0
 13 16  1  0  0  0  0
 14 15  1  0  0  0  0
 14  1  1  0  0  0  0
 16 15  2  0  0  0  0
 17 13  2  0  0  0  0
 17 18  1  0  0  0  0
 18 14  2  0  0  0  0
 19 23  1  0  0  0  0
 20 27  1  0  0  0  0
 21 22  1  0  0  0  0
 21 24  1  0  0  0  0
 23 27  1  0  0  0  0
 24 20  2  0  0  0  0
 25 21  2  0  0  0  0
 26 25  1  0  0  0  0
 26 23  2  0  0  0  0
M  END
>  <MODEL>
2

>  <REMARK>
 VINA RESULT:      -7.7      0.810      1.884
  Name = 
  4 active torsions:
  status: ('A' for Active; 'I' for Inactive)
    1  A    between atoms: N_1  and  N_15
    2  A    between atoms: N_1  and  C_18
    3  A    between atoms: C_2  and  N_15
    4  A    between atoms: C_9  and  N_15
                            x       y       z     vdW  Elec       q    Type
                         _______ _______ _______ _____ _____    ______ ____

>  <TORSDO>
F 4

$$$$
=
 OpenBabel11052418273D

 27 30  0  0  1  0  0  0  0  0999 V2000
  188.1180  177.1630  144.4670 N   0  0  0  0  0  0  0  0  0  0  0  0
  187.9750  176.2550  143.3210 C   0  0  1  0  0  3  0  0  0  0  0  0
  188.5050  173.9050  139.8130 C   0  0  0  0  0  3  0  0  0  0  0  0
  189.1190  171.8500  138.7760 F   0  0  0  0  0  0  0  0  0  0  0  0
  188.1590  176.9830  141.9940 C   0  0  0  0  0  2  0  0  0  0  0  0
  189.4650  172.9290  142.2520 C   0  0  0  0  0  3  0  0  0  0  0  0
  189.5360  172.1350  141.1040 C   0  0  0  0  0  3  0  0  0  0  0  0
  188.9060  174.2100  142.1920 C   0  0  0  0  0  0  0  0  0  0  0  0
  189.0550  172.6210  139.8860 C   0  0  0  0  0  0  0  0  0  0  0  0
  188.4400  174.7110  140.9540 C   0  0  0  0  0  0  0  0  0  0  0  0
  188.9150  175.0550  143.4330 C   0  0  0  0  0  2  0  0  0  0  0  0
  187.7730  176.0520  140.8480 C   0  0  0  0  0  2  0  0  0  0  0  0
  184.8090  178.2430  146.9230 C   0  0  0  0  0  3  0  0  0  0  0  0
  186.9960  177.5190  145.3070 C   0  0  0  0  0  0  0  0  0  0  0  0
  186.6870  176.7870  146.4670 C   0  0  0  0  0  3  0  0  0  0  0  0
  185.6010  177.1470  147.2690 C   0  0  0  0  0  3  0  0  0  0  0  0
  185.1040  178.9810  145.7740 C   0  0  0  0  0  3  0  0  0  0  0  0
  186.1900  178.6200  144.9720 C   0  0  0  0  0  3  0  0  0  0  0  0
  189.3390  177.8410  144.6650 N   0  0  0  0  0  2  0  0  0  0  0  0
  190.7890  175.6460  147.1520 C   0  0  0  0  0  3  0  0  0  0  0  0
  193.0870  175.8190  146.1870 C   0  0  0  0  0  0  0  0  0  0  0  0
  194.3870  175.4470  146.5030 O   0  0  0  0  0  1  0  0  0  0  0  0
  190.4800  177.3140  145.3550 C   0  0  0  0  0  0  0  0  0  0  0  0
  191.9880  175.1270  146.8900 C   0  0  0  0  0  3  0  0  0  0  0  0
  192.9130  176.7250  145.2150 C   0  0  0  0  0  3  0  0  0  0  0  0
  191.6310  177.2380  144.6870 C   0  0  0  0  0  3  0  0  0  0  0  0
  190.4280  177.0560  146.8290 C   0  0  0  0  0  2  0  0  0  0  0  0
  1 19  1  0  0  0  0
  1 14  1  0  0  0  0
  2 11  1  0  0  0  0
  2  1  1  1  0  0  0
  3  9  2  0  0  0  0
  3 10  1  0  0  0  0
  4  9  1  0  0  0  0
  5  2  1  0  0  0  0
  7  6  2  0  0  0  0
  8  6  1  0  0  0  0
  8 11  1  0  0  0  0
  9  7  1  0  0  0  0
 10  8  2  0  0  0  0
 12 10  1  0  0  0  0
 12  5  1  0  0  0  0
 13 16  1  0  0  0  0
 14 15  1  0  0  0  0
 15 16  2  0  0  0  0
 17 13  2  0  0  0  0
 18 14  2  0  0  0  0
 18 17  1  0  0  0  0
 19 23  1  0  0  0  0
 21 22  1  0  0  0  0
 21 24  1  0  0  0  0
 23 27  1  0  0  0  0
 24 20  2  0  0  0  0
 25 21  2  0  0  0  0
 26 25  1  0  0  0  0
 26 23  2  0  0  0  0
 27 20  1  0  0  0  0
M  END
>  <MODEL>
3

>  <REMARK>
 VINA RESULT:      -7.7      3.002      5.783
  Name = 
  4 active torsions:
  status: ('A' for Active; 'I' for Inactive)
    1  A    between atoms: N_1  and  N_15
    2  A    between atoms: N_1  and  C_18
    3  A    between atoms: C_2  and  N_15
    4  A    between atoms: C_9  and  N_15
                            x       y       z     vdW  Elec       q    Type
                         _______ _______ _______ _____ _____    ______ ____

>  <TORSDO>
F 4

$$$$
=
 OpenBabel11052418273D

 27 30  0  0  1  0  0  0  0  0999 V2000
  190.6050  175.4530  145.5520 N   0  0  0  0  0  0  0  0  0  0  0  0
  189.4940  176.4010  145.3950 C   0  0  1  0  0  3  0  0  0  0  0  0
  185.8130  178.3550  144.5330 C   0  0  0  0  0  3  0  0  0  0  0  0
  183.6280  179.0340  145.1980 F   0  0  0  0  0  0  0  0  0  0  0  0
  189.1080  176.5860  143.9310 C   0  0  0  0  0  2  0  0  0  0  0  0
  186.0160  176.8200  146.8610 C   0  0  0  0  0  3  0  0  0  0  0  0
  184.8540  177.5530  146.6060 C   0  0  0  0  0  3  0  0  0  0  0  0
  187.0870  176.8570  145.9630 C   0  0  0  0  0  0  0  0  0  0  0  0
  184.7520  178.3200  145.4430 C   0  0  0  0  0  0  0  0  0  0  0  0
  186.9750  177.6160  144.7750 C   0  0  0  0  0  0  0  0  0  0  0  0
  188.2870  175.9990  146.2420 C   0  0  0  0  0  2  0  0  0  0  0  0
  188.1200  177.7420  143.8090 C   0  0  0  0  0  2  0  0  0  0  0  0
  194.6760  176.7030  145.4370 C   0  0  0  0  0  3  0  0  0  0  0  0
  191.9860  175.8810  145.5250 C   0  0  0  0  0  0  0  0  0  0  0  0
  192.6780  176.2020  146.7060 C   0  0  0  0  0  3  0  0  0  0  0  0
  194.0140  176.6110  146.6620 C   0  0  0  0  0  3  0  0  0  0  0  0
  194.0030  176.3860  144.2550 C   0  0  0  0  0  3  0  0  0  0  0  0
  192.6670  175.9780  144.3000 C   0  0  0  0  0  3  0  0  0  0  0  0
  190.3380  174.0690  145.5650 N   0  0  0  0  0  2  0  0  0  0  0  0
  189.8910  173.3170  142.0520 C   0  0  0  0  0  3  0  0  0  0  0  0
  191.5480  171.4480  142.0840 C   0  0  0  0  0  0  0  0  0  0  0  0
  191.9960  170.4310  141.2520 O   0  0  0  0  0  1  0  0  0  0  0  0
  190.4860  173.1840  144.4460 C   0  0  0  0  0  0  0  0  0  0  0  0
  190.8240  172.5730  141.4590 C   0  0  0  0  0  3  0  0  0  0  0  0
  191.8660  171.3800  143.3840 C   0  0  0  0  0  3  0  0  0  0  0  0
  191.5340  172.3600  144.4390 C   0  0  0  0  0  3  0  0  0  0  0  0
  189.3950  173.0470  143.4310 C   0  0  0  0  0  2  0  0  0  0  0  0
  1 19  1  0  0  0  0
  2  1  1  6  0  0  0
  2 11  1  0  0  0  0
  3 10  2  0  0  0  0
  3  9  1  0  0  0  0
  4  9  1  0  0  0  0
  5  2  1  0  0  0  0
  7  6  1  0  0  0  0
  8 11  1  0  0  0  0
  8  6  2  0  0  0  0
  9  7  2  0  0  0  0
 10  8  1  0  0  0  0
 12  5  1  0  0  0  0
 12 10  1  0  0  0  0
 13 16  1  0  0  0  0
 14  1  1  0  0  0  0
 14 15  1  0  0  0  0
 16 15  2  0  0  0  0
 17 18  1  0  0  0  0
 17 13  2  0  0  0  0
 18 14  2  0  0  0  0
 20 27  1  0  0  0  0
 21 25  2  0  0  0  0
 22 21  1  0  0  0  0
 23 19  1  0  0  0  0
 24 20  2  0  0  0  0
 24 21  1  0  0  0  0
 25 26  1  0  0  0  0
 26 23  2  0  0  0  0
 27 23  1  0  0  0  0
M  END
>  <MODEL>
4

>  <REMARK>
 VINA RESULT:      -7.5      1.898      3.931
  Name = 
  4 active torsions:
  status: ('A' for Active; 'I' for Inactive)
    1  A    between atoms: N_1  and  N_15
    2  A    between atoms: N_1  and  C_18
    3  A    between atoms: C_2  and  N_15
    4  A    between atoms: C_9  and  N_15
                            x       y       z     vdW  Elec       q    Type
                         _______ _______ _______ _____ _____    ______ ____

>  <TORSDO>
F 4

$$$$
=
 OpenBabel11052418273D

 27 30  0  0  1  0  0  0  0  0999 V2000
  189.7800  175.8080  143.1730 N   0  0  0  0  0  0  0  0  0  0  0  0
  188.6010  176.5260  143.6750 C   0  0  1  0  0  3  0  0  0  0  0  0
  184.9370  177.7070  145.4890 C   0  0  0  0  0  3  0  0  0  0  0  0
  183.7400  178.5600  147.3640 F   0  0  0  0  0  0  0  0  0  0  0  0
  187.3050  175.9640  143.1000 C   0  0  0  0  0  2  0  0  0  0  0  0
  187.2290  177.5060  147.0780 C   0  0  0  0  0  3  0  0  0  0  0  0
  186.0380  177.9870  147.6270 C   0  0  0  0  0  3  0  0  0  0  0  0
  187.2870  177.1310  145.7320 C   0  0  0  0  0  0  0  0  0  0  0  0
  184.8920  178.0890  146.8340 C   0  0  0  0  0  0  0  0  0  0  0  0
  186.1220  177.2130  144.9350 C   0  0  0  0  0  0  0  0  0  0  0  0
  188.5670  176.5530  145.2030 C   0  0  0  0  0  2  0  0  0  0  0  0
  186.1460  176.8860  143.4680 C   0  0  0  0  0  2  0  0  0  0  0  0
  189.8080  171.5770  142.6780 C   0  0  0  0  0  3  0  0  0  0  0  0
  189.7910  174.3700  143.0170 C   0  0  0  0  0  0  0  0  0  0  0  0
  189.7830  173.5110  144.1300 C   0  0  0  0  0  3  0  0  0  0  0  0
  189.7920  172.1240  143.9620 C   0  0  0  0  0  3  0  0  0  0  0  0
  189.8160  172.4160  141.5620 C   0  0  0  0  0  3  0  0  0  0  0  0
  189.8080  173.8040  141.7310 C   0  0  0  0  0  3  0  0  0  0  0  0
  190.9910  176.5060  142.9920 N   0  0  0  0  0  2  0  0  0  0  0  0
  192.7490  175.2330  145.8900 C   0  0  0  0  0  3  0  0  0  0  0  0
  194.9540  175.1740  144.7170 C   0  0  0  0  0  0  0  0  0  0  0  0
  196.2930  174.9600  145.0140 O   0  0  0  0  0  1  0  0  0  0  0  0
  192.2090  176.2550  143.7060 C   0  0  0  0  0  0  0  0  0  0  0  0
  193.9530  174.6980  145.6930 C   0  0  0  0  0  3  0  0  0  0  0  0
  194.6550  175.7300  143.5350 C   0  0  0  0  0  3  0  0  0  0  0  0
  193.3100  176.0140  142.9930 C   0  0  0  0  0  3  0  0  0  0  0  0
  192.2840  176.4630  145.1860 C   0  0  0  0  0  2  0  0  0  0  0  0
  2  1  1  1  0  0  0
  2 11  1  0  0  0  0
  3  9  1  0  0  0  0
  5 12  1  0  0  0  0
  5  2  1  0  0  0  0
  6  7  1  0  0  0  0
  8  6  2  0  0  0  0
  9  4  1  0  0  0  0
  9  7  2  0  0  0  0
 10  3  2  0  0  0  0
 10  8  1  0  0  0  0
 11  8  1  0  0  0  0
 12 10  1  0  0  0  0
 13 16  1  0  0  0  0
 14  1  1  0  0  0  0
 14 15  1  0  0  0  0
 16 15  2  0  0  0  0
 17 18  1  0  0  0  0
 17 13  2  0  0  0  0
 18 14  2  0  0  0  0
 19  1  1  0  0  0  0
 19 23  1  0  0  0  0
 21 22  1  0  0  0  0
 21 24  1  0  0  0  0
 23 27  1  0  0  0  0
 24 20  2  0  0  0  0
 25 21  2  0  0  0  0
 26 25  1  0  0  0  0
 26 23  2  0  0  0  0
 27 20  1  0  0  0  0
M  END
>  <MODEL>
5

>  <REMARK>
 VINA RESULT:      -7.4      1.279      1.785
  Name = 
  4 active torsions:
  status: ('A' for Active; 'I' for Inactive)
    1  A    between atoms: N_1  and  N_15
    2  A    between atoms: N_1  and  C_18
    3  A    between atoms: C_2  and  N_15
    4  A    between atoms: C_9  and  N_15
                            x       y       z     vdW  Elec       q    Type
                         _______ _______ _______ _____ _____    ______ ____

>  <TORSDO>
F 4

$$$$
=
 OpenBabel11052418273D

 27 30  0  0  1  0  0  0  0  0999 V2000
  190.6620  175.6110  144.0840 N   0  0  0  0  0  0  0  0  0  0  0  0
  189.3920  175.8110  144.7950 C   0  0  1  0  0  3  0  0  0  0  0  0
  186.2020  177.1620  147.2680 C   0  0  0  0  0  3  0  0  0  0  0  0
  184.2520  178.4930  147.5810 F   0  0  0  0  0  0  0  0  0  0  0  0
  189.5640  175.7030  146.3070 C   0  0  0  0  0  2  0  0  0  0  0  0
  186.6400  178.4280  144.8130 C   0  0  0  0  0  3  0  0  0  0  0  0
  185.5400  178.7850  145.5970 C   0  0  0  0  0  3  0  0  0  0  0  0
  187.5220  177.4320  145.2440 C   0  0  0  0  0  0  0  0  0  0  0  0
  185.3200  178.1520  146.8240 C   0  0  0  0  0  0  0  0  0  0  0  0
  187.3120  176.8070  146.4950 C   0  0  0  0  0  0  0  0  0  0  0  0
  188.7300  177.1310  144.4030 C   0  0  0  0  0  2  0  0  0  0  0  0
  188.1910  175.6860  146.9730 C   0  0  0  0  0  2  0  0  0  0  0  0
  194.4060  175.5730  146.1150 C   0  0  0  0  0  3  0  0  0  0  0  0
  191.9310  175.5860  144.7760 C   0  0  0  0  0  0  0  0  0  0  0  0
  192.5430  174.3740  145.1430 C   0  0  0  0  0  3  0  0  0  0  0  0
  193.7720  174.3680  145.8090 C   0  0  0  0  0  3  0  0  0  0  0  0
  193.8120  176.7850  145.7570 C   0  0  0  0  0  3  0  0  0  0  0  0
  192.5820  176.7900  145.0920 C   0  0  0  0  0  3  0  0  0  0  0  0
  190.6720  175.6080  142.6740 N   0  0  0  0  0  2  0  0  0  0  0  0
  188.4790  174.4120  140.0540 C   0  0  0  0  0  3  0  0  0  0  0  0
  189.7930  172.3180  139.6990 C   0  0  0  0  0  0  0  0  0  0  0  0
  189.6920  171.1240  138.9970 O   0  0  0  0  0  1  0  0  0  0  0  0
  190.1790  174.5500  141.8420 C   0  0  0  0  0  0  0  0  0  0  0  0
  188.9350  173.4390  139.2670 C   0  0  0  0  0  3  0  0  0  0  0  0
  190.7120  172.3970  140.6710 C   0  0  0  0  0  3  0  0  0  0  0  0
  191.0220  173.5690  141.5160 C   0  0  0  0  0  3  0  0  0  0  0  0
  188.7200  174.4440  141.5260 C   0  0  0  0  0  2  0  0  0  0  0  0
  1 14  1  0  0  0  0
  2  1  1  6  0  0  0
  2  5  1  0  0  0  0
  5 12  1  0  0  0  0
  6  8  2  0  0  0  0
  6  7  1  0  0  0  0
  7  9  2  0  0  0  0
  8 10  1  0  0  0  0
  9  3  1  0  0  0  0
  9  4  1  0  0  0  0
 10 12  1  0  0  0  0
 10  3  2  0  0  0  0
 11  2  1  0  0  0  0
 11  8  1  0  0  0  0
 14 18  2  0  0  0  0
 14 15  1  0  0  0  0
 15 16  2  0  0  0  0
 16 13  1  0  0  0  0
 17 13  2  0  0  0  0
 18 17  1  0  0  0  0
 19  1  1  0  0  0  0
 20 27  1  0  0  0  0
 21 25  2  0  0  0  0
 22 21  1  0  0  0  0
 23 19  1  0  0  0  0
 24 21  1  0  0  0  0
 24 20  2  0  0  0  0
 25 26  1  0  0  0  0
 26 23  2  0  0  0  0
 27 23  1  0  0  0  0
M  END
>  <MODEL>
6

>  <REMARK>
 VINA RESULT:      -7.4      2.614      4.836
  Name = 
  4 active torsions:
  status: ('A' for Active; 'I' for Inactive)
    1  A    between atoms: N_1  and  N_15
    2  A    between atoms: N_1  and  C_18
    3  A    between atoms: C_2  and  N_15
    4  A    between atoms: C_9  and  N_15
                            x       y       z     vdW  Elec       q    Type
                         _______ _______ _______ _____ _____    ______ ____

>  <TORSDO>
F 4

$$$$
=
 OpenBabel11052418273D

 27 30  0  0  1  0  0  0  0  0999 V2000
  190.2930  174.8310  145.0700 N   0  0  0  0  0  0  0  0  0  0  0  0
  189.0450  175.6040  145.1380 C   0  0  1  0  0  3  0  0  0  0  0  0
  186.0560  178.6250  145.3560 C   0  0  0  0  0  3  0  0  0  0  0  0
  184.5470  180.1210  144.2790 F   0  0  0  0  0  0  0  0  0  0  0  0
  188.9580  176.4320  146.4150 C   0  0  0  0  0  2  0  0  0  0  0  0
  187.1900  178.0220  142.8720 C   0  0  0  0  0  3  0  0  0  0  0  0
  186.1370  178.9380  142.9570 C   0  0  0  0  0  3  0  0  0  0  0  0
  187.6760  177.3960  144.0240 C   0  0  0  0  0  0  0  0  0  0  0  0
  185.5700  179.2380  144.1980 C   0  0  0  0  0  0  0  0  0  0  0  0
  187.1170  177.7170  145.2820 C   0  0  0  0  0  0  0  0  0  0  0  0
  188.8550  176.4740  143.8950 C   0  0  0  0  0  2  0  0  0  0  0  0
  187.5580  177.0240  146.5410 C   0  0  0  0  0  2  0  0  0  0  0  0
  194.0830  176.5840  145.9090 C   0  0  0  0  0  3  0  0  0  0  0  0
  191.5800  175.4300  145.3430 C   0  0  0  0  0  0  0  0  0  0  0  0
  192.2260  176.2450  144.3960 C   0  0  0  0  0  3  0  0  0  0  0  0
  193.4690  176.8180  144.6770 C   0  0  0  0  0  3  0  0  0  0  0  0
  193.4550  175.7780  146.8600 C   0  0  0  0  0  3  0  0  0  0  0  0
  192.2120  175.2040  146.5780 C   0  0  0  0  0  3  0  0  0  0  0  0
  190.2650  173.5140  144.5660 N   0  0  0  0  0  2  0  0  0  0  0  0
  187.9730  172.9840  141.8150 C   0  0  0  0  0  3  0  0  0  0  0  0
  189.7830  173.0420  140.0950 C   0  0  0  0  0  0  0  0  0  0  0  0
  189.9470  172.7980  138.7380 O   0  0  0  0  0  1  0  0  0  0  0  0
  190.0100  173.1520  143.2030 C   0  0  0  0  0  0  0  0  0  0  0  0
  188.4090  173.2650  140.5880 C   0  0  0  0  0  3  0  0  0  0  0  0
  190.8840  173.1320  140.8520 C   0  0  0  0  0  3  0  0  0  0  0  0
  190.9540  173.4210  142.3000 C   0  0  0  0  0  3  0  0  0  0  0  0
  188.8210  172.3170  142.8440 C   0  0  0  0  0  2  0  0  0  0  0  0
  1 14  1  0  0  0  0
  2  1  1  6  0  0  0
  2  5  1  0  0  0  0
  5 12  1  0  0  0  0
  6  7  2  0  0  0  0
  6  8  1  0  0  0  0
  7  9  1  0  0  0  0
  8 10  2  0  0  0  0
  9  4  1  0  0  0  0
  9  3  2  0  0  0  0
 10  3  1  0  0  0  0
 10 12  1  0  0  0  0
 11  8  1  0  0  0  0
 11  2  1  0  0  0  0
 13 17  1  0  0  0  0
 14 18  1  0  0  0  0
 15 16  1  0  0  0  0
 15 14  2  0  0  0  0
 16 13  2  0  0  0  0
 18 17  2  0  0  0  0
 19  1  1  0  0  0  0
 20 27  1  0  0  0  0
 21 24  1  0  0  0  0
 21 25  2  0  0  0  0
 22 21  1  0  0  0  0
 23 19  1  0  0  0  0
 24 20  2  0  0  0  0
 25 26  1  0  0  0  0
 26 23  2  0  0  0  0
 27 23  1  0  0  0  0
M  END
>  <MODEL>
7

>  <REMARK>
 VINA RESULT:      -7.3      2.361      4.655
  Name = 
  4 active torsions:
  status: ('A' for Active; 'I' for Inactive)
    1  A    between atoms: N_1  and  N_15
    2  A    between atoms: N_1  and  C_18
    3  A    between atoms: C_2  and  N_15
    4  A    between atoms: C_9  and  N_15
                            x       y       z     vdW  Elec       q    Type
                         _______ _______ _______ _____ _____    ______ ____

>  <TORSDO>
F 4

$$$$
=
 OpenBabel11052418273D

 27 30  0  0  1  0  0  0  0  0999 V2000
  190.4430  176.0300  144.4580 N   0  0  0  0  0  0  0  0  0  0  0  0
  189.2610  176.8920  144.5970 C   0  0  1  0  0  3  0  0  0  0  0  0
  185.3590  178.5900  144.6310 C   0  0  0  0  0  3  0  0  0  0  0  0
  183.3110  179.0410  145.7620 F   0  0  0  0  0  0  0  0  0  0  0  0
  188.5790  177.1420  143.2560 C   0  0  0  0  0  2  0  0  0  0  0  0
  186.1270  176.9250  146.7420 C   0  0  0  0  0  3  0  0  0  0  0  0
  184.8910  177.5750  146.7780 C   0  0  0  0  0  3  0  0  0  0  0  0
  186.9910  177.1090  145.6580 C   0  0  0  0  0  0  0  0  0  0  0  0
  184.5070  178.4070  145.7240 C   0  0  0  0  0  0  0  0  0  0  0  0
  186.5930  177.9350  144.5810 C   0  0  0  0  0  0  0  0  0  0  0  0
  188.2780  176.3360  145.6280 C   0  0  0  0  0  2  0  0  0  0  0  0
  187.5100  178.2180  143.4250 C   0  0  0  0  0  2  0  0  0  0  0  0
  194.0290  176.7650  146.6360 C   0  0  0  0  0  3  0  0  0  0  0  0
  191.6660  176.2830  145.1870 C   0  0  0  0  0  0  0  0  0  0  0  0
  192.7600  176.9270  144.5830 C   0  0  0  0  0  3  0  0  0  0  0  0
  193.9340  177.1660  145.3020 C   0  0  0  0  0  3  0  0  0  0  0  0
  192.9500  176.1250  147.2510 C   0  0  0  0  0  3  0  0  0  0  0  0
  191.7770  175.8860  146.5300 C   0  0  0  0  0  3  0  0  0  0  0  0
  190.4540  175.0270  143.4670 N   0  0  0  0  0  2  0  0  0  0  0  0
  193.7040  173.4320  143.5140 C   0  0  0  0  0  3  0  0  0  0  0  0
  192.7830  171.2320  144.2600 C   0  0  0  0  0  0  0  0  0  0  0  0
  193.2120  169.9240  144.4380 O   0  0  0  0  0  1  0  0  0  0  0  0
  191.2680  173.8470  143.4890 C   0  0  0  0  0  0  0  0  0  0  0  0
  193.8170  172.2850  144.1830 C   0  0  0  0  0  3  0  0  0  0  0  0
  191.4640  171.4630  144.2440 C   0  0  0  0  0  3  0  0  0  0  0  0
  190.7840  172.7680  144.1070 C   0  0  0  0  0  3  0  0  0  0  0  0
  192.5190  173.7660  142.6720 C   0  0  0  0  0  2  0  0  0  0  0  0
  1 14  1  0  0  0  0
  2  1  1  6  0  0  0
  2 11  1  0  0  0  0
  3  9  1  0  0  0  0
  5 12  1  0  0  0  0
  5  2  1  0  0  0  0
  6  7  1  0  0  0  0
  8  6  2  0  0  0  0
  9  4  1  0  0  0  0
  9  7  2  0  0  0  0
 10  3  2  0  0  0  0
 10  8  1  0  0  0  0
 11  8  1  0  0  0  0
 12 10  1  0  0  0  0
 13 17  1  0  0  0  0
 14 18  1  0  0  0  0
 15 14  2  0  0  0  0
 15 16  1  0  0  0  0
 16 13  2  0  0  0  0
 18 17  2  0  0  0  0
 19 23  1  0  0  0  0
 19  1  1  0  0  0  0
 20 24  2  0  0  0  0
 21 22  1  0  0  0  0
 23 26  2  0  0  0  0
 24 21  1  0  0  0  0
 25 21  2  0  0  0  0
 26 25  1  0  0  0  0
 27 23  1  0  0  0  0
 27 20  1  0  0  0  0
M  END
>  <MODEL>
8

>  <REMARK>
 VINA RESULT:      -7.3      1.697      3.357
  Name = 
  4 active torsions:
  status: ('A' for Active; 'I' for Inactive)
    1  A    between atoms: N_1  and  N_15
    2  A    between atoms: N_1  and  C_18
    3  A    between atoms: C_2  and  N_15
    4  A    between atoms: C_9  and  N_15
                            x       y       z     vdW  Elec       q    Type
                         _______ _______ _______ _____ _____    ______ ____

>  <TORSDO>
F 4

$$$$
=
 OpenBabel11052418273D

 27 30  0  0  1  0  0  0  0  0999 V2000
  188.0590  176.9330  145.1900 N   0  0  0  0  0  0  0  0  0  0  0  0
  189.4230  176.7080  145.6860 C   0  0  1  0  0  3  0  0  0  0  0  0
  193.3390  175.2620  146.5130 C   0  0  0  0  0  3  0  0  0  0  0  0
  195.6780  175.2510  146.0560 F   0  0  0  0  0  0  0  0  0  0  0  0
  189.5540  175.3670  146.4000 C   0  0  0  0  0  2  0  0  0  0  0  0
  192.9270  176.8140  144.2240 C   0  0  0  0  0  3  0  0  0  0  0  0
  194.2190  176.4120  144.5720 C   0  0  0  0  0  3  0  0  0  0  0  0
  191.8350  176.4530  145.0200 C   0  0  0  0  0  0  0  0  0  0  0  0
  194.4260  175.6370  145.7160 C   0  0  0  0  0  0  0  0  0  0  0  0
  192.0420  175.6500  146.1660 C   0  0  0  0  0  0  0  0  0  0  0  0
  190.4580  176.8480  144.5700 C   0  0  0  0  0  2  0  0  0  0  0  0
  190.9130  175.2910  147.0900 C   0  0  0  0  0  2  0  0  0  0  0  0
  185.0270  178.6520  147.6390 C   0  0  0  0  0  3  0  0  0  0  0  0
  187.0320  177.5270  146.0160 C   0  0  0  0  0  0  0  0  0  0  0  0
  186.5610  178.8310  145.7770 C   0  0  0  0  0  3  0  0  0  0  0  0
  185.5660  179.3900  146.5840 C   0  0  0  0  0  3  0  0  0  0  0  0
  185.4830  177.3560  147.8890 C   0  0  0  0  0  3  0  0  0  0  0  0
  186.4790  176.7980  147.0820 C   0  0  0  0  0  3  0  0  0  0  0  0
  187.6830  176.4090  143.9360 N   0  0  0  0  0  2  0  0  0  0  0  0
  187.2530  177.5050  140.5130 C   0  0  0  0  0  3  0  0  0  0  0  0
  184.8350  178.0480  140.8290 C   0  0  0  0  0  0  0  0  0  0  0  0
  183.8010  178.6650  140.1380 O   0  0  0  0  0  1  0  0  0  0  0  0
  186.9390  177.1110  142.9310 C   0  0  0  0  0  0  0  0  0  0  0  0
  186.0070  177.6010  140.0500 C   0  0  0  0  0  3  0  0  0  0  0  0
  184.6710  177.8340  142.1420 C   0  0  0  0  0  3  0  0  0  0  0  0
  185.6130  177.1670  143.0650 C   0  0  0  0  0  3  0  0  0  0  0  0
  187.6410  177.9240  141.8900 C   0  0  0  0  0  2  0  0  0  0  0  0
  1 14  1  0  0  0  0
  2  1  1  6  0  0  0
  2  5  1  0  0  0  0
  5 12  1  0  0  0  0
  6  7  2  0  0  0  0
  6  8  1  0  0  0  0
  7  9  1  0  0  0  0
  8 10  2  0  0  0  0
  9  4  1  0  0  0  0
  9  3  2  0  0  0  0
 10  3  1  0  0  0  0
 10 12  1  0  0  0  0
 11  8  1  0  0  0  0
 11  2  1  0  0  0  0
 13 17  1  0  0  0  0
 14 18  1  0  0  0  0
 15 14  2  0  0  0  0
 15 16  1  0  0  0  0
 16 13  2  0  0  0  0
 18 17  2  0  0  0  0
 19  1  1  0  0  0  0
 20 27  1  0  0  0  0
 21 25  2  0  0  0  0
 22 21  1  0  0  0  0
 23 26  2  0  0  0  0
 23 19  1  0  0  0  0
 24 20  2  0  0  0  0
 24 21  1  0  0  0  0
 25 26  1  0  0  0  0
 27 23  1  0  0  0  0
M  END
>  <MODEL>
9

>  <REMARK>
 VINA RESULT:      -7.3      4.230      8.150
  Name = 
  4 active torsions:
  status: ('A' for Active; 'I' for Inactive)
    1  A    between atoms: N_1  and  N_15
    2  A    between atoms: N_1  and  C_18
    3  A    between atoms: C_2  and  N_15
    4  A    between atoms: C_9  and  N_15
                            x       y       z     vdW  Elec       q    Type
                         _______ _______ _______ _____ _____    ______ ____

>  <TORSDO>
F 4

$$$$
