=
 OpenBabel11052417413D

 31 33  0  0  1  0  0  0  0  0999 V2000
  189.8060  172.0290  141.8440 N   0  0  0  0  0  0  0  0  0  0  0  0
  190.1790  175.2530  143.7690 C   0  0  2  0  0  3  0  0  0  0  0  0
  189.9580  174.3680  142.5510 C   0  0  0  0  0  0  0  0  0  0  0  0
  189.5220  172.4900  140.4900 C   0  0  0  0  0  2  0  0  0  0  0  0
  188.1580  176.4540  143.0710 N   0  0  0  0  0  0  0  0  0  0  0  0
  190.6040  170.8230  141.7180 C   0  0  0  0  0  1  0  0  0  0  0  0
  188.3030  176.0130  141.6820 C   0  0  0  0  0  2  0  0  0  0  0  0
  189.4890  176.6310  143.6740 C   0  0  2  0  0  3  0  0  0  0  0  0
  190.6600  173.0330  142.4720 C   0  0  0  0  0  2  0  0  0  0  0  0
  189.0310  174.6960  141.6150 C   0  0  0  0  0  0  0  0  0  0  0  0
  188.6150  173.7190  140.5410 C   0  0  0  0  0  2  0  0  0  0  0  0
  191.5900  175.2850  144.2980 C   0  0  0  0  0  0  0  0  0  0  0  0
  194.0000  175.3810  143.6990 N   0  0  0  0  0  0  0  0  0  0  0  0
  192.5990  175.3290  143.4220 C   0  0  0  0  0  3  0  0  0  0  0  0
  194.7160  175.4050  144.9340 C   0  0  0  0  0  3  0  0  0  0  0  0
  194.1890  175.3870  146.1510 C   0  0  0  0  0  3  0  0  0  0  0  0
  191.7020  175.2970  145.7620 C   0  0  0  0  0  2  0  0  0  0  0  0
  192.7800  175.3400  146.5370 C   0  0  0  0  0  3  0  0  0  0  0  0
  190.9780  178.6240  143.9320 C   0  0  0  0  0  1  0  0  0  0  0  0
  190.3400  177.6780  142.9340 C   0  0  0  0  0  2  0  0  0  0  0  0
  187.4380  177.7210  143.0800 C   0  0  0  0  0  2  0  0  0  0  0  0
  185.6920  176.1110  143.3700 O   0  0  0  0  0  1  0  0  0  0  0  0
  185.9470  177.4790  143.2460 C   0  0  1  0  0  3  0  0  0  0  0  0
  184.3490  178.8070  144.3360 O   0  0  0  0  0  0  0  0  0  0  0  0
  185.4300  178.2500  144.4330 C   0  0  0  0  0  0  0  0  0  0  0  0
  185.8300  179.5590  146.3970 O   0  0  0  0  0  1  0  0  0  0  0  0
  186.1910  178.3870  145.7290 C   0  0  1  0  0  3  0  0  0  0  0  0
  186.0810  177.1700  146.6570 C   0  0  0  0  0  0  0  0  0  0  0  0
  185.0000  176.3810  146.3080 F   0  0  0  0  0  0  0  0  0  0  0  0
  187.3490  176.3360  146.5980 C   0  0  0  0  0  1  0  0  0  0  0  0
  185.9100  177.6070  147.9570 F   0  0  0  0  0  0  0  0  0  0  0  0
  1  9  1  0  0  0  0
  2 12  1  6  0  0  0
  3  2  1  0  0  0  0
  4 11  1  0  0  0  0
  4  1  1  0  0  0  0
  5 21  1  0  0  0  0
  5  8  1  0  0  0  0
  6  1  1  0  0  0  0
  7  5  1  0  0  0  0
  8 20  1  6  0  0  0
  8  2  1  0  0  0  0
  9  3  1  0  0  0  0
 10  7  1  0  0  0  0
 10  3  2  0  0  0  0
 11 10  1  0  0  0  0
 12 17  1  0  0  0  0
 13 15  2  0  0  0  0
 14 13  1  0  0  0  0
 14 12  2  0  0  0  0
 15 16  1  0  0  0  0
 16 18  2  0  0  0  0
 17 18  1  0  0  0  0
 20 19  1  0  0  0  0
 21 23  1  0  0  0  0
 23 22  1  1  0  0  0
 23 25  1  0  0  0  0
 24 25  2  0  0  0  0
 25 27  1  0  0  0  0
 27 26  1  1  0  0  0
 27 28  1  0  0  0  0
 28 31  1  0  0  0  0
 29 28  1  0  0  0  0
 30 28  1  0  0  0  0
M  END
>  <MODEL>
1

>  <REMARK>
 VINA RESULT:      -7.0      0.000      0.000
  Name = 
  7 active torsions:
  status: ('A' for Active; 'I' for Inactive)
    1  A    between atoms: C_1  and  C_19
    2  A    between atoms: C_4  and  C_5
    3  A    between atoms: C_9  and  C_22
    4  A    between atoms: C_9  and  C_23
    5  A    between atoms: N_15  and  C_23
    6  A    between atoms: C_19  and  C_22
    7  A    between atoms: C_21  and  C_29
                            x       y       z     vdW  Elec       q    Type
                         _______ _______ _______ _____ _____    ______ ____

>  <TORSDO>
F 7

$$$$
=
 OpenBabel11052417413D

 31 33  0  0  1  0  0  0  0  0999 V2000
  190.8850  176.2520  146.6850 N   0  0  0  0  0  0  0  0  0  0  0  0
  187.9690  176.1340  144.2930 C   0  0  2  0  0  3  0  0  0  0  0  0
  189.3950  176.4070  144.7480 C   0  0  0  0  0  0  0  0  0  0  0  0
  191.9700  176.7530  145.8490 C   0  0  0  0  0  2  0  0  0  0  0  0
  188.9660  174.9450  142.3940 N   0  0  0  0  0  0  0  0  0  0  0  0
  191.0890  176.8040  148.0120 C   0  0  0  0  0  1  0  0  0  0  0  0
  190.2240  175.6860  142.5140 C   0  0  0  0  0  2  0  0  0  0  0  0
  187.8430  175.8120  142.7890 C   0  0  2  0  0  3  0  0  0  0  0  0
  189.6450  176.8320  146.1760 C   0  0  0  0  0  2  0  0  0  0  0  0
  190.4470  176.1310  143.9350 C   0  0  0  0  0  0  0  0  0  0  0  0
  191.8670  176.1510  144.4490 C   0  0  0  0  0  2  0  0  0  0  0  0
  186.9270  177.0820  144.8280 C   0  0  0  0  0  0  0  0  0  0  0  0
  186.0430  179.4040  144.7610 N   0  0  0  0  0  0  0  0  0  0  0  0
  186.9380  178.3500  144.4020 C   0  0  0  0  0  3  0  0  0  0  0  0
  184.9170  179.4260  145.6360 C   0  0  0  0  0  3  0  0  0  0  0  0
  184.4400  178.4040  146.3350 C   0  0  0  0  0  3  0  0  0  0  0  0
  185.9640  176.4820  145.7610 C   0  0  0  0  0  2  0  0  0  0  0  0
  184.9290  177.0270  146.3900 C   0  0  0  0  0  3  0  0  0  0  0  0
  186.3830  177.1060  141.2230 C   0  0  0  0  0  1  0  0  0  0  0  0
  187.7330  177.0730  141.9130 C   0  0  0  0  0  2  0  0  0  0  0  0
  188.8060  174.5290  141.0060 C   0  0  0  0  0  2  0  0  0  0  0  0
  188.0400  172.6900  139.6800 O   0  0  0  0  0  1  0  0  0  0  0  0
  188.5600  173.0300  140.9310 C   0  0  1  0  0  3  0  0  0  0  0  0
  190.7830  172.4370  140.4720 O   0  0  0  0  0  0  0  0  0  0  0  0
  189.8350  172.2850  141.2250 C   0  0  0  0  0  0  0  0  0  0  0  0
  190.5320  170.1200  141.9750 O   0  0  0  0  0  1  0  0  0  0  0  0
  189.9940  171.3400  142.3910 C   0  0  1  0  0  3  0  0  0  0  0  0
  190.7910  171.9190  143.5680 C   0  0  0  0  0  0  0  0  0  0  0  0
  191.5930  172.9650  143.1510 F   0  0  0  0  0  0  0  0  0  0  0  0
  189.8550  172.4070  144.6590 C   0  0  0  0  0  1  0  0  0  0  0  0
  191.5960  170.9270  144.0990 F   0  0  0  0  0  0  0  0  0  0  0  0
  1  6  1  0  0  0  0
  2  3  1  0  0  0  0
  2 12  1  6  0  0  0
  3  9  1  0  0  0  0
  4  1  1  0  0  0  0
  5  7  1  0  0  0  0
  5  8  1  0  0  0  0
  7 10  1  0  0  0  0
  8 20  1  6  0  0  0
  8  2  1  0  0  0  0
  9  1  1  0  0  0  0
 10 11  1  0  0  0  0
 10  3  2  0  0  0  0
 11  4  1  0  0  0  0
 12 17  1  0  0  0  0
 13 15  2  0  0  0  0
 14 13  1  0  0  0  0
 14 12  2  0  0  0  0
 15 16  1  0  0  0  0
 16 18  2  0  0  0  0
 17 18  1  0  0  0  0
 19 20  1  0  0  0  0
 21  5  1  0  0  0  0
 23 22  1  6  0  0  0
 23 21  1  0  0  0  0
 23 25  1  0  0  0  0
 24 25  2  0  0  0  0
 25 27  1  0  0  0  0
 27 26  1  6  0  0  0
 27 28  1  0  0  0  0
 28 31  1  0  0  0  0
 28 30  1  0  0  0  0
 29 28  1  0  0  0  0
M  END
>  <MODEL>
2

>  <REMARK>
 VINA RESULT:      -7.0      3.739      6.864
  Name = 
  7 active torsions:
  status: ('A' for Active; 'I' for Inactive)
    1  A    between atoms: C_1  and  C_19
    2  A    between atoms: C_4  and  C_5
    3  A    between atoms: C_9  and  C_22
    4  A    between atoms: C_9  and  C_23
    5  A    between atoms: N_15  and  C_23
    6  A    between atoms: C_19  and  C_22
    7  A    between atoms: C_21  and  C_29
                            x       y       z     vdW  Elec       q    Type
                         _______ _______ _______ _____ _____    ______ ____

>  <TORSDO>
F 7

$$$$
=
 OpenBabel11052417413D

 31 33  0  0  1  0  0  0  0  0999 V2000
  189.0020  173.4490  142.3870 N   0  0  0  0  0  0  0  0  0  0  0  0
  189.5970  176.4010  144.6620 C   0  0  2  0  0  3  0  0  0  0  0  0
  189.5780  174.9380  144.2430 C   0  0  0  0  0  0  0  0  0  0  0  0
  189.4830  172.3250  143.1820 C   0  0  0  0  0  2  0  0  0  0  0  0
  191.9280  176.0230  145.3220 N   0  0  0  0  0  0  0  0  0  0  0  0
  187.8640  172.9670  141.6250 C   0  0  0  0  0  1  0  0  0  0  0  0
  191.7140  174.5810  145.4720 C   0  0  0  0  0  2  0  0  0  0  0  0
  190.6980  176.7450  145.6870 C   0  0  2  0  0  3  0  0  0  0  0  0
  188.4870  174.4480  143.3200 C   0  0  0  0  0  2  0  0  0  0  0  0
  190.6050  174.1110  144.5690 C   0  0  0  0  0  0  0  0  0  0  0  0
  190.7340  172.7360  143.9570 C   0  0  0  0  0  2  0  0  0  0  0  0
  188.2490  177.0090  144.9500 C   0  0  0  0  0  0  0  0  0  0  0  0
  186.5730  178.7030  144.2430 N   0  0  0  0  0  0  0  0  0  0  0  0
  187.8140  177.9990  144.1630 C   0  0  0  0  0  3  0  0  0  0  0  0
  185.4700  178.5680  145.1380 C   0  0  0  0  0  3  0  0  0  0  0  0
  185.3670  177.7040  146.1390 C   0  0  0  0  0  3  0  0  0  0  0  0
  187.5260  176.4070  146.0780 C   0  0  0  0  0  2  0  0  0  0  0  0
  186.3280  176.6920  146.5760 C   0  0  0  0  0  3  0  0  0  0  0  0
  190.3190  177.7690  147.9370 C   0  0  0  0  0  1  0  0  0  0  0  0
  190.2660  176.4800  147.1410 C   0  0  0  0  0  2  0  0  0  0  0  0
  193.0170  176.4220  146.2050 C   0  0  0  0  0  2  0  0  0  0  0  0
  194.8710  177.9350  146.1650 O   0  0  0  0  0  1  0  0  0  0  0  0
  194.1630  177.0070  145.3970 C   0  0  1  0  0  3  0  0  0  0  0  0
  195.6400  175.2120  145.7180 O   0  0  0  0  0  0  0  0  0  0  0  0
  195.0570  175.9020  144.8980 C   0  0  0  0  0  0  0  0  0  0  0  0
  194.1580  175.9450  142.6790 O   0  0  0  0  0  1  0  0  0  0  0  0
  195.2880  175.6190  143.4330 C   0  0  1  0  0  3  0  0  0  0  0  0
  196.5450  176.2800  142.8530 C   0  0  0  0  0  0  0  0  0  0  0  0
  197.6060  175.3940  142.8420 F   0  0  0  0  0  0  0  0  0  0  0  0
  196.2870  176.7710  141.4390 C   0  0  0  0  0  1  0  0  0  0  0  0
  196.8830  177.3700  143.6350 F   0  0  0  0  0  0  0  0  0  0  0  0
  1  4  1  0  0  0  0
  1  9  1  0  0  0  0
  2 12  1  1  0  0  0
  2  8  1  0  0  0  0
  3 10  2  0  0  0  0
  3  2  1  0  0  0  0
  4 11  1  0  0  0  0
  5  7  1  0  0  0  0
  5  8  1  0  0  0  0
  5 21  1  0  0  0  0
  6  1  1  0  0  0  0
  8 20  1  1  0  0  0
  9  3  1  0  0  0  0
 10  7  1  0  0  0  0
 11 10  1  0  0  0  0
 12 17  1  0  0  0  0
 13 15  2  0  0  0  0
 14 13  1  0  0  0  0
 14 12  2  0  0  0  0
 15 16  1  0  0  0  0
 16 18  2  0  0  0  0
 17 18  1  0  0  0  0
 20 19  1  0  0  0  0
 23 22  1  1  0  0  0
 23 21  1  0  0  0  0
 25 23  1  0  0  0  0
 25 24  2  0  0  0  0
 27 26  1  6  0  0  0
 27 25  1  0  0  0  0
 28 27  1  0  0  0  0
 28 31  1  0  0  0  0
 29 28  1  0  0  0  0
 30 28  1  0  0  0  0
M  END
>  <MODEL>
3

>  <REMARK>
 VINA RESULT:      -6.7      4.624      7.387
  Name = 
  7 active torsions:
  status: ('A' for Active; 'I' for Inactive)
    1  A    between atoms: C_1  and  C_19
    2  A    between atoms: C_4  and  C_5
    3  A    between atoms: C_9  and  C_22
    4  A    between atoms: C_9  and  C_23
    5  A    between atoms: N_15  and  C_23
    6  A    between atoms: C_19  and  C_22
    7  A    between atoms: C_21  and  C_29
                            x       y       z     vdW  Elec       q    Type
                         _______ _______ _______ _____ _____    ______ ____

>  <TORSDO>
F 7

$$$$
=
 OpenBabel11052417413D

 31 33  0  0  1  0  0  0  0  0999 V2000
  190.7710  171.7050  142.8730 N   0  0  0  0  0  0  0  0  0  0  0  0
  191.3760  175.2120  144.1280 C   0  0  2  0  0  3  0  0  0  0  0  0
  190.7470  174.1200  143.2750 C   0  0  0  0  0  0  0  0  0  0  0  0
  189.7170  171.8920  141.8830 C   0  0  0  0  0  2  0  0  0  0  0  0
  189.0850  175.9390  144.6130 N   0  0  0  0  0  0  0  0  0  0  0  0
  191.6260  170.6410  142.3780 C   0  0  0  0  0  1  0  0  0  0  0  0
  188.5640  175.3120  143.3960 C   0  0  0  0  0  2  0  0  0  0  0  0
  190.4530  176.4250  144.3720 C   0  0  2  0  0  3  0  0  0  0  0  0
  191.5780  172.9220  142.8790 C   0  0  0  0  0  2  0  0  0  0  0  0
  189.4190  174.1390  142.9940 C   0  0  0  0  0  0  0  0  0  0  0  0
  188.7270  172.9480  142.3730 C   0  0  0  0  0  2  0  0  0  0  0  0
  192.8030  175.5580  143.7880 C   0  0  0  0  0  0  0  0  0  0  0  0
  195.0840  175.9560  144.6900 N   0  0  0  0  0  0  0  0  0  0  0  0
  193.6890  175.6570  144.7840 C   0  0  0  0  0  2  0  0  0  0  0  0
  195.9170  176.2210  143.5620 C   0  0  0  0  0  3  0  0  0  0  0  0
  195.5400  176.2410  142.2900 C   0  0  0  0  0  3  0  0  0  0  0  0
  193.0760  175.7190  142.3540 C   0  0  0  0  0  3  0  0  0  0  0  0
  194.2120  176.0040  141.7270 C   0  0  0  0  0  3  0  0  0  0  0  0
  191.2230  178.7160  143.7290 C   0  0  0  0  0  1  0  0  0  0  0  0
  190.5210  177.4660  143.2400 C   0  0  0  0  0  2  0  0  0  0  0  0
  188.2180  177.0570  144.9640 C   0  0  0  0  0  2  0  0  0  0  0  0
  187.6380  176.0480  147.0550 O   0  0  0  0  0  1  0  0  0  0  0  0
  187.1020  176.5890  145.8850 C   0  0  1  0  0  3  0  0  0  0  0  0
  186.5010  178.5570  147.0120 O   0  0  0  0  0  0  0  0  0  0  0  0
  186.1650  177.7320  146.1790 C   0  0  0  0  0  0  0  0  0  0  0  0
  183.9090  178.5070  146.3750 O   0  0  0  0  0  1  0  0  0  0  0  0
  184.8210  177.8960  145.5120 C   0  0  1  0  0  3  0  0  0  0  0  0
  184.8720  178.6220  144.1620 C   0  0  0  0  0  0  0  0  0  0  0  0
  185.9130  179.5310  144.1310 F   0  0  0  0  0  0  0  0  0  0  0  0
  185.0390  177.6280  143.0260 C   0  0  0  0  0  1  0  0  0  0  0  0
  183.6830  179.3030  143.9710 F   0  0  0  0  0  0  0  0  0  0  0  0
  1  9  1  0  0  0  0
  2 12  1  6  0  0  0
  2  8  1  0  0  0  0
  3  2  1  0  0  0  0
  4 11  1  0  0  0  0
  4  1  1  0  0  0  0
  5 21  1  0  0  0  0
  6  1  1  0  0  0  0
  7  5  1  0  0  0  0
  8 20  1  6  0  0  0
  8  5  1  0  0  0  0
  9  3  1  0  0  0  0
 10  3  2  0  0  0  0
 10  7  1  0  0  0  0
 11 10  1  0  0  0  0
 12 14  1  0  0  0  0
 13 14  1  0  0  0  0
 15 13  2  0  0  0  0
 16 15  1  0  0  0  0
 17 12  2  0  0  0  0
 18 16  2  0  0  0  0
 18 17  1  0  0  0  0
 20 19  1  0  0  0  0
 21 23  1  0  0  0  0
 23 25  1  0  0  0  0
 23 22  1  1  0  0  0
 25 24  2  0  0  0  0
 27 25  1  0  0  0  0
 27 26  1  1  0  0  0
 28 27  1  0  0  0  0
 29 28  1  0  0  0  0
 30 28  1  0  0  0  0
 31 28  1  0  0  0  0
M  END
>  <MODEL>
4

>  <REMARK>
 VINA RESULT:      -6.7      1.839      2.637
  Name = 
  7 active torsions:
  status: ('A' for Active; 'I' for Inactive)
    1  A    between atoms: C_1  and  C_19
    2  A    between atoms: C_4  and  C_5
    3  A    between atoms: C_9  and  C_22
    4  A    between atoms: C_9  and  C_23
    5  A    between atoms: N_15  and  C_23
    6  A    between atoms: C_19  and  C_22
    7  A    between atoms: C_21  and  C_29
                            x       y       z     vdW  Elec       q    Type
                         _______ _______ _______ _____ _____    ______ ____

>  <TORSDO>
F 7

$$$$
=
 OpenBabel11052417413D

 31 33  0  0  1  0  0  0  0  0999 V2000
  187.6160  177.0460  141.0920 N   0  0  0  0  0  0  0  0  0  0  0  0
  188.8180  176.8360  144.6630 C   0  0  2  0  0  3  0  0  0  0  0  0
  188.4650  176.3270  143.2730 C   0  0  0  0  0  0  0  0  0  0  0  0
  187.7860  175.6800  140.6110 C   0  0  0  0  0  2  0  0  0  0  0  0
  190.9670  175.6900  144.3680 N   0  0  0  0  0  0  0  0  0  0  0  0
  186.4240  177.5700  140.4510 C   0  0  0  0  0  1  0  0  0  0  0  0
  190.4090  174.7740  143.3700 C   0  0  0  0  0  2  0  0  0  0  0  0
  189.9320  176.0270  145.3610 C   0  0  2  0  0  3  0  0  0  0  0  0
  187.3220  176.9670  142.5200 C   0  0  0  0  0  2  0  0  0  0  0  0
  189.2520  175.4130  142.6490 C   0  0  0  0  0  0  0  0  0  0  0  0
  189.0710  175.0840  141.1860 C   0  0  0  0  0  2  0  0  0  0  0  0
  187.6450  177.1880  145.5400 C   0  0  0  0  0  0  0  0  0  0  0  0
  186.9040  178.4070  147.5760 N   0  0  0  0  0  0  0  0  0  0  0  0
  187.8620  177.9430  146.6220 C   0  0  0  0  0  2  0  0  0  0  0  0
  185.4910  178.2190  147.6590 C   0  0  0  0  0  3  0  0  0  0  0  0
  184.7350  177.5360  146.8100 C   0  0  0  0  0  3  0  0  0  0  0  0
  186.3490  176.6750  145.0780 C   0  0  0  0  0  3  0  0  0  0  0  0
  185.1370  176.8170  145.6020 C   0  0  0  0  0  3  0  0  0  0  0  0
  189.5930  174.9590  147.5970 C   0  0  0  0  0  1  0  0  0  0  0  0
  189.3990  174.7890  146.1030 C   0  0  0  0  0  2  0  0  0  0  0  0
  192.0870  175.0300  145.0270 C   0  0  0  0  0  2  0  0  0  0  0  0
  192.9890  175.4460  147.2040 O   0  0  0  0  0  1  0  0  0  0  0  0
  192.8130  176.0080  145.9370 C   0  0  1  0  0  3  0  0  0  0  0  0
  194.5840  177.5060  145.5840 O   0  0  0  0  0  0  0  0  0  0  0  0
  194.1280  176.4060  145.3190 C   0  0  0  0  0  0  0  0  0  0  0  0
  195.5270  176.2830  143.3790 O   0  0  0  0  0  1  0  0  0  0  0  0
  194.9000  175.5220  144.3690 C   0  0  1  0  0  3  0  0  0  0  0  0
  195.8990  174.5810  145.0540 C   0  0  0  0  0  0  0  0  0  0  0  0
  195.8910  174.7680  146.4240 F   0  0  0  0  0  0  0  0  0  0  0  0
  195.5680  173.1310  144.7440 C   0  0  0  0  0  1  0  0  0  0  0  0
  197.1700  174.8470  144.5780 F   0  0  0  0  0  0  0  0  0  0  0  0
  1  9  1  0  0  0  0
  2  8  1  0  0  0  0
  2 12  1  1  0  0  0
  3  2  1  0  0  0  0
  4  1  1  0  0  0  0
  4 11  1  0  0  0  0
  5 21  1  0  0  0  0
  5  8  1  0  0  0  0
  6  1  1  0  0  0  0
  7  5  1  0  0  0  0
  8 20  1  6  0  0  0
  9  3  1  0  0  0  0
 10  3  2  0  0  0  0
 10  7  1  0  0  0  0
 11 10  1  0  0  0  0
 12 14  1  0  0  0  0
 13 15  2  0  0  0  0
 14 13  1  0  0  0  0
 16 15  1  0  0  0  0
 17 12  2  0  0  0  0
 17 18  1  0  0  0  0
 18 16  2  0  0  0  0
 20 19  1  0  0  0  0
 21 23  1  0  0  0  0
 23 22  1  1  0  0  0
 25 24  2  0  0  0  0
 25 23  1  0  0  0  0
 27 26  1  6  0  0  0
 27 28  1  0  0  0  0
 27 25  1  0  0  0  0
 28 29  1  0  0  0  0
 30 28  1  0  0  0  0
 31 28  1  0  0  0  0
M  END
>  <MODEL>
5

>  <REMARK>
 VINA RESULT:      -6.7      4.399      7.279
  Name = 
  7 active torsions:
  status: ('A' for Active; 'I' for Inactive)
    1  A    between atoms: C_1  and  C_19
    2  A    between atoms: C_4  and  C_5
    3  A    between atoms: C_9  and  C_22
    4  A    between atoms: C_9  and  C_23
    5  A    between atoms: N_15  and  C_23
    6  A    between atoms: C_19  and  C_22
    7  A    between atoms: C_21  and  C_29
                            x       y       z     vdW  Elec       q    Type
                         _______ _______ _______ _____ _____    ______ ____

>  <TORSDO>
F 7

$$$$
=
 OpenBabel11052417413D

 31 33  0  0  1  0  0  0  0  0999 V2000
  190.7730  171.6700  142.8700 N   0  0  0  0  0  0  0  0  0  0  0  0
  191.3850  175.1500  144.1960 C   0  0  2  0  0  3  0  0  0  0  0  0
  190.7480  174.0760  143.3270 C   0  0  0  0  0  0  0  0  0  0  0  0
  189.7060  171.8770  141.8980 C   0  0  0  0  0  2  0  0  0  0  0  0
  189.0980  175.8610  144.7250 N   0  0  0  0  0  0  0  0  0  0  0  0
  191.6240  170.6200  142.3420 C   0  0  0  0  0  1  0  0  0  0  0  0
  188.5640  175.2600  143.5000 C   0  0  0  0  0  2  0  0  0  0  0  0
  190.4630  176.3550  144.4780 C   0  0  2  0  0  3  0  0  0  0  0  0
  191.5770  172.8890  142.8940 C   0  0  0  0  0  2  0  0  0  0  0  0
  189.4160  174.0980  143.0620 C   0  0  0  0  0  0  0  0  0  0  0  0
  188.7200  172.9200  142.4230 C   0  0  0  0  0  2  0  0  0  0  0  0
  192.8070  175.5070  143.8470 C   0  0  0  0  0  0  0  0  0  0  0  0
  194.3910  176.0410  142.0070 N   0  0  0  0  0  0  0  0  0  0  0  0
  193.1210  175.6860  142.5590 C   0  0  0  0  0  3  0  0  0  0  0  0
  195.6480  176.3040  142.6290 C   0  0  0  0  0  3  0  0  0  0  0  0
  195.9060  176.2750  143.9300 C   0  0  0  0  0  3  0  0  0  0  0  0
  193.7090  175.6550  144.9960 C   0  0  0  0  0  2  0  0  0  0  0  0
  194.9980  175.9740  145.0360 C   0  0  0  0  0  3  0  0  0  0  0  0
  191.1910  178.6740  143.8880 C   0  0  0  0  0  1  0  0  0  0  0  0
  190.5150  177.4210  143.3680 C   0  0  0  0  0  2  0  0  0  0  0  0
  188.2330  176.9690  145.1100 C   0  0  0  0  0  2  0  0  0  0  0  0
  187.8190  175.9600  147.2400 O   0  0  0  0  0  1  0  0  0  0  0  0
  187.1920  176.4990  146.1150 C   0  0  1  0  0  3  0  0  0  0  0  0
  186.6500  178.4300  147.3330 O   0  0  0  0  0  0  0  0  0  0  0  0
  186.2800  177.6410  146.4800 C   0  0  0  0  0  0  0  0  0  0  0  0
  184.0140  178.3480  146.7990 O   0  0  0  0  0  1  0  0  0  0  0  0
  184.9180  177.8450  145.8600 C   0  0  1  0  0  3  0  0  0  0  0  0
  184.9260  178.7050  144.5900 C   0  0  0  0  0  0  0  0  0  0  0  0
  185.9410  179.6430  144.6370 F   0  0  0  0  0  0  0  0  0  0  0  0
  185.1030  177.8360  143.3570 C   0  0  0  0  0  1  0  0  0  0  0  0
  183.7160  179.3660  144.4850 F   0  0  0  0  0  0  0  0  0  0  0  0
  1  9  1  0  0  0  0
  2 12  1  6  0  0  0
  2  8  1  0  0  0  0
  3  2  1  0  0  0  0
  4 11  1  0  0  0  0
  4  1  1  0  0  0  0
  5 21  1  0  0  0  0
  6  1  1  0  0  0  0
  7  5  1  0  0  0  0
  8 20  1  6  0  0  0
  8  5  1  0  0  0  0
  9  3  1  0  0  0  0
 10  3  2  0  0  0  0
 10  7  1  0  0  0  0
 11 10  1  0  0  0  0
 12 17  1  0  0  0  0
 13 14  1  0  0  0  0
 13 15  2  0  0  0  0
 14 12  2  0  0  0  0
 15 16  1  0  0  0  0
 16 18  2  0  0  0  0
 17 18  1  0  0  0  0
 20 19  1  0  0  0  0
 21 23  1  0  0  0  0
 23 25  1  0  0  0  0
 23 22  1  1  0  0  0
 25 24  2  0  0  0  0
 27 25  1  0  0  0  0
 27 26  1  1  0  0  0
 28 29  1  0  0  0  0
 28 27  1  0  0  0  0
 30 28  1  0  0  0  0
 31 28  1  0  0  0  0
M  END
>  <MODEL>
6

>  <REMARK>
 VINA RESULT:      -6.6      1.831      2.431
  Name = 
  7 active torsions:
  status: ('A' for Active; 'I' for Inactive)
    1  A    between atoms: C_1  and  C_19
    2  A    between atoms: C_4  and  C_5
    3  A    between atoms: C_9  and  C_22
    4  A    between atoms: C_9  and  C_23
    5  A    between atoms: N_15  and  C_23
    6  A    between atoms: C_19  and  C_22
    7  A    between atoms: C_21  and  C_29
                            x       y       z     vdW  Elec       q    Type
                         _______ _______ _______ _____ _____    ______ ____

>  <TORSDO>
F 7

$$$$
=
 OpenBabel11052417413D

 31 33  0  0  1  0  0  0  0  0999 V2000
  189.4120  173.5930  141.0120 N   0  0  0  0  0  0  0  0  0  0  0  0
  189.5190  176.3780  143.5560 C   0  0  2  0  0  3  0  0  0  0  0  0
  189.5380  174.9430  143.0500 C   0  0  0  0  0  0  0  0  0  0  0  0
  189.5980  172.4000  141.8290 C   0  0  0  0  0  2  0  0  0  0  0  0
  191.5580  175.8070  144.7920 N   0  0  0  0  0  0  0  0  0  0  0  0
  188.5020  173.2290  139.9410 C   0  0  0  0  0  1  0  0  0  0  0  0
  191.2360  174.3780  144.7820 C   0  0  0  0  0  2  0  0  0  0  0  0
  190.3150  176.5920  144.8610 C   0  0  2  0  0  3  0  0  0  0  0  0
  188.7160  174.5760  141.8370 C   0  0  0  0  0  2  0  0  0  0  0  0
  190.3910  174.0310  143.5840 C   0  0  0  0  0  0  0  0  0  0  0  0
  190.6100  172.6840  142.9380 C   0  0  0  0  0  2  0  0  0  0  0  0
  188.1770  177.0620  143.5110 C   0  0  0  0  0  0  0  0  0  0  0  0
  186.8210  178.8410  142.4270 N   0  0  0  0  0  0  0  0  0  0  0  0
  188.0030  178.0690  142.6480 C   0  0  0  0  0  3  0  0  0  0  0  0
  185.5270  178.7750  143.0260 C   0  0  0  0  0  3  0  0  0  0  0  0
  185.1350  177.9250  143.9660 C   0  0  0  0  0  3  0  0  0  0  0  0
  187.1680  176.5090  144.4240 C   0  0  0  0  0  2  0  0  0  0  0  0
  185.9030  176.8640  144.6170 C   0  0  0  0  0  3  0  0  0  0  0  0
  189.4140  177.5180  147.0020 C   0  0  0  0  0  1  0  0  0  0  0  0
  189.4890  176.2860  146.1230 C   0  0  0  0  0  2  0  0  0  0  0  0
  192.3840  176.0850  145.9610 C   0  0  0  0  0  2  0  0  0  0  0  0
  194.3640  177.2290  146.6650 O   0  0  0  0  0  1  0  0  0  0  0  0
  193.6790  176.7610  145.5410 C   0  0  1  0  0  3  0  0  0  0  0  0
  194.8090  174.7280  145.2310 O   0  0  0  0  0  0  0  0  0  0  0  0
  194.5210  175.8050  144.7360 C   0  0  0  0  0  0  0  0  0  0  0  0
  196.2490  175.4560  143.1170 O   0  0  0  0  0  1  0  0  0  0  0  0
  195.0440  176.1210  143.3560 C   0  0  1  0  0  3  0  0  0  0  0  0
  194.0400  175.8610  142.2260 C   0  0  0  0  0  0  0  0  0  0  0  0
  192.9950  176.7660  142.2790 F   0  0  0  0  0  0  0  0  0  0  0  0
  194.7210  175.9600  140.8720 C   0  0  0  0  0  1  0  0  0  0  0  0
  193.5280  174.5840  142.3610 F   0  0  0  0  0  0  0  0  0  0  0  0
  1  4  1  0  0  0  0
  1  9  1  0  0  0  0
  2 12  1  1  0  0  0
  2  8  1  0  0  0  0
  3  2  1  0  0  0  0
  3 10  2  0  0  0  0
  4 11  1  0  0  0  0
  5  8  1  0  0  0  0
  5 21  1  0  0  0  0
  6  1  1  0  0  0  0
  7  5  1  0  0  0  0
  8 20  1  1  0  0  0
  9  3  1  0  0  0  0
 10  7  1  0  0  0  0
 11 10  1  0  0  0  0
 12 17  1  0  0  0  0
 13 14  1  0  0  0  0
 13 15  2  0  0  0  0
 14 12  2  0  0  0  0
 15 16  1  0  0  0  0
 16 18  2  0  0  0  0
 17 18  1  0  0  0  0
 20 19  1  0  0  0  0
 23 21  1  0  0  0  0
 23 22  1  1  0  0  0
 25 24  2  0  0  0  0
 25 23  1  0  0  0  0
 27 26  1  6  0  0  0
 27 25  1  0  0  0  0
 28 29  1  0  0  0  0
 28 31  1  0  0  0  0
 28 27  1  0  0  0  0
 30 28  1  0  0  0  0
M  END
>  <MODEL>
7

>  <REMARK>
 VINA RESULT:      -6.5      4.095      6.881
  Name = 
  7 active torsions:
  status: ('A' for Active; 'I' for Inactive)
    1  A    between atoms: C_1  and  C_19
    2  A    between atoms: C_4  and  C_5
    3  A    between atoms: C_9  and  C_22
    4  A    between atoms: C_9  and  C_23
    5  A    between atoms: N_15  and  C_23
    6  A    between atoms: C_19  and  C_22
    7  A    between atoms: C_21  and  C_29
                            x       y       z     vdW  Elec       q    Type
                         _______ _______ _______ _____ _____    ______ ____

>  <TORSDO>
F 7

$$$$
=
 OpenBabel11052417413D

 31 33  0  0  1  0  0  0  0  0999 V2000
  192.7550  176.6530  145.9230 N   0  0  0  0  0  0  0  0  0  0  0  0
  191.0000  175.2410  142.8950 C   0  0  2  0  0  3  0  0  0  0  0  0
  191.1960  175.5900  144.3630 C   0  0  0  0  0  0  0  0  0  0  0  0
  191.7990  176.4080  146.9950 C   0  0  0  0  0  2  0  0  0  0  0  0
  188.7940  176.2930  143.0970 N   0  0  0  0  0  0  0  0  0  0  0  0
  194.0790  176.4910  146.4970 C   0  0  0  0  0  1  0  0  0  0  0  0
  188.7630  176.0850  144.5470 C   0  0  0  0  0  2  0  0  0  0  0  0
  189.5220  175.1840  142.4560 C   0  0  2  0  0  3  0  0  0  0  0  0
  192.5900  175.5810  144.9450 C   0  0  0  0  0  2  0  0  0  0  0  0
  190.1590  176.0480  145.1100 C   0  0  0  0  0  0  0  0  0  0  0  0
  190.3760  176.6370  146.4840 C   0  0  0  0  0  2  0  0  0  0  0  0
  191.8590  174.1160  142.3770 C   0  0  0  0  0  0  0  0  0  0  0  0
  193.4190  173.3900  140.5830 N   0  0  0  0  0  0  0  0  0  0  0  0
  192.5400  174.3050  141.2410 C   0  0  0  0  0  3  0  0  0  0  0  0
  193.8230  172.0640  140.9210 C   0  0  0  0  0  3  0  0  0  0  0  0
  193.4440  171.3700  141.9860 C   0  0  0  0  0  3  0  0  0  0  0  0
  191.8810  172.9140  143.2200 C   0  0  0  0  0  2  0  0  0  0  0  0
  192.5370  171.7700  143.0620 C   0  0  0  0  0  3  0  0  0  0  0  0
  188.5490  173.1320  141.4080 C   0  0  0  0  0  1  0  0  0  0  0  0
  188.8700  173.8160  142.7230 C   0  0  0  0  0  2  0  0  0  0  0  0
  187.4230  176.3330  142.6070 C   0  0  0  0  0  2  0  0  0  0  0  0
  186.7570  177.8990  140.9240 O   0  0  0  0  0  1  0  0  0  0  0  0
  187.0190  177.7640  142.2890 C   0  0  1  0  0  3  0  0  0  0  0  0
  184.7200  177.8070  142.7590 O   0  0  0  0  0  0  0  0  0  0  0  0
  185.8300  178.1600  143.1250 C   0  0  0  0  0  0  0  0  0  0  0  0
  185.1910  180.1670  144.2640 O   0  0  0  0  0  1  0  0  0  0  0  0
  185.9370  178.9920  144.3800 C   0  0  1  0  0  3  0  0  0  0  0  0
  185.5810  178.2390  145.6680 C   0  0  0  0  0  0  0  0  0  0  0  0
  186.4860  178.5270  146.6730 F   0  0  0  0  0  0  0  0  0  0  0  0
  184.1820  178.6050  146.1320 C   0  0  0  0  0  1  0  0  0  0  0  0
  185.6130  176.8790  145.4190 F   0  0  0  0  0  0  0  0  0  0  0  0
  1  6  1  0  0  0  0
  1  4  1  0  0  0  0
  2 12  1  1  0  0  0
  2  3  1  0  0  0  0
  3  9  1  0  0  0  0
  3 10  2  0  0  0  0
  5  7  1  0  0  0  0
  7 10  1  0  0  0  0
  8 20  1  1  0  0  0
  8  2  1  0  0  0  0
  8  5  1  0  0  0  0
  9  1  1  0  0  0  0
 10 11  1  0  0  0  0
 11  4  1  0  0  0  0
 12 17  1  0  0  0  0
 13 15  2  0  0  0  0
 13 14  1  0  0  0  0
 14 12  2  0  0  0  0
 15 16  1  0  0  0  0
 16 18  2  0  0  0  0
 18 17  1  0  0  0  0
 19 20  1  0  0  0  0
 21  5  1  0  0  0  0
 23 22  1  6  0  0  0
 23 21  1  0  0  0  0
 23 25  1  0  0  0  0
 24 25  2  0  0  0  0
 25 27  1  0  0  0  0
 27 26  1  6  0  0  0
 27 28  1  0  0  0  0
 28 30  1  0  0  0  0
 28 29  1  0  0  0  0
 31 28  1  0  0  0  0
M  END
>  <MODEL>
8

>  <REMARK>
 VINA RESULT:      -6.4      1.859      4.090
  Name = 
  7 active torsions:
  status: ('A' for Active; 'I' for Inactive)
    1  A    between atoms: C_1  and  C_19
    2  A    between atoms: C_4  and  C_5
    3  A    between atoms: C_9  and  C_22
    4  A    between atoms: C_9  and  C_23
    5  A    between atoms: N_15  and  C_23
    6  A    between atoms: C_19  and  C_22
    7  A    between atoms: C_21  and  C_29
                            x       y       z     vdW  Elec       q    Type
                         _______ _______ _______ _____ _____    ______ ____

>  <TORSDO>
F 7

$$$$
=
 OpenBabel11052417413D

 31 33  0  0  1  0  0  0  0  0999 V2000
  189.3000  173.3400  140.0970 N   0  0  0  0  0  0  0  0  0  0  0  0
  189.6000  176.2400  142.4920 C   0  0  2  0  0  3  0  0  0  0  0  0
  189.6290  174.7860  142.0450 C   0  0  0  0  0  0  0  0  0  0  0  0
  189.6640  172.1960  140.9250 C   0  0  0  0  0  2  0  0  0  0  0  0
  191.8190  175.8300  143.4520 N   0  0  0  0  0  0  0  0  0  0  0  0
  188.2730  172.8830  139.1790 C   0  0  0  0  0  1  0  0  0  0  0  0
  191.5790  174.3870  143.5410 C   0  0  0  0  0  2  0  0  0  0  0  0
  190.5540  176.5540  143.6640 C   0  0  2  0  0  3  0  0  0  0  0  0
  188.6700  174.3240  140.9730 C   0  0  0  0  0  2  0  0  0  0  0  0
  190.5980  173.9450  142.4880 C   0  0  0  0  0  0  0  0  0  0  0  0
  190.8020  172.5820  141.8700 C   0  0  0  0  0  2  0  0  0  0  0  0
  188.2280  176.8530  142.6100 C   0  0  0  0  0  0  0  0  0  0  0  0
  186.7210  178.6660  141.8210 N   0  0  0  0  0  0  0  0  0  0  0  0
  187.9490  177.9380  141.8790 C   0  0  0  0  0  3  0  0  0  0  0  0
  185.4760  178.4660  142.4900 C   0  0  0  0  0  3  0  0  0  0  0  0
  185.1890  177.4990  143.3510 C   0  0  0  0  0  3  0  0  0  0  0  0
  187.3110  176.1510  143.5170 C   0  0  0  0  0  2  0  0  0  0  0  0
  186.0470  176.4150  143.8280 C   0  0  0  0  0  3  0  0  0  0  0  0
  189.7630  177.5570  145.8140 C   0  0  0  0  0  1  0  0  0  0  0  0
  189.9290  176.2640  145.0410 C   0  0  0  0  0  2  0  0  0  0  0  0
  192.7800  176.2030  144.4820 C   0  0  0  0  0  2  0  0  0  0  0  0
  195.0140  176.4010  143.6470 O   0  0  0  0  0  1  0  0  0  0  0  0
  194.1120  175.5120  144.2340 C   0  0  1  0  0  3  0  0  0  0  0  0
  194.6520  175.6650  146.5120 O   0  0  0  0  0  0  0  0  0  0  0  0
  194.6470  174.9490  145.5250 C   0  0  0  0  0  0  0  0  0  0  0  0
  194.6840  172.7180  144.6580 O   0  0  0  0  0  1  0  0  0  0  0  0
  195.1990  173.5500  145.6540 C   0  0  1  0  0  3  0  0  0  0  0  0
  196.7310  173.4770  145.6940 C   0  0  0  0  0  0  0  0  0  0  0  0
  197.1910  173.5090  146.9970 F   0  0  0  0  0  0  0  0  0  0  0  0
  197.2240  172.2100  145.0180 C   0  0  0  0  0  1  0  0  0  0  0  0
  197.2510  174.5630  145.0130 F   0  0  0  0  0  0  0  0  0  0  0  0
  1  4  1  0  0  0  0
  1  9  1  0  0  0  0
  2 12  1  1  0  0  0
  2  8  1  0  0  0  0
  3 10  2  0  0  0  0
  3  2  1  0  0  0  0
  4 11  1  0  0  0  0
  5  7  1  0  0  0  0
  5  8  1  0  0  0  0
  5 21  1  0  0  0  0
  6  1  1  0  0  0  0
  8 20  1  1  0  0  0
  9  3  1  0  0  0  0
 10  7  1  0  0  0  0
 11 10  1  0  0  0  0
 12 17  1  0  0  0  0
 13 14  1  0  0  0  0
 13 15  2  0  0  0  0
 14 12  2  0  0  0  0
 15 16  1  0  0  0  0
 16 18  2  0  0  0  0
 17 18  1  0  0  0  0
 20 19  1  0  0  0  0
 23 22  1  1  0  0  0
 23 21  1  0  0  0  0
 23 25  1  0  0  0  0
 25 27  1  0  0  0  0
 25 24  2  0  0  0  0
 27 26  1  6  0  0  0
 27 28  1  0  0  0  0
 28 29  1  0  0  0  0
 30 28  1  0  0  0  0
 31 28  1  0  0  0  0
M  END
>  <MODEL>
9

>  <REMARK>
 VINA RESULT:      -6.4      4.670      7.334
  Name = 
  7 active torsions:
  status: ('A' for Active; 'I' for Inactive)
    1  A    between atoms: C_1  and  C_19
    2  A    between atoms: C_4  and  C_5
    3  A    between atoms: C_9  and  C_22
    4  A    between atoms: C_9  and  C_23
    5  A    between atoms: N_15  and  C_23
    6  A    between atoms: C_19  and  C_22
    7  A    between atoms: C_21  and  C_29
                            x       y       z     vdW  Elec       q    Type
                         _______ _______ _______ _____ _____    ______ ____

>  <TORSDO>
F 7

$$$$
