=
 OpenBabel11052417283D

 25 27  0  0  1  0  0  0  0  0999 V2000
  188.6510  176.5740  144.3060 C   0  0  1  0  0  3  0  0  0  0  0  0
  189.7460  173.0180  145.0810 C   0  0  0  0  0  1  0  0  0  0  0  0
  191.7350  176.1480  143.9300 C   0  0  0  0  0  2  0  0  0  0  0  0
  189.9440  174.5190  144.9800 C   0  0  1  0  0  3  0  0  0  0  0  0
  189.6630  175.2990  142.4030 S   0  0  0  0  0  0  0  0  0  0  0  0
  188.6810  175.7160  141.3450 O   0  0  0  0  0  0  0  0  0  0  0  0
  191.4350  174.8400  144.6960 C   0  0  2  0  0  3  0  0  0  0  0  0
  189.7170  177.4130  143.8890 O   0  0  0  0  0  0  0  0  0  0  0  0
  190.5040  174.1340  141.9600 O   0  0  0  0  0  0  0  0  0  0  0  0
  190.5810  176.6620  143.0600 C   0  0  1  0  0  3  0  0  0  0  0  0
  188.9270  175.1090  143.9760 C   0  0  2  0  0  3  0  0  0  0  0  0
  188.2240  176.8350  145.7540 C   0  0  1  0  0  3  0  0  0  0  0  0
  189.1870  177.5720  146.4500 O   0  0  0  0  0  1  0  0  0  0  0  0
  186.8860  177.5070  145.8160 C   0  0  0  0  0  0  0  0  0  0  0  0
  184.4240  178.8510  145.8690 C   0  0  0  0  0  3  0  0  0  0  0  0
  185.9950  177.3120  146.8900 C   0  0  0  0  0  0  0  0  0  0  0  0
  184.7680  177.9830  146.9090 C   0  0  0  0  0  3  0  0  0  0  0  0
  185.3090  179.0510  144.8060 C   0  0  0  0  0  3  0  0  0  0  0  0
  186.3040  176.4760  147.9120 F   0  0  0  0  0  0  0  0  0  0  0  0
  186.5350  178.3830  144.7830 C   0  0  0  0  0  3  0  0  0  0  0  0
  192.2660  174.7480  145.9370 C   0  0  0  0  0  0  0  0  0  0  0  0
  193.2220  173.9290  145.9930 O   0  0  0  0  0  0  0  0  0  0  0  0
  191.9760  175.6080  147.0900 C   0  0  0  0  0  0  0  0  0  0  0  0
  191.0460  175.2060  148.0420 O   0  0  0  0  0  1  0  0  0  0  0  0
  192.5640  176.7140  147.2260 O   0  0  0  0  0  0  0  0  0  0  0  0
  1 12  1  1  0  0  0
  3  7  1  0  0  0  0
  4  2  1  6  0  0  0
  5 10  1  0  0  0  0
  6  5  2  0  0  0  0
  7  4  1  0  0  0  0
  7 21  1  1  0  0  0
  8  1  1  0  0  0  0
  9  5  2  0  0  0  0
 10  8  1  0  0  0  0
 10  3  1  1  0  0  0
 11  5  1  6  0  0  0
 11  1  1  0  0  0  0
 11  4  1  0  0  0  0
 12 14  1  0  0  0  0
 12 13  1  6  0  0  0
 14 16  1  0  0  0  0
 15 17  1  0  0  0  0
 16 17  2  0  0  0  0
 16 19  1  0  0  0  0
 18 15  2  0  0  0  0
 20 18  1  0  0  0  0
 20 14  2  0  0  0  0
 21 22  2  0  0  0  0
 21 23  1  0  0  0  0
 23 25  2  0  0  0  0
 23 24  1  0  0  0  0
M  END
>  <MODEL>
1

>  <REMARK>
 VINA RESULT:      -7.1      0.000      0.000
  Name = 
  4 active torsions:
  status: ('A' for Active; 'I' for Inactive)
    1  A    between atoms: C_1  and  C_3
    2  A    between atoms: C_1  and  C_5
    3  A    between atoms: C_2  and  C_21
    4  A    between atoms: C_15  and  C_21
                            x       y       z     vdW  Elec       q    Type
                         _______ _______ _______ _____ _____    ______ ____

>  <TORSDO>
F 4

$$$$
=
 OpenBabel11052417283D

 25 27  0  0  1  0  0  0  0  0999 V2000
  188.6790  176.7190  145.4690 C   0  0  1  0  0  3  0  0  0  0  0  0
  191.5740  177.9350  143.3290 C   0  0  0  0  0  1  0  0  0  0  0  0
  190.7520  174.4530  144.8370 C   0  0  0  0  0  2  0  0  0  0  0  0
  190.5990  176.8940  143.8490 C   0  0  1  0  0  3  0  0  0  0  0  0
  190.9510  176.5740  146.5130 S   0  0  0  0  0  0  0  0  0  0  0  0
  190.5740  177.0890  147.8730 O   0  0  0  0  0  0  0  0  0  0  0  0
  191.2520  175.4880  143.8040 C   0  0  2  0  0  3  0  0  0  0  0  0
  188.7790  175.3500  145.8280 O   0  0  0  0  0  0  0  0  0  0  0  0
  192.4410  176.5560  146.3120 O   0  0  0  0  0  0  0  0  0  0  0  0
  190.1350  175.0580  146.1050 C   0  0  1  0  0  3  0  0  0  0  0  0
  190.0520  177.3390  145.2250 C   0  0  2  0  0  3  0  0  0  0  0  0
  187.6570  176.9660  144.3550 C   0  0  1  0  0  3  0  0  0  0  0  0
  187.3470  175.7870  143.6710 O   0  0  0  0  0  1  0  0  0  0  0  0
  186.4170  177.6200  144.8860 C   0  0  0  0  0  0  0  0  0  0  0  0
  184.0660  178.7420  145.9270 C   0  0  0  0  0  3  0  0  0  0  0  0
  185.8160  178.7240  144.2500 C   0  0  0  0  0  0  0  0  0  0  0  0
  184.6460  179.2810  144.7750 C   0  0  0  0  0  3  0  0  0  0  0  0
  184.6560  177.6430  146.5570 C   0  0  0  0  0  3  0  0  0  0  0  0
  186.3580  179.2650  143.1310 F   0  0  0  0  0  0  0  0  0  0  0  0
  185.8250  177.0830  146.0360 C   0  0  0  0  0  3  0  0  0  0  0  0
  191.2310  174.9120  142.4230 C   0  0  0  0  0  0  0  0  0  0  0  0
  192.2720  174.9430  141.7140 O   0  0  0  0  0  0  0  0  0  0  0  0
  190.0040  174.3090  141.8880 C   0  0  0  0  0  0  0  0  0  0  0  0
  189.7550  172.9550  142.0770 O   0  0  0  0  0  1  0  0  0  0  0  0
  189.1710  175.0110  141.2560 O   0  0  0  0  0  0  0  0  0  0  0  0
  1 12  1  6  0  0  0
  1  8  1  0  0  0  0
  4  2  1  1  0  0  0
  4 11  1  0  0  0  0
  5  6  2  0  0  0  0
  7 21  1  6  0  0  0
  7  4  1  0  0  0  0
  7  3  1  0  0  0  0
  8 10  1  0  0  0  0
  9  5  2  0  0  0  0
 10  3  1  6  0  0  0
 10  5  1  0  0  0  0
 11  1  1  0  0  0  0
 11  5  1  1  0  0  0
 12 13  1  1  0  0  0
 12 14  1  0  0  0  0
 14 20  1  0  0  0  0
 15 18  1  0  0  0  0
 16 17  1  0  0  0  0
 16 14  2  0  0  0  0
 17 15  2  0  0  0  0
 19 16  1  0  0  0  0
 20 18  2  0  0  0  0
 22 21  2  0  0  0  0
 23 24  1  0  0  0  0
 23 21  1  0  0  0  0
 25 23  2  0  0  0  0
M  END
>  <MODEL>
2

>  <REMARK>
 VINA RESULT:      -6.8      2.017      4.012
  Name = 
  4 active torsions:
  status: ('A' for Active; 'I' for Inactive)
    1  A    between atoms: C_1  and  C_3
    2  A    between atoms: C_1  and  C_5
    3  A    between atoms: C_2  and  C_21
    4  A    between atoms: C_15  and  C_21
                            x       y       z     vdW  Elec       q    Type
                         _______ _______ _______ _____ _____    ______ ____

>  <TORSDO>
F 4

$$$$
=
 OpenBabel11052417283D

 25 27  0  0  1  0  0  0  0  0999 V2000
  189.1390  176.6650  145.5020 C   0  0  1  0  0  3  0  0  0  0  0  0
  188.9190  174.5840  142.3290 C   0  0  0  0  0  1  0  0  0  0  0  0
  191.6090  174.7700  145.1220 C   0  0  0  0  0  2  0  0  0  0  0  0
  189.3540  174.8610  143.7560 C   0  0  1  0  0  3  0  0  0  0  0  0
  190.9470  177.0480  143.8110 S   0  0  0  0  0  0  0  0  0  0  0  0
  190.9740  178.5480  143.8900 O   0  0  0  0  0  0  0  0  0  0  0  0
  190.6920  174.1350  144.0530 C   0  0  2  0  0  3  0  0  0  0  0  0
  190.3270  176.4340  146.2450 O   0  0  0  0  0  0  0  0  0  0  0  0
  191.6890  176.5360  142.6070 O   0  0  0  0  0  0  0  0  0  0  0  0
  191.3990  176.2740  145.3370 C   0  0  1  0  0  3  0  0  0  0  0  0
  189.3440  176.3850  144.0140 C   0  0  2  0  0  3  0  0  0  0  0  0
  187.9140  175.9840  146.1190 C   0  0  1  0  0  3  0  0  0  0  0  0
  188.2010  175.4500  147.3780 O   0  0  0  0  0  1  0  0  0  0  0  0
  186.7460  176.9220  146.1870 C   0  0  0  0  0  0  0  0  0  0  0  0
  184.5610  178.6640  146.4310 C   0  0  0  0  0  3  0  0  0  0  0  0
  185.8200  177.0490  145.1330 C   0  0  0  0  0  0  0  0  0  0  0  0
  184.7350  177.9230  145.2590 C   0  0  0  0  0  3  0  0  0  0  0  0
  185.4740  178.5350  147.4810 C   0  0  0  0  0  3  0  0  0  0  0  0
  185.9650  176.3410  143.9860 F   0  0  0  0  0  0  0  0  0  0  0  0
  186.5600  177.6640  147.3590 C   0  0  0  0  0  3  0  0  0  0  0  0
  190.4820  172.6790  144.3290 C   0  0  0  0  0  0  0  0  0  0  0  0
  189.6330  172.3200  145.1880 O   0  0  0  0  0  0  0  0  0  0  0  0
  191.2590  171.6660  143.6040 C   0  0  0  0  0  0  0  0  0  0  0  0
  191.0930  171.5120  142.2330 O   0  0  0  0  0  0  0  0  0  0  0  0
  192.0780  170.9310  144.2170 O   0  0  0  0  0  1  0  0  0  0  0  0
  1 12  1  1  0  0  0
  1  8  1  0  0  0  0
  4  2  1  6  0  0  0
  4 11  1  0  0  0  0
  4  7  1  0  0  0  0
  5  6  2  0  0  0  0
  5 10  1  0  0  0  0
  7 21  1  1  0  0  0
  7  3  1  0  0  0  0
  9  5  2  0  0  0  0
 10  3  1  6  0  0  0
 10  8  1  0  0  0  0
 11  5  1  1  0  0  0
 11  1  1  0  0  0  0
 12 14  1  0  0  0  0
 12 13  1  1  0  0  0
 14 20  1  0  0  0  0
 15 18  1  0  0  0  0
 16 17  1  0  0  0  0
 16 14  2  0  0  0  0
 17 15  2  0  0  0  0
 19 16  1  0  0  0  0
 20 18  2  0  0  0  0
 21 22  2  0  0  0  0
 23 25  1  0  0  0  0
 23 21  1  0  0  0  0
 24 23  2  0  0  0  0
M  END
>  <MODEL>
3

>  <REMARK>
 VINA RESULT:      -6.8      1.984      3.204
  Name = 
  4 active torsions:
  status: ('A' for Active; 'I' for Inactive)
    1  A    between atoms: C_1  and  C_3
    2  A    between atoms: C_1  and  C_5
    3  A    between atoms: C_2  and  C_21
    4  A    between atoms: C_15  and  C_21
                            x       y       z     vdW  Elec       q    Type
                         _______ _______ _______ _____ _____    ______ ____

>  <TORSDO>
F 4

$$$$
=
 OpenBabel11052417283D

 25 27  0  0  1  0  0  0  0  0999 V2000
  189.2050  175.5610  144.4500 C   0  0  1  0  0  3  0  0  0  0  0  0
  191.9160  174.8390  147.0130 C   0  0  0  0  0  1  0  0  0  0  0  0
  192.0110  175.0750  143.1390 C   0  0  0  0  0  2  0  0  0  0  0  0
  191.3900  175.3560  145.6880 C   0  0  1  0  0  3  0  0  0  0  0  0
  190.2990  173.3150  144.2850 S   0  0  0  0  0  0  0  0  0  0  0  0
  189.0520  172.5070  144.0590 O   0  0  0  0  0  0  0  0  0  0  0  0
  192.4890  175.2410  144.5990 C   0  0  2  0  0  3  0  0  0  0  0  0
  189.6730  175.5310  143.1110 O   0  0  0  0  0  0  0  0  0  0  0  0
  191.4740  172.4460  144.6400 O   0  0  0  0  0  0  0  0  0  0  0  0
  190.6070  174.4760  142.9870 C   0  0  1  0  0  3  0  0  0  0  0  0
  190.0440  174.6680  145.3600 C   0  0  2  0  0  3  0  0  0  0  0  0
  188.9920  176.9860  144.9710 C   0  0  1  0  0  3  0  0  0  0  0  0
  189.5600  177.9360  144.1170 O   0  0  0  0  0  1  0  0  0  0  0  0
  187.5390  177.2730  145.2000 C   0  0  0  0  0  0  0  0  0  0  0  0
  184.8310  177.9050  145.5690 C   0  0  0  0  0  3  0  0  0  0  0  0
  186.8480  176.7990  146.3330 C   0  0  0  0  0  0  0  0  0  0  0  0
  185.4970  177.1150  146.5100 C   0  0  0  0  0  3  0  0  0  0  0  0
  185.5150  178.3820  144.4480 C   0  0  0  0  0  3  0  0  0  0  0  0
  187.4710  176.0310  147.2610 F   0  0  0  0  0  0  0  0  0  0  0  0
  186.8640  178.0680  144.2670 C   0  0  0  0  0  3  0  0  0  0  0  0
  193.4920  176.3470  144.7070 C   0  0  0  0  0  0  0  0  0  0  0  0
  193.1130  177.5460  144.6350 O   0  0  0  0  0  0  0  0  0  0  0  0
  194.9150  176.0420  144.8990 C   0  0  0  0  0  0  0  0  0  0  0  0
  195.8470  176.4480  143.9510 O   0  0  0  0  0  0  0  0  0  0  0  0
  195.3010  175.4130  145.9190 O   0  0  0  0  0  1  0  0  0  0  0  0
  1 12  1  1  0  0  0
  1 11  1  0  0  0  0
  3  7  1  0  0  0  0
  4  2  1  1  0  0  0
  5  9  2  0  0  0  0
  6  5  2  0  0  0  0
  7 21  1  6  0  0  0
  7  4  1  0  0  0  0
  8  1  1  0  0  0  0
 10  8  1  0  0  0  0
 10  3  1  1  0  0  0
 10  5  1  0  0  0  0
 11  5  1  6  0  0  0
 11  4  1  0  0  0  0
 12 13  1  6  0  0  0
 12 14  1  0  0  0  0
 14 16  1  0  0  0  0
 15 17  1  0  0  0  0
 16 17  2  0  0  0  0
 16 19  1  0  0  0  0
 18 15  2  0  0  0  0
 20 18  1  0  0  0  0
 20 14  2  0  0  0  0
 21 23  1  0  0  0  0
 22 21  2  0  0  0  0
 23 25  1  0  0  0  0
 24 23  2  0  0  0  0
M  END
>  <MODEL>
4

>  <REMARK>
 VINA RESULT:      -6.5      1.897      2.605
  Name = 
  4 active torsions:
  status: ('A' for Active; 'I' for Inactive)
    1  A    between atoms: C_1  and  C_3
    2  A    between atoms: C_1  and  C_5
    3  A    between atoms: C_2  and  C_21
    4  A    between atoms: C_15  and  C_21
                            x       y       z     vdW  Elec       q    Type
                         _______ _______ _______ _____ _____    ______ ____

>  <TORSDO>
F 4

$$$$
=
 OpenBabel11052417283D

 25 27  0  0  1  0  0  0  0  0999 V2000
  189.0960  175.8760  142.8800 C   0  0  1  0  0  3  0  0  0  0  0  0
  189.5000  174.5200  146.4070 C   0  0  0  0  0  1  0  0  0  0  0  0
  191.7620  174.2700  143.2620 C   0  0  0  0  0  2  0  0  0  0  0  0
  190.0070  175.0400  145.0750 C   0  0  1  0  0  3  0  0  0  0  0  0
  189.2070  173.3830  143.0910 S   0  0  0  0  0  0  0  0  0  0  0  0
  188.0930  173.0570  142.1350 O   0  0  0  0  0  0  0  0  0  0  0  0
  191.3910  174.4170  144.7540 C   0  0  2  0  0  3  0  0  0  0  0  0
  190.1680  175.5290  142.0170 O   0  0  0  0  0  0  0  0  0  0  0  0
  189.5930  172.1960  143.9290 O   0  0  0  0  0  0  0  0  0  0  0  0
  190.5640  174.2030  142.3050 C   0  0  1  0  0  3  0  0  0  0  0  0
  188.9170  174.8490  143.9950 C   0  0  2  0  0  3  0  0  0  0  0  0
  189.1640  177.3310  143.3540 C   0  0  1  0  0  3  0  0  0  0  0  0
  189.8470  178.1380  142.4400 O   0  0  0  0  0  1  0  0  0  0  0  0
  187.7980  177.8790  143.6360 C   0  0  0  0  0  0  0  0  0  0  0  0
  185.2470  178.9640  144.0670 C   0  0  0  0  0  3  0  0  0  0  0  0
  187.2990  178.0170  144.9460 C   0  0  0  0  0  0  0  0  0  0  0  0
  186.0250  178.5560  145.1540 C   0  0  0  0  0  3  0  0  0  0  0  0
  185.7430  178.8330  142.7670 C   0  0  0  0  0  3  0  0  0  0  0  0
  188.0320  177.6300  146.0190 F   0  0  0  0  0  0  0  0  0  0  0  0
  187.0140  178.2950  142.5550 C   0  0  0  0  0  3  0  0  0  0  0  0
  192.4900  175.0930  145.5110 C   0  0  0  0  0  0  0  0  0  0  0  0
  192.8190  174.6710  146.6520 O   0  0  0  0  0  0  0  0  0  0  0  0
  193.1910  176.2460  144.9320 C   0  0  0  0  0  0  0  0  0  0  0  0
  192.4670  177.3400  144.4720 O   0  0  0  0  0  0  0  0  0  0  0  0
  194.4470  176.2520  144.8470 O   0  0  0  0  0  1  0  0  0  0  0  0
  1 12  1  1  0  0  0
  1 11  1  0  0  0  0
  3  7  1  0  0  0  0
  4  2  1  1  0  0  0
  5  9  2  0  0  0  0
  6  5  2  0  0  0  0
  7  4  1  0  0  0  0
  7 21  1  1  0  0  0
  8 10  1  0  0  0  0
  8  1  1  0  0  0  0
 10  5  1  0  0  0  0
 10  3  1  1  0  0  0
 11  5  1  6  0  0  0
 11  4  1  0  0  0  0
 12 13  1  6  0  0  0
 12 14  1  0  0  0  0
 14 16  1  0  0  0  0
 15 17  1  0  0  0  0
 16 17  2  0  0  0  0
 16 19  1  0  0  0  0
 18 15  2  0  0  0  0
 20 18  1  0  0  0  0
 20 14  2  0  0  0  0
 21 22  2  0  0  0  0
 23 21  1  0  0  0  0
 24 23  2  0  0  0  0
 25 23  1  0  0  0  0
M  END
>  <MODEL>
5

>  <REMARK>
 VINA RESULT:      -6.4      1.817      2.405
  Name = 
  4 active torsions:
  status: ('A' for Active; 'I' for Inactive)
    1  A    between atoms: C_1  and  C_3
    2  A    between atoms: C_1  and  C_5
    3  A    between atoms: C_2  and  C_21
    4  A    between atoms: C_15  and  C_21
                            x       y       z     vdW  Elec       q    Type
                         _______ _______ _______ _____ _____    ______ ____

>  <TORSDO>
F 4

$$$$
=
 OpenBabel11052417283D

 25 27  0  0  1  0  0  0  0  0999 V2000
  189.7900  176.2710  143.4670 C   0  0  1  0  0  3  0  0  0  0  0  0
  189.8030  172.9780  145.3650 C   0  0  0  0  0  1  0  0  0  0  0  0
  192.4800  174.6930  143.1370 C   0  0  0  0  0  2  0  0  0  0  0  0
  190.4490  174.2050  144.7490 C   0  0  1  0  0  3  0  0  0  0  0  0
  190.0350  174.2040  142.0740 S   0  0  0  0  0  0  0  0  0  0  0  0
  189.0850  174.5930  140.9770 O   0  0  0  0  0  0  0  0  0  0  0  0
  191.9020  173.8770  144.3140 C   0  0  2  0  0  3  0  0  0  0  0  0
  190.9890  176.5100  142.7460 O   0  0  0  0  0  0  0  0  0  0  0  0
  190.3820  172.7410  142.0230 O   0  0  0  0  0  0  0  0  0  0  0  0
  191.4290  175.2870  142.1890 C   0  0  1  0  0  3  0  0  0  0  0  0
  189.5300  174.7770  143.6450 C   0  0  2  0  0  3  0  0  0  0  0  0
  189.6980  177.0960  144.7540 C   0  0  1  0  0  3  0  0  0  0  0  0
  190.2500  178.3690  144.5890 O   0  0  0  0  0  1  0  0  0  0  0  0
  188.2850  177.1830  145.2470 C   0  0  0  0  0  0  0  0  0  0  0  0
  185.6600  177.2490  146.2310 C   0  0  0  0  0  3  0  0  0  0  0  0
  187.2640  177.8020  144.5010 C   0  0  0  0  0  0  0  0  0  0  0  0
  185.9570  177.8350  144.9980 C   0  0  0  0  0  3  0  0  0  0  0  0
  186.6690  176.6280  146.9710 C   0  0  0  0  0  3  0  0  0  0  0  0
  187.5260  178.3780  143.3020 F   0  0  0  0  0  0  0  0  0  0  0  0
  187.9760  176.5930  146.4780 C   0  0  0  0  0  3  0  0  0  0  0  0
  192.8420  173.8840  145.4780 C   0  0  0  0  0  0  0  0  0  0  0  0
  193.6020  172.8980  145.6770 O   0  0  0  0  0  0  0  0  0  0  0  0
  192.8870  175.0340  146.3890 C   0  0  0  0  0  0  0  0  0  0  0  0
  193.8160  176.0480  146.1840 O   0  0  0  0  0  0  0  0  0  0  0  0
  192.0890  175.1110  147.3600 O   0  0  0  0  0  1  0  0  0  0  0  0
  1 11  1  0  0  0  0
  1 12  1  1  0  0  0
  3  7  1  0  0  0  0
  4  2  1  6  0  0  0
  5 10  1  0  0  0  0
  6  5  2  0  0  0  0
  7  4  1  0  0  0  0
  7 21  1  1  0  0  0
  8  1  1  0  0  0  0
  9  5  2  0  0  0  0
 10  8  1  0  0  0  0
 10  3  1  1  0  0  0
 11  5  1  6  0  0  0
 11  4  1  0  0  0  0
 12 13  1  6  0  0  0
 12 14  1  0  0  0  0
 14 20  1  0  0  0  0
 15 18  1  0  0  0  0
 16 17  1  0  0  0  0
 16 14  2  0  0  0  0
 17 15  2  0  0  0  0
 19 16  1  0  0  0  0
 20 18  2  0  0  0  0
 21 22  2  0  0  0  0
 21 23  1  0  0  0  0
 23 25  1  0  0  0  0
 24 23  2  0  0  0  0
M  END
>  <MODEL>
6

>  <REMARK>
 VINA RESULT:      -6.3      1.617      2.130
  Name = 
  4 active torsions:
  status: ('A' for Active; 'I' for Inactive)
    1  A    between atoms: C_1  and  C_3
    2  A    between atoms: C_1  and  C_5
    3  A    between atoms: C_2  and  C_21
    4  A    between atoms: C_15  and  C_21
                            x       y       z     vdW  Elec       q    Type
                         _______ _______ _______ _____ _____    ______ ____

>  <TORSDO>
F 4

$$$$
=
 OpenBabel11052417283D

 25 27  0  0  1  0  0  0  0  0999 V2000
  189.8790  175.8510  143.4250 C   0  0  1  0  0  3  0  0  0  0  0  0
  189.8050  172.3550  144.9150 C   0  0  0  0  0  1  0  0  0  0  0  0
  192.4470  174.1880  142.7390 C   0  0  0  0  0  2  0  0  0  0  0  0
  190.4870  173.6130  144.4090 C   0  0  1  0  0  3  0  0  0  0  0  0
  189.9210  173.9590  141.7850 S   0  0  0  0  0  0  0  0  0  0  0  0
  188.9350  174.5280  140.8050 O   0  0  0  0  0  0  0  0  0  0  0  0
  191.8900  173.2650  143.8460 C   0  0  2  0  0  3  0  0  0  0  0  0
  191.0470  176.1140  142.6630 O   0  0  0  0  0  0  0  0  0  0  0  0
  190.1780  172.4970  141.5390 O   0  0  0  0  0  0  0  0  0  0  0  0
  191.3810  174.9470  141.9380 C   0  0  1  0  0  3  0  0  0  0  0  0
  189.5420  174.3620  143.4420 C   0  0  2  0  0  3  0  0  0  0  0  0
  189.9100  176.5160  144.8050 C   0  0  1  0  0  3  0  0  0  0  0  0
  190.7300  177.6480  144.8120 O   0  0  0  0  0  1  0  0  0  0  0  0
  188.5290  176.8510  145.2810 C   0  0  0  0  0  0  0  0  0  0  0  0
  185.9570  177.5830  146.1270 C   0  0  0  0  0  3  0  0  0  0  0  0
  187.9460  176.2260  146.4010 C   0  0  0  0  0  0  0  0  0  0  0  0
  186.6620  176.5940  146.8160 C   0  0  0  0  0  3  0  0  0  0  0  0
  186.5340  178.2100  145.0190 C   0  0  0  0  0  3  0  0  0  0  0  0
  188.6090  175.2630  147.0870 F   0  0  0  0  0  0  0  0  0  0  0  0
  187.8160  177.8450  144.6010 C   0  0  0  0  0  3  0  0  0  0  0  0
  192.8940  173.0810  144.9400 C   0  0  0  0  0  0  0  0  0  0  0  0
  193.3640  171.9360  145.1750 O   0  0  0  0  0  0  0  0  0  0  0  0
  193.3380  174.2280  145.7410 C   0  0  0  0  0  0  0  0  0  0  0  0
  192.5060  174.7550  146.7220 O   0  0  0  0  0  1  0  0  0  0  0  0
  194.4710  174.7420  145.5470 O   0  0  0  0  0  0  0  0  0  0  0  0
  1 11  1  0  0  0  0
  1 12  1  1  0  0  0
  3  7  1  0  0  0  0
  4  2  1  6  0  0  0
  5 10  1  0  0  0  0
  6  5  2  0  0  0  0
  7  4  1  0  0  0  0
  7 21  1  1  0  0  0
  8  1  1  0  0  0  0
  9  5  2  0  0  0  0
 10  8  1  0  0  0  0
 10  3  1  1  0  0  0
 11  5  1  6  0  0  0
 11  4  1  0  0  0  0
 12 13  1  6  0  0  0
 12 14  1  0  0  0  0
 14 16  1  0  0  0  0
 15 17  1  0  0  0  0
 16 17  2  0  0  0  0
 16 19  1  0  0  0  0
 18 15  2  0  0  0  0
 20 18  1  0  0  0  0
 20 14  2  0  0  0  0
 21 22  2  0  0  0  0
 21 23  1  0  0  0  0
 23 24  1  0  0  0  0
 25 23  2  0  0  0  0
M  END
>  <MODEL>
7

>  <REMARK>
 VINA RESULT:      -6.3      1.557      1.995
  Name = 
  4 active torsions:
  status: ('A' for Active; 'I' for Inactive)
    1  A    between atoms: C_1  and  C_3
    2  A    between atoms: C_1  and  C_5
    3  A    between atoms: C_2  and  C_21
    4  A    between atoms: C_15  and  C_21
                            x       y       z     vdW  Elec       q    Type
                         _______ _______ _______ _____ _____    ______ ____

>  <TORSDO>
F 4

$$$$
=
 OpenBabel11052417283D

 25 27  0  0  1  0  0  0  0  0999 V2000
  188.7720  176.9950  144.8220 C   0  0  1  0  0  3  0  0  0  0  0  0
  189.6930  173.3200  144.5270 C   0  0  0  0  0  1  0  0  0  0  0  0
  191.7760  176.5590  144.0360 C   0  0  0  0  0  2  0  0  0  0  0  0
  189.9800  174.7840  144.8010 C   0  0  1  0  0  3  0  0  0  0  0  0
  189.5270  176.2320  142.5600 S   0  0  0  0  0  0  0  0  0  0  0  0
  188.4860  176.9550  141.7520 O   0  0  0  0  0  0  0  0  0  0  0  0
  191.4580  175.1080  144.4610 C   0  0  2  0  0  3  0  0  0  0  0  0
  189.8500  177.8710  144.5330 O   0  0  0  0  0  0  0  0  0  0  0  0
  190.2480  175.1930  141.7450 O   0  0  0  0  0  0  0  0  0  0  0  0
  190.5860  177.3330  143.4520 C   0  0  1  0  0  3  0  0  0  0  0  0
  188.9200  175.6610  144.0950 C   0  0  2  0  0  3  0  0  0  0  0  0
  188.4910  176.8780  146.3240 C   0  0  1  0  0  3  0  0  0  0  0  0
  189.5230  177.4340  147.0850 O   0  0  0  0  0  1  0  0  0  0  0  0
  187.1700  177.4910  146.6820 C   0  0  0  0  0  0  0  0  0  0  0  0
  184.7430  178.6660  147.4540 C   0  0  0  0  0  3  0  0  0  0  0  0
  185.9570  177.0410  146.1260 C   0  0  0  0  0  0  0  0  0  0  0  0
  184.7500  177.6330  146.5130 C   0  0  0  0  0  3  0  0  0  0  0  0
  185.9450  179.1100  148.0120 C   0  0  0  0  0  3  0  0  0  0  0  0
  185.9350  176.0400  145.2110 F   0  0  0  0  0  0  0  0  0  0  0  0
  187.1520  178.5220  147.6280 C   0  0  0  0  0  3  0  0  0  0  0  0
  192.3860  174.6560  145.5440 C   0  0  0  0  0  0  0  0  0  0  0  0
  192.1290  174.9290  146.7460 O   0  0  0  0  0  0  0  0  0  0  0  0
  193.5970  173.8930  145.2140 C   0  0  0  0  0  0  0  0  0  0  0  0
  194.4790  174.3700  144.2520 O   0  0  0  0  0  0  0  0  0  0  0  0
  193.8440  172.8050  145.7980 O   0  0  0  0  0  1  0  0  0  0  0  0
  1 12  1  1  0  0  0
  3  7  1  0  0  0  0
  4  2  1  6  0  0  0
  5 10  1  0  0  0  0
  6  5  2  0  0  0  0
  7  4  1  0  0  0  0
  7 21  1  1  0  0  0
  8  1  1  0  0  0  0
  9  5  2  0  0  0  0
 10  3  1  1  0  0  0
 10  8  1  0  0  0  0
 11  5  1  6  0  0  0
 11  4  1  0  0  0  0
 11  1  1  0  0  0  0
 12 14  1  0  0  0  0
 12 13  1  1  0  0  0
 14 20  1  0  0  0  0
 15 18  1  0  0  0  0
 16 17  1  0  0  0  0
 16 14  2  0  0  0  0
 17 15  2  0  0  0  0
 19 16  1  0  0  0  0
 20 18  2  0  0  0  0
 21 22  2  0  0  0  0
 23 21  1  0  0  0  0
 23 25  1  0  0  0  0
 24 23  2  0  0  0  0
M  END
>  <MODEL>
8

>  <REMARK>
 VINA RESULT:      -6.2      1.266      1.967
  Name = 
  4 active torsions:
  status: ('A' for Active; 'I' for Inactive)
    1  A    between atoms: C_1  and  C_3
    2  A    between atoms: C_1  and  C_5
    3  A    between atoms: C_2  and  C_21
    4  A    between atoms: C_15  and  C_21
                            x       y       z     vdW  Elec       q    Type
                         _______ _______ _______ _____ _____    ______ ____

>  <TORSDO>
F 4

$$$$
=
 OpenBabel11052417283D

 25 27  0  0  1  0  0  0  0  0999 V2000
  187.7620  176.5270  146.5000 C   0  0  1  0  0  3  0  0  0  0  0  0
  189.3540  177.2650  143.1290 C   0  0  0  0  0  1  0  0  0  0  0  0
  189.7400  174.2750  145.5760 C   0  0  0  0  0  2  0  0  0  0  0  0
  188.8360  176.3550  144.2270 C   0  0  1  0  0  3  0  0  0  0  0  0
  190.2540  176.7730  146.4940 S   0  0  0  0  0  0  0  0  0  0  0  0
  190.3700  177.6130  147.7350 O   0  0  0  0  0  0  0  0  0  0  0  0
  189.6260  175.0200  144.2270 C   0  0  2  0  0  3  0  0  0  0  0  0
  188.2050  175.3090  147.0770 O   0  0  0  0  0  0  0  0  0  0  0  0
  191.5290  176.7730  145.6950 O   0  0  0  0  0  0  0  0  0  0  0  0
  189.5870  175.1660  146.8160 C   0  0  1  0  0  3  0  0  0  0  0  0
  188.8150  177.1240  145.5690 C   0  0  2  0  0  3  0  0  0  0  0  0
  186.3590  176.4190  145.8940 C   0  0  1  0  0  3  0  0  0  0  0  0
  185.4030  176.1020  146.8640 O   0  0  0  0  0  1  0  0  0  0  0  0
  185.9830  177.6710  145.1600 C   0  0  0  0  0  0  0  0  0  0  0  0
  185.2420  180.0560  143.8850 C   0  0  0  0  0  3  0  0  0  0  0  0
  185.6550  177.6700  143.7900 C   0  0  0  0  0  0  0  0  0  0  0  0
  185.2890  178.8630  143.1590 C   0  0  0  0  0  3  0  0  0  0  0  0
  185.5600  180.0590  145.2450 C   0  0  0  0  0  3  0  0  0  0  0  0
  185.6930  176.5260  143.0630 F   0  0  0  0  0  0  0  0  0  0  0  0
  185.9270  178.8700  145.8790 C   0  0  0  0  0  3  0  0  0  0  0  0
  189.1510  174.0970  143.1490 C   0  0  0  0  0  0  0  0  0  0  0  0
  188.0830  174.3510  142.5310 O   0  0  0  0  0  0  0  0  0  0  0  0
  189.9240  172.8980  142.8050 C   0  0  0  0  0  0  0  0  0  0  0  0
  191.1360  173.0200  142.1350 O   0  0  0  0  0  0  0  0  0  0  0  0
  189.4970  171.7530  143.1110 O   0  0  0  0  0  1  0  0  0  0  0  0
  1 12  1  6  0  0  0
  1  8  1  0  0  0  0
  4  2  1  6  0  0  0
  4 11  1  0  0  0  0
  5 10  1  0  0  0  0
  5  6  2  0  0  0  0
  7 21  1  6  0  0  0
  7  4  1  0  0  0  0
  7  3  1  0  0  0  0
  9  5  2  0  0  0  0
 10  3  1  6  0  0  0
 10  8  1  0  0  0  0
 11  5  1  1  0  0  0
 11  1  1  0  0  0  0
 12 13  1  1  0  0  0
 14 20  1  0  0  0  0
 14 12  1  0  0  0  0
 15 18  1  0  0  0  0
 16 14  2  0  0  0  0
 17 16  1  0  0  0  0
 17 15  2  0  0  0  0
 18 20  2  0  0  0  0
 19 16  1  0  0  0  0
 22 21  2  0  0  0  0
 23 25  1  0  0  0  0
 23 21  1  0  0  0  0
 24 23  2  0  0  0  0
M  END
>  <MODEL>
9

>  <REMARK>
 VINA RESULT:      -6.2      2.167      4.159
  Name = 
  4 active torsions:
  status: ('A' for Active; 'I' for Inactive)
    1  A    between atoms: C_1  and  C_3
    2  A    between atoms: C_1  and  C_5
    3  A    between atoms: C_2  and  C_21
    4  A    between atoms: C_15  and  C_21
                            x       y       z     vdW  Elec       q    Type
                         _______ _______ _______ _____ _____    ______ ____

>  <TORSDO>
F 4

$$$$
