=
 OpenBabel11052421243D

 32 37  0  0  1  0  0  0  0  0999 V2000
  192.0730  175.7130  147.6410 C   0  0  0  0  0  2  0  0  0  0  0  0
  188.0830  176.2710  144.5160 C   0  0  0  0  0  0  0  0  0  0  0  0
  185.3410  178.4900  148.0300 C   0  0  0  0  0  2  0  0  0  0  0  0
  184.1240  178.2910  147.1490 C   0  0  0  0  0  2  0  0  0  0  0  0
  187.3900  176.5170  142.0980 C   0  0  0  0  0  0  0  0  0  0  0  0
  186.4350  177.0140  141.2130 C   0  0  0  0  0  0  0  0  0  0  0  0
  190.1540  175.1240  145.1690 C   0  0  0  0  0  0  0  0  0  0  0  0
  188.7000  176.0540  146.8660 C   0  0  0  0  0  3  0  0  0  0  0  0
  184.6490  178.0030  140.4920 C   0  0  0  0  0  0  0  0  0  0  0  0
  190.7650  174.9160  147.6300 C   0  0  0  0  0  2  0  0  0  0  0  0
  186.3380  177.3770  147.7490 C   0  0  0  0  0  2  0  0  0  0  0  0
  187.8060  176.5160  145.8870 C   0  0  0  0  0  0  0  0  0  0  0  0
  186.6490  177.2140  146.2750 C   0  0  0  0  0  0  0  0  0  0  0  0
  185.9960  177.4320  143.9300 C   0  0  0  0  0  0  0  0  0  0  0  0
  185.3420  177.5410  139.4700 O   0  0  0  0  0  0  0  0  0  0  0  0
  192.6210  174.3970  145.5640 C   0  0  0  0  0  2  0  0  0  0  0  0
  189.8580  175.3580  146.5260 C   0  0  0  0  0  0  0  0  0  0  0  0
  186.4310  176.9350  139.8660 N   0  0  0  0  0  0  0  0  0  0  0  0
  191.3700  174.3680  144.6770 C   0  0  0  0  0  2  0  0  0  0  0  0
  192.7930  175.7290  146.2890 C   0  0  2  0  0  3  0  0  0  0  0  0
  184.5310  178.4900  145.6960 C   0  0  0  0  0  2  0  0  0  0  0  0
  185.7370  177.6610  145.2960 C   0  0  0  0  0  0  0  0  0  0  0  0
  185.0720  177.9090  142.9740 C   0  0  0  0  0  3  0  0  0  0  0  0
  189.2600  175.5740  144.1970 C   0  0  0  0  0  3  0  0  0  0  0  0
  188.5650  175.8020  141.5080 C   0  0  0  0  0  1  0  0  0  0  0  0
  183.3620  178.7410  140.3870 C   0  0  0  0  0  1  0  0  0  0  0  0
  187.1800  176.7250  143.5100 C   0  0  0  0  0  0  0  0  0  0  0  0
  185.3300  177.6790  141.6370 C   0  0  0  0  0  0  0  0  0  0  0  0
  194.2650  176.0300  146.5140 C   0  0  0  0  0  2  0  0  0  0  0  0
  194.7850  176.9410  145.4550 C   0  0  0  0  0  0  0  0  0  0  0  0
  195.0650  176.4460  144.1880 O   0  0  0  0  0  0  0  0  0  0  0  0
  194.9410  178.1660  145.7000 O   0  0  0  0  0  1  0  0  0  0  0  0
  2 12  1  0  0  0  0
  4  3  1  0  0  0  0
  5 27  2  0  0  0  0
  6 28  1  0  0  0  0
  6  5  1  0  0  0  0
  7 17  2  0  0  0  0
  9 28  2  0  0  0  0
 10  1  1  0  0  0  0
 11  3  1  0  0  0  0
 12 13  1  0  0  0  0
 12  8  2  0  0  0  0
 13 11  1  0  0  0  0
 14 22  1  0  0  0  0
 15 18  1  0  0  0  0
 15  9  1  0  0  0  0
 16 20  1  0  0  0  0
 17  8  1  0  0  0  0
 17 10  1  0  0  0  0
 18  6  2  0  0  0  0
 19  7  1  0  0  0  0
 19 16  1  0  0  0  0
 20 29  1  1  0  0  0
 20  1  1  0  0  0  0
 21  4  1  0  0  0  0
 22 21  1  0  0  0  0
 22 13  2  0  0  0  0
 23 14  2  0  0  0  0
 24  2  2  0  0  0  0
 24  7  1  0  0  0  0
 25  5  1  0  0  0  0
 26  9  1  0  0  0  0
 27 14  1  0  0  0  0
 27  2  1  0  0  0  0
 28 23  1  0  0  0  0
 30 32  1  0  0  0  0
 30 29  1  0  0  0  0
 31 30  2  0  0  0  0
M  END
>  <MODEL>
1

>  <REMARK>
 VINA RESULT:     -10.1      0.000      0.000
  Name = 
  2 active torsions:
  status: ('A' for Active; 'I' for Inactive)
    1  A    between atoms: C_1  and  C_10
    2  A    between atoms: C_10  and  C_24
                            x       y       z     vdW  Elec       q    Type
                         _______ _______ _______ _____ _____    ______ ____

>  <TORSDO>
F 2

$$$$
=
 OpenBabel11052421243D

 32 37  0  0  1  0  0  0  0  0999 V2000
  191.4720  172.9320  139.9070 C   0  0  0  0  0  2  0  0  0  0  0  0
  188.7310  175.1490  143.5910 C   0  0  0  0  0  0  0  0  0  0  0  0
  192.6140  175.3200  146.7020 C   0  0  0  0  0  2  0  0  0  0  0  0
  191.6480  175.6420  147.8250 C   0  0  0  0  0  2  0  0  0  0  0  0
  186.7360  176.6290  144.0540 C   0  0  0  0  0  0  0  0  0  0  0  0
  186.1510  177.5430  144.9300 C   0  0  0  0  0  0  0  0  0  0  0  0
  188.8850  173.7650  141.5670 C   0  0  0  0  0  0  0  0  0  0  0  0
  190.6760  173.7300  143.1960 C   0  0  0  0  0  3  0  0  0  0  0  0
  185.8830  178.8170  146.6590 C   0  0  0  0  0  0  0  0  0  0  0  0
  190.9290  172.2970  141.1900 C   0  0  0  0  0  2  0  0  0  0  0  0
  191.8910  174.4810  145.6590 C   0  0  0  0  0  2  0  0  0  0  0  0
  189.9980  174.6590  144.0020 C   0  0  0  0  0  0  0  0  0  0  0  0
  190.5810  175.0930  145.2050 C   0  0  0  0  0  0  0  0  0  0  0  0
  188.6390  176.5110  145.6360 C   0  0  0  0  0  0  0  0  0  0  0  0
  184.8380  178.9280  145.8620 O   0  0  0  0  0  0  0  0  0  0  0  0
  189.0740  172.8610  139.1340 C   0  0  0  0  0  2  0  0  0  0  0  0
  190.1340  173.2740  141.9960 C   0  0  0  0  0  0  0  0  0  0  0  0
  184.9640  178.1700  144.8030 N   0  0  0  0  0  0  0  0  0  0  0  0
  188.1890  173.3340  140.2950 C   0  0  0  0  0  2  0  0  0  0  0  0
  190.3960  173.6210  139.0610 C   0  0  2  0  0  3  0  0  0  0  0  0
  190.5520  176.5500  147.2850 C   0  0  0  0  0  2  0  0  0  0  0  0
  189.8950  176.0100  146.0290 C   0  0  0  0  0  0  0  0  0  0  0  0
  187.9850  177.4420  146.4740 C   0  0  0  0  0  3  0  0  0  0  0  0
  188.2070  174.6800  142.3740 C   0  0  0  0  0  3  0  0  0  0  0  0
  185.9730  176.2860  142.8130 C   0  0  0  0  0  1  0  0  0  0  0  0
  186.0560  179.5430  147.9470 C   0  0  0  0  0  1  0  0  0  0  0  0
  188.0250  176.0850  144.4030 C   0  0  0  0  0  0  0  0  0  0  0  0
  186.7530  177.9270  146.0840 C   0  0  0  0  0  0  0  0  0  0  0  0
  190.8800  173.7170  137.6240 C   0  0  0  0  0  2  0  0  0  0  0  0
  189.7310  173.6630  136.6760 C   0  0  0  0  0  0  0  0  0  0  0  0
  188.8790  174.7530  136.5520 O   0  0  0  0  0  1  0  0  0  0  0  0
  189.5500  172.6410  135.9630 O   0  0  0  0  0  0  0  0  0  0  0  0
  1 10  1  0  0  0  0
  2 12  1  0  0  0  0
  2 27  1  0  0  0  0
  3  4  1  0  0  0  0
  5 27  2  0  0  0  0
  5  6  1  0  0  0  0
  6 28  1  0  0  0  0
  7 17  2  0  0  0  0
  7 24  1  0  0  0  0
  8 12  2  0  0  0  0
  9 26  1  0  0  0  0
 10 17  1  0  0  0  0
 11  3  1  0  0  0  0
 12 13  1  0  0  0  0
 13 11  1  0  0  0  0
 13 22  2  0  0  0  0
 14 22  1  0  0  0  0
 14 23  2  0  0  0  0
 15  9  1  0  0  0  0
 16 19  1  0  0  0  0
 17  8  1  0  0  0  0
 18  6  2  0  0  0  0
 18 15  1  0  0  0  0
 19  7  1  0  0  0  0
 20 29  1  6  0  0  0
 20 16  1  0  0  0  0
 20  1  1  0  0  0  0
 21  4  1  0  0  0  0
 22 21  1  0  0  0  0
 24  2  2  0  0  0  0
 25  5  1  0  0  0  0
 27 14  1  0  0  0  0
 28 23  1  0  0  0  0
 28  9  2  0  0  0  0
 30 29  1  0  0  0  0
 31 30  1  0  0  0  0
 32 30  2  0  0  0  0
M  END
>  <MODEL>
2

>  <REMARK>
 VINA RESULT:      -8.4      3.245      6.441
  Name = 
  2 active torsions:
  status: ('A' for Active; 'I' for Inactive)
    1  A    between atoms: C_1  and  C_10
    2  A    between atoms: C_10  and  C_24
                            x       y       z     vdW  Elec       q    Type
                         _______ _______ _______ _____ _____    ______ ____

>  <TORSDO>
F 2

$$$$
=
 OpenBabel11052421243D

 32 37  0  0  1  0  0  0  0  0999 V2000
  191.4340  176.6920  147.1850 C   0  0  0  0  0  2  0  0  0  0  0  0
  188.7420  175.7610  142.9560 C   0  0  0  0  0  0  0  0  0  0  0  0
  185.5320  179.4460  143.9050 C   0  0  0  0  0  2  0  0  0  0  0  0
  184.6210  178.8730  142.8380 C   0  0  0  0  0  2  0  0  0  0  0  0
  188.8660  174.8310  140.6100 C   0  0  0  0  0  0  0  0  0  0  0  0
  188.3310  174.8610  139.3230 C   0  0  0  0  0  0  0  0  0  0  0  0
  190.2720  175.0270  144.7320 C   0  0  0  0  0  0  0  0  0  0  0  0
  188.5740  176.6860  145.2080 C   0  0  0  0  0  3  0  0  0  0  0  0
  187.0590  175.4180  137.6610 C   0  0  0  0  0  0  0  0  0  0  0  0
  190.0660  176.0130  147.0680 C   0  0  0  0  0  2  0  0  0  0  0  0
  186.3440  178.3160  144.5170 C   0  0  0  0  0  2  0  0  0  0  0  0
  188.1180  176.6380  143.8800 C   0  0  0  0  0  0  0  0  0  0  0  0
  187.0470  177.4590  143.4840 C   0  0  0  0  0  0  0  0  0  0  0  0
  187.1800  176.5400  141.2230 C   0  0  0  0  0  0  0  0  0  0  0  0
  187.9290  174.5090  137.2680 O   0  0  0  0  0  0  0  0  0  0  0  0
  192.3280  174.5300  146.2490 C   0  0  0  0  0  2  0  0  0  0  0  0
  189.6310  175.8900  145.6430 C   0  0  0  0  0  0  0  0  0  0  0  0
  188.7170  174.1460  138.2470 N   0  0  0  0  0  0  0  0  0  0  0  0
  191.4180  174.1050  145.0890 C   0  0  0  0  0  2  0  0  0  0  0  0
  192.5170  176.0440  146.3170 C   0  0  2  0  0  3  0  0  0  0  0  0
  185.4750  178.3430  141.6950 C   0  0  0  0  0  2  0  0  0  0  0  0
  186.5700  177.4010  142.1570 C   0  0  0  0  0  0  0  0  0  0  0  0
  186.6910  176.5170  139.8980 C   0  0  0  0  0  3  0  0  0  0  0  0
  189.8110  174.9730  143.4160 C   0  0  0  0  0  3  0  0  0  0  0  0
  190.0110  173.8980  140.8530 C   0  0  0  0  0  1  0  0  0  0  0  0
  186.0220  176.0410  136.7950 C   0  0  0  0  0  1  0  0  0  0  0  0
  188.2840  175.6940  141.6070 C   0  0  0  0  0  0  0  0  0  0  0  0
  187.2920  175.6690  138.9890 C   0  0  0  0  0  0  0  0  0  0  0  0
  193.8830  176.3870  146.8880 C   0  0  0  0  0  2  0  0  0  0  0  0
  194.7840  176.9080  145.8220 C   0  0  0  0  0  0  0  0  0  0  0  0
  195.3100  176.0430  144.8710 O   0  0  0  0  0  0  0  0  0  0  0  0
  195.0460  178.1380  145.7630 O   0  0  0  0  0  1  0  0  0  0  0  0
  2 24  2  0  0  0  0
  2 12  1  0  0  0  0
  3 11  1  0  0  0  0
  4  3  1  0  0  0  0
  5 25  1  0  0  0  0
  5 27  2  0  0  0  0
  6  5  1  0  0  0  0
  7 19  1  0  0  0  0
  7 17  2  0  0  0  0
  8 17  1  0  0  0  0
  9 28  2  0  0  0  0
 10  1  1  0  0  0  0
 12  8  2  0  0  0  0
 13 12  1  0  0  0  0
 13 11  1  0  0  0  0
 14 27  1  0  0  0  0
 14 22  1  0  0  0  0
 15  9  1  0  0  0  0
 15 18  1  0  0  0  0
 16 20  1  0  0  0  0
 17 10  1  0  0  0  0
 18  6  2  0  0  0  0
 19 16  1  0  0  0  0
 20 29  1  1  0  0  0
 20  1  1  0  0  0  0
 21 22  1  0  0  0  0
 21  4  1  0  0  0  0
 22 13  2  0  0  0  0
 23 14  2  0  0  0  0
 24  7  1  0  0  0  0
 26  9  1  0  0  0  0
 27  2  1  0  0  0  0
 28  6  1  0  0  0  0
 28 23  1  0  0  0  0
 30 29  1  0  0  0  0
 31 30  2  0  0  0  0
 32 30  1  0  0  0  0
M  END
>  <MODEL>
3

>  <REMARK>
 VINA RESULT:      -8.1      1.886      2.831
  Name = 
  2 active torsions:
  status: ('A' for Active; 'I' for Inactive)
    1  A    between atoms: C_1  and  C_10
    2  A    between atoms: C_10  and  C_24
                            x       y       z     vdW  Elec       q    Type
                         _______ _______ _______ _____ _____    ______ ____

>  <TORSDO>
F 2

$$$$
=
 OpenBabel11052421243D

 32 37  0  0  1  0  0  0  0  0999 V2000
  195.8520  172.5330  143.9410 C   0  0  0  0  0  2  0  0  0  0  0  0
  191.5820  175.2940  144.3170 C   0  0  0  0  0  0  0  0  0  0  0  0
  189.6220  173.2560  140.2190 C   0  0  0  0  0  2  0  0  0  0  0  0
  188.5750  174.3520  140.2240 C   0  0  0  0  0  2  0  0  0  0  0  0
  190.0500  176.4910  145.9310 C   0  0  0  0  0  0  0  0  0  0  0  0
  188.7510  176.9320  146.1840 C   0  0  0  0  0  0  0  0  0  0  0  0
  193.9680  174.9550  144.7930 C   0  0  0  0  0  0  0  0  0  0  0  0
  193.0200  174.1380  142.7200 C   0  0  0  0  0  3  0  0  0  0  0  0
  186.6360  177.2950  145.9030 C   0  0  0  0  0  0  0  0  0  0  0  0
  195.4360  173.7460  143.1030 C   0  0  0  0  0  2  0  0  0  0  0  0
  190.8960  173.7910  140.8550 C   0  0  0  0  0  2  0  0  0  0  0  0
  191.7500  174.6200  143.0790 C   0  0  0  0  0  0  0  0  0  0  0  0
  190.6630  174.4310  142.2090 C   0  0  0  0  0  0  0  0  0  0  0  0
  189.2010  175.6000  143.7810 C   0  0  0  0  0  0  0  0  0  0  0  0
  187.0200  177.7930  147.0620 O   0  0  0  0  0  0  0  0  0  0  0  0
  196.2710  174.2260  145.7590 C   0  0  0  0  0  2  0  0  0  0  0  0
  194.1240  174.3040  143.5530 C   0  0  0  0  0  0  0  0  0  0  0  0
  188.2960  177.5930  147.2680 N   0  0  0  0  0  0  0  0  0  0  0  0
  195.0920  175.2080  145.7730 C   0  0  0  0  0  2  0  0  0  0  0  0
  195.8370  172.7960  145.4500 C   0  0  2  0  0  3  0  0  0  0  0  0
  188.1930  174.6590  141.6650 C   0  0  0  0  0  2  0  0  0  0  0  0
  189.3900  174.9320  142.5540 C   0  0  0  0  0  0  0  0  0  0  0  0
  187.9110  176.0730  144.1060 C   0  0  0  0  0  3  0  0  0  0  0  0
  192.7090  175.4430  145.1440 C   0  0  0  0  0  3  0  0  0  0  0  0
  191.0840  176.7750  146.9750 C   0  0  0  0  0  1  0  0  0  0  0  0
  185.2490  177.3520  145.3650 C   0  0  0  0  0  1  0  0  0  0  0  0
  190.3010  175.7980  144.6920 C   0  0  0  0  0  0  0  0  0  0  0  0
  187.7340  176.7290  145.3090 C   0  0  0  0  0  0  0  0  0  0  0  0
  196.7520  171.7970  146.1380 C   0  0  0  0  0  2  0  0  0  0  0  0
  196.2280  170.4110  145.9890 C   0  0  0  0  0  0  0  0  0  0  0  0
  194.9200  170.1180  146.3540 O   0  0  0  0  0  1  0  0  0  0  0  0
  196.9600  169.5090  145.5030 O   0  0  0  0  0  0  0  0  0  0  0  0
  1 20  1  0  0  0  0
  2 27  1  0  0  0  0
  2 24  1  0  0  0  0
  3  4  1  0  0  0  0
  3 11  1  0  0  0  0
  4 21  1  0  0  0  0
  5  6  1  0  0  0  0
  5 25  1  0  0  0  0
  6 18  2  0  0  0  0
  7 24  2  0  0  0  0
  7 19  1  0  0  0  0
  8 12  1  0  0  0  0
  8 17  2  0  0  0  0
  9 15  1  0  0  0  0
 10 17  1  0  0  0  0
 10  1  1  0  0  0  0
 11 13  1  0  0  0  0
 12  2  2  0  0  0  0
 13 22  2  0  0  0  0
 13 12  1  0  0  0  0
 14 23  2  0  0  0  0
 14 27  1  0  0  0  0
 15 18  1  0  0  0  0
 16 19  1  0  0  0  0
 17  7  1  0  0  0  0
 20 16  1  0  0  0  0
 20 29  1  1  0  0  0
 21 22  1  0  0  0  0
 22 14  1  0  0  0  0
 23 28  1  0  0  0  0
 26  9  1  0  0  0  0
 27  5  2  0  0  0  0
 28  9  2  0  0  0  0
 28  6  1  0  0  0  0
 30 29  1  0  0  0  0
 30 31  1  0  0  0  0
 32 30  2  0  0  0  0
M  END
>  <MODEL>
4

>  <REMARK>
 VINA RESULT:      -8.1      3.472      6.054
  Name = 
  2 active torsions:
  status: ('A' for Active; 'I' for Inactive)
    1  A    between atoms: C_1  and  C_10
    2  A    between atoms: C_10  and  C_24
                            x       y       z     vdW  Elec       q    Type
                         _______ _______ _______ _____ _____    ______ ____

>  <TORSDO>
F 2

$$$$
=
 OpenBabel11052421243D

 32 37  0  0  1  0  0  0  0  0999 V2000
  187.3600  177.8020  145.7380 C   0  0  0  0  0  2  0  0  0  0  0  0
  190.5540  174.2950  143.8680 C   0  0  0  0  0  0  0  0  0  0  0  0
  194.3940  176.0400  146.5130 C   0  0  0  0  0  2  0  0  0  0  0  0
  195.3160  175.2020  145.6500 C   0  0  0  0  0  2  0  0  0  0  0  0
  190.7030  171.9650  142.9010 C   0  0  0  0  0  0  0  0  0  0  0  0
  191.5030  170.8380  142.7140 C   0  0  0  0  0  0  0  0  0  0  0  0
  188.5130  175.6510  143.6920 C   0  0  0  0  0  0  0  0  0  0  0  0
  190.4660  176.5430  144.8120 C   0  0  0  0  0  3  0  0  0  0  0  0
  193.2250  169.5290  142.8000 C   0  0  0  0  0  0  0  0  0  0  0  0
  188.4590  177.9910  144.6890 C   0  0  0  0  0  2  0  0  0  0  0  0
  193.1700  176.4230  145.6950 C   0  0  0  0  0  2  0  0  0  0  0  0
  191.1790  175.3570  144.5720 C   0  0  0  0  0  0  0  0  0  0  0  0
  192.5030  175.2370  145.0290 C   0  0  0  0  0  0  0  0  0  0  0  0
  192.6270  172.9890  144.0790 C   0  0  0  0  0  0  0  0  0  0  0  0
  192.2420  168.9250  142.1620 O   0  0  0  0  0  0  0  0  0  0  0  0
  186.1130  176.6380  143.8830 C   0  0  0  0  0  2  0  0  0  0  0  0
  189.1520  176.7040  144.3770 C   0  0  0  0  0  0  0  0  0  0  0  0
  191.1810  169.6870  142.0900 N   0  0  0  0  0  0  0  0  0  0  0  0
  187.0990  175.7120  143.1580 C   0  0  0  0  0  2  0  0  0  0  0  0
  186.3630  176.6930  145.3880 C   0  0  2  0  0  3  0  0  0  0  0  0
  194.6290  173.8810  145.3350 C   0  0  0  0  0  2  0  0  0  0  0  0
  193.2310  174.0560  144.7720 C   0  0  0  0  0  0  0  0  0  0  0  0
  193.3770  171.8130  143.8530 C   0  0  0  0  0  3  0  0  0  0  0  0
  189.2260  174.4770  143.4450 C   0  0  0  0  0  3  0  0  0  0  0  0
  189.3120  171.9160  142.3510 C   0  0  0  0  0  1  0  0  0  0  0  0
  194.5680  168.9410  143.0550 C   0  0  0  0  0  1  0  0  0  0  0  0
  191.2680  173.0880  143.6070 C   0  0  0  0  0  0  0  0  0  0  0  0
  192.7790  170.7720  143.1710 C   0  0  0  0  0  0  0  0  0  0  0  0
  185.0640  176.9380  146.1370 C   0  0  0  0  0  2  0  0  0  0  0  0
  184.7740  178.3960  146.2290 C   0  0  0  0  0  0  0  0  0  0  0  0
  184.1110  179.0410  145.1940 O   0  0  0  0  0  0  0  0  0  0  0  0
  185.1030  179.0400  147.2600 O   0  0  0  0  0  1  0  0  0  0  0  0
  2 12  1  0  0  0  0
  4  3  1  0  0  0  0
  5 27  2  0  0  0  0
  6  5  1  0  0  0  0
  6 28  1  0  0  0  0
  7 17  2  0  0  0  0
  9 26  1  0  0  0  0
  9 28  2  0  0  0  0
 10  1  1  0  0  0  0
 11  3  1  0  0  0  0
 12  8  2  0  0  0  0
 12 13  1  0  0  0  0
 13 11  1  0  0  0  0
 14 22  1  0  0  0  0
 15  9  1  0  0  0  0
 16 20  1  0  0  0  0
 17 10  1  0  0  0  0
 17  8  1  0  0  0  0
 18 15  1  0  0  0  0
 18  6  2  0  0  0  0
 19  7  1  0  0  0  0
 19 16  1  0  0  0  0
 20  1  1  0  0  0  0
 20 29  1  1  0  0  0
 21  4  1  0  0  0  0
 22 13  2  0  0  0  0
 22 21  1  0  0  0  0
 23 14  2  0  0  0  0
 24  7  1  0  0  0  0
 24  2  2  0  0  0  0
 25  5  1  0  0  0  0
 27  2  1  0  0  0  0
 27 14  1  0  0  0  0
 28 23  1  0  0  0  0
 29 30  1  0  0  0  0
 30 32  1  0  0  0  0
 31 30  2  0  0  0  0
M  END
>  <MODEL>
5

>  <REMARK>
 VINA RESULT:      -8.1      3.630      8.202
  Name = 
  2 active torsions:
  status: ('A' for Active; 'I' for Inactive)
    1  A    between atoms: C_1  and  C_10
    2  A    between atoms: C_10  and  C_24
                            x       y       z     vdW  Elec       q    Type
                         _______ _______ _______ _____ _____    ______ ____

>  <TORSDO>
F 2

$$$$
=
 OpenBabel11052421243D

 32 37  0  0  1  0  0  0  0  0999 V2000
  191.2930  172.9560  138.1250 C   0  0  0  0  0  2  0  0  0  0  0  0
  188.2710  175.2190  141.5520 C   0  0  0  0  0  0  0  0  0  0  0  0
  191.1270  173.7820  145.3690 C   0  0  0  0  0  2  0  0  0  0  0  0
  190.0020  174.1750  146.3060 C   0  0  0  0  0  2  0  0  0  0  0  0
  186.6250  177.1030  141.9080 C   0  0  0  0  0  0  0  0  0  0  0  0
  186.0580  177.9870  142.8250 C   0  0  0  0  0  0  0  0  0  0  0  0
  188.6270  174.1980  139.3470 C   0  0  0  0  0  0  0  0  0  0  0  0
  189.8670  173.3960  141.2660 C   0  0  0  0  0  3  0  0  0  0  0  0
  185.6480  178.9850  144.7020 C   0  0  0  0  0  0  0  0  0  0  0  0
  190.2990  172.2980  139.0870 C   0  0  0  0  0  2  0  0  0  0  0  0
  190.5310  173.3620  144.0340 C   0  0  0  0  0  2  0  0  0  0  0  0
  189.2360  174.3330  142.1000 C   0  0  0  0  0  0  0  0  0  0  0  0
  189.5660  174.3820  143.4650 C   0  0  0  0  0  0  0  0  0  0  0  0
  187.9630  176.1980  143.7870 C   0  0  0  0  0  0  0  0  0  0  0  0
  184.9050  179.5130  143.7480 O   0  0  0  0  0  0  0  0  0  0  0  0
  189.2350  173.6880  136.8690 C   0  0  0  0  0  2  0  0  0  0  0  0
  189.5700  173.3130  139.9070 C   0  0  0  0  0  0  0  0  0  0  0  0
  185.1260  178.9340  142.5960 N   0  0  0  0  0  0  0  0  0  0  0  0
  188.2100  174.1940  137.8920 C   0  0  0  0  0  2  0  0  0  0  0  0
  190.6690  174.0480  137.2510 C   0  0  2  0  0  3  0  0  0  0  0  0
  189.3290  175.4290  145.7670 C   0  0  0  0  0  2  0  0  0  0  0  0
  188.9200  175.3080  144.3120 C   0  0  0  0  0  0  0  0  0  0  0  0
  187.3460  177.1250  144.6570 C   0  0  0  0  0  3  0  0  0  0  0  0
  187.9930  175.1210  140.1790 C   0  0  0  0  0  3  0  0  0  0  0  0
  186.1580  177.1950  140.4890 C   0  0  0  0  0  1  0  0  0  0  0  0
  185.6400  179.4130  146.1270 C   0  0  0  0  0  1  0  0  0  0  0  0
  187.6140  176.1700  142.3880 C   0  0  0  0  0  0  0  0  0  0  0  0
  186.4070  177.9930  144.1360 C   0  0  0  0  0  0  0  0  0  0  0  0
  191.5220  174.2380  136.0080 C   0  0  0  0  0  2  0  0  0  0  0  0
  191.8910  175.6710  135.8350 C   0  0  0  0  0  0  0  0  0  0  0  0
  193.0740  176.1550  136.3780 O   0  0  0  0  0  1  0  0  0  0  0  0
  191.1470  176.4380  135.1700 O   0  0  0  0  0  0  0  0  0  0  0  0
  1 10  1  0  0  0  0
  2 12  1  0  0  0  0
  2 27  1  0  0  0  0
  3  4  1  0  0  0  0
  5 27  2  0  0  0  0
  5  6  1  0  0  0  0
  6 28  1  0  0  0  0
  7 17  2  0  0  0  0
  7 24  1  0  0  0  0
  8 12  2  0  0  0  0
  9 26  1  0  0  0  0
 10 17  1  0  0  0  0
 11  3  1  0  0  0  0
 12 13  1  0  0  0  0
 13 11  1  0  0  0  0
 13 22  2  0  0  0  0
 14 22  1  0  0  0  0
 14 23  2  0  0  0  0
 15  9  1  0  0  0  0
 16 20  1  0  0  0  0
 16 19  1  0  0  0  0
 17  8  1  0  0  0  0
 18  6  2  0  0  0  0
 18 15  1  0  0  0  0
 19  7  1  0  0  0  0
 20 29  1  6  0  0  0
 20  1  1  0  0  0  0
 21  4  1  0  0  0  0
 22 21  1  0  0  0  0
 24  2  2  0  0  0  0
 25  5  1  0  0  0  0
 27 14  1  0  0  0  0
 28 23  1  0  0  0  0
 28  9  2  0  0  0  0
 30 29  1  0  0  0  0
 30 31  1  0  0  0  0
 32 30  2  0  0  0  0
M  END
>  <MODEL>
6

>  <REMARK>
 VINA RESULT:      -7.9      3.544      6.540
  Name = 
  2 active torsions:
  status: ('A' for Active; 'I' for Inactive)
    1  A    between atoms: C_1  and  C_10
    2  A    between atoms: C_10  and  C_24
                            x       y       z     vdW  Elec       q    Type
                         _______ _______ _______ _____ _____    ______ ____

>  <TORSDO>
F 2

$$$$
=
 OpenBabel11052421243D

 32 37  0  0  1  0  0  0  0  0999 V2000
  187.6440  177.0570  146.6760 C   0  0  0  0  0  2  0  0  0  0  0  0
  190.1080  174.8320  142.8060 C   0  0  0  0  0  0  0  0  0  0  0  0
  193.7880  173.2390  145.7560 C   0  0  0  0  0  2  0  0  0  0  0  0
  194.5960  172.9270  144.5110 C   0  0  0  0  0  2  0  0  0  0  0  0
  189.8170  173.7590  140.5370 C   0  0  0  0  0  0  0  0  0  0  0  0
  190.3270  172.8460  139.6150 C   0  0  0  0  0  0  0  0  0  0  0  0
  188.5300  176.5070  143.6670 C   0  0  0  0  0  0  0  0  0  0  0  0
  190.4390  175.8440  145.0010 C   0  0  0  0  0  3  0  0  0  0  0  0
  191.6270  171.3560  138.7330 C   0  0  0  0  0  0  0  0  0  0  0  0
  188.9090  177.5410  145.9610 C   0  0  0  0  0  2  0  0  0  0  0  0
  192.8480  174.3960  145.4540 C   0  0  0  0  0  2  0  0  0  0  0  0
  190.8590  174.9490  144.0040 C   0  0  0  0  0  0  0  0  0  0  0  0
  192.0190  174.1800  144.2040 C   0  0  0  0  0  0  0  0  0  0  0  0
  191.7230  173.1610  142.0030 C   0  0  0  0  0  0  0  0  0  0  0  0
  190.6380  171.6280  137.9030 O   0  0  0  0  0  0  0  0  0  0  0  0
  186.4580  177.7910  144.5770 C   0  0  0  0  0  2  0  0  0  0  0  0
  189.2960  176.6250  144.8440 C   0  0  0  0  0  0  0  0  0  0  0  0
  189.8300  172.5260  138.4030 N   0  0  0  0  0  0  0  0  0  0  0  0
  187.2820  177.3110  143.3750 C   0  0  0  0  0  2  0  0  0  0  0  0
  186.4690  176.7910  145.7300 C   0  0  2  0  0  3  0  0  0  0  0  0
  193.6570  172.3970  143.4370 C   0  0  0  0  0  2  0  0  0  0  0  0
  192.4580  173.2940  143.1970 C   0  0  0  0  0  0  0  0  0  0  0  0
  192.1790  172.2530  141.0220 C   0  0  0  0  0  3  0  0  0  0  0  0
  188.9550  175.6250  142.6730 C   0  0  0  0  0  3  0  0  0  0  0  0
  188.5660  174.4880  140.1590 C   0  0  0  0  0  1  0  0  0  0  0  0
  192.7190  170.3800  138.4710 C   0  0  0  0  0  1  0  0  0  0  0  0
  190.5270  173.9350  141.7800 C   0  0  0  0  0  0  0  0  0  0  0  0
  191.4550  172.1290  139.8520 C   0  0  0  0  0  0  0  0  0  0  0  0
  185.1710  176.8660  146.5160 C   0  0  0  0  0  2  0  0  0  0  0  0
  184.6990  178.2750  146.6230 C   0  0  0  0  0  0  0  0  0  0  0  0
  183.6910  178.7370  145.7860 O   0  0  0  0  0  0  0  0  0  0  0  0
  185.1920  179.0410  147.4930 O   0  0  0  0  0  1  0  0  0  0  0  0
  2 12  1  0  0  0  0
  4  3  1  0  0  0  0
  5 27  2  0  0  0  0
  6 28  1  0  0  0  0
  6  5  1  0  0  0  0
  7 17  2  0  0  0  0
  9 28  2  0  0  0  0
 10  1  1  0  0  0  0
 11  3  1  0  0  0  0
 12 13  1  0  0  0  0
 12  8  2  0  0  0  0
 13 11  1  0  0  0  0
 14 22  1  0  0  0  0
 15 18  1  0  0  0  0
 15  9  1  0  0  0  0
 16 20  1  0  0  0  0
 17  8  1  0  0  0  0
 17 10  1  0  0  0  0
 18  6  2  0  0  0  0
 19  7  1  0  0  0  0
 19 16  1  0  0  0  0
 20 29  1  1  0  0  0
 20  1  1  0  0  0  0
 21  4  1  0  0  0  0
 22 21  1  0  0  0  0
 22 13  2  0  0  0  0
 23 14  2  0  0  0  0
 24  2  2  0  0  0  0
 24  7  1  0  0  0  0
 25  5  1  0  0  0  0
 26  9  1  0  0  0  0
 27 14  1  0  0  0  0
 27  2  1  0  0  0  0
 28 23  1  0  0  0  0
 29 30  1  0  0  0  0
 30 32  1  0  0  0  0
 31 30  2  0  0  0  0
M  END
>  <MODEL>
7

>  <REMARK>
 VINA RESULT:      -7.9      3.659      7.523
  Name = 
  2 active torsions:
  status: ('A' for Active; 'I' for Inactive)
    1  A    between atoms: C_1  and  C_10
    2  A    between atoms: C_10  and  C_24
                            x       y       z     vdW  Elec       q    Type
                         _______ _______ _______ _____ _____    ______ ____

>  <TORSDO>
F 2

$$$$
=
 OpenBabel11052421243D

 32 37  0  0  1  0  0  0  0  0999 V2000
  185.9780  177.2730  142.9520 C   0  0  0  0  0  2  0  0  0  0  0  0
  190.5590  175.1740  143.7330 C   0  0  0  0  0  0  0  0  0  0  0  0
  190.8240  173.4490  139.0700 C   0  0  0  0  0  2  0  0  0  0  0  0
  191.9910  172.5820  139.5010 C   0  0  0  0  0  2  0  0  0  0  0  0
  192.6830  175.3340  145.0930 C   0  0  0  0  0  0  0  0  0  0  0  0
  194.0510  175.0700  145.1370 C   0  0  0  0  0  0  0  0  0  0  0  0
  188.4060  176.0030  144.5760 C   0  0  0  0  0  0  0  0  0  0  0  0
  188.5360  174.9880  142.3820 C   0  0  0  0  0  3  0  0  0  0  0  0
  196.0130  174.3920  144.5230 C   0  0  0  0  0  0  0  0  0  0  0  0
  186.3170  175.7910  143.1390 C   0  0  0  0  0  2  0  0  0  0  0  0
  189.9090  173.6700  140.2650 C   0  0  0  0  0  2  0  0  0  0  0  0
  189.9160  174.7740  142.5330 C   0  0  0  0  0  0  0  0  0  0  0  0
  190.6430  174.1670  141.4940 C   0  0  0  0  0  0  0  0  0  0  0  0
  192.6830  174.3250  142.8300 C   0  0  0  0  0  0  0  0  0  0  0  0
  196.0840  174.9160  145.7310 O   0  0  0  0  0  0  0  0  0  0  0  0
  186.4140  177.4440  145.4290 C   0  0  0  0  0  2  0  0  0  0  0  0
  187.7770  175.5860  143.3860 C   0  0  0  0  0  0  0  0  0  0  0  0
  194.9150  175.3380  146.1380 N   0  0  0  0  0  0  0  0  0  0  0  0
  187.6880  176.6480  145.7410 C   0  0  0  0  0  2  0  0  0  0  0  0
  186.4910  178.1670  144.0860 C   0  0  2  0  0  3  0  0  0  0  0  0
  192.8360  173.3570  140.5020 C   0  0  0  0  0  2  0  0  0  0  0  0
  192.0250  173.9310  141.6480 C   0  0  0  0  0  0  0  0  0  0  0  0
  194.0710  174.0910  142.9460 C   0  0  0  0  0  3  0  0  0  0  0  0
  189.7750  175.7810  144.7290 C   0  0  0  0  0  3  0  0  0  0  0  0
  192.0730  175.9930  146.2900 C   0  0  0  0  0  1  0  0  0  0  0  0
  197.1620  173.8200  143.7700 C   0  0  0  0  0  1  0  0  0  0  0  0
  191.9580  174.9550  143.9050 C   0  0  0  0  0  0  0  0  0  0  0  0
  194.7080  174.4770  144.1090 C   0  0  0  0  0  0  0  0  0  0  0  0
  185.6730  179.4460  144.1190 C   0  0  0  0  0  2  0  0  0  0  0  0
  184.2480  179.1540  144.4400 C   0  0  0  0  0  0  0  0  0  0  0  0
  183.8410  179.0410  145.7630 O   0  0  0  0  0  1  0  0  0  0  0  0
  183.4040  179.0410  143.5130 O   0  0  0  0  0  0  0  0  0  0  0  0
  1 10  1  0  0  0  0
  1 20  1  0  0  0  0
  2 27  1  0  0  0  0
  2 24  1  0  0  0  0
  3  4  1  0  0  0  0
  3 11  1  0  0  0  0
  4 21  1  0  0  0  0
  5  6  1  0  0  0  0
  5 25  1  0  0  0  0
  6 18  2  0  0  0  0
  7 24  2  0  0  0  0
  7 19  1  0  0  0  0
  8 12  1  0  0  0  0
  8 17  2  0  0  0  0
  9 15  1  0  0  0  0
 10 17  1  0  0  0  0
 11 13  1  0  0  0  0
 12  2  2  0  0  0  0
 13 22  2  0  0  0  0
 13 12  1  0  0  0  0
 14 23  2  0  0  0  0
 14 27  1  0  0  0  0
 15 18  1  0  0  0  0
 16 19  1  0  0  0  0
 17  7  1  0  0  0  0
 20 29  1  1  0  0  0
 20 16  1  0  0  0  0
 21 22  1  0  0  0  0
 22 14  1  0  0  0  0
 23 28  1  0  0  0  0
 26  9  1  0  0  0  0
 27  5  2  0  0  0  0
 28  9  2  0  0  0  0
 28  6  1  0  0  0  0
 29 30  1  0  0  0  0
 30 31  1  0  0  0  0
 32 30  2  0  0  0  0
M  END
>  <MODEL>
8

>  <REMARK>
 VINA RESULT:      -7.9      3.296      8.786
  Name = 
  2 active torsions:
  status: ('A' for Active; 'I' for Inactive)
    1  A    between atoms: C_1  and  C_10
    2  A    between atoms: C_10  and  C_24
                            x       y       z     vdW  Elec       q    Type
                         _______ _______ _______ _____ _____    ______ ____

>  <TORSDO>
F 2

$$$$
=
 OpenBabel11052421243D

 32 37  0  0  1  0  0  0  0  0999 V2000
  184.2520  178.7820  143.5720 C   0  0  0  0  0  2  0  0  0  0  0  0
  188.1640  175.6900  142.5090 C   0  0  0  0  0  0  0  0  0  0  0  0
  189.6350  175.5290  147.2640 C   0  0  0  0  0  2  0  0  0  0  0  0
  190.9400  174.9160  146.7970 C   0  0  0  0  0  2  0  0  0  0  0  0
  189.0020  173.9150  140.9170 C   0  0  0  0  0  0  0  0  0  0  0  0
  189.8360  172.8100  140.7510 C   0  0  0  0  0  0  0  0  0  0  0  0
  186.5180  177.3810  141.8280 C   0  0  0  0  0  0  0  0  0  0  0  0
  187.3950  177.3880  144.0840 C   0  0  0  0  0  3  0  0  0  0  0  0
  191.2730  171.2580  141.2120 C   0  0  0  0  0  0  0  0  0  0  0  0
  185.7400  179.1360  143.4980 C   0  0  0  0  0  2  0  0  0  0  0  0
  189.0890  176.4220  146.1600 C   0  0  0  0  0  2  0  0  0  0  0  0
  188.1940  176.2660  143.8060 C   0  0  0  0  0  0  0  0  0  0  0  0
  189.0120  175.7280  144.8150 C   0  0  0  0  0  0  0  0  0  0  0  0
  189.8140  174.0250  143.2560 C   0  0  0  0  0  0  0  0  0  0  0  0
  190.8840  171.1420  139.9580 O   0  0  0  0  0  0  0  0  0  0  0  0
  184.3920  178.6690  141.0590 C   0  0  0  0  0  2  0  0  0  0  0  0
  186.5700  177.9520  143.1150 C   0  0  0  0  0  0  0  0  0  0  0  0
  190.0130  172.0650  139.6410 N   0  0  0  0  0  0  0  0  0  0  0  0
  185.6750  177.9130  140.6890 C   0  0  0  0  0  2  0  0  0  0  0  0
  183.7190  178.1030  142.3070 C   0  0  2  0  0  3  0  0  0  0  0  0
  190.6520  173.9720  145.6380 C   0  0  0  0  0  2  0  0  0  0  0  0
  189.8320  174.6140  144.5360 C   0  0  0  0  0  0  0  0  0  0  0  0
  190.6330  172.9010  143.0130 C   0  0  0  0  0  3  0  0  0  0  0  0
  187.3190  176.2730  141.5500 C   0  0  0  0  0  3  0  0  0  0  0  0
  188.1950  174.3490  139.7340 C   0  0  0  0  0  1  0  0  0  0  0  0
  192.2550  170.3680  141.8890 C   0  0  0  0  0  1  0  0  0  0  0  0
  188.9770  174.5570  142.2090 C   0  0  0  0  0  0  0  0  0  0  0  0
  190.6120  172.3300  141.7550 C   0  0  0  0  0  0  0  0  0  0  0  0
  182.2130  178.2940  142.2360 C   0  0  0  0  0  2  0  0  0  0  0  0
  181.7690  178.4740  140.8250 C   0  0  0  0  0  0  0  0  0  0  0  0
  182.1240  177.5410  139.8600 O   0  0  0  0  0  0  0  0  0  0  0  0
  181.0460  179.4560  140.5130 O   0  0  0  0  0  1  0  0  0  0  0  0
  2 12  1  0  0  0  0
  4  3  1  0  0  0  0
  5 27  2  0  0  0  0
  6  5  1  0  0  0  0
  6 28  1  0  0  0  0
  7 17  2  0  0  0  0
  9 28  2  0  0  0  0
  9 26  1  0  0  0  0
 10  1  1  0  0  0  0
 11  3  1  0  0  0  0
 12  8  2  0  0  0  0
 12 13  1  0  0  0  0
 13 11  1  0  0  0  0
 14 22  1  0  0  0  0
 15  9  1  0  0  0  0
 16 20  1  0  0  0  0
 17 10  1  0  0  0  0
 17  8  1  0  0  0  0
 18 15  1  0  0  0  0
 18  6  2  0  0  0  0
 19 16  1  0  0  0  0
 19  7  1  0  0  0  0
 20 29  1  6  0  0  0
 20  1  1  0  0  0  0
 21  4  1  0  0  0  0
 22 13  2  0  0  0  0
 22 21  1  0  0  0  0
 23 14  2  0  0  0  0
 24  7  1  0  0  0  0
 24  2  2  0  0  0  0
 25  5  1  0  0  0  0
 27  2  1  0  0  0  0
 27 14  1  0  0  0  0
 28 23  1  0  0  0  0
 30 29  1  0  0  0  0
 31 30  2  0  0  0  0
 32 30  1  0  0  0  0
M  END
>  <MODEL>
9

>  <REMARK>
 VINA RESULT:      -7.9      3.209      7.935
  Name = 
  2 active torsions:
  status: ('A' for Active; 'I' for Inactive)
    1  A    between atoms: C_1  and  C_10
    2  A    between atoms: C_10  and  C_24
                            x       y       z     vdW  Elec       q    Type
                         _______ _______ _______ _____ _____    ______ ____

>  <TORSDO>
F 2

$$$$
