=
 OpenBabel11052420223D

 34 40  0  0  1  0  0  0  0  0999 V2000
  190.4500  177.7360  143.9960 C   0  0  0  0  0  3  0  0  0  0  0  0
  189.7250  176.4410  146.5510 C   0  0  0  0  0  2  0  0  0  0  0  0
  193.3440  176.2940  145.9290 C   0  0  2  0  0  0  0  0  0  0  0  0
  192.8660  177.0480  144.6650 C   0  0  0  0  0  2  0  0  0  0  0  0
  191.3970  177.1400  144.8620 C   0  0  0  0  0  0  0  0  0  0  0  0
  187.3740  177.2820  145.5170 N   0  0  0  0  0  0  0  0  0  0  0  0
  192.1700  176.0410  146.7080 O   0  0  0  0  0  0  0  0  0  0  0  0
  191.0510  176.5300  146.0720 C   0  0  0  0  0  0  0  0  0  0  0  0
  194.3040  177.1660  146.7170 C   0  0  0  0  0  1  0  0  0  0  0  0
  188.8040  177.0260  145.6930 C   0  0  2  0  0  0  0  0  0  0  0  0
  189.1490  177.6480  144.4730 C   0  0  0  0  0  0  0  0  0  0  0  0
  187.7460  177.9270  144.3020 C   0  0  2  0  0  0  0  0  0  0  0  0
  186.3650  177.9240  140.3540 C   0  0  0  0  0  2  0  0  0  0  0  0
  188.0640  177.3750  141.9800 O   0  0  0  0  0  0  0  0  0  0  0  0
  185.2430  177.7370  141.3590 C   0  0  1  0  0  3  0  0  0  0  0  0
  184.8320  177.7040  143.7390 O   0  0  0  0  0  1  0  0  0  0  0  0
  185.7920  177.9910  142.7650 C   0  0  1  0  0  3  0  0  0  0  0  0
  187.5050  176.9990  140.7410 C   0  0  0  0  0  2  0  0  0  0  0  0
  187.1300  177.2430  143.0530 C   0  0  2  0  0  0  0  0  0  0  0  0
  184.1580  178.6660  141.0600 N   0  0  0  0  0  0  0  0  0  0  0  0
  182.9310  178.1220  141.6690 C   0  0  0  0  0  2  0  0  0  0  0  0
  183.1710  177.9350  140.2450 C   0  0  0  0  0  2  0  0  0  0  0  0
  186.9160  175.7570  143.4550 C   0  0  0  0  0  2  0  0  0  0  0  0
  189.1630  174.4960  143.4050 C   0  0  0  0  0  3  0  0  0  0  0  0
  189.2300  172.3480  142.1930 C   0  0  0  0  0  2  0  0  0  0  0  0
  189.8500  173.3970  143.0770 C   0  0  0  0  0  3  0  0  0  0  0  0
  187.3840  173.9860  141.8150 C   0  0  0  0  0  3  0  0  0  0  0  0
  187.8220  174.7400  142.8310 C   0  0  0  0  0  0  0  0  0  0  0  0
  188.3040  172.9930  141.1560 C   0  0  0  0  0  2  0  0  0  0  0  0
  194.0170  175.0070  145.5570 C   0  0  0  0  0  0  0  0  0  0  0  0
  193.3330  174.0460  144.8210 O   0  0  0  0  0  0  0  0  0  0  0  0
  195.2220  174.8070  145.8650 O   0  0  0  0  0  1  0  0  0  0  0  0
  186.1580  177.0320  146.2690 C   0  0  0  0  0  2  0  0  0  0  0  0
  186.4270  177.1140  147.6340 O   0  0  0  0  0  1  0  0  0  0  0  0
  1 11  2  0  0  0  0
  1  5  1  0  0  0  0
  3  7  1  0  0  0  0
  3  9  1  1  0  0  0
  4  5  1  0  0  0  0
  4  3  1  0  0  0  0
  5  8  2  0  0  0  0
  6 10  1  0  0  0  0
  6 33  1  0  0  0  0
  8  2  1  0  0  0  0
  8  7  1  0  0  0  0
 10  2  1  1  0  0  0
 11 10  1  0  0  0  0
 12 11  1  1  0  0  0
 12  6  1  0  0  0  0
 12 10  1  0  0  0  0
 13 18  1  0  0  0  0
 14 19  1  0  0  0  0
 15 13  1  6  0  0  0
 15 17  1  0  0  0  0
 17 19  1  0  0  0  0
 17 16  1  1  0  0  0
 18 14  1  0  0  0  0
 19 23  1  1  0  0  0
 19 12  1  0  0  0  0
 20 15  1  0  0  0  0
 20 21  1  0  0  0  0
 22 20  1  0  0  0  0
 22 21  1  0  0  0  0
 25 26  1  0  0  0  0
 26 24  2  0  0  0  0
 27 28  2  0  0  0  0
 28 24  1  0  0  0  0
 28 23  1  0  0  0  0
 29 27  1  0  0  0  0
 29 25  1  0  0  0  0
 30 32  1  0  0  0  0
 30  3  1  0  0  0  0
 31 30  2  0  0  0  0
 33 34  1  0  0  0  0
M  END
>  <MODEL>
1

>  <REMARK>
 VINA RESULT:      -7.6      0.000      0.000
  Name = 
  6 active torsions:
  status: ('A' for Active; 'I' for Inactive)
    1  A    between atoms: C_1  and  C_20
    2  A    between atoms: C_1  and  C_34
    3  A    between atoms: N_3  and  C_23
    4  A    between atoms: C_7  and  C_11
    5  A    between atoms: C_8  and  N_18
    6  A    between atoms: C_33  and  C_34
                            x       y       z     vdW  Elec       q    Type
                         _______ _______ _______ _____ _____    ______ ____

>  <TORSDO>
F 6

$$$$
=
 OpenBabel11052420223D

 34 40  0  0  1  0  0  0  0  0999 V2000
  189.4040  173.3650  142.5250 C   0  0  0  0  0  3  0  0  0  0  0  0
  188.2900  174.8690  140.2380 C   0  0  0  0  0  2  0  0  0  0  0  0
  190.2660  171.9750  139.1310 C   0  0  2  0  0  0  0  0  0  0  0  0
  190.4030  171.8440  140.6670 C   0  0  0  0  0  2  0  0  0  0  0  0
  189.6150  172.9970  141.1750 C   0  0  0  0  0  0  0  0  0  0  0  0
  187.4570  176.2240  142.4230 N   0  0  0  0  0  0  0  0  0  0  0  0
  189.4460  173.1250  138.9010 O   0  0  0  0  0  0  0  0  0  0  0  0
  189.0840  173.7090  140.0950 C   0  0  0  0  0  0  0  0  0  0  0  0
  189.5870  170.7400  138.5680 C   0  0  0  0  0  1  0  0  0  0  0  0
  188.0910  175.2230  141.5660 C   0  0  2  0  0  0  0  0  0  0  0  0
  188.6210  174.5040  142.6600 C   0  0  0  0  0  0  0  0  0  0  0  0
  187.9790  175.4700  143.5140 C   0  0  2  0  0  0  0  0  0  0  0  0
  191.6360  177.3870  144.1780 C   0  0  0  0  0  2  0  0  0  0  0  0
  189.2770  177.4910  143.6710 O   0  0  0  0  0  0  0  0  0  0  0  0
  191.4680  176.1470  145.0390 C   0  0  1  0  0  3  0  0  0  0  0  0
  189.9550  174.3010  145.4090 O   0  0  0  0  0  1  0  0  0  0  0  0
  190.2300  175.3820  144.5650 C   0  0  1  0  0  3  0  0  0  0  0  0
  190.3520  178.1930  144.2550 C   0  0  0  0  0  2  0  0  0  0  0  0
  188.9750  176.2870  144.3780 C   0  0  2  0  0  0  0  0  0  0  0  0
  192.6580  175.3100  144.9290 N   0  0  0  0  0  0  0  0  0  0  0  0
  192.9050  174.7180  146.2570 C   0  0  0  0  0  2  0  0  0  0  0  0
  193.6750  175.8780  145.8330 C   0  0  0  0  0  2  0  0  0  0  0  0
  188.2310  176.5720  145.7130 C   0  0  0  0  0  2  0  0  0  0  0  0
  185.6710  176.6270  145.9950 C   0  0  0  0  0  3  0  0  0  0  0  0
  184.6030  178.8380  146.2310 C   0  0  0  0  0  2  0  0  0  0  0  0
  184.5620  177.3330  146.2360 C   0  0  0  0  0  3  0  0  0  0  0  0
  186.9170  178.6120  145.3200 C   0  0  0  0  0  3  0  0  0  0  0  0
  186.9310  177.3090  145.6310 C   0  0  0  0  0  0  0  0  0  0  0  0
  185.6100  179.3490  145.1940 C   0  0  0  0  0  2  0  0  0  0  0  0
  191.6100  172.1500  138.4920 C   0  0  0  0  0  0  0  0  0  0  0  0
  191.8400  171.6850  137.2020 O   0  0  0  0  0  0  0  0  0  0  0  0
  192.5280  172.7650  139.0990 O   0  0  0  0  0  1  0  0  0  0  0  0
  186.6340  177.4050  142.2330 C   0  0  0  0  0  2  0  0  0  0  0  0
  185.3030  177.0990  142.5100 O   0  0  0  0  0  1  0  0  0  0  0  0
  1 11  2  0  0  0  0
  3  9  1  6  0  0  0
  3  4  1  0  0  0  0
  4  5  1  0  0  0  0
  5  1  1  0  0  0  0
  6 12  1  0  0  0  0
  7  3  1  0  0  0  0
  7  8  1  0  0  0  0
  8  2  1  0  0  0  0
  8  5  2  0  0  0  0
 10  2  1  6  0  0  0
 10  6  1  0  0  0  0
 10 11  1  0  0  0  0
 10 12  1  0  0  0  0
 12 11  1  1  0  0  0
 12 19  1  0  0  0  0
 13 18  1  0  0  0  0
 14 18  1  0  0  0  0
 14 19  1  0  0  0  0
 15 13  1  6  0  0  0
 17 15  1  0  0  0  0
 17 16  1  1  0  0  0
 19 17  1  0  0  0  0
 19 23  1  1  0  0  0
 20 15  1  0  0  0  0
 20 22  1  0  0  0  0
 20 21  1  0  0  0  0
 22 21  1  0  0  0  0
 24 26  2  0  0  0  0
 25 26  1  0  0  0  0
 27 28  2  0  0  0  0
 28 23  1  0  0  0  0
 28 24  1  0  0  0  0
 29 27  1  0  0  0  0
 29 25  1  0  0  0  0
 30 32  1  0  0  0  0
 30  3  1  0  0  0  0
 31 30  2  0  0  0  0
 33  6  1  0  0  0  0
 33 34  1  0  0  0  0
M  END
>  <MODEL>
2

>  <REMARK>
 VINA RESULT:      -7.5      2.849      6.892
  Name = 
  6 active torsions:
  status: ('A' for Active; 'I' for Inactive)
    1  A    between atoms: C_1  and  C_20
    2  A    between atoms: C_1  and  C_34
    3  A    between atoms: N_3  and  C_23
    4  A    between atoms: C_7  and  C_11
    5  A    between atoms: C_8  and  N_18
    6  A    between atoms: C_33  and  C_34
                            x       y       z     vdW  Elec       q    Type
                         _______ _______ _______ _____ _____    ______ ____

>  <TORSDO>
F 6

$$$$
=
 OpenBabel11052420223D

 34 40  0  0  1  0  0  0  0  0999 V2000
  188.7350  177.5410  143.7600 C   0  0  0  0  0  3  0  0  0  0  0  0
  186.6970  175.7540  142.5830 C   0  0  0  0  0  2  0  0  0  0  0  0
  185.1910  178.2490  144.8210 C   0  0  2  0  0  0  0  0  0  0  0  0
  186.6860  178.6330  144.9290 C   0  0  0  0  0  2  0  0  0  0  0  0
  187.3510  177.6510  144.0350 C   0  0  0  0  0  0  0  0  0  0  0  0
  189.0470  174.8680  141.5830 N   0  0  0  0  0  0  0  0  0  0  0  0
  185.1280  177.1430  143.9140 O   0  0  0  0  0  0  0  0  0  0  0  0
  186.3890  176.8050  143.4750 C   0  0  0  0  0  0  0  0  0  0  0  0
  184.3980  179.4160  144.2630 C   0  0  0  0  0  1  0  0  0  0  0  0
  188.0570  175.6530  142.3210 C   0  0  2  0  0  0  0  0  0  0  0  0
  189.0320  176.5070  142.8810 C   0  0  0  0  0  0  0  0  0  0  0  0
  190.0120  175.7570  142.1380 C   0  0  2  0  0  0  0  0  0  0  0  0
  191.7650  174.8680  145.8300 C   0  0  0  0  0  2  0  0  0  0  0  0
  190.3130  174.2590  143.9980 O   0  0  0  0  0  0  0  0  0  0  0  0
  192.6930  175.6570  144.9240 C   0  0  1  0  0  3  0  0  0  0  0  0
  192.7390  176.7650  142.7780 O   0  0  0  0  0  1  0  0  0  0  0  0
  191.9000  176.1440  143.7090 C   0  0  1  0  0  3  0  0  0  0  0  0
  191.1480  173.7470  145.0130 C   0  0  0  0  0  2  0  0  0  0  0  0
  191.0420  175.0280  143.0390 C   0  0  2  0  0  0  0  0  0  0  0  0
  193.2470  176.7900  145.6580 N   0  0  0  0  0  0  0  0  0  0  0  0
  194.6590  176.9280  145.2580 C   0  0  0  0  0  2  0  0  0  0  0  0
  194.3290  176.2680  146.5130 C   0  0  0  0  0  2  0  0  0  0  0  0
  191.8680  174.1240  142.0820 C   0  0  0  0  0  2  0  0  0  0  0  0
  191.4250  171.6040  142.3860 C   0  0  0  0  0  3  0  0  0  0  0  0
  193.3700  170.1590  142.8510 C   0  0  0  0  0  2  0  0  0  0  0  0
  191.9110  170.3690  142.5450 C   0  0  0  0  0  3  0  0  0  0  0  0
  193.4950  172.6330  143.1640 C   0  0  0  0  0  3  0  0  0  0  0  0
  192.2910  172.7830  142.5970 C   0  0  0  0  0  0  0  0  0  0  0  0
  193.9090  171.2980  143.7240 C   0  0  0  0  0  2  0  0  0  0  0  0
  184.6450  177.8600  146.1630 C   0  0  0  0  0  0  0  0  0  0  0  0
  184.8200  176.5670  146.6430 O   0  0  0  0  0  0  0  0  0  0  0  0
  184.0660  178.7140  146.8860 O   0  0  0  0  0  1  0  0  0  0  0  0
  189.0290  173.7400  140.6690 C   0  0  0  0  0  2  0  0  0  0  0  0
  188.2370  172.7220  141.1980 O   0  0  0  0  0  1  0  0  0  0  0  0
  1  5  1  0  0  0  0
  2  8  1  0  0  0  0
  3  9  1  6  0  0  0
  3  4  1  0  0  0  0
  3 30  1  0  0  0  0
  5  4  1  0  0  0  0
  6 12  1  0  0  0  0
  6 10  1  0  0  0  0
  7  3  1  0  0  0  0
  8  7  1  0  0  0  0
  8  5  2  0  0  0  0
 10  2  1  6  0  0  0
 10 11  1  0  0  0  0
 11  1  2  0  0  0  0
 12 10  1  0  0  0  0
 12 11  1  6  0  0  0
 12 19  1  0  0  0  0
 14 18  1  0  0  0  0
 15 20  1  1  0  0  0
 15 13  1  0  0  0  0
 17 16  1  6  0  0  0
 17 15  1  0  0  0  0
 18 13  1  0  0  0  0
 19 23  1  6  0  0  0
 19 17  1  0  0  0  0
 19 14  1  0  0  0  0
 20 22  1  0  0  0  0
 21 20  1  0  0  0  0
 21 22  1  0  0  0  0
 23 28  1  0  0  0  0
 24 26  2  0  0  0  0
 24 28  1  0  0  0  0
 25 29  1  0  0  0  0
 26 25  1  0  0  0  0
 27 29  1  0  0  0  0
 28 27  2  0  0  0  0
 30 31  2  0  0  0  0
 30 32  1  0  0  0  0
 33 34  1  0  0  0  0
 33  6  1  0  0  0  0
M  END
>  <MODEL>
3

>  <REMARK>
 VINA RESULT:      -7.4      2.684      7.243
  Name = 
  6 active torsions:
  status: ('A' for Active; 'I' for Inactive)
    1  A    between atoms: C_1  and  C_20
    2  A    between atoms: C_1  and  C_34
    3  A    between atoms: N_3  and  C_23
    4  A    between atoms: C_7  and  C_11
    5  A    between atoms: C_8  and  N_18
    6  A    between atoms: C_33  and  C_34
                            x       y       z     vdW  Elec       q    Type
                         _______ _______ _______ _____ _____    ______ ____

>  <TORSDO>
F 6

$$$$
=
 OpenBabel11052420223D

 34 40  0  0  1  0  0  0  0  0999 V2000
  189.3880  177.2120  142.2450 C   0  0  0  0  0  3  0  0  0  0  0  0
  187.5050  174.9640  142.6130 C   0  0  0  0  0  2  0  0  0  0  0  0
  185.7470  178.1780  142.3150 C   0  0  2  0  0  0  0  0  0  0  0  0
  187.2180  178.6430  142.1830 C   0  0  0  0  0  2  0  0  0  0  0  0
  187.9830  177.3740  142.2950 C   0  0  0  0  0  0  0  0  0  0  0  0
  189.9540  173.8230  142.6590 N   0  0  0  0  0  0  0  0  0  0  0  0
  185.7920  176.7560  142.4720 O   0  0  0  0  0  0  0  0  0  0  0  0
  187.0940  176.3080  142.4660 C   0  0  0  0  0  0  0  0  0  0  0  0
  184.9810  178.5300  141.0540 C   0  0  0  0  0  1  0  0  0  0  0  0
  188.8850  174.8160  142.5650 C   0  0  2  0  0  0  0  0  0  0  0  0
  189.7860  175.8890  142.3880 C   0  0  0  0  0  0  0  0  0  0  0  0
  190.8450  174.9160  142.4530 C   0  0  2  0  0  0  0  0  0  0  0  0
  194.3320  176.4160  144.2090 C   0  0  0  0  0  2  0  0  0  0  0  0
  191.9470  176.5400  143.8460 O   0  0  0  0  0  0  0  0  0  0  0  0
  194.3380  174.9010  144.1130 C   0  0  1  0  0  3  0  0  0  0  0  0
  193.0380  173.0620  143.2400 O   0  0  0  0  0  1  0  0  0  0  0  0
  193.1540  174.4550  143.2520 C   0  0  1  0  0  3  0  0  0  0  0  0
  192.9820  176.8490  144.7530 C   0  0  0  0  0  2  0  0  0  0  0  0
  191.8070  175.1320  143.6500 C   0  0  2  0  0  0  0  0  0  0  0  0
  195.5950  174.4530  143.5230 N   0  0  0  0  0  0  0  0  0  0  0  0
  196.0130  173.2370  144.2450 C   0  0  0  0  0  2  0  0  0  0  0  0
  196.6200  174.5170  144.5810 C   0  0  0  0  0  2  0  0  0  0  0  0
  191.1230  174.4450  144.8640 C   0  0  0  0  0  2  0  0  0  0  0  0
  191.4050  175.5320  147.1830 C   0  0  0  0  0  3  0  0  0  0  0  0
  190.0670  177.5480  147.6610 C   0  0  0  0  0  2  0  0  0  0  0  0
  191.1310  176.5440  148.0130 C   0  0  0  0  0  3  0  0  0  0  0  0
  189.4710  176.0190  145.7800 C   0  0  0  0  0  3  0  0  0  0  0  0
  190.6070  175.3320  145.9550 C   0  0  0  0  0  0  0  0  0  0  0  0
  188.9250  176.8790  146.8880 C   0  0  0  0  0  2  0  0  0  0  0  0
  185.0930  178.8190  143.5020 C   0  0  0  0  0  0  0  0  0  0  0  0
  185.5660  180.0290  143.9950 O   0  0  0  0  0  0  0  0  0  0  0  0
  184.0790  178.2910  144.0320 O   0  0  0  0  0  1  0  0  0  0  0  0
  190.0440  172.3840  142.8310 C   0  0  0  0  0  2  0  0  0  0  0  0
  188.9410  171.9290  143.5510 O   0  0  0  0  0  1  0  0  0  0  0  0
  1  5  1  0  0  0  0
  1 11  2  0  0  0  0
  3  9  1  6  0  0  0
  3  7  1  0  0  0  0
  3 30  1  0  0  0  0
  4  5  1  0  0  0  0
  4  3  1  0  0  0  0
  5  8  2  0  0  0  0
  6 33  1  0  0  0  0
  8  7  1  0  0  0  0
  8  2  1  0  0  0  0
 10  2  1  6  0  0  0
 10  6  1  0  0  0  0
 11 10  1  0  0  0  0
 12 11  1  6  0  0  0
 12 10  1  0  0  0  0
 12  6  1  0  0  0  0
 12 19  1  0  0  0  0
 13 18  1  0  0  0  0
 14 18  1  0  0  0  0
 15 20  1  6  0  0  0
 15 13  1  0  0  0  0
 17 16  1  1  0  0  0
 17 19  1  0  0  0  0
 17 15  1  0  0  0  0
 19 14  1  0  0  0  0
 19 23  1  1  0  0  0
 20 21  1  0  0  0  0
 20 22  1  0  0  0  0
 21 22  1  0  0  0  0
 23 28  1  0  0  0  0
 24 26  2  0  0  0  0
 25 26  1  0  0  0  0
 27 28  2  0  0  0  0
 27 29  1  0  0  0  0
 28 24  1  0  0  0  0
 29 25  1  0  0  0  0
 30 31  2  0  0  0  0
 30 32  1  0  0  0  0
 33 34  1  0  0  0  0
M  END
>  <MODEL>
4

>  <REMARK>
 VINA RESULT:      -7.4      2.588      7.848
  Name = 
  6 active torsions:
  status: ('A' for Active; 'I' for Inactive)
    1  A    between atoms: C_1  and  C_20
    2  A    between atoms: C_1  and  C_34
    3  A    between atoms: N_3  and  C_23
    4  A    between atoms: C_7  and  C_11
    5  A    between atoms: C_8  and  N_18
    6  A    between atoms: C_33  and  C_34
                            x       y       z     vdW  Elec       q    Type
                         _______ _______ _______ _____ _____    ______ ____

>  <TORSDO>
F 6

$$$$
=
 OpenBabel11052420223D

 34 40  0  0  1  0  0  0  0  0999 V2000
  188.1580  175.6740  145.7470 C   0  0  0  0  0  3  0  0  0  0  0  0
  188.6160  178.1170  147.3460 C   0  0  0  0  0  2  0  0  0  0  0  0
  185.3250  178.1580  145.7100 C   0  0  2  0  0  0  0  0  0  0  0  0
  185.8710  176.7940  145.2210 C   0  0  0  0  0  2  0  0  0  0  0  0
  187.2110  176.7200  145.8590 C   0  0  0  0  0  0  0  0  0  0  0  0
  190.8810  176.6710  147.6370 N   0  0  0  0  0  0  0  0  0  0  0  0
  186.3410  178.7150  146.5490 O   0  0  0  0  0  0  0  0  0  0  0  0
  187.4290  177.8740  146.6180 C   0  0  0  0  0  0  0  0  0  0  0  0
  184.0550  177.9470  146.5130 C   0  0  0  0  0  1  0  0  0  0  0  0
  189.5390  177.0860  147.2280 C   0  0  2  0  0  0  0  0  0  0  0  0
  189.3210  175.9180  146.4660 C   0  0  0  0  0  0  0  0  0  0  0  0
  190.6310  175.4880  146.8830 C   0  0  2  0  0  0  0  0  0  0  0  0
  191.8420  176.0170  142.9150 C   0  0  0  0  0  2  0  0  0  0  0  0
  191.9940  176.6140  145.2510 O   0  0  0  0  0  0  0  0  0  0  0  0
  191.5240  174.5670  143.2350 C   0  0  1  0  0  3  0  0  0  0  0  0
  190.6720  173.1720  145.0130 O   0  0  0  0  0  1  0  0  0  0  0  0
  190.8660  174.4980  144.6140 C   0  0  1  0  0  3  0  0  0  0  0  0
  192.7070  176.5690  144.0340 C   0  0  0  0  0  2  0  0  0  0  0  0
  191.6250  175.3110  145.7060 C   0  0  2  0  0  0  0  0  0  0  0  0
  190.6310  174.0260  142.2160 N   0  0  0  0  0  0  0  0  0  0  0  0
  191.0230  172.6230  141.9860 C   0  0  0  0  0  2  0  0  0  0  0  0
  191.4660  173.6540  141.0580 C   0  0  0  0  0  2  0  0  0  0  0  0
  192.8390  174.5410  146.2980 C   0  0  0  0  0  2  0  0  0  0  0  0
  195.1730  175.2550  145.4740 C   0  0  0  0  0  3  0  0  0  0  0  0
  196.5410  173.5520  144.3270 C   0  0  0  0  0  2  0  0  0  0  0  0
  196.3480  174.9160  144.9340 C   0  0  0  0  0  3  0  0  0  0  0  0
  194.0780  173.2550  144.6080 C   0  0  0  0  0  3  0  0  0  0  0  0
  194.0210  174.3310  145.4030 C   0  0  0  0  0  0  0  0  0  0  0  0
  195.2430  173.0610  143.6750 C   0  0  0  0  0  2  0  0  0  0  0  0
  185.0470  179.0640  144.5480 C   0  0  0  0  0  0  0  0  0  0  0  0
  184.0790  178.7230  143.6100 O   0  0  0  0  0  0  0  0  0  0  0  0
  185.6510  180.1650  144.4400 O   0  0  0  0  0  1  0  0  0  0  0  0
  191.9420  177.2070  148.4700 C   0  0  0  0  0  2  0  0  0  0  0  0
  191.3930  178.0000  149.4760 O   0  0  0  0  0  1  0  0  0  0  0  0
  1  5  1  0  0  0  0
  1 11  2  0  0  0  0
  3  9  1  1  0  0  0
  3  7  1  0  0  0  0
  4  3  1  0  0  0  0
  4  5  1  0  0  0  0
  5  8  2  0  0  0  0
  6 33  1  0  0  0  0
  7  8  1  0  0  0  0
  8  2  1  0  0  0  0
 10  2  1  1  0  0  0
 10  6  1  0  0  0  0
 11 10  1  0  0  0  0
 12 11  1  1  0  0  0
 12 10  1  0  0  0  0
 12  6  1  0  0  0  0
 13 15  1  0  0  0  0
 13 18  1  0  0  0  0
 14 19  1  0  0  0  0
 15 20  1  6  0  0  0
 15 17  1  0  0  0  0
 17 16  1  1  0  0  0
 17 19  1  0  0  0  0
 18 14  1  0  0  0  0
 19 23  1  1  0  0  0
 19 12  1  0  0  0  0
 21 20  1  0  0  0  0
 22 21  1  0  0  0  0
 22 20  1  0  0  0  0
 25 26  1  0  0  0  0
 26 24  2  0  0  0  0
 27 28  2  0  0  0  0
 28 24  1  0  0  0  0
 28 23  1  0  0  0  0
 29 25  1  0  0  0  0
 29 27  1  0  0  0  0
 30  3  1  0  0  0  0
 31 30  2  0  0  0  0
 32 30  1  0  0  0  0
 33 34  1  0  0  0  0
M  END
>  <MODEL>
5

>  <REMARK>
 VINA RESULT:      -7.2      3.067      6.946
  Name = 
  6 active torsions:
  status: ('A' for Active; 'I' for Inactive)
    1  A    between atoms: C_1  and  C_20
    2  A    between atoms: C_1  and  C_34
    3  A    between atoms: N_3  and  C_23
    4  A    between atoms: C_7  and  C_11
    5  A    between atoms: C_8  and  N_18
    6  A    between atoms: C_33  and  C_34
                            x       y       z     vdW  Elec       q    Type
                         _______ _______ _______ _____ _____    ______ ____

>  <TORSDO>
F 6

$$$$
=
 OpenBabel11052420223D

 34 40  0  0  1  0  0  0  0  0999 V2000
  192.2780  177.0120  143.3670 C   0  0  0  0  0  3  0  0  0  0  0  0
  192.4940  175.1220  145.6290 C   0  0  0  0  0  2  0  0  0  0  0  0
  195.4500  174.9810  143.4490 C   0  0  2  0  0  0  0  0  0  0  0  0
  194.6120  176.0630  142.7260 C   0  0  0  0  0  2  0  0  0  0  0  0
  193.3940  176.1660  143.5700 C   0  0  0  0  0  0  0  0  0  0  0  0
  190.0900  176.3130  145.9560 N   0  0  0  0  0  0  0  0  0  0  0  0
  194.6860  174.5840  144.5930 O   0  0  0  0  0  0  0  0  0  0  0  0
  193.4950  175.2740  144.6430 C   0  0  0  0  0  0  0  0  0  0  0  0
  196.7750  175.5700  143.8970 C   0  0  0  0  0  1  0  0  0  0  0  0
  191.4030  175.9550  145.4190 C   0  0  2  0  0  0  0  0  0  0  0  0
  191.2990  176.8590  144.3400 C   0  0  0  0  0  0  0  0  0  0  0  0
  190.0160  177.2380  144.8750 C   0  0  2  0  0  0  0  0  0  0  0  0
  187.1650  178.3280  142.0160 C   0  0  0  0  0  2  0  0  0  0  0  0
  189.2580  177.2670  142.5910 O   0  0  0  0  0  0  0  0  0  0  0  0
  186.5380  177.9730  143.3520 C   0  0  1  0  0  3  0  0  0  0  0  0
  187.1360  177.3710  145.6130 O   0  0  0  0  0  1  0  0  0  0  0  0
  187.6480  177.8250  144.3950 C   0  0  1  0  0  3  0  0  0  0  0  0
  188.1850  177.2570  141.6740 C   0  0  0  0  0  2  0  0  0  0  0  0
  188.8360  176.9360  143.9150 C   0  0  2  0  0  0  0  0  0  0  0  0
  185.6040  179.0220  143.7480 N   0  0  0  0  0  0  0  0  0  0  0  0
  184.5720  178.3980  144.5960 C   0  0  0  0  0  2  0  0  0  0  0  0
  184.2860  178.6630  143.1930 C   0  0  0  0  0  2  0  0  0  0  0  0
  188.5520  175.4160  144.0680 C   0  0  0  0  0  2  0  0  0  0  0  0
  190.2630  174.1010  142.6590 C   0  0  0  0  0  3  0  0  0  0  0  0
  189.3950  172.3040  141.2090 C   0  0  0  0  0  2  0  0  0  0  0  0
  190.5220  173.0820  141.8340 C   0  0  0  0  0  3  0  0  0  0  0  0
  187.8840  174.0670  142.1240 C   0  0  0  0  0  3  0  0  0  0  0  0
  188.8700  174.5370  142.8980 C   0  0  0  0  0  0  0  0  0  0  0  0
  188.2000  173.2190  140.9210 C   0  0  0  0  0  2  0  0  0  0  0  0
  195.6950  173.8090  142.5470 C   0  0  0  0  0  0  0  0  0  0  0  0
  194.6670  172.9180  142.2600 O   0  0  0  0  0  1  0  0  0  0  0  0
  196.8200  173.6480  142.0030 O   0  0  0  0  0  0  0  0  0  0  0  0
  189.2770  175.9290  147.0960 C   0  0  0  0  0  2  0  0  0  0  0  0
  189.3210  174.5450  147.2570 O   0  0  0  0  0  1  0  0  0  0  0  0
  1  5  1  0  0  0  0
  1 11  2  0  0  0  0
  3  9  1  1  0  0  0
  3  7  1  0  0  0  0
  4  3  1  0  0  0  0
  4  5  1  0  0  0  0
  5  8  2  0  0  0  0
  6 33  1  0  0  0  0
  7  8  1  0  0  0  0
  8  2  1  0  0  0  0
 10  2  1  1  0  0  0
 10  6  1  0  0  0  0
 11 10  1  0  0  0  0
 12 11  1  1  0  0  0
 12 10  1  0  0  0  0
 12  6  1  0  0  0  0
 14 19  1  0  0  0  0
 15 13  1  6  0  0  0
 15 20  1  0  0  0  0
 15 17  1  0  0  0  0
 17 16  1  1  0  0  0
 18 13  1  0  0  0  0
 18 14  1  0  0  0  0
 19 23  1  1  0  0  0
 19 17  1  0  0  0  0
 19 12  1  0  0  0  0
 20 21  1  0  0  0  0
 22 20  1  0  0  0  0
 22 21  1  0  0  0  0
 24 28  1  0  0  0  0
 25 26  1  0  0  0  0
 26 24  2  0  0  0  0
 27 28  2  0  0  0  0
 28 23  1  0  0  0  0
 29 25  1  0  0  0  0
 29 27  1  0  0  0  0
 30  3  1  0  0  0  0
 31 30  1  0  0  0  0
 32 30  2  0  0  0  0
 33 34  1  0  0  0  0
M  END
>  <MODEL>
6

>  <REMARK>
 VINA RESULT:      -7.2      1.986      2.705
  Name = 
  6 active torsions:
  status: ('A' for Active; 'I' for Inactive)
    1  A    between atoms: C_1  and  C_20
    2  A    between atoms: C_1  and  C_34
    3  A    between atoms: N_3  and  C_23
    4  A    between atoms: C_7  and  C_11
    5  A    between atoms: C_8  and  N_18
    6  A    between atoms: C_33  and  C_34
                            x       y       z     vdW  Elec       q    Type
                         _______ _______ _______ _____ _____    ______ ____

>  <TORSDO>
F 6

$$$$
=
 OpenBabel11052420223D

 34 40  0  0  1  0  0  0  0  0999 V2000
  188.4730  177.5820  142.6800 C   0  0  0  0  0  3  0  0  0  0  0  0
  186.6400  175.2870  143.0010 C   0  0  0  0  0  2  0  0  0  0  0  0
  185.1780  178.3930  144.3160 C   0  0  2  0  0  0  0  0  0  0  0  0
  186.5490  178.9100  143.8180 C   0  0  0  0  0  2  0  0  0  0  0  0
  187.1910  177.6880  143.2690 C   0  0  0  0  0  0  0  0  0  0  0  0
  188.8450  174.2460  141.8360 N   0  0  0  0  0  0  0  0  0  0  0  0
  185.1480  176.9940  144.0160 O   0  0  0  0  0  0  0  0  0  0  0  0
  186.3240  176.6010  143.4170 C   0  0  0  0  0  0  0  0  0  0  0  0
  184.0600  179.1010  143.5730 C   0  0  0  0  0  1  0  0  0  0  0  0
  187.9000  175.1940  142.4270 C   0  0  2  0  0  0  0  0  0  0  0  0
  188.7770  176.2900  142.2710 C   0  0  0  0  0  0  0  0  0  0  0  0
  189.7040  175.3700  141.6640 C   0  0  2  0  0  0  0  0  0  0  0  0
  193.7450  176.2110  142.3370 C   0  0  0  0  0  2  0  0  0  0  0  0
  191.4170  176.5290  142.8950 O   0  0  0  0  0  0  0  0  0  0  0  0
  193.5180  174.7730  141.9060 C   0  0  1  0  0  3  0  0  0  0  0  0
  191.7660  173.2820  141.1690 O   0  0  0  0  0  1  0  0  0  0  0  0
  192.0640  174.6180  141.4520 C   0  0  1  0  0  3  0  0  0  0  0  0
  192.7290  176.5470  143.4130 C   0  0  0  0  0  2  0  0  0  0  0  0
  191.0330  175.2270  142.4500 C   0  0  2  0  0  0  0  0  0  0  0  0
  194.4300  174.4370  140.8180 N   0  0  0  0  0  0  0  0  0  0  0  0
  194.8460  173.0360  141.0070 C   0  0  0  0  0  2  0  0  0  0  0  0
  195.7330  174.1110  141.4280 C   0  0  0  0  0  2  0  0  0  0  0  0
  190.7140  174.2800  143.6410 C   0  0  0  0  0  2  0  0  0  0  0  0
  189.5940  175.5610  145.5760 C   0  0  0  0  0  3  0  0  0  0  0  0
  190.5670  175.2910  147.8270 C   0  0  0  0  0  2  0  0  0  0  0  0
  189.5080  175.8040  146.8880 C   0  0  0  0  0  3  0  0  0  0  0  0
  191.8580  174.6760  145.7810 C   0  0  0  0  0  3  0  0  0  0  0  0
  190.7730  174.8650  145.0180 C   0  0  0  0  0  0  0  0  0  0  0  0
  191.9420  175.2980  147.1500 C   0  0  0  0  0  2  0  0  0  0  0  0
  185.0300  178.6180  145.7910 C   0  0  0  0  0  0  0  0  0  0  0  0
  184.0660  177.9240  146.5130 O   0  0  0  0  0  1  0  0  0  0  0  0
  185.8100  179.4020  146.3960 O   0  0  0  0  0  0  0  0  0  0  0  0
  188.8600  172.8280  141.5280 C   0  0  0  0  0  2  0  0  0  0  0  0
  188.3440  172.6200  140.2500 O   0  0  0  0  0  1  0  0  0  0  0  0
  1  5  1  0  0  0  0
  2  8  1  0  0  0  0
  3  9  1  6  0  0  0
  3 30  1  0  0  0  0
  4  3  1  0  0  0  0
  5  8  2  0  0  0  0
  5  4  1  0  0  0  0
  6 10  1  0  0  0  0
  7  3  1  0  0  0  0
  8  7  1  0  0  0  0
 10  2  1  6  0  0  0
 11 10  1  0  0  0  0
 11  1  2  0  0  0  0
 12  6  1  0  0  0  0
 12 11  1  6  0  0  0
 12 10  1  0  0  0  0
 12 19  1  0  0  0  0
 13 18  1  0  0  0  0
 14 18  1  0  0  0  0
 15 20  1  6  0  0  0
 15 13  1  0  0  0  0
 17 16  1  1  0  0  0
 17 15  1  0  0  0  0
 17 19  1  0  0  0  0
 19 14  1  0  0  0  0
 19 23  1  1  0  0  0
 20 21  1  0  0  0  0
 20 22  1  0  0  0  0
 21 22  1  0  0  0  0
 23 28  1  0  0  0  0
 24 26  2  0  0  0  0
 26 25  1  0  0  0  0
 27 29  1  0  0  0  0
 28 24  1  0  0  0  0
 28 27  2  0  0  0  0
 29 25  1  0  0  0  0
 30 32  2  0  0  0  0
 30 31  1  0  0  0  0
 33  6  1  0  0  0  0
 34 33  1  0  0  0  0
M  END
>  <MODEL>
7

>  <REMARK>
 VINA RESULT:      -6.9      2.986      7.392
  Name = 
  6 active torsions:
  status: ('A' for Active; 'I' for Inactive)
    1  A    between atoms: C_1  and  C_20
    2  A    between atoms: C_1  and  C_34
    3  A    between atoms: N_3  and  C_23
    4  A    between atoms: C_7  and  C_11
    5  A    between atoms: C_8  and  N_18
    6  A    between atoms: C_33  and  C_34
                            x       y       z     vdW  Elec       q    Type
                         _______ _______ _______ _____ _____    ______ ____

>  <TORSDO>
F 6

$$$$
=
 OpenBabel11052420223D

 34 40  0  0  1  0  0  0  0  0999 V2000
  188.9360  174.8500  144.3540 C   0  0  0  0  0  3  0  0  0  0  0  0
  189.9860  177.5550  144.9150 C   0  0  0  0  0  2  0  0  0  0  0  0
  186.6660  177.6820  143.3460 C   0  0  2  0  0  0  0  0  0  0  0  0
  186.8900  176.1520  143.4170 C   0  0  0  0  0  2  0  0  0  0  0  0
  188.2290  176.0380  144.0510 C   0  0  0  0  0  0  0  0  0  0  0  0
  191.9290  175.8750  145.7590 N   0  0  0  0  0  0  0  0  0  0  0  0
  187.8290  178.2830  143.9240 O   0  0  0  0  0  0  0  0  0  0  0  0
  188.7270  177.3170  144.3200 C   0  0  0  0  0  0  0  0  0  0  0  0
  185.4380  178.0600  144.1540 C   0  0  0  0  0  1  0  0  0  0  0  0
  190.6730  176.3840  145.2070 C   0  0  2  0  0  0  0  0  0  0  0  0
  190.1710  175.0910  144.9420 C   0  0  0  0  0  0  0  0  0  0  0  0
  191.3940  174.5790  145.5060 C   0  0  2  0  0  0  0  0  0  0  0  0
  192.4600  173.3850  141.6420 C   0  0  0  0  0  2  0  0  0  0  0  0
  192.8850  174.7030  143.6210 O   0  0  0  0  0  0  0  0  0  0  0  0
  191.8300  172.2590  142.4420 C   0  0  1  0  0  3  0  0  0  0  0  0
  190.7800  171.8200  144.5730 O   0  0  0  0  0  1  0  0  0  0  0  0
  191.2560  172.8360  143.7390 C   0  0  1  0  0  3  0  0  0  0  0  0
  193.4940  174.0660  142.5200 C   0  0  0  0  0  2  0  0  0  0  0  0
  192.2480  173.7700  144.4960 C   0  0  2  0  0  0  0  0  0  0  0  0
  190.7760  171.6290  141.6540 N   0  0  0  0  0  0  0  0  0  0  0  0
  190.8750  170.1740  141.8680 C   0  0  0  0  0  2  0  0  0  0  0  0
  191.4350  170.7620  140.6600 C   0  0  0  0  0  2  0  0  0  0  0  0
  193.2790  172.9860  145.3550 C   0  0  0  0  0  2  0  0  0  0  0  0
  195.5600  174.1730  145.5150 C   0  0  0  0  0  3  0  0  0  0  0  0
  197.5590  172.8780  144.8730 C   0  0  0  0  0  2  0  0  0  0  0  0
  196.8930  174.1040  145.4390 C   0  0  0  0  0  3  0  0  0  0  0  0
  195.2730  172.1480  144.1870 C   0  0  0  0  0  3  0  0  0  0  0  0
  194.7200  173.0890  144.9620 C   0  0  0  0  0  0  0  0  0  0  0  0
  196.7090  172.2680  143.7530 C   0  0  0  0  0  2  0  0  0  0  0  0
  186.4940  178.1280  141.9250 C   0  0  0  0  0  0  0  0  0  0  0  0
  187.5040  177.9080  140.9950 O   0  0  0  0  0  0  0  0  0  0  0  0
  185.4150  178.6600  141.5500 O   0  0  0  0  0  1  0  0  0  0  0  0
  193.1310  176.4440  146.3390 C   0  0  0  0  0  2  0  0  0  0  0  0
  193.7890  177.2200  145.3860 O   0  0  0  0  0  1  0  0  0  0  0  0
  1 11  2  0  0  0  0
  3  4  1  0  0  0  0
  3  7  1  0  0  0  0
  3  9  1  1  0  0  0
  4  5  1  0  0  0  0
  5  8  2  0  0  0  0
  5  1  1  0  0  0  0
  6 33  1  0  0  0  0
  7  8  1  0  0  0  0
  8  2  1  0  0  0  0
 10  2  1  1  0  0  0
 10 12  1  0  0  0  0
 10  6  1  0  0  0  0
 11 10  1  0  0  0  0
 12 11  1  1  0  0  0
 12  6  1  0  0  0  0
 13 18  1  0  0  0  0
 14 19  1  0  0  0  0
 15 13  1  6  0  0  0
 15 17  1  0  0  0  0
 17 19  1  0  0  0  0
 17 16  1  1  0  0  0
 18 14  1  0  0  0  0
 19 23  1  1  0  0  0
 19 12  1  0  0  0  0
 20 21  1  0  0  0  0
 20 15  1  0  0  0  0
 22 20  1  0  0  0  0
 22 21  1  0  0  0  0
 25 26  1  0  0  0  0
 26 24  2  0  0  0  0
 27 28  2  0  0  0  0
 28 23  1  0  0  0  0
 28 24  1  0  0  0  0
 29 27  1  0  0  0  0
 29 25  1  0  0  0  0
 30  3  1  0  0  0  0
 31 30  2  0  0  0  0
 32 30  1  0  0  0  0
 34 33  1  0  0  0  0
M  END
>  <MODEL>
8

>  <REMARK>
 VINA RESULT:      -6.8      2.710      7.362
  Name = 
  6 active torsions:
  status: ('A' for Active; 'I' for Inactive)
    1  A    between atoms: C_1  and  C_20
    2  A    between atoms: C_1  and  C_34
    3  A    between atoms: N_3  and  C_23
    4  A    between atoms: C_7  and  C_11
    5  A    between atoms: C_8  and  N_18
    6  A    between atoms: C_33  and  C_34
                            x       y       z     vdW  Elec       q    Type
                         _______ _______ _______ _____ _____    ______ ____

>  <TORSDO>
F 6

$$$$
=
 OpenBabel11052420223D

 34 40  0  0  1  0  0  0  0  0999 V2000
  189.3610  174.9550  146.4390 C   0  0  0  0  0  3  0  0  0  0  0  0
  190.0650  177.6640  145.4880 C   0  0  0  0  0  2  0  0  0  0  0  0
  186.5960  177.5010  146.6910 C   0  0  2  0  0  0  0  0  0  0  0  0
  187.0490  176.0400  146.9260 C   0  0  0  0  0  2  0  0  0  0  0  0
  188.4590  176.0450  146.4560 C   0  0  0  0  0  0  0  0  0  0  0  0
  192.3000  176.1950  145.0930 N   0  0  0  0  0  0  0  0  0  0  0  0
  187.7280  178.1860  146.1450 O   0  0  0  0  0  0  0  0  0  0  0  0
  188.7950  177.3270  146.0080 C   0  0  0  0  0  0  0  0  0  0  0  0
  186.2010  178.1370  148.0110 C   0  0  0  0  0  1  0  0  0  0  0  0
  190.9430  176.5880  145.4740 C   0  0  2  0  0  0  0  0  0  0  0  0
  190.6090  175.2940  145.9290 C   0  0  0  0  0  0  0  0  0  0  0  0
  191.9510  174.9030  145.5820 C   0  0  2  0  0  0  0  0  0  0  0  0
  192.2160  170.9430  144.2620 C   0  0  0  0  0  2  0  0  0  0  0  0
  190.9070  172.9290  144.6830 O   0  0  0  0  0  0  0  0  0  0  0  0
  193.4590  171.7480  143.9280 C   0  0  1  0  0  3  0  0  0  0  0  0
  194.4400  173.9290  144.2720 O   0  0  0  0  0  1  0  0  0  0  0  0
  193.3820  173.0960  144.6490 C   0  0  1  0  0  3  0  0  0  0  0  0
  191.0010  171.7710  143.8830 C   0  0  0  0  0  2  0  0  0  0  0  0
  192.0090  173.8150  144.4780 C   0  0  2  0  0  0  0  0  0  0  0  0
  194.6460  171.0120  144.3490 N   0  0  0  0  0  0  0  0  0  0  0  0
  195.6860  171.2290  143.3260 C   0  0  0  0  0  2  0  0  0  0  0  0
  194.9150  169.9940  143.3180 C   0  0  0  0  0  2  0  0  0  0  0  0
  191.8920  174.5800  143.1310 C   0  0  0  0  0  2  0  0  0  0  0  0
  189.3950  175.0150  142.6670 C   0  0  0  0  0  3  0  0  0  0  0  0
  188.5660  174.5410  140.3920 C   0  0  0  0  0  2  0  0  0  0  0  0
  188.3890  175.0750  141.7890 C   0  0  0  0  0  3  0  0  0  0  0  0
  190.7320  173.5970  141.2000 C   0  0  0  0  0  3  0  0  0  0  0  0
  190.6620  174.3430  142.3100 C   0  0  0  0  0  0  0  0  0  0  0  0
  189.4910  173.3190  140.3930 C   0  0  0  0  0  2  0  0  0  0  0  0
  185.4400  177.5520  145.7370 C   0  0  0  0  0  0  0  0  0  0  0  0
  185.5590  177.0090  144.4630 O   0  0  0  0  0  0  0  0  0  0  0  0
  184.3370  178.0420  146.1000 O   0  0  0  0  0  1  0  0  0  0  0  0
  193.4660  176.8480  144.5280 C   0  0  0  0  0  2  0  0  0  0  0  0
  194.4080  177.0730  145.5300 O   0  0  0  0  0  1  0  0  0  0  0  0
  1  5  1  0  0  0  0
  2  8  1  0  0  0  0
  3  4  1  0  0  0  0
  3  9  1  1  0  0  0
  5  4  1  0  0  0  0
  6 10  1  0  0  0  0
  6 12  1  0  0  0  0
  7  3  1  0  0  0  0
  8  7  1  0  0  0  0
  8  5  2  0  0  0  0
 10  2  1  1  0  0  0
 10 12  1  0  0  0  0
 10 11  1  0  0  0  0
 11  1  2  0  0  0  0
 12 11  1  1  0  0  0
 15 13  1  1  0  0  0
 15 20  1  0  0  0  0
 15 17  1  0  0  0  0
 17 16  1  6  0  0  0
 18 13  1  0  0  0  0
 18 14  1  0  0  0  0
 19 23  1  6  0  0  0
 19 17  1  0  0  0  0
 19 14  1  0  0  0  0
 19 12  1  0  0  0  0
 21 20  1  0  0  0  0
 22 21  1  0  0  0  0
 22 20  1  0  0  0  0
 25 29  1  0  0  0  0
 25 26  1  0  0  0  0
 26 24  2  0  0  0  0
 27 28  2  0  0  0  0
 28 24  1  0  0  0  0
 28 23  1  0  0  0  0
 29 27  1  0  0  0  0
 30 32  1  0  0  0  0
 30  3  1  0  0  0  0
 31 30  2  0  0  0  0
 33  6  1  0  0  0  0
 33 34  1  0  0  0  0
M  END
>  <MODEL>
9

>  <REMARK>
 VINA RESULT:      -6.8      2.983      7.431
  Name = 
  6 active torsions:
  status: ('A' for Active; 'I' for Inactive)
    1  A    between atoms: C_1  and  C_20
    2  A    between atoms: C_1  and  C_34
    3  A    between atoms: N_3  and  C_23
    4  A    between atoms: C_7  and  C_11
    5  A    between atoms: C_8  and  N_18
    6  A    between atoms: C_33  and  C_34
                            x       y       z     vdW  Elec       q    Type
                         _______ _______ _______ _____ _____    ______ ____

>  <TORSDO>
F 6

$$$$
