=
 OpenBabel11052418343D

 34 39  0  0  1  0  0  0  0  0999 V2000
  191.2840  176.0460  145.8540 C   0  0  1  0  0  3  0  0  0  0  0  0
  191.5420  173.8150  144.9880 C   0  0  1  0  0  3  0  0  0  0  0  0
  189.7320  175.4210  143.9510 C   0  0  0  0  0  0  0  0  0  0  0  0
  188.1910  175.1100  142.1000 C   0  0  0  0  0  0  0  0  0  0  0  0
  193.4260  174.8560  146.1390 C   0  0  0  0  0  3  0  0  0  0  0  0
  192.9030  173.8190  145.5470 N   0  0  0  0  0  0  0  0  0  0  0  0
  190.1890  174.2300  141.7590 C   0  0  0  0  0  3  0  0  0  0  0  0
  191.1280  175.2450  144.5600 C   0  0  1  0  0  3  0  0  0  0  0  0
  188.1900  174.5340  140.8510 C   0  0  0  0  0  3  0  0  0  0  0  0
  192.6810  176.0750  146.2520 N   0  0  0  0  0  2  0  0  0  0  0  0
  188.7680  176.3050  144.5400 C   0  0  0  0  0  0  0  0  0  0  0  0
  190.6520  177.4100  145.7830 C   0  0  0  0  0  2  0  0  0  0  0  0
  191.4720  172.7680  143.8970 C   0  0  0  0  0  1  0  0  0  0  0  0
  187.1970  175.8530  142.7120 C   0  0  0  0  0  3  0  0  0  0  0  0
  187.4710  176.4560  143.9540 C   0  0  0  0  0  0  0  0  0  0  0  0
  189.4210  174.0010  140.6720 N   0  0  0  0  0  0  0  0  0  0  0  0
  189.4160  174.9100  142.6800 C   0  0  0  0  0  0  0  0  0  0  0  0
  189.1530  177.1630  145.7230 C   0  0  0  0  0  2  0  0  0  0  0  0
  185.1110  179.3240  144.7490 C   0  0  0  0  0  0  0  0  0  0  0  0
  184.4000  178.8010  145.8320 C   0  0  0  0  0  3  0  0  0  0  0  0
  186.3940  177.2620  144.5830 C   0  0  0  0  0  0  0  0  0  0  0  0
  184.6850  177.5160  146.2990 C   0  0  0  0  0  3  0  0  0  0  0  0
  186.1060  178.5610  144.1320 C   0  0  0  0  0  3  0  0  0  0  0  0
  185.6790  176.7530  145.6800 C   0  0  0  0  0  3  0  0  0  0  0  0
  184.8400  180.5730  144.3010 F   0  0  0  0  0  0  0  0  0  0  0  0
  190.5630  172.2310  139.6010 C   0  0  0  0  0  3  0  0  0  0  0  0
  189.8710  173.3230  139.5270 N   0  0  0  0  0  0  0  0  0  0  0  0
  190.0410  169.4620  139.0270 F   0  0  0  0  0  0  0  0  0  0  0  0
  191.0200  171.5400  138.3610 C   0  0  1  0  0  3  0  0  0  0  0  0
  190.0570  170.4010  138.0110 C   0  0  1  0  0  3  0  0  0  0  0  0
  190.5500  170.7350  135.5750 C   0  0  0  0  0  2  0  0  0  0  0  0
  191.5300  171.8500  135.9250 C   0  0  0  0  0  2  0  0  0  0  0  0
  191.0930  172.5450  137.2100 C   0  0  0  0  0  2  0  0  0  0  0  0
  190.4860  169.7200  136.7130 C   0  0  0  0  0  2  0  0  0  0  0  0
  1 12  1  6  0  0  0
  1 10  1  0  0  0  0
  2 13  1  6  0  0  0
  2  6  1  0  0  0  0
  3 11  2  0  0  0  0
  4 17  1  0  0  0  0
  4 14  1  0  0  0  0
  5 10  1  0  0  0  0
  6  5  2  0  0  0  0
  7 17  2  0  0  0  0
  8  3  1  1  0  0  0
  8  2  1  0  0  0  0
  8  1  1  0  0  0  0
  9  4  2  0  0  0  0
 11 18  1  0  0  0  0
 14 15  2  0  0  0  0
 15 11  1  0  0  0  0
 15 21  1  0  0  0  0
 16  9  1  0  0  0  0
 16  7  1  0  0  0  0
 17  3  1  0  0  0  0
 18 12  1  0  0  0  0
 19 20  1  0  0  0  0
 20 22  2  0  0  0  0
 21 24  2  0  0  0  0
 23 21  1  0  0  0  0
 23 19  2  0  0  0  0
 24 22  1  0  0  0  0
 25 19  1  0  0  0  0
 27 26  2  0  0  0  0
 27 16  1  0  0  0  0
 29 26  1  1  0  0  0
 30 29  1  0  0  0  0
 30 28  1  1  0  0  0
 31 32  1  0  0  0  0
 31 34  1  0  0  0  0
 32 33  1  0  0  0  0
 33 29  1  0  0  0  0
 34 30  1  0  0  0  0
M  END
>  <MODEL>
1

>  <REMARK>
 VINA RESULT:      -8.9      0.000      0.000
  Name = 
  3 active torsions:
  status: ('A' for Active; 'I' for Inactive)
    1  A    between atoms: C_3  and  C_13
    2  A    between atoms: C_12  and  C_28
    3  A    between atoms: N_17  and  N_29
                            x       y       z     vdW  Elec       q    Type
                         _______ _______ _______ _____ _____    ______ ____

>  <TORSDO>
F 3

$$$$
=
 OpenBabel11052418343D

 34 39  0  0  1  0  0  0  0  0999 V2000
  191.4560  176.0980  145.7320 C   0  0  1  0  0  3  0  0  0  0  0  0
  191.6630  173.7910  145.0770 C   0  0  1  0  0  3  0  0  0  0  0  0
  189.8490  175.3190  143.9340 C   0  0  0  0  0  0  0  0  0  0  0  0
  188.2590  174.8570  142.1570 C   0  0  0  0  0  0  0  0  0  0  0  0
  193.5880  174.9080  146.0800 C   0  0  0  0  0  3  0  0  0  0  0  0
  193.0380  173.8270  145.6020 N   0  0  0  0  0  0  0  0  0  0  0  0
  190.2370  173.9180  141.8550 C   0  0  0  0  0  3  0  0  0  0  0  0
  191.2580  175.1800  144.5250 C   0  0  1  0  0  3  0  0  0  0  0  0
  188.2210  174.1640  140.9690 C   0  0  0  0  0  3  0  0  0  0  0  0
  192.8620  176.1430  146.0930 N   0  0  0  0  0  2  0  0  0  0  0  0
  188.9120  176.2700  144.4570 C   0  0  0  0  0  0  0  0  0  0  0  0
  190.8400  177.4590  145.5450 C   0  0  0  0  0  2  0  0  0  0  0  0
  191.5530  172.6460  144.0930 C   0  0  0  0  0  1  0  0  0  0  0  0
  187.2900  175.6700  142.7180 C   0  0  0  0  0  3  0  0  0  0  0  0
  187.6030  176.3840  143.8900 C   0  0  0  0  0  0  0  0  0  0  0  0
  189.4400  173.5980  140.8140 N   0  0  0  0  0  0  0  0  0  0  0  0
  189.4960  174.6940  142.7260 C   0  0  0  0  0  0  0  0  0  0  0  0
  189.3370  177.2300  145.5450 C   0  0  0  0  0  2  0  0  0  0  0  0
  185.4140  179.4120  144.5760 C   0  0  0  0  0  0  0  0  0  0  0  0
  184.6060  178.9360  145.6110 C   0  0  0  0  0  3  0  0  0  0  0  0
  186.5520  177.2630  144.4640 C   0  0  0  0  0  0  0  0  0  0  0  0
  184.7700  177.6320  146.0820 C   0  0  0  0  0  3  0  0  0  0  0  0
  186.3850  178.5810  144.0090 C   0  0  0  0  0  3  0  0  0  0  0  0
  185.7410  176.8020  145.5150 C   0  0  0  0  0  3  0  0  0  0  0  0
  185.2590  180.6780  144.1230 F   0  0  0  0  0  0  0  0  0  0  0  0
  189.0130  172.1360  139.0070 C   0  0  0  0  0  3  0  0  0  0  0  0
  189.8520  172.8070  139.7290 N   0  0  0  0  0  0  0  0  0  0  0  0
  190.1380  173.2330  136.5990 F   0  0  0  0  0  0  0  0  0  0  0  0
  189.4910  171.3080  137.8630 C   0  0  1  0  0  3  0  0  0  0  0  0
  190.6110  172.0420  137.1190 C   0  0  1  0  0  3  0  0  0  0  0  0
  191.6460  169.8400  136.5090 C   0  0  0  0  0  2  0  0  0  0  0  0
  190.5160  169.1090  137.2260 C   0  0  0  0  0  2  0  0  0  0  0  0
  189.9930  169.9590  138.3790 C   0  0  0  0  0  2  0  0  0  0  0  0
  191.1460  171.1800  135.9760 C   0  0  0  0  0  2  0  0  0  0  0  0
  1 12  1  6  0  0  0
  1 10  1  0  0  0  0
  2 13  1  6  0  0  0
  2  6  1  0  0  0  0
  3 11  2  0  0  0  0
  4 14  1  0  0  0  0
  4 17  1  0  0  0  0
  5 10  1  0  0  0  0
  6  5  2  0  0  0  0
  7 17  2  0  0  0  0
  8  3  1  1  0  0  0
  8  2  1  0  0  0  0
  8  1  1  0  0  0  0
  9  4  2  0  0  0  0
 11 18  1  0  0  0  0
 14 15  2  0  0  0  0
 15 11  1  0  0  0  0
 15 21  1  0  0  0  0
 16  9  1  0  0  0  0
 16  7  1  0  0  0  0
 17  3  1  0  0  0  0
 18 12  1  0  0  0  0
 19 20  1  0  0  0  0
 20 22  2  0  0  0  0
 21 24  2  0  0  0  0
 23 21  1  0  0  0  0
 23 19  2  0  0  0  0
 24 22  1  0  0  0  0
 25 19  1  0  0  0  0
 26 27  2  0  0  0  0
 27 16  1  0  0  0  0
 29 33  1  0  0  0  0
 29 26  1  1  0  0  0
 30 28  1  6  0  0  0
 30 29  1  0  0  0  0
 31 32  1  0  0  0  0
 32 33  1  0  0  0  0
 34 31  1  0  0  0  0
 34 30  1  0  0  0  0
M  END
>  <MODEL>
2

>  <REMARK>
 VINA RESULT:      -8.9      0.935      1.294
  Name = 
  3 active torsions:
  status: ('A' for Active; 'I' for Inactive)
    1  A    between atoms: C_3  and  C_13
    2  A    between atoms: C_12  and  C_28
    3  A    between atoms: N_17  and  N_29
                            x       y       z     vdW  Elec       q    Type
                         _______ _______ _______ _____ _____    ______ ____

>  <TORSDO>
F 3

$$$$
=
 OpenBabel11052418343D

 34 39  0  0  1  0  0  0  0  0999 V2000
  191.8750  173.1570  140.6600 C   0  0  1  0  0  3  0  0  0  0  0  0
  189.5550  172.9940  141.2810 C   0  0  1  0  0  3  0  0  0  0  0  0
  191.3260  173.8260  143.0420 C   0  0  0  0  0  0  0  0  0  0  0  0
  191.0650  174.5940  145.3310 C   0  0  0  0  0  0  0  0  0  0  0  0
  190.1280  173.2450  138.9210 C   0  0  0  0  0  3  0  0  0  0  0  0
  189.2280  173.0720  139.8480 N   0  0  0  0  0  0  0  0  0  0  0  0
  189.4590  175.2690  143.9720 C   0  0  0  0  0  3  0  0  0  0  0  0
  190.8420  173.8000  141.5870 C   0  0  1  0  0  3  0  0  0  0  0  0
  190.1870  175.3590  146.0630 C   0  0  0  0  0  3  0  0  0  0  0  0
  191.5090  173.3910  139.2740 N   0  0  0  0  0  2  0  0  0  0  0  0
  192.6320  173.3560  143.4010 C   0  0  0  0  0  0  0  0  0  0  0  0
  193.2890  173.5610  140.9840 C   0  0  0  0  0  2  0  0  0  0  0  0
  188.3330  173.3990  142.0770 C   0  0  0  0  0  1  0  0  0  0  0  0
  192.2650  174.0320  145.7300 C   0  0  0  0  0  3  0  0  0  0  0  0
  193.0650  173.3910  144.7650 C   0  0  0  0  0  0  0  0  0  0  0  0
  189.2150  175.7530  145.2080 N   0  0  0  0  0  0  0  0  0  0  0  0
  190.6140  174.5140  144.0390 C   0  0  0  0  0  0  0  0  0  0  0  0
  193.6000  172.9160  142.3260 C   0  0  0  0  0  2  0  0  0  0  0  0
  196.7020  173.0630  145.8110 C   0  0  0  0  0  0  0  0  0  0  0  0
  196.8110  171.6830  145.9940 C   0  0  0  0  0  3  0  0  0  0  0  0
  194.3560  172.8090  145.2140 C   0  0  0  0  0  0  0  0  0  0  0  0
  195.7020  170.8620  145.7820 C   0  0  0  0  0  3  0  0  0  0  0  0
  195.4830  173.6220  145.4180 C   0  0  0  0  0  3  0  0  0  0  0  0
  194.4820  171.4210  145.3900 C   0  0  0  0  0  3  0  0  0  0  0  0
  197.7790  173.8590  146.0100 F   0  0  0  0  0  0  0  0  0  0  0  0
  187.8500  177.6540  144.8780 C   0  0  0  0  0  3  0  0  0  0  0  0
  188.1130  176.5640  145.5260 N   0  0  0  0  0  0  0  0  0  0  0  0
  186.3610  179.2380  142.9980 F   0  0  0  0  0  0  0  0  0  0  0  0
  186.6690  178.4870  145.2460 C   0  0  1  0  0  3  0  0  0  0  0  0
  185.7210  178.6080  144.0490 C   0  0  1  0  0  3  0  0  0  0  0  0
  183.7680  178.7660  145.6140 C   0  0  0  0  0  2  0  0  0  0  0  0
  184.7130  178.6730  146.8070 C   0  0  0  0  0  2  0  0  0  0  0  0
  185.9430  177.8520  146.4340 C   0  0  0  0  0  2  0  0  0  0  0  0
  184.4810  179.4140  144.4310 C   0  0  0  0  0  2  0  0  0  0  0  0
  1 12  1  1  0  0  0
  1  8  1  0  0  0  0
  2  8  1  0  0  0  0
  2 13  1  1  0  0  0
  3 11  2  0  0  0  0
  3 17  1  0  0  0  0
  4 14  1  0  0  0  0
  4  9  2  0  0  0  0
  5 10  1  0  0  0  0
  5  6  2  0  0  0  0
  6  2  1  0  0  0  0
  7 17  2  0  0  0  0
  7 16  1  0  0  0  0
  8  3  1  1  0  0  0
 10  1  1  0  0  0  0
 11 15  1  0  0  0  0
 12 18  1  0  0  0  0
 15 21  1  0  0  0  0
 15 14  2  0  0  0  0
 16 27  1  0  0  0  0
 16  9  1  0  0  0  0
 17  4  1  0  0  0  0
 18 11  1  0  0  0  0
 19 20  1  0  0  0  0
 19 25  1  0  0  0  0
 21 24  2  0  0  0  0
 21 23  1  0  0  0  0
 22 20  2  0  0  0  0
 23 19  2  0  0  0  0
 24 22  1  0  0  0  0
 26 27  2  0  0  0  0
 29 26  1  6  0  0  0
 29 33  1  0  0  0  0
 30 28  1  6  0  0  0
 30 34  1  0  0  0  0
 30 29  1  0  0  0  0
 31 32  1  0  0  0  0
 33 32  1  0  0  0  0
 34 31  1  0  0  0  0
M  END
>  <MODEL>
3

>  <REMARK>
 VINA RESULT:      -8.6      2.980      9.123
  Name = 
  3 active torsions:
  status: ('A' for Active; 'I' for Inactive)
    1  A    between atoms: C_3  and  C_13
    2  A    between atoms: C_12  and  C_28
    3  A    between atoms: N_17  and  N_29
                            x       y       z     vdW  Elec       q    Type
                         _______ _______ _______ _____ _____    ______ ____

>  <TORSDO>
F 3

$$$$
=
 OpenBabel11052418343D

 34 39  0  0  1  0  0  0  0  0999 V2000
  185.6110  177.6000  143.6270 C   0  0  1  0  0  3  0  0  0  0  0  0
  186.2540  177.8860  141.3250 C   0  0  1  0  0  3  0  0  0  0  0  0
  187.6830  176.3350  142.9000 C   0  0  0  0  0  0  0  0  0  0  0  0
  189.6370  174.9640  142.4500 C   0  0  0  0  0  0  0  0  0  0  0  0
  183.9270  178.2710  141.9550 C   0  0  0  0  0  3  0  0  0  0  0  0
  184.8640  178.2820  141.0480 N   0  0  0  0  0  0  0  0  0  0  0  0
  188.1390  174.9490  140.8250 C   0  0  0  0  0  3  0  0  0  0  0  0
  186.3030  176.8570  142.4820 C   0  0  1  0  0  3  0  0  0  0  0  0
  190.1070  174.1440  141.4500 C   0  0  0  0  0  3  0  0  0  0  0  0
  184.2190  177.8400  143.2890 N   0  0  0  0  0  2  0  0  0  0  0  0
  188.1660  176.4940  144.2410 C   0  0  0  0  0  0  0  0  0  0  0  0
  185.7980  176.9300  144.9620 C   0  0  0  0  0  2  0  0  0  0  0  0
  186.8930  177.4330  140.0290 C   0  0  0  0  0  1  0  0  0  0  0  0
  190.1860  175.2140  143.6960 C   0  0  0  0  0  3  0  0  0  0  0  0
  189.4570  175.9970  144.6100 C   0  0  0  0  0  0  0  0  0  0  0  0
  189.1740  174.1580  140.4710 N   0  0  0  0  0  0  0  0  0  0  0  0
  188.4290  175.4860  142.0650 C   0  0  0  0  0  0  0  0  0  0  0  0
  187.2710  177.0970  145.3000 C   0  0  0  0  0  2  0  0  0  0  0  0
  190.3900  177.6540  147.8990 C   0  0  0  0  0  0  0  0  0  0  0  0
  191.2620  176.7080  148.4440 C   0  0  0  0  0  3  0  0  0  0  0  0
  190.0580  176.2380  145.9470 C   0  0  0  0  0  0  0  0  0  0  0  0
  191.5410  175.5320  147.7440 C   0  0  0  0  0  3  0  0  0  0  0  0
  189.7960  177.4220  146.6550 C   0  0  0  0  0  3  0  0  0  0  0  0
  190.9460  175.3010  146.5010 C   0  0  0  0  0  3  0  0  0  0  0  0
  190.1240  178.7970  148.5740 F   0  0  0  0  0  0  0  0  0  0  0  0
  188.7410  173.9180  138.1600 C   0  0  0  0  0  3  0  0  0  0  0  0
  189.2350  173.4470  139.2600 N   0  0  0  0  0  0  0  0  0  0  0  0
  188.7210  175.0970  135.5380 F   0  0  0  0  0  0  0  0  0  0  0  0
  188.8280  173.1320  136.8950 C   0  0  1  0  0  3  0  0  0  0  0  0
  189.4860  173.9750  135.7990 C   0  0  1  0  0  3  0  0  0  0  0  0
  190.4390  171.8950  134.7730 C   0  0  0  0  0  2  0  0  0  0  0  0
  189.7610  171.0520  135.8480 C   0  0  0  0  0  2  0  0  0  0  0  0
  189.6350  171.8550  137.1380 C   0  0  0  0  0  2  0  0  0  0  0  0
  189.6280  173.1620  134.5140 C   0  0  0  0  0  2  0  0  0  0  0  0
  1 12  1  1  0  0  0
  2 13  1  6  0  0  0
  2  8  1  0  0  0  0
  3 11  2  0  0  0  0
  4 14  1  0  0  0  0
  5 10  1  0  0  0  0
  6  2  1  0  0  0  0
  6  5  2  0  0  0  0
  7 17  2  0  0  0  0
  8  3  1  1  0  0  0
  8  1  1  0  0  0  0
  9  4  2  0  0  0  0
 10  1  1  0  0  0  0
 11 15  1  0  0  0  0
 11 18  1  0  0  0  0
 12 18  1  0  0  0  0
 14 15  2  0  0  0  0
 15 21  1  0  0  0  0
 16  7  1  0  0  0  0
 16  9  1  0  0  0  0
 17  4  1  0  0  0  0
 17  3  1  0  0  0  0
 19 20  1  0  0  0  0
 19 25  1  0  0  0  0
 21 24  2  0  0  0  0
 21 23  1  0  0  0  0
 22 20  2  0  0  0  0
 23 19  2  0  0  0  0
 24 22  1  0  0  0  0
 26 27  2  0  0  0  0
 27 16  1  0  0  0  0
 29 33  1  0  0  0  0
 29 26  1  1  0  0  0
 30 28  1  6  0  0  0
 30 29  1  0  0  0  0
 31 32  1  0  0  0  0
 32 33  1  0  0  0  0
 34 31  1  0  0  0  0
 34 30  1  0  0  0  0
M  END
>  <MODEL>
4

>  <REMARK>
 VINA RESULT:      -8.5      2.818      5.241
  Name = 
  3 active torsions:
  status: ('A' for Active; 'I' for Inactive)
    1  A    between atoms: C_3  and  C_13
    2  A    between atoms: C_12  and  C_28
    3  A    between atoms: N_17  and  N_29
                            x       y       z     vdW  Elec       q    Type
                         _______ _______ _______ _____ _____    ______ ____

>  <TORSDO>
F 3

$$$$
=
 OpenBabel11052418343D

 34 39  0  0  1  0  0  0  0  0999 V2000
  193.6170  173.7830  142.1160 C   0  0  1  0  0  3  0  0  0  0  0  0
  192.9460  176.0190  142.7050 C   0  0  1  0  0  3  0  0  0  0  0  0
  191.1770  174.3390  141.7140 C   0  0  0  0  0  0  0  0  0  0  0  0
  188.7950  174.5820  141.3050 C   0  0  0  0  0  0  0  0  0  0  0  0
  194.9120  175.0560  143.7850 C   0  0  0  0  0  3  0  0  0  0  0  0
  194.1140  176.0700  143.5990 N   0  0  0  0  0  0  0  0  0  0  0  0
  189.4850  175.5360  143.1750 C   0  0  0  0  0  3  0  0  0  0  0  0
  192.4010  174.5710  142.6070 C   0  0  1  0  0  3  0  0  0  0  0  0
  187.7020  175.1520  141.9160 C   0  0  0  0  0  3  0  0  0  0  0  0
  194.6640  173.8100  143.1220 N   0  0  0  0  0  2  0  0  0  0  0  0
  191.2220  173.4210  140.6130 C   0  0  0  0  0  0  0  0  0  0  0  0
  193.2690  172.3950  141.6480 C   0  0  0  0  0  2  0  0  0  0  0  0
  191.9430  177.0580  143.1610 C   0  0  0  0  0  1  0  0  0  0  0  0
  188.8410  173.8040  140.1620 C   0  0  0  0  0  3  0  0  0  0  0  0
  190.0670  173.2180  139.7920 C   0  0  0  0  0  0  0  0  0  0  0  0
  188.1550  175.7310  143.0520 N   0  0  0  0  0  0  0  0  0  0  0  0
  189.9090  174.8310  142.0650 C   0  0  0  0  0  0  0  0  0  0  0  0
  192.4580  172.5840  140.3760 C   0  0  0  0  0  2  0  0  0  0  0  0
  190.4220  172.1210  136.1720 C   0  0  0  0  0  0  0  0  0  0  0  0
  190.0520  170.7770  136.2560 C   0  0  0  0  0  3  0  0  0  0  0  0
  190.0870  172.3730  138.5710 C   0  0  0  0  0  0  0  0  0  0  0  0
  189.6910  170.2280  137.4890 C   0  0  0  0  0  3  0  0  0  0  0  0
  190.4350  172.9150  137.3230 C   0  0  0  0  0  3  0  0  0  0  0  0
  189.7050  171.0230  138.6380 C   0  0  0  0  0  3  0  0  0  0  0  0
  190.7660  172.6550  134.9770 F   0  0  0  0  0  0  0  0  0  0  0  0
  187.2100  177.7040  143.9450 C   0  0  0  0  0  3  0  0  0  0  0  0
  187.3760  176.4210  143.9950 N   0  0  0  0  0  0  0  0  0  0  0  0
  184.5140  178.5860  143.4740 F   0  0  0  0  0  0  0  0  0  0  0  0
  186.3740  178.4000  144.9660 C   0  0  1  0  0  3  0  0  0  0  0  0
  184.8920  178.1060  144.7160 C   0  0  1  0  0  3  0  0  0  0  0  0
  184.4410  178.2910  147.1760 C   0  0  0  0  0  2  0  0  0  0  0  0
  185.9120  178.6100  147.4230 C   0  0  0  0  0  2  0  0  0  0  0  0
  186.7780  177.9330  146.3650 C   0  0  0  0  0  2  0  0  0  0  0  0
  184.0290  178.7700  145.7870 C   0  0  0  0  0  2  0  0  0  0  0  0
  1 12  1  1  0  0  0
  1  8  1  0  0  0  0
  1 10  1  0  0  0  0
  2 13  1  1  0  0  0
  2  6  1  0  0  0  0
  3 17  1  0  0  0  0
  4  9  2  0  0  0  0
  4 17  1  0  0  0  0
  6  5  2  0  0  0  0
  8  3  1  6  0  0  0
  8  2  1  0  0  0  0
  9 16  1  0  0  0  0
 10  5  1  0  0  0  0
 11  3  2  0  0  0  0
 14  4  1  0  0  0  0
 15 14  2  0  0  0  0
 15 11  1  0  0  0  0
 16  7  1  0  0  0  0
 16 27  1  0  0  0  0
 17  7  2  0  0  0  0
 18 11  1  0  0  0  0
 18 12  1  0  0  0  0
 19 20  2  0  0  0  0
 19 23  1  0  0  0  0
 20 22  1  0  0  0  0
 21 24  1  0  0  0  0
 21 15  1  0  0  0  0
 22 24  2  0  0  0  0
 23 21  2  0  0  0  0
 25 19  1  0  0  0  0
 26 27  2  0  0  0  0
 29 26  1  6  0  0  0
 29 33  1  0  0  0  0
 30 28  1  6  0  0  0
 30 29  1  0  0  0  0
 30 34  1  0  0  0  0
 31 32  1  0  0  0  0
 33 32  1  0  0  0  0
 34 31  1  0  0  0  0
M  END
>  <MODEL>
5

>  <REMARK>
 VINA RESULT:      -8.1      2.140      8.596
  Name = 
  3 active torsions:
  status: ('A' for Active; 'I' for Inactive)
    1  A    between atoms: C_3  and  C_13
    2  A    between atoms: C_12  and  C_28
    3  A    between atoms: N_17  and  N_29
                            x       y       z     vdW  Elec       q    Type
                         _______ _______ _______ _____ _____    ______ ____

>  <TORSDO>
F 3

$$$$
=
 OpenBabel11052418343D

 34 39  0  0  1  0  0  0  0  0999 V2000
  194.4110  173.5490  144.4080 C   0  0  1  0  0  3  0  0  0  0  0  0
  193.7170  175.8520  144.3220 C   0  0  1  0  0  3  0  0  0  0  0  0
  192.1040  173.9650  143.4440 C   0  0  0  0  0  0  0  0  0  0  0  0
  189.8450  174.0760  142.5590 C   0  0  0  0  0  0  0  0  0  0  0  0
  195.4230  175.1950  145.9410 C   0  0  0  0  0  3  0  0  0  0  0  0
  194.7050  176.1270  145.3780 N   0  0  0  0  0  0  0  0  0  0  0  0
  190.2150  175.4550  144.2460 C   0  0  0  0  0  3  0  0  0  0  0  0
  193.1530  174.4160  144.4680 C   0  0  1  0  0  3  0  0  0  0  0  0
  188.6790  174.7620  142.8060 C   0  0  0  0  0  3  0  0  0  0  0  0
  195.2580  173.8250  145.5550 N   0  0  0  0  0  2  0  0  0  0  0  0
  192.3180  172.8130  142.6180 C   0  0  0  0  0  0  0  0  0  0  0  0
  194.1090  172.0850  144.2240 C   0  0  0  0  0  2  0  0  0  0  0  0
  192.6830  176.9580  144.3290 C   0  0  0  0  0  1  0  0  0  0  0  0
  190.0730  173.0500  141.6590 C   0  0  0  0  0  3  0  0  0  0  0  0
  191.3260  172.4080  141.6690 C   0  0  0  0  0  0  0  0  0  0  0  0
  188.9360  175.5990  143.8380 N   0  0  0  0  0  0  0  0  0  0  0  0
  190.8100  174.5120  143.4300 C   0  0  0  0  0  0  0  0  0  0  0  0
  193.5490  171.9580  142.8160 C   0  0  0  0  0  2  0  0  0  0  0  0
  192.4030  170.4680  138.5860 C   0  0  0  0  0  0  0  0  0  0  0  0
  191.8760  169.2040  138.8590 C   0  0  0  0  0  3  0  0  0  0  0  0
  191.5400  171.2980  140.7050 C   0  0  0  0  0  0  0  0  0  0  0  0
  191.1750  168.9830  140.0470 C   0  0  0  0  0  3  0  0  0  0  0  0
  192.2310  171.5100  139.5010 C   0  0  0  0  0  3  0  0  0  0  0  0
  191.0050  170.0250  140.9620 C   0  0  0  0  0  3  0  0  0  0  0  0
  193.0770  170.6850  137.4320 F   0  0  0  0  0  0  0  0  0  0  0  0
  187.4290  177.4170  143.7600 C   0  0  0  0  0  3  0  0  0  0  0  0
  188.0220  176.4840  144.4330 N   0  0  0  0  0  0  0  0  0  0  0  0
  185.3510  178.8410  142.3730 F   0  0  0  0  0  0  0  0  0  0  0  0
  186.4630  178.3360  144.4280 C   0  0  1  0  0  3  0  0  0  0  0  0
  185.1420  178.3610  143.6530 C   0  0  1  0  0  3  0  0  0  0  0  0
  183.8970  178.7790  145.7900 C   0  0  0  0  0  2  0  0  0  0  0  0
  185.2140  178.7810  146.5590 C   0  0  0  0  0  2  0  0  0  0  0  0
  186.2240  177.8710  145.8660 C   0  0  0  0  0  2  0  0  0  0  0  0
  184.1270  179.2580  144.3590 C   0  0  0  0  0  2  0  0  0  0  0  0
  1 12  1  1  0  0  0
  1  8  1  0  0  0  0
  1 10  1  0  0  0  0
  2 13  1  1  0  0  0
  2  8  1  0  0  0  0
  2  6  1  0  0  0  0
  4  9  2  0  0  0  0
  4 17  1  0  0  0  0
  6  5  2  0  0  0  0
  8  3  1  6  0  0  0
  9 16  1  0  0  0  0
 10  5  1  0  0  0  0
 11 18  1  0  0  0  0
 11  3  2  0  0  0  0
 14 15  2  0  0  0  0
 14  4  1  0  0  0  0
 15 11  1  0  0  0  0
 16  7  1  0  0  0  0
 16 27  1  0  0  0  0
 17  3  1  0  0  0  0
 17  7  2  0  0  0  0
 18 12  1  0  0  0  0
 19 20  2  0  0  0  0
 19 23  1  0  0  0  0
 20 22  1  0  0  0  0
 21 24  1  0  0  0  0
 21 15  1  0  0  0  0
 22 24  2  0  0  0  0
 23 21  2  0  0  0  0
 25 19  1  0  0  0  0
 26 27  2  0  0  0  0
 29 26  1  6  0  0  0
 29 33  1  0  0  0  0
 30 28  1  6  0  0  0
 30 34  1  0  0  0  0
 30 29  1  0  0  0  0
 31 32  1  0  0  0  0
 33 32  1  0  0  0  0
 34 31  1  0  0  0  0
M  END
>  <MODEL>
6

>  <REMARK>
 VINA RESULT:      -7.4      2.182      8.536
  Name = 
  3 active torsions:
  status: ('A' for Active; 'I' for Inactive)
    1  A    between atoms: C_3  and  C_13
    2  A    between atoms: C_12  and  C_28
    3  A    between atoms: N_17  and  N_29
                            x       y       z     vdW  Elec       q    Type
                         _______ _______ _______ _____ _____    ______ ____

>  <TORSDO>
F 3

$$$$
=
 OpenBabel11052418343D

 34 39  0  0  1  0  0  0  0  0999 V2000
  191.5110  175.0100  145.1510 C   0  0  1  0  0  3  0  0  0  0  0  0
  191.5060  172.8970  143.9980 C   0  0  1  0  0  3  0  0  0  0  0  0
  189.9550  174.8500  143.1560 C   0  0  0  0  0  0  0  0  0  0  0  0
  188.4500  174.9900  141.2550 C   0  0  0  0  0  0  0  0  0  0  0  0
  193.4700  173.5200  145.3090 C   0  0  0  0  0  3  0  0  0  0  0  0
  192.8370  172.6470  144.5760 N   0  0  0  0  0  0  0  0  0  0  0  0
  190.3290  173.9050  140.8320 C   0  0  0  0  0  3  0  0  0  0  0  0
  191.2960  174.4130  143.7590 C   0  0  1  0  0  3  0  0  0  0  0  0
  188.4170  174.5870  139.9400 C   0  0  0  0  0  3  0  0  0  0  0  0
  192.8850  174.8010  145.5720 N   0  0  0  0  0  2  0  0  0  0  0  0
  189.0950  175.7700  143.8410 C   0  0  0  0  0  0  0  0  0  0  0  0
  191.0630  176.4440  145.2520 C   0  0  0  0  0  2  0  0  0  0  0  0
  191.3390  172.0190  142.7760 C   0  0  0  0  0  1  0  0  0  0  0  0
  187.5410  175.7730  141.9440 C   0  0  0  0  0  3  0  0  0  0  0  0
  187.8490  176.1670  143.2600 C   0  0  0  0  0  0  0  0  0  0  0  0
  189.5750  173.9230  139.7120 N   0  0  0  0  0  0  0  0  0  0  0  0
  189.6200  174.5560  141.8240 C   0  0  0  0  0  0  0  0  0  0  0  0
  189.5470  176.4080  145.1350 C   0  0  0  0  0  2  0  0  0  0  0  0
  185.6160  177.5890  145.9840 C   0  0  0  0  0  0  0  0  0  0  0  0
  184.9460  178.5990  145.2900 C   0  0  0  0  0  3  0  0  0  0  0  0
  186.8640  177.0200  143.9730 C   0  0  0  0  0  0  0  0  0  0  0  0
  185.2240  178.8190  143.9390 C   0  0  0  0  0  3  0  0  0  0  0  0
  186.5650  176.8010  145.3280 C   0  0  0  0  0  3  0  0  0  0  0  0
  186.1750  178.0310  143.2840 C   0  0  0  0  0  3  0  0  0  0  0  0
  185.3420  177.3710  147.2920 F   0  0  0  0  0  0  0  0  0  0  0  0
  189.6620  173.8690  137.3520 C   0  0  0  0  0  3  0  0  0  0  0  0
  189.9710  173.3460  138.4950 N   0  0  0  0  0  0  0  0  0  0  0  0
  191.9140  174.7620  135.8030 F   0  0  0  0  0  0  0  0  0  0  0  0
  190.1040  173.2250  136.0810 C   0  0  1  0  0  3  0  0  0  0  0  0
  191.6120  173.4150  135.8940 C   0  0  1  0  0  3  0  0  0  0  0  0
  191.7350  171.2290  134.6720 C   0  0  0  0  0  2  0  0  0  0  0  0
  190.2290  171.0520  134.8330 C   0  0  0  0  0  2  0  0  0  0  0  0
  189.7570  171.7350  136.1130 C   0  0  0  0  0  2  0  0  0  0  0  0
  192.0840  172.7140  134.6220 C   0  0  0  0  0  2  0  0  0  0  0  0
  1 12  1  6  0  0  0
  1 10  1  0  0  0  0
  2 13  1  6  0  0  0
  2  6  1  0  0  0  0
  3 11  2  0  0  0  0
  4 17  1  0  0  0  0
  4 14  1  0  0  0  0
  5 10  1  0  0  0  0
  6  5  2  0  0  0  0
  7 17  2  0  0  0  0
  8  3  1  1  0  0  0
  8  2  1  0  0  0  0
  8  1  1  0  0  0  0
  9  4  2  0  0  0  0
 11 18  1  0  0  0  0
 14 15  2  0  0  0  0
 15 11  1  0  0  0  0
 15 21  1  0  0  0  0
 16  9  1  0  0  0  0
 16  7  1  0  0  0  0
 17  3  1  0  0  0  0
 18 12  1  0  0  0  0
 19 25  1  0  0  0  0
 20 19  2  0  0  0  0
 21 23  2  0  0  0  0
 22 20  1  0  0  0  0
 23 19  1  0  0  0  0
 24 22  2  0  0  0  0
 24 21  1  0  0  0  0
 26 27  2  0  0  0  0
 27 16  1  0  0  0  0
 29 33  1  0  0  0  0
 29 26  1  1  0  0  0
 30 28  1  6  0  0  0
 30 29  1  0  0  0  0
 31 32  1  0  0  0  0
 32 33  1  0  0  0  0
 34 31  1  0  0  0  0
 34 30  1  0  0  0  0
M  END
>  <MODEL>
7

>  <REMARK>
 VINA RESULT:      -7.3      1.801      2.245
  Name = 
  3 active torsions:
  status: ('A' for Active; 'I' for Inactive)
    1  A    between atoms: C_3  and  C_13
    2  A    between atoms: C_12  and  C_28
    3  A    between atoms: N_17  and  N_29
                            x       y       z     vdW  Elec       q    Type
                         _______ _______ _______ _____ _____    ______ ____

>  <TORSDO>
F 3

$$$$
=
 OpenBabel11052418343D

 34 39  0  0  1  0  0  0  0  0999 V2000
  194.7540  175.0390  143.7430 C   0  0  1  0  0  3  0  0  0  0  0  0
  195.1460  172.8280  142.8790 C   0  0  1  0  0  3  0  0  0  0  0  0
  192.7240  173.8570  142.7910 C   0  0  0  0  0  0  0  0  0  0  0  0
  190.6490  172.9880  141.8760 C   0  0  0  0  0  0  0  0  0  0  0  0
  197.0170  174.3910  143.0080 C   0  0  0  0  0  3  0  0  0  0  0  0
  196.5630  173.1990  142.7380 N   0  0  0  0  0  0  0  0  0  0  0  0
  192.4310  172.5290  140.6500 C   0  0  0  0  0  3  0  0  0  0  0  0
  194.2390  174.0680  142.6800 C   0  0  1  0  0  3  0  0  0  0  0  0
  190.2330  172.2730  140.7770 C   0  0  0  0  0  3  0  0  0  0  0  0
  196.1230  175.4220  143.4440 N   0  0  0  0  0  2  0  0  0  0  0  0
  191.9410  174.5770  143.7520 C   0  0  0  0  0  0  0  0  0  0  0  0
  193.8360  176.2130  143.9620 C   0  0  0  0  0  2  0  0  0  0  0  0
  194.8590  171.6620  141.9560 C   0  0  0  0  0  1  0  0  0  0  0  0
  189.8860  173.5670  142.8740 C   0  0  0  0  0  3  0  0  0  0  0  0
  190.5270  174.3660  143.8380 C   0  0  0  0  0  0  0  0  0  0  0  0
  191.3420  172.0040  140.0500 N   0  0  0  0  0  0  0  0  0  0  0  0
  192.0110  173.1340  141.8190 C   0  0  0  0  0  0  0  0  0  0  0  0
  192.5870  175.6390  144.6120 C   0  0  0  0  0  2  0  0  0  0  0  0
  188.1760  176.7520  145.6280 C   0  0  0  0  0  0  0  0  0  0  0  0
  188.1490  176.2000  146.9110 C   0  0  0  0  0  3  0  0  0  0  0  0
  189.6840  174.9900  144.8890 C   0  0  0  0  0  0  0  0  0  0  0  0
  188.8920  175.0510  147.1910 C   0  0  0  0  0  3  0  0  0  0  0  0
  188.9430  176.1540  144.6250 C   0  0  0  0  0  3  0  0  0  0  0  0
  189.6580  174.4520  146.1870 C   0  0  0  0  0  3  0  0  0  0  0  0
  187.4610  177.8700  145.3580 F   0  0  0  0  0  0  0  0  0  0  0  0
  190.3510  170.6780  138.3630 C   0  0  0  0  0  3  0  0  0  0  0  0
  191.3830  171.3010  138.8340 N   0  0  0  0  0  0  0  0  0  0  0  0
  189.6490  171.8290  135.8230 F   0  0  0  0  0  0  0  0  0  0  0  0
  190.4350  169.9450  137.0670 C   0  0  1  0  0  3  0  0  0  0  0  0
  190.6950  170.9300  135.9240 C   0  0  1  0  0  3  0  0  0  0  0  0
  191.9620  169.1560  134.6840 C   0  0  0  0  0  2  0  0  0  0  0  0
  191.6810  168.1660  135.8090 C   0  0  0  0  0  2  0  0  0  0  0  0
  191.5570  168.9070  137.1370 C   0  0  0  0  0  2  0  0  0  0  0  0
  190.8370  170.1840  134.5990 C   0  0  0  0  0  2  0  0  0  0  0  0
  1 12  1  6  0  0  0
  2 13  1  6  0  0  0
  3 11  2  0  0  0  0
  4 14  1  0  0  0  0
  5 10  1  0  0  0  0
  6  2  1  0  0  0  0
  6  5  2  0  0  0  0
  7 17  2  0  0  0  0
  8  3  1  1  0  0  0
  8  2  1  0  0  0  0
  8  1  1  0  0  0  0
  9  4  2  0  0  0  0
 10  1  1  0  0  0  0
 11 15  1  0  0  0  0
 11 18  1  0  0  0  0
 12 18  1  0  0  0  0
 14 15  2  0  0  0  0
 15 21  1  0  0  0  0
 16  7  1  0  0  0  0
 16  9  1  0  0  0  0
 17  4  1  0  0  0  0
 17  3  1  0  0  0  0
 19 20  1  0  0  0  0
 20 22  2  0  0  0  0
 21 24  2  0  0  0  0
 23 21  1  0  0  0  0
 23 19  2  0  0  0  0
 24 22  1  0  0  0  0
 25 19  1  0  0  0  0
 26 27  2  0  0  0  0
 27 16  1  0  0  0  0
 29 33  1  0  0  0  0
 29 26  1  1  0  0  0
 30 28  1  6  0  0  0
 30 29  1  0  0  0  0
 31 32  1  0  0  0  0
 32 33  1  0  0  0  0
 34 31  1  0  0  0  0
 34 30  1  0  0  0  0
M  END
>  <MODEL>
8

>  <REMARK>
 VINA RESULT:      -6.7      2.519      3.703
  Name = 
  3 active torsions:
  status: ('A' for Active; 'I' for Inactive)
    1  A    between atoms: C_3  and  C_13
    2  A    between atoms: C_12  and  C_28
    3  A    between atoms: N_17  and  N_29
                            x       y       z     vdW  Elec       q    Type
                         _______ _______ _______ _____ _____    ______ ____

>  <TORSDO>
F 3

$$$$
=
 OpenBabel11052418343D

 34 39  0  0  1  0  0  0  0  0999 V2000
  185.5290  178.9830  146.4000 C   0  0  1  0  0  3  0  0  0  0  0  0
  187.0360  177.1430  146.7740 C   0  0  1  0  0  3  0  0  0  0  0  0
  186.4010  177.8370  144.3150 C   0  0  0  0  0  0  0  0  0  0  0  0
  187.1420  176.9750  142.1680 C   0  0  0  0  0  0  0  0  0  0  0  0
  186.8050  178.8470  148.5070 C   0  0  0  0  0  3  0  0  0  0  0  0
  187.3140  177.7180  148.1000 N   0  0  0  0  0  0  0  0  0  0  0  0
  188.7420  177.0870  143.6890 C   0  0  0  0  0  3  0  0  0  0  0  0
  186.7150  178.2640  145.7540 C   0  0  1  0  0  3  0  0  0  0  0  0
  188.3060  176.5230  141.5900 C   0  0  0  0  0  3  0  0  0  0  0  0
  185.9460  179.6040  147.6450 N   0  0  0  0  0  2  0  0  0  0  0  0
  185.1540  178.1730  143.6930 C   0  0  0  0  0  0  0  0  0  0  0  0
  184.8310  179.9300  145.4610 C   0  0  0  0  0  2  0  0  0  0  0  0
  188.1830  176.2310  146.3930 C   0  0  0  0  0  1  0  0  0  0  0  0
  185.9030  177.1700  141.5840 C   0  0  0  0  0  3  0  0  0  0  0  0
  184.8820  177.7660  142.3480 C   0  0  0  0  0  0  0  0  0  0  0  0
  189.2630  176.5990  142.5430 N   0  0  0  0  0  0  0  0  0  0  0  0
  187.3950  177.3060  143.4740 C   0  0  0  0  0  0  0  0  0  0  0  0
  184.1590  179.0490  144.4190 C   0  0  0  0  0  2  0  0  0  0  0  0
  181.2550  178.7430  141.7770 C   0  0  0  0  0  0  0  0  0  0  0  0
  181.0600  178.3120  140.4630 C   0  0  0  0  0  3  0  0  0  0  0  0
  183.5660  177.9800  141.6930 C   0  0  0  0  0  0  0  0  0  0  0  0
  182.1070  177.7100  139.7630 C   0  0  0  0  0  3  0  0  0  0  0  0
  182.5000  178.5720  142.3900 C   0  0  0  0  0  3  0  0  0  0  0  0
  183.3510  177.5410  140.3760 C   0  0  0  0  0  3  0  0  0  0  0  0
  180.2380  179.3210  142.4580 F   0  0  0  0  0  0  0  0  0  0  0  0
  191.5450  176.7430  143.1400 C   0  0  0  0  0  3  0  0  0  0  0  0
  190.6150  176.2490  142.3870 N   0  0  0  0  0  0  0  0  0  0  0  0
  193.6460  177.3310  145.0130 F   0  0  0  0  0  0  0  0  0  0  0  0
  192.9690  176.3440  142.9430 C   0  0  1  0  0  3  0  0  0  0  0  0
  193.6500  176.1460  144.3010 C   0  0  1  0  0  3  0  0  0  0  0  0
  195.1390  174.3950  143.2970 C   0  0  0  0  0  2  0  0  0  0  0  0
  194.4800  174.6110  141.9390 C   0  0  0  0  0  2  0  0  0  0  0  0
  193.0320  175.0530  142.1250 C   0  0  0  0  0  2  0  0  0  0  0  0
  195.0940  175.6850  144.1110 C   0  0  0  0  0  2  0  0  0  0  0  0
  1 12  1  6  0  0  0
  1 10  1  0  0  0  0
  2 13  1  6  0  0  0
  2  6  1  0  0  0  0
  4 17  1  0  0  0  0
  6  5  2  0  0  0  0
  8  3  1  6  0  0  0
  8  1  1  0  0  0  0
  8  2  1  0  0  0  0
  9  4  2  0  0  0  0
  9 16  1  0  0  0  0
 10  5  1  0  0  0  0
 11  3  2  0  0  0  0
 11 18  1  0  0  0  0
 14  4  1  0  0  0  0
 14 15  2  0  0  0  0
 15 11  1  0  0  0  0
 16  7  1  0  0  0  0
 17  7  2  0  0  0  0
 17  3  1  0  0  0  0
 18 12  1  0  0  0  0
 19 23  1  0  0  0  0
 19 25  1  0  0  0  0
 20 19  2  0  0  0  0
 21 15  1  0  0  0  0
 21 23  2  0  0  0  0
 22 24  2  0  0  0  0
 22 20  1  0  0  0  0
 24 21  1  0  0  0  0
 27 16  1  0  0  0  0
 27 26  2  0  0  0  0
 29 26  1  1  0  0  0
 29 30  1  0  0  0  0
 30 28  1  6  0  0  0
 31 34  1  0  0  0  0
 32 33  1  0  0  0  0
 32 31  1  0  0  0  0
 33 29  1  0  0  0  0
 34 30  1  0  0  0  0
M  END
>  <MODEL>
9

>  <REMARK>
 VINA RESULT:      -6.4      4.222      6.118
  Name = 
  3 active torsions:
  status: ('A' for Active; 'I' for Inactive)
    1  A    between atoms: C_3  and  C_13
    2  A    between atoms: C_12  and  C_28
    3  A    between atoms: N_17  and  N_29
                            x       y       z     vdW  Elec       q    Type
                         _______ _______ _______ _____ _____    ______ ____

>  <TORSDO>
F 3

$$$$
