=
 OpenBabel11052418253D

 27 30  0  0  1  0  0  0  0  0999 V2000
  189.8340  176.1230  144.6160 C   0  0  2  0  0  3  0  0  0  0  0  0
  188.5740  176.8650  144.6860 N   0  0  0  0  0  0  0  0  0  0  0  0
  187.7200  175.9370  146.6270 O   0  0  0  0  0  0  0  0  0  0  0  0
  184.8480  179.3250  144.1300 C   0  0  0  0  0  3  0  0  0  0  0  0
  183.2630  178.9570  145.8860 F   0  0  0  0  0  0  0  0  0  0  0  0
  188.1540  177.7380  143.7740 N   0  0  0  0  0  2  0  0  0  0  0  0
  185.3380  177.7640  145.9510 C   0  0  0  0  0  0  0  0  0  0  0  0
  184.9920  177.1360  147.1020 F   0  0  0  0  0  0  0  0  0  0  0  0
  186.5650  177.5250  145.3360 C   0  0  0  0  0  0  0  0  0  0  0  0
  184.4700  178.6840  145.3320 C   0  0  0  0  0  0  0  0  0  0  0  0
  186.9320  178.1480  144.1700 C   0  0  0  0  0  0  0  0  0  0  0  0
  187.6270  176.7120  145.6370 C   0  0  0  0  0  0  0  0  0  0  0  0
  186.0950  179.0590  143.5310 C   0  0  0  0  0  3  0  0  0  0  0  0
  189.3220  171.9760  143.5810 C   0  0  0  0  0  3  0  0  0  0  0  0
  189.6530  174.6690  144.2820 C   0  0  0  0  0  0  0  0  0  0  0  0
  189.9050  173.6580  145.2200 C   0  0  0  0  0  3  0  0  0  0  0  0
  189.7390  172.3150  144.8710 C   0  0  0  0  0  3  0  0  0  0  0  0
  189.0730  172.9800  142.6410 C   0  0  0  0  0  3  0  0  0  0  0  0
  189.2390  174.3220  142.9910 C   0  0  0  0  0  3  0  0  0  0  0  0
  190.7570  176.3900  145.8140 C   0  0  0  0  0  2  0  0  0  0  0  0
  195.0980  176.1370  144.1370 C   0  0  0  0  0  2  0  0  0  0  0  0
  195.0600  175.2270  145.3410 C   0  0  0  0  0  2  0  0  0  0  0  0
  192.2140  176.3030  145.4940 C   0  0  0  0  0  0  0  0  0  0  0  0
  193.7680  176.2290  143.4640 C   0  0  0  0  0  3  0  0  0  0  0  0
  194.5440  176.0450  146.5010 C   0  0  0  0  0  2  0  0  0  0  0  0
  193.0510  176.1270  146.5270 C   0  0  0  0  0  3  0  0  0  0  0  0
  192.5720  176.3210  144.0540 C   0  0  0  0  0  3  0  0  0  0  0  0
  1  2  1  0  0  0  0
  1 20  1  1  0  0  0
  2 12  1  0  0  0  0
  4 10  1  0  0  0  0
  6 11  1  0  0  0  0
  6  2  1  0  0  0  0
  7  8  1  0  0  0  0
  9 12  1  0  0  0  0
  9  7  1  0  0  0  0
 10  5  1  0  0  0  0
 10  7  2  0  0  0  0
 11  9  2  0  0  0  0
 12  3  2  0  0  0  0
 13  4  2  0  0  0  0
 13 11  1  0  0  0  0
 14 17  1  0  0  0  0
 15  1  1  0  0  0  0
 15 16  1  0  0  0  0
 17 16  2  0  0  0  0
 18 19  1  0  0  0  0
 18 14  2  0  0  0  0
 19 15  2  0  0  0  0
 21 22  1  0  0  0  0
 22 25  1  0  0  0  0
 23 20  1  0  0  0  0
 23 26  2  0  0  0  0
 24 27  2  0  0  0  0
 24 21  1  0  0  0  0
 25 26  1  0  0  0  0
 27 23  1  0  0  0  0
M  END
>  <MODEL>
1

>  <REMARK>
 VINA RESULT:      -8.4      0.000      0.000
  Name = 
  4 active torsions:
  status: ('A' for Active; 'I' for Inactive)
    1  A    between atoms: C_1  and  C_15
    2  A    between atoms: C_1  and  C_18
    3  A    between atoms: N_2  and  C_15
    4  A    between atoms: C_9  and  C_15
                            x       y       z     vdW  Elec       q    Type
                         _______ _______ _______ _____ _____    ______ ____

>  <TORSDO>
F 4

$$$$
=
 OpenBabel11052418253D

 27 30  0  0  1  0  0  0  0  0999 V2000
  188.9550  176.2200  145.1650 C   0  0  2  0  0  3  0  0  0  0  0  0
  190.3770  175.9030  145.3140 N   0  0  0  0  0  0  0  0  0  0  0  0
  190.2960  173.6500  144.7880 O   0  0  0  0  0  0  0  0  0  0  0  0
  194.7860  175.6280  146.1640 C   0  0  0  0  0  3  0  0  0  0  0  0
  195.6260  173.4130  145.8200 F   0  0  0  0  0  0  0  0  0  0  0  0
  191.3100  176.7630  145.7130 N   0  0  0  0  0  2  0  0  0  0  0  0
  193.3010  173.8260  145.4310 C   0  0  0  0  0  0  0  0  0  0  0  0
  193.0830  172.5320  145.0860 F   0  0  0  0  0  0  0  0  0  0  0  0
  192.2670  174.7590  145.4310 C   0  0  0  0  0  0  0  0  0  0  0  0
  194.5820  174.2760  145.8030 C   0  0  0  0  0  0  0  0  0  0  0  0
  192.4650  176.0710  145.7810 C   0  0  0  0  0  0  0  0  0  0  0  0
  190.9270  174.6810  145.1440 C   0  0  0  0  0  0  0  0  0  0  0  0
  193.7180  176.5470  146.1570 C   0  0  0  0  0  3  0  0  0  0  0  0
  187.7850  177.2450  141.1510 C   0  0  0  0  0  3  0  0  0  0  0  0
  188.5700  176.5920  143.7610 C   0  0  0  0  0  0  0  0  0  0  0  0
  189.1400  177.6930  143.1050 C   0  0  0  0  0  3  0  0  0  0  0  0
  188.7490  178.0180  141.8040 C   0  0  0  0  0  3  0  0  0  0  0  0
  187.2110  176.1490  141.8020 C   0  0  0  0  0  3  0  0  0  0  0  0
  187.6030  175.8250  143.1030 C   0  0  0  0  0  3  0  0  0  0  0  0
  188.4380  177.1840  146.2430 C   0  0  0  0  0  2  0  0  0  0  0  0
  184.1720  178.8750  145.4260 C   0  0  0  0  0  2  0  0  0  0  0  0
  184.1420  178.3230  146.8310 C   0  0  0  0  0  2  0  0  0  0  0  0
  186.9950  177.5460  146.0980 C   0  0  0  0  0  0  0  0  0  0  0  0
  185.5310  179.3610  145.0460 C   0  0  0  0  0  3  0  0  0  0  0  0
  184.6190  176.8920  146.7570 C   0  0  0  0  0  2  0  0  0  0  0  0
  186.1100  176.7830  146.7550 C   0  0  0  0  0  3  0  0  0  0  0  0
  186.7020  178.7740  145.3190 C   0  0  0  0  0  3  0  0  0  0  0  0
  1  2  1  0  0  0  0
  1 20  1  1  0  0  0
  2  6  1  0  0  0  0
  3 12  2  0  0  0  0
  6 11  1  0  0  0  0
  7 10  1  0  0  0  0
  8  7  1  0  0  0  0
  9  7  2  0  0  0  0
  9 11  1  0  0  0  0
 10  5  1  0  0  0  0
 10  4  2  0  0  0  0
 11 13  2  0  0  0  0
 12  2  1  0  0  0  0
 12  9  1  0  0  0  0
 13  4  1  0  0  0  0
 14 18  2  0  0  0  0
 14 17  1  0  0  0  0
 15  1  1  0  0  0  0
 16 15  1  0  0  0  0
 17 16  2  0  0  0  0
 18 19  1  0  0  0  0
 19 15  2  0  0  0  0
 21 22  1  0  0  0  0
 23 20  1  0  0  0  0
 23 26  2  0  0  0  0
 24 27  2  0  0  0  0
 24 21  1  0  0  0  0
 25 22  1  0  0  0  0
 26 25  1  0  0  0  0
 27 23  1  0  0  0  0
M  END
>  <MODEL>
2

>  <REMARK>
 VINA RESULT:      -8.2      3.494      7.408
  Name = 
  4 active torsions:
  status: ('A' for Active; 'I' for Inactive)
    1  A    between atoms: C_1  and  C_15
    2  A    between atoms: C_1  and  C_18
    3  A    between atoms: N_2  and  C_15
    4  A    between atoms: C_9  and  C_15
                            x       y       z     vdW  Elec       q    Type
                         _______ _______ _______ _____ _____    ______ ____

>  <TORSDO>
F 4

$$$$
=
 OpenBabel11052418253D

 27 30  0  0  1  0  0  0  0  0999 V2000
  189.7960  175.9450  144.7460 C   0  0  2  0  0  3  0  0  0  0  0  0
  188.4810  176.5670  144.9150 N   0  0  0  0  0  0  0  0  0  0  0  0
  188.4930  177.9400  143.0520 O   0  0  0  0  0  0  0  0  0  0  0  0
  184.4860  178.1980  146.1890 C   0  0  0  0  0  3  0  0  0  0  0  0
  183.6610  179.8410  144.6560 F   0  0  0  0  0  0  0  0  0  0  0  0
  187.6640  176.3500  145.9420 N   0  0  0  0  0  2  0  0  0  0  0  0
  185.7760  178.8140  144.2020 C   0  0  0  0  0  0  0  0  0  0  0  0
  185.9350  179.5410  143.0670 F   0  0  0  0  0  0  0  0  0  0  0  0
  186.7370  177.8940  144.6140 C   0  0  0  0  0  0  0  0  0  0  0  0
  184.6310  178.9610  145.0080 C   0  0  0  0  0  0  0  0  0  0  0  0
  186.5960  177.1520  145.7590 C   0  0  0  0  0  0  0  0  0  0  0  0
  187.9480  177.5030  144.1010 C   0  0  0  0  0  0  0  0  0  0  0  0
  185.4780  177.2770  146.5800 C   0  0  0  0  0  3  0  0  0  0  0  0
  189.6110  171.8570  143.4100 C   0  0  0  0  0  3  0  0  0  0  0  0
  189.7240  174.5110  144.3050 C   0  0  0  0  0  0  0  0  0  0  0  0
  189.8450  173.4500  145.2160 C   0  0  0  0  0  3  0  0  0  0  0  0
  189.7870  172.1270  144.7700 C   0  0  0  0  0  3  0  0  0  0  0  0
  189.4940  172.9100  142.4980 C   0  0  0  0  0  3  0  0  0  0  0  0
  189.5520  174.2320  142.9450 C   0  0  0  0  0  3  0  0  0  0  0  0
  190.7400  176.2010  145.9300 C   0  0  0  0  0  2  0  0  0  0  0  0
  195.0420  176.1800  144.1350 C   0  0  0  0  0  2  0  0  0  0  0  0
  195.0650  175.2080  145.2900 C   0  0  0  0  0  2  0  0  0  0  0  0
  192.1910  176.1790  145.5700 C   0  0  0  0  0  0  0  0  0  0  0  0
  193.6920  176.2630  143.5010 C   0  0  0  0  0  3  0  0  0  0  0  0
  194.5530  175.9470  146.5040 C   0  0  0  0  0  2  0  0  0  0  0  0
  193.0600  175.9780  146.5700 C   0  0  0  0  0  3  0  0  0  0  0  0
  192.5090  176.2840  144.1240 C   0  0  0  0  0  3  0  0  0  0  0  0
  1  2  1  0  0  0  0
  1 20  1  1  0  0  0
  2  6  1  0  0  0  0
  3 12  2  0  0  0  0
  4 13  1  0  0  0  0
  5 10  1  0  0  0  0
  7  9  2  0  0  0  0
  7 10  1  0  0  0  0
  8  7  1  0  0  0  0
  9 11  1  0  0  0  0
 10  4  2  0  0  0  0
 11  6  1  0  0  0  0
 11 13  2  0  0  0  0
 12  9  1  0  0  0  0
 12  2  1  0  0  0  0
 14 17  1  0  0  0  0
 15  1  1  0  0  0  0
 15 16  1  0  0  0  0
 17 16  2  0  0  0  0
 18 19  1  0  0  0  0
 18 14  2  0  0  0  0
 19 15  2  0  0  0  0
 21 22  1  0  0  0  0
 22 25  1  0  0  0  0
 23 20  1  0  0  0  0
 23 26  2  0  0  0  0
 24 27  2  0  0  0  0
 24 21  1  0  0  0  0
 25 26  1  0  0  0  0
 27 23  1  0  0  0  0
M  END
>  <MODEL>
3

>  <REMARK>
 VINA RESULT:      -8.2      1.267      1.732
  Name = 
  4 active torsions:
  status: ('A' for Active; 'I' for Inactive)
    1  A    between atoms: C_1  and  C_15
    2  A    between atoms: C_1  and  C_18
    3  A    between atoms: N_2  and  C_15
    4  A    between atoms: C_9  and  C_15
                            x       y       z     vdW  Elec       q    Type
                         _______ _______ _______ _____ _____    ______ ____

>  <TORSDO>
F 4

$$$$
=
 OpenBabel11052418253D

 27 30  0  0  1  0  0  0  0  0999 V2000
  189.1080  176.4210  144.7340 C   0  0  2  0  0  3  0  0  0  0  0  0
  189.0420  175.5450  143.5630 N   0  0  0  0  0  0  0  0  0  0  0  0
  188.2060  177.0620  142.0270 O   0  0  0  0  0  0  0  0  0  0  0  0
  188.9140  172.2540  140.4970 C   0  0  0  0  0  3  0  0  0  0  0  0
  188.1010  173.0320  138.3840 F   0  0  0  0  0  0  0  0  0  0  0  0
  189.3460  174.2490  143.5640 N   0  0  0  0  0  2  0  0  0  0  0  0
  188.2690  174.5950  140.1890 C   0  0  0  0  0  0  0  0  0  0  0  0
  187.7970  175.6050  139.4170 F   0  0  0  0  0  0  0  0  0  0  0  0
  188.6180  174.8040  141.5210 C   0  0  0  0  0  0  0  0  0  0  0  0
  188.4240  173.2940  139.6740 C   0  0  0  0  0  0  0  0  0  0  0  0
  189.0940  173.7950  142.3200 C   0  0  0  0  0  0  0  0  0  0  0  0
  188.5920  175.9040  142.3410 C   0  0  0  0  0  0  0  0  0  0  0  0
  189.2560  172.4980  141.8420 C   0  0  0  0  0  3  0  0  0  0  0  0
  193.0020  176.5780  146.5620 C   0  0  0  0  0  3  0  0  0  0  0  0
  190.4760  176.4910  145.3500 C   0  0  0  0  0  0  0  0  0  0  0  0
  191.6220  176.7370  144.5800 C   0  0  0  0  0  3  0  0  0  0  0  0
  192.8820  176.7810  145.1840 C   0  0  0  0  0  3  0  0  0  0  0  0
  191.8630  176.3290  147.3330 C   0  0  0  0  0  3  0  0  0  0  0  0
  190.6040  176.2850  146.7280 C   0  0  0  0  0  3  0  0  0  0  0  0
  187.9700  176.1730  145.7350 C   0  0  0  0  0  2  0  0  0  0  0  0
  184.1120  178.7860  145.8630 C   0  0  0  0  0  2  0  0  0  0  0  0
  184.6020  178.8310  144.4350 C   0  0  0  0  0  2  0  0  0  0  0  0
  186.8420  177.1490  145.6320 C   0  0  0  0  0  0  0  0  0  0  0  0
  184.4770  177.5050  146.5380 C   0  0  0  0  0  3  0  0  0  0  0  0
  186.0440  179.2770  144.4730 C   0  0  0  0  0  2  0  0  0  0  0  0
  186.9870  178.1510  144.7520 C   0  0  0  0  0  3  0  0  0  0  0  0
  185.6380  176.8480  146.4440 C   0  0  0  0  0  3  0  0  0  0  0  0
  1 15  1  0  0  0  0
  1 20  1  1  0  0  0
  2  6  1  0  0  0  0
  2  1  1  0  0  0  0
  3 12  2  0  0  0  0
  4 13  1  0  0  0  0
  5 10  1  0  0  0  0
  7  9  2  0  0  0  0
  8  7  1  0  0  0  0
  9 11  1  0  0  0  0
  9 12  1  0  0  0  0
 10  7  1  0  0  0  0
 10  4  2  0  0  0  0
 11  6  1  0  0  0  0
 12  2  1  0  0  0  0
 13 11  2  0  0  0  0
 14 18  1  0  0  0  0
 15 19  1  0  0  0  0
 16 17  1  0  0  0  0
 16 15  2  0  0  0  0
 17 14  2  0  0  0  0
 19 18  2  0  0  0  0
 21 24  1  0  0  0  0
 22 25  1  0  0  0  0
 22 21  1  0  0  0  0
 23 20  1  0  0  0  0
 23 27  1  0  0  0  0
 25 26  1  0  0  0  0
 26 23  2  0  0  0  0
 27 24  2  0  0  0  0
M  END
>  <MODEL>
4

>  <REMARK>
 VINA RESULT:      -8.1      3.036      6.885
  Name = 
  4 active torsions:
  status: ('A' for Active; 'I' for Inactive)
    1  A    between atoms: C_1  and  C_15
    2  A    between atoms: C_1  and  C_18
    3  A    between atoms: N_2  and  C_15
    4  A    between atoms: C_9  and  C_15
                            x       y       z     vdW  Elec       q    Type
                         _______ _______ _______ _____ _____    ______ ____

>  <TORSDO>
F 4

$$$$
=
 OpenBabel11052418253D

 27 30  0  0  1  0  0  0  0  0999 V2000
  188.3110  176.8110  144.6670 C   0  0  2  0  0  3  0  0  0  0  0  0
  188.3190  175.9800  143.4620 N   0  0  0  0  0  0  0  0  0  0  0  0
  189.3750  174.1090  144.3250 O   0  0  0  0  0  0  0  0  0  0  0  0
  188.1840  174.1120  139.3710 C   0  0  0  0  0  3  0  0  0  0  0  0
  189.1530  171.9230  139.3550 F   0  0  0  0  0  0  0  0  0  0  0  0
  187.8720  176.3640  142.2700 N   0  0  0  0  0  2  0  0  0  0  0  0
  189.0990  173.1340  141.4200 C   0  0  0  0  0  0  0  0  0  0  0  0
  189.7100  172.1190  142.0820 F   0  0  0  0  0  0  0  0  0  0  0  0
  188.7290  174.3060  142.0740 C   0  0  0  0  0  0  0  0  0  0  0  0
  188.8160  173.0410  140.0430 C   0  0  0  0  0  0  0  0  0  0  0  0
  188.1140  175.3450  141.4220 C   0  0  0  0  0  0  0  0  0  0  0  0
  188.8500  174.7410  143.3690 C   0  0  0  0  0  0  0  0  0  0  0  0
  187.8240  175.2860  140.0610 C   0  0  0  0  0  3  0  0  0  0  0  0
  184.4810  178.5680  145.5440 C   0  0  0  0  0  3  0  0  0  0  0  0
  186.9760  177.4390  144.9500 C   0  0  0  0  0  0  0  0  0  0  0  0
  186.5960  178.6600  144.3730 C   0  0  0  0  0  3  0  0  0  0  0  0
  185.3520  179.2220  144.6690 C   0  0  0  0  0  3  0  0  0  0  0  0
  184.8560  177.3530  146.1250 C   0  0  0  0  0  3  0  0  0  0  0  0
  186.1010  176.7910  145.8280 C   0  0  0  0  0  3  0  0  0  0  0  0
  189.4990  177.7820  144.7360 C   0  0  0  0  0  2  0  0  0  0  0  0
  193.5890  176.1610  146.2760 C   0  0  0  0  0  2  0  0  0  0  0  0
  192.5300  175.2740  146.8860 C   0  0  0  0  0  2  0  0  0  0  0  0
  190.7020  177.2270  145.4270 C   0  0  0  0  0  0  0  0  0  0  0  0
  193.1630  176.7120  144.9560 C   0  0  0  0  0  3  0  0  0  0  0  0
  191.5460  176.1750  147.5930 C   0  0  0  0  0  2  0  0  0  0  0  0
  190.5220  176.7470  146.6660 C   0  0  0  0  0  3  0  0  0  0  0  0
  191.9520  177.1750  144.6290 C   0  0  0  0  0  3  0  0  0  0  0  0
  1 20  1  6  0  0  0
  1 15  1  0  0  0  0
  2  1  1  0  0  0  0
  4 10  2  0  0  0  0
  4 13  1  0  0  0  0
  5 10  1  0  0  0  0
  6  2  1  0  0  0  0
  7  9  2  0  0  0  0
  7  8  1  0  0  0  0
  9 12  1  0  0  0  0
 10  7  1  0  0  0  0
 11  9  1  0  0  0  0
 11  6  1  0  0  0  0
 12  2  1  0  0  0  0
 12  3  2  0  0  0  0
 13 11  2  0  0  0  0
 14 18  1  0  0  0  0
 15 19  1  0  0  0  0
 16 17  1  0  0  0  0
 16 15  2  0  0  0  0
 17 14  2  0  0  0  0
 19 18  2  0  0  0  0
 20 23  1  0  0  0  0
 21 22  1  0  0  0  0
 22 25  1  0  0  0  0
 23 26  2  0  0  0  0
 24 21  1  0  0  0  0
 26 25  1  0  0  0  0
 27 24  2  0  0  0  0
 27 23  1  0  0  0  0
M  END
>  <MODEL>
5

>  <REMARK>
 VINA RESULT:      -7.9      3.046      5.463
  Name = 
  4 active torsions:
  status: ('A' for Active; 'I' for Inactive)
    1  A    between atoms: C_1  and  C_15
    2  A    between atoms: C_1  and  C_18
    3  A    between atoms: N_2  and  C_15
    4  A    between atoms: C_9  and  C_15
                            x       y       z     vdW  Elec       q    Type
                         _______ _______ _______ _____ _____    ______ ____

>  <TORSDO>
F 4

$$$$
=
 OpenBabel11052418253D

 27 30  0  0  1  0  0  0  0  0999 V2000
  190.1920  175.9230  144.7270 C   0  0  2  0  0  3  0  0  0  0  0  0
  188.8710  176.4500  145.0780 N   0  0  0  0  0  0  0  0  0  0  0  0
  188.5880  177.9120  143.3060 O   0  0  0  0  0  0  0  0  0  0  0  0
  184.9610  177.7560  146.8820 C   0  0  0  0  0  3  0  0  0  0  0  0
  183.8710  179.4170  145.5460 F   0  0  0  0  0  0  0  0  0  0  0  0
  188.1910  176.1300  146.1760 N   0  0  0  0  0  2  0  0  0  0  0  0
  185.9750  178.5510  144.8000 C   0  0  0  0  0  0  0  0  0  0  0  0
  185.9600  179.3420  143.6980 F   0  0  0  0  0  0  0  0  0  0  0  0
  187.0290  177.6760  145.0490 C   0  0  0  0  0  0  0  0  0  0  0  0
  184.9240  178.5850  145.7370 C   0  0  0  0  0  0  0  0  0  0  0  0
  187.0650  176.8710  146.1600 C   0  0  0  0  0  0  0  0  0  0  0  0
  188.1940  177.3890  144.3830 C   0  0  0  0  0  0  0  0  0  0  0  0
  186.0440  176.8830  147.1060 C   0  0  0  0  0  3  0  0  0  0  0  0
  190.0000  172.8210  141.7490 C   0  0  0  0  0  3  0  0  0  0  0  0
  190.1450  174.8530  143.6740 C   0  0  0  0  0  0  0  0  0  0  0  0
  190.6450  175.0660  142.3810 C   0  0  0  0  0  3  0  0  0  0  0  0
  190.5740  174.0530  141.4210 C   0  0  0  0  0  3  0  0  0  0  0  0
  189.4970  172.6040  143.0350 C   0  0  0  0  0  3  0  0  0  0  0  0
  189.5690  173.6180  143.9940 C   0  0  0  0  0  3  0  0  0  0  0  0
  191.0450  175.5710  145.9550 C   0  0  0  0  0  2  0  0  0  0  0  0
  195.2850  173.8460  145.0790 C   0  0  0  0  0  2  0  0  0  0  0  0
  195.5050  175.1470  145.8130 C   0  0  0  0  0  2  0  0  0  0  0  0
  192.4650  175.2340  145.6350 C   0  0  0  0  0  0  0  0  0  0  0  0
  194.0000  173.1950  145.4700 C   0  0  0  0  0  3  0  0  0  0  0  0
  194.7490  176.2160  145.0610 C   0  0  0  0  0  2  0  0  0  0  0  0
  193.3010  176.2630  145.4300 C   0  0  0  0  0  3  0  0  0  0  0  0
  192.8230  173.7950  145.6760 C   0  0  0  0  0  3  0  0  0  0  0  0
  1  2  1  0  0  0  0
  1 20  1  1  0  0  0
  2  6  1  0  0  0  0
  3 12  2  0  0  0  0
  4 13  1  0  0  0  0
  5 10  1  0  0  0  0
  7  9  2  0  0  0  0
  7 10  1  0  0  0  0
  8  7  1  0  0  0  0
  9 11  1  0  0  0  0
 10  4  2  0  0  0  0
 11  6  1  0  0  0  0
 11 13  2  0  0  0  0
 12  9  1  0  0  0  0
 12  2  1  0  0  0  0
 14 18  1  0  0  0  0
 15 19  1  0  0  0  0
 15  1  1  0  0  0  0
 16 15  2  0  0  0  0
 17 14  2  0  0  0  0
 17 16  1  0  0  0  0
 18 19  2  0  0  0  0
 21 24  1  0  0  0  0
 21 22  1  0  0  0  0
 23 27  1  0  0  0  0
 23 20  1  0  0  0  0
 24 27  2  0  0  0  0
 25 26  1  0  0  0  0
 25 22  1  0  0  0  0
 26 23  2  0  0  0  0
M  END
>  <MODEL>
6

>  <REMARK>
 VINA RESULT:      -7.8      1.611      2.350
  Name = 
  4 active torsions:
  status: ('A' for Active; 'I' for Inactive)
    1  A    between atoms: C_1  and  C_15
    2  A    between atoms: C_1  and  C_18
    3  A    between atoms: N_2  and  C_15
    4  A    between atoms: C_9  and  C_15
                            x       y       z     vdW  Elec       q    Type
                         _______ _______ _______ _____ _____    ______ ____

>  <TORSDO>
F 4

$$$$
=
 OpenBabel11052418253D

 27 30  0  0  1  0  0  0  0  0999 V2000
  189.5850  175.8440  144.5830 C   0  0  2  0  0  3  0  0  0  0  0  0
  191.0420  175.8340  144.7300 N   0  0  0  0  0  0  0  0  0  0  0  0
  191.6230  176.4540  142.5760 O   0  0  0  0  0  0  0  0  0  0  0  0
  195.3760  175.3830  145.8510 C   0  0  0  0  0  3  0  0  0  0  0  0
  196.8320  175.9000  144.0220 F   0  0  0  0  0  0  0  0  0  0  0  0
  191.6930  175.4780  145.8340 N   0  0  0  0  0  2  0  0  0  0  0  0
  194.4670  176.0670  143.6840 C   0  0  0  0  0  0  0  0  0  0  0  0
  194.6340  176.4510  142.3940 F   0  0  0  0  0  0  0  0  0  0  0  0
  193.1980  175.9340  144.2410 C   0  0  0  0  0  0  0  0  0  0  0  0
  195.5720  175.7870  144.5110 C   0  0  0  0  0  0  0  0  0  0  0  0
  193.0080  175.5420  145.5430 C   0  0  0  0  0  0  0  0  0  0  0  0
  191.9290  176.1070  143.7480 C   0  0  0  0  0  0  0  0  0  0  0  0
  194.0790  175.2550  146.3850 C   0  0  0  0  0  3  0  0  0  0  0  0
  188.1390  173.1080  141.5910 C   0  0  0  0  0  3  0  0  0  0  0  0
  189.0830  174.8680  143.5570 C   0  0  0  0  0  0  0  0  0  0  0  0
  189.3530  173.4950  143.6480 C   0  0  0  0  0  3  0  0  0  0  0  0
  188.8810  172.6170  142.6690 C   0  0  0  0  0  3  0  0  0  0  0  0
  187.8710  174.4760  141.4930 C   0  0  0  0  0  3  0  0  0  0  0  0
  188.3430  175.3530  142.4730 C   0  0  0  0  0  3  0  0  0  0  0  0
  189.0040  177.2590  144.4550 C   0  0  0  0  0  2  0  0  0  0  0  0
  184.8320  178.3370  146.2340 C   0  0  0  0  0  2  0  0  0  0  0  0
  185.7720  178.2170  147.4100 C   0  0  0  0  0  2  0  0  0  0  0  0
  187.7200  177.4610  145.1940 C   0  0  0  0  0  0  0  0  0  0  0  0
  185.5400  178.7840  144.9980 C   0  0  0  0  0  3  0  0  0  0  0  0
  186.4350  176.8640  147.3150 C   0  0  0  0  0  2  0  0  0  0  0  0
  187.6080  176.8630  146.3880 C   0  0  0  0  0  3  0  0  0  0  0  0
  186.7420  178.3860  144.5680 C   0  0  0  0  0  3  0  0  0  0  0  0
  1 20  1  6  0  0  0
  1  2  1  0  0  0  0
  2  6  1  0  0  0  0
  3 12  2  0  0  0  0
  4 13  1  0  0  0  0
  5 10  1  0  0  0  0
  7  9  2  0  0  0  0
  7 10  1  0  0  0  0
  8  7  1  0  0  0  0
  9 11  1  0  0  0  0
 10  4  2  0  0  0  0
 11  6  1  0  0  0  0
 11 13  2  0  0  0  0
 12  9  1  0  0  0  0
 12  2  1  0  0  0  0
 14 17  1  0  0  0  0
 15 16  1  0  0  0  0
 15  1  1  0  0  0  0
 17 16  2  0  0  0  0
 18 14  2  0  0  0  0
 18 19  1  0  0  0  0
 19 15  2  0  0  0  0
 20 23  1  0  0  0  0
 21 22  1  0  0  0  0
 23 26  2  0  0  0  0
 24 21  1  0  0  0  0
 25 22  1  0  0  0  0
 26 25  1  0  0  0  0
 27 24  2  0  0  0  0
 27 23  1  0  0  0  0
M  END
>  <MODEL>
7

>  <REMARK>
 VINA RESULT:      -7.7      3.578      7.216
  Name = 
  4 active torsions:
  status: ('A' for Active; 'I' for Inactive)
    1  A    between atoms: C_1  and  C_15
    2  A    between atoms: C_1  and  C_18
    3  A    between atoms: N_2  and  C_15
    4  A    between atoms: C_9  and  C_15
                            x       y       z     vdW  Elec       q    Type
                         _______ _______ _______ _____ _____    ______ ____

>  <TORSDO>
F 4

$$$$
=
 OpenBabel11052418253D

 27 30  0  0  1  0  0  0  0  0999 V2000
  189.9110  175.4500  144.3040 C   0  0  2  0  0  3  0  0  0  0  0  0
  188.8130  176.2770  144.8080 N   0  0  0  0  0  0  0  0  0  0  0  0
  188.5240  175.2680  146.8710 O   0  0  0  0  0  0  0  0  0  0  0  0
  185.3510  179.0430  145.5900 C   0  0  0  0  0  3  0  0  0  0  0  0
  184.3680  178.6600  147.7380 F   0  0  0  0  0  0  0  0  0  0  0  0
  188.2140  177.2470  144.1220 N   0  0  0  0  0  2  0  0  0  0  0  0
  186.2360  177.3150  147.0800 C   0  0  0  0  0  0  0  0  0  0  0  0
  186.2090  176.6270  148.2490 F   0  0  0  0  0  0  0  0  0  0  0  0
  187.1800  177.0330  146.0960 C   0  0  0  0  0  0  0  0  0  0  0  0
  185.3090  178.3410  146.8160 C   0  0  0  0  0  0  0  0  0  0  0  0
  187.2220  177.7150  144.9060 C   0  0  0  0  0  0  0  0  0  0  0  0
  188.2010  176.1220  146.0020 C   0  0  0  0  0  0  0  0  0  0  0  0
  186.3180  178.7330  144.6130 C   0  0  0  0  0  3  0  0  0  0  0  0
  193.7160  176.2940  146.1310 C   0  0  0  0  0  3  0  0  0  0  0  0
  191.2360  175.7720  144.9340 C   0  0  0  0  0  0  0  0  0  0  0  0
  191.9770  176.9040  144.5630 C   0  0  0  0  0  3  0  0  0  0  0  0
  193.2130  177.1650  145.1600 C   0  0  0  0  0  3  0  0  0  0  0  0
  192.9840  175.1630  146.5030 C   0  0  0  0  0  3  0  0  0  0  0  0
  191.7480  174.9030  145.9040 C   0  0  0  0  0  3  0  0  0  0  0  0
  189.9410  175.3590  142.7710 C   0  0  0  0  0  2  0  0  0  0  0  0
  190.4470  170.8470  141.7170 C   0  0  0  0  0  2  0  0  0  0  0  0
  191.7340  171.5200  141.3050 C   0  0  0  0  0  2  0  0  0  0  0  0
  190.2120  173.9850  142.2470 C   0  0  0  0  0  0  0  0  0  0  0  0
  189.7980  171.5390  142.8690 C   0  0  0  0  0  3  0  0  0  0  0  0
  191.3660  172.6660  140.3940 C   0  0  0  0  0  2  0  0  0  0  0  0
  190.9730  173.8960  141.1470 C   0  0  0  0  0  3  0  0  0  0  0  0
  189.6910  172.8590  143.0600 C   0  0  0  0  0  3  0  0  0  0  0  0
  1 20  1  6  0  0  0
  1  2  1  0  0  0  0
  1 15  1  0  0  0  0
  2 12  1  0  0  0  0
  4 10  1  0  0  0  0
  6  2  1  0  0  0  0
  6 11  1  0  0  0  0
  7  8  1  0  0  0  0
  9  7  1  0  0  0  0
 10  7  2  0  0  0  0
 10  5  1  0  0  0  0
 11  9  2  0  0  0  0
 12  9  1  0  0  0  0
 12  3  2  0  0  0  0
 13 11  1  0  0  0  0
 13  4  2  0  0  0  0
 14 18  1  0  0  0  0
 15 19  1  0  0  0  0
 16 15  2  0  0  0  0
 16 17  1  0  0  0  0
 17 14  2  0  0  0  0
 19 18  2  0  0  0  0
 21 24  1  0  0  0  0
 22 21  1  0  0  0  0
 23 20  1  0  0  0  0
 23 27  1  0  0  0  0
 24 27  2  0  0  0  0
 25 26  1  0  0  0  0
 25 22  1  0  0  0  0
 26 23  2  0  0  0  0
M  END
>  <MODEL>
8

>  <REMARK>
 VINA RESULT:      -7.7      1.524      4.109
  Name = 
  4 active torsions:
  status: ('A' for Active; 'I' for Inactive)
    1  A    between atoms: C_1  and  C_15
    2  A    between atoms: C_1  and  C_18
    3  A    between atoms: N_2  and  C_15
    4  A    between atoms: C_9  and  C_15
                            x       y       z     vdW  Elec       q    Type
                         _______ _______ _______ _____ _____    ______ ____

>  <TORSDO>
F 4

$$$$
=
 OpenBabel11052418253D

 27 30  0  0  1  0  0  0  0  0999 V2000
  187.7430  176.3130  143.0340 C   0  0  2  0  0  3  0  0  0  0  0  0
  188.8200  176.2280  144.0230 N   0  0  0  0  0  0  0  0  0  0  0  0
  190.4880  177.2980  142.8270 O   0  0  0  0  0  0  0  0  0  0  0  0
  191.6650  175.4080  147.4110 C   0  0  0  0  0  3  0  0  0  0  0  0
  193.8510  176.2800  146.9730 F   0  0  0  0  0  0  0  0  0  0  0  0
  188.7260  175.6130  145.1990 N   0  0  0  0  0  2  0  0  0  0  0  0
  192.1460  176.5880  145.3210 C   0  0  0  0  0  0  0  0  0  0  0  0
  193.0000  177.2480  144.4980 F   0  0  0  0  0  0  0  0  0  0  0  0
  190.8180  176.3710  144.9620 C   0  0  0  0  0  0  0  0  0  0  0  0
  192.5700  176.0970  146.5710 C   0  0  0  0  0  0  0  0  0  0  0  0
  189.9400  175.7030  145.7780 C   0  0  0  0  0  0  0  0  0  0  0  0
  190.0780  176.6880  143.8510 C   0  0  0  0  0  0  0  0  0  0  0  0
  190.3280  175.2020  147.0180 C   0  0  0  0  0  3  0  0  0  0  0  0
  184.6450  179.1280  144.0380 C   0  0  0  0  0  3  0  0  0  0  0  0
  186.6810  177.3130  143.3940 C   0  0  0  0  0  0  0  0  0  0  0  0
  186.8970  178.3040  144.3640 C   0  0  0  0  0  3  0  0  0  0  0  0
  185.8820  179.2090  144.6840 C   0  0  0  0  0  3  0  0  0  0  0  0
  184.4240  178.1400  143.0750 C   0  0  0  0  0  3  0  0  0  0  0  0
  185.4390  177.2350  142.7550 C   0  0  0  0  0  3  0  0  0  0  0  0
  187.2060  174.9390  142.6090 C   0  0  0  0  0  2  0  0  0  0  0  0
  190.3440  171.9260  140.9340 C   0  0  0  0  0  2  0  0  0  0  0  0
  190.7220  173.2780  140.3780 C   0  0  0  0  0  2  0  0  0  0  0  0
  188.2000  174.0940  141.8800 C   0  0  0  0  0  0  0  0  0  0  0  0
  189.6710  172.0370  142.2620 C   0  0  0  0  0  3  0  0  0  0  0  0
  189.4970  173.8400  139.6980 C   0  0  0  0  0  2  0  0  0  0  0  0
  188.5610  174.5050  140.6550 C   0  0  0  0  0  3  0  0  0  0  0  0
  188.7570  172.9410  142.6300 C   0  0  0  0  0  3  0  0  0  0  0  0
  1 20  1  1  0  0  0
  1 15  1  0  0  0  0
  1  2  1  0  0  0  0
  2  6  1  0  0  0  0
  3 12  2  0  0  0  0
  6 11  1  0  0  0  0
  7 10  1  0  0  0  0
  8  7  1  0  0  0  0
  9  7  2  0  0  0  0
  9 11  1  0  0  0  0
 10  5  1  0  0  0  0
 10  4  2  0  0  0  0
 11 13  2  0  0  0  0
 12  2  1  0  0  0  0
 12  9  1  0  0  0  0
 13  4  1  0  0  0  0
 14 17  1  0  0  0  0
 15 16  1  0  0  0  0
 16 17  2  0  0  0  0
 18 14  2  0  0  0  0
 19 18  1  0  0  0  0
 19 15  2  0  0  0  0
 21 24  1  0  0  0  0
 22 21  1  0  0  0  0
 23 20  1  0  0  0  0
 23 27  1  0  0  0  0
 24 27  2  0  0  0  0
 25 22  1  0  0  0  0
 25 26  1  0  0  0  0
 26 23  2  0  0  0  0
M  END
>  <MODEL>
9

>  <REMARK>
 VINA RESULT:      -7.6      3.123      6.456
  Name = 
  4 active torsions:
  status: ('A' for Active; 'I' for Inactive)
    1  A    between atoms: C_1  and  C_15
    2  A    between atoms: C_1  and  C_18
    3  A    between atoms: N_2  and  C_15
    4  A    between atoms: C_9  and  C_15
                            x       y       z     vdW  Elec       q    Type
                         _______ _______ _______ _____ _____    ______ ____

>  <TORSDO>
F 4

$$$$
