=
 OpenBabel11052419083D

 32 34  0  0  1  0  0  0  0  0999 V2000
  188.8020  175.6680  144.6930 C   0  0  2  0  0  3  0  0  0  0  0  0
  189.7110  174.8750  145.6520 C   0  0  1  0  0  3  0  0  0  0  0  0
  189.0360  174.6850  146.9990 C   0  0  0  0  0  1  0  0  0  0  0  0
  190.9940  171.3520  143.1860 C   0  0  0  0  0  1  0  0  0  0  0  0
  191.5400  173.4500  144.5620 N   0  0  0  0  0  0  0  0  0  0  0  0
  191.9700  172.2790  143.8280 C   0  0  0  0  0  0  0  0  0  0  0  0
  193.1990  172.0360  143.6850 O   0  0  0  0  0  0  0  0  0  0  0  0
  189.4660  172.5420  145.1900 O   0  0  0  0  0  0  0  0  0  0  0  0
  190.2090  173.5590  145.1110 C   0  0  0  0  0  0  0  0  0  0  0  0
  193.2190  175.2030  143.2910 S   0  0  0  0  0  0  0  0  0  0  0  0
  194.7480  175.6630  144.1590 C   0  0  0  0  0  2  0  0  0  0  0  0
  192.4820  174.5440  144.8270 C   0  0  2  0  0  3  0  0  0  0  0  0
  195.7790  174.8860  146.1340 O   0  0  0  0  0  0  0  0  0  0  0  0
  193.5730  174.1250  145.7980 C   0  0  0  0  0  2  0  0  0  0  0  0
  194.7850  174.8950  145.4290 C   0  0  0  0  0  0  0  0  0  0  0  0
  189.0070  175.3280  143.2220 C   0  0  0  0  0  2  0  0  0  0  0  0
  187.6840  175.3810  142.4750 C   0  0  0  0  0  2  0  0  0  0  0  0
  187.8520  176.1310  141.1650 C   0  0  0  0  0  2  0  0  0  0  0  0
  187.3430  177.4260  141.2850 O   0  0  0  0  0  0  0  0  0  0  0  0
  185.2640  178.2230  140.4610 C   0  0  0  0  0  2  0  0  0  0  0  0
  184.0190  178.1880  142.5950 C   0  0  0  0  0  1  0  0  0  0  0  0
  185.9610  177.2560  141.3950 C   0  0  2  0  0  3  0  0  0  0  0  0
  185.3420  178.5300  141.9420 C   0  0  1  0  0  3  0  0  0  0  0  0
  188.7470  177.1830  144.9510 C   0  0  1  0  0  3  0  0  0  0  0  0
  189.8110  177.9330  144.1570 C   0  0  0  0  0  2  0  0  0  0  0  0
  191.0750  177.7720  144.7270 O   0  0  0  0  0  1  0  0  0  0  0  0
  187.3680  177.8180  144.7790 C   0  0  0  0  0  2  0  0  0  0  0  0
  185.0980  178.1380  145.9980 C   0  0  0  0  0  2  0  0  0  0  0  0
  185.5510  176.6870  146.0970 C   0  0  0  0  0  2  0  0  0  0  0  0
  186.5730  177.8020  146.0750 C   0  0  0  0  0  0  0  0  0  0  0  0
  187.2810  177.9640  147.3870 C   0  0  0  0  0  3  0  0  0  0  0  0
  186.8940  178.7640  148.2270 O   0  0  0  0  0  0  0  0  0  0  0  0
  1 16  1  6  0  0  0
  1 24  1  0  0  0  0
  1  2  1  0  0  0  0
  2  3  1  1  0  0  0
  4  6  1  0  0  0  0
  5  9  1  0  0  0  0
  6  5  1  0  0  0  0
  7  6  2  0  0  0  0
  9  8  2  0  0  0  0
  9  2  1  0  0  0  0
 10 11  1  0  0  0  0
 10 12  1  0  0  0  0
 11 15  1  0  0  0  0
 12  5  1  6  0  0  0
 12 14  1  0  0  0  0
 15 14  1  0  0  0  0
 15 13  2  0  0  0  0
 17 16  1  0  0  0  0
 18 19  1  0  0  0  0
 18 17  1  0  0  0  0
 20 22  1  0  0  0  0
 20 23  1  0  0  0  0
 22 19  1  6  0  0  0
 22 23  1  0  0  0  0
 23 21  1  1  0  0  0
 24 25  1  6  0  0  0
 25 26  1  0  0  0  0
 27 24  1  0  0  0  0
 27 30  1  0  0  0  0
 28 30  1  0  0  0  0
 28 29  1  0  0  0  0
 30 29  1  0  0  0  0
 30 31  1  0  0  0  0
 31 32  2  0  0  0  0
M  END
>  <MODEL>
1

>  <REMARK>
 VINA RESULT:      -6.2      0.000      0.000
  Name = 
  13 active torsions:
  status: ('A' for Active; 'I' for Inactive)
    1  A    between atoms: C_1  and  C_5
    2  A    between atoms: C_1  and  C_27
    3  A    between atoms: C_2  and  C_5
    4  A    between atoms: C_2  and  C_28
    5  A    between atoms: C_5  and  C_14
    6  A    between atoms: C_6  and  C_29
    7  A    between atoms: O_10  and  C_12
    8  A    between atoms: O_10  and  C_32
    9  A    between atoms: C_14  and  C_18
   10  A    between atoms: C_14  and  C_21
   11  A    between atoms: C_15  and  N_16
   12  A    between atoms: C_18  and  C_29
   13  A    between atoms: C_28  and  C_32
                            x       y       z     vdW  Elec       q    Type
                         _______ _______ _______ _____ _____    ______ ____

>  <TORSDO>
F 13

$$$$
=
 OpenBabel11052419083D

 32 34  0  0  1  0  0  0  0  0999 V2000
  190.1410  176.6040  145.3640 C   0  0  2  0  0  3  0  0  0  0  0  0
  190.2140  177.2760  143.9800 C   0  0  1  0  0  3  0  0  0  0  0  0
  191.3880  178.2360  143.9100 C   0  0  0  0  0  1  0  0  0  0  0  0
  189.8640  173.8260  141.1310 C   0  0  0  0  0  1  0  0  0  0  0  0
  189.0230  176.0670  142.0600 N   0  0  0  0  0  0  0  0  0  0  0  0
  188.9410  174.9970  141.0900 C   0  0  0  0  0  0  0  0  0  0  0  0
  188.0490  175.0150  140.1990 O   0  0  0  0  0  0  0  0  0  0  0  0
  191.3210  175.7910  142.4690 O   0  0  0  0  0  0  0  0  0  0  0  0
  190.2290  176.3230  142.8120 C   0  0  0  0  0  0  0  0  0  0  0  0
  186.4670  176.1370  143.0420 S   0  0  0  0  0  0  0  0  0  0  0  0
  185.2870  177.2370  142.2050 C   0  0  0  0  0  2  0  0  0  0  0  0
  187.8880  176.9750  142.2580 C   0  0  2  0  0  3  0  0  0  0  0  0
  185.3990  178.5190  140.2270 O   0  0  0  0  0  0  0  0  0  0  0  0
  187.4590  177.6330  140.9570 C   0  0  0  0  0  2  0  0  0  0  0  0
  185.9970  177.8590  141.0590 C   0  0  0  0  0  0  0  0  0  0  0  0
  189.0380  177.1510  146.2620 C   0  0  0  0  0  2  0  0  0  0  0  0
  187.9460  176.1110  146.4550 C   0  0  0  0  0  2  0  0  0  0  0  0
  186.8600  176.6550  147.3680 C   0  0  0  0  0  2  0  0  0  0  0  0
  185.6660  176.8010  146.6570 O   0  0  0  0  0  0  0  0  0  0  0  0
  184.4010  178.7960  146.9000 C   0  0  0  0  0  2  0  0  0  0  0  0
  184.6520  179.6370  144.5910 C   0  0  0  0  0  1  0  0  0  0  0  0
  185.6310  178.1500  146.2970 C   0  0  2  0  0  3  0  0  0  0  0  0
  184.4060  178.4060  145.4370 C   0  0  1  0  0  3  0  0  0  0  0  0
  191.4890  176.4670  146.0930 C   0  0  1  0  0  3  0  0  0  0  0  0
  191.3390  176.6440  147.6000 C   0  0  0  0  0  2  0  0  0  0  0  0
  191.3800  175.4150  148.2610 O   0  0  0  0  0  1  0  0  0  0  0  0
  192.2830  175.2060  145.7540 C   0  0  0  0  0  2  0  0  0  0  0  0
  194.2520  176.8890  145.5730 C   0  0  0  0  0  2  0  0  0  0  0  0
  194.6920  175.6400  146.3240 C   0  0  0  0  0  2  0  0  0  0  0  0
  193.6660  175.5380  145.2170 C   0  0  0  0  0  0  0  0  0  0  0  0
  194.1890  174.8220  144.0080 C   0  0  0  0  0  3  0  0  0  0  0  0
  194.0690  173.6130  143.8790 O   0  0  0  0  0  0  0  0  0  0  0  0
  1 24  1  0  0  0  0
  1 16  1  1  0  0  0
  2  3  1  1  0  0  0
  2  1  1  0  0  0  0
  5  9  1  0  0  0  0
  6  4  1  0  0  0  0
  6  5  1  0  0  0  0
  7  6  2  0  0  0  0
  8  9  2  0  0  0  0
  9  2  1  0  0  0  0
 11 10  1  0  0  0  0
 12  5  1  6  0  0  0
 12 10  1  0  0  0  0
 13 15  2  0  0  0  0
 14 15  1  0  0  0  0
 14 12  1  0  0  0  0
 15 11  1  0  0  0  0
 16 17  1  0  0  0  0
 17 18  1  0  0  0  0
 19 18  1  0  0  0  0
 22 19  1  1  0  0  0
 22 20  1  0  0  0  0
 23 21  1  6  0  0  0
 23 22  1  0  0  0  0
 23 20  1  0  0  0  0
 24 27  1  1  0  0  0
 24 25  1  0  0  0  0
 25 26  1  0  0  0  0
 28 29  1  0  0  0  0
 30 28  1  0  0  0  0
 30 27  1  0  0  0  0
 30 29  1  0  0  0  0
 31 30  1  0  0  0  0
 32 31  2  0  0  0  0
M  END
>  <MODEL>
2

>  <REMARK>
 VINA RESULT:      -6.0      2.475      6.476
  Name = 
  13 active torsions:
  status: ('A' for Active; 'I' for Inactive)
    1  A    between atoms: C_1  and  C_5
    2  A    between atoms: C_1  and  C_27
    3  A    between atoms: C_2  and  C_5
    4  A    between atoms: C_2  and  C_28
    5  A    between atoms: C_5  and  C_14
    6  A    between atoms: C_6  and  C_29
    7  A    between atoms: O_10  and  C_12
    8  A    between atoms: O_10  and  C_32
    9  A    between atoms: C_14  and  C_18
   10  A    between atoms: C_14  and  C_21
   11  A    between atoms: C_15  and  N_16
   12  A    between atoms: C_18  and  C_29
   13  A    between atoms: C_28  and  C_32
                            x       y       z     vdW  Elec       q    Type
                         _______ _______ _______ _____ _____    ______ ____

>  <TORSDO>
F 13

$$$$
=
 OpenBabel11052419083D

 32 34  0  0  1  0  0  0  0  0999 V2000
  187.8970  176.2490  142.6740 C   0  0  2  0  0  3  0  0  0  0  0  0
  189.2330  176.6710  143.3140 C   0  0  1  0  0  3  0  0  0  0  0  0
  189.5060  178.1440  143.0680 C   0  0  0  0  0  1  0  0  0  0  0  0
  189.4860  174.7740  147.3740 C   0  0  0  0  0  1  0  0  0  0  0  0
  190.5990  175.7850  145.2920 N   0  0  0  0  0  0  0  0  0  0  0  0
  190.6920  175.2400  146.6300 C   0  0  0  0  0  0  0  0  0  0  0  0
  191.8160  175.1120  147.1870 O   0  0  0  0  0  0  0  0  0  0  0  0
  188.4090  176.5940  145.5570 O   0  0  0  0  0  0  0  0  0  0  0  0
  189.3680  176.3370  144.7790 C   0  0  0  0  0  0  0  0  0  0  0  0
  192.5560  174.2120  144.1960 S   0  0  0  0  0  0  0  0  0  0  0  0
  194.2070  174.9490  144.0110 C   0  0  0  0  0  2  0  0  0  0  0  0
  191.7900  175.8520  144.4370 C   0  0  2  0  0  3  0  0  0  0  0  0
  195.1560  176.9840  144.7380 O   0  0  0  0  0  0  0  0  0  0  0  0
  192.8140  176.8390  144.9740 C   0  0  0  0  0  2  0  0  0  0  0  0
  194.1470  176.3180  144.5830 C   0  0  0  0  0  0  0  0  0  0  0  0
  188.0500  175.4990  141.3560 C   0  0  0  0  0  2  0  0  0  0  0  0
  189.3860  174.7760  141.3090 C   0  0  0  0  0  2  0  0  0  0  0  0
  189.3330  173.6440  140.2970 C   0  0  0  0  0  2  0  0  0  0  0  0
  189.1170  172.4270  140.9500 O   0  0  0  0  0  0  0  0  0  0  0  0
  190.3650  171.1510  142.5160 C   0  0  0  0  0  2  0  0  0  0  0  0
  189.5750  172.2740  144.5710 C   0  0  0  0  0  1  0  0  0  0  0  0
  189.8520  172.5240  142.1330 C   0  0  2  0  0  3  0  0  0  0  0  0
  189.1550  171.7280  143.2220 C   0  0  1  0  0  3  0  0  0  0  0  0
  186.8290  177.3540  142.6090 C   0  0  1  0  0  3  0  0  0  0  0  0
  186.5460  177.7870  141.1750 C   0  0  0  0  0  2  0  0  0  0  0  0
  185.1750  177.9220  140.9480 O   0  0  0  0  0  1  0  0  0  0  0  0
  185.5370  177.0480  143.3670 C   0  0  0  0  0  2  0  0  0  0  0  0
  185.8650  179.4170  144.3790 C   0  0  0  0  0  2  0  0  0  0  0  0
  184.3840  179.1390  144.1540 C   0  0  0  0  0  2  0  0  0  0  0  0
  185.3210  178.0100  144.5240 C   0  0  0  0  0  0  0  0  0  0  0  0
  185.0660  177.4760  145.9020 C   0  0  0  0  0  3  0  0  0  0  0  0
  184.0860  177.8170  146.5480 O   0  0  0  0  0  0  0  0  0  0  0  0
  1 16  1  6  0  0  0
  1  2  1  0  0  0  0
  2  3  1  1  0  0  0
  2  9  1  0  0  0  0
  5  6  1  0  0  0  0
  6  7  2  0  0  0  0
  6  4  1  0  0  0  0
  9  5  1  0  0  0  0
  9  8  2  0  0  0  0
 10 12  1  0  0  0  0
 11 10  1  0  0  0  0
 11 15  1  0  0  0  0
 12 14  1  0  0  0  0
 12  5  1  1  0  0  0
 15 13  2  0  0  0  0
 15 14  1  0  0  0  0
 17 16  1  0  0  0  0
 18 19  1  0  0  0  0
 18 17  1  0  0  0  0
 20 23  1  0  0  0  0
 22 19  1  6  0  0  0
 22 20  1  0  0  0  0
 22 23  1  0  0  0  0
 23 21  1  1  0  0  0
 24 25  1  6  0  0  0
 24  1  1  0  0  0  0
 24 27  1  0  0  0  0
 26 25  1  0  0  0  0
 27 30  1  0  0  0  0
 28 30  1  0  0  0  0
 29 28  1  0  0  0  0
 29 30  1  0  0  0  0
 30 31  1  0  0  0  0
 31 32  2  0  0  0  0
M  END
>  <MODEL>
3

>  <REMARK>
 VINA RESULT:      -6.0      2.041      4.301
  Name = 
  13 active torsions:
  status: ('A' for Active; 'I' for Inactive)
    1  A    between atoms: C_1  and  C_5
    2  A    between atoms: C_1  and  C_27
    3  A    between atoms: C_2  and  C_5
    4  A    between atoms: C_2  and  C_28
    5  A    between atoms: C_5  and  C_14
    6  A    between atoms: C_6  and  C_29
    7  A    between atoms: O_10  and  C_12
    8  A    between atoms: O_10  and  C_32
    9  A    between atoms: C_14  and  C_18
   10  A    between atoms: C_14  and  C_21
   11  A    between atoms: C_15  and  N_16
   12  A    between atoms: C_18  and  C_29
   13  A    between atoms: C_28  and  C_32
                            x       y       z     vdW  Elec       q    Type
                         _______ _______ _______ _____ _____    ______ ____

>  <TORSDO>
F 13

$$$$
=
 OpenBabel11052419083D

 32 34  0  0  1  0  0  0  0  0999 V2000
  189.2040  176.0910  144.0250 C   0  0  2  0  0  3  0  0  0  0  0  0
  190.5320  176.8010  143.7010 C   0  0  1  0  0  3  0  0  0  0  0  0
  190.4160  178.2950  143.9420 C   0  0  0  0  0  1  0  0  0  0  0  0
  193.5590  174.3590  145.9400 C   0  0  0  0  0  1  0  0  0  0  0  0
  192.5820  175.2650  143.7450 N   0  0  0  0  0  0  0  0  0  0  0  0
  193.6060  174.5330  144.4600 C   0  0  0  0  0  0  0  0  0  0  0  0
  194.5520  173.9880  143.8300 O   0  0  0  0  0  0  0  0  0  0  0  0
  192.0350  176.6620  145.5550 O   0  0  0  0  0  0  0  0  0  0  0  0
  191.7410  176.2360  144.4040 C   0  0  0  0  0  0  0  0  0  0  0  0
  192.0860  173.3440  141.8570 S   0  0  0  0  0  0  0  0  0  0  0  0
  192.8880  173.5450  140.2380 C   0  0  0  0  0  2  0  0  0  0  0  0
  192.4180  175.0850  142.2980 C   0  0  2  0  0  3  0  0  0  0  0  0
  194.5180  175.0420  139.4210 O   0  0  0  0  0  0  0  0  0  0  0  0
  193.6180  175.6060  141.5260 C   0  0  0  0  0  2  0  0  0  0  0  0
  193.7390  174.7590  140.3140 C   0  0  0  0  0  0  0  0  0  0  0  0
  189.3450  174.9250  144.9970 C   0  0  0  0  0  2  0  0  0  0  0  0
  188.8970  175.3370  146.3900 C   0  0  0  0  0  2  0  0  0  0  0  0
  188.1610  176.6650  146.3310 C   0  0  0  0  0  2  0  0  0  0  0  0
  186.7890  176.4600  146.5010 O   0  0  0  0  0  0  0  0  0  0  0  0
  185.5990  178.1930  147.6050 C   0  0  0  0  0  2  0  0  0  0  0  0
  184.0440  178.7560  145.7690 C   0  0  0  0  0  1  0  0  0  0  0  0
  186.2160  177.7190  146.3050 C   0  0  2  0  0  3  0  0  0  0  0  0
  184.7150  177.6220  146.5160 C   0  0  1  0  0  3  0  0  0  0  0  0
  188.3340  175.7460  142.8040 C   0  0  1  0  0  3  0  0  0  0  0  0
  188.4960  174.2890  142.3860 C   0  0  0  0  0  2  0  0  0  0  0  0
  188.2510  174.1240  141.0210 O   0  0  0  0  0  1  0  0  0  0  0  0
  186.8610  176.1310  142.9300 C   0  0  0  0  0  2  0  0  0  0  0  0
  185.1910  178.0250  142.3230 C   0  0  0  0  0  2  0  0  0  0  0  0
  186.4800  178.6150  142.8800 C   0  0  0  0  0  2  0  0  0  0  0  0
  186.5180  177.3380  142.0710 C   0  0  0  0  0  0  0  0  0  0  0  0
  187.1800  177.5180  140.7380 C   0  0  0  0  0  3  0  0  0  0  0  0
  186.7980  176.9110  139.7470 O   0  0  0  0  0  0  0  0  0  0  0  0
  1 16  1  6  0  0  0
  2  3  1  1  0  0  0
  2  1  1  0  0  0  0
  2  9  1  0  0  0  0
  5  9  1  0  0  0  0
  5  6  1  0  0  0  0
  6  4  1  0  0  0  0
  7  6  2  0  0  0  0
  9  8  2  0  0  0  0
 10 12  1  0  0  0  0
 11 15  1  0  0  0  0
 11 10  1  0  0  0  0
 12  5  1  1  0  0  0
 13 15  2  0  0  0  0
 14 12  1  0  0  0  0
 15 14  1  0  0  0  0
 16 17  1  0  0  0  0
 18 17  1  0  0  0  0
 18 19  1  0  0  0  0
 22 19  1  1  0  0  0
 22 23  1  0  0  0  0
 22 20  1  0  0  0  0
 23 21  1  6  0  0  0
 23 20  1  0  0  0  0
 24 25  1  1  0  0  0
 24 27  1  0  0  0  0
 24  1  1  0  0  0  0
 26 25  1  0  0  0  0
 28 29  1  0  0  0  0
 30 28  1  0  0  0  0
 30 29  1  0  0  0  0
 30 27  1  0  0  0  0
 31 30  1  0  0  0  0
 32 31  2  0  0  0  0
M  END
>  <MODEL>
4

>  <REMARK>
 VINA RESULT:      -5.9      2.137      4.524
  Name = 
  13 active torsions:
  status: ('A' for Active; 'I' for Inactive)
    1  A    between atoms: C_1  and  C_5
    2  A    between atoms: C_1  and  C_27
    3  A    between atoms: C_2  and  C_5
    4  A    between atoms: C_2  and  C_28
    5  A    between atoms: C_5  and  C_14
    6  A    between atoms: C_6  and  C_29
    7  A    between atoms: O_10  and  C_12
    8  A    between atoms: O_10  and  C_32
    9  A    between atoms: C_14  and  C_18
   10  A    between atoms: C_14  and  C_21
   11  A    between atoms: C_15  and  N_16
   12  A    between atoms: C_18  and  C_29
   13  A    between atoms: C_28  and  C_32
                            x       y       z     vdW  Elec       q    Type
                         _______ _______ _______ _____ _____    ______ ____

>  <TORSDO>
F 13

$$$$
=
 OpenBabel11052419083D

 32 34  0  0  1  0  0  0  0  0999 V2000
  189.4890  177.1020  145.7190 C   0  0  2  0  0  3  0  0  0  0  0  0
  190.6530  176.2600  146.2760 C   0  0  1  0  0  3  0  0  0  0  0  0
  190.8300  176.5060  147.7640 C   0  0  0  0  0  1  0  0  0  0  0  0
  190.0490  172.1600  144.5540 C   0  0  0  0  0  1  0  0  0  0  0  0
  191.5660  174.1390  145.1660 N   0  0  0  0  0  0  0  0  0  0  0  0
  191.3960  172.7890  144.6730 C   0  0  0  0  0  0  0  0  0  0  0  0
  192.3960  172.1210  144.2950 O   0  0  0  0  0  0  0  0  0  0  0  0
  189.6340  174.1100  146.5030 O   0  0  0  0  0  0  0  0  0  0  0  0
  190.5660  174.7840  145.9830 C   0  0  0  0  0  0  0  0  0  0  0  0
  193.3430  174.7080  143.1600 S   0  0  0  0  0  0  0  0  0  0  0  0
  195.0920  174.8780  143.6250 C   0  0  0  0  0  2  0  0  0  0  0  0
  192.8090  174.8730  144.8990 C   0  0  2  0  0  3  0  0  0  0  0  0
  196.2750  174.4840  145.6280 O   0  0  0  0  0  0  0  0  0  0  0  0
  193.9260  174.4490  145.8370 C   0  0  0  0  0  2  0  0  0  0  0  0
  195.1930  174.5990  145.0790 C   0  0  0  0  0  0  0  0  0  0  0  0
  188.1090  176.5600  146.0710 C   0  0  0  0  0  2  0  0  0  0  0  0
  187.1350  177.7030  146.3100 C   0  0  0  0  0  2  0  0  0  0  0  0
  185.7370  177.1590  146.5480 C   0  0  0  0  0  2  0  0  0  0  0  0
  184.7850  178.0500  146.0480 O   0  0  0  0  0  0  0  0  0  0  0  0
  184.9810  179.6320  144.2880 C   0  0  0  0  0  2  0  0  0  0  0  0
  183.9880  178.2590  142.4900 C   0  0  0  0  0  1  0  0  0  0  0  0
  185.0940  178.1760  144.6920 C   0  0  2  0  0  3  0  0  0  0  0  0
  183.8670  178.6660  143.9430 C   0  0  1  0  0  3  0  0  0  0  0  0
  189.6160  177.4860  144.2350 C   0  0  1  0  0  3  0  0  0  0  0  0
  190.8590  178.3300  143.9710 C   0  0  0  0  0  2  0  0  0  0  0  0
  191.6150  177.8030  142.9220 O   0  0  0  0  0  1  0  0  0  0  0  0
  189.5140  176.3190  143.2540 C   0  0  0  0  0  2  0  0  0  0  0  0
  187.8740  175.3120  141.5110 C   0  0  0  0  0  2  0  0  0  0  0  0
  187.1020  175.9010  142.6840 C   0  0  0  0  0  2  0  0  0  0  0  0
  188.4020  176.5310  142.2380 C   0  0  0  0  0  0  0  0  0  0  0  0
  188.2080  177.8820  141.6160 C   0  0  0  0  0  3  0  0  0  0  0  0
  187.3520  178.6550  142.0220 O   0  0  0  0  0  0  0  0  0  0  0  0
  1 16  1  6  0  0  0
  1  2  1  0  0  0  0
  2  3  1  1  0  0  0
  4  6  1  0  0  0  0
  5  9  1  0  0  0  0
  6  5  1  0  0  0  0
  7  6  2  0  0  0  0
  9  2  1  0  0  0  0
  9  8  2  0  0  0  0
 10 11  1  0  0  0  0
 10 12  1  0  0  0  0
 11 15  1  0  0  0  0
 12  5  1  6  0  0  0
 12 14  1  0  0  0  0
 15 13  2  0  0  0  0
 15 14  1  0  0  0  0
 16 17  1  0  0  0  0
 17 18  1  0  0  0  0
 19 18  1  0  0  0  0
 20 22  1  0  0  0  0
 22 19  1  1  0  0  0
 23 21  1  6  0  0  0
 23 20  1  0  0  0  0
 23 22  1  0  0  0  0
 24 27  1  6  0  0  0
 24  1  1  0  0  0  0
 25 24  1  0  0  0  0
 26 25  1  0  0  0  0
 28 30  1  0  0  0  0
 28 29  1  0  0  0  0
 30 29  1  0  0  0  0
 30 27  1  0  0  0  0
 31 32  2  0  0  0  0
 31 30  1  0  0  0  0
M  END
>  <MODEL>
5

>  <REMARK>
 VINA RESULT:      -5.8      1.384      3.156
  Name = 
  13 active torsions:
  status: ('A' for Active; 'I' for Inactive)
    1  A    between atoms: C_1  and  C_5
    2  A    between atoms: C_1  and  C_27
    3  A    between atoms: C_2  and  C_5
    4  A    between atoms: C_2  and  C_28
    5  A    between atoms: C_5  and  C_14
    6  A    between atoms: C_6  and  C_29
    7  A    between atoms: O_10  and  C_12
    8  A    between atoms: O_10  and  C_32
    9  A    between atoms: C_14  and  C_18
   10  A    between atoms: C_14  and  C_21
   11  A    between atoms: C_15  and  N_16
   12  A    between atoms: C_18  and  C_29
   13  A    between atoms: C_28  and  C_32
                            x       y       z     vdW  Elec       q    Type
                         _______ _______ _______ _____ _____    ______ ____

>  <TORSDO>
F 13

$$$$
=
 OpenBabel11052419083D

 32 34  0  0  1  0  0  0  0  0999 V2000
  190.7260  176.4300  145.2940 C   0  0  2  0  0  3  0  0  0  0  0  0
  190.7930  176.8360  143.8100 C   0  0  1  0  0  3  0  0  0  0  0  0
  190.9510  178.3390  143.6710 C   0  0  0  0  0  1  0  0  0  0  0  0
  194.0270  174.1670  142.2100 C   0  0  0  0  0  1  0  0  0  0  0  0
  191.5520  174.8110  142.4350 N   0  0  0  0  0  0  0  0  0  0  0  0
  192.5900  173.9860  141.8550 C   0  0  0  0  0  0  0  0  0  0  0  0
  192.2910  173.0600  141.0550 O   0  0  0  0  0  0  0  0  0  0  0  0
  192.9450  176.6720  142.7810 O   0  0  0  0  0  0  0  0  0  0  0  0
  191.8370  176.1090  143.0000 C   0  0  0  0  0  0  0  0  0  0  0  0
  189.8900  172.8410  143.3630 S   0  0  0  0  0  0  0  0  0  0  0  0
  188.5240  172.3300  142.2780 C   0  0  0  0  0  2  0  0  0  0  0  0
  190.1530  174.3710  142.4010 C   0  0  2  0  0  3  0  0  0  0  0  0
  187.9560  172.8440  140.0470 O   0  0  0  0  0  0  0  0  0  0  0  0
  189.6530  174.1920  140.9770 C   0  0  0  0  0  2  0  0  0  0  0  0
  188.6470  173.1030  141.0170 C   0  0  0  0  0  0  0  0  0  0  0  0
  191.9080  175.5890  145.7610 C   0  0  0  0  0  2  0  0  0  0  0  0
  192.7560  176.3700  146.7520 C   0  0  0  0  0  2  0  0  0  0  0  0
  194.2250  176.2680  146.3780 C   0  0  0  0  0  2  0  0  0  0  0  0
  194.4340  175.1580  145.5550 O   0  0  0  0  0  0  0  0  0  0  0  0
  196.6210  174.6070  144.8120 C   0  0  0  0  0  2  0  0  0  0  0  0
  196.8740  172.4850  146.0520 C   0  0  0  0  0  1  0  0  0  0  0  0
  195.6550  174.6270  145.9780 C   0  0  2  0  0  3  0  0  0  0  0  0
  195.9220  173.3310  145.2330 C   0  0  1  0  0  3  0  0  0  0  0  0
  189.3730  175.8590  145.7530 C   0  0  1  0  0  3  0  0  0  0  0  0
  189.5410  174.5720  146.5530 C   0  0  0  0  0  2  0  0  0  0  0  0
  188.7390  174.5790  147.6960 O   0  0  0  0  0  1  0  0  0  0  0  0
  188.4640  176.8530  146.4750 C   0  0  0  0  0  2  0  0  0  0  0  0
  187.1710  178.0580  144.5730 C   0  0  0  0  0  2  0  0  0  0  0  0
  187.2320  176.5600  144.3040 C   0  0  0  0  0  2  0  0  0  0  0  0
  187.1600  177.0730  145.7250 C   0  0  0  0  0  0  0  0  0  0  0  0
  185.8530  176.7560  146.3890 C   0  0  0  0  0  3  0  0  0  0  0  0
  184.9740  177.5980  146.5030 O   0  0  0  0  0  0  0  0  0  0  0  0
  1 24  1  0  0  0  0
  1 16  1  6  0  0  0
  2  3  1  1  0  0  0
  2  1  1  0  0  0  0
  5  9  1  0  0  0  0
  6  4  1  0  0  0  0
  6  5  1  0  0  0  0
  7  6  2  0  0  0  0
  8  9  2  0  0  0  0
  9  2  1  0  0  0  0
 11 10  1  0  0  0  0
 12  5  1  6  0  0  0
 12 10  1  0  0  0  0
 13 15  2  0  0  0  0
 14 15  1  0  0  0  0
 14 12  1  0  0  0  0
 15 11  1  0  0  0  0
 16 17  1  0  0  0  0
 18 17  1  0  0  0  0
 19 18  1  0  0  0  0
 20 23  1  0  0  0  0
 20 22  1  0  0  0  0
 22 19  1  6  0  0  0
 23 22  1  0  0  0  0
 23 21  1  1  0  0  0
 24 27  1  1  0  0  0
 24 25  1  0  0  0  0
 25 26  1  0  0  0  0
 28 30  1  0  0  0  0
 29 28  1  0  0  0  0
 29 30  1  0  0  0  0
 30 31  1  0  0  0  0
 30 27  1  0  0  0  0
 31 32  2  0  0  0  0
M  END
>  <MODEL>
6

>  <REMARK>
 VINA RESULT:      -5.8      2.506      6.452
  Name = 
  13 active torsions:
  status: ('A' for Active; 'I' for Inactive)
    1  A    between atoms: C_1  and  C_5
    2  A    between atoms: C_1  and  C_27
    3  A    between atoms: C_2  and  C_5
    4  A    between atoms: C_2  and  C_28
    5  A    between atoms: C_5  and  C_14
    6  A    between atoms: C_6  and  C_29
    7  A    between atoms: O_10  and  C_12
    8  A    between atoms: O_10  and  C_32
    9  A    between atoms: C_14  and  C_18
   10  A    between atoms: C_14  and  C_21
   11  A    between atoms: C_15  and  N_16
   12  A    between atoms: C_18  and  C_29
   13  A    between atoms: C_28  and  C_32
                            x       y       z     vdW  Elec       q    Type
                         _______ _______ _______ _____ _____    ______ ____

>  <TORSDO>
F 13

$$$$
=
 OpenBabel11052419083D

 32 34  0  0  1  0  0  0  0  0999 V2000
  188.1970  176.8230  143.5420 C   0  0  2  0  0  3  0  0  0  0  0  0
  189.5460  176.7140  144.2780 C   0  0  1  0  0  3  0  0  0  0  0  0
  189.5910  177.6640  145.4610 C   0  0  0  0  0  1  0  0  0  0  0  0
  190.3930  172.3210  144.6380 C   0  0  0  0  0  1  0  0  0  0  0  0
  191.1760  174.7370  144.2610 N   0  0  0  0  0  0  0  0  0  0  0  0
  191.4720  173.3320  144.4450 C   0  0  0  0  0  0  0  0  0  0  0  0
  192.6640  172.9250  144.4100 O   0  0  0  0  0  0  0  0  0  0  0  0
  189.1650  174.6790  145.4750 O   0  0  0  0  0  0  0  0  0  0  0  0
  189.9280  175.3160  144.6970 C   0  0  0  0  0  0  0  0  0  0  0  0
  192.7420  175.0610  142.0370 S   0  0  0  0  0  0  0  0  0  0  0  0
  194.3830  175.8050  142.2800 C   0  0  0  0  0  2  0  0  0  0  0  0
  192.1800  175.6340  143.6780 C   0  0  2  0  0  3  0  0  0  0  0  0
  195.6250  176.3820  144.2020 O   0  0  0  0  0  0  0  0  0  0  0  0
  193.3690  175.8270  144.6050 C   0  0  0  0  0  2  0  0  0  0  0  0
  194.5520  176.0400  143.7360 C   0  0  0  0  0  0  0  0  0  0  0  0
  188.3220  177.2070  142.0720 C   0  0  0  0  0  2  0  0  0  0  0  0
  187.8170  176.0810  141.1850 C   0  0  0  0  0  2  0  0  0  0  0  0
  187.4760  174.8640  142.0270 C   0  0  0  0  0  2  0  0  0  0  0  0
  188.3470  173.8140  141.7260 O   0  0  0  0  0  0  0  0  0  0  0  0
  188.1920  172.6660  139.6540 C   0  0  0  0  0  2  0  0  0  0  0  0
  190.3370  173.4220  138.6890 C   0  0  0  0  0  1  0  0  0  0  0  0
  188.5990  173.9430  140.3590 C   0  0  2  0  0  3  0  0  0  0  0  0
  189.6540  172.9300  139.9480 C   0  0  1  0  0  3  0  0  0  0  0  0
  187.1170  177.6340  144.2790 C   0  0  1  0  0  3  0  0  0  0  0  0
  186.5630  178.7600  143.4130 C   0  0  0  0  0  2  0  0  0  0  0  0
  185.2540  178.4900  143.0080 O   0  0  0  0  0  1  0  0  0  0  0  0
  185.9950  176.8020  144.9000 C   0  0  0  0  0  2  0  0  0  0  0  0
  186.3360  176.7910  147.4730 C   0  0  0  0  0  2  0  0  0  0  0  0
  186.6890  178.1570  146.8990 C   0  0  0  0  0  2  0  0  0  0  0  0
  185.5930  177.3290  146.2680 C   0  0  0  0  0  0  0  0  0  0  0  0
  184.2310  177.9240  146.4680 C   0  0  0  0  0  3  0  0  0  0  0  0
  183.9490  179.0340  146.0400 O   0  0  0  0  0  0  0  0  0  0  0  0
  1 16  1  6  0  0  0
  1  2  1  0  0  0  0
  1 24  1  0  0  0  0
  2  9  1  0  0  0  0
  2  3  1  1  0  0  0
  5  6  1  0  0  0  0
  5  9  1  0  0  0  0
  6  4  1  0  0  0  0
  7  6  2  0  0  0  0
  9  8  2  0  0  0  0
 10 11  1  0  0  0  0
 10 12  1  0  0  0  0
 11 15  1  0  0  0  0
 12  5  1  1  0  0  0
 12 14  1  0  0  0  0
 15 13  2  0  0  0  0
 15 14  1  0  0  0  0
 17 18  1  0  0  0  0
 17 16  1  0  0  0  0
 19 18  1  0  0  0  0
 20 23  1  0  0  0  0
 20 22  1  0  0  0  0
 22 19  1  1  0  0  0
 23 21  1  6  0  0  0
 23 22  1  0  0  0  0
 24 25  1  6  0  0  0
 24 27  1  0  0  0  0
 26 25  1  0  0  0  0
 27 30  1  0  0  0  0
 29 28  1  0  0  0  0
 30 31  1  0  0  0  0
 30 29  1  0  0  0  0
 30 28  1  0  0  0  0
 32 31  2  0  0  0  0
M  END
>  <MODEL>
7

>  <REMARK>
 VINA RESULT:      -5.7      2.076      3.374
  Name = 
  13 active torsions:
  status: ('A' for Active; 'I' for Inactive)
    1  A    between atoms: C_1  and  C_5
    2  A    between atoms: C_1  and  C_27
    3  A    between atoms: C_2  and  C_5
    4  A    between atoms: C_2  and  C_28
    5  A    between atoms: C_5  and  C_14
    6  A    between atoms: C_6  and  C_29
    7  A    between atoms: O_10  and  C_12
    8  A    between atoms: O_10  and  C_32
    9  A    between atoms: C_14  and  C_18
   10  A    between atoms: C_14  and  C_21
   11  A    between atoms: C_15  and  N_16
   12  A    between atoms: C_18  and  C_29
   13  A    between atoms: C_28  and  C_32
                            x       y       z     vdW  Elec       q    Type
                         _______ _______ _______ _____ _____    ______ ____

>  <TORSDO>
F 13

$$$$
=
 OpenBabel11052419083D

 32 34  0  0  1  0  0  0  0  0999 V2000
  191.2580  176.3980  145.4310 C   0  0  2  0  0  3  0  0  0  0  0  0
  190.5620  177.3680  144.4580 C   0  0  1  0  0  3  0  0  0  0  0  0
  191.5710  178.2990  143.8120 C   0  0  0  0  0  1  0  0  0  0  0  0
  187.8390  174.7440  142.0400 C   0  0  0  0  0  1  0  0  0  0  0  0
  188.2610  176.8400  143.4620 N   0  0  0  0  0  0  0  0  0  0  0  0
  187.3910  176.0410  142.6260 C   0  0  0  0  0  0  0  0  0  0  0  0
  186.2070  176.4120  142.4030 O   0  0  0  0  0  0  0  0  0  0  0  0
  190.2500  176.0770  142.4700 O   0  0  0  0  0  0  0  0  0  0  0  0
  189.6970  176.7060  143.4140 C   0  0  0  0  0  0  0  0  0  0  0  0
  186.8100  177.1470  145.7650 S   0  0  0  0  0  0  0  0  0  0  0  0
  185.6780  178.5660  145.8500 C   0  0  0  0  0  2  0  0  0  0  0  0
  187.6980  177.8700  144.3420 C   0  0  2  0  0  3  0  0  0  0  0  0
  184.9700  180.1620  144.2620 O   0  0  0  0  0  0  0  0  0  0  0  0
  186.7900  178.8250  143.5840 C   0  0  0  0  0  2  0  0  0  0  0  0
  185.7480  179.2670  144.5430 C   0  0  0  0  0  0  0  0  0  0  0  0
  190.8540  176.5850  146.8890 C   0  0  0  0  0  2  0  0  0  0  0  0
  190.2900  175.2910  147.4540 C   0  0  0  0  0  2  0  0  0  0  0  0
  189.3520  174.6470  146.4480 C   0  0  0  0  0  2  0  0  0  0  0  0
  189.8060  173.3670  146.1200 O   0  0  0  0  0  0  0  0  0  0  0  0
  189.3150  171.9070  144.3130 C   0  0  0  0  0  2  0  0  0  0  0  0
  191.0810  172.6800  142.7670 C   0  0  0  0  0  1  0  0  0  0  0  0
  189.7220  173.3050  144.7280 C   0  0  2  0  0  3  0  0  0  0  0  0
  190.7650  172.3320  144.2070 C   0  0  1  0  0  3  0  0  0  0  0  0
  192.7810  176.2730  145.2480 C   0  0  1  0  0  3  0  0  0  0  0  0
  193.5430  176.7860  146.4650 C   0  0  0  0  0  2  0  0  0  0  0  0
  194.5560  177.6710  146.0910 O   0  0  0  0  0  1  0  0  0  0  0  0
  193.2690  174.8880  144.8250 C   0  0  0  0  0  2  0  0  0  0  0  0
  194.2290  174.5820  142.4320 C   0  0  0  0  0  2  0  0  0  0  0  0
  194.2680  176.0510  142.8330 C   0  0  0  0  0  2  0  0  0  0  0  0
  194.4560  174.9740  143.8780 C   0  0  0  0  0  0  0  0  0  0  0  0
  195.8520  174.9340  144.4240 C   0  0  0  0  0  3  0  0  0  0  0  0
  196.0870  174.5050  145.5440 O   0  0  0  0  0  0  0  0  0  0  0  0
  1 16  1  1  0  0  0
  2  3  1  6  0  0  0
  2  1  1  0  0  0  0
  4  6  1  0  0  0  0
  6  5  1  0  0  0  0
  7  6  2  0  0  0  0
  8  9  2  0  0  0  0
  9  5  1  0  0  0  0
  9  2  1  0  0  0  0
 10 11  1  0  0  0  0
 12  5  1  6  0  0  0
 12 10  1  0  0  0  0
 13 15  2  0  0  0  0
 14 12  1  0  0  0  0
 14 15  1  0  0  0  0
 15 11  1  0  0  0  0
 16 17  1  0  0  0  0
 18 17  1  0  0  0  0
 19 18  1  0  0  0  0
 20 22  1  0  0  0  0
 22 19  1  1  0  0  0
 23 21  1  6  0  0  0
 23 20  1  0  0  0  0
 23 22  1  0  0  0  0
 24 27  1  1  0  0  0
 24  1  1  0  0  0  0
 24 25  1  0  0  0  0
 26 25  1  0  0  0  0
 28 29  1  0  0  0  0
 28 30  1  0  0  0  0
 29 30  1  0  0  0  0
 30 31  1  0  0  0  0
 30 27  1  0  0  0  0
 31 32  2  0  0  0  0
M  END
>  <MODEL>
8

>  <REMARK>
 VINA RESULT:      -5.7      2.448      7.274
  Name = 
  13 active torsions:
  status: ('A' for Active; 'I' for Inactive)
    1  A    between atoms: C_1  and  C_5
    2  A    between atoms: C_1  and  C_27
    3  A    between atoms: C_2  and  C_5
    4  A    between atoms: C_2  and  C_28
    5  A    between atoms: C_5  and  C_14
    6  A    between atoms: C_6  and  C_29
    7  A    between atoms: O_10  and  C_12
    8  A    between atoms: O_10  and  C_32
    9  A    between atoms: C_14  and  C_18
   10  A    between atoms: C_14  and  C_21
   11  A    between atoms: C_15  and  N_16
   12  A    between atoms: C_18  and  C_29
   13  A    between atoms: C_28  and  C_32
                            x       y       z     vdW  Elec       q    Type
                         _______ _______ _______ _____ _____    ______ ____

>  <TORSDO>
F 13

$$$$
=
 OpenBabel11052419083D

 32 34  0  0  1  0  0  0  0  0999 V2000
  188.6750  175.6450  145.0030 C   0  0  2  0  0  3  0  0  0  0  0  0
  189.6900  174.7740  145.7670 C   0  0  1  0  0  3  0  0  0  0  0  0
  189.1420  174.3750  147.1250 C   0  0  0  0  0  1  0  0  0  0  0  0
  190.9200  171.6950  142.7420 C   0  0  0  0  0  1  0  0  0  0  0  0
  191.4930  173.5660  144.4050 N   0  0  0  0  0  0  0  0  0  0  0  0
  191.9090  172.5290  143.4840 C   0  0  0  0  0  0  0  0  0  0  0  0
  193.1340  172.3330  143.2610 O   0  0  0  0  0  0  0  0  0  0  0  0
  189.4560  172.5350  144.9610 O   0  0  0  0  0  0  0  0  0  0  0  0
  190.1830  173.5650  145.0120 C   0  0  0  0  0  0  0  0  0  0  0  0
  193.1280  175.4980  143.3570 S   0  0  0  0  0  0  0  0  0  0  0  0
  194.6730  175.8500  144.2490 C   0  0  0  0  0  2  0  0  0  0  0  0
  192.4310  174.6220  144.8010 C   0  0  2  0  0  3  0  0  0  0  0  0
  195.7540  174.8160  146.0740 O   0  0  0  0  0  0  0  0  0  0  0  0
  193.5470  174.0840  145.6810 C   0  0  0  0  0  2  0  0  0  0  0  0
  194.7440  174.9120  145.3970 C   0  0  0  0  0  0  0  0  0  0  0  0
  188.9520  175.7540  143.5080 C   0  0  0  0  0  2  0  0  0  0  0  0
  187.7480  175.2810  142.7100 C   0  0  0  0  0  2  0  0  0  0  0  0
  188.0850  174.0020  141.9620 C   0  0  0  0  0  2  0  0  0  0  0  0
  189.1240  174.2360  141.0570 O   0  0  0  0  0  0  0  0  0  0  0  0
  188.4120  172.7000  139.3930 C   0  0  0  0  0  2  0  0  0  0  0  0
  189.1240  173.9950  137.4130 C   0  0  0  0  0  1  0  0  0  0  0  0
  188.5240  174.1550  139.7990 C   0  0  2  0  0  3  0  0  0  0  0  0
  189.5130  173.5620  138.8110 C   0  0  1  0  0  3  0  0  0  0  0  0
  188.3680  177.0060  145.6510 C   0  0  1  0  0  3  0  0  0  0  0  0
  189.6410  177.7630  146.0140 C   0  0  0  0  0  2  0  0  0  0  0  0
  189.7910  177.8670  147.3980 O   0  0  0  0  0  1  0  0  0  0  0  0
  187.3970  177.8900  144.8690 C   0  0  0  0  0  2  0  0  0  0  0  0
  185.5690  176.7320  146.3040 C   0  0  0  0  0  2  0  0  0  0  0  0
  186.1360  177.9370  147.0430 C   0  0  0  0  0  2  0  0  0  0  0  0
  186.0310  177.9520  145.5340 C   0  0  0  0  0  0  0  0  0  0  0  0
  185.0010  178.9210  145.0360 C   0  0  0  0  0  3  0  0  0  0  0  0
  183.8940  178.9970  145.5490 O   0  0  0  0  0  0  0  0  0  0  0  0
  1 16  1  6  0  0  0
  1 24  1  0  0  0  0
  1  2  1  0  0  0  0
  2  3  1  1  0  0  0
  4  6  1  0  0  0  0
  5  9  1  0  0  0  0
  6  5  1  0  0  0  0
  7  6  2  0  0  0  0
  8  9  2  0  0  0  0
  9  2  1  0  0  0  0
 10 11  1  0  0  0  0
 10 12  1  0  0  0  0
 11 15  1  0  0  0  0
 12  5  1  6  0  0  0
 12 14  1  0  0  0  0
 15 14  1  0  0  0  0
 15 13  2  0  0  0  0
 17 16  1  0  0  0  0
 18 17  1  0  0  0  0
 19 18  1  0  0  0  0
 20 22  1  0  0  0  0
 22 19  1  1  0  0  0
 23 21  1  6  0  0  0
 23 20  1  0  0  0  0
 23 22  1  0  0  0  0
 24 27  1  6  0  0  0
 24 25  1  0  0  0  0
 25 26  1  0  0  0  0
 27 30  1  0  0  0  0
 28 29  1  0  0  0  0
 30 28  1  0  0  0  0
 30 29  1  0  0  0  0
 31 30  1  0  0  0  0
 31 32  2  0  0  0  0
M  END
>  <MODEL>
9

>  <REMARK>
 VINA RESULT:      -5.7      1.814      2.792
  Name = 
  13 active torsions:
  status: ('A' for Active; 'I' for Inactive)
    1  A    between atoms: C_1  and  C_5
    2  A    between atoms: C_1  and  C_27
    3  A    between atoms: C_2  and  C_5
    4  A    between atoms: C_2  and  C_28
    5  A    between atoms: C_5  and  C_14
    6  A    between atoms: C_6  and  C_29
    7  A    between atoms: O_10  and  C_12
    8  A    between atoms: O_10  and  C_32
    9  A    between atoms: C_14  and  C_18
   10  A    between atoms: C_14  and  C_21
   11  A    between atoms: C_15  and  N_16
   12  A    between atoms: C_18  and  C_29
   13  A    between atoms: C_28  and  C_32
                            x       y       z     vdW  Elec       q    Type
                         _______ _______ _______ _____ _____    ______ ____

>  <TORSDO>
F 13

$$$$
