=
 OpenBabel11052418243D

 27 31  0  0  1  0  0  0  0  0999 V2000
  190.5150  176.4930  145.1880 N   0  0  0  0  0  0  0  0  0  0  0  0
  189.2460  175.4620  143.1850 C   0  0  1  0  0  3  0  0  0  0  0  0
  192.0650  175.2140  142.3640 S   0  0  0  0  0  0  0  0  0  0  0  0
  188.4730  173.4590  139.6980 N   0  0  0  0  0  0  0  0  0  0  0  0
  190.1090  172.6330  137.9960 C   0  0  0  0  0  1  0  0  0  0  0  0
  187.8240  175.2000  142.7530 C   0  0  0  0  0  3  0  0  0  0  0  0
  190.7710  173.7040  140.1800 N   0  0  0  0  0  0  0  0  0  0  0  0
  195.0920  175.2930  144.8080 C   0  0  0  0  0  3  0  0  0  0  0  0
  191.8610  172.8910  140.4360 C   0  0  0  0  0  1  0  0  0  0  0  0
  194.9790  175.6740  146.0930 C   0  0  0  0  0  2  0  0  0  0  0  0
  189.9590  173.8130  141.4060 C   0  0  2  0  0  3  0  0  0  0  0  0
  189.4030  176.2780  144.4900 C   0  0  0  0  0  0  0  0  0  0  0  0
  189.8260  172.8880  139.4910 C   0  0  1  0  0  3  0  0  0  0  0  0
  188.5980  173.9390  140.9180 C   0  0  0  0  0  0  0  0  0  0  0  0
  191.8870  176.1000  145.0890 C   0  0  0  0  0  0  0  0  0  0  0  0
  190.2840  174.9730  142.4200 C   0  0  1  0  0  3  0  0  0  0  0  0
  194.1220  175.7210  143.7400 C   0  0  0  0  0  3  0  0  0  0  0  0
  187.5060  174.5380  141.6490 N   0  0  0  0  0  0  0  0  0  0  0  0
  193.8710  176.2860  146.7950 C   0  0  0  0  0  3  0  0  0  0  0  0
  192.5690  176.4290  146.4160 C   0  0  0  0  0  3  0  0  0  0  0  0
  192.6140  175.6730  144.0460 C   0  0  0  0  0  0  0  0  0  0  0  0
  185.9210  177.9320  146.3390 C   0  0  0  0  0  3  0  0  0  0  0  0
  188.1700  176.8330  145.1410 C   0  0  0  0  0  0  0  0  0  0  0  0
  187.5430  177.9580  144.5640 C   0  0  0  0  0  3  0  0  0  0  0  0
  186.4160  178.4830  145.1510 C   0  0  0  0  0  3  0  0  0  0  0  0
  186.5810  176.8570  146.9580 C   0  0  0  0  0  3  0  0  0  0  0  0
  187.6980  176.3120  146.3590 C   0  0  0  0  0  3  0  0  0  0  0  0
  2  6  1  1  0  0  0
  2 12  1  0  0  0  0
  3 21  1  0  0  0  0
  4 14  2  0  0  0  0
  7  9  1  0  0  0  0
  7 11  1  0  0  0  0
  8 10  1  0  0  0  0
 10 19  1  0  0  0  0
 11 14  1  6  0  0  0
 11 16  1  0  0  0  0
 12 23  1  0  0  0  0
 12  1  2  0  0  0  0
 13  5  1  6  0  0  0
 13  4  1  0  0  0  0
 13  7  1  0  0  0  0
 14 18  1  0  0  0  0
 15  1  1  0  0  0  0
 15 20  1  0  0  0  0
 16  3  1  1  0  0  0
 16  2  1  0  0  0  0
 17 21  1  0  0  0  0
 17  8  2  0  0  0  0
 18  6  2  0  0  0  0
 20 19  2  0  0  0  0
 21 15  2  0  0  0  0
 22 26  1  0  0  0  0
 23 27  1  0  0  0  0
 24 23  2  0  0  0  0
 24 25  1  0  0  0  0
 25 22  2  0  0  0  0
 27 26  2  0  0  0  0
M  END
>  <MODEL>
1

>  <REMARK>
 VINA RESULT:      -7.9      0.000      0.000
  Name = 
  1 active torsions:
  status: ('A' for Active; 'I' for Inactive)
    1  A    between atoms: C_9  and  C_15
                            x       y       z     vdW  Elec       q    Type
                         _______ _______ _______ _____ _____    ______ ____

>  <TORSDO>
F 1

$$$$
=
 OpenBabel11052418243D

 27 31  0  0  1  0  0  0  0  0999 V2000
  188.8450  177.3190  145.6440 N   0  0  0  0  0  0  0  0  0  0  0  0
  188.2100  176.2990  143.3550 C   0  0  1  0  0  3  0  0  0  0  0  0
  191.1390  175.9890  143.4130 S   0  0  0  0  0  0  0  0  0  0  0  0
  188.4700  174.2860  139.7990 N   0  0  0  0  0  0  0  0  0  0  0  0
  190.5210  173.4150  138.6630 C   0  0  0  0  0  1  0  0  0  0  0  0
  186.9760  176.0620  142.5190 C   0  0  0  0  0  3  0  0  0  0  0  0
  190.5240  174.4880  140.9440 N   0  0  0  0  0  0  0  0  0  0  0  0
  193.3000  176.0270  146.6480 C   0  0  0  0  0  3  0  0  0  0  0  0
  191.4710  173.6560  141.5140 C   0  0  0  0  0  1  0  0  0  0  0  0
  192.8180  176.4190  147.8410 C   0  0  0  0  0  2  0  0  0  0  0  0
  189.3860  174.6220  141.8720 C   0  0  2  0  0  3  0  0  0  0  0  0
  187.9870  177.1210  144.6470 C   0  0  0  0  0  0  0  0  0  0  0  0
  189.8100  173.6860  140.0060 C   0  0  1  0  0  3  0  0  0  0  0  0
  188.2350  174.7720  141.0000 C   0  0  0  0  0  0  0  0  0  0  0  0
  190.1760  176.8990  145.9600 C   0  0  0  0  0  0  0  0  0  0  0  0
  189.4180  175.7830  142.9350 C   0  0  1  0  0  3  0  0  0  0  0  0
  192.7030  176.4650  145.3390 C   0  0  0  0  0  3  0  0  0  0  0  0
  186.9880  175.3970  141.3710 N   0  0  0  0  0  0  0  0  0  0  0  0
  191.5640  177.0570  148.1800 C   0  0  0  0  0  3  0  0  0  0  0  0
  190.4370  177.2240  147.4290 C   0  0  0  0  0  3  0  0  0  0  0  0
  191.1720  176.4490  145.1810 C   0  0  0  0  0  0  0  0  0  0  0  0
  184.1490  178.8550  145.3770 C   0  0  0  0  0  3  0  0  0  0  0  0
  186.6290  177.7050  144.8990 C   0  0  0  0  0  0  0  0  0  0  0  0
  186.2650  178.8970  144.2370 C   0  0  0  0  0  3  0  0  0  0  0  0
  185.0260  179.4490  144.4630 C   0  0  0  0  0  3  0  0  0  0  0  0
  184.5310  177.7080  146.0940 C   0  0  0  0  0  3  0  0  0  0  0  0
  185.7630  177.1370  145.8520 C   0  0  0  0  0  3  0  0  0  0  0  0
  1 15  1  0  0  0  0
  2  6  1  1  0  0  0
  2 12  1  0  0  0  0
  3 21  1  0  0  0  0
  4 13  1  0  0  0  0
  4 14  2  0  0  0  0
  7  9  1  0  0  0  0
  7 11  1  0  0  0  0
  8 10  1  0  0  0  0
 10 19  1  0  0  0  0
 11 14  1  6  0  0  0
 11 16  1  0  0  0  0
 12 23  1  0  0  0  0
 12  1  2  0  0  0  0
 13  5  1  6  0  0  0
 13  7  1  0  0  0  0
 14 18  1  0  0  0  0
 15 20  1  0  0  0  0
 16  2  1  0  0  0  0
 16  3  1  1  0  0  0
 17  8  2  0  0  0  0
 18  6  2  0  0  0  0
 20 19  2  0  0  0  0
 21 17  1  0  0  0  0
 21 15  2  0  0  0  0
 22 26  1  0  0  0  0
 23 27  1  0  0  0  0
 24 25  1  0  0  0  0
 24 23  2  0  0  0  0
 25 22  2  0  0  0  0
 27 26  2  0  0  0  0
M  END
>  <MODEL>
2

>  <REMARK>
 VINA RESULT:      -7.7      1.360      1.829
  Name = 
  1 active torsions:
  status: ('A' for Active; 'I' for Inactive)
    1  A    between atoms: C_9  and  C_15
                            x       y       z     vdW  Elec       q    Type
                         _______ _______ _______ _____ _____    ______ ____

>  <TORSDO>
F 1

$$$$
=
 OpenBabel11052418243D

 27 31  0  0  1  0  0  0  0  0999 V2000
  188.7180  175.4400  143.1070 N   0  0  0  0  0  0  0  0  0  0  0  0
  190.6620  175.7400  144.7850 C   0  0  1  0  0  3  0  0  0  0  0  0
  191.7560  173.7900  142.8660 S   0  0  0  0  0  0  0  0  0  0  0  0
  194.3780  175.5420  146.4910 N   0  0  0  0  0  0  0  0  0  0  0  0
  196.3390  174.1670  145.7690 C   0  0  0  0  0  1  0  0  0  0  0  0
  190.9630  176.5050  146.0500 C   0  0  0  0  0  3  0  0  0  0  0  0
  194.1670  174.2980  144.4960 N   0  0  0  0  0  0  0  0  0  0  0  0
  190.4240  173.2670  139.2470 C   0  0  0  0  0  3  0  0  0  0  0  0
  194.7190  174.2850  143.2280 C   0  0  0  0  0  1  0  0  0  0  0  0
  189.2620  173.7900  138.8170 C   0  0  0  0  0  3  0  0  0  0  0  0
  193.1520  175.3670  144.5640 C   0  0  2  0  0  3  0  0  0  0  0  0
  189.2050  175.8520  144.2730 C   0  0  0  0  0  0  0  0  0  0  0  0
  195.1040  174.9810  145.3260 C   0  0  1  0  0  3  0  0  0  0  0  0
  193.2190  175.8310  145.9370 C   0  0  0  0  0  0  0  0  0  0  0  0
  189.2430  174.8170  141.9310 C   0  0  0  0  0  0  0  0  0  0  0  0
  191.6660  175.0160  144.1790 C   0  0  1  0  0  3  0  0  0  0  0  0
  190.7170  173.0070  140.7000 C   0  0  0  0  0  2  0  0  0  0  0  0
  192.1520  176.5030  146.6390 N   0  0  0  0  0  0  0  0  0  0  0  0
  188.2030  174.4480  139.5510 C   0  0  0  0  0  3  0  0  0  0  0  0
  188.1910  174.9260  140.8290 C   0  0  0  0  0  3  0  0  0  0  0  0
  190.3520  174.0890  141.7340 C   0  0  0  0  0  0  0  0  0  0  0  0
  186.3180  177.8900  146.6790 C   0  0  0  0  0  3  0  0  0  0  0  0
  188.2060  176.5910  145.1140 C   0  0  0  0  0  0  0  0  0  0  0  0
  187.8230  176.0430  146.3570 C   0  0  0  0  0  3  0  0  0  0  0  0
  186.9020  176.7030  147.1360 C   0  0  0  0  0  3  0  0  0  0  0  0
  186.6410  178.4050  145.4120 C   0  0  0  0  0  3  0  0  0  0  0  0
  187.5820  177.7580  144.6380 C   0  0  0  0  0  3  0  0  0  0  0  0
  1 12  2  0  0  0  0
  2  6  1  6  0  0  0
  6 18  2  0  0  0  0
  7 11  1  0  0  0  0
  7 13  1  0  0  0  0
  8 17  1  0  0  0  0
  9  7  1  0  0  0  0
 10  8  2  0  0  0  0
 10 19  1  0  0  0  0
 11 14  1  1  0  0  0
 12  2  1  0  0  0  0
 12 23  1  0  0  0  0
 13  5  1  1  0  0  0
 13  4  1  0  0  0  0
 14  4  2  0  0  0  0
 14 18  1  0  0  0  0
 15  1  1  0  0  0  0
 16  3  1  6  0  0  0
 16 11  1  0  0  0  0
 16  2  1  0  0  0  0
 17 21  1  0  0  0  0
 19 20  2  0  0  0  0
 20 15  1  0  0  0  0
 21 15  2  0  0  0  0
 21  3  1  0  0  0  0
 22 25  1  0  0  0  0
 23 24  1  0  0  0  0
 24 25  2  0  0  0  0
 26 22  2  0  0  0  0
 27 23  2  0  0  0  0
 27 26  1  0  0  0  0
M  END
>  <MODEL>
3

>  <REMARK>
 VINA RESULT:      -7.5      1.620      5.574
  Name = 
  1 active torsions:
  status: ('A' for Active; 'I' for Inactive)
    1  A    between atoms: C_9  and  C_15
                            x       y       z     vdW  Elec       q    Type
                         _______ _______ _______ _____ _____    ______ ____

>  <TORSDO>
F 1

$$$$
=
 OpenBabel11052418243D

 27 31  0  0  1  0  0  0  0  0999 V2000
  191.2640  174.8940  142.9620 N   0  0  0  0  0  0  0  0  0  0  0  0
  189.9600  176.2340  144.7490 C   0  0  1  0  0  3  0  0  0  0  0  0
  188.0900  176.1970  142.4720 S   0  0  0  0  0  0  0  0  0  0  0  0
  186.9180  178.1610  146.6980 N   0  0  0  0  0  0  0  0  0  0  0  0
  184.6610  178.7750  145.8140 C   0  0  0  0  0  1  0  0  0  0  0  0
  190.1530  176.7350  146.1590 C   0  0  0  0  0  3  0  0  0  0  0  0
  186.3590  177.4320  144.5230 N   0  0  0  0  0  0  0  0  0  0  0  0
  188.2140  173.6260  139.5540 C   0  0  0  0  0  3  0  0  0  0  0  0
  185.4630  176.5620  143.9280 C   0  0  0  0  0  1  0  0  0  0  0  0
  189.2590  172.8040  139.3520 C   0  0  0  0  0  3  0  0  0  0  0  0
  187.4870  176.6530  145.0690 C   0  0  2  0  0  3  0  0  0  0  0  0
  191.2030  175.5750  144.1040 C   0  0  0  0  0  0  0  0  0  0  0  0
  185.8120  177.7470  145.8020 C   0  0  1  0  0  3  0  0  0  0  0  0
  187.8920  177.3970  146.2480 C   0  0  0  0  0  0  0  0  0  0  0  0
  190.3350  174.4840  141.9540 C   0  0  0  0  0  0  0  0  0  0  0  0
  188.7310  176.3840  144.1420 C   0  0  1  0  0  3  0  0  0  0  0  0
  188.3270  174.9280  140.3010 C   0  0  0  0  0  2  0  0  0  0  0  0
  189.2020  177.3450  146.8540 N   0  0  0  0  0  0  0  0  0  0  0  0
  190.5680  172.7860  139.9690 C   0  0  0  0  0  3  0  0  0  0  0  0
  191.0220  173.4380  141.0780 C   0  0  0  0  0  3  0  0  0  0  0  0
  189.1270  174.9580  141.6170 C   0  0  0  0  0  0  0  0  0  0  0  0
  194.9280  175.6570  146.1990 C   0  0  0  0  0  3  0  0  0  0  0  0
  192.4980  175.5930  144.8610 C   0  0  0  0  0  0  0  0  0  0  0  0
  193.2800  176.7670  144.8450 C   0  0  0  0  0  3  0  0  0  0  0  0
  194.4730  176.7980  145.5280 C   0  0  0  0  0  3  0  0  0  0  0  0
  194.1890  174.4630  146.1610 C   0  0  0  0  0  3  0  0  0  0  0  0
  192.9800  174.4350  145.4970 C   0  0  0  0  0  3  0  0  0  0  0  0
  1 12  2  0  0  0  0
  2  6  1  1  0  0  0
  6 18  2  0  0  0  0
  7 11  1  0  0  0  0
  7 13  1  0  0  0  0
  8 17  1  0  0  0  0
  9  7  1  0  0  0  0
 10  8  2  0  0  0  0
 10 19  1  0  0  0  0
 11 14  1  1  0  0  0
 12  2  1  0  0  0  0
 12 23  1  0  0  0  0
 13  5  1  6  0  0  0
 13  4  1  0  0  0  0
 14  4  2  0  0  0  0
 14 18  1  0  0  0  0
 15  1  1  0  0  0  0
 16  3  1  1  0  0  0
 16  2  1  0  0  0  0
 16 11  1  0  0  0  0
 17 21  1  0  0  0  0
 19 20  2  0  0  0  0
 20 15  1  0  0  0  0
 21 15  2  0  0  0  0
 21  3  1  0  0  0  0
 23 27  1  0  0  0  0
 24 23  2  0  0  0  0
 24 25  1  0  0  0  0
 25 22  2  0  0  0  0
 26 22  1  0  0  0  0
 27 26  2  0  0  0  0
M  END
>  <MODEL>
4

>  <REMARK>
 VINA RESULT:      -7.3      1.944      6.734
  Name = 
  1 active torsions:
  status: ('A' for Active; 'I' for Inactive)
    1  A    between atoms: C_9  and  C_15
                            x       y       z     vdW  Elec       q    Type
                         _______ _______ _______ _____ _____    ______ ____

>  <TORSDO>
F 1

$$$$
=
 OpenBabel11052418243D

 27 31  0  0  1  0  0  0  0  0999 V2000
  189.9850  176.2370  144.3280 N   0  0  0  0  0  0  0  0  0  0  0  0
  191.0500  174.5800  142.6520 C   0  0  1  0  0  3  0  0  0  0  0  0
  188.1830  174.4230  141.9880 S   0  0  0  0  0  0  0  0  0  0  0  0
  191.5120  172.0270  139.4840 N   0  0  0  0  0  0  0  0  0  0  0  0
  189.7410  171.0770  137.9950 C   0  0  0  0  0  1  0  0  0  0  0  0
  192.4130  174.0350  142.3020 C   0  0  0  0  0  3  0  0  0  0  0  0
  189.2960  172.7780  139.8020 N   0  0  0  0  0  0  0  0  0  0  0  0
  185.5560  177.1500  142.8870 C   0  0  0  0  0  3  0  0  0  0  0  0
  188.3480  173.5090  139.1080 C   0  0  0  0  0  1  0  0  0  0  0  0
  185.8150  178.1550  143.7420 C   0  0  0  0  0  2  0  0  0  0  0  0
  190.2630  173.7090  140.4130 C   0  0  2  0  0  3  0  0  0  0  0  0
  191.0000  175.4880  143.9050 C   0  0  0  0  0  0  0  0  0  0  0  0
  190.2110  172.2930  138.8220 C   0  0  1  0  0  3  0  0  0  0  0  0
  191.5160  172.9780  140.3960 C   0  0  0  0  0  0  0  0  0  0  0  0
  188.6630  176.5370  143.8710 C   0  0  0  0  0  0  0  0  0  0  0  0
  189.9690  174.2510  141.8620 C   0  0  1  0  0  3  0  0  0  0  0  0
  186.3080  175.8460  142.9050 C   0  0  0  0  0  3  0  0  0  0  0  0
  192.6340  173.2250  141.2760 N   0  0  0  0  0  0  0  0  0  0  0  0
  186.9420  178.3680  144.6230 C   0  0  0  0  0  3  0  0  0  0  0  0
  188.1530  177.7400  144.6620 C   0  0  0  0  0  3  0  0  0  0  0  0
  187.8410  175.8770  143.0420 C   0  0  0  0  0  0  0  0  0  0  0  0
  194.5170  175.9460  146.2920 C   0  0  0  0  0  3  0  0  0  0  0  0
  192.2490  175.6530  144.7190 C   0  0  0  0  0  0  0  0  0  0  0  0
  192.5480  174.6940  145.7110 C   0  0  0  0  0  3  0  0  0  0  0  0
  193.6850  174.8350  146.4710 C   0  0  0  0  0  3  0  0  0  0  0  0
  194.1890  176.9420  145.3560 C   0  0  0  0  0  3  0  0  0  0  0  0
  193.0620  176.7920  144.5740 C   0  0  0  0  0  3  0  0  0  0  0  0
  2  6  1  6  0  0  0
  2 12  1  0  0  0  0
  3 21  1  0  0  0  0
  4 14  2  0  0  0  0
  7 11  1  0  0  0  0
  8 17  2  0  0  0  0
  8 10  1  0  0  0  0
  9  7  1  0  0  0  0
 10 19  1  0  0  0  0
 11 14  1  1  0  0  0
 11 16  1  0  0  0  0
 12  1  2  0  0  0  0
 12 23  1  0  0  0  0
 13  5  1  1  0  0  0
 13  4  1  0  0  0  0
 13  7  1  0  0  0  0
 14 18  1  0  0  0  0
 15  1  1  0  0  0  0
 15 20  1  0  0  0  0
 16  3  1  6  0  0  0
 16  2  1  0  0  0  0
 17 21  1  0  0  0  0
 18  6  2  0  0  0  0
 19 20  2  0  0  0  0
 21 15  2  0  0  0  0
 22 25  1  0  0  0  0
 23 24  1  0  0  0  0
 24 25  2  0  0  0  0
 26 22  2  0  0  0  0
 27 23  2  0  0  0  0
 27 26  1  0  0  0  0
M  END
>  <MODEL>
5

>  <REMARK>
 VINA RESULT:      -7.3      1.624      5.396
  Name = 
  1 active torsions:
  status: ('A' for Active; 'I' for Inactive)
    1  A    between atoms: C_9  and  C_15
                            x       y       z     vdW  Elec       q    Type
                         _______ _______ _______ _____ _____    ______ ____

>  <TORSDO>
F 1

$$$$
=
 OpenBabel11052418243D

 27 31  0  0  1  0  0  0  0  0999 V2000
  186.8590  176.6140  141.6400 N   0  0  0  0  0  0  0  0  0  0  0  0
  188.5080  176.0790  143.5590 C   0  0  1  0  0  3  0  0  0  0  0  0
  189.2530  174.1120  141.4960 S   0  0  0  0  0  0  0  0  0  0  0  0
  191.6670  174.5020  145.6330 N   0  0  0  0  0  0  0  0  0  0  0  0
  193.2080  172.6600  144.9350 C   0  0  0  0  0  1  0  0  0  0  0  0
  188.8210  176.5580  144.9560 C   0  0  0  0  0  3  0  0  0  0  0  0
  191.4110  173.6270  143.4550 N   0  0  0  0  0  0  0  0  0  0  0  0
  188.4230  174.4590  137.7110 C   0  0  0  0  0  3  0  0  0  0  0  0
  192.1290  173.5810  142.2740 C   0  0  0  0  0  1  0  0  0  0  0  0
  187.5580  175.3740  137.2370 C   0  0  0  0  0  3  0  0  0  0  0  0
  190.7700  174.9510  143.5730 C   0  0  2  0  0  3  0  0  0  0  0  0
  187.2560  176.7120  142.9060 C   0  0  0  0  0  0  0  0  0  0  0  0
  192.3650  173.8730  144.4860 C   0  0  1  0  0  3  0  0  0  0  0  0
  190.7540  175.2100  145.0000 C   0  0  0  0  0  0  0  0  0  0  0  0
  187.3520  175.9920  140.4500 C   0  0  0  0  0  0  0  0  0  0  0  0
  189.3290  175.1430  142.9670 C   0  0  1  0  0  3  0  0  0  0  0  0
  188.3870  173.9560  139.1280 C   0  0  0  0  0  2  0  0  0  0  0  0
  189.8420  176.1060  145.6710 N   0  0  0  0  0  0  0  0  0  0  0  0
  186.6450  176.2510  137.9370 C   0  0  0  0  0  3  0  0  0  0  0  0
  186.5740  176.5590  139.2640 C   0  0  0  0  0  3  0  0  0  0  0  0
  188.2060  174.9730  140.2700 C   0  0  0  0  0  0  0  0  0  0  0  0
  184.7730  179.2860  145.2490 C   0  0  0  0  0  3  0  0  0  0  0  0
  186.4050  177.6330  143.7310 C   0  0  0  0  0  0  0  0  0  0  0  0
  185.6460  177.0930  144.7900 C   0  0  0  0  0  3  0  0  0  0  0  0
  184.8560  177.9220  145.5520 C   0  0  0  0  0  3  0  0  0  0  0  0
  185.4710  179.8190  144.1520 C   0  0  0  0  0  3  0  0  0  0  0  0
  186.2840  178.9950  143.4010 C   0  0  0  0  0  3  0  0  0  0  0  0
  1 12  2  0  0  0  0
  2  6  1  6  0  0  0
  6 18  2  0  0  0  0
  7 11  1  0  0  0  0
  7 13  1  0  0  0  0
  8 17  1  0  0  0  0
  9  7  1  0  0  0  0
 10  8  2  0  0  0  0
 10 19  1  0  0  0  0
 11 14  1  1  0  0  0
 12  2  1  0  0  0  0
 12 23  1  0  0  0  0
 13  5  1  1  0  0  0
 13  4  1  0  0  0  0
 14  4  2  0  0  0  0
 14 18  1  0  0  0  0
 15  1  1  0  0  0  0
 16  3  1  6  0  0  0
 16  2  1  0  0  0  0
 16 11  1  0  0  0  0
 17 21  1  0  0  0  0
 19 20  2  0  0  0  0
 20 15  1  0  0  0  0
 21 15  2  0  0  0  0
 21  3  1  0  0  0  0
 22 25  1  0  0  0  0
 23 24  1  0  0  0  0
 24 25  2  0  0  0  0
 26 22  2  0  0  0  0
 27 23  2  0  0  0  0
 27 26  1  0  0  0  0
M  END
>  <MODEL>
6

>  <REMARK>
 VINA RESULT:      -7.3      2.261      5.748
  Name = 
  1 active torsions:
  status: ('A' for Active; 'I' for Inactive)
    1  A    between atoms: C_9  and  C_15
                            x       y       z     vdW  Elec       q    Type
                         _______ _______ _______ _____ _____    ______ ____

>  <TORSDO>
F 1

$$$$
=
 OpenBabel11052418243D

 27 31  0  0  1  0  0  0  0  0999 V2000
  188.1400  175.4010  141.5730 N   0  0  0  0  0  0  0  0  0  0  0  0
  189.6310  176.2300  143.5160 C   0  0  1  0  0  3  0  0  0  0  0  0
  191.1530  173.9370  142.4620 S   0  0  0  0  0  0  0  0  0  0  0  0
  192.8390  176.6940  146.0170 N   0  0  0  0  0  0  0  0  0  0  0  0
  194.9180  175.3090  146.1380 C   0  0  0  0  0  1  0  0  0  0  0  0
  189.6230  177.3020  144.5780 C   0  0  0  0  0  3  0  0  0  0  0  0
  193.1080  174.9830  144.4130 N   0  0  0  0  0  0  0  0  0  0  0  0
  190.7160  172.4510  138.8920 C   0  0  0  0  0  3  0  0  0  0  0  0
  193.9450  174.6910  143.3510 C   0  0  0  0  0  1  0  0  0  0  0  0
  189.6880  172.7770  138.0890 C   0  0  0  0  0  3  0  0  0  0  0  0
  192.1040  175.9700  143.9720 C   0  0  2  0  0  3  0  0  0  0  0  0
  188.3370  176.1200  142.6750 C   0  0  0  0  0  0  0  0  0  0  0  0
  193.8210  175.9080  145.2320 C   0  0  1  0  0  3  0  0  0  0  0  0
  191.8430  176.7630  145.1590 C   0  0  0  0  0  0  0  0  0  0  0  0
  188.9300  174.5400  140.7480 C   0  0  0  0  0  0  0  0  0  0  0  0
  190.7520  175.4420  143.3620 C   0  0  1  0  0  3  0  0  0  0  0  0
  190.6580  172.5780  140.3910 C   0  0  0  0  0  2  0  0  0  0  0  0
  190.6380  177.5200  145.4030 N   0  0  0  0  0  0  0  0  0  0  0  0
  188.4840  173.5290  138.3680 C   0  0  0  0  0  3  0  0  0  0  0  0
  188.1680  174.3070  139.4440 C   0  0  0  0  0  3  0  0  0  0  0  0
  190.0560  173.8570  141.0010 C   0  0  0  0  0  0  0  0  0  0  0  0
  185.0460  178.6300  143.7460 C   0  0  0  0  0  3  0  0  0  0  0  0
  187.1650  176.9800  143.0480 C   0  0  0  0  0  0  0  0  0  0  0  0
  187.0160  178.2370  142.4250 C   0  0  0  0  0  3  0  0  0  0  0  0
  185.9520  179.0400  142.7610 C   0  0  0  0  0  3  0  0  0  0  0  0
  185.2270  177.4110  144.4220 C   0  0  0  0  0  3  0  0  0  0  0  0
  186.2800  176.5920  144.0700 C   0  0  0  0  0  3  0  0  0  0  0  0
  1 12  2  0  0  0  0
  2  6  1  6  0  0  0
  6 18  2  0  0  0  0
  7 13  1  0  0  0  0
  8 17  1  0  0  0  0
  9  7  1  0  0  0  0
 10 19  1  0  0  0  0
 10  8  2  0  0  0  0
 11  7  1  0  0  0  0
 11 14  1  1  0  0  0
 12 23  1  0  0  0  0
 12  2  1  0  0  0  0
 13  4  1  0  0  0  0
 13  5  1  1  0  0  0
 14 18  1  0  0  0  0
 14  4  2  0  0  0  0
 15 21  2  0  0  0  0
 15  1  1  0  0  0  0
 16  3  1  6  0  0  0
 16  2  1  0  0  0  0
 16 11  1  0  0  0  0
 17 21  1  0  0  0  0
 19 20  2  0  0  0  0
 20 15  1  0  0  0  0
 21  3  1  0  0  0  0
 22 26  1  0  0  0  0
 23 27  1  0  0  0  0
 24 25  1  0  0  0  0
 24 23  2  0  0  0  0
 25 22  2  0  0  0  0
 27 26  2  0  0  0  0
M  END
>  <MODEL>
7

>  <REMARK>
 VINA RESULT:      -7.2      1.610      5.630
  Name = 
  1 active torsions:
  status: ('A' for Active; 'I' for Inactive)
    1  A    between atoms: C_9  and  C_15
                            x       y       z     vdW  Elec       q    Type
                         _______ _______ _______ _____ _____    ______ ____

>  <TORSDO>
F 1

$$$$
=
 OpenBabel11052418243D

 27 31  0  0  1  0  0  0  0  0999 V2000
  189.6460  174.5770  142.6320 N   0  0  0  0  0  0  0  0  0  0  0  0
  191.8310  175.4490  143.7060 C   0  0  1  0  0  3  0  0  0  0  0  0
  192.7940  174.1300  141.2530 S   0  0  0  0  0  0  0  0  0  0  0  0
  195.7600  176.4840  144.2120 N   0  0  0  0  0  0  0  0  0  0  0  0
  197.7030  175.9390  142.7350 C   0  0  0  0  0  1  0  0  0  0  0  0
  192.2710  176.1960  144.9400 C   0  0  0  0  0  3  0  0  0  0  0  0
  195.3120  175.3640  142.1820 N   0  0  0  0  0  0  0  0  0  0  0  0
  190.5880  173.3810  138.1360 C   0  0  0  0  0  3  0  0  0  0  0  0
  195.3910  175.6230  140.8250 C   0  0  0  0  0  1  0  0  0  0  0  0
  189.2470  173.4820  138.1530 C   0  0  0  0  0  3  0  0  0  0  0  0
  194.0920  175.9980  142.7180 C   0  0  2  0  0  3  0  0  0  0  0  0
  190.3320  175.0670  143.6610 C   0  0  0  0  0  0  0  0  0  0  0  0
  196.2010  176.2860  142.8100 C   0  0  1  0  0  3  0  0  0  0  0  0
  194.4550  176.3740  144.0710 C   0  0  0  0  0  0  0  0  0  0  0  0
  189.9250  174.2510  141.2670 C   0  0  0  0  0  0  0  0  0  0  0  0
  192.7560  175.1650  142.7230 C   0  0  1  0  0  3  0  0  0  0  0  0
  191.4080  173.1580  139.3780 C   0  0  0  0  0  2  0  0  0  0  0  0
  193.5220  176.5810  145.1540 N   0  0  0  0  0  0  0  0  0  0  0  0
  188.3360  173.6780  139.2600 C   0  0  0  0  0  3  0  0  0  0  0  0
  188.5930  174.0440  140.5490 C   0  0  0  0  0  3  0  0  0  0  0  0
  191.0790  173.9770  140.6400 C   0  0  0  0  0  0  0  0  0  0  0  0
  187.9380  175.9530  147.0900 C   0  0  0  0  0  3  0  0  0  0  0  0
  189.4840  175.3520  144.8660 C   0  0  0  0  0  0  0  0  0  0  0  0
  188.6090  176.4580  144.8370 C   0  0  0  0  0  3  0  0  0  0  0  0
  187.8300  176.7370  145.9360 C   0  0  0  0  0  3  0  0  0  0  0  0
  188.8580  174.8930  147.1520 C   0  0  0  0  0  3  0  0  0  0  0  0
  189.6230  174.5950  146.0440 C   0  0  0  0  0  3  0  0  0  0  0  0
  1 12  2  0  0  0  0
  2  6  1  6  0  0  0
  6 18  2  0  0  0  0
  7 11  1  0  0  0  0
  7 13  1  0  0  0  0
  8 10  2  0  0  0  0
  8 17  1  0  0  0  0
  9  7  1  0  0  0  0
 10 19  1  0  0  0  0
 11 16  1  0  0  0  0
 11 14  1  1  0  0  0
 12  2  1  0  0  0  0
 12 23  1  0  0  0  0
 13  5  1  1  0  0  0
 13  4  1  0  0  0  0
 14  4  2  0  0  0  0
 14 18  1  0  0  0  0
 15  1  1  0  0  0  0
 16  3  1  6  0  0  0
 16  2  1  0  0  0  0
 17 21  1  0  0  0  0
 19 20  2  0  0  0  0
 20 15  1  0  0  0  0
 21  3  1  0  0  0  0
 21 15  2  0  0  0  0
 22 26  1  0  0  0  0
 23 27  1  0  0  0  0
 24 23  2  0  0  0  0
 24 25  1  0  0  0  0
 25 22  2  0  0  0  0
 27 26  2  0  0  0  0
M  END
>  <MODEL>
8

>  <REMARK>
 VINA RESULT:      -7.1      2.172      5.757
  Name = 
  1 active torsions:
  status: ('A' for Active; 'I' for Inactive)
    1  A    between atoms: C_9  and  C_15
                            x       y       z     vdW  Elec       q    Type
                         _______ _______ _______ _____ _____    ______ ____

>  <TORSDO>
F 1

$$$$
=
 OpenBabel11052418243D

 27 31  0  0  1  0  0  0  0  0999 V2000
  190.5400  176.5750  144.3290 N   0  0  0  0  0  0  0  0  0  0  0  0
  189.6390  175.1440  142.3720 C   0  0  1  0  0  3  0  0  0  0  0  0
  192.5270  174.5590  142.3290 S   0  0  0  0  0  0  0  0  0  0  0  0
  189.4420  172.3800  139.3590 N   0  0  0  0  0  0  0  0  0  0  0  0
  191.3140  171.0760  138.3330 C   0  0  0  0  0  1  0  0  0  0  0  0
  188.3270  174.8550  141.6850 C   0  0  0  0  0  3  0  0  0  0  0  0
  191.5910  172.6200  140.3060 N   0  0  0  0  0  0  0  0  0  0  0  0
  194.9330  175.0900  145.3400 C   0  0  0  0  0  3  0  0  0  0  0  0
  192.5040  171.8430  140.9950 C   0  0  0  0  0  1  0  0  0  0  0  0
  194.5820  175.7830  146.4380 C   0  0  0  0  0  2  0  0  0  0  0  0
  190.5450  173.0710  141.2440 C   0  0  2  0  0  3  0  0  0  0  0  0
  189.5920  176.2500  143.4540 C   0  0  0  0  0  0  0  0  0  0  0  0
  190.7380  171.7080  139.6180 C   0  0  1  0  0  3  0  0  0  0  0  0
  189.3460  173.1410  140.4290 C   0  0  0  0  0  0  0  0  0  0  0  0
  191.8500  176.1020  144.6540 C   0  0  0  0  0  0  0  0  0  0  0  0
  190.7610  174.4290  142.0110 C   0  0  1  0  0  3  0  0  0  0  0  0
  194.2740  175.2870  144.0020 C   0  0  0  0  0  3  0  0  0  0  0  0
  188.1910  173.9560  140.7200 N   0  0  0  0  0  0  0  0  0  0  0  0
  193.4190  176.6050  146.6950 C   0  0  0  0  0  3  0  0  0  0  0  0
  192.2540  176.7150  145.9930 C   0  0  0  0  0  3  0  0  0  0  0  0
  192.7390  175.3920  143.9420 C   0  0  0  0  0  0  0  0  0  0  0  0
  185.9100  178.3490  144.0100 C   0  0  0  0  0  3  0  0  0  0  0  0
  188.3130  177.0100  143.6460 C   0  0  0  0  0  0  0  0  0  0  0  0
  187.4910  176.6960  144.7490 C   0  0  0  0  0  3  0  0  0  0  0  0
  186.3120  177.3790  144.9340 C   0  0  0  0  0  3  0  0  0  0  0  0
  186.6870  178.6180  142.8710 C   0  0  0  0  0  3  0  0  0  0  0  0
  187.8820  177.9530  142.6940 C   0  0  0  0  0  3  0  0  0  0  0  0
  1 15  1  0  0  0  0
  2  6  1  1  0  0  0
  2 12  1  0  0  0  0
  3 21  1  0  0  0  0
  4 13  1  0  0  0  0
  4 14  2  0  0  0  0
  7  9  1  0  0  0  0
  7 11  1  0  0  0  0
  8 10  1  0  0  0  0
 10 19  1  0  0  0  0
 11 14  1  6  0  0  0
 11 16  1  0  0  0  0
 12 23  1  0  0  0  0
 12  1  2  0  0  0  0
 13  5  1  6  0  0  0
 13  7  1  0  0  0  0
 14 18  1  0  0  0  0
 15 20  1  0  0  0  0
 16  3  1  1  0  0  0
 16  2  1  0  0  0  0
 17  8  2  0  0  0  0
 18  6  2  0  0  0  0
 20 19  2  0  0  0  0
 21 17  1  0  0  0  0
 21 15  2  0  0  0  0
 22 25  1  0  0  0  0
 23 24  1  0  0  0  0
 24 25  2  0  0  0  0
 26 22  2  0  0  0  0
 27 26  1  0  0  0  0
 27 23  2  0  0  0  0
M  END
>  <MODEL>
9

>  <REMARK>
 VINA RESULT:      -7.0      1.151      1.615
  Name = 
  1 active torsions:
  status: ('A' for Active; 'I' for Inactive)
    1  A    between atoms: C_9  and  C_15
                            x       y       z     vdW  Elec       q    Type
                         _______ _______ _______ _____ _____    ______ ____

>  <TORSDO>
F 1

$$$$
