=
 OpenBabel11052417193D

 30 34  0  0  1  0  0  0  0  0999 V2000
  187.1500  177.1410  142.7490 C   0  0  0  0  0  3  0  0  0  0  0  0
  185.6230  177.7010  140.9400 C   0  0  0  0  0  0  0  0  0  0  0  0
  184.2870  178.3050  145.6080 C   0  0  0  0  0  3  0  0  0  0  0  0
  187.4630  177.0400  144.1080 C   0  0  0  0  0  0  0  0  0  0  0  0
  184.5910  178.2450  146.9690 C   0  0  0  0  0  3  0  0  0  0  0  0
  184.3770  178.1690  140.5160 C   0  0  0  0  0  3  0  0  0  0  0  0
  186.5850  177.3100  139.9630 N   0  0  0  0  0  1  0  0  0  0  0  0
  185.2300  177.9150  144.6430 C   0  0  0  0  0  0  0  0  0  0  0  0
  183.4120  178.5510  141.4490 C   0  0  0  0  0  3  0  0  0  0  0  0
  185.9090  177.6120  142.3150 C   0  0  0  0  0  0  0  0  0  0  0  0
  186.5020  177.4410  145.0660 C   0  0  0  0  0  0  0  0  0  0  0  0
  185.8450  177.7990  147.3840 C   0  0  0  0  0  3  0  0  0  0  0  0
  186.7930  177.4050  146.4400 C   0  0  0  0  0  3  0  0  0  0  0  0
  183.6890  178.4670  142.8140 C   0  0  0  0  0  3  0  0  0  0  0  0
  184.9350  177.9990  143.2650 C   0  0  0  0  0  0  0  0  0  0  0  0
  188.7570  176.5200  144.4940 N   0  0  0  0  0  0  0  0  0  0  0  0
  191.0680  174.0560  145.8200 C   0  0  0  0  0  3  0  0  0  0  0  0
  189.4090  175.2120  147.0360 O   0  0  0  0  0  0  0  0  0  0  0  0
  189.0000  175.0870  144.6720 C   0  0  1  0  0  3  0  0  0  0  0  0
  189.5880  174.5110  143.4550 N   0  0  0  0  0  0  0  0  0  0  0  0
  189.8140  174.8100  145.9140 C   0  0  0  0  0  0  0  0  0  0  0  0
  191.4860  173.5960  144.6450 C   0  0  0  0  0  3  0  0  0  0  0  0
  190.7000  173.8370  143.4250 C   0  0  0  0  0  3  0  0  0  0  0  0
  189.8560  177.4190  144.8260 C   0  0  0  0  0  2  0  0  0  0  0  0
  190.6100  177.8190  143.5690 C   0  0  0  0  0  2  0  0  0  0  0  0
  191.9940  177.2030  143.5810 C   0  0  0  0  0  2  0  0  0  0  0  0
  192.4820  177.1240  144.9480 N   0  0  0  0  0  2  0  0  0  0  0  0
  194.6390  177.3540  146.0100 C   0  0  0  0  0  2  0  0  0  0  0  0
  193.8680  176.7040  144.8800 C   0  0  0  0  0  3  0  0  0  0  0  0
  194.2070  175.9100  146.1250 C   0  0  0  0  0  2  0  0  0  0  0  0
  1  4  1  0  0  0  0
  2 10  1  0  0  0  0
  3  5  2  0  0  0  0
  4 16  1  0  0  0  0
  4 11  2  0  0  0  0
  5 12  1  0  0  0  0
  6  2  2  0  0  0  0
  6  9  1  0  0  0  0
  7  2  1  0  0  0  0
  8 11  1  0  0  0  0
  8  3  1  0  0  0  0
  9 14  2  0  0  0  0
 10  1  2  0  0  0  0
 10 15  1  0  0  0  0
 11 13  1  0  0  0  0
 13 12  2  0  0  0  0
 14 15  1  0  0  0  0
 15  8  2  0  0  0  0
 16 24  1  0  0  0  0
 17 21  1  0  0  0  0
 19 16  1  6  0  0  0
 19 21  1  0  0  0  0
 20 19  1  0  0  0  0
 21 18  2  0  0  0  0
 22 17  2  0  0  0  0
 23 20  2  0  0  0  0
 23 22  1  0  0  0  0
 25 26  1  0  0  0  0
 25 24  1  0  0  0  0
 26 27  1  0  0  0  0
 28 30  1  0  0  0  0
 29 27  1  0  0  0  0
 29 28  1  0  0  0  0
 29 30  1  0  0  0  0
M  END
>  <MODEL>
1

>  <REMARK>
 VINA RESULT:      -7.7      0.000      0.000
  Name = 
  7 active torsions:
  status: ('A' for Active; 'I' for Inactive)
    1  A    between atoms: C_4  and  N_13
    2  A    between atoms: N_7  and  C_15
    3  A    between atoms: N_7  and  C_16
    4  A    between atoms: C_8  and  N_13
    5  A    between atoms: N_13  and  C_27
    6  A    between atoms: C_16  and  C_30
    7  A    between atoms: C_27  and  C_30
                            x       y       z     vdW  Elec       q    Type
                         _______ _______ _______ _____ _____    ______ ____

>  <TORSDO>
F 7

$$$$
=
 OpenBabel11052417193D

 30 34  0  0  1  0  0  0  0  0999 V2000
  187.7850  176.7340  143.6030 C   0  0  0  0  0  3  0  0  0  0  0  0
  186.5590  177.1710  141.5470 C   0  0  0  0  0  0  0  0  0  0  0  0
  184.6450  178.3550  145.8920 C   0  0  0  0  0  3  0  0  0  0  0  0
  187.9020  176.7650  144.9960 C   0  0  0  0  0  0  0  0  0  0  0  0
  184.7560  178.4280  147.2810 C   0  0  0  0  0  3  0  0  0  0  0  0
  185.4170  177.6560  140.9050 C   0  0  0  0  0  3  0  0  0  0  0  0
  187.6170  176.6260  140.7620 N   0  0  0  0  0  1  0  0  0  0  0  0
  185.6820  177.8110  145.1160 C   0  0  0  0  0  0  0  0  0  0  0  0
  184.3630  178.1890  141.6470 C   0  0  0  0  0  3  0  0  0  0  0  0
  186.6490  177.2200  142.9510 C   0  0  0  0  0  0  0  0  0  0  0  0
  186.8490  177.3200  145.7610 C   0  0  0  0  0  0  0  0  0  0  0  0
  185.9080  177.9640  147.9140 C   0  0  0  0  0  3  0  0  0  0  0  0
  186.9470  177.4190  147.1590 C   0  0  0  0  0  3  0  0  0  0  0  0
  184.4450  178.2400  143.0400 C   0  0  0  0  0  3  0  0  0  0  0  0
  185.5840  177.7600  143.7090 C   0  0  0  0  0  0  0  0  0  0  0  0
  189.0940  176.2230  145.6130 N   0  0  0  0  0  0  0  0  0  0  0  0
  192.6840  176.5970  145.2430 C   0  0  0  0  0  3  0  0  0  0  0  0
  191.0410  177.2810  143.6940 O   0  0  0  0  0  0  0  0  0  0  0  0
  190.2460  177.0610  145.9500 C   0  0  1  0  0  3  0  0  0  0  0  0
  190.7430  176.7340  147.2930 N   0  0  0  0  0  0  0  0  0  0  0  0
  191.3170  176.9890  144.8870 C   0  0  0  0  0  0  0  0  0  0  0  0
  192.9940  176.3210  146.5060 C   0  0  0  0  0  3  0  0  0  0  0  0
  191.9730  176.4030  147.5620 C   0  0  0  0  0  3  0  0  0  0  0  0
  189.2370  174.7890  145.8310 C   0  0  0  0  0  2  0  0  0  0  0  0
  189.8770  174.1320  144.6190 C   0  0  0  0  0  2  0  0  0  0  0  0
  189.7220  172.6270  144.7090 C   0  0  0  0  0  2  0  0  0  0  0  0
  189.3880  172.0910  143.4000 N   0  0  0  0  0  2  0  0  0  0  0  0
  189.0470  172.7530  141.1030 C   0  0  0  0  0  2  0  0  0  0  0  0
  189.0910  173.2220  142.5430 C   0  0  0  0  0  3  0  0  0  0  0  0
  187.7600  172.9900  141.8590 C   0  0  0  0  0  2  0  0  0  0  0  0
  1  4  1  0  0  0  0
  2 10  1  0  0  0  0
  3  5  2  0  0  0  0
  4 16  1  0  0  0  0
  4 11  2  0  0  0  0
  5 12  1  0  0  0  0
  6  2  2  0  0  0  0
  6  9  1  0  0  0  0
  7  2  1  0  0  0  0
  8 11  1  0  0  0  0
  8  3  1  0  0  0  0
  9 14  2  0  0  0  0
 10  1  2  0  0  0  0
 10 15  1  0  0  0  0
 11 13  1  0  0  0  0
 13 12  2  0  0  0  0
 14 15  1  0  0  0  0
 15  8  2  0  0  0  0
 16 24  1  0  0  0  0
 17 22  2  0  0  0  0
 18 21  2  0  0  0  0
 19 16  1  6  0  0  0
 19 20  1  0  0  0  0
 20 23  2  0  0  0  0
 21 17  1  0  0  0  0
 21 19  1  0  0  0  0
 22 23  1  0  0  0  0
 25 26  1  0  0  0  0
 25 24  1  0  0  0  0
 27 26  1  0  0  0  0
 28 30  1  0  0  0  0
 28 29  1  0  0  0  0
 29 27  1  0  0  0  0
 30 29  1  0  0  0  0
M  END
>  <MODEL>
2

>  <REMARK>
 VINA RESULT:      -7.6      1.722      3.607
  Name = 
  7 active torsions:
  status: ('A' for Active; 'I' for Inactive)
    1  A    between atoms: C_4  and  N_13
    2  A    between atoms: N_7  and  C_15
    3  A    between atoms: N_7  and  C_16
    4  A    between atoms: C_8  and  N_13
    5  A    between atoms: N_13  and  C_27
    6  A    between atoms: C_16  and  C_30
    7  A    between atoms: C_27  and  C_30
                            x       y       z     vdW  Elec       q    Type
                         _______ _______ _______ _____ _____    ______ ____

>  <TORSDO>
F 7

$$$$
=
 OpenBabel11052417193D

 30 34  0  0  1  0  0  0  0  0999 V2000
  187.4250  176.5190  144.7060 C   0  0  0  0  0  3  0  0  0  0  0  0
  186.0160  177.3140  146.5240 C   0  0  0  0  0  0  0  0  0  0  0  0
  184.9340  178.3930  141.8760 C   0  0  0  0  0  3  0  0  0  0  0  0
  187.7410  176.4200  143.3480 C   0  0  0  0  0  0  0  0  0  0  0  0
  185.2120  178.2780  140.5130 C   0  0  0  0  0  3  0  0  0  0  0  0
  184.8980  178.0310  146.9580 C   0  0  0  0  0  3  0  0  0  0  0  0
  186.8510  176.6820  147.4910 N   0  0  0  0  0  1  0  0  0  0  0  0
  185.7600  177.7780  142.8320 C   0  0  0  0  0  0  0  0  0  0  0  0
  184.0660  178.6650  146.0350 C   0  0  0  0  0  3  0  0  0  0  0  0
  186.3070  177.2300  145.1500 C   0  0  0  0  0  0  0  0  0  0  0  0
  186.8970  177.0430  142.3990 C   0  0  0  0  0  0  0  0  0  0  0  0
  186.3160  177.5410  140.0860 C   0  0  0  0  0  3  0  0  0  0  0  0
  187.1480  176.9260  141.0220 C   0  0  0  0  0  3  0  0  0  0  0  0
  184.3480  178.5870  144.6700 C   0  0  0  0  0  3  0  0  0  0  0  0
  185.4660  177.8710  144.2090 C   0  0  0  0  0  0  0  0  0  0  0  0
  188.9270  175.6900  142.9550 N   0  0  0  0  0  0  0  0  0  0  0  0
  190.9280  172.6900  143.3670 C   0  0  0  0  0  3  0  0  0  0  0  0
  189.6900  173.7870  145.0500 O   0  0  0  0  0  0  0  0  0  0  0  0
  188.9340  174.2330  142.8140 C   0  0  1  0  0  3  0  0  0  0  0  0
  189.2320  173.8530  141.4260 N   0  0  0  0  0  0  0  0  0  0  0  0
  189.8540  173.5810  143.8190 C   0  0  0  0  0  0  0  0  0  0  0  0
  191.0860  172.4380  142.0710 C   0  0  0  0  0  3  0  0  0  0  0  0
  190.1910  173.0470  141.0750 C   0  0  0  0  0  3  0  0  0  0  0  0
  190.2040  176.3730  142.7830 C   0  0  0  0  0  2  0  0  0  0  0  0
  190.3690  177.4580  143.8340 C   0  0  0  0  0  2  0  0  0  0  0  0
  191.3220  176.9870  144.9140 C   0  0  0  0  0  2  0  0  0  0  0  0
  190.6010  176.8220  146.1640 N   0  0  0  0  0  2  0  0  0  0  0  0
  191.1920  175.2970  147.9420 C   0  0  0  0  0  2  0  0  0  0  0  0
  191.5880  176.5510  147.1910 C   0  0  0  0  0  3  0  0  0  0  0  0
  192.2720  175.2350  146.8870 C   0  0  0  0  0  2  0  0  0  0  0  0
  1 10  1  0  0  0  0
  2  6  1  0  0  0  0
  2  7  1  0  0  0  0
  3  8  1  0  0  0  0
  4  1  2  0  0  0  0
  5  3  2  0  0  0  0
  8 15  1  0  0  0  0
  9  6  2  0  0  0  0
 10  2  2  0  0  0  0
 11  8  2  0  0  0  0
 11  4  1  0  0  0  0
 12  5  1  0  0  0  0
 12 13  2  0  0  0  0
 13 11  1  0  0  0  0
 14  9  1  0  0  0  0
 15 14  2  0  0  0  0
 15 10  1  0  0  0  0
 16  4  1  0  0  0  0
 17 21  1  0  0  0  0
 19 16  1  6  0  0  0
 19 21  1  0  0  0  0
 20 19  1  0  0  0  0
 21 18  2  0  0  0  0
 22 17  2  0  0  0  0
 23 20  2  0  0  0  0
 23 22  1  0  0  0  0
 24 16  1  0  0  0  0
 24 25  1  0  0  0  0
 25 26  1  0  0  0  0
 26 27  1  0  0  0  0
 27 29  1  0  0  0  0
 29 28  1  0  0  0  0
 30 29  1  0  0  0  0
 30 28  1  0  0  0  0
M  END
>  <MODEL>
3

>  <REMARK>
 VINA RESULT:      -7.6      1.708      3.723
  Name = 
  7 active torsions:
  status: ('A' for Active; 'I' for Inactive)
    1  A    between atoms: C_4  and  N_13
    2  A    between atoms: N_7  and  C_15
    3  A    between atoms: N_7  and  C_16
    4  A    between atoms: C_8  and  N_13
    5  A    between atoms: N_13  and  C_27
    6  A    between atoms: C_16  and  C_30
    7  A    between atoms: C_27  and  C_30
                            x       y       z     vdW  Elec       q    Type
                         _______ _______ _______ _____ _____    ______ ____

>  <TORSDO>
F 7

$$$$
=
 OpenBabel11052417193D

 30 34  0  0  1  0  0  0  0  0999 V2000
  187.6520  176.8540  143.3370 C   0  0  0  0  0  3  0  0  0  0  0  0
  186.2830  177.3650  141.3910 C   0  0  0  0  0  0  0  0  0  0  0  0
  184.6240  178.2460  145.9090 C   0  0  0  0  0  3  0  0  0  0  0  0
  187.8590  176.8130  144.7190 C   0  0  0  0  0  0  0  0  0  0  0  0
  184.8230  178.2470  147.2900 C   0  0  0  0  0  3  0  0  0  0  0  0
  185.0890  177.8470  140.8510 C   0  0  0  0  0  3  0  0  0  0  0  0
  187.3030  176.8970  140.5110 N   0  0  0  0  0  1  0  0  0  0  0  0
  185.6230  177.7790  145.0390 C   0  0  0  0  0  0  0  0  0  0  0  0
  184.0710  178.3050  141.6880 C   0  0  0  0  0  3  0  0  0  0  0  0
  186.4640  177.3390  142.7870 C   0  0  0  0  0  0  0  0  0  0  0  0
  186.8440  177.2900  145.5800 C   0  0  0  0  0  0  0  0  0  0  0  0
  186.0280  177.7860  147.8210 C   0  0  0  0  0  3  0  0  0  0  0  0
  187.0300  177.3160  146.9720 C   0  0  0  0  0  3  0  0  0  0  0  0
  184.2420  178.2820  143.0740 C   0  0  0  0  0  3  0  0  0  0  0  0
  185.4350  177.8020  143.6400 C   0  0  0  0  0  0  0  0  0  0  0  0
  189.1040  176.2760  145.2270 N   0  0  0  0  0  0  0  0  0  0  0  0
  192.6790  176.7980  144.8910 C   0  0  0  0  0  3  0  0  0  0  0  0
  191.0160  177.5000  143.3730 O   0  0  0  0  0  0  0  0  0  0  0  0
  190.2240  177.1360  145.6110 C   0  0  1  0  0  3  0  0  0  0  0  0
  190.7300  176.7590  146.9380 N   0  0  0  0  0  0  0  0  0  0  0  0
  191.2990  177.1570  144.5500 C   0  0  0  0  0  0  0  0  0  0  0  0
  192.9950  176.4690  146.1400 C   0  0  0  0  0  3  0  0  0  0  0  0
  191.9700  176.4590  147.1940 C   0  0  0  0  0  3  0  0  0  0  0  0
  189.3320  174.8370  145.2790 C   0  0  0  0  0  2  0  0  0  0  0  0
  189.5580  174.2870  143.8810 C   0  0  0  0  0  2  0  0  0  0  0  0
  190.5320  173.1260  143.9360 C   0  0  0  0  0  2  0  0  0  0  0  0
  191.5180  173.3660  144.9760 N   0  0  0  0  0  2  0  0  0  0  0  0
  193.8350  172.9110  145.4840 C   0  0  0  0  0  2  0  0  0  0  0  0
  192.8220  173.1440  144.3820 C   0  0  0  0  0  3  0  0  0  0  0  0
  193.2830  171.7380  144.7080 C   0  0  0  0  0  2  0  0  0  0  0  0
  1  4  1  0  0  0  0
  2 10  1  0  0  0  0
  3  5  2  0  0  0  0
  4 16  1  0  0  0  0
  4 11  2  0  0  0  0
  5 12  1  0  0  0  0
  6  2  2  0  0  0  0
  6  9  1  0  0  0  0
  7  2  1  0  0  0  0
  8 11  1  0  0  0  0
  8  3  1  0  0  0  0
  9 14  2  0  0  0  0
 10  1  2  0  0  0  0
 10 15  1  0  0  0  0
 11 13  1  0  0  0  0
 13 12  2  0  0  0  0
 14 15  1  0  0  0  0
 15  8  2  0  0  0  0
 16 24  1  0  0  0  0
 17 22  2  0  0  0  0
 18 21  2  0  0  0  0
 19 16  1  6  0  0  0
 19 20  1  0  0  0  0
 20 23  2  0  0  0  0
 21 17  1  0  0  0  0
 21 19  1  0  0  0  0
 22 23  1  0  0  0  0
 25 26  1  0  0  0  0
 25 24  1  0  0  0  0
 26 27  1  0  0  0  0
 29 30  1  0  0  0  0
 29 27  1  0  0  0  0
 29 28  1  0  0  0  0
 30 28  1  0  0  0  0
M  END
>  <MODEL>
4

>  <REMARK>
 VINA RESULT:      -7.5      1.566      2.709
  Name = 
  7 active torsions:
  status: ('A' for Active; 'I' for Inactive)
    1  A    between atoms: C_4  and  N_13
    2  A    between atoms: N_7  and  C_15
    3  A    between atoms: N_7  and  C_16
    4  A    between atoms: C_8  and  N_13
    5  A    between atoms: N_13  and  C_27
    6  A    between atoms: C_16  and  C_30
    7  A    between atoms: C_27  and  C_30
                            x       y       z     vdW  Elec       q    Type
                         _______ _______ _______ _____ _____    ______ ____

>  <TORSDO>
F 7

$$$$
=
 OpenBabel11052417193D

 30 34  0  0  1  0  0  0  0  0999 V2000
  188.1810  176.5150  142.6300 C   0  0  0  0  0  3  0  0  0  0  0  0
  186.5860  178.3530  142.6360 C   0  0  0  0  0  0  0  0  0  0  0  0
  187.9210  176.1960  146.8210 C   0  0  0  0  0  3  0  0  0  0  0  0
  188.9360  175.5400  143.2880 C   0  0  0  0  0  0  0  0  0  0  0  0
  188.6920  175.2530  147.5000 C   0  0  0  0  0  3  0  0  0  0  0  0
  185.7410  179.2130  143.3410 C   0  0  0  0  0  3  0  0  0  0  0  0
  186.6680  178.4710  141.2170 N   0  0  0  0  0  1  0  0  0  0  0  0
  187.9930  176.3100  145.4220 C   0  0  0  0  0  0  0  0  0  0  0  0
  185.6350  179.1160  144.7290 C   0  0  0  0  0  3  0  0  0  0  0  0
  187.3370  177.3830  143.3260 C   0  0  0  0  0  0  0  0  0  0  0  0
  188.8540  175.4420  144.6970 C   0  0  0  0  0  0  0  0  0  0  0  0
  189.5520  174.4140  146.7920 C   0  0  0  0  0  3  0  0  0  0  0  0
  189.6340  174.5110  145.4030 C   0  0  0  0  0  3  0  0  0  0  0  0
  186.3760  178.1570  145.4210 C   0  0  0  0  0  3  0  0  0  0  0  0
  187.2340  177.2810  144.7340 C   0  0  0  0  0  0  0  0  0  0  0  0
  189.7740  174.6550  142.5070 N   0  0  0  0  0  0  0  0  0  0  0  0
  190.2200  171.2910  141.2200 C   0  0  0  0  0  3  0  0  0  0  0  0
  189.1980  171.8820  143.2630 O   0  0  0  0  0  0  0  0  0  0  0  0
  189.2140  173.6330  141.6210 C   0  0  1  0  0  3  0  0  0  0  0  0
  189.6310  173.8730  140.2320 N   0  0  0  0  0  0  0  0  0  0  0  0
  189.5340  172.2390  142.1040 C   0  0  0  0  0  0  0  0  0  0  0  0
  190.5470  171.6470  139.9820 C   0  0  0  0  0  3  0  0  0  0  0  0
  190.2280  172.9940  139.4820 C   0  0  0  0  0  3  0  0  0  0  0  0
  191.2250  174.6750  142.6520 C   0  0  0  0  0  2  0  0  0  0  0  0
  191.7480  176.0960  142.5300 C   0  0  0  0  0  2  0  0  0  0  0  0
  193.0830  176.2150  143.2370 C   0  0  0  0  0  2  0  0  0  0  0  0
  193.0180  175.5380  144.5220 N   0  0  0  0  0  2  0  0  0  0  0  0
  192.8020  175.9100  146.8980 C   0  0  0  0  0  2  0  0  0  0  0  0
  192.9000  176.5670  145.5370 C   0  0  0  0  0  3  0  0  0  0  0  0
  194.1120  176.5120  146.4430 C   0  0  0  0  0  2  0  0  0  0  0  0
  1  4  2  0  0  0  0
  1 10  1  0  0  0  0
  2 10  2  0  0  0  0
  2  6  1  0  0  0  0
  3  5  1  0  0  0  0
  4 11  1  0  0  0  0
  6  9  2  0  0  0  0
  7  2  1  0  0  0  0
  8  3  2  0  0  0  0
  9 14  1  0  0  0  0
 10 15  1  0  0  0  0
 11 13  2  0  0  0  0
 11  8  1  0  0  0  0
 12  5  2  0  0  0  0
 13 12  1  0  0  0  0
 15 14  2  0  0  0  0
 15  8  1  0  0  0  0
 16 24  1  0  0  0  0
 16  4  1  0  0  0  0
 17 21  1  0  0  0  0
 19 21  1  0  0  0  0
 19 16  1  1  0  0  0
 20 19  1  0  0  0  0
 21 18  2  0  0  0  0
 22 17  2  0  0  0  0
 23 22  1  0  0  0  0
 23 20  2  0  0  0  0
 25 24  1  0  0  0  0
 25 26  1  0  0  0  0
 26 27  1  0  0  0  0
 27 29  1  0  0  0  0
 29 30  1  0  0  0  0
 29 28  1  0  0  0  0
 30 28  1  0  0  0  0
M  END
>  <MODEL>
5

>  <REMARK>
 VINA RESULT:      -7.3      2.086      3.450
  Name = 
  7 active torsions:
  status: ('A' for Active; 'I' for Inactive)
    1  A    between atoms: C_4  and  N_13
    2  A    between atoms: N_7  and  C_15
    3  A    between atoms: N_7  and  C_16
    4  A    between atoms: C_8  and  N_13
    5  A    between atoms: N_13  and  C_27
    6  A    between atoms: C_16  and  C_30
    7  A    between atoms: C_27  and  C_30
                            x       y       z     vdW  Elec       q    Type
                         _______ _______ _______ _____ _____    ______ ____

>  <TORSDO>
F 7

$$$$
=
 OpenBabel11052417193D

 30 34  0  0  1  0  0  0  0  0999 V2000
  187.1990  176.3070  144.6230 C   0  0  0  0  0  3  0  0  0  0  0  0
  185.7650  177.3970  146.2590 C   0  0  0  0  0  0  0  0  0  0  0  0
  185.2230  178.2910  141.4790 C   0  0  0  0  0  3  0  0  0  0  0  0
  187.6100  176.0770  143.3070 C   0  0  0  0  0  0  0  0  0  0  0  0
  185.5940  178.0500  140.1550 C   0  0  0  0  0  3  0  0  0  0  0  0
  184.7210  178.2790  146.5490 C   0  0  0  0  0  3  0  0  0  0  0  0
  186.4260  176.7290  147.3320 N   0  0  0  0  0  1  0  0  0  0  0  0
  185.8770  177.6410  142.5390 C   0  0  0  0  0  0  0  0  0  0  0  0
  184.0610  178.9520  145.5210 C   0  0  0  0  0  3  0  0  0  0  0  0
  186.1540  177.1840  144.9240 C   0  0  0  0  0  0  0  0  0  0  0  0
  186.9380  176.7380  142.2520 C   0  0  0  0  0  0  0  0  0  0  0  0
  186.6210  177.1500  139.8720 C   0  0  0  0  0  3  0  0  0  0  0  0
  187.2830  176.4970  140.9120 C   0  0  0  0  0  3  0  0  0  0  0  0
  184.4410  178.7460  144.1940 C   0  0  0  0  0  3  0  0  0  0  0  0
  185.4870  177.8630  143.8770 C   0  0  0  0  0  0  0  0  0  0  0  0
  188.7160  175.1760  143.0630 N   0  0  0  0  0  0  0  0  0  0  0  0
  191.0230  176.7410  145.3860 C   0  0  0  0  0  3  0  0  0  0  0  0
  190.3500  174.4800  145.3950 O   0  0  0  0  0  0  0  0  0  0  0  0
  190.1080  175.5770  143.2730 C   0  0  1  0  0  3  0  0  0  0  0  0
  190.3680  176.8770  142.6390 N   0  0  0  0  0  0  0  0  0  0  0  0
  190.4840  175.5430  144.7350 C   0  0  0  0  0  0  0  0  0  0  0  0
  191.2010  177.8590  144.6880 C   0  0  0  0  0  3  0  0  0  0  0  0
  190.8600  177.9110  143.2580 C   0  0  0  0  0  3  0  0  0  0  0  0
  188.4920  173.8520  142.4940 C   0  0  0  0  0  2  0  0  0  0  0  0
  189.8000  173.2660  141.9900 C   0  0  0  0  0  2  0  0  0  0  0  0
  189.5850  172.6190  140.6360 C   0  0  0  0  0  2  0  0  0  0  0  0
  188.4420  173.2310  139.9780 N   0  0  0  0  0  2  0  0  0  0  0  0
  188.1830  174.1540  137.7620 C   0  0  0  0  0  2  0  0  0  0  0  0
  188.5530  172.9250  138.5650 C   0  0  0  0  0  3  0  0  0  0  0  0
  189.6370  173.7890  137.9540 C   0  0  0  0  0  2  0  0  0  0  0  0
  1 10  1  0  0  0  0
  2  6  1  0  0  0  0
  2  7  1  0  0  0  0
  3  8  1  0  0  0  0
  4  1  2  0  0  0  0
  5  3  2  0  0  0  0
  8 15  1  0  0  0  0
  9  6  2  0  0  0  0
 10  2  2  0  0  0  0
 11  8  2  0  0  0  0
 11  4  1  0  0  0  0
 12  5  1  0  0  0  0
 12 13  2  0  0  0  0
 13 11  1  0  0  0  0
 14  9  1  0  0  0  0
 15 14  2  0  0  0  0
 15 10  1  0  0  0  0
 16  4  1  0  0  0  0
 19 16  1  1  0  0  0
 19 21  1  0  0  0  0
 20 23  2  0  0  0  0
 20 19  1  0  0  0  0
 21 17  1  0  0  0  0
 21 18  2  0  0  0  0
 22 17  2  0  0  0  0
 23 22  1  0  0  0  0
 24 16  1  0  0  0  0
 25 24  1  0  0  0  0
 26 25  1  0  0  0  0
 27 26  1  0  0  0  0
 28 30  1  0  0  0  0
 28 29  1  0  0  0  0
 29 27  1  0  0  0  0
 30 29  1  0  0  0  0
M  END
>  <MODEL>
6

>  <REMARK>
 VINA RESULT:      -7.1      2.405      5.209
  Name = 
  7 active torsions:
  status: ('A' for Active; 'I' for Inactive)
    1  A    between atoms: C_4  and  N_13
    2  A    between atoms: N_7  and  C_15
    3  A    between atoms: N_7  and  C_16
    4  A    between atoms: C_8  and  N_13
    5  A    between atoms: N_13  and  C_27
    6  A    between atoms: C_16  and  C_30
    7  A    between atoms: C_27  and  C_30
                            x       y       z     vdW  Elec       q    Type
                         _______ _______ _______ _____ _____    ______ ____

>  <TORSDO>
F 7

$$$$
=
 OpenBabel11052417193D

 30 34  0  0  1  0  0  0  0  0999 V2000
  187.6470  177.1820  145.6450 C   0  0  0  0  0  3  0  0  0  0  0  0
  185.7100  177.9210  146.9190 C   0  0  0  0  0  0  0  0  0  0  0  0
  185.7160  178.1520  142.0310 C   0  0  0  0  0  3  0  0  0  0  0  0
  188.3160  176.9690  144.4360 C   0  0  0  0  0  0  0  0  0  0  0  0
  186.3520  177.9150  140.8120 C   0  0  0  0  0  3  0  0  0  0  0  0
  184.4210  178.4590  146.9500 C   0  0  0  0  0  3  0  0  0  0  0  0
  186.3540  177.5950  148.1490 N   0  0  0  0  0  1  0  0  0  0  0  0
  186.3500  177.8390  143.2460 C   0  0  0  0  0  0  0  0  0  0  0  0
  183.7690  178.7940  145.7620 C   0  0  0  0  0  3  0  0  0  0  0  0
  186.3570  177.7150  145.6870 C   0  0  0  0  0  0  0  0  0  0  0  0
  187.6600  177.2870  143.2240 C   0  0  0  0  0  0  0  0  0  0  0  0
  187.6290  177.3550  140.7890 C   0  0  0  0  0  3  0  0  0  0  0  0
  188.2750  177.0410  141.9840 C   0  0  0  0  0  3  0  0  0  0  0  0
  184.4040  178.5930  144.5360 C   0  0  0  0  0  3  0  0  0  0  0  0
  185.7000  178.0530  144.4790 C   0  0  0  0  0  0  0  0  0  0  0  0
  189.6620  176.4370  144.4630 N   0  0  0  0  0  0  0  0  0  0  0  0
  193.2670  176.7910  144.6680 C   0  0  0  0  0  3  0  0  0  0  0  0
  191.8360  177.9150  143.1660 O   0  0  0  0  0  0  0  0  0  0  0  0
  190.7550  177.1190  145.1570 C   0  0  1  0  0  3  0  0  0  0  0  0
  191.0750  176.4280  146.4140 N   0  0  0  0  0  0  0  0  0  0  0  0
  191.9550  177.3040  144.2600 C   0  0  0  0  0  0  0  0  0  0  0  0
  193.4110  176.1760  145.8380 C   0  0  0  0  0  3  0  0  0  0  0  0
  192.2600  176.0000  146.7370 C   0  0  0  0  0  3  0  0  0  0  0  0
  190.0090  175.2430  143.7020 C   0  0  0  0  0  2  0  0  0  0  0  0
  189.5250  173.9970  144.4250 C   0  0  0  0  0  2  0  0  0  0  0  0
  189.4600  172.8330  143.4560 C   0  0  0  0  0  2  0  0  0  0  0  0
  188.5240  173.1390  142.3880 N   0  0  0  0  0  2  0  0  0  0  0  0
  188.1920  172.9870  140.0000 C   0  0  0  0  0  2  0  0  0  0  0  0
  189.1210  172.6680  141.1530 C   0  0  0  0  0  3  0  0  0  0  0  0
  189.4030  173.8550  140.2550 C   0  0  0  0  0  2  0  0  0  0  0  0
  1 10  1  0  0  0  0
  2  6  1  0  0  0  0
  2  7  1  0  0  0  0
  3  8  1  0  0  0  0
  4 16  1  0  0  0  0
  4  1  2  0  0  0  0
  5  3  2  0  0  0  0
  8 15  1  0  0  0  0
  9  6  2  0  0  0  0
 10  2  2  0  0  0  0
 11  8  2  0  0  0  0
 11  4  1  0  0  0  0
 12  5  1  0  0  0  0
 12 13  2  0  0  0  0
 13 11  1  0  0  0  0
 14  9  1  0  0  0  0
 15 14  2  0  0  0  0
 15 10  1  0  0  0  0
 17 22  2  0  0  0  0
 18 21  2  0  0  0  0
 19 16  1  6  0  0  0
 19 20  1  0  0  0  0
 20 23  2  0  0  0  0
 21 17  1  0  0  0  0
 21 19  1  0  0  0  0
 22 23  1  0  0  0  0
 24 25  1  0  0  0  0
 24 16  1  0  0  0  0
 26 25  1  0  0  0  0
 27 26  1  0  0  0  0
 28 30  1  0  0  0  0
 28 29  1  0  0  0  0
 29 27  1  0  0  0  0
 30 29  1  0  0  0  0
M  END
>  <MODEL>
7

>  <REMARK>
 VINA RESULT:      -7.1      2.034      4.927
  Name = 
  7 active torsions:
  status: ('A' for Active; 'I' for Inactive)
    1  A    between atoms: C_4  and  N_13
    2  A    between atoms: N_7  and  C_15
    3  A    between atoms: N_7  and  C_16
    4  A    between atoms: C_8  and  N_13
    5  A    between atoms: N_13  and  C_27
    6  A    between atoms: C_16  and  C_30
    7  A    between atoms: C_27  and  C_30
                            x       y       z     vdW  Elec       q    Type
                         _______ _______ _______ _____ _____    ______ ____

>  <TORSDO>
F 7

$$$$
=
 OpenBabel11052417193D

 30 34  0  0  1  0  0  0  0  0999 V2000
  187.4510  176.8320  142.4700 C   0  0  0  0  0  3  0  0  0  0  0  0
  185.8520  177.6210  140.8140 C   0  0  0  0  0  0  0  0  0  0  0  0
  184.8130  177.8480  145.5900 C   0  0  0  0  0  3  0  0  0  0  0  0
  187.8350  176.5930  143.7930 C   0  0  0  0  0  0  0  0  0  0  0  0
  185.1900  177.6490  146.9190 C   0  0  0  0  0  3  0  0  0  0  0  0
  184.6080  178.1790  140.5100 C   0  0  0  0  0  3  0  0  0  0  0  0
  186.7380  177.2820  139.7500 N   0  0  0  0  0  1  0  0  0  0  0  0
  185.6800  177.5080  144.5380 C   0  0  0  0  0  0  0  0  0  0  0  0
  183.7170  178.5140  141.5310 C   0  0  0  0  0  3  0  0  0  0  0  0
  186.2110  177.3940  142.1560 C   0  0  0  0  0  0  0  0  0  0  0  0
  186.9500  176.9440  144.8390 C   0  0  0  0  0  0  0  0  0  0  0  0
  186.4430  177.1140  147.2160 C   0  0  0  0  0  3  0  0  0  0  0  0
  187.3160  176.7680  146.1840 C   0  0  0  0  0  3  0  0  0  0  0  0
  184.0660  178.2920  142.8640 C   0  0  0  0  0  3  0  0  0  0  0  0
  185.3120  177.7320  143.1950 C   0  0  0  0  0  0  0  0  0  0  0  0
  189.1230  175.9850  144.0510 N   0  0  0  0  0  0  0  0  0  0  0  0
  191.3680  173.2570  144.8790 C   0  0  0  0  0  3  0  0  0  0  0  0
  189.6970  174.1640  146.2760 O   0  0  0  0  0  0  0  0  0  0  0  0
  189.3420  174.5430  143.9310 C   0  0  1  0  0  3  0  0  0  0  0  0
  189.9500  174.2220  142.6320 N   0  0  0  0  0  0  0  0  0  0  0  0
  190.1230  173.9980  145.1030 C   0  0  0  0  0  0  0  0  0  0  0  0
  191.8070  173.0450  143.6420 C   0  0  0  0  0  3  0  0  0  0  0  0
  191.0540  173.5500  142.4840 C   0  0  0  0  0  3  0  0  0  0  0  0
  190.2390  176.7800  144.5480 C   0  0  0  0  0  2  0  0  0  0  0  0
  191.1630  177.1660  143.4060 C   0  0  0  0  0  2  0  0  0  0  0  0
  192.5840  176.7490  143.7290 C   0  0  0  0  0  2  0  0  0  0  0  0
  193.2860  176.4150  142.5020 N   0  0  0  0  0  2  0  0  0  0  0  0
  195.6940  176.2550  142.6070 C   0  0  0  0  0  2  0  0  0  0  0  0
  194.3840  175.5410  142.8670 C   0  0  0  0  0  3  0  0  0  0  0  0
  195.1530  176.1610  144.0150 C   0  0  0  0  0  2  0  0  0  0  0  0
  1  4  1  0  0  0  0
  2 10  1  0  0  0  0
  3  5  2  0  0  0  0
  4 16  1  0  0  0  0
  4 11  2  0  0  0  0
  5 12  1  0  0  0  0
  6  2  2  0  0  0  0
  6  9  1  0  0  0  0
  7  2  1  0  0  0  0
  8 11  1  0  0  0  0
  8  3  1  0  0  0  0
  9 14  2  0  0  0  0
 10  1  2  0  0  0  0
 10 15  1  0  0  0  0
 11 13  1  0  0  0  0
 13 12  2  0  0  0  0
 14 15  1  0  0  0  0
 15  8  2  0  0  0  0
 16 24  1  0  0  0  0
 17 21  1  0  0  0  0
 19 16  1  1  0  0  0
 19 21  1  0  0  0  0
 20 19  1  0  0  0  0
 21 18  2  0  0  0  0
 22 17  2  0  0  0  0
 23 20  2  0  0  0  0
 23 22  1  0  0  0  0
 25 26  1  0  0  0  0
 25 24  1  0  0  0  0
 27 29  1  0  0  0  0
 27 26  1  0  0  0  0
 28 29  1  0  0  0  0
 28 30  1  0  0  0  0
 29 30  1  0  0  0  0
M  END
>  <MODEL>
8

>  <REMARK>
 VINA RESULT:      -6.9      1.149      1.279
  Name = 
  7 active torsions:
  status: ('A' for Active; 'I' for Inactive)
    1  A    between atoms: C_4  and  N_13
    2  A    between atoms: N_7  and  C_15
    3  A    between atoms: N_7  and  C_16
    4  A    between atoms: C_8  and  N_13
    5  A    between atoms: N_13  and  C_27
    6  A    between atoms: C_16  and  C_30
    7  A    between atoms: C_27  and  C_30
                            x       y       z     vdW  Elec       q    Type
                         _______ _______ _______ _____ _____    ______ ____

>  <TORSDO>
F 7

$$$$
=
 OpenBabel11052417193D

 30 34  0  0  1  0  0  0  0  0999 V2000
  187.5820  177.2830  145.4760 C   0  0  0  0  0  3  0  0  0  0  0  0
  185.6870  178.0450  146.7980 C   0  0  0  0  0  0  0  0  0  0  0  0
  185.5310  178.1760  141.9090 C   0  0  0  0  0  3  0  0  0  0  0  0
  188.2110  177.0470  144.2500 C   0  0  0  0  0  0  0  0  0  0  0  0
  186.1260  177.9160  140.6750 C   0  0  0  0  0  3  0  0  0  0  0  0
  184.3980  178.5810  146.8600 C   0  0  0  0  0  3  0  0  0  0  0  0
  186.3720  177.7450  148.0120 N   0  0  0  0  0  1  0  0  0  0  0  0
  186.2050  177.8890  143.1080 C   0  0  0  0  0  0  0  0  0  0  0  0
  183.7070  178.8920  145.6890 C   0  0  0  0  0  3  0  0  0  0  0  0
  186.2920  177.8150  145.5490 C   0  0  0  0  0  0  0  0  0  0  0  0
  187.5150  177.3390  143.0540 C   0  0  0  0  0  0  0  0  0  0  0  0
  187.4030  177.3580  140.6200 C   0  0  0  0  0  3  0  0  0  0  0  0
  188.0890  177.0680  141.8000 C   0  0  0  0  0  3  0  0  0  0  0  0
  184.3010  178.6660  144.4460 C   0  0  0  0  0  3  0  0  0  0  0  0
  185.5950  178.1270  144.3580 C   0  0  0  0  0  0  0  0  0  0  0  0
  189.5580  176.5170  144.2420 N   0  0  0  0  0  0  0  0  0  0  0  0
  193.1730  176.6370  144.5350 C   0  0  0  0  0  3  0  0  0  0  0  0
  191.8830  177.5390  142.7780 O   0  0  0  0  0  0  0  0  0  0  0  0
  190.6830  177.2420  144.8370 C   0  0  1  0  0  3  0  0  0  0  0  0
  190.9080  176.7950  146.2190 N   0  0  0  0  0  0  0  0  0  0  0  0
  191.9200  177.1530  143.9750 C   0  0  0  0  0  0  0  0  0  0  0  0
  193.2320  176.2600  145.8090 C   0  0  0  0  0  3  0  0  0  0  0  0
  192.0450  176.3550  146.6720 C   0  0  0  0  0  3  0  0  0  0  0  0
  189.8710  175.2770  143.5430 C   0  0  0  0  0  2  0  0  0  0  0  0
  189.8060  174.0990  144.5010 C   0  0  0  0  0  2  0  0  0  0  0  0
  190.8600  173.0760  144.1290 C   0  0  0  0  0  2  0  0  0  0  0  0
  191.9280  173.0950  145.1140 N   0  0  0  0  0  2  0  0  0  0  0  0
  194.3160  172.8570  145.3850 C   0  0  0  0  0  2  0  0  0  0  0  0
  193.1600  172.7990  144.4090 C   0  0  0  0  0  3  0  0  0  0  0  0
  193.7540  171.5200  144.9620 C   0  0  0  0  0  2  0  0  0  0  0  0
  1 10  1  0  0  0  0
  2  6  1  0  0  0  0
  2  7  1  0  0  0  0
  3  8  1  0  0  0  0
  4  1  2  0  0  0  0
  5  3  2  0  0  0  0
  8 15  1  0  0  0  0
  9  6  2  0  0  0  0
 10  2  2  0  0  0  0
 11  8  2  0  0  0  0
 11  4  1  0  0  0  0
 12  5  1  0  0  0  0
 12 13  2  0  0  0  0
 13 11  1  0  0  0  0
 14  9  1  0  0  0  0
 15 14  2  0  0  0  0
 15 10  1  0  0  0  0
 16  4  1  0  0  0  0
 17 22  2  0  0  0  0
 18 21  2  0  0  0  0
 19 16  1  6  0  0  0
 19 20  1  0  0  0  0
 20 23  2  0  0  0  0
 21 17  1  0  0  0  0
 21 19  1  0  0  0  0
 22 23  1  0  0  0  0
 24 16  1  0  0  0  0
 24 25  1  0  0  0  0
 26 25  1  0  0  0  0
 26 27  1  0  0  0  0
 29 30  1  0  0  0  0
 29 27  1  0  0  0  0
 29 28  1  0  0  0  0
 30 28  1  0  0  0  0
M  END
>  <MODEL>
9

>  <REMARK>
 VINA RESULT:      -6.9      1.929      4.252
  Name = 
  7 active torsions:
  status: ('A' for Active; 'I' for Inactive)
    1  A    between atoms: C_4  and  N_13
    2  A    between atoms: N_7  and  C_15
    3  A    between atoms: N_7  and  C_16
    4  A    between atoms: C_8  and  N_13
    5  A    between atoms: N_13  and  C_27
    6  A    between atoms: C_16  and  C_30
    7  A    between atoms: C_27  and  C_30
                            x       y       z     vdW  Elec       q    Type
                         _______ _______ _______ _____ _____    ______ ____

>  <TORSDO>
F 7

$$$$
