=
 OpenBabel11052417393D

 31 34  0  0  1  0  0  0  0  0999 V2000
  184.9900  178.1050  146.2420 C   0  0  0  0  0  0  0  0  0  0  0  0
  187.6260  176.4920  143.9850 C   0  0  2  0  0  3  0  0  0  0  0  0
  187.6910  177.3620  142.7110 C   0  0  2  0  0  3  0  0  0  0  0  0
  185.3640  178.0360  141.9720 C   0  0  0  0  0  2  0  0  0  0  0  0
  186.9550  177.0880  145.2170 C   0  0  0  0  0  0  0  0  0  0  0  0
  185.5640  177.9650  147.5050 C   0  0  0  0  0  3  0  0  0  0  0  0
  186.7030  178.5200  142.5090 C   0  0  0  0  0  2  0  0  0  0  0  0
  189.2040  175.3000  145.5800 C   0  0  1  0  0  3  0  0  0  0  0  0
  183.6490  178.7270  146.0970 C   0  0  0  0  0  1  0  0  0  0  0  0
  188.8250  175.2440  141.8240 C   0  0  0  0  0  2  0  0  0  0  0  0
  185.3160  178.0800  140.4440 C   0  0  0  0  0  2  0  0  0  0  0  0
  188.8270  176.2320  146.7260 C   0  0  0  0  0  2  0  0  0  0  0  0
  189.0780  176.0570  144.2540 C   0  0  1  0  0  3  0  0  0  0  0  0
  185.6750  177.6530  145.1120 C   0  0  0  0  0  3  0  0  0  0  0  0
  186.5730  177.5350  139.7680 C   0  0  0  0  0  2  0  0  0  0  0  0
  187.4980  176.8920  146.5120 C   0  0  0  0  0  0  0  0  0  0  0  0
  186.8120  177.3570  147.6380 C   0  0  0  0  0  3  0  0  0  0  0  0
  189.7230  175.3250  143.0610 C   0  0  0  0  0  2  0  0  0  0  0  0
  188.1730  176.5830  141.4530 C   0  0  1  0  0  3  0  0  0  0  0  0
  187.0690  176.2690  140.4450 C   0  0  0  0  0  2  0  0  0  0  0  0
  190.5990  174.7050  145.8120 C   0  0  0  0  0  2  0  0  0  0  0  0
  191.6680  175.1690  147.9160 O   0  0  0  0  0  1  0  0  0  0  0  0
  191.5320  175.6270  146.6040 C   0  0  1  0  0  3  0  0  0  0  0  0
  193.8430  176.5860  146.8290 C   0  0  0  0  0  1  0  0  0  0  0  0
  192.9090  175.7690  145.9480 C   0  0  2  0  0  3  0  0  0  0  0  0
  192.3590  177.3530  144.2810 O   0  0  0  0  0  0  0  0  0  0  0  0
  192.8510  176.2600  144.5180 C   0  0  0  0  0  0  0  0  0  0  0  0
  193.3750  175.4420  143.3740 C   0  0  0  0  0  2  0  0  0  0  0  0
  194.6360  176.0300  142.8380 C   0  0  0  0  0  0  0  0  0  0  0  0
  194.6990  176.4050  141.6380 O   0  0  0  0  0  0  0  0  0  0  0  0
  195.7630  176.1890  143.6910 N   0  0  0  0  0  1  0  0  0  0  0  0
  1  6  1  0  0  0  0
  2 13  1  0  0  0  0
  2  5  1  1  0  0  0
  3  7  1  6  0  0  0
  3  2  1  0  0  0  0
  4  7  1  0  0  0  0
  5 16  2  0  0  0  0
  6 17  2  0  0  0  0
  8 21  1  1  0  0  0
  8 12  1  0  0  0  0
  9  1  1  0  0  0  0
 10 18  1  0  0  0  0
 11  4  1  0  0  0  0
 13 18  1  6  0  0  0
 13  8  1  0  0  0  0
 14  5  1  0  0  0  0
 14  1  2  0  0  0  0
 15 11  1  0  0  0  0
 15 20  1  0  0  0  0
 16 12  1  0  0  0  0
 16 17  1  0  0  0  0
 19 20  1  6  0  0  0
 19 10  1  0  0  0  0
 19  3  1  0  0  0  0
 21 23  1  0  0  0  0
 23 22  1  1  0  0  0
 25 23  1  0  0  0  0
 25 24  1  1  0  0  0
 26 27  2  0  0  0  0
 27 25  1  0  0  0  0
 28 27  1  0  0  0  0
 29 28  1  0  0  0  0
 29 31  1  0  0  0  0
 30 29  2  0  0  0  0
M  END
>  <MODEL>
1

>  <REMARK>
 VINA RESULT:      -8.2      0.000      0.000
  Name = 
  6 active torsions:
  status: ('A' for Active; 'I' for Inactive)
    1  A    between atoms: C_1  and  C_24
    2  A    between atoms: C_9  and  C_22
    3  A    between atoms: C_9  and  C_23
    4  A    between atoms: C_15  and  C_23
    5  A    between atoms: C_19  and  C_22
    6  A    between atoms: C_19  and  C_24
                            x       y       z     vdW  Elec       q    Type
                         _______ _______ _______ _____ _____    ______ ____

>  <TORSDO>
F 6

$$$$
=
 OpenBabel11052417393D

 31 34  0  0  1  0  0  0  0  0999 V2000
  190.1900  174.1180  141.2260 C   0  0  0  0  0  0  0  0  0  0  0  0
  190.8010  175.5590  144.7170 C   0  0  2  0  0  3  0  0  0  0  0  0
  192.1860  176.2410  144.6640 C   0  0  2  0  0  3  0  0  0  0  0  0
  193.8340  174.8150  143.3740 C   0  0  0  0  0  2  0  0  0  0  0  0
  190.1210  175.2310  143.3940 C   0  0  0  0  0  0  0  0  0  0  0  0
  188.8320  174.3740  141.0390 C   0  0  0  0  0  3  0  0  0  0  0  0
  193.0610  176.1260  143.4080 C   0  0  0  0  0  2  0  0  0  0  0  0
  188.4810  175.9920  145.6560 C   0  0  1  0  0  3  0  0  0  0  0  0
  190.9640  173.4020  140.1800 C   0  0  0  0  0  1  0  0  0  0  0  0
  191.9240  176.0340  147.2030 C   0  0  0  0  0  2  0  0  0  0  0  0
  195.2200  174.9570  144.0030 C   0  0  0  0  0  2  0  0  0  0  0  0
  187.8840  176.1060  144.2580 C   0  0  0  0  0  2  0  0  0  0  0  0
  189.9380  176.4600  145.6200 C   0  0  1  0  0  3  0  0  0  0  0  0
  190.8210  174.5280  142.4020 C   0  0  0  0  0  3  0  0  0  0  0  0
  195.2270  175.7320  145.3200 C   0  0  0  0  0  2  0  0  0  0  0  0
  188.7270  175.4280  143.2210 C   0  0  0  0  0  0  0  0  0  0  0  0
  188.1040  175.0240  142.0350 C   0  0  0  0  0  3  0  0  0  0  0  0
  190.5510  176.6840  147.0170 C   0  0  0  0  0  2  0  0  0  0  0  0
  192.8940  176.3120  146.0470 C   0  0  1  0  0  3  0  0  0  0  0  0
  194.0600  175.3380  146.2090 C   0  0  0  0  0  2  0  0  0  0  0  0
  187.6190  176.7580  146.6680 C   0  0  0  0  0  2  0  0  0  0  0  0
  185.2310  176.5030  146.7880 O   0  0  0  0  0  1  0  0  0  0  0  0
  186.2520  177.1760  146.1150 C   0  0  1  0  0  3  0  0  0  0  0  0
  185.7920  179.1290  147.6270 C   0  0  0  0  0  1  0  0  0  0  0  0
  186.0280  178.6890  146.1890 C   0  0  2  0  0  3  0  0  0  0  0  0
  183.7940  179.0770  145.5180 O   0  0  0  0  0  0  0  0  0  0  0  0
  184.9750  179.1930  145.2270 C   0  0  0  0  0  0  0  0  0  0  0  0
  185.3340  179.8310  143.9160 C   0  0  0  0  0  2  0  0  0  0  0  0
  185.5860  178.7940  142.8760 C   0  0  0  0  0  0  0  0  0  0  0  0
  186.6920  178.7560  142.2770 O   0  0  0  0  0  0  0  0  0  0  0  0
  184.5820  177.8330  142.5740 N   0  0  0  0  0  1  0  0  0  0  0  0
  1 14  1  0  0  0  0
  2  5  1  6  0  0  0
  2 13  1  0  0  0  0
  3  7  1  6  0  0  0
  3  2  1  0  0  0  0
  3 19  1  0  0  0  0
  4  7  1  0  0  0  0
  4 11  1  0  0  0  0
  6  1  2  0  0  0  0
  6 17  1  0  0  0  0
  8 21  1  1  0  0  0
  9  1  1  0  0  0  0
 11 15  1  0  0  0  0
 12  8  1  0  0  0  0
 13  8  1  0  0  0  0
 13 18  1  1  0  0  0
 14  5  2  0  0  0  0
 15 20  1  0  0  0  0
 16  5  1  0  0  0  0
 16 12  1  0  0  0  0
 17 16  2  0  0  0  0
 18 10  1  0  0  0  0
 19 20  1  6  0  0  0
 19 10  1  0  0  0  0
 23 25  1  0  0  0  0
 23 21  1  0  0  0  0
 23 22  1  1  0  0  0
 25 24  1  1  0  0  0
 27 26  2  0  0  0  0
 27 25  1  0  0  0  0
 28 27  1  0  0  0  0
 29 28  1  0  0  0  0
 30 29  2  0  0  0  0
 31 29  1  0  0  0  0
M  END
>  <MODEL>
2

>  <REMARK>
 VINA RESULT:      -8.2      3.321      7.392
  Name = 
  6 active torsions:
  status: ('A' for Active; 'I' for Inactive)
    1  A    between atoms: C_1  and  C_24
    2  A    between atoms: C_9  and  C_22
    3  A    between atoms: C_9  and  C_23
    4  A    between atoms: C_15  and  C_23
    5  A    between atoms: C_19  and  C_22
    6  A    between atoms: C_19  and  C_24
                            x       y       z     vdW  Elec       q    Type
                         _______ _______ _______ _____ _____    ______ ____

>  <TORSDO>
F 6

$$$$
=
 OpenBabel11052417393D

 31 34  0  0  1  0  0  0  0  0999 V2000
  186.0390  177.5260  141.0850 C   0  0  0  0  0  0  0  0  0  0  0  0
  187.7270  176.9540  144.4710 C   0  0  2  0  0  3  0  0  0  0  0  0
  186.5850  176.7940  145.4990 C   0  0  2  0  0  3  0  0  0  0  0  0
  184.7480  178.4800  145.0600 C   0  0  0  0  0  2  0  0  0  0  0  0
  187.3770  176.8130  142.9950 C   0  0  0  0  0  0  0  0  0  0  0  0
  186.8530  176.7890  140.2260 C   0  0  0  0  0  3  0  0  0  0  0  0
  185.1240  177.0060  145.0760 C   0  0  0  0  0  2  0  0  0  0  0  0
  189.9680  175.8970  143.9090 C   0  0  1  0  0  3  0  0  0  0  0  0
  184.8860  178.2910  140.5450 C   0  0  0  0  0  1  0  0  0  0  0  0
  188.5180  177.2940  147.1020 C   0  0  0  0  0  2  0  0  0  0  0  0
  184.1490  178.9280  146.3930 C   0  0  0  0  0  2  0  0  0  0  0  0
  189.4380  175.3650  142.5810 C   0  0  0  0  0  2  0  0  0  0  0  0
  188.8180  175.9630  144.9180 C   0  0  1  0  0  3  0  0  0  0  0  0
  186.3120  177.5500  142.4540 C   0  0  0  0  0  3  0  0  0  0  0  0
  184.9100  178.4200  147.6170 C   0  0  0  0  0  2  0  0  0  0  0  0
  188.2350  176.1210  142.1030 C   0  0  0  0  0  0  0  0  0  0  0  0
  187.9490  176.0920  140.7340 C   0  0  0  0  0  3  0  0  0  0  0  0
  189.2820  176.1880  146.3710 C   0  0  0  0  0  2  0  0  0  0  0  0
  186.9950  177.1910  146.9460 C   0  0  1  0  0  3  0  0  0  0  0  0
  186.4140  178.5210  147.4220 C   0  0  0  0  0  2  0  0  0  0  0  0
  191.1530  175.0500  144.3890 C   0  0  0  0  0  2  0  0  0  0  0  0
  192.3390  177.0710  143.8500 O   0  0  0  0  0  1  0  0  0  0  0  0
  192.5120  175.7250  144.1770 C   0  0  1  0  0  3  0  0  0  0  0  0
  192.7060  176.0230  146.6650 C   0  0  0  0  0  1  0  0  0  0  0  0
  193.4290  175.5910  145.3970 C   0  0  2  0  0  3  0  0  0  0  0  0
  194.9700  177.3560  145.7110 O   0  0  0  0  0  0  0  0  0  0  0  0
  194.7770  176.2560  145.2170 C   0  0  0  0  0  0  0  0  0  0  0  0
  195.8880  175.6070  144.4450 C   0  0  0  0  0  2  0  0  0  0  0  0
  196.2460  176.4200  143.2490 C   0  0  0  0  0  0  0  0  0  0  0  0
  197.2670  177.1560  143.2670 O   0  0  0  0  0  0  0  0  0  0  0  0
  195.4440  176.3470  142.0760 N   0  0  0  0  0  1  0  0  0  0  0  0
  1 14  1  0  0  0  0
  2  5  1  6  0  0  0
  2 13  1  0  0  0  0
  2  3  1  0  0  0  0
  3  7  1  6  0  0  0
  3 19  1  0  0  0  0
  4  7  1  0  0  0  0
  4 11  1  0  0  0  0
  6 17  1  0  0  0  0
  6  1  2  0  0  0  0
  8 21  1  1  0  0  0
  8 13  1  0  0  0  0
  9  1  1  0  0  0  0
 11 15  1  0  0  0  0
 12  8  1  0  0  0  0
 13 18  1  1  0  0  0
 14  5  2  0  0  0  0
 16 12  1  0  0  0  0
 16  5  1  0  0  0  0
 17 16  2  0  0  0  0
 18 10  1  0  0  0  0
 19 10  1  6  0  0  0
 19 20  1  0  0  0  0
 20 15  1  0  0  0  0
 23 22  1  1  0  0  0
 23 21  1  0  0  0  0
 23 25  1  0  0  0  0
 25 24  1  1  0  0  0
 27 25  1  0  0  0  0
 27 26  2  0  0  0  0
 28 27  1  0  0  0  0
 29 30  2  0  0  0  0
 29 28  1  0  0  0  0
 31 29  1  0  0  0  0
M  END
>  <MODEL>
3

>  <REMARK>
 VINA RESULT:      -8.0      1.364      4.232
  Name = 
  6 active torsions:
  status: ('A' for Active; 'I' for Inactive)
    1  A    between atoms: C_1  and  C_24
    2  A    between atoms: C_9  and  C_22
    3  A    between atoms: C_9  and  C_23
    4  A    between atoms: C_15  and  C_23
    5  A    between atoms: C_19  and  C_22
    6  A    between atoms: C_19  and  C_24
                            x       y       z     vdW  Elec       q    Type
                         _______ _______ _______ _____ _____    ______ ____

>  <TORSDO>
F 6

$$$$
=
 OpenBabel11052417393D

 31 34  0  0  1  0  0  0  0  0999 V2000
  184.9700  178.4640  146.3510 C   0  0  0  0  0  0  0  0  0  0  0  0
  187.8260  177.2100  144.1370 C   0  0  2  0  0  3  0  0  0  0  0  0
  187.6850  177.9540  142.7910 C   0  0  2  0  0  3  0  0  0  0  0  0
  185.2540  178.0780  142.0920 C   0  0  0  0  0  2  0  0  0  0  0  0
  187.0760  177.7700  145.3390 C   0  0  0  0  0  0  0  0  0  0  0  0
  185.5870  178.5580  147.5970 C   0  0  0  0  0  3  0  0  0  0  0  0
  186.4780  178.8680  142.5310 C   0  0  0  0  0  2  0  0  0  0  0  0
  189.6490  176.5100  145.7630 C   0  0  1  0  0  3  0  0  0  0  0  0
  183.5270  178.7890  146.2080 C   0  0  0  0  0  1  0  0  0  0  0  0
  189.2050  176.0330  142.0440 C   0  0  0  0  0  2  0  0  0  0  0  0
  185.1640  177.9710  140.5690 C   0  0  0  0  0  2  0  0  0  0  0  0
  189.1160  177.4490  146.8390 C   0  0  0  0  0  2  0  0  0  0  0  0
  189.3420  177.1010  144.3840 C   0  0  1  0  0  3  0  0  0  0  0  0
  185.7060  178.0560  145.2380 C   0  0  0  0  0  3  0  0  0  0  0  0
  186.4900  177.6290  139.8920 C   0  0  0  0  0  2  0  0  0  0  0  0
  187.6770  177.8070  146.6230 C   0  0  0  0  0  0  0  0  0  0  0  0
  186.9350  178.2270  147.7320 C   0  0  0  0  0  3  0  0  0  0  0  0
  190.0960  176.4060  143.2320 C   0  0  0  0  0  2  0  0  0  0  0  0
  188.2870  177.1750  141.5860 C   0  0  1  0  0  3  0  0  0  0  0  0
  187.2480  176.5550  140.6550 C   0  0  0  0  0  2  0  0  0  0  0  0
  191.1390  176.2290  145.9890 C   0  0  0  0  0  2  0  0  0  0  0  0
  190.3020  173.9750  146.0300 O   0  0  0  0  0  1  0  0  0  0  0  0
  191.4680  174.7370  146.1140 C   0  0  1  0  0  3  0  0  0  0  0  0
  192.0210  172.9780  144.4070 C   0  0  0  0  0  1  0  0  0  0  0  0
  192.4820  174.2710  145.0650 C   0  0  2  0  0  3  0  0  0  0  0  0
  194.5640  173.1980  145.3920 O   0  0  0  0  0  0  0  0  0  0  0  0
  193.9030  174.2080  145.5830 C   0  0  0  0  0  0  0  0  0  0  0  0
  194.5300  175.3490  146.3300 C   0  0  0  0  0  2  0  0  0  0  0  0
  194.8260  176.4830  145.4110 C   0  0  0  0  0  0  0  0  0  0  0  0
  195.1590  176.2600  144.2180 O   0  0  0  0  0  0  0  0  0  0  0  0
  194.7120  177.8220  145.8760 N   0  0  0  0  0  1  0  0  0  0  0  0
  1  6  1  0  0  0  0
  2 13  1  0  0  0  0
  2  5  1  1  0  0  0
  3  7  1  6  0  0  0
  3  2  1  0  0  0  0
  4  7  1  0  0  0  0
  5 16  2  0  0  0  0
  6 17  2  0  0  0  0
  8 21  1  1  0  0  0
  8 12  1  0  0  0  0
  9  1  1  0  0  0  0
 10 18  1  0  0  0  0
 11  4  1  0  0  0  0
 13 18  1  6  0  0  0
 13  8  1  0  0  0  0
 14  5  1  0  0  0  0
 14  1  2  0  0  0  0
 15 11  1  0  0  0  0
 15 20  1  0  0  0  0
 16 12  1  0  0  0  0
 16 17  1  0  0  0  0
 19 20  1  1  0  0  0
 19 10  1  0  0  0  0
 19  3  1  0  0  0  0
 21 23  1  0  0  0  0
 23 22  1  6  0  0  0
 25 24  1  1  0  0  0
 25 27  1  0  0  0  0
 25 23  1  0  0  0  0
 26 27  2  0  0  0  0
 27 28  1  0  0  0  0
 29 31  1  0  0  0  0
 29 28  1  0  0  0  0
 30 29  2  0  0  0  0
M  END
>  <MODEL>
4

>  <REMARK>
 VINA RESULT:      -7.8      1.533      1.878
  Name = 
  6 active torsions:
  status: ('A' for Active; 'I' for Inactive)
    1  A    between atoms: C_1  and  C_24
    2  A    between atoms: C_9  and  C_22
    3  A    between atoms: C_9  and  C_23
    4  A    between atoms: C_15  and  C_23
    5  A    between atoms: C_19  and  C_22
    6  A    between atoms: C_19  and  C_24
                            x       y       z     vdW  Elec       q    Type
                         _______ _______ _______ _____ _____    ______ ____

>  <TORSDO>
F 6

$$$$
=
 OpenBabel11052417393D

 31 34  0  0  1  0  0  0  0  0999 V2000
  185.0530  178.3890  146.5760 C   0  0  0  0  0  0  0  0  0  0  0  0
  187.8620  177.3180  144.2090 C   0  0  2  0  0  3  0  0  0  0  0  0
  187.6090  178.0600  142.8780 C   0  0  2  0  0  3  0  0  0  0  0  0
  185.1420  178.0450  142.3040 C   0  0  0  0  0  2  0  0  0  0  0  0
  187.1420  177.8260  145.4520 C   0  0  0  0  0  0  0  0  0  0  0  0
  185.7270  178.5120  147.7900 C   0  0  0  0  0  3  0  0  0  0  0  0
  186.3390  178.9030  142.6880 C   0  0  0  0  0  2  0  0  0  0  0  0
  189.8020  176.7160  145.7350 C   0  0  1  0  0  3  0  0  0  0  0  0
  183.5890  178.6300  146.5080 C   0  0  0  0  0  1  0  0  0  0  0  0
  189.1980  176.2360  142.0390 C   0  0  0  0  0  2  0  0  0  0  0  0
  184.9810  177.9420  140.7870 C   0  0  0  0  0  2  0  0  0  0  0  0
  189.2710  177.6160  146.8450 C   0  0  0  0  0  2  0  0  0  0  0  0
  189.3920  177.2960  144.3780 C   0  0  1  0  0  3  0  0  0  0  0  0
  185.7540  178.0310  145.4230 C   0  0  0  0  0  3  0  0  0  0  0  0
  186.2890  177.6820  140.0410 C   0  0  0  0  0  2  0  0  0  0  0  0
  187.8040  177.8900  146.7050 C   0  0  0  0  0  0  0  0  0  0  0  0
  187.0970  178.2600  147.8530 C   0  0  0  0  0  3  0  0  0  0  0  0
  190.1250  176.6530  143.1840 C   0  0  0  0  0  2  0  0  0  0  0  0
  188.1930  177.3240  141.6380 C   0  0  1  0  0  3  0  0  0  0  0  0
  187.1460  176.6500  140.7550 C   0  0  0  0  0  2  0  0  0  0  0  0
  191.3160  176.5220  145.8830 C   0  0  0  0  0  2  0  0  0  0  0  0
  190.9980  174.1680  145.5060 O   0  0  0  0  0  1  0  0  0  0  0  0
  191.7140  175.0930  146.2680 C   0  0  1  0  0  3  0  0  0  0  0  0
  194.0090  176.0850  146.5140 C   0  0  0  0  0  1  0  0  0  0  0  0
  193.2190  174.8450  146.1230 C   0  0  2  0  0  3  0  0  0  0  0  0
  193.8750  173.0910  144.6790 O   0  0  0  0  0  0  0  0  0  0  0  0
  193.6130  174.2810  144.7750 C   0  0  0  0  0  0  0  0  0  0  0  0
  193.6970  175.1390  143.5470 C   0  0  0  0  0  2  0  0  0  0  0  0
  195.0850  175.1490  143.0040 C   0  0  0  0  0  0  0  0  0  0  0  0
  196.0460  175.5180  143.7290 O   0  0  0  0  0  0  0  0  0  0  0  0
  195.3280  174.7200  141.6700 N   0  0  0  0  0  1  0  0  0  0  0  0
  1  6  1  0  0  0  0
  2 13  1  0  0  0  0
  2  5  1  1  0  0  0
  3  7  1  6  0  0  0
  3  2  1  0  0  0  0
  4  7  1  0  0  0  0
  5 16  2  0  0  0  0
  6 17  2  0  0  0  0
  8 21  1  6  0  0  0
  8 12  1  0  0  0  0
  9  1  1  0  0  0  0
 10 18  1  0  0  0  0
 11  4  1  0  0  0  0
 13 18  1  6  0  0  0
 13  8  1  0  0  0  0
 14  5  1  0  0  0  0
 14  1  2  0  0  0  0
 15 20  1  0  0  0  0
 15 11  1  0  0  0  0
 16 12  1  0  0  0  0
 16 17  1  0  0  0  0
 19 20  1  1  0  0  0
 19 10  1  0  0  0  0
 19  3  1  0  0  0  0
 21 23  1  0  0  0  0
 23 22  1  6  0  0  0
 25 23  1  0  0  0  0
 25 24  1  6  0  0  0
 26 27  2  0  0  0  0
 27 25  1  0  0  0  0
 28 27  1  0  0  0  0
 29 28  1  0  0  0  0
 29 30  2  0  0  0  0
 31 29  1  0  0  0  0
M  END
>  <MODEL>
5

>  <REMARK>
 VINA RESULT:      -7.6      1.436      1.489
  Name = 
  6 active torsions:
  status: ('A' for Active; 'I' for Inactive)
    1  A    between atoms: C_1  and  C_24
    2  A    between atoms: C_9  and  C_22
    3  A    between atoms: C_9  and  C_23
    4  A    between atoms: C_15  and  C_23
    5  A    between atoms: C_19  and  C_22
    6  A    between atoms: C_19  and  C_24
                            x       y       z     vdW  Elec       q    Type
                         _______ _______ _______ _____ _____    ______ ____

>  <TORSDO>
F 6

$$$$
=
 OpenBabel11052417393D

 31 34  0  0  1  0  0  0  0  0999 V2000
  189.9590  172.0380  141.6730 C   0  0  0  0  0  0  0  0  0  0  0  0
  190.0910  175.4680  143.3640 C   0  0  2  0  0  3  0  0  0  0  0  0
  191.5590  175.6800  143.7920 C   0  0  2  0  0  3  0  0  0  0  0  0
  192.5230  173.5470  144.7590 C   0  0  0  0  0  2  0  0  0  0  0  0
  189.8010  174.3780  142.3390 C   0  0  0  0  0  0  0  0  0  0  0  0
  189.0800  172.2690  140.6160 C   0  0  0  0  0  3  0  0  0  0  0  0
  192.5900  174.5540  143.6200 C   0  0  0  0  0  2  0  0  0  0  0  0
  188.1860  176.7820  142.3150 C   0  0  1  0  0  3  0  0  0  0  0  0
  190.5270  170.6830  141.8880 C   0  0  0  0  0  1  0  0  0  0  0  0
  190.4390  177.4440  145.2720 C   0  0  0  0  0  2  0  0  0  0  0  0
  193.4940  173.9010  145.8860 C   0  0  0  0  0  2  0  0  0  0  0  0
  188.2170  175.9180  141.0600 C   0  0  0  0  0  2  0  0  0  0  0  0
  189.5950  176.8540  142.9110 C   0  0  1  0  0  3  0  0  0  0  0  0
  190.3000  173.0810  142.5350 C   0  0  0  0  0  3  0  0  0  0  0  0
  193.4890  175.3810  146.2670 C   0  0  0  0  0  2  0  0  0  0  0  0
  188.8580  174.5840  141.3000 C   0  0  0  0  0  0  0  0  0  0  0  0
  188.5290  173.5370  140.4330 C   0  0  0  0  0  3  0  0  0  0  0  0
  189.7540  177.9380  143.9950 C   0  0  0  0  0  2  0  0  0  0  0  0
  191.7180  176.6390  145.0060 C   0  0  1  0  0  3  0  0  0  0  0  0
  192.0780  175.9420  146.3160 C   0  0  0  0  0  2  0  0  0  0  0  0
  187.5860  178.1580  142.0020 C   0  0  0  0  0  2  0  0  0  0  0  0
  185.2550  177.5690  141.9330 O   0  0  0  0  0  1  0  0  0  0  0  0
  186.1890  178.3650  142.5970 C   0  0  1  0  0  3  0  0  0  0  0  0
  185.6170  176.6850  144.3760 C   0  0  0  0  0  1  0  0  0  0  0  0
  186.1470  178.0850  144.1030 C   0  0  2  0  0  3  0  0  0  0  0  0
  185.4710  180.3150  144.5020 O   0  0  0  0  0  0  0  0  0  0  0  0
  185.4410  179.1610  144.8990 C   0  0  0  0  0  0  0  0  0  0  0  0
  184.7030  178.8550  146.1710 C   0  0  0  0  0  2  0  0  0  0  0  0
  185.6440  178.7950  147.3260 C   0  0  0  0  0  0  0  0  0  0  0  0
  186.0780  179.8570  147.8430 O   0  0  0  0  0  0  0  0  0  0  0  0
  186.0340  177.5360  147.8580 N   0  0  0  0  0  1  0  0  0  0  0  0
  1  9  1  0  0  0  0
  1 14  1  0  0  0  0
  2  5  1  6  0  0  0
  2  3  1  0  0  0  0
  3  7  1  1  0  0  0
  3 19  1  0  0  0  0
  4 11  1  0  0  0  0
  5 14  2  0  0  0  0
  6  1  2  0  0  0  0
  7  4  1  0  0  0  0
  8 21  1  6  0  0  0
  8 13  1  0  0  0  0
 11 15  1  0  0  0  0
 12 16  1  0  0  0  0
 12  8  1  0  0  0  0
 13  2  1  0  0  0  0
 13 18  1  1  0  0  0
 15 20  1  0  0  0  0
 16  5  1  0  0  0  0
 17  6  1  0  0  0  0
 17 16  2  0  0  0  0
 18 10  1  0  0  0  0
 19 10  1  1  0  0  0
 19 20  1  0  0  0  0
 21 23  1  0  0  0  0
 23 22  1  6  0  0  0
 23 25  1  0  0  0  0
 25 24  1  6  0  0  0
 25 27  1  0  0  0  0
 26 27  2  0  0  0  0
 27 28  1  0  0  0  0
 28 29  1  0  0  0  0
 29 30  2  0  0  0  0
 29 31  1  0  0  0  0
M  END
>  <MODEL>
6

>  <REMARK>
 VINA RESULT:      -7.5      3.517      7.763
  Name = 
  6 active torsions:
  status: ('A' for Active; 'I' for Inactive)
    1  A    between atoms: C_1  and  C_24
    2  A    between atoms: C_9  and  C_22
    3  A    between atoms: C_9  and  C_23
    4  A    between atoms: C_15  and  C_23
    5  A    between atoms: C_19  and  C_22
    6  A    between atoms: C_19  and  C_24
                            x       y       z     vdW  Elec       q    Type
                         _______ _______ _______ _____ _____    ______ ____

>  <TORSDO>
F 6

$$$$
=
 OpenBabel11052417393D

 31 34  0  0  1  0  0  0  0  0999 V2000
  185.4890  177.9670  141.5730 C   0  0  0  0  0  0  0  0  0  0  0  0
  187.9190  177.7400  144.5200 C   0  0  2  0  0  3  0  0  0  0  0  0
  187.1250  177.1070  145.6840 C   0  0  2  0  0  3  0  0  0  0  0  0
  184.7880  178.0780  145.8010 C   0  0  0  0  0  2  0  0  0  0  0  0
  187.3430  177.6090  143.1150 C   0  0  0  0  0  0  0  0  0  0  0  0
  186.3080  177.6350  140.4950 C   0  0  0  0  0  3  0  0  0  0  0  0
  185.6210  176.8310  145.5390 C   0  0  0  0  0  2  0  0  0  0  0  0
  190.2190  177.5810  143.4540 C   0  0  1  0  0  3  0  0  0  0  0  0
  184.0660  178.3250  141.3460 C   0  0  0  0  0  1  0  0  0  0  0  0
  189.0700  178.1150  147.0100 C   0  0  0  0  0  2  0  0  0  0  0  0
  184.3590  178.1770  147.2650 C   0  0  0  0  0  2  0  0  0  0  0  0
  189.6360  177.0110  142.1660 C   0  0  0  0  0  2  0  0  0  0  0  0
  189.3400  177.1580  144.6340 C   0  0  1  0  0  3  0  0  0  0  0  0
  186.0100  177.9710  142.8680 C   0  0  0  0  0  3  0  0  0  0  0  0
  185.4750  177.8660  148.2610 C   0  0  0  0  0  2  0  0  0  0  0  0
  188.1820  177.3370  142.0050 C   0  0  0  0  0  0  0  0  0  0  0  0
  187.6500  177.3240  140.7110 C   0  0  0  0  0  3  0  0  0  0  0  0
  189.9890  177.4090  146.0100 C   0  0  0  0  0  2  0  0  0  0  0  0
  187.6660  177.5010  147.0890 C   0  0  1  0  0  3  0  0  0  0  0  0
  186.7910  178.5000  147.8430 C   0  0  0  0  0  2  0  0  0  0  0  0
  191.6870  177.1630  143.6060 C   0  0  0  0  0  2  0  0  0  0  0  0
  193.2340  175.8030  142.3650 O   0  0  0  0  0  1  0  0  0  0  0  0
  191.9960  175.7860  143.0080 C   0  0  1  0  0  3  0  0  0  0  0  0
  193.2700  173.8980  144.0680 C   0  0  0  0  0  1  0  0  0  0  0  0
  191.9590  174.6710  144.0570 C   0  0  2  0  0  3  0  0  0  0  0  0
  190.2940  173.2580  144.9640 O   0  0  0  0  0  0  0  0  0  0  0  0
  190.7390  173.7820  143.9540 C   0  0  0  0  0  0  0  0  0  0  0  0
  190.0560  173.5170  142.6440 C   0  0  0  0  0  2  0  0  0  0  0  0
  190.6230  172.3050  141.9870 C   0  0  0  0  0  0  0  0  0  0  0  0
  191.5340  172.4200  141.1260 O   0  0  0  0  0  0  0  0  0  0  0  0
  190.1510  171.0140  142.3510 N   0  0  0  0  0  1  0  0  0  0  0  0
  1 14  1  0  0  0  0
  2  5  1  6  0  0  0
  2 13  1  0  0  0  0
  2  3  1  0  0  0  0
  3  7  1  1  0  0  0
  3 19  1  0  0  0  0
  4 11  1  0  0  0  0
  6 17  1  0  0  0  0
  6  1  2  0  0  0  0
  7  4  1  0  0  0  0
  8 21  1  1  0  0  0
  8 13  1  0  0  0  0
  9  1  1  0  0  0  0
 11 15  1  0  0  0  0
 12  8  1  0  0  0  0
 13 18  1  1  0  0  0
 14  5  2  0  0  0  0
 16 12  1  0  0  0  0
 16  5  1  0  0  0  0
 17 16  2  0  0  0  0
 18 10  1  0  0  0  0
 19 10  1  6  0  0  0
 19 20  1  0  0  0  0
 20 15  1  0  0  0  0
 23 22  1  1  0  0  0
 23 21  1  0  0  0  0
 23 25  1  0  0  0  0
 25 24  1  6  0  0  0
 27 25  1  0  0  0  0
 27 26  2  0  0  0  0
 28 27  1  0  0  0  0
 29 31  1  0  0  0  0
 29 28  1  0  0  0  0
 30 29  2  0  0  0  0
M  END
>  <MODEL>
7

>  <REMARK>
 VINA RESULT:      -7.4      2.290      4.933
  Name = 
  6 active torsions:
  status: ('A' for Active; 'I' for Inactive)
    1  A    between atoms: C_1  and  C_24
    2  A    between atoms: C_9  and  C_22
    3  A    between atoms: C_9  and  C_23
    4  A    between atoms: C_15  and  C_23
    5  A    between atoms: C_19  and  C_22
    6  A    between atoms: C_19  and  C_24
                            x       y       z     vdW  Elec       q    Type
                         _______ _______ _______ _____ _____    ______ ____

>  <TORSDO>
F 6

$$$$
=
 OpenBabel11052417393D

 31 34  0  0  1  0  0  0  0  0999 V2000
  185.3850  178.1920  146.8760 C   0  0  0  0  0  0  0  0  0  0  0  0
  187.6330  177.4060  143.8820 C   0  0  2  0  0  3  0  0  0  0  0  0
  187.1230  178.2850  142.7180 C   0  0  2  0  0  3  0  0  0  0  0  0
  184.5910  178.3100  142.6650 C   0  0  0  0  0  2  0  0  0  0  0  0
  187.1900  177.7720  145.2930 C   0  0  0  0  0  0  0  0  0  0  0  0
  186.2950  178.1900  147.9310 C   0  0  0  0  0  3  0  0  0  0  0  0
  185.8520  179.1320  142.8840 C   0  0  0  0  0  2  0  0  0  0  0  0
  189.8370  176.6620  144.9020 C   0  0  1  0  0  3  0  0  0  0  0  0
  183.9410  178.4260  147.1370 C   0  0  0  0  0  1  0  0  0  0  0  0
  188.4810  176.5760  141.3800 C   0  0  0  0  0  2  0  0  0  0  0  0
  184.1200  178.3690  141.2110 C   0  0  0  0  0  2  0  0  0  0  0  0
  189.5570  177.4330  146.1880 C   0  0  0  0  0  2  0  0  0  0  0  0
  189.1650  177.3800  143.7290 C   0  0  1  0  0  3  0  0  0  0  0  0
  185.8290  177.9660  145.5720 C   0  0  0  0  0  3  0  0  0  0  0  0
  185.2430  178.2020  140.1890 C   0  0  0  0  0  2  0  0  0  0  0  0
  188.0970  177.7070  146.3820 C   0  0  0  0  0  0  0  0  0  0  0  0
  187.6450  177.9450  147.6850 C   0  0  0  0  0  3  0  0  0  0  0  0
  189.6290  176.8760  142.3480 C   0  0  0  0  0  2  0  0  0  0  0  0
  187.4300  177.6920  141.3130 C   0  0  1  0  0  3  0  0  0  0  0  0
  186.2150  177.1070  140.5970 C   0  0  0  0  0  2  0  0  0  0  0  0
  191.3470  176.4660  144.7150 C   0  0  0  0  0  2  0  0  0  0  0  0
  192.2740  174.4790  143.7280 O   0  0  0  0  0  1  0  0  0  0  0  0
  191.8070  175.0200  144.9270 C   0  0  1  0  0  3  0  0  0  0  0  0
  192.2710  175.1040  147.3950 C   0  0  0  0  0  1  0  0  0  0  0  0
  192.8780  174.8990  146.0140 C   0  0  2  0  0  3  0  0  0  0  0  0
  194.1490  176.8800  146.2450 O   0  0  0  0  0  0  0  0  0  0  0  0
  194.0980  175.7590  145.7610 C   0  0  0  0  0  0  0  0  0  0  0  0
  195.2500  175.2810  144.9270 C   0  0  0  0  0  2  0  0  0  0  0  0
  195.4740  176.1870  143.7660 C   0  0  0  0  0  0  0  0  0  0  0  0
  194.6380  176.2290  142.8260 O   0  0  0  0  0  0  0  0  0  0  0  0
  196.6250  177.0220  143.7290 N   0  0  0  0  0  1  0  0  0  0  0  0
  1  9  1  0  0  0  0
  1  6  1  0  0  0  0
  2  5  1  1  0  0  0
  3  7  1  1  0  0  0
  3  2  1  0  0  0  0
  4  7  1  0  0  0  0
  5 14  1  0  0  0  0
  5 16  2  0  0  0  0
  8 21  1  6  0  0  0
  8 12  1  0  0  0  0
 10 18  1  0  0  0  0
 11  4  1  0  0  0  0
 12 16  1  0  0  0  0
 13 18  1  6  0  0  0
 13  2  1  0  0  0  0
 13  8  1  0  0  0  0
 14  1  2  0  0  0  0
 15 20  1  0  0  0  0
 15 11  1  0  0  0  0
 16 17  1  0  0  0  0
 17  6  2  0  0  0  0
 19 20  1  1  0  0  0
 19 10  1  0  0  0  0
 19  3  1  0  0  0  0
 21 23  1  0  0  0  0
 23 22  1  6  0  0  0
 23 25  1  0  0  0  0
 25 24  1  1  0  0  0
 27 25  1  0  0  0  0
 27 26  2  0  0  0  0
 28 27  1  0  0  0  0
 29 28  1  0  0  0  0
 30 29  2  0  0  0  0
 31 29  1  0  0  0  0
M  END
>  <MODEL>
8

>  <REMARK>
 VINA RESULT:      -7.3      1.393      1.637
  Name = 
  6 active torsions:
  status: ('A' for Active; 'I' for Inactive)
    1  A    between atoms: C_1  and  C_24
    2  A    between atoms: C_9  and  C_22
    3  A    between atoms: C_9  and  C_23
    4  A    between atoms: C_15  and  C_23
    5  A    between atoms: C_19  and  C_22
    6  A    between atoms: C_19  and  C_24
                            x       y       z     vdW  Elec       q    Type
                         _______ _______ _______ _____ _____    ______ ____

>  <TORSDO>
F 6

$$$$
=
 OpenBabel11052417393D

 31 34  0  0  1  0  0  0  0  0999 V2000
  187.0470  176.9880  140.5410 C   0  0  0  0  0  0  0  0  0  0  0  0
  188.7260  174.7960  143.1890 C   0  0  2  0  0  3  0  0  0  0  0  0
  189.8880  174.0710  142.4740 C   0  0  2  0  0  3  0  0  0  0  0  0
  189.1660  173.2790  140.1790 C   0  0  0  0  0  2  0  0  0  0  0  0
  188.1180  176.0120  142.5010 C   0  0  0  0  0  0  0  0  0  0  0  0
  186.7540  178.1440  141.2630 C   0  0  0  0  0  3  0  0  0  0  0  0
  190.0780  174.2170  140.9570 C   0  0  0  0  0  2  0  0  0  0  0  0
  188.2610  175.9690  145.3930 C   0  0  1  0  0  3  0  0  0  0  0  0
  186.6520  176.8810  139.1130 C   0  0  0  0  0  1  0  0  0  0  0  0
  189.6790  172.5760  144.5420 C   0  0  0  0  0  2  0  0  0  0  0  0
  189.8530  171.9490  139.8690 C   0  0  0  0  0  2  0  0  0  0  0  0
  188.0900  177.3140  144.6960 C   0  0  0  0  0  2  0  0  0  0  0  0
  189.2540  175.1150  144.6000 C   0  0  1  0  0  3  0  0  0  0  0  0
  187.7070  175.9270  141.1620 C   0  0  0  0  0  3  0  0  0  0  0  0
  190.6140  171.3530  141.0520 C   0  0  0  0  0  2  0  0  0  0  0  0
  187.7570  177.1650  143.2420 C   0  0  0  0  0  0  0  0  0  0  0  0
  187.1050  178.2290  142.6100 C   0  0  0  0  0  3  0  0  0  0  0  0
  189.7420  173.8670  145.3610 C   0  0  0  0  0  2  0  0  0  0  0  0
  190.2720  172.7160  143.1330 C   0  0  1  0  0  3  0  0  0  0  0  0
  189.8290  171.4840  142.3460 C   0  0  0  0  0  2  0  0  0  0  0  0
  188.6680  176.1750  146.8580 C   0  0  0  0  0  2  0  0  0  0  0  0
  189.3440  178.2150  147.9370 O   0  0  0  0  0  1  0  0  0  0  0  0
  189.7660  177.2280  147.0450 C   0  0  1  0  0  3  0  0  0  0  0  0
  191.6600  177.4080  148.6860 C   0  0  0  0  0  1  0  0  0  0  0  0
  191.0880  176.6170  147.5180 C   0  0  2  0  0  3  0  0  0  0  0  0
  191.9280  176.9660  145.3360 O   0  0  0  0  0  0  0  0  0  0  0  0
  192.0840  176.3900  146.4020 C   0  0  0  0  0  0  0  0  0  0  0  0
  193.2620  175.4730  146.5590 C   0  0  0  0  0  2  0  0  0  0  0  0
  194.5250  176.1640  146.1750 C   0  0  0  0  0  0  0  0  0  0  0  0
  194.7200  177.3600  146.5140 O   0  0  0  0  0  0  0  0  0  0  0  0
  195.5220  175.4630  145.4420 N   0  0  0  0  0  1  0  0  0  0  0  0
  1 14  2  0  0  0  0
  1  6  1  0  0  0  0
  2  5  1  6  0  0  0
  2 13  1  0  0  0  0
  3  7  1  6  0  0  0
  3 19  1  0  0  0  0
  3  2  1  0  0  0  0
  4  7  1  0  0  0  0
  5 16  2  0  0  0  0
  6 17  2  0  0  0  0
  8 21  1  1  0  0  0
  9  1  1  0  0  0  0
 10 18  1  0  0  0  0
 11  4  1  0  0  0  0
 11 15  1  0  0  0  0
 12  8  1  0  0  0  0
 13 18  1  1  0  0  0
 13  8  1  0  0  0  0
 14  5  1  0  0  0  0
 15 20  1  0  0  0  0
 16 12  1  0  0  0  0
 17 16  1  0  0  0  0
 19 20  1  6  0  0  0
 19 10  1  0  0  0  0
 21 23  1  0  0  0  0
 23 25  1  0  0  0  0
 23 22  1  1  0  0  0
 25 24  1  1  0  0  0
 26 27  2  0  0  0  0
 27 28  1  0  0  0  0
 27 25  1  0  0  0  0
 29 30  2  0  0  0  0
 29 28  1  0  0  0  0
 31 29  1  0  0  0  0
M  END
>  <MODEL>
9

>  <REMARK>
 VINA RESULT:      -7.2      2.159      4.408
  Name = 
  6 active torsions:
  status: ('A' for Active; 'I' for Inactive)
    1  A    between atoms: C_1  and  C_24
    2  A    between atoms: C_9  and  C_22
    3  A    between atoms: C_9  and  C_23
    4  A    between atoms: C_15  and  C_23
    5  A    between atoms: C_19  and  C_22
    6  A    between atoms: C_19  and  C_24
                            x       y       z     vdW  Elec       q    Type
                         _______ _______ _______ _____ _____    ______ ____

>  <TORSDO>
F 6

$$$$
