=
 OpenBabel11052418533D

 34 38  0  0  1  0  0  0  0  0999 V2000
  185.9800  178.8500  144.0330 C   0  0  0  0  0  0  0  0  0  0  0  0
  186.7660  177.9210  145.9600 C   0  0  2  0  0  3  0  0  0  0  0  0
  187.8730  177.3670  143.8720 C   0  0  0  0  0  0  0  0  0  0  0  0
  189.2100  175.2020  144.0050 C   0  0  1  0  0  3  0  0  0  0  0  0
  185.5840  178.5130  146.1480 C   0  0  2  0  0  3  0  0  0  0  0  0
  184.7600  178.3760  147.3810 C   0  0  0  0  0  1  0  0  0  0  0  0
  188.7630  176.4270  146.0590 C   0  0  1  0  0  3  0  0  0  0  0  0
  187.0600  178.1170  144.5810 C   0  0  0  0  0  0  0  0  0  0  0  0
  189.7140  174.3700  145.1760 C   0  0  0  0  0  2  0  0  0  0  0  0
  185.0720  179.0870  144.9250 N   0  0  0  0  0  0  0  0  0  0  0  0
  186.6310  178.2940  141.8330 C   0  0  0  0  0  3  0  0  0  0  0  0
  185.7970  178.9270  142.6210 N   0  0  0  0  0  0  0  0  0  0  0  0
  187.4260  176.8220  146.7390 C   0  0  0  0  0  2  0  0  0  0  0  0
  189.1650  175.0190  146.4470 C   0  0  1  0  0  3  0  0  0  0  0  0
  188.6830  176.4180  144.5920 N   0  0  0  0  0  0  0  0  0  0  0  0
  187.7960  177.4420  142.3560 C   0  0  0  0  0  2  0  0  0  0  0  0
  190.2260  175.0580  147.5360 C   0  0  0  0  0  2  0  0  0  0  0  0
  191.2900  176.1030  147.2340 C   0  0  0  0  0  2  0  0  0  0  0  0
  192.5630  175.4400  146.7470 C   0  0  0  0  0  2  0  0  0  0  0  0
  193.6660  176.4770  146.6490 C   0  0  0  0  0  2  0  0  0  0  0  0
  193.9790  176.7860  145.1940 C   0  0  0  0  0  2  0  0  0  0  0  0
  195.2960  176.1970  144.7940 C   0  0  0  0  0  0  0  0  0  0  0  0
  195.7530  175.2200  145.4430 O   0  0  0  0  0  0  0  0  0  0  0  0
  197.2100  176.0860  143.2420 C   0  0  0  0  0  1  0  0  0  0  0  0
  196.0430  176.7230  143.7370 O   0  0  0  0  0  0  0  0  0  0  0  0
  190.3650  175.5290  143.0670 C   0  0  0  0  0  2  0  0  0  0  0  0
  190.4950  174.4820  141.9720 C   0  0  0  0  0  2  0  0  0  0  0  0
  191.9120  173.9370  141.9210 C   0  0  2  0  0  3  0  0  0  0  0  0
  192.5920  174.1920  143.2510 C   0  0  2  0  0  3  0  0  0  0  0  0
  192.8980  175.0820  142.0380 C   0  0  1  0  0  3  0  0  0  0  0  0
  193.5970  173.1120  143.5130 C   0  0  0  0  0  3  0  0  0  0  0  0
  193.6070  172.4810  144.6840 C   0  0  0  0  0  2  0  0  0  0  0  0
  194.1710  174.7310  141.2760 C   0  0  0  0  0  2  0  0  0  0  0  0
  194.5390  175.8040  140.4680 O   0  0  0  0  0  1  0  0  0  0  0  0
  1  8  1  0  0  0  0
  1 10  2  0  0  0  0
  2  5  1  0  0  0  0
  2 13  1  6  0  0  0
  3  8  2  0  0  0  0
  3 15  1  0  0  0  0
  4 26  1  6  0  0  0
  4 15  1  0  0  0  0
  4  9  1  0  0  0  0
  5  6  1  6  0  0  0
  7 14  1  0  0  0  0
  7 13  1  1  0  0  0
  8  2  1  0  0  0  0
  9 14  1  0  0  0  0
 10  5  1  0  0  0  0
 11 16  1  0  0  0  0
 11 12  2  0  0  0  0
 12  1  1  0  0  0  0
 14 17  1  1  0  0  0
 15  7  1  0  0  0  0
 16  3  1  0  0  0  0
 18 17  1  0  0  0  0
 19 18  1  0  0  0  0
 20 19  1  0  0  0  0
 21 20  1  0  0  0  0
 22 21  1  0  0  0  0
 22 23  2  0  0  0  0
 24 25  1  0  0  0  0
 25 22  1  0  0  0  0
 27 26  1  0  0  0  0
 28 27  1  1  0  0  0
 28 30  1  0  0  0  0
 28 29  1  0  0  0  0
 29 31  1  6  0  0  0
 30 33  1  6  0  0  0
 30 29  1  0  0  0  0
 31 32  2  0  0  0  0
 34 33  1  0  0  0  0
M  END
>  <MODEL>
1

>  <REMARK>
 VINA RESULT:      -6.9      0.000      0.000
  Name = 
  12 active torsions:
  status: ('A' for Active; 'I' for Inactive)
    1  A    between atoms: C_3  and  C_13
    2  A    between atoms: C_3  and  C_17
    3  A    between atoms: C_5  and  C_26
    4  A    between atoms: C_7  and  C_16
    5  A    between atoms: C_12  and  C_28
    6  A    between atoms: C_13  and  C_33
    7  A    between atoms: O_14  and  C_20
    8  A    between atoms: C_17  and  C_29
    9  A    between atoms: C_20  and  C_34
   10  A    between atoms: C_23  and  C_27
   11  A    between atoms: C_26  and  C_28
   12  A    between atoms: C_33  and  C_34
                            x       y       z     vdW  Elec       q    Type
                         _______ _______ _______ _____ _____    ______ ____

>  <TORSDO>
F 12

$$$$
=
 OpenBabel11052418533D

 34 38  0  0  1  0  0  0  0  0999 V2000
  186.2030  178.1850  143.6280 C   0  0  0  0  0  0  0  0  0  0  0  0
  187.3250  177.8060  145.5750 C   0  0  2  0  0  3  0  0  0  0  0  0
  187.8510  176.4270  143.6480 C   0  0  0  0  0  0  0  0  0  0  0  0
  188.9640  174.2230  144.2830 C   0  0  1  0  0  3  0  0  0  0  0  0
  186.2840  178.6210  145.7600 C   0  0  2  0  0  3  0  0  0  0  0  0
  185.7630  179.0330  147.0930 C   0  0  0  0  0  1  0  0  0  0  0  0
  189.1330  176.1030  145.8180 C   0  0  1  0  0  3  0  0  0  0  0  0
  187.3050  177.4930  144.1860 C   0  0  0  0  0  0  0  0  0  0  0  0
  189.6450  173.7400  145.5550 C   0  0  0  0  0  2  0  0  0  0  0  0
  185.5570  178.8500  144.5320 N   0  0  0  0  0  0  0  0  0  0  0  0
  186.2610  176.8460  141.6840 C   0  0  0  0  0  3  0  0  0  0  0  0
  185.7020  177.8320  142.3400 N   0  0  0  0  0  0  0  0  0  0  0  0
  188.0390  176.9210  146.5520 C   0  0  0  0  0  2  0  0  0  0  0  0
  189.4760  174.8480  146.5950 C   0  0  1  0  0  3  0  0  0  0  0  0
  188.7110  175.6350  144.4910 N   0  0  0  0  0  0  0  0  0  0  0  0
  187.4280  176.0210  142.2450 C   0  0  0  0  0  2  0  0  0  0  0  0
  190.7620  175.0530  147.3810 C   0  0  0  0  0  2  0  0  0  0  0  0
  191.8860  175.5510  146.4840 C   0  0  0  0  0  2  0  0  0  0  0  0
  192.7510  176.5530  147.2220 C   0  0  0  0  0  2  0  0  0  0  0  0
  194.0740  176.7080  146.4970 C   0  0  0  0  0  2  0  0  0  0  0  0
  194.5800  175.3570  146.0180 C   0  0  0  0  0  2  0  0  0  0  0  0
  195.6910  175.5240  145.0280 C   0  0  0  0  0  0  0  0  0  0  0  0
  196.6060  174.6600  144.9810 O   0  0  0  0  0  0  0  0  0  0  0  0
  196.8570  176.8630  143.3140 C   0  0  0  0  0  1  0  0  0  0  0  0
  195.7530  176.6290  144.1750 O   0  0  0  0  0  0  0  0  0  0  0  0
  189.8930  174.0260  143.0920 C   0  0  0  0  0  2  0  0  0  0  0  0
  191.2850  173.6180  143.5450 C   0  0  0  0  0  2  0  0  0  0  0  0
  192.2800  174.7350  143.2800 C   0  0  2  0  0  3  0  0  0  0  0  0
  191.5570  175.9080  142.6500 C   0  0  2  0  0  3  0  0  0  0  0  0
  192.4020  174.9610  141.7870 C   0  0  1  0  0  3  0  0  0  0  0  0
  192.2390  177.1830  143.0420 C   0  0  0  0  0  3  0  0  0  0  0  0
  191.5690  178.1170  143.7120 C   0  0  0  0  0  2  0  0  0  0  0  0
  193.8080  175.4520  141.4630 C   0  0  0  0  0  2  0  0  0  0  0  0
  194.7350  174.4740  141.8170 O   0  0  0  0  0  1  0  0  0  0  0  0
  1  8  1  0  0  0  0
  1 10  2  0  0  0  0
  2  5  1  0  0  0  0
  2 13  1  1  0  0  0
  3  8  2  0  0  0  0
  3 15  1  0  0  0  0
  4 26  1  6  0  0  0
  4 15  1  0  0  0  0
  4  9  1  0  0  0  0
  5  6  1  1  0  0  0
  7 13  1  1  0  0  0
  7 14  1  0  0  0  0
  8  2  1  0  0  0  0
  9 14  1  0  0  0  0
 10  5  1  0  0  0  0
 11 16  1  0  0  0  0
 11 12  2  0  0  0  0
 12  1  1  0  0  0  0
 14 17  1  6  0  0  0
 15  7  1  0  0  0  0
 16  3  1  0  0  0  0
 18 19  1  0  0  0  0
 18 17  1  0  0  0  0
 20 19  1  0  0  0  0
 21 20  1  0  0  0  0
 22 21  1  0  0  0  0
 23 22  2  0  0  0  0
 24 25  1  0  0  0  0
 25 22  1  0  0  0  0
 26 27  1  0  0  0  0
 28 27  1  6  0  0  0
 29 31  1  1  0  0  0
 29 28  1  0  0  0  0
 30 33  1  1  0  0  0
 30 29  1  0  0  0  0
 30 28  1  0  0  0  0
 31 32  2  0  0  0  0
 33 34  1  0  0  0  0
M  END
>  <MODEL>
2

>  <REMARK>
 VINA RESULT:      -6.8      1.169      1.688
  Name = 
  12 active torsions:
  status: ('A' for Active; 'I' for Inactive)
    1  A    between atoms: C_3  and  C_13
    2  A    between atoms: C_3  and  C_17
    3  A    between atoms: C_5  and  C_26
    4  A    between atoms: C_7  and  C_16
    5  A    between atoms: C_12  and  C_28
    6  A    between atoms: C_13  and  C_33
    7  A    between atoms: O_14  and  C_20
    8  A    between atoms: C_17  and  C_29
    9  A    between atoms: C_20  and  C_34
   10  A    between atoms: C_23  and  C_27
   11  A    between atoms: C_26  and  C_28
   12  A    between atoms: C_33  and  C_34
                            x       y       z     vdW  Elec       q    Type
                         _______ _______ _______ _____ _____    ______ ____

>  <TORSDO>
F 12

$$$$
=
 OpenBabel11052418533D

 34 38  0  0  1  0  0  0  0  0999 V2000
  195.0050  176.3860  143.0400 C   0  0  0  0  0  0  0  0  0  0  0  0
  193.3940  175.2780  141.8700 C   0  0  2  0  0  3  0  0  0  0  0  0
  193.0930  175.5720  144.2600 C   0  0  0  0  0  0  0  0  0  0  0  0
  191.4540  173.8970  145.2640 C   0  0  1  0  0  3  0  0  0  0  0  0
  194.4970  175.4540  141.1390 C   0  0  2  0  0  3  0  0  0  0  0  0
  194.7500  174.8020  139.8240 C   0  0  0  0  0  1  0  0  0  0  0  0
  191.2860  174.4190  142.8940 C   0  0  1  0  0  3  0  0  0  0  0  0
  193.6880  175.8730  143.1290 C   0  0  0  0  0  0  0  0  0  0  0  0
  190.4060  172.9830  144.6480 C   0  0  0  0  0  2  0  0  0  0  0  0
  195.5290  176.1410  141.8820 N   0  0  0  0  0  0  0  0  0  0  0  0
  195.1590  176.5790  145.3880 C   0  0  0  0  0  3  0  0  0  0  0  0
  195.7240  176.7470  144.2180 N   0  0  0  0  0  0  0  0  0  0  0  0
  192.3080  174.2520  141.7390 C   0  0  0  0  0  2  0  0  0  0  0  0
  190.5300  173.1280  143.1310 C   0  0  1  0  0  3  0  0  0  0  0  0
  191.9180  174.7410  144.1800 N   0  0  0  0  0  0  0  0  0  0  0  0
  193.7540  175.9850  145.5650 C   0  0  0  0  0  2  0  0  0  0  0  0
  189.1570  173.1970  142.4800 C   0  0  0  0  0  2  0  0  0  0  0  0
  188.8100  174.6210  142.0710 C   0  0  0  0  0  2  0  0  0  0  0  0
  187.3620  174.9300  142.3960 C   0  0  0  0  0  2  0  0  0  0  0  0
  187.0540  176.3650  142.0130 C   0  0  0  0  0  2  0  0  0  0  0  0
  185.9120  176.9070  142.8560 C   0  0  0  0  0  2  0  0  0  0  0  0
  185.5290  178.2860  142.4140 C   0  0  0  0  0  0  0  0  0  0  0  0
  184.8450  178.4260  141.3670 O   0  0  0  0  0  0  0  0  0  0  0  0
  185.2350  179.9050  144.2520 C   0  0  0  0  0  1  0  0  0  0  0  0
  185.9380  179.4210  143.1190 O   0  0  0  0  0  0  0  0  0  0  0  0
  190.8210  174.7480  146.3580 C   0  0  0  0  0  2  0  0  0  0  0  0
  189.3100  174.5740  146.3810 C   0  0  0  0  0  2  0  0  0  0  0  0
  188.6280  175.7540  145.7110 C   0  0  2  0  0  3  0  0  0  0  0  0
  189.5530  176.9540  145.7520 C   0  0  2  0  0  3  0  0  0  0  0  0
  188.3790  176.8430  146.7360 C   0  0  1  0  0  3  0  0  0  0  0  0
  189.2970  177.8230  144.5580 C   0  0  0  0  0  3  0  0  0  0  0  0
  190.1580  177.8310  143.5440 C   0  0  0  0  0  2  0  0  0  0  0  0
  187.1280  177.6240  146.3500 C   0  0  0  0  0  2  0  0  0  0  0  0
  186.0170  176.7880  146.4280 O   0  0  0  0  0  1  0  0  0  0  0  0
  1  8  1  0  0  0  0
  1 12  1  0  0  0  0
  2 13  1  1  0  0  0
  2  8  1  0  0  0  0
  3 16  1  0  0  0  0
  4 26  1  1  0  0  0
  5  6  1  1  0  0  0
  5  2  1  0  0  0  0
  5 10  1  0  0  0  0
  7 13  1  6  0  0  0
  7 14  1  0  0  0  0
  7 15  1  0  0  0  0
  8  3  2  0  0  0  0
  9  4  1  0  0  0  0
 10  1  2  0  0  0  0
 11 16  1  0  0  0  0
 12 11  2  0  0  0  0
 14 17  1  6  0  0  0
 14  9  1  0  0  0  0
 15  3  1  0  0  0  0
 15  4  1  0  0  0  0
 18 19  1  0  0  0  0
 18 17  1  0  0  0  0
 20 19  1  0  0  0  0
 20 21  1  0  0  0  0
 22 21  1  0  0  0  0
 22 25  1  0  0  0  0
 23 22  2  0  0  0  0
 25 24  1  0  0  0  0
 26 27  1  0  0  0  0
 28 29  1  0  0  0  0
 28 27  1  1  0  0  0
 28 30  1  0  0  0  0
 29 31  1  6  0  0  0
 29 30  1  0  0  0  0
 30 33  1  6  0  0  0
 32 31  2  0  0  0  0
 33 34  1  0  0  0  0
M  END
>  <MODEL>
3

>  <REMARK>
 VINA RESULT:      -6.7      3.841      8.009
  Name = 
  12 active torsions:
  status: ('A' for Active; 'I' for Inactive)
    1  A    between atoms: C_3  and  C_13
    2  A    between atoms: C_3  and  C_17
    3  A    between atoms: C_5  and  C_26
    4  A    between atoms: C_7  and  C_16
    5  A    between atoms: C_12  and  C_28
    6  A    between atoms: C_13  and  C_33
    7  A    between atoms: O_14  and  C_20
    8  A    between atoms: C_17  and  C_29
    9  A    between atoms: C_20  and  C_34
   10  A    between atoms: C_23  and  C_27
   11  A    between atoms: C_26  and  C_28
   12  A    between atoms: C_33  and  C_34
                            x       y       z     vdW  Elec       q    Type
                         _______ _______ _______ _____ _____    ______ ____

>  <TORSDO>
F 12

$$$$
=
 OpenBabel11052418533D

 34 38  0  0  1  0  0  0  0  0999 V2000
  189.3050  172.4940  141.6660 C   0  0  0  0  0  0  0  0  0  0  0  0
  190.1790  172.9970  143.7090 C   0  0  2  0  0  3  0  0  0  0  0  0
  188.9690  174.7260  142.5100 C   0  0  0  0  0  0  0  0  0  0  0  0
  189.5540  177.0760  143.3060 C   0  0  1  0  0  3  0  0  0  0  0  0
  190.6390  171.8300  143.2540 C   0  0  2  0  0  3  0  0  0  0  0  0
  191.7630  171.0700  143.8680 C   0  0  0  0  0  1  0  0  0  0  0  0
  189.8900  175.2090  144.8290 C   0  0  1  0  0  3  0  0  0  0  0  0
  189.3010  173.4690  142.6930 C   0  0  0  0  0  0  0  0  0  0  0  0
  190.2400  177.6010  144.5580 C   0  0  0  0  0  2  0  0  0  0  0  0
  190.1030  171.5140  141.9500 N   0  0  0  0  0  0  0  0  0  0  0  0
  188.3450  174.0090  140.1320 C   0  0  0  0  0  3  0  0  0  0  0  0
  188.7980  172.8040  140.3700 N   0  0  0  0  0  0  0  0  0  0  0  0
  190.7770  173.9430  144.7080 C   0  0  0  0  0  2  0  0  0  0  0  0
  190.6950  176.3790  145.3570 C   0  0  1  0  0  3  0  0  0  0  0  0
  189.3500  175.6600  143.5390 N   0  0  0  0  0  0  0  0  0  0  0  0
  188.3520  175.1310  141.1810 C   0  0  0  0  0  2  0  0  0  0  0  0
  190.4270  176.5730  146.8410 C   0  0  0  0  0  2  0  0  0  0  0  0
  191.7190  176.5580  147.6440 C   0  0  0  0  0  2  0  0  0  0  0  0
  192.7560  175.6850  146.9660 C   0  0  0  0  0  2  0  0  0  0  0  0
  193.9500  176.5330  146.5720 C   0  0  0  0  0  2  0  0  0  0  0  0
  195.0200  175.6750  145.9180 C   0  0  0  0  0  2  0  0  0  0  0  0
  195.1060  175.9560  144.4490 C   0  0  0  0  0  0  0  0  0  0  0  0
  195.9790  176.7580  144.0280 O   0  0  0  0  0  0  0  0  0  0  0  0
  193.2580  176.1260  142.8240 C   0  0  0  0  0  1  0  0  0  0  0  0
  194.2230  175.3700  143.5390 O   0  0  0  0  0  0  0  0  0  0  0  0
  188.2130  177.7750  143.1180 C   0  0  0  0  0  2  0  0  0  0  0  0
  187.4890  177.9370  144.4460 C   0  0  0  0  0  2  0  0  0  0  0  0
  185.9850  177.8960  144.2410 C   0  0  2  0  0  3  0  0  0  0  0  0
  185.6110  178.8290  143.1070 C   0  0  2  0  0  3  0  0  0  0  0  0
  185.3930  179.2530  144.5670 C   0  0  1  0  0  3  0  0  0  0  0  0
  184.3910  178.3050  142.4120 C   0  0  0  0  0  3  0  0  0  0  0  0
  184.3620  178.2300  141.0850 C   0  0  0  0  0  2  0  0  0  0  0  0
  183.9750  179.0720  145.0950 C   0  0  0  0  0  2  0  0  0  0  0  0
  184.0080  178.3190  146.2660 O   0  0  0  0  0  1  0  0  0  0  0  0
  1 10  2  0  0  0  0
  1  8  1  0  0  0  0
  2 13  1  6  0  0  0
  3  8  2  0  0  0  0
  3 15  1  0  0  0  0
  4 26  1  1  0  0  0
  4 15  1  0  0  0  0
  4  9  1  0  0  0  0
  5  2  1  0  0  0  0
  5  6  1  6  0  0  0
  7 13  1  6  0  0  0
  7 14  1  0  0  0  0
  8  2  1  0  0  0  0
  9 14  1  0  0  0  0
 10  5  1  0  0  0  0
 11 12  2  0  0  0  0
 11 16  1  0  0  0  0
 12  1  1  0  0  0  0
 14 17  1  1  0  0  0
 15  7  1  0  0  0  0
 16  3  1  0  0  0  0
 17 18  1  0  0  0  0
 19 18  1  0  0  0  0
 20 19  1  0  0  0  0
 21 20  1  0  0  0  0
 22 21  1  0  0  0  0
 23 22  2  0  0  0  0
 24 25  1  0  0  0  0
 25 22  1  0  0  0  0
 26 27  1  0  0  0  0
 28 27  1  1  0  0  0
 28 30  1  0  0  0  0
 29 31  1  6  0  0  0
 29 28  1  0  0  0  0
 29 30  1  0  0  0  0
 30 33  1  6  0  0  0
 32 31  2  0  0  0  0
 33 34  1  0  0  0  0
M  END
>  <MODEL>
4

>  <REMARK>
 VINA RESULT:      -6.6      2.982      6.335
  Name = 
  12 active torsions:
  status: ('A' for Active; 'I' for Inactive)
    1  A    between atoms: C_3  and  C_13
    2  A    between atoms: C_3  and  C_17
    3  A    between atoms: C_5  and  C_26
    4  A    between atoms: C_7  and  C_16
    5  A    between atoms: C_12  and  C_28
    6  A    between atoms: C_13  and  C_33
    7  A    between atoms: O_14  and  C_20
    8  A    between atoms: C_17  and  C_29
    9  A    between atoms: C_20  and  C_34
   10  A    between atoms: C_23  and  C_27
   11  A    between atoms: C_26  and  C_28
   12  A    between atoms: C_33  and  C_34
                            x       y       z     vdW  Elec       q    Type
                         _______ _______ _______ _____ _____    ______ ____

>  <TORSDO>
F 12

$$$$
=
 OpenBabel11052418533D

 34 38  0  0  1  0  0  0  0  0999 V2000
  186.0620  178.6130  143.6840 C   0  0  0  0  0  0  0  0  0  0  0  0
  186.7030  177.7070  145.6740 C   0  0  2  0  0  3  0  0  0  0  0  0
  188.1770  177.4620  143.7610 C   0  0  0  0  0  0  0  0  0  0  0  0
  189.8210  175.5310  144.0210 C   0  0  1  0  0  3  0  0  0  0  0  0
  185.4250  178.0910  145.7000 C   0  0  2  0  0  3  0  0  0  0  0  0
  184.4650  177.7520  146.7870 C   0  0  0  0  0  1  0  0  0  0  0  0
  188.8840  176.5440  146.0240 C   0  0  1  0  0  3  0  0  0  0  0  0
  187.1580  178.0290  144.3640 C   0  0  0  0  0  0  0  0  0  0  0  0
  190.2810  174.7210  145.2240 C   0  0  0  0  0  2  0  0  0  0  0  0
  185.0070  178.6500  144.4350 N   0  0  0  0  0  0  0  0  0  0  0  0
  187.1080  178.3000  141.5910 C   0  0  0  0  0  3  0  0  0  0  0  0
  186.0760  178.7450  142.2640 N   0  0  0  0  0  0  0  0  0  0  0  0
  187.4160  176.6820  146.5050 C   0  0  0  0  0  2  0  0  0  0  0  0
  189.4540  175.1970  146.4190 C   0  0  1  0  0  3  0  0  0  0  0  0
  189.0210  176.6110  144.5630 N   0  0  0  0  0  0  0  0  0  0  0  0
  188.3100  177.6140  142.2550 C   0  0  0  0  0  2  0  0  0  0  0  0
  190.3250  175.3390  147.6570 C   0  0  0  0  0  2  0  0  0  0  0  0
  191.7990  175.1750  147.3190 C   0  0  0  0  0  2  0  0  0  0  0  0
  192.4970  176.5200  147.3150 C   0  0  0  0  0  2  0  0  0  0  0  0
  193.7900  176.4160  146.5300 C   0  0  0  0  0  2  0  0  0  0  0  0
  193.8910  175.0610  145.8480 C   0  0  0  0  0  2  0  0  0  0  0  0
  195.1420  174.9670  145.0300 C   0  0  0  0  0  0  0  0  0  0  0  0
  195.0930  175.2370  143.8020 O   0  0  0  0  0  0  0  0  0  0  0  0
  197.4980  174.2720  144.8010 C   0  0  0  0  0  1  0  0  0  0  0  0
  196.3540  174.5590  145.5910 O   0  0  0  0  0  0  0  0  0  0  0  0
  191.0300  176.0930  143.2820 C   0  0  0  0  0  2  0  0  0  0  0  0
  191.4550  175.1730  142.1480 C   0  0  0  0  0  2  0  0  0  0  0  0
  190.3200  174.2400  141.7650 C   0  0  2  0  0  3  0  0  0  0  0  0
  190.8170  172.8090  141.8000 C   0  0  2  0  0  3  0  0  0  0  0  0
  190.6550  173.5440  140.4620 C   0  0  1  0  0  3  0  0  0  0  0  0
  189.6850  171.8960  142.1620 C   0  0  0  0  0  3  0  0  0  0  0  0
  189.2760  171.8100  143.4240 C   0  0  0  0  0  2  0  0  0  0  0  0
  189.3670  173.2430  139.7040 C   0  0  0  0  0  2  0  0  0  0  0  0
  189.3780  173.9150  138.4840 O   0  0  0  0  0  1  0  0  0  0  0  0
  1  8  1  0  0  0  0
  1 10  2  0  0  0  0
  2  5  1  0  0  0  0
  2 13  1  6  0  0  0
  3  8  2  0  0  0  0
  3 15  1  0  0  0  0
  4 26  1  1  0  0  0
  4 15  1  0  0  0  0
  4  9  1  0  0  0  0
  5  6  1  6  0  0  0
  7 14  1  0  0  0  0
  7 13  1  6  0  0  0
  8  2  1  0  0  0  0
  9 14  1  0  0  0  0
 10  5  1  0  0  0  0
 11 16  1  0  0  0  0
 11 12  2  0  0  0  0
 12  1  1  0  0  0  0
 14 17  1  1  0  0  0
 15  7  1  0  0  0  0
 16  3  1  0  0  0  0
 18 17  1  0  0  0  0
 19 18  1  0  0  0  0
 20 19  1  0  0  0  0
 21 20  1  0  0  0  0
 22 25  1  0  0  0  0
 22 21  1  0  0  0  0
 23 22  2  0  0  0  0
 24 25  1  0  0  0  0
 27 26  1  0  0  0  0
 28 29  1  0  0  0  0
 28 27  1  1  0  0  0
 29 31  1  6  0  0  0
 30 33  1  6  0  0  0
 30 28  1  0  0  0  0
 30 29  1  0  0  0  0
 31 32  2  0  0  0  0
 34 33  1  0  0  0  0
M  END
>  <MODEL>
5

>  <REMARK>
 VINA RESULT:      -6.5      1.611      2.117
  Name = 
  12 active torsions:
  status: ('A' for Active; 'I' for Inactive)
    1  A    between atoms: C_3  and  C_13
    2  A    between atoms: C_3  and  C_17
    3  A    between atoms: C_5  and  C_26
    4  A    between atoms: C_7  and  C_16
    5  A    between atoms: C_12  and  C_28
    6  A    between atoms: C_13  and  C_33
    7  A    between atoms: O_14  and  C_20
    8  A    between atoms: C_17  and  C_29
    9  A    between atoms: C_20  and  C_34
   10  A    between atoms: C_23  and  C_27
   11  A    between atoms: C_26  and  C_28
   12  A    between atoms: C_33  and  C_34
                            x       y       z     vdW  Elec       q    Type
                         _______ _______ _______ _____ _____    ______ ____

>  <TORSDO>
F 12

$$$$
=
 OpenBabel11052418533D

 34 38  0  0  1  0  0  0  0  0999 V2000
  184.6350  178.4220  144.5730 C   0  0  0  0  0  0  0  0  0  0  0  0
  185.4940  177.1700  142.8740 C   0  0  2  0  0  3  0  0  0  0  0  0
  186.6380  177.1560  145.0150 C   0  0  0  0  0  0  0  0  0  0  0  0
  189.0720  176.4240  144.8320 C   0  0  1  0  0  3  0  0  0  0  0  0
  184.5470  178.0040  142.4380 C   0  0  2  0  0  3  0  0  0  0  0  0
  184.2560  178.2710  141.0020 C   0  0  0  0  0  1  0  0  0  0  0  0
  187.5050  175.7110  143.1140 C   0  0  1  0  0  3  0  0  0  0  0  0
  185.5860  177.4170  144.2740 C   0  0  0  0  0  0  0  0  0  0  0  0
  189.8540  175.7030  143.7440 C   0  0  0  0  0  2  0  0  0  0  0  0
  184.0110  178.8130  143.5080 N   0  0  0  0  0  0  0  0  0  0  0  0
  185.6550  178.8580  146.6580 C   0  0  0  0  0  3  0  0  0  0  0  0
  184.6960  179.1330  145.8090 N   0  0  0  0  0  0  0  0  0  0  0  0
  186.6290  176.5300  142.1310 C   0  0  0  0  0  2  0  0  0  0  0  0
  188.9030  175.5270  142.5600 C   0  0  1  0  0  3  0  0  0  0  0  0
  187.6850  176.3720  144.4130 N   0  0  0  0  0  0  0  0  0  0  0  0
  186.7470  177.8150  146.3810 C   0  0  0  0  0  2  0  0  0  0  0  0
  189.0480  174.1410  141.9500 C   0  0  0  0  0  2  0  0  0  0  0  0
  189.1880  173.0750  143.0260 C   0  0  0  0  0  2  0  0  0  0  0  0
  189.6870  171.7760  142.4260 C   0  0  0  0  0  2  0  0  0  0  0  0
  191.1510  171.5880  142.7750 C   0  0  0  0  0  2  0  0  0  0  0  0
  191.4090  171.9820  144.2200 C   0  0  0  0  0  2  0  0  0  0  0  0
  192.7520  172.6280  144.3660 C   0  0  0  0  0  0  0  0  0  0  0  0
  193.6470  172.0400  145.0260 O   0  0  0  0  0  0  0  0  0  0  0  0
  194.1150  174.0980  142.9270 C   0  0  0  0  0  1  0  0  0  0  0  0
  193.0260  173.8810  143.8100 O   0  0  0  0  0  0  0  0  0  0  0  0
  189.2470  175.7000  146.1620 C   0  0  0  0  0  2  0  0  0  0  0  0
  190.4660  174.7930  146.1350 C   0  0  0  0  0  2  0  0  0  0  0  0
  191.5270  175.2970  147.0980 C   0  0  2  0  0  3  0  0  0  0  0  0
  191.2340  176.7420  147.4500 C   0  0  2  0  0  3  0  0  0  0  0  0
  192.3320  176.3950  146.4340 C   0  0  1  0  0  3  0  0  0  0  0  0
  191.7240  177.0270  148.8370 C   0  0  0  0  0  3  0  0  0  0  0  0
  191.3190  178.1220  149.4740 C   0  0  0  0  0  2  0  0  0  0  0  0
  193.7530  176.3840  146.9860 C   0  0  0  0  0  2  0  0  0  0  0  0
  194.5220  175.4690  146.2710 O   0  0  0  0  0  1  0  0  0  0  0  0
  1 12  1  0  0  0  0
  2 13  1  6  0  0  0
  2  8  1  0  0  0  0
  3 16  1  0  0  0  0
  4 26  1  1  0  0  0
  5  6  1  6  0  0  0
  5  2  1  0  0  0  0
  5 10  1  0  0  0  0
  7 13  1  6  0  0  0
  7 15  1  0  0  0  0
  8  1  1  0  0  0  0
  8  3  2  0  0  0  0
  9  4  1  0  0  0  0
 10  1  2  0  0  0  0
 12 11  2  0  0  0  0
 14 17  1  1  0  0  0
 14  7  1  0  0  0  0
 14  9  1  0  0  0  0
 15  4  1  0  0  0  0
 15  3  1  0  0  0  0
 16 11  1  0  0  0  0
 17 18  1  0  0  0  0
 19 20  1  0  0  0  0
 19 18  1  0  0  0  0
 20 21  1  0  0  0  0
 21 22  1  0  0  0  0
 22 23  2  0  0  0  0
 24 25  1  0  0  0  0
 25 22  1  0  0  0  0
 27 26  1  0  0  0  0
 28 27  1  6  0  0  0
 28 29  1  0  0  0  0
 29 31  1  1  0  0  0
 30 33  1  1  0  0  0
 30 28  1  0  0  0  0
 30 29  1  0  0  0  0
 31 32  2  0  0  0  0
 34 33  1  0  0  0  0
M  END
>  <MODEL>
6

>  <REMARK>
 VINA RESULT:      -6.4      1.820      4.584
  Name = 
  12 active torsions:
  status: ('A' for Active; 'I' for Inactive)
    1  A    between atoms: C_3  and  C_13
    2  A    between atoms: C_3  and  C_17
    3  A    between atoms: C_5  and  C_26
    4  A    between atoms: C_7  and  C_16
    5  A    between atoms: C_12  and  C_28
    6  A    between atoms: C_13  and  C_33
    7  A    between atoms: O_14  and  C_20
    8  A    between atoms: C_17  and  C_29
    9  A    between atoms: C_20  and  C_34
   10  A    between atoms: C_23  and  C_27
   11  A    between atoms: C_26  and  C_28
   12  A    between atoms: C_33  and  C_34
                            x       y       z     vdW  Elec       q    Type
                         _______ _______ _______ _____ _____    ______ ____

>  <TORSDO>
F 12

$$$$
=
 OpenBabel11052418533D

 34 38  0  0  1  0  0  0  0  0999 V2000
  189.1470  172.7390  140.9220 C   0  0  0  0  0  0  0  0  0  0  0  0
  189.9060  172.7760  143.0700 C   0  0  2  0  0  3  0  0  0  0  0  0
  188.6780  174.6990  142.2420 C   0  0  0  0  0  0  0  0  0  0  0  0
  189.1250  176.8140  143.5930 C   0  0  1  0  0  3  0  0  0  0  0  0
  190.4350  171.7630  142.3810 C   0  0  2  0  0  3  0  0  0  0  0  0
  191.5620  170.9150  142.8610 C   0  0  0  0  0  1  0  0  0  0  0  0
  189.4720  174.6540  144.6560 C   0  0  1  0  0  3  0  0  0  0  0  0
  189.0540  173.4450  142.1450 C   0  0  0  0  0  0  0  0  0  0  0  0
  189.7310  177.0520  144.9680 C   0  0  0  0  0  2  0  0  0  0  0  0
  189.9720  171.7450  141.0120 N   0  0  0  0  0  0  0  0  0  0  0  0
  188.1940  174.5410  139.7320 C   0  0  0  0  0  3  0  0  0  0  0  0
  188.6860  173.3280  139.7070 N   0  0  0  0  0  0  0  0  0  0  0  0
  190.4170  173.4790  144.2920 C   0  0  0  0  0  2  0  0  0  0  0  0
  190.2010  175.6920  145.4840 C   0  0  1  0  0  3  0  0  0  0  0  0
  188.9720  175.3770  143.4790 N   0  0  0  0  0  0  0  0  0  0  0  0
  188.1050  175.3850  141.0120 C   0  0  0  0  0  2  0  0  0  0  0  0
  189.8580  175.5240  146.9560 C   0  0  0  0  0  2  0  0  0  0  0  0
  191.0830  175.7210  147.8360 C   0  0  0  0  0  2  0  0  0  0  0  0
  192.3380  175.2850  147.1060 C   0  0  0  0  0  2  0  0  0  0  0  0
  193.2560  176.4780  146.9250 C   0  0  0  0  0  2  0  0  0  0  0  0
  194.4420  176.1090  146.0500 C   0  0  0  0  0  2  0  0  0  0  0  0
  193.9870  175.6570  144.6960 C   0  0  0  0  0  0  0  0  0  0  0  0
  193.3850  176.4710  143.9480 O   0  0  0  0  0  0  0  0  0  0  0  0
  195.2520  173.5400  144.7370 C   0  0  0  0  0  1  0  0  0  0  0  0
  194.1890  174.3470  144.2550 O   0  0  0  0  0  0  0  0  0  0  0  0
  187.7650  177.4960  143.5010 C   0  0  0  0  0  2  0  0  0  0  0  0
  186.7420  176.7990  144.3840 C   0  0  0  0  0  2  0  0  0  0  0  0
  186.2280  177.7460  145.4540 C   0  0  2  0  0  3  0  0  0  0  0  0
  186.3460  177.0790  146.8090 C   0  0  2  0  0  3  0  0  0  0  0  0
  184.9890  177.1580  146.0970 C   0  0  1  0  0  3  0  0  0  0  0  0
  186.5700  178.1220  147.8610 C   0  0  0  0  0  3  0  0  0  0  0  0
  187.7660  178.6900  147.9910 C   0  0  0  0  0  2  0  0  0  0  0  0
  184.0740  178.2870  146.5580 C   0  0  0  0  0  2  0  0  0  0  0  0
  183.6790  179.0430  145.4570 O   0  0  0  0  0  1  0  0  0  0  0  0
  1 10  2  0  0  0  0
  1  8  1  0  0  0  0
  2 13  1  6  0  0  0
  3 15  1  0  0  0  0
  4 26  1  1  0  0  0
  4  9  1  0  0  0  0
  5  6  1  6  0  0  0
  5  2  1  0  0  0  0
  7 13  1  6  0  0  0
  7 14  1  0  0  0  0
  8  3  2  0  0  0  0
  8  2  1  0  0  0  0
  9 14  1  0  0  0  0
 10  5  1  0  0  0  0
 11 16  1  0  0  0  0
 12 11  2  0  0  0  0
 12  1  1  0  0  0  0
 14 17  1  1  0  0  0
 15  4  1  0  0  0  0
 15  7  1  0  0  0  0
 16  3  1  0  0  0  0
 17 18  1  0  0  0  0
 19 18  1  0  0  0  0
 20 19  1  0  0  0  0
 21 20  1  0  0  0  0
 22 21  1  0  0  0  0
 23 22  2  0  0  0  0
 25 22  1  0  0  0  0
 25 24  1  0  0  0  0
 26 27  1  0  0  0  0
 28 27  1  6  0  0  0
 28 30  1  0  0  0  0
 28 29  1  0  0  0  0
 29 31  1  1  0  0  0
 30 33  1  1  0  0  0
 30 29  1  0  0  0  0
 31 32  2  0  0  0  0
 34 33  1  0  0  0  0
M  END
>  <MODEL>
7

>  <REMARK>
 VINA RESULT:      -6.4      3.069      6.213
  Name = 
  12 active torsions:
  status: ('A' for Active; 'I' for Inactive)
    1  A    between atoms: C_3  and  C_13
    2  A    between atoms: C_3  and  C_17
    3  A    between atoms: C_5  and  C_26
    4  A    between atoms: C_7  and  C_16
    5  A    between atoms: C_12  and  C_28
    6  A    between atoms: C_13  and  C_33
    7  A    between atoms: O_14  and  C_20
    8  A    between atoms: C_17  and  C_29
    9  A    between atoms: C_20  and  C_34
   10  A    between atoms: C_23  and  C_27
   11  A    between atoms: C_26  and  C_28
   12  A    between atoms: C_33  and  C_34
                            x       y       z     vdW  Elec       q    Type
                         _______ _______ _______ _____ _____    ______ ____

>  <TORSDO>
F 12

$$$$
=
 OpenBabel11052418533D

 34 38  0  0  1  0  0  0  0  0999 V2000
  196.1060  174.8310  143.1520 C   0  0  0  0  0  0  0  0  0  0  0  0
  194.9070  174.4350  145.0490 C   0  0  2  0  0  3  0  0  0  0  0  0
  193.8790  175.7420  143.2810 C   0  0  0  0  0  0  0  0  0  0  0  0
  191.9490  177.1850  144.1130 C   0  0  1  0  0  3  0  0  0  0  0  0
  196.1900  174.0980  145.2010 C   0  0  2  0  0  3  0  0  0  0  0  0
  196.8200  173.7460  146.5030 C   0  0  0  0  0  1  0  0  0  0  0  0
  192.5540  175.2000  145.3820 C   0  0  1  0  0  3  0  0  0  0  0  0
  194.8110  174.9260  143.7160 C   0  0  0  0  0  0  0  0  0  0  0  0
  191.1160  177.1610  145.3850 C   0  0  0  0  0  2  0  0  0  0  0  0
  196.9590  174.3630  144.0070 N   0  0  0  0  0  0  0  0  0  0  0  0
  195.5200  176.2940  141.3940 C   0  0  0  0  0  3  0  0  0  0  0  0
  196.4300  175.5380  141.9560 N   0  0  0  0  0  0  0  0  0  0  0  0
  193.8810  174.8020  146.0800 C   0  0  0  0  0  2  0  0  0  0  0  0
  191.7160  176.0800  146.2850 C   0  0  1  0  0  3  0  0  0  0  0  0
  192.7600  175.9840  144.1570 N   0  0  0  0  0  0  0  0  0  0  0  0
  194.1110  176.4820  141.9740 C   0  0  0  0  0  2  0  0  0  0  0  0
  190.6210  175.2590  146.9490 C   0  0  0  0  0  2  0  0  0  0  0  0
  189.3010  175.3930  146.2040 C   0  0  0  0  0  2  0  0  0  0  0  0
  188.2070  175.8660  147.1410 C   0  0  0  0  0  2  0  0  0  0  0  0
  187.4650  177.0250  146.5050 C   0  0  0  0  0  2  0  0  0  0  0  0
  185.9650  176.7860  146.5500 C   0  0  0  0  0  2  0  0  0  0  0  0
  185.2130  178.0720  146.3980 C   0  0  0  0  0  0  0  0  0  0  0  0
  184.8300  178.6840  147.4290 O   0  0  0  0  0  0  0  0  0  0  0  0
  185.5370  179.7560  144.6240 C   0  0  0  0  0  1  0  0  0  0  0  0
  184.9040  178.5950  145.1400 O   0  0  0  0  0  0  0  0  0  0  0  0
  191.0340  177.1560  142.8940 C   0  0  0  0  0  2  0  0  0  0  0  0
  189.6280  177.6080  143.2550 C   0  0  0  0  0  2  0  0  0  0  0  0
  188.6090  176.9770  142.3210 C   0  0  2  0  0  3  0  0  0  0  0  0
  187.3380  176.6880  143.0930 C   0  0  2  0  0  3  0  0  0  0  0  0
  188.3250  175.5570  142.7680 C   0  0  1  0  0  3  0  0  0  0  0  0
  186.1610  176.7840  142.1700 C   0  0  0  0  0  3  0  0  0  0  0  0
  185.9220  177.9150  141.5120 C   0  0  0  0  0  2  0  0  0  0  0  0
  187.9680  174.7070  141.5540 C   0  0  0  0  0  2  0  0  0  0  0  0
  187.8620  173.3720  141.9370 O   0  0  0  0  0  1  0  0  0  0  0  0
  1  8  1  0  0  0  0
  1 10  2  0  0  0  0
  2  5  1  0  0  0  0
  2 13  1  1  0  0  0
  3  8  2  0  0  0  0
  3 15  1  0  0  0  0
  4 26  1  6  0  0  0
  4 15  1  0  0  0  0
  4  9  1  0  0  0  0
  5  6  1  1  0  0  0
  7 13  1  1  0  0  0
  7 14  1  0  0  0  0
  8  2  1  0  0  0  0
  9 14  1  0  0  0  0
 10  5  1  0  0  0  0
 11 12  2  0  0  0  0
 11 16  1  0  0  0  0
 12  1  1  0  0  0  0
 14 17  1  6  0  0  0
 15  7  1  0  0  0  0
 16  3  1  0  0  0  0
 18 17  1  0  0  0  0
 18 19  1  0  0  0  0
 20 21  1  0  0  0  0
 20 19  1  0  0  0  0
 22 21  1  0  0  0  0
 22 23  2  0  0  0  0
 24 25  1  0  0  0  0
 25 22  1  0  0  0  0
 26 27  1  0  0  0  0
 28 30  1  0  0  0  0
 28 29  1  0  0  0  0
 28 27  1  1  0  0  0
 29 31  1  6  0  0  0
 30 33  1  6  0  0  0
 30 29  1  0  0  0  0
 32 31  2  0  0  0  0
 33 34  1  0  0  0  0
M  END
>  <MODEL>
8

>  <REMARK>
 VINA RESULT:      -6.4      4.014      7.929
  Name = 
  12 active torsions:
  status: ('A' for Active; 'I' for Inactive)
    1  A    between atoms: C_3  and  C_13
    2  A    between atoms: C_3  and  C_17
    3  A    between atoms: C_5  and  C_26
    4  A    between atoms: C_7  and  C_16
    5  A    between atoms: C_12  and  C_28
    6  A    between atoms: C_13  and  C_33
    7  A    between atoms: O_14  and  C_20
    8  A    between atoms: C_17  and  C_29
    9  A    between atoms: C_20  and  C_34
   10  A    between atoms: C_23  and  C_27
   11  A    between atoms: C_26  and  C_28
   12  A    between atoms: C_33  and  C_34
                            x       y       z     vdW  Elec       q    Type
                         _______ _______ _______ _____ _____    ______ ____

>  <TORSDO>
F 12

$$$$
=
 OpenBabel11052418533D

 34 38  0  0  1  0  0  0  0  0999 V2000
  185.0320  178.1260  145.7100 C   0  0  0  0  0  0  0  0  0  0  0  0
  185.4960  177.2210  143.6710 C   0  0  2  0  0  3  0  0  0  0  0  0
  187.1090  176.9290  145.4610 C   0  0  0  0  0  0  0  0  0  0  0  0
  189.4480  176.3860  144.6060 C   0  0  1  0  0  3  0  0  0  0  0  0
  184.4550  178.0550  143.6120 C   0  0  2  0  0  3  0  0  0  0  0  0
  183.8300  178.5340  142.3480 C   0  0  0  0  0  1  0  0  0  0  0  0
  187.5380  175.8670  143.1920 C   0  0  1  0  0  3  0  0  0  0  0  0
  185.9070  177.2420  145.0340 C   0  0  0  0  0  0  0  0  0  0  0  0
  189.9680  175.9000  143.2620 C   0  0  0  0  0  2  0  0  0  0  0  0
  184.1680  178.6460  144.8980 N   0  0  0  0  0  0  0  0  0  0  0  0
  186.5020  178.2780  147.5510 C   0  0  0  0  0  3  0  0  0  0  0  0
  185.3650  178.6280  147.0030 N   0  0  0  0  0  0  0  0  0  0  0  0
  186.4380  176.7800  142.5900 C   0  0  0  0  0  2  0  0  0  0  0  0
  188.7710  175.8620  142.3120 C   0  0  1  0  0  3  0  0  0  0  0  0
  188.0030  176.3180  144.5100 N   0  0  0  0  0  0  0  0  0  0  0  0
  187.5210  177.3620  146.8590 C   0  0  0  0  0  2  0  0  0  0  0  0
  188.7980  174.6050  141.4560 C   0  0  0  0  0  2  0  0  0  0  0  0
  188.0080  173.4770  142.1030 C   0  0  0  0  0  2  0  0  0  0  0  0
  188.8490  172.2190  142.1870 C   0  0  0  0  0  2  0  0  0  0  0  0
  189.4390  172.0990  143.5800 C   0  0  0  0  0  2  0  0  0  0  0  0
  190.9130  172.4680  143.5680 C   0  0  0  0  0  2  0  0  0  0  0  0
  191.6260  171.7800  142.4440 C   0  0  0  0  0  0  0  0  0  0  0  0
  191.8390  170.5420  142.5190 O   0  0  0  0  0  0  0  0  0  0  0  0
  192.1880  171.8890  140.0440 C   0  0  0  0  0  1  0  0  0  0  0  0
  192.0850  172.4840  141.3290 O   0  0  0  0  0  0  0  0  0  0  0  0
  189.9440  175.4680  145.7160 C   0  0  0  0  0  2  0  0  0  0  0  0
  191.1320  176.0790  146.4420 C   0  0  0  0  0  2  0  0  0  0  0  0
  192.4290  175.7200  145.7380 C   0  0  2  0  0  3  0  0  0  0  0  0
  193.0450  174.5110  146.4120 C   0  0  2  0  0  3  0  0  0  0  0  0
  193.5930  175.9180  146.6880 C   0  0  1  0  0  3  0  0  0  0  0  0
  193.8190  173.7170  145.4040 C   0  0  0  0  0  3  0  0  0  0  0  0
  194.0060  172.4130  145.5850 C   0  0  0  0  0  2  0  0  0  0  0  0
  194.8350  176.3030  145.8930 C   0  0  0  0  0  2  0  0  0  0  0  0
  194.8190  177.6720  145.6400 O   0  0  0  0  0  1  0  0  0  0  0  0
  1 12  1  0  0  0  0
  2 13  1  6  0  0  0
  2  8  1  0  0  0  0
  3 16  1  0  0  0  0
  4 26  1  1  0  0  0
  5  6  1  6  0  0  0
  5  2  1  0  0  0  0
  5 10  1  0  0  0  0
  7 13  1  6  0  0  0
  7 15  1  0  0  0  0
  8  3  2  0  0  0  0
  8  1  1  0  0  0  0
  9  4  1  0  0  0  0
 10  1  2  0  0  0  0
 12 11  2  0  0  0  0
 14 17  1  1  0  0  0
 14  7  1  0  0  0  0
 14  9  1  0  0  0  0
 15  4  1  0  0  0  0
 15  3  1  0  0  0  0
 16 11  1  0  0  0  0
 17 18  1  0  0  0  0
 18 19  1  0  0  0  0
 19 20  1  0  0  0  0
 21 20  1  0  0  0  0
 22 23  2  0  0  0  0
 22 21  1  0  0  0  0
 24 25  1  0  0  0  0
 25 22  1  0  0  0  0
 26 27  1  0  0  0  0
 28 29  1  0  0  0  0
 28 27  1  1  0  0  0
 28 30  1  0  0  0  0
 29 31  1  6  0  0  0
 29 30  1  0  0  0  0
 30 33  1  6  0  0  0
 31 32  2  0  0  0  0
 34 33  1  0  0  0  0
M  END
>  <MODEL>
9

>  <REMARK>
 VINA RESULT:      -6.3      2.130      4.545
  Name = 
  12 active torsions:
  status: ('A' for Active; 'I' for Inactive)
    1  A    between atoms: C_3  and  C_13
    2  A    between atoms: C_3  and  C_17
    3  A    between atoms: C_5  and  C_26
    4  A    between atoms: C_7  and  C_16
    5  A    between atoms: C_12  and  C_28
    6  A    between atoms: C_13  and  C_33
    7  A    between atoms: O_14  and  C_20
    8  A    between atoms: C_17  and  C_29
    9  A    between atoms: C_20  and  C_34
   10  A    between atoms: C_23  and  C_27
   11  A    between atoms: C_26  and  C_28
   12  A    between atoms: C_33  and  C_34
                            x       y       z     vdW  Elec       q    Type
                         _______ _______ _______ _____ _____    ______ ____

>  <TORSDO>
F 12

$$$$
