=
 OpenBabel11052419073D

 32 37  0  0  1  0  0  0  0  0999 V2000
  190.2480  174.7970  145.4960 C   0  0  0  0  0  0  0  0  0  0  0  0
  189.4780  175.8430  144.6320 C   0  0  2  0  0  3  0  0  0  0  0  0
  189.4550  177.4710  147.1160 C   0  0  0  0  0  2  0  0  0  0  0  0
  186.4630  178.4600  142.5630 C   0  0  0  0  0  2  0  0  0  0  0  0
  188.1330  176.2780  145.2440 C   0  0  1  0  0  3  0  0  0  0  0  0
  185.8680  179.2210  144.8930 C   0  0  0  0  0  2  0  0  0  0  0  0
  186.8070  178.1620  145.3690 C   0  0  2  0  0  3  0  0  0  0  0  0
  188.1320  176.8300  146.6970 C   0  0  2  0  0  3  0  0  0  0  0  0
  189.4260  173.7880  146.2820 C   0  0  0  0  0  2  0  0  0  0  0  0
  187.1050  177.9230  146.6310 C   0  0  0  0  0  2  0  0  0  0  0  0
  191.4650  175.1510  146.1190 O   0  0  0  0  0  0  0  0  0  0  0  0
  190.2160  173.3440  145.0660 C   0  0  0  0  0  2  0  0  0  0  0  0
  188.7030  176.9620  142.0990 S   0  0  0  0  0  0  0  0  0  0  0  0
  190.3330  176.5050  147.6150 O   0  0  0  0  0  0  0  0  0  0  0  0
  189.4890  175.5930  143.0810 C   0  0  1  0  0  0  0  0  0  0  0  0
  187.5130  177.3280  144.4720 N   0  0  2  0  0  0  0  0  0  0  0  0
  191.3560  176.4450  146.6630 C   0  0  0  0  0  2  0  0  0  0  0  0
  185.3260  178.8480  143.5110 C   0  0  0  0  0  2  0  0  0  0  0  0
  187.1780  177.2010  143.0630 C   0  0  1  0  0  3  0  0  0  0  0  0
  193.1530  176.6290  142.5030 C   0  0  0  0  0  3  0  0  0  0  0  0
  192.8080  174.4370  141.5500 C   0  0  0  0  0  3  0  0  0  0  0  0
  190.9530  175.5840  142.6440 C   0  0  0  0  0  0  0  0  0  0  0  0
  193.6540  175.5120  141.8220 C   0  0  0  0  0  0  0  0  0  0  0  0
  191.4740  174.4730  141.9550 C   0  0  0  0  0  3  0  0  0  0  0  0
  191.8180  176.6740  142.9110 C   0  0  0  0  0  0  0  0  0  0  0  0
  191.3620  177.8050  143.5780 O   0  0  0  0  0  1  0  0  0  0  0  0
  195.9110  174.6280  142.3570 C   0  0  0  0  0  1  0  0  0  0  0  0
  195.6390  176.7820  141.2600 N   0  0  0  0  0  1  0  0  0  0  0  0
  195.0820  175.4460  141.3830 C   0  0  2  0  0  3  0  0  0  0  0  0
  188.9190  174.3340  142.7280 O   0  0  0  0  0  0  0  0  0  0  0  0
  188.2330  174.4030  141.5070 C   0  0  0  0  0  2  0  0  0  0  0  0
  188.2630  173.0450  140.8350 C   0  0  0  0  0  1  0  0  0  0  0  0
  1 11  1  0  0  0  0
  1  9  1  0  0  0  0
  2  5  1  0  0  0  0
  2  1  1  1  0  0  0
  3 14  1  0  0  0  0
  4 19  1  0  0  0  0
  4 18  1  0  0  0  0
  5  8  1  0  0  0  0
  6  7  1  0  0  0  0
  7 10  1  0  0  0  0
  8  3  1  0  0  0  0
 10  8  1  0  0  0  0
 11 17  1  0  0  0  0
 12  1  1  0  0  0  0
 12  9  1  0  0  0  0
 13 19  1  0  0  0  0
 13 15  1  0  0  0  0
 15  2  1  0  0  0  0
 16  5  1  0  0  0  0
 16  7  1  0  0  0  0
 17 14  1  0  0  0  0
 18  6  1  0  0  0  0
 19 16  1  0  0  0  0
 20 25  1  0  0  0  0
 21 23  1  0  0  0  0
 21 24  2  0  0  0  0
 22 25  2  0  0  0  0
 22 15  1  0  0  0  0
 23 20  2  0  0  0  0
 24 22  1  0  0  0  0
 25 26  1  0  0  0  0
 28 29  1  0  0  0  0
 29 23  1  0  0  0  0
 29 27  1  0  0  0  0
 30 15  1  0  0  0  0
 31 30  1  0  0  0  0
 32 31  1  0  0  0  0
M  END
>  <MODEL>
1

>  <REMARK>
 VINA RESULT:      -7.6      0.000      0.000
  Name = 
  4 active torsions:
  status: ('A' for Active; 'I' for Inactive)
    1  A    between atoms: O_1  and  C_4
    2  A    between atoms: O_1  and  C_27
    3  A    between atoms: C_16  and  C_27
    4  A    between atoms: C_19  and  C_26
                            x       y       z     vdW  Elec       q    Type
                         _______ _______ _______ _____ _____    ______ ____

>  <TORSDO>
F 4

$$$$
=
 OpenBabel11052419073D

 32 37  0  0  1  0  0  0  0  0999 V2000
  191.6950  176.5970  144.7030 C   0  0  0  0  0  0  0  0  0  0  0  0
  191.0890  175.2160  144.3050 C   0  0  2  0  0  3  0  0  0  0  0  0
  193.3500  174.0850  145.8640 C   0  0  0  0  0  2  0  0  0  0  0  0
  190.0310  171.2590  142.4500 C   0  0  0  0  0  2  0  0  0  0  0  0
  192.0970  174.2780  143.6130 C   0  0  1  0  0  3  0  0  0  0  0  0
  192.3840  170.5980  143.0740 C   0  0  0  0  0  2  0  0  0  0  0  0
  192.5680  172.0240  143.4810 C   0  0  2  0  0  3  0  0  0  0  0  0
  193.4350  173.9720  144.3420 C   0  0  2  0  0  3  0  0  0  0  0  0
  192.7610  177.1890  143.7960 C   0  0  0  0  0  2  0  0  0  0  0  0
  193.6650  172.5260  144.0110 C   0  0  0  0  0  2  0  0  0  0  0  0
  191.8520  176.9360  146.0650 O   0  0  0  0  0  0  0  0  0  0  0  0
  191.3730  177.8000  143.8380 C   0  0  0  0  0  2  0  0  0  0  0  0
  188.9140  173.5640  143.4060 S   0  0  0  0  0  0  0  0  0  0  0  0
  193.5710  175.4030  146.2720 O   0  0  0  0  0  0  0  0  0  0  0  0
  189.6410  175.2510  143.6990 C   0  0  1  0  0  0  0  0  0  0  0  0
  191.5280  172.9740  143.3680 N   0  0  2  0  0  0  0  0  0  0  0  0
  192.3340  175.8200  146.7750 C   0  0  0  0  0  2  0  0  0  0  0  0
  191.2870  170.5010  142.0120 C   0  0  0  0  0  2  0  0  0  0  0  0
  190.3240  172.7570  142.5840 C   0  0  1  0  0  3  0  0  0  0  0  0
  187.8020  175.9910  147.0020 C   0  0  0  0  0  3  0  0  0  0  0  0
  187.1440  177.6380  145.3620 C   0  0  0  0  0  3  0  0  0  0  0  0
  188.7360  175.8930  144.7490 C   0  0  0  0  0  0  0  0  0  0  0  0
  187.0550  177.1240  146.6560 C   0  0  0  0  0  0  0  0  0  0  0  0
  187.9740  177.0290  144.4200 C   0  0  0  0  0  3  0  0  0  0  0  0
  188.6340  175.3740  146.0640 C   0  0  0  0  0  0  0  0  0  0  0  0
  189.3520  174.2480  146.4490 O   0  0  0  0  0  1  0  0  0  0  0  0
  184.8670  178.2440  147.0000 C   0  0  0  0  0  1  0  0  0  0  0  0
  186.8370  178.9410  148.2440 N   0  0  0  0  0  1  0  0  0  0  0  0
  186.1650  177.7990  147.6490 C   0  0  2  0  0  3  0  0  0  0  0  0
  189.5640  176.0400  142.5140 O   0  0  0  0  0  0  0  0  0  0  0  0
  188.7920  175.4130  141.5250 C   0  0  0  0  0  2  0  0  0  0  0  0
  187.7140  176.3650  141.0480 C   0  0  0  0  0  1  0  0  0  0  0  0
  1 11  1  0  0  0  0
  2  1  1  6  0  0  0
  3 14  1  0  0  0  0
  4 19  1  0  0  0  0
  5  2  1  0  0  0  0
  5  8  1  0  0  0  0
  6  7  1  0  0  0  0
  7 10  1  0  0  0  0
  8  3  1  0  0  0  0
  9 12  1  0  0  0  0
  9  1  1  0  0  0  0
 10  8  1  0  0  0  0
 11 17  1  0  0  0  0
 12  1  1  0  0  0  0
 13 15  1  0  0  0  0
 14 17  1  0  0  0  0
 15  2  1  0  0  0  0
 15 22  1  0  0  0  0
 16  7  1  0  0  0  0
 16  5  1  0  0  0  0
 18  4  1  0  0  0  0
 18  6  1  0  0  0  0
 19 16  1  0  0  0  0
 19 13  1  0  0  0  0
 21 23  2  0  0  0  0
 22 25  1  0  0  0  0
 23 20  1  0  0  0  0
 23 29  1  0  0  0  0
 24 22  2  0  0  0  0
 24 21  1  0  0  0  0
 25 26  1  0  0  0  0
 25 20  2  0  0  0  0
 27 29  1  0  0  0  0
 29 28  1  0  0  0  0
 30 15  1  0  0  0  0
 31 30  1  0  0  0  0
 32 31  1  0  0  0  0
M  END
>  <MODEL>
2

>  <REMARK>
 VINA RESULT:      -7.0      2.503      6.570
  Name = 
  4 active torsions:
  status: ('A' for Active; 'I' for Inactive)
    1  A    between atoms: O_1  and  C_4
    2  A    between atoms: O_1  and  C_27
    3  A    between atoms: C_16  and  C_27
    4  A    between atoms: C_19  and  C_26
                            x       y       z     vdW  Elec       q    Type
                         _______ _______ _______ _____ _____    ______ ____

>  <TORSDO>
F 4

$$$$
=
 OpenBabel11052419073D

 32 37  0  0  1  0  0  0  0  0999 V2000
  190.0640  176.8190  143.0980 C   0  0  0  0  0  0  0  0  0  0  0  0
  189.0980  176.5660  144.2960 C   0  0  2  0  0  3  0  0  0  0  0  0
  186.9480  176.8430  142.2670 C   0  0  0  0  0  2  0  0  0  0  0  0
  186.2400  176.8220  147.7580 C   0  0  0  0  0  2  0  0  0  0  0  0
  188.0270  177.6620  144.4660 C   0  0  1  0  0  3  0  0  0  0  0  0
  184.6770  177.8900  146.0910 C   0  0  0  0  0  2  0  0  0  0  0  0
  185.8300  177.8560  145.1420 C   0  0  2  0  0  3  0  0  0  0  0  0
  187.1260  178.0020  143.2470 C   0  0  2  0  0  3  0  0  0  0  0  0
  190.4120  178.2600  142.7630 C   0  0  0  0  0  2  0  0  0  0  0  0
  185.7930  178.2580  143.8870 C   0  0  0  0  0  2  0  0  0  0  0  0
  190.0390  175.9620  141.9750 O   0  0  0  0  0  0  0  0  0  0  0  0
  191.4520  177.3520  143.3910 C   0  0  0  0  0  2  0  0  0  0  0  0
  188.5430  175.5940  146.9450 S   0  0  0  0  0  0  0  0  0  0  0  0
  187.9890  176.8220  141.3350 O   0  0  0  0  0  0  0  0  0  0  0  0
  189.7660  176.0350  145.6150 C   0  0  1  0  0  0  0  0  0  0  0  0
  187.0890  177.3290  145.5110 N   0  0  2  0  0  0  0  0  0  0  0  0
  188.7040  175.6600  141.6430 C   0  0  0  0  0  2  0  0  0  0  0  0
  185.1940  177.9160  147.5310 C   0  0  0  0  0  2  0  0  0  0  0  0
  187.4760  177.0680  146.8880 C   0  0  1  0  0  3  0  0  0  0  0  0
  192.4630  173.3500  145.0180 C   0  0  0  0  0  3  0  0  0  0  0  0
  190.2980  172.4000  144.5200 C   0  0  0  0  0  3  0  0  0  0  0  0
  190.4570  174.7190  145.2620 C   0  0  0  0  0  0  0  0  0  0  0  0
  191.6840  172.2610  144.6070 C   0  0  0  0  0  0  0  0  0  0  0  0
  189.6930  173.6150  144.8420 C   0  0  0  0  0  3  0  0  0  0  0  0
  191.8650  174.5700  145.3420 C   0  0  0  0  0  0  0  0  0  0  0  0
  192.6760  175.6260  145.7390 O   0  0  0  0  0  1  0  0  0  0  0  0
  193.7810  170.9330  144.6310 C   0  0  0  0  0  1  0  0  0  0  0  0
  192.1490  170.6620  142.8480 N   0  0  0  0  0  1  0  0  0  0  0  0
  192.3080  170.9460  144.2630 C   0  0  2  0  0  3  0  0  0  0  0  0
  190.7560  176.9270  146.1230 O   0  0  0  0  0  0  0  0  0  0  0  0
  190.4140  177.4080  147.3950 C   0  0  0  0  0  2  0  0  0  0  0  0
  191.5610  177.1600  148.3540 C   0  0  0  0  0  1  0  0  0  0  0  0
  1 12  1  0  0  0  0
  2  1  1  6  0  0  0
  2  5  1  0  0  0  0
  2 15  1  0  0  0  0
  3  8  1  0  0  0  0
  5 16  1  0  0  0  0
  6 18  1  0  0  0  0
  7 16  1  0  0  0  0
  7  6  1  0  0  0  0
  8 10  1  0  0  0  0
  8  5  1  0  0  0  0
  9  1  1  0  0  0  0
  9 12  1  0  0  0  0
 10  7  1  0  0  0  0
 11  1  1  0  0  0  0
 14 17  1  0  0  0  0
 14  3  1  0  0  0  0
 15 30  1  0  0  0  0
 15 13  1  0  0  0  0
 16 19  1  0  0  0  0
 17 11  1  0  0  0  0
 18  4  1  0  0  0  0
 19 13  1  0  0  0  0
 19  4  1  0  0  0  0
 20 25  1  0  0  0  0
 21 23  1  0  0  0  0
 21 24  2  0  0  0  0
 22 25  2  0  0  0  0
 22 15  1  0  0  0  0
 23 20  2  0  0  0  0
 24 22  1  0  0  0  0
 25 26  1  0  0  0  0
 28 29  1  0  0  0  0
 29 23  1  0  0  0  0
 29 27  1  0  0  0  0
 30 31  1  0  0  0  0
 31 32  1  0  0  0  0
M  END
>  <MODEL>
3

>  <REMARK>
 VINA RESULT:      -7.0      2.526      4.630
  Name = 
  4 active torsions:
  status: ('A' for Active; 'I' for Inactive)
    1  A    between atoms: O_1  and  C_4
    2  A    between atoms: O_1  and  C_27
    3  A    between atoms: C_16  and  C_27
    4  A    between atoms: C_19  and  C_26
                            x       y       z     vdW  Elec       q    Type
                         _______ _______ _______ _____ _____    ______ ____

>  <TORSDO>
F 4

$$$$
=
 OpenBabel11052419073D

 32 37  0  0  1  0  0  0  0  0999 V2000
  190.2430  173.3500  143.4160 C   0  0  0  0  0  0  0  0  0  0  0  0
  191.3430  174.4420  143.5930 C   0  0  2  0  0  3  0  0  0  0  0  0
  192.0250  173.8210  140.7690 C   0  0  0  0  0  2  0  0  0  0  0  0
  195.1030  176.8150  144.2650 C   0  0  0  0  0  2  0  0  0  0  0  0
  192.7610  173.9500  143.2420 C   0  0  1  0  0  3  0  0  0  0  0  0
  195.9780  175.5620  142.2580 C   0  0  0  0  0  2  0  0  0  0  0  0
  194.7110  174.7750  142.3250 C   0  0  2  0  0  3  0  0  0  0  0  0
  192.9950  173.3220  141.8400 C   0  0  2  0  0  3  0  0  0  0  0  0
  190.6250  171.9090  143.7090 C   0  0  0  0  0  2  0  0  0  0  0  0
  194.3610  173.8250  141.4790 C   0  0  0  0  0  2  0  0  0  0  0  0
  189.2650  173.4880  142.4070 O   0  0  0  0  0  0  0  0  0  0  0  0
  189.7080  172.6610  144.6560 C   0  0  0  0  0  2  0  0  0  0  0  0
  192.4540  176.7310  144.9340 S   0  0  0  0  0  0  0  0  0  0  0  0
  190.8500  173.0640  140.7780 O   0  0  0  0  0  0  0  0  0  0  0  0
  191.2160  175.3450  144.8720 C   0  0  1  0  0  0  0  0  0  0  0  0
  193.7260  175.0220  143.3080 N   0  0  2  0  0  0  0  0  0  0  0  0
  189.8690  173.9550  141.2250 C   0  0  0  0  0  2  0  0  0  0  0  0
  196.3150  176.1170  143.6430 C   0  0  0  0  0  2  0  0  0  0  0  0
  193.9670  175.8160  144.5020 C   0  0  1  0  0  3  0  0  0  0  0  0
  188.2530  177.4910  143.6680 C   0  0  0  0  0  3  0  0  0  0  0  0
  187.6550  176.4510  145.7640 C   0  0  0  0  0  3  0  0  0  0  0  0
  189.8550  176.0340  144.7930 C   0  0  0  0  0  0  0  0  0  0  0  0
  187.3210  177.2780  144.6920 C   0  0  0  0  0  0  0  0  0  0  0  0
  188.9070  175.8370  145.8140 C   0  0  0  0  0  3  0  0  0  0  0  0
  189.5090  176.8820  143.7110 C   0  0  0  0  0  0  0  0  0  0  0  0
  190.4050  177.1270  142.6770 O   0  0  0  0  0  1  0  0  0  0  0  0
  185.1500  177.5200  145.8710 C   0  0  0  0  0  1  0  0  0  0  0  0
  185.2640  177.5540  143.4420 N   0  0  0  0  0  1  0  0  0  0  0  0
  185.9700  177.9190  144.6580 C   0  0  2  0  0  3  0  0  0  0  0  0
  191.2530  174.5880  146.0800 O   0  0  0  0  0  0  0  0  0  0  0  0
  192.1070  175.1690  147.0270 C   0  0  0  0  0  2  0  0  0  0  0  0
  191.3480  175.3950  148.3190 C   0  0  0  0  0  1  0  0  0  0  0  0
  1  9  1  0  0  0  0
  1 12  1  0  0  0  0
  2  1  1  1  0  0  0
  2 15  1  0  0  0  0
  3 14  1  0  0  0  0
  3  8  1  0  0  0  0
  4 19  1  0  0  0  0
  5 16  1  0  0  0  0
  5  2  1  0  0  0  0
  6  7  1  0  0  0  0
  6 18  1  0  0  0  0
  7 16  1  0  0  0  0
  8  5  1  0  0  0  0
  9 12  1  0  0  0  0
 10  8  1  0  0  0  0
 10  7  1  0  0  0  0
 11  1  1  0  0  0  0
 14 17  1  0  0  0  0
 15 13  1  0  0  0  0
 15 30  1  0  0  0  0
 16 19  1  0  0  0  0
 17 11  1  0  0  0  0
 18  4  1  0  0  0  0
 19 13  1  0  0  0  0
 20 25  2  0  0  0  0
 20 23  1  0  0  0  0
 21 24  1  0  0  0  0
 22 15  1  0  0  0  0
 22 24  2  0  0  0  0
 23 21  2  0  0  0  0
 25 22  1  0  0  0  0
 26 25  1  0  0  0  0
 28 29  1  0  0  0  0
 29 23  1  0  0  0  0
 29 27  1  0  0  0  0
 30 31  1  0  0  0  0
 31 32  1  0  0  0  0
M  END
>  <MODEL>
4

>  <REMARK>
 VINA RESULT:      -7.0      1.869      7.016
  Name = 
  4 active torsions:
  status: ('A' for Active; 'I' for Inactive)
    1  A    between atoms: O_1  and  C_4
    2  A    between atoms: O_1  and  C_27
    3  A    between atoms: C_16  and  C_27
    4  A    between atoms: C_19  and  C_26
                            x       y       z     vdW  Elec       q    Type
                         _______ _______ _______ _____ _____    ______ ____

>  <TORSDO>
F 4

$$$$
=
 OpenBabel11052419073D

 32 37  0  0  1  0  0  0  0  0999 V2000
  189.6270  173.1690  143.0590 C   0  0  0  0  0  0  0  0  0  0  0  0
  190.7660  174.2120  142.8380 C   0  0  2  0  0  3  0  0  0  0  0  0
  190.2410  173.7650  139.9490 C   0  0  0  0  0  2  0  0  0  0  0  0
  194.6110  176.4160  142.0790 C   0  0  0  0  0  2  0  0  0  0  0  0
  191.9010  173.7020  141.9280 C   0  0  1  0  0  3  0  0  0  0  0  0
  194.5510  175.2780  139.8290 C   0  0  0  0  0  2  0  0  0  0  0  0
  193.3710  174.5270  140.3550 C   0  0  2  0  0  3  0  0  0  0  0  0
  191.5260  173.1640  140.5190 C   0  0  2  0  0  3  0  0  0  0  0  0
  190.0130  171.7000  143.1020 C   0  0  0  0  0  2  0  0  0  0  0  0
  192.6640  173.6490  139.6700 C   0  0  0  0  0  2  0  0  0  0  0  0
  188.3390  173.4050  142.5310 O   0  0  0  0  0  0  0  0  0  0  0  0
  189.5880  172.4120  144.3720 C   0  0  0  0  0  2  0  0  0  0  0  0
  192.4410  176.3670  143.7420 S   0  0  0  0  0  0  0  0  0  0  0  0
  189.1260  173.0460  140.3860 O   0  0  0  0  0  0  0  0  0  0  0  0
  191.2040  175.0270  144.1070 C   0  0  1  0  0  0  0  0  0  0  0  0
  192.8710  174.7360  141.6600 N   0  0  2  0  0  0  0  0  0  0  0  0
  188.4520  173.9340  141.2310 C   0  0  0  0  0  2  0  0  0  0  0  0
  195.4380  175.7250  140.9930 C   0  0  0  0  0  2  0  0  0  0  0  0
  193.6070  175.4380  142.6980 C   0  0  1  0  0  3  0  0  0  0  0  0
  188.1240  177.3330  144.2880 C   0  0  0  0  0  3  0  0  0  0  0  0
  188.3600  176.1870  146.4010 C   0  0  0  0  0  3  0  0  0  0  0  0
  189.9640  175.7620  144.6110 C   0  0  0  0  0  0  0  0  0  0  0  0
  187.6700  177.0880  145.5900 C   0  0  0  0  0  0  0  0  0  0  0  0
  189.4940  175.5330  145.9180 C   0  0  0  0  0  3  0  0  0  0  0  0
  189.2600  176.6840  143.7970 C   0  0  0  0  0  0  0  0  0  0  0  0
  189.6790  176.9630  142.5010 O   0  0  0  0  0  1  0  0  0  0  0  0
  185.3030  176.7910  146.2770 C   0  0  0  0  0  1  0  0  0  0  0  0
  186.0600  178.8680  145.2640 N   0  0  0  0  0  1  0  0  0  0  0  0
  186.4530  177.7700  146.1290 C   0  0  2  0  0  3  0  0  0  0  0  0
  191.6740  174.1880  145.1600 O   0  0  0  0  0  0  0  0  0  0  0  0
  192.9290  174.6010  145.6290 C   0  0  0  0  0  2  0  0  0  0  0  0
  193.8400  173.3980  145.7600 C   0  0  0  0  0  1  0  0  0  0  0  0
  1  9  1  0  0  0  0
  1 12  1  0  0  0  0
  2  1  1  1  0  0  0
  2 15  1  0  0  0  0
  3 14  1  0  0  0  0
  3  8  1  0  0  0  0
  4 19  1  0  0  0  0
  5  2  1  0  0  0  0
  6  7  1  0  0  0  0
  6 18  1  0  0  0  0
  7 16  1  0  0  0  0
  8  5  1  0  0  0  0
  9 12  1  0  0  0  0
 10  7  1  0  0  0  0
 10  8  1  0  0  0  0
 11  1  1  0  0  0  0
 13 15  1  0  0  0  0
 14 17  1  0  0  0  0
 15 22  1  0  0  0  0
 15 30  1  0  0  0  0
 16  5  1  0  0  0  0
 16 19  1  0  0  0  0
 17 11  1  0  0  0  0
 18  4  1  0  0  0  0
 19 13  1  0  0  0  0
 20 23  1  0  0  0  0
 22 24  2  0  0  0  0
 23 29  1  0  0  0  0
 23 21  2  0  0  0  0
 24 21  1  0  0  0  0
 25 20  2  0  0  0  0
 25 22  1  0  0  0  0
 26 25  1  0  0  0  0
 28 29  1  0  0  0  0
 29 27  1  0  0  0  0
 30 31  1  0  0  0  0
 31 32  1  0  0  0  0
M  END
>  <MODEL>
5

>  <REMARK>
 VINA RESULT:      -6.9      1.935      6.947
  Name = 
  4 active torsions:
  status: ('A' for Active; 'I' for Inactive)
    1  A    between atoms: O_1  and  C_4
    2  A    between atoms: O_1  and  C_27
    3  A    between atoms: C_16  and  C_27
    4  A    between atoms: C_19  and  C_26
                            x       y       z     vdW  Elec       q    Type
                         _______ _______ _______ _____ _____    ______ ____

>  <TORSDO>
F 4

$$$$
=
 OpenBabel11052419073D

 32 37  0  0  1  0  0  0  0  0999 V2000
  194.1000  173.5200  144.5040 C   0  0  0  0  0  0  0  0  0  0  0  0
  192.8730  174.4470  144.2410 C   0  0  2  0  0  3  0  0  0  0  0  0
  194.0460  176.1470  146.3750 C   0  0  0  0  0  2  0  0  0  0  0  0
  188.9530  176.6500  144.2620 C   0  0  0  0  0  2  0  0  0  0  0  0
  192.0500  174.7550  145.5070 C   0  0  1  0  0  3  0  0  0  0  0  0
  189.6630  177.4220  146.5560 C   0  0  0  0  0  2  0  0  0  0  0  0
  190.8170  176.4870  146.4010 C   0  0  2  0  0  3  0  0  0  0  0  0
  192.7910  175.3540  146.7350 C   0  0  2  0  0  3  0  0  0  0  0  0
  193.9630  172.4560  145.5810 C   0  0  0  0  0  2  0  0  0  0  0  0
  191.7860  176.3260  147.2810 C   0  0  0  0  0  2  0  0  0  0  0  0
  195.4110  174.0250  144.3630 O   0  0  0  0  0  0  0  0  0  0  0  0
  193.9940  172.0580  144.1170 C   0  0  0  0  0  2  0  0  0  0  0  0
  190.7130  175.3880  142.5930 S   0  0  0  0  0  0  0  0  0  0  0  0
  195.1520  175.2990  146.2760 O   0  0  0  0  0  0  0  0  0  0  0  0
  192.0540  174.1460  142.9350 C   0  0  1  0  0  0  0  0  0  0  0  0
  190.9970  175.7050  145.2380 N   0  0  2  0  0  0  0  0  0  0  0  0
  195.4810  175.3170  144.9160 C   0  0  0  0  0  2  0  0  0  0  0  0
  188.4940  176.9460  145.6910 C   0  0  0  0  0  2  0  0  0  0  0  0
  189.9570  175.4930  144.2450 C   0  0  1  0  0  3  0  0  0  0  0  0
  194.6250  175.5650  140.4420 C   0  0  0  0  0  3  0  0  0  0  0  0
  194.1080  173.2900  139.8130 C   0  0  0  0  0  3  0  0  0  0  0  0
  193.0240  174.2800  141.7630 C   0  0  0  0  0  0  0  0  0  0  0  0
  194.8130  174.4720  139.5860 C   0  0  0  0  0  0  0  0  0  0  0  0
  193.2240  173.1960  140.8880 C   0  0  0  0  0  3  0  0  0  0  0  0
  193.7400  175.4790  141.5190 C   0  0  0  0  0  0  0  0  0  0  0  0
  193.5790  176.5900  142.3400 O   0  0  0  0  0  1  0  0  0  0  0  0
  197.0370  175.2680  138.8230 C   0  0  0  0  0  1  0  0  0  0  0  0
  195.1390  175.2160  137.3040 N   0  0  0  0  0  1  0  0  0  0  0  0
  195.7610  174.5460  138.4310 C   0  0  2  0  0  3  0  0  0  0  0  0
  191.5240  172.8220  142.9150 O   0  0  0  0  0  0  0  0  0  0  0  0
  190.2070  172.8000  142.4370 C   0  0  0  0  0  2  0  0  0  0  0  0
  189.3480  171.9630  143.3630 C   0  0  0  0  0  1  0  0  0  0  0  0
  1  9  1  0  0  0  0
  2  1  1  1  0  0  0
  2  5  1  0  0  0  0
  3  8  1  0  0  0  0
  4 18  1  0  0  0  0
  5  8  1  0  0  0  0
  7  6  1  0  0  0  0
  7 10  1  0  0  0  0
  8 10  1  0  0  0  0
 11  1  1  0  0  0  0
 11 17  1  0  0  0  0
 12  1  1  0  0  0  0
 12  9  1  0  0  0  0
 13 15  1  0  0  0  0
 13 19  1  0  0  0  0
 14  3  1  0  0  0  0
 15  2  1  0  0  0  0
 16  5  1  0  0  0  0
 16  7  1  0  0  0  0
 17 14  1  0  0  0  0
 18  6  1  0  0  0  0
 19  4  1  0  0  0  0
 19 16  1  0  0  0  0
 20 25  1  0  0  0  0
 21 24  2  0  0  0  0
 22 15  1  0  0  0  0
 23 21  1  0  0  0  0
 23 20  2  0  0  0  0
 24 22  1  0  0  0  0
 25 22  2  0  0  0  0
 25 26  1  0  0  0  0
 28 29  1  0  0  0  0
 29 27  1  0  0  0  0
 29 23  1  0  0  0  0
 30 15  1  0  0  0  0
 31 30  1  0  0  0  0
 31 32  1  0  0  0  0
M  END
>  <MODEL>
6

>  <REMARK>
 VINA RESULT:      -6.3      2.554      3.786
  Name = 
  4 active torsions:
  status: ('A' for Active; 'I' for Inactive)
    1  A    between atoms: O_1  and  C_4
    2  A    between atoms: O_1  and  C_27
    3  A    between atoms: C_16  and  C_27
    4  A    between atoms: C_19  and  C_26
                            x       y       z     vdW  Elec       q    Type
                         _______ _______ _______ _____ _____    ______ ____

>  <TORSDO>
F 4

$$$$
=
 OpenBabel11052419073D

 32 37  0  0  1  0  0  0  0  0999 V2000
  192.9320  176.1240  143.7890 C   0  0  0  0  0  0  0  0  0  0  0  0
  192.6730  174.6310  144.1620 C   0  0  2  0  0  3  0  0  0  0  0  0
  194.8550  175.0320  146.1370 C   0  0  0  0  0  2  0  0  0  0  0  0
  192.6930  170.1600  144.6380 C   0  0  0  0  0  2  0  0  0  0  0  0
  193.9360  173.7510  144.0910 C   0  0  1  0  0  3  0  0  0  0  0  0
  195.0100  170.5010  145.5730 C   0  0  0  0  0  2  0  0  0  0  0  0
  194.8500  171.9310  145.1740 C   0  0  2  0  0  3  0  0  0  0  0  0
  195.1840  174.1910  144.9040 C   0  0  2  0  0  3  0  0  0  0  0  0
  193.9850  176.4160  142.7330 C   0  0  0  0  0  2  0  0  0  0  0  0
  195.7380  172.8830  145.3880 C   0  0  0  0  0  2  0  0  0  0  0  0
  192.8160  177.1300  144.7730 O   0  0  0  0  0  0  0  0  0  0  0  0
  192.5140  176.6050  142.4130 C   0  0  0  0  0  2  0  0  0  0  0  0
  191.0190  172.2800  144.2120 S   0  0  0  0  0  0  0  0  0  0  0  0
  194.7510  176.3840  145.7970 O   0  0  0  0  0  0  0  0  0  0  0  0
  191.3520  174.0010  143.5930 C   0  0  1  0  0  0  0  0  0  0  0  0
  193.6740  172.4090  144.5540 N   0  0  2  0  0  0  0  0  0  0  0  0
  193.3970  176.6820  145.9750 C   0  0  0  0  0  2  0  0  0  0  0  0
  194.1230  169.6170  144.6940 C   0  0  0  0  0  2  0  0  0  0  0  0
  192.6650  171.5390  143.9720 C   0  0  1  0  0  3  0  0  0  0  0  0
  188.9410  175.8420  145.9670 C   0  0  0  0  0  3  0  0  0  0  0  0
  188.2130  176.2010  143.6920 C   0  0  0  0  0  3  0  0  0  0  0  0
  190.1940  174.8430  144.1260 C   0  0  0  0  0  0  0  0  0  0  0  0
  188.0410  176.4160  145.0590 C   0  0  0  0  0  0  0  0  0  0  0  0
  189.2760  175.4230  143.2310 C   0  0  0  0  0  3  0  0  0  0  0  0
  190.0070  175.0610  145.5140 C   0  0  0  0  0  0  0  0  0  0  0  0
  190.8720  174.5070  146.4500 O   0  0  0  0  0  1  0  0  0  0  0  0
  186.4250  176.8160  146.9000 C   0  0  0  0  0  1  0  0  0  0  0  0
  185.7990  177.1980  144.5820 N   0  0  0  0  0  1  0  0  0  0  0  0
  186.8990  177.2590  145.5280 C   0  0  2  0  0  3  0  0  0  0  0  0
  191.2990  174.0380  142.1680 O   0  0  0  0  0  0  0  0  0  0  0  0
  190.7490  172.8610  141.6410 C   0  0  0  0  0  2  0  0  0  0  0  0
  190.0710  173.1670  140.3220 C   0  0  0  0  0  1  0  0  0  0  0  0
  1 11  1  0  0  0  0
  2  1  1  6  0  0  0
  4 18  1  0  0  0  0
  5  2  1  0  0  0  0
  5 16  1  0  0  0  0
  5  8  1  0  0  0  0
  7 10  1  0  0  0  0
  7  6  1  0  0  0  0
  8 10  1  0  0  0  0
  8  3  1  0  0  0  0
  9  1  1  0  0  0  0
 11 17  1  0  0  0  0
 12  9  1  0  0  0  0
 12  1  1  0  0  0  0
 14 17  1  0  0  0  0
 14  3  1  0  0  0  0
 15 22  1  0  0  0  0
 15  2  1  0  0  0  0
 15 13  1  0  0  0  0
 16  7  1  0  0  0  0
 18  6  1  0  0  0  0
 19 13  1  0  0  0  0
 19 16  1  0  0  0  0
 19  4  1  0  0  0  0
 21 23  1  0  0  0  0
 22 25  2  0  0  0  0
 23 29  1  0  0  0  0
 23 20  2  0  0  0  0
 24 21  2  0  0  0  0
 24 22  1  0  0  0  0
 25 20  1  0  0  0  0
 25 26  1  0  0  0  0
 28 29  1  0  0  0  0
 29 27  1  0  0  0  0
 30 15  1  0  0  0  0
 31 30  1  0  0  0  0
 32 31  1  0  0  0  0
M  END
>  <MODEL>
7

>  <REMARK>
 VINA RESULT:      -6.3      2.885      6.932
  Name = 
  4 active torsions:
  status: ('A' for Active; 'I' for Inactive)
    1  A    between atoms: O_1  and  C_4
    2  A    between atoms: O_1  and  C_27
    3  A    between atoms: C_16  and  C_27
    4  A    between atoms: C_19  and  C_26
                            x       y       z     vdW  Elec       q    Type
                         _______ _______ _______ _____ _____    ______ ____

>  <TORSDO>
F 4

$$$$
=
 OpenBabel11052419073D

 32 37  0  0  1  0  0  0  0  0999 V2000
  193.9090  174.3190  142.4550 C   0  0  0  0  0  0  0  0  0  0  0  0
  193.0090  174.5930  143.6990 C   0  0  2  0  0  3  0  0  0  0  0  0
  190.7800  173.7340  141.9330 C   0  0  0  0  0  2  0  0  0  0  0  0
  190.2470  176.2460  146.8390 C   0  0  0  0  0  2  0  0  0  0  0  0
  191.8450  175.5620  143.4160 C   0  0  1  0  0  3  0  0  0  0  0  0
  188.5400  176.2950  144.9830 C   0  0  0  0  0  2  0  0  0  0  0  0
  189.6610  175.8990  144.0790 C   0  0  2  0  0  3  0  0  0  0  0  0
  190.8780  175.2270  142.2470 C   0  0  2  0  0  3  0  0  0  0  0  0
  194.1090  175.4540  141.4640 C   0  0  0  0  0  2  0  0  0  0  0  0
  189.5470  175.6610  142.7880 C   0  0  0  0  0  2  0  0  0  0  0  0
  193.9300  173.0360  141.8650 O   0  0  0  0  0  0  0  0  0  0  0  0
  195.2490  175.0220  142.3670 C   0  0  0  0  0  2  0  0  0  0  0  0
  192.6300  174.9420  146.5280 S   0  0  0  0  0  0  0  0  0  0  0  0
  191.7900  173.3510  141.0470 O   0  0  0  0  0  0  0  0  0  0  0  0
  193.7640  174.7900  145.0620 C   0  0  1  0  0  0  0  0  0  0  0  0
  190.9750  175.6950  144.5600 N   0  0  2  0  0  0  0  0  0  0  0  0
  192.6210  172.5220  141.8080 C   0  0  0  0  0  2  0  0  0  0  0  0
  189.0960  177.0290  146.2050 C   0  0  0  0  0  2  0  0  0  0  0  0
  191.4270  176.1390  145.8680 C   0  0  1  0  0  3  0  0  0  0  0  0
  194.7270  171.0850  145.4900 C   0  0  0  0  0  3  0  0  0  0  0  0
  196.6950  172.4430  145.8370 C   0  0  0  0  0  3  0  0  0  0  0  0
  194.5650  173.5140  145.3130 C   0  0  0  0  0  0  0  0  0  0  0  0
  196.0950  171.1850  145.7770 C   0  0  0  0  0  0  0  0  0  0  0  0
  195.9390  173.5930  145.6090 C   0  0  0  0  0  3  0  0  0  0  0  0
  193.9630  172.2320  145.2620 C   0  0  0  0  0  0  0  0  0  0  0  0
  192.6090  172.0860  144.9860 O   0  0  0  0  0  1  0  0  0  0  0  0
  196.7110  168.9370  144.9250 C   0  0  0  0  0  1  0  0  0  0  0  0
  196.6190  169.3870  147.3130 N   0  0  0  0  0  1  0  0  0  0  0  0
  196.9280  169.9670  146.0190 C   0  0  2  0  0  3  0  0  0  0  0  0
  194.6810  175.8820  145.0250 O   0  0  0  0  0  0  0  0  0  0  0  0
  194.5720  176.6870  146.1680 C   0  0  0  0  0  2  0  0  0  0  0  0
  194.9530  178.1110  145.8200 C   0  0  0  0  0  1  0  0  0  0  0  0
  2  1  1  6  0  0  0
  2 15  1  0  0  0  0
  3  8  1  0  0  0  0
  5  2  1  0  0  0  0
  5 16  1  0  0  0  0
  6 18  1  0  0  0  0
  7 16  1  0  0  0  0
  7  6  1  0  0  0  0
  8 10  1  0  0  0  0
  8  5  1  0  0  0  0
  9 12  1  0  0  0  0
  9  1  1  0  0  0  0
 10  7  1  0  0  0  0
 11  1  1  0  0  0  0
 12  1  1  0  0  0  0
 14 17  1  0  0  0  0
 14  3  1  0  0  0  0
 15 22  1  0  0  0  0
 15 13  1  0  0  0  0
 16 19  1  0  0  0  0
 17 11  1  0  0  0  0
 18  4  1  0  0  0  0
 19 13  1  0  0  0  0
 19  4  1  0  0  0  0
 20 23  1  0  0  0  0
 22 24  2  0  0  0  0
 23 21  2  0  0  0  0
 23 29  1  0  0  0  0
 24 21  1  0  0  0  0
 25 22  1  0  0  0  0
 25 20  2  0  0  0  0
 26 25  1  0  0  0  0
 27 29  1  0  0  0  0
 29 28  1  0  0  0  0
 30 15  1  0  0  0  0
 30 31  1  0  0  0  0
 32 31  1  0  0  0  0
M  END
>  <MODEL>
8

>  <REMARK>
 VINA RESULT:      -6.3      3.726      6.105
  Name = 
  4 active torsions:
  status: ('A' for Active; 'I' for Inactive)
    1  A    between atoms: O_1  and  C_4
    2  A    between atoms: O_1  and  C_27
    3  A    between atoms: C_16  and  C_27
    4  A    between atoms: C_19  and  C_26
                            x       y       z     vdW  Elec       q    Type
                         _______ _______ _______ _____ _____    ______ ____

>  <TORSDO>
F 4

$$$$
=
 OpenBabel11052419073D

 32 37  0  0  1  0  0  0  0  0999 V2000
  193.6620  175.7340  143.4490 C   0  0  0  0  0  0  0  0  0  0  0  0
  193.4440  174.2630  143.9210 C   0  0  2  0  0  3  0  0  0  0  0  0
  195.2370  175.0090  146.1680 C   0  0  0  0  0  2  0  0  0  0  0  0
  193.6820  169.8660  144.8320 C   0  0  0  0  0  2  0  0  0  0  0  0
  194.7570  173.4850  144.1380 C   0  0  1  0  0  3  0  0  0  0  0  0
  195.7850  170.4740  146.0850 C   0  0  0  0  0  2  0  0  0  0  0  0
  195.5980  171.8470  145.5270 C   0  0  2  0  0  3  0  0  0  0  0  0
  195.8220  174.0940  145.0920 C   0  0  2  0  0  3  0  0  0  0  0  0
  194.8530  176.0180  142.5490 C   0  0  0  0  0  2  0  0  0  0  0  0
  196.3730  172.8820  145.7840 C   0  0  0  0  0  2  0  0  0  0  0  0
  193.3180  176.8080  144.2980 O   0  0  0  0  0  0  0  0  0  0  0  0
  193.4470  176.0590  141.9840 C   0  0  0  0  0  2  0  0  0  0  0  0
  191.9650  171.7970  143.9390 S   0  0  0  0  0  0  0  0  0  0  0  0
  195.1030  176.3130  145.6840 O   0  0  0  0  0  0  0  0  0  0  0  0
  192.2800  173.4810  143.2140 C   0  0  1  0  0  0  0  0  0  0  0  0
  194.5120  172.1710  144.6830 N   0  0  2  0  0  0  0  0  0  0  0  0
  193.7200  176.5140  145.6150 C   0  0  0  0  0  2  0  0  0  0  0  0
  195.1150  169.4480  145.1680 C   0  0  0  0  0  2  0  0  0  0  0  0
  193.6730  171.1760  144.0370 C   0  0  1  0  0  3  0  0  0  0  0  0
  189.3850  175.3030  144.9840 C   0  0  0  0  0  3  0  0  0  0  0  0
  189.0390  175.4320  142.5970 C   0  0  0  0  0  3  0  0  0  0  0  0
  190.9970  174.2680  143.4720 C   0  0  0  0  0  0  0  0  0  0  0  0
  188.6200  175.7360  143.8920 C   0  0  0  0  0  0  0  0  0  0  0  0
  190.2120  174.7070  142.3890 C   0  0  0  0  0  3  0  0  0  0  0  0
  190.5600  174.5750  144.7850 C   0  0  0  0  0  0  0  0  0  0  0  0
  191.2840  174.1610  145.8970 O   0  0  0  0  0  1  0  0  0  0  0  0
  187.4490  177.8650  143.3880 C   0  0  0  0  0  1  0  0  0  0  0  0
  187.0990  176.7150  145.5030 N   0  0  0  0  0  1  0  0  0  0  0  0
  187.3630  176.5210  144.0890 C   0  0  2  0  0  3  0  0  0  0  0  0
  192.4620  173.3890  141.8030 O   0  0  0  0  0  0  0  0  0  0  0  0
  192.1980  172.0960  141.3300 C   0  0  0  0  0  2  0  0  0  0  0  0
  193.2500  171.7070  140.3110 C   0  0  0  0  0  1  0  0  0  0  0  0
  1 11  1  0  0  0  0
  2  1  1  6  0  0  0
  2  5  1  0  0  0  0
  4 18  1  0  0  0  0
  5 16  1  0  0  0  0
  5  8  1  0  0  0  0
  7 10  1  0  0  0  0
  7  6  1  0  0  0  0
  8 10  1  0  0  0  0
  8  3  1  0  0  0  0
  9  1  1  0  0  0  0
 11 17  1  0  0  0  0
 12  9  1  0  0  0  0
 12  1  1  0  0  0  0
 13 19  1  0  0  0  0
 14  3  1  0  0  0  0
 15 22  1  0  0  0  0
 15  2  1  0  0  0  0
 15 13  1  0  0  0  0
 16  7  1  0  0  0  0
 17 14  1  0  0  0  0
 18  6  1  0  0  0  0
 19 16  1  0  0  0  0
 19  4  1  0  0  0  0
 21 23  1  0  0  0  0
 22 25  2  0  0  0  0
 23 29  1  0  0  0  0
 23 20  2  0  0  0  0
 24 21  2  0  0  0  0
 24 22  1  0  0  0  0
 25 20  1  0  0  0  0
 25 26  1  0  0  0  0
 27 29  1  0  0  0  0
 29 28  1  0  0  0  0
 30 15  1  0  0  0  0
 31 30  1  0  0  0  0
 32 31  1  0  0  0  0
M  END
>  <MODEL>
9

>  <REMARK>
 VINA RESULT:      -6.0      3.191      7.187
  Name = 
  4 active torsions:
  status: ('A' for Active; 'I' for Inactive)
    1  A    between atoms: O_1  and  C_4
    2  A    between atoms: O_1  and  C_27
    3  A    between atoms: C_16  and  C_27
    4  A    between atoms: C_19  and  C_26
                            x       y       z     vdW  Elec       q    Type
                         _______ _______ _______ _____ _____    ______ ____

>  <TORSDO>
F 4

$$$$
