=
 OpenBabel11052418223D

 27 32  0  0  1  0  0  0  0  0999 V2000
  190.4480  174.6220  144.2020 C   0  0  0  0  0  2  0  0  0  0  0  0
  189.7760  176.4580  145.8000 C   0  0  1  0  0  3  0  0  0  0  0  0
  189.6990  177.7990  143.5080 C   0  0  0  0  0  2  0  0  0  0  0  0
  186.0440  178.1650  145.8760 N   0  0  0  0  0  0  0  0  0  0  0  0
  184.6860  179.1870  144.6440 N   0  0  0  0  0  0  0  0  0  0  0  0
  188.7200  175.5510  146.5120 C   0  0  0  0  0  2  0  0  0  0  0  0
  186.7300  178.6170  144.8310 C   0  0  0  0  0  0  0  0  0  0  0  0
  187.1960  176.6530  140.9100 C   0  0  0  0  0  3  0  0  0  0  0  0
  185.9080  179.2930  143.9800 C   0  0  0  0  0  3  0  0  0  0  0  0
  187.6650  175.3760  140.5940 C   0  0  0  0  0  3  0  0  0  0  0  0
  188.0040  177.9600  145.2890 C   0  0  1  0  0  3  0  0  0  0  0  0
  190.8260  175.6670  145.1540 N   0  0  0  0  0  0  0  0  0  0  0  0
  184.7840  178.4930  145.8000 N   0  0  0  0  0  0  0  0  0  0  0  0
  187.2420  177.6310  146.4320 C   0  0  2  0  0  3  0  0  0  0  0  0
  190.7320  175.0800  142.7790 C   0  0  0  0  0  2  0  0  0  0  0  0
  189.1760  177.5030  144.8820 C   0  0  1  0  0  3  0  0  0  0  0  0
  187.8740  177.4310  141.8500 C   0  0  0  0  0  3  0  0  0  0  0  0
  187.2620  176.1000  146.5160 C   0  0  0  0  0  2  0  0  0  0  0  0
  188.8130  174.8800  141.2140 C   0  0  0  0  0  3  0  0  0  0  0  0
  189.5030  175.6550  142.1540 C   0  0  0  0  0  0  0  0  0  0  0  0
  189.0270  176.9430  142.4780 C   0  0  0  0  0  0  0  0  0  0  0  0
  194.8580  176.3510  146.0980 N   0  0  0  0  0  0  0  0  0  0  0  0
  192.2120  175.9080  145.4740 C   0  0  0  0  0  0  0  0  0  0  0  0
  192.8760  177.0380  144.9810 C   0  0  0  0  0  3  0  0  0  0  0  0
  194.2130  177.2470  145.3070 C   0  0  0  0  0  3  0  0  0  0  0  0
  194.2350  175.2720  146.5750 N   0  0  0  0  0  0  0  0  0  0  0  0
  192.9300  175.0220  146.2870 C   0  0  0  0  0  3  0  0  0  0  0  0
  1 12  1  0  0  0  0
  2  6  1  6  0  0  0
  4 14  1  0  0  0  0
  5 13  2  0  0  0  0
  6 18  1  0  0  0  0
  7  4  1  0  0  0  0
  8 17  1  0  0  0  0
  9  5  1  0  0  0  0
  9  7  2  0  0  0  0
 10  8  2  0  0  0  0
 10 19  1  0  0  0  0
 11  7  1  6  0  0  0
 11 14  1  0  0  0  0
 12 23  1  0  0  0  0
 12  2  1  0  0  0  0
 13  4  1  0  0  0  0
 14 18  1  6  0  0  0
 15  1  1  0  0  0  0
 16  3  1  6  0  0  0
 16 11  1  0  0  0  0
 16  2  1  0  0  0  0
 17 21  2  0  0  0  0
 19 20  2  0  0  0  0
 20 21  1  0  0  0  0
 20 15  1  0  0  0  0
 21  3  1  0  0  0  0
 22 26  1  0  0  0  0
 23 27  1  0  0  0  0
 24 25  1  0  0  0  0
 24 23  2  0  0  0  0
 25 22  2  0  0  0  0
 27 26  2  0  0  0  0
M  END
>  <MODEL>
1

>  <REMARK>
 VINA RESULT:      -7.8      0.000      0.000
  Name = 
  1 active torsions:
  status: ('A' for Active; 'I' for Inactive)
    1  A    between atoms: C_9  and  N_15
                            x       y       z     vdW  Elec       q    Type
                         _______ _______ _______ _____ _____    ______ ____

>  <TORSDO>
F 1

$$$$
=
 OpenBabel11052418223D

 27 32  0  0  1  0  0  0  0  0999 V2000
  187.8590  177.0960  142.9150 C   0  0  0  0  0  2  0  0  0  0  0  0
  189.5890  177.3120  144.7410 C   0  0  1  0  0  3  0  0  0  0  0  0
  189.3470  174.6680  144.6550 C   0  0  0  0  0  2  0  0  0  0  0  0
  193.4790  176.0590  144.3590 N   0  0  0  0  0  0  0  0  0  0  0  0
  194.6130  174.3440  143.9370 N   0  0  0  0  0  0  0  0  0  0  0  0
  190.4570  178.3060  143.9020 C   0  0  0  0  0  2  0  0  0  0  0  0
  192.6790  175.0120  144.5290 C   0  0  0  0  0  0  0  0  0  0  0  0
  190.3220  172.9410  141.4310 C   0  0  0  0  0  3  0  0  0  0  0  0
  193.3490  173.8540  144.2690 C   0  0  0  0  0  3  0  0  0  0  0  0
  189.3800  173.4440  140.5310 C   0  0  0  0  0  3  0  0  0  0  0  0
  191.4860  175.8790  144.8280 C   0  0  1  0  0  3  0  0  0  0  0  0
  188.1860  177.3270  144.3220 N   0  0  0  0  0  0  0  0  0  0  0  0
  194.6770  175.6920  143.9960 N   0  0  0  0  0  0  0  0  0  0  0  0
  192.4270  176.9310  144.7620 C   0  0  2  0  0  3  0  0  0  0  0  0
  187.2910  175.6970  142.7290 C   0  0  0  0  0  2  0  0  0  0  0  0
  190.1640  175.9130  144.8300 C   0  0  1  0  0  3  0  0  0  0  0  0
  190.2910  173.3390  142.7680 C   0  0  0  0  0  3  0  0  0  0  0  0
  191.9290  177.8620  143.6520 C   0  0  0  0  0  2  0  0  0  0  0  0
  188.4040  174.3410  140.9700 C   0  0  0  0  0  3  0  0  0  0  0  0
  188.3620  174.7430  142.3100 C   0  0  0  0  0  0  0  0  0  0  0  0
  189.3170  174.2400  143.2190 C   0  0  0  0  0  0  0  0  0  0  0  0
  185.1560  178.0970  147.1220 N   0  0  0  0  0  0  0  0  0  0  0  0
  187.1470  177.5850  145.2890 C   0  0  0  0  0  0  0  0  0  0  0  0
  187.0380  176.8110  146.4500 C   0  0  0  0  0  3  0  0  0  0  0  0
  186.0260  177.0840  147.3670 C   0  0  0  0  0  3  0  0  0  0  0  0
  185.2510  178.8430  146.0190 N   0  0  0  0  0  0  0  0  0  0  0  0
  186.2200  178.6180  145.0940 C   0  0  0  0  0  3  0  0  0  0  0  0
  1 12  1  0  0  0  0
  2  6  1  6  0  0  0
  2 16  1  0  0  0  0
  4  7  1  0  0  0  0
  4 14  1  0  0  0  0
  5 13  2  0  0  0  0
  5  9  1  0  0  0  0
  8 17  1  0  0  0  0
  9  7  2  0  0  0  0
 10 19  1  0  0  0  0
 10  8  2  0  0  0  0
 11  7  1  6  0  0  0
 11 16  1  0  0  0  0
 12  2  1  0  0  0  0
 12 23  1  0  0  0  0
 13  4  1  0  0  0  0
 14 18  1  6  0  0  0
 14 11  1  0  0  0  0
 15  1  1  0  0  0  0
 16  3  1  6  0  0  0
 17 21  2  0  0  0  0
 18  6  1  0  0  0  0
 19 20  2  0  0  0  0
 20 15  1  0  0  0  0
 20 21  1  0  0  0  0
 21  3  1  0  0  0  0
 22 25  1  0  0  0  0
 23 24  1  0  0  0  0
 24 25  2  0  0  0  0
 26 22  2  0  0  0  0
 27 23  2  0  0  0  0
 27 26  1  0  0  0  0
M  END
>  <MODEL>
2

>  <REMARK>
 VINA RESULT:      -7.8      1.614      6.177
  Name = 
  1 active torsions:
  status: ('A' for Active; 'I' for Inactive)
    1  A    between atoms: C_9  and  N_15
                            x       y       z     vdW  Elec       q    Type
                         _______ _______ _______ _____ _____    ______ ____

>  <TORSDO>
F 1

$$$$
=
 OpenBabel11052418223D

 27 32  0  0  1  0  0  0  0  0999 V2000
  190.3430  174.4280  145.4940 C   0  0  0  0  0  2  0  0  0  0  0  0
  189.5440  176.8240  145.4850 C   0  0  1  0  0  3  0  0  0  0  0  0
  189.7200  176.3930  142.8690 C   0  0  0  0  0  2  0  0  0  0  0  0
  185.8530  177.9930  144.1250 N   0  0  0  0  0  0  0  0  0  0  0  0
  184.6420  177.9260  142.4120 N   0  0  0  0  0  0  0  0  0  0  0  0
  188.4060  176.5250  146.5150 C   0  0  0  0  0  2  0  0  0  0  0  0
  186.6470  177.7120  143.0980 C   0  0  0  0  0  0  0  0  0  0  0  0
  187.4720  173.7290  141.3950 C   0  0  0  0  0  3  0  0  0  0  0  0
  185.9260  177.6480  141.9430 C   0  0  0  0  0  3  0  0  0  0  0  0
  187.9490  172.5690  142.0090 C   0  0  0  0  0  3  0  0  0  0  0  0
  187.8570  177.5630  143.9800 C   0  0  1  0  0  3  0  0  0  0  0  0
  190.6400  175.8580  145.5890 N   0  0  0  0  0  0  0  0  0  0  0  0
  184.6120  178.1340  143.7470 N   0  0  0  0  0  0  0  0  0  0  0  0
  186.9790  177.9980  144.9970 C   0  0  2  0  0  3  0  0  0  0  0  0
  190.7760  173.8900  144.1390 C   0  0  0  0  0  2  0  0  0  0  0  0
  189.0570  177.0130  144.0630 C   0  0  1  0  0  3  0  0  0  0  0  0
  188.0660  174.9610  141.6760 C   0  0  0  0  0  3  0  0  0  0  0  0
  186.9650  176.8750  146.0400 C   0  0  0  0  0  2  0  0  0  0  0  0
  189.0210  172.6410  142.9000 C   0  0  0  0  0  3  0  0  0  0  0  0
  189.6260  173.8710  143.1850 C   0  0  0  0  0  0  0  0  0  0  0  0
  189.1410  175.0440  142.5700 C   0  0  0  0  0  0  0  0  0  0  0  0
  194.5660  177.1960  146.2290 N   0  0  0  0  0  0  0  0  0  0  0  0
  191.9910  176.3180  145.8010 C   0  0  0  0  0  0  0  0  0  0  0  0
  192.7880  176.7240  144.7240 C   0  0  0  0  0  3  0  0  0  0  0  0
  194.0880  177.1660  144.9580 C   0  0  0  0  0  3  0  0  0  0  0  0
  193.8150  176.8130  147.2630 N   0  0  0  0  0  0  0  0  0  0  0  0
  192.5410  176.3740  147.0880 C   0  0  0  0  0  3  0  0  0  0  0  0
  1 12  1  0  0  0  0
  2 12  1  0  0  0  0
  2  6  1  1  0  0  0
  4 14  1  0  0  0  0
  5 13  2  0  0  0  0
  7  4  1  0  0  0  0
  8 17  2  0  0  0  0
  8 10  1  0  0  0  0
  9  5  1  0  0  0  0
  9  7  2  0  0  0  0
 10 19  2  0  0  0  0
 11  7  1  1  0  0  0
 11 16  1  0  0  0  0
 11 14  1  0  0  0  0
 12 23  1  0  0  0  0
 13  4  1  0  0  0  0
 14 18  1  1  0  0  0
 15  1  1  0  0  0  0
 16  3  1  1  0  0  0
 16  2  1  0  0  0  0
 17 21  1  0  0  0  0
 18  6  1  0  0  0  0
 19 20  1  0  0  0  0
 20 15  1  0  0  0  0
 21  3  1  0  0  0  0
 21 20  2  0  0  0  0
 22 26  1  0  0  0  0
 23 27  1  0  0  0  0
 24 25  1  0  0  0  0
 24 23  2  0  0  0  0
 25 22  2  0  0  0  0
 27 26  2  0  0  0  0
M  END
>  <MODEL>
3

>  <REMARK>
 VINA RESULT:      -7.7      1.432      1.801
  Name = 
  1 active torsions:
  status: ('A' for Active; 'I' for Inactive)
    1  A    between atoms: C_9  and  N_15
                            x       y       z     vdW  Elec       q    Type
                         _______ _______ _______ _____ _____    ______ ____

>  <TORSDO>
F 1

$$$$
=
 OpenBabel11052418223D

 27 32  0  0  1  0  0  0  0  0999 V2000
  191.8130  173.4570  144.5890 C   0  0  0  0  0  2  0  0  0  0  0  0
  191.5350  175.7520  145.6040 C   0  0  1  0  0  3  0  0  0  0  0  0
  190.6550  176.2330  143.1450 C   0  0  0  0  0  2  0  0  0  0  0  0
  187.8940  177.5240  146.2770 N   0  0  0  0  0  0  0  0  0  0  0  0
  186.1500  178.1150  145.2700 N   0  0  0  0  0  0  0  0  0  0  0  0
  190.8200  175.1840  146.8740 C   0  0  0  0  0  2  0  0  0  0  0  0
  188.1880  177.5660  144.9820 C   0  0  0  0  0  0  0  0  0  0  0  0
  187.5630  174.3650  142.0130 C   0  0  0  0  0  3  0  0  0  0  0  0
  187.0960  177.9420  144.2590 C   0  0  0  0  0  3  0  0  0  0  0  0
  188.0030  173.0410  142.0120 C   0  0  0  0  0  3  0  0  0  0  0  0
  189.5860  177.0560  145.2070 C   0  0  1  0  0  3  0  0  0  0  0  0
  192.3890  174.7480  144.9650 N   0  0  0  0  0  0  0  0  0  0  0  0
  186.6520  177.8550  146.4980 N   0  0  0  0  0  0  0  0  0  0  0  0
  189.2410  177.1660  146.5720 C   0  0  2  0  0  3  0  0  0  0  0  0
  191.6090  173.3910  143.0840 C   0  0  0  0  0  2  0  0  0  0  0  0
  190.6050  176.4440  144.6280 C   0  0  1  0  0  3  0  0  0  0  0  0
  188.4390  175.3920  142.3720 C   0  0  0  0  0  3  0  0  0  0  0  0
  189.3990  175.7560  147.1530 C   0  0  0  0  0  2  0  0  0  0  0  0
  189.3210  172.7420  142.3660 C   0  0  0  0  0  3  0  0  0  0  0  0
  190.2080  173.7640  142.7230 C   0  0  0  0  0  0  0  0  0  0  0  0
  189.7620  175.1030  142.7300 C   0  0  0  0  0  0  0  0  0  0  0  0
  196.4410  175.5880  144.2670 N   0  0  0  0  0  0  0  0  0  0  0  0
  193.7840  175.0320  144.7310 C   0  0  0  0  0  0  0  0  0  0  0  0
  194.7850  174.3030  145.3850 C   0  0  0  0  0  3  0  0  0  0  0  0
  196.1230  174.5970  145.1390 C   0  0  0  0  0  3  0  0  0  0  0  0
  195.4960  176.2880  143.6360 N   0  0  0  0  0  0  0  0  0  0  0  0
  194.1760  176.0400  143.8420 C   0  0  0  0  0  3  0  0  0  0  0  0
  1 12  1  0  0  0  0
  2  6  1  1  0  0  0
  4 13  1  0  0  0  0
  4 14  1  0  0  0  0
  5 13  2  0  0  0  0
  6 18  1  0  0  0  0
  7  4  1  0  0  0  0
  8 17  1  0  0  0  0
  9  7  2  0  0  0  0
  9  5  1  0  0  0  0
 10  8  2  0  0  0  0
 10 19  1  0  0  0  0
 11  7  1  6  0  0  0
 11 14  1  0  0  0  0
 12  2  1  0  0  0  0
 14 18  1  1  0  0  0
 15  1  1  0  0  0  0
 16  3  1  6  0  0  0
 16 11  1  0  0  0  0
 16  2  1  0  0  0  0
 17 21  2  0  0  0  0
 19 20  2  0  0  0  0
 20 21  1  0  0  0  0
 20 15  1  0  0  0  0
 21  3  1  0  0  0  0
 22 25  1  0  0  0  0
 23 12  1  0  0  0  0
 23 24  1  0  0  0  0
 25 24  2  0  0  0  0
 26 27  1  0  0  0  0
 26 22  2  0  0  0  0
 27 23  2  0  0  0  0
M  END
>  <MODEL>
4

>  <REMARK>
 VINA RESULT:      -7.5      1.720      2.295
  Name = 
  1 active torsions:
  status: ('A' for Active; 'I' for Inactive)
    1  A    between atoms: C_9  and  N_15
                            x       y       z     vdW  Elec       q    Type
                         _______ _______ _______ _____ _____    ______ ____

>  <TORSDO>
F 1

$$$$
=
 OpenBabel11052418223D

 27 32  0  0  1  0  0  0  0  0999 V2000
  189.4830  177.3030  145.3750 C   0  0  0  0  0  2  0  0  0  0  0  0
  188.7900  176.5540  143.0650 C   0  0  1  0  0  3  0  0  0  0  0  0
  186.6340  175.8380  144.4410 C   0  0  0  0  0  2  0  0  0  0  0  0
  185.7390  178.2760  140.9270 N   0  0  0  0  0  0  0  0  0  0  0  0
  183.6860  178.6960  141.0510 N   0  0  0  0  0  0  0  0  0  0  0  0
  189.2080  177.9160  142.4190 C   0  0  0  0  0  2  0  0  0  0  0  0
  185.2420  177.5060  141.8880 C   0  0  0  0  0  0  0  0  0  0  0  0
  184.6550  178.5920  146.1220 C   0  0  0  0  0  3  0  0  0  0  0  0
  183.9050  177.7260  142.0300 C   0  0  0  0  0  3  0  0  0  0  0  0
  185.5660  179.0780  147.0610 C   0  0  0  0  0  3  0  0  0  0  0  0
  186.5940  176.9460  142.2410 C   0  0  1  0  0  3  0  0  0  0  0  0
  189.5150  176.2980  144.3120 N   0  0  0  0  0  0  0  0  0  0  0  0
  184.8160  179.0230  140.3860 N   0  0  0  0  0  0  0  0  0  0  0  0
  187.0230  177.6910  141.1200 C   0  0  2  0  0  3  0  0  0  0  0  0
  188.5650  176.8500  146.5000 C   0  0  0  0  0  2  0  0  0  0  0  0
  187.2920  176.3700  143.2030 C   0  0  1  0  0  3  0  0  0  0  0  0
  185.0120  177.5320  145.2870 C   0  0  0  0  0  3  0  0  0  0  0  0
  188.0800  178.6660  141.6510 C   0  0  0  0  0  2  0  0  0  0  0  0
  186.8340  178.5020  147.1670 C   0  0  0  0  0  3  0  0  0  0  0  0
  187.2000  177.4360  146.3370 C   0  0  0  0  0  0  0  0  0  0  0  0
  186.2820  176.9480  145.3850 C   0  0  0  0  0  0  0  0  0  0  0  0
  191.7110  172.7540  144.7890 N   0  0  0  0  0  0  0  0  0  0  0  0
  190.2630  175.0750  144.4740 C   0  0  0  0  0  0  0  0  0  0  0  0
  189.6910  173.8370  144.1600 C   0  0  0  0  0  3  0  0  0  0  0  0
  190.4370  172.6730  144.3240 C   0  0  0  0  0  3  0  0  0  0  0  0
  192.2670  173.9290  145.0900 N   0  0  0  0  0  0  0  0  0  0  0  0
  191.5810  175.0940  144.9470 C   0  0  0  0  0  3  0  0  0  0  0  0
  1 15  1  0  0  0  0
  2  6  1  1  0  0  0
  2 16  1  0  0  0  0
  2 12  1  0  0  0  0
  3 21  1  0  0  0  0
  4 14  1  0  0  0  0
  4  7  1  0  0  0  0
  5  9  1  0  0  0  0
  7  9  2  0  0  0  0
  8 10  1  0  0  0  0
 10 19  2  0  0  0  0
 11  7  1  1  0  0  0
 11 16  1  0  0  0  0
 12 23  1  0  0  0  0
 12  1  1  0  0  0  0
 13  4  1  0  0  0  0
 13  5  2  0  0  0  0
 14 18  1  1  0  0  0
 14 11  1  0  0  0  0
 16  3  1  1  0  0  0
 17 21  1  0  0  0  0
 17  8  2  0  0  0  0
 18  6  1  0  0  0  0
 20 15  1  0  0  0  0
 20 19  1  0  0  0  0
 21 20  2  0  0  0  0
 22 26  1  0  0  0  0
 23 27  1  0  0  0  0
 24 25  1  0  0  0  0
 24 23  2  0  0  0  0
 25 22  2  0  0  0  0
 27 26  2  0  0  0  0
M  END
>  <MODEL>
5

>  <REMARK>
 VINA RESULT:      -7.5      2.281      4.552
  Name = 
  1 active torsions:
  status: ('A' for Active; 'I' for Inactive)
    1  A    between atoms: C_9  and  N_15
                            x       y       z     vdW  Elec       q    Type
                         _______ _______ _______ _____ _____    ______ ____

>  <TORSDO>
F 1

$$$$
=
 OpenBabel11052418223D

 27 32  0  0  1  0  0  0  0  0999 V2000
  188.0610  176.1670  141.9450 C   0  0  0  0  0  2  0  0  0  0  0  0
  189.1990  177.5190  143.7490 C   0  0  1  0  0  3  0  0  0  0  0  0
  188.9420  175.1970  145.0140 C   0  0  0  0  0  2  0  0  0  0  0  0
  193.0100  176.7900  145.0850 N   0  0  0  0  0  0  0  0  0  0  0  0
  194.1850  175.2730  145.9360 N   0  0  0  0  0  0  0  0  0  0  0  0
  190.2890  178.0520  142.7630 C   0  0  0  0  0  2  0  0  0  0  0  0
  192.1760  175.8790  145.5740 C   0  0  0  0  0  0  0  0  0  0  0  0
  190.7670  172.2170  143.5600 C   0  0  0  0  0  3  0  0  0  0  0  0
  192.8700  174.8550  146.1440 C   0  0  0  0  0  3  0  0  0  0  0  0
  190.1330  172.0560  142.3270 C   0  0  0  0  0  3  0  0  0  0  0  0
  190.9630  176.6060  145.0560 C   0  0  1  0  0  3  0  0  0  0  0  0
  187.9750  177.1260  143.0460 N   0  0  0  0  0  0  0  0  0  0  0  0
  194.2550  176.4570  145.2870 N   0  0  0  0  0  0  0  0  0  0  0  0
  191.9040  177.5920  144.6850 C   0  0  2  0  0  3  0  0  0  0  0  0
  187.5440  174.8070  142.3900 C   0  0  0  0  0  2  0  0  0  0  0  0
  189.6980  176.4550  144.7050 C   0  0  1  0  0  3  0  0  0  0  0  0
  190.3620  173.2340  144.4260 C   0  0  0  0  0  3  0  0  0  0  0  0
  191.7620  177.7480  143.1670 C   0  0  0  0  0  2  0  0  0  0  0  0
  189.0890  172.9100  141.9620 C   0  0  0  0  0  3  0  0  0  0  0  0
  188.6720  173.9290  142.8250 C   0  0  0  0  0  0  0  0  0  0  0  0
  189.3170  174.0960  144.0690 C   0  0  0  0  0  0  0  0  0  0  0  0
  184.2790  178.7840  144.1420 N   0  0  0  0  0  0  0  0  0  0  0  0
  186.7070  177.6980  143.4300 C   0  0  0  0  0  0  0  0  0  0  0  0
  186.5380  178.2920  144.6870 C   0  0  0  0  0  3  0  0  0  0  0  0
  185.3040  178.8370  145.0300 C   0  0  0  0  0  3  0  0  0  0  0  0
  184.4280  178.2220  142.9410 N   0  0  0  0  0  0  0  0  0  0  0  0
  185.6120  177.6760  142.5570 C   0  0  0  0  0  3  0  0  0  0  0  0
  1 15  1  0  0  0  0
  1 12  1  0  0  0  0
  2  6  1  6  0  0  0
  2 16  1  0  0  0  0
  4 13  1  0  0  0  0
  4  7  1  0  0  0  0
  5  9  1  0  0  0  0
  6 18  1  0  0  0  0
  7  9  2  0  0  0  0
  8 17  1  0  0  0  0
 10  8  2  0  0  0  0
 11  7  1  6  0  0  0
 12 23  1  0  0  0  0
 12  2  1  0  0  0  0
 13  5  2  0  0  0  0
 14 18  1  6  0  0  0
 14 11  1  0  0  0  0
 14  4  1  0  0  0  0
 15 20  1  0  0  0  0
 16  3  1  6  0  0  0
 16 11  1  0  0  0  0
 19 10  1  0  0  0  0
 19 20  2  0  0  0  0
 20 21  1  0  0  0  0
 21 17  2  0  0  0  0
 21  3  1  0  0  0  0
 22 25  1  0  0  0  0
 23 24  1  0  0  0  0
 24 25  2  0  0  0  0
 26 22  2  0  0  0  0
 27 26  1  0  0  0  0
 27 23  2  0  0  0  0
M  END
>  <MODEL>
6

>  <REMARK>
 VINA RESULT:      -7.4      1.697      6.369
  Name = 
  1 active torsions:
  status: ('A' for Active; 'I' for Inactive)
    1  A    between atoms: C_9  and  N_15
                            x       y       z     vdW  Elec       q    Type
                         _______ _______ _______ _____ _____    ______ ____

>  <TORSDO>
F 1

$$$$
=
 OpenBabel11052418223D

 27 32  0  0  1  0  0  0  0  0999 V2000
  187.8580  176.0410  146.0320 C   0  0  0  0  0  2  0  0  0  0  0  0
  188.2190  176.1360  143.5340 C   0  0  1  0  0  3  0  0  0  0  0  0
  190.1950  177.7170  144.3400 C   0  0  0  0  0  2  0  0  0  0  0  0
  191.4870  174.5340  141.6380 N   0  0  0  0  0  0  0  0  0  0  0  0
  193.5840  174.6420  141.6160 N   0  0  0  0  0  0  0  0  0  0  0  0
  188.1220  174.5820  143.3880 C   0  0  0  0  0  2  0  0  0  0  0  0
  191.8250  175.6640  142.2500 C   0  0  0  0  0  0  0  0  0  0  0  0
  192.8880  176.1650  146.5010 C   0  0  0  0  0  3  0  0  0  0  0  0
  193.1810  175.8030  142.2770 C   0  0  0  0  0  3  0  0  0  0  0  0
  192.1780  175.8190  147.6520 C   0  0  0  0  0  3  0  0  0  0  0  0
  190.3960  175.9940  142.5890 C   0  0  1  0  0  3  0  0  0  0  0  0
  187.5190  176.6140  144.7290 N   0  0  0  0  0  0  0  0  0  0  0  0
  192.5380  173.8760  141.2320 N   0  0  0  0  0  0  0  0  0  0  0  0
  190.1090  174.8510  141.8100 C   0  0  2  0  0  3  0  0  0  0  0  0
  188.6910  177.0240  146.8390 C   0  0  0  0  0  2  0  0  0  0  0  0
  189.6270  176.6810  143.4160 C   0  0  1  0  0  3  0  0  0  0  0  0
  192.2320  176.7910  145.4390 C   0  0  0  0  0  3  0  0  0  0  0  0
  189.3600  173.8930  142.7420 C   0  0  0  0  0  2  0  0  0  0  0  0
  190.8140  176.1030  147.7430 C   0  0  0  0  0  3  0  0  0  0  0  0
  190.1480  176.7340  146.6860 C   0  0  0  0  0  0  0  0  0  0  0  0
  190.8640  177.0790  145.5190 C   0  0  0  0  0  0  0  0  0  0  0  0
  184.5600  179.5680  144.3680 N   0  0  0  0  0  0  0  0  0  0  0  0
  186.4980  177.6260  144.6110 C   0  0  0  0  0  0  0  0  0  0  0  0
  185.4190  177.6650  145.5030 C   0  0  0  0  0  3  0  0  0  0  0  0
  184.4480  178.6540  145.3660 C   0  0  0  0  0  3  0  0  0  0  0  0
  185.5840  179.5410  143.5130 N   0  0  0  0  0  0  0  0  0  0  0  0
  186.5570  178.5980  143.6040 C   0  0  0  0  0  3  0  0  0  0  0  0
  1 15  1  0  0  0  0
  2  6  1  1  0  0  0
  2 12  1  0  0  0  0
  3 21  1  0  0  0  0
  4 14  1  0  0  0  0
  4  7  1  0  0  0  0
  5  9  1  0  0  0  0
  7  9  2  0  0  0  0
  8 10  1  0  0  0  0
 10 19  2  0  0  0  0
 11  7  1  1  0  0  0
 11 16  1  0  0  0  0
 12  1  1  0  0  0  0
 13  5  2  0  0  0  0
 13  4  1  0  0  0  0
 14 11  1  0  0  0  0
 14 18  1  1  0  0  0
 16  2  1  0  0  0  0
 16  3  1  1  0  0  0
 17 21  1  0  0  0  0
 17  8  2  0  0  0  0
 18  6  1  0  0  0  0
 20 15  1  0  0  0  0
 20 19  1  0  0  0  0
 21 20  2  0  0  0  0
 22 25  1  0  0  0  0
 23 12  1  0  0  0  0
 23 24  1  0  0  0  0
 25 24  2  0  0  0  0
 26 27  1  0  0  0  0
 26 22  2  0  0  0  0
 27 23  2  0  0  0  0
M  END
>  <MODEL>
7

>  <REMARK>
 VINA RESULT:      -7.3      2.117      6.810
  Name = 
  1 active torsions:
  status: ('A' for Active; 'I' for Inactive)
    1  A    between atoms: C_9  and  N_15
                            x       y       z     vdW  Elec       q    Type
                         _______ _______ _______ _____ _____    ______ ____

>  <TORSDO>
F 1

$$$$
=
 OpenBabel11052418223D

 27 32  0  0  1  0  0  0  0  0999 V2000
  191.9000  175.5150  143.1130 C   0  0  0  0  0  2  0  0  0  0  0  0
  189.3860  175.4580  142.8830 C   0  0  1  0  0  3  0  0  0  0  0  0
  189.6470  174.3630  145.2890 C   0  0  0  0  0  2  0  0  0  0  0  0
  186.8320  177.7040  145.1810 N   0  0  0  0  0  0  0  0  0  0  0  0
  186.3140  178.0570  147.1850 N   0  0  0  0  0  0  0  0  0  0  0  0
  189.3210  176.9510  142.4190 C   0  0  0  0  0  2  0  0  0  0  0  0
  187.3070  176.6860  145.8920 C   0  0  0  0  0  0  0  0  0  0  0  0
  191.1690  176.5050  148.0140 C   0  0  0  0  0  3  0  0  0  0  0  0
  187.0100  176.8480  147.2110 C   0  0  0  0  0  3  0  0  0  0  0  0
  192.4660  176.7060  147.5390 C   0  0  0  0  0  3  0  0  0  0  0  0
  187.9610  176.0570  144.6900 C   0  0  1  0  0  3  0  0  0  0  0  0
  190.6940  174.8590  142.6080 N   0  0  0  0  0  0  0  0  0  0  0  0
  186.2140  178.5690  145.9370 N   0  0  0  0  0  0  0  0  0  0  0  0
  187.3120  177.0960  143.9860 C   0  0  2  0  0  3  0  0  0  0  0  0
  192.4540  174.7520  144.3070 C   0  0  0  0  0  2  0  0  0  0  0  0
  188.9200  175.2330  144.3070 C   0  0  1  0  0  3  0  0  0  0  0  0
  190.2690  175.7320  147.2770 C   0  0  0  0  0  3  0  0  0  0  0  0
  188.4280  177.8830  143.2900 C   0  0  0  0  0  2  0  0  0  0  0  0
  192.8650  176.1320  146.3310 C   0  0  0  0  0  3  0  0  0  0  0  0
  191.9720  175.3520  145.5870 C   0  0  0  0  0  0  0  0  0  0  0  0
  190.6590  175.1520  146.0630 C   0  0  0  0  0  0  0  0  0  0  0  0
  190.9620  171.3430  140.3320 N   0  0  0  0  0  0  0  0  0  0  0  0
  190.7830  173.6460  141.8320 C   0  0  0  0  0  0  0  0  0  0  0  0
  190.3210  172.4290  142.3470 C   0  0  0  0  0  3  0  0  0  0  0  0
  190.4190  171.2740  141.5750 C   0  0  0  0  0  3  0  0  0  0  0  0
  191.4040  172.4980  139.8310 N   0  0  0  0  0  0  0  0  0  0  0  0
  191.3310  173.6530  140.5430 C   0  0  0  0  0  3  0  0  0  0  0  0
  1 15  1  0  0  0  0
  2  6  1  1  0  0  0
  2 16  1  0  0  0  0
  3 21  1  0  0  0  0
  4  7  1  0  0  0  0
  4 13  1  0  0  0  0
  5  9  1  0  0  0  0
  6 18  1  0  0  0  0
  7  9  2  0  0  0  0
 10  8  1  0  0  0  0
 11  7  1  1  0  0  0
 12  2  1  0  0  0  0
 12  1  1  0  0  0  0
 13  5  2  0  0  0  0
 14 18  1  1  0  0  0
 14 11  1  0  0  0  0
 14  4  1  0  0  0  0
 15 20  1  0  0  0  0
 16 11  1  0  0  0  0
 16  3  1  1  0  0  0
 17  8  2  0  0  0  0
 19 10  2  0  0  0  0
 20 21  2  0  0  0  0
 20 19  1  0  0  0  0
 21 17  1  0  0  0  0
 22 25  1  0  0  0  0
 23 24  1  0  0  0  0
 23 12  1  0  0  0  0
 25 24  2  0  0  0  0
 26 22  2  0  0  0  0
 26 27  1  0  0  0  0
 27 23  2  0  0  0  0
M  END
>  <MODEL>
8

>  <REMARK>
 VINA RESULT:      -7.3      2.456      5.008
  Name = 
  1 active torsions:
  status: ('A' for Active; 'I' for Inactive)
    1  A    between atoms: C_9  and  N_15
                            x       y       z     vdW  Elec       q    Type
                         _______ _______ _______ _____ _____    ______ ____

>  <TORSDO>
F 1

$$$$
=
 OpenBabel11052418223D

 27 32  0  0  1  0  0  0  0  0999 V2000
  190.2510  175.3780  146.5930 C   0  0  0  0  0  2  0  0  0  0  0  0
  189.5070  175.0010  144.2090 C   0  0  1  0  0  3  0  0  0  0  0  0
  191.3270  176.8980  143.8240 C   0  0  0  0  0  2  0  0  0  0  0  0
  191.9040  173.3760  141.3010 N   0  0  0  0  0  0  0  0  0  0  0  0
  193.7430  173.6810  140.3350 N   0  0  0  0  0  0  0  0  0  0  0  0
  189.6330  173.4480  144.3390 C   0  0  0  0  0  2  0  0  0  0  0  0
  192.2630  174.6340  141.5350 C   0  0  0  0  0  0  0  0  0  0  0  0
  194.9040  176.0840  144.7550 C   0  0  0  0  0  3  0  0  0  0  0  0
  193.4570  174.9070  140.9380 C   0  0  0  0  0  3  0  0  0  0  0  0
  194.8160  175.9110  146.1380 C   0  0  0  0  0  3  0  0  0  0  0  0
  191.0750  174.8840  142.4250 C   0  0  1  0  0  3  0  0  0  0  0  0
  189.3010  175.6410  145.5110 N   0  0  0  0  0  0  0  0  0  0  0  0
  192.7860  172.7560  140.5660 N   0  0  0  0  0  0  0  0  0  0  0  0
  190.6940  173.5850  142.0210 C   0  0  2  0  0  3  0  0  0  0  0  0
  191.1580  176.5810  146.8010 C   0  0  0  0  0  2  0  0  0  0  0  0
  190.6160  175.6460  143.4020 C   0  0  1  0  0  3  0  0  0  0  0  0
  193.7650  176.4160  144.0200 C   0  0  0  0  0  3  0  0  0  0  0  0
  190.5870  172.7670  143.3130 C   0  0  0  0  0  2  0  0  0  0  0  0
  193.5890  176.0730  146.7850 C   0  0  0  0  0  3  0  0  0  0  0  0
  192.4420  176.4100  146.0570 C   0  0  0  0  0  0  0  0  0  0  0  0
  192.5290  176.5800  144.6590 C   0  0  0  0  0  0  0  0  0  0  0  0
  185.9870  178.1380  146.1380 N   0  0  0  0  0  0  0  0  0  0  0  0
  188.1640  176.5040  145.7190 C   0  0  0  0  0  0  0  0  0  0  0  0
  187.7950  177.4510  144.7570 C   0  0  0  0  0  3  0  0  0  0  0  0
  186.6910  178.2690  144.9840 C   0  0  0  0  0  3  0  0  0  0  0  0
  186.3290  177.2380  147.0610 N   0  0  0  0  0  0  0  0  0  0  0  0
  187.3960  176.4160  146.8880 C   0  0  0  0  0  3  0  0  0  0  0  0
  1 15  1  0  0  0  0
  2  6  1  1  0  0  0
  2 12  1  0  0  0  0
  3 21  1  0  0  0  0
  4  7  1  0  0  0  0
  4 14  1  0  0  0  0
  5 13  2  0  0  0  0
  5  9  1  0  0  0  0
  8 10  1  0  0  0  0
  9  7  2  0  0  0  0
 10 19  2  0  0  0  0
 11  7  1  1  0  0  0
 11 16  1  0  0  0  0
 12 23  1  0  0  0  0
 12  1  1  0  0  0  0
 13  4  1  0  0  0  0
 14 11  1  0  0  0  0
 14 18  1  1  0  0  0
 16  3  1  1  0  0  0
 16  2  1  0  0  0  0
 17 21  1  0  0  0  0
 17  8  2  0  0  0  0
 18  6  1  0  0  0  0
 20 19  1  0  0  0  0
 20 15  1  0  0  0  0
 21 20  2  0  0  0  0
 22 26  1  0  0  0  0
 23 27  1  0  0  0  0
 24 25  1  0  0  0  0
 24 23  2  0  0  0  0
 25 22  2  0  0  0  0
 27 26  2  0  0  0  0
M  END
>  <MODEL>
9

>  <REMARK>
 VINA RESULT:      -7.2      2.296      6.702
  Name = 
  1 active torsions:
  status: ('A' for Active; 'I' for Inactive)
    1  A    between atoms: C_9  and  N_15
                            x       y       z     vdW  Elec       q    Type
                         _______ _______ _______ _____ _____    ______ ____

>  <TORSDO>
F 1

$$$$
