=
 OpenBabel11052420153D

 34 38  0  0  1  0  0  0  0  0999 V2000
  193.5180  174.7110  144.6310 C   0  0  0  0  0  0  0  0  0  0  0  0
  196.6830  173.6000  146.1570 C   0  0  0  0  0  3  0  0  0  0  0  0
  195.4900  175.5060  146.3680 O   0  0  0  0  0  0  0  0  0  0  0  0
  191.4290  175.3030  143.3560 N   0  0  0  0  0  0  0  0  0  0  0  0
  192.4830  174.3070  143.5940 C   0  0  0  0  0  2  0  0  0  0  0  0
  192.5210  177.0330  144.6970 C   0  0  2  0  0  3  0  0  0  0  0  0
  191.4970  177.0810  145.6460 O   0  0  0  0  0  1  0  0  0  0  0  0
  191.9510  176.6680  143.3360 C   0  0  0  0  0  2  0  0  0  0  0  0
  194.5510  176.3800  146.0330 C   0  0  0  0  0  0  0  0  0  0  0  0
  193.5600  176.0310  145.1090 C   0  0  0  0  0  0  0  0  0  0  0  0
  194.5770  177.5350  146.5360 O   0  0  0  0  0  0  0  0  0  0  0  0
  197.1440  172.3400  145.5060 C   0  0  0  0  0  2  0  0  0  0  0  0
  196.2100  171.2010  145.7080 C   0  0  0  0  0  0  0  0  0  0  0  0
  194.9470  171.2730  145.2930 C   0  0  0  0  0  3  0  0  0  0  0  0
  195.5520  174.2670  145.8860 C   0  0  0  0  0  0  0  0  0  0  0  0
  194.2510  172.4760  144.8050 C   0  0  0  0  0  3  0  0  0  0  0  0
  194.4890  173.7790  145.0670 C   0  0  0  0  0  0  0  0  0  0  0  0
  196.7450  169.9240  146.2140 C   0  0  0  0  0  0  0  0  0  0  0  0
  196.1010  169.2570  147.2520 O   0  0  0  0  0  1  0  0  0  0  0  0
  197.8010  169.4330  145.7220 O   0  0  0  0  0  0  0  0  0  0  0  0
  190.7520  175.0430  142.0720 C   0  0  0  0  0  2  0  0  0  0  0  0
  187.0640  175.8350  141.6380 C   0  0  0  0  0  2  0  0  0  0  0  0
  188.7390  174.6650  143.4750 O   0  0  0  0  0  0  0  0  0  0  0  0
  186.4400  177.9710  144.6670 C   0  0  0  0  0  0  0  0  0  0  0  0
  186.2740  177.4150  143.4520 C   0  0  0  0  0  3  0  0  0  0  0  0
  186.8320  176.0590  143.1330 C   0  0  2  0  0  3  0  0  0  0  0  0
  187.8300  175.9090  145.3690 C   0  0  0  0  0  2  0  0  0  0  0  0
  188.1330  175.8630  143.8850 C   0  0  1  0  0  3  0  0  0  0  0  0
  187.3180  177.3170  145.7290 C   0  0  0  0  0  2  0  0  0  0  0  0
  189.2190  174.8230  142.1380 C   0  0  1  0  0  3  0  0  0  0  0  0
  188.4960  175.8260  141.3190 N   0  0  0  0  0  2  0  0  0  0  0  0
  185.8720  179.3050  144.9310 C   0  0  0  0  0  0  0  0  0  0  0  0
  185.6360  180.0960  143.9780 O   0  0  0  0  0  0  0  0  0  0  0  0
  185.5880  179.7080  146.2310 O   0  0  0  0  0  1  0  0  0  0  0  0
  1 17  1  0  0  0  0
  1 10  2  0  0  0  0
  4  5  1  0  0  0  0
  5  1  1  0  0  0  0
  6 10  1  0  0  0  0
  6  7  1  1  0  0  0
  8  4  1  0  0  0  0
  8  6  1  0  0  0  0
  9  3  1  0  0  0  0
  9 11  2  0  0  0  0
 10  9  1  0  0  0  0
 12 13  1  0  0  0  0
 12  2  1  0  0  0  0
 13 18  1  0  0  0  0
 14 13  2  0  0  0  0
 15  2  2  0  0  0  0
 15  3  1  0  0  0  0
 16 17  2  0  0  0  0
 16 14  1  0  0  0  0
 17 15  1  0  0  0  0
 18 19  1  0  0  0  0
 20 18  2  0  0  0  0
 21  4  1  0  0  0  0
 23 28  1  0  0  0  0
 24 32  1  0  0  0  0
 24 29  1  0  0  0  0
 25 24  2  0  0  0  0
 26 22  1  6  0  0  0
 26 25  1  0  0  0  0
 26 28  1  0  0  0  0
 27 29  1  0  0  0  0
 28 27  1  1  0  0  0
 30 21  1  1  0  0  0
 30 23  1  0  0  0  0
 31 22  1  0  0  0  0
 31 30  1  0  0  0  0
 32 34  1  0  0  0  0
 33 32  2  0  0  0  0
M  END
>  <MODEL>
1

>  <REMARK>
 VINA RESULT:      -8.1      0.000      0.000
  Name = 
  4 active torsions:
  status: ('A' for Active; 'I' for Inactive)
    1  A    between atoms: C_3  and  C_25
    2  A    between atoms: C_7  and  C_11
    3  A    between atoms: N_8  and  C_18
    4  A    between atoms: C_18  and  C_30
                            x       y       z     vdW  Elec       q    Type
                         _______ _______ _______ _____ _____    ______ ____

>  <TORSDO>
F 4

$$$$
=
 OpenBabel11052420153D

 34 38  0  0  1  0  0  0  0  0999 V2000
  190.1090  176.4930  144.6970 C   0  0  0  0  0  0  0  0  0  0  0  0
  187.4120  177.4400  147.0240 C   0  0  0  0  0  3  0  0  0  0  0  0
  189.6330  177.1590  147.3180 O   0  0  0  0  0  0  0  0  0  0  0  0
  191.7460  175.6920  142.9590 N   0  0  0  0  0  0  0  0  0  0  0  0
  190.3490  176.0290  143.2700 C   0  0  0  0  0  2  0  0  0  0  0  0
  192.4840  175.8630  145.2860 C   0  0  2  0  0  3  0  0  0  0  0  0
  193.3350  176.9430  145.0390 O   0  0  0  0  0  1  0  0  0  0  0  0
  192.4000  174.9770  144.0540 C   0  0  0  0  0  2  0  0  0  0  0  0
  190.8500  176.7580  146.9770 C   0  0  0  0  0  0  0  0  0  0  0  0
  191.1190  176.3580  145.6640 C   0  0  0  0  0  0  0  0  0  0  0  0
  191.7540  176.7150  147.8550 O   0  0  0  0  0  0  0  0  0  0  0  0
  186.0870  177.2670  146.3610 C   0  0  0  0  0  2  0  0  0  0  0  0
  185.9000  178.1580  145.1860 C   0  0  0  0  0  0  0  0  0  0  0  0
  186.7310  178.1010  144.1470 C   0  0  0  0  0  3  0  0  0  0  0  0
  188.6130  177.2300  146.4660 C   0  0  0  0  0  0  0  0  0  0  0  0
  188.0060  177.3670  144.0830 C   0  0  0  0  0  3  0  0  0  0  0  0
  188.8420  176.9980  145.0760 C   0  0  0  0  0  0  0  0  0  0  0  0
  184.6790  178.9820  145.1060 C   0  0  0  0  0  0  0  0  0  0  0  0
  184.5480  179.9440  144.1100 O   0  0  0  0  0  0  0  0  0  0  0  0
  183.7510  178.8320  145.9500 O   0  0  0  0  0  1  0  0  0  0  0  0
  191.8200  174.8590  141.7460 C   0  0  0  0  0  2  0  0  0  0  0  0
  190.4780  171.4240  140.8400 C   0  0  0  0  0  2  0  0  0  0  0  0
  189.6370  174.0390  140.8950 O   0  0  0  0  0  0  0  0  0  0  0  0
  189.5270  171.9650  137.2450 C   0  0  0  0  0  0  0  0  0  0  0  0
  189.8480  171.3330  138.3900 C   0  0  0  0  0  3  0  0  0  0  0  0
  189.5770  171.9590  139.7270 C   0  0  2  0  0  3  0  0  0  0  0  0
  188.7000  173.9760  138.6410 C   0  0  0  0  0  2  0  0  0  0  0  0
  189.7370  173.4610  139.6190 C   0  0  1  0  0  3  0  0  0  0  0  0
  189.0030  173.3970  137.2450 C   0  0  0  0  0  2  0  0  0  0  0  0
  190.8010  173.6950  141.6510 C   0  0  1  0  0  3  0  0  0  0  0  0
  191.4640  172.4300  141.2540 N   0  0  0  0  0  2  0  0  0  0  0  0
  189.8140  171.3090  135.9570 C   0  0  0  0  0  0  0  0  0  0  0  0
  189.2680  171.7200  134.8980 O   0  0  0  0  0  0  0  0  0  0  0  0
  190.6920  170.2320  135.8920 O   0  0  0  0  0  1  0  0  0  0  0  0
  1 17  1  0  0  0  0
  1 10  2  0  0  0  0
  4  5  1  0  0  0  0
  4  8  1  0  0  0  0
  5  1  1  0  0  0  0
  6  7  1  6  0  0  0
  6 10  1  0  0  0  0
  8  6  1  0  0  0  0
  9  3  1  0  0  0  0
  9 11  2  0  0  0  0
 10  9  1  0  0  0  0
 12  2  1  0  0  0  0
 13 12  1  0  0  0  0
 14 13  2  0  0  0  0
 15  2  2  0  0  0  0
 15  3  1  0  0  0  0
 16 14  1  0  0  0  0
 16 17  2  0  0  0  0
 17 15  1  0  0  0  0
 18 13  1  0  0  0  0
 18 20  1  0  0  0  0
 19 18  2  0  0  0  0
 21  4  1  0  0  0  0
 22 31  1  0  0  0  0
 23 30  1  0  0  0  0
 24 29  1  0  0  0  0
 24 25  2  0  0  0  0
 26 25  1  6  0  0  0
 26 22  1  0  0  0  0
 28 27  1  6  0  0  0
 28 26  1  0  0  0  0
 28 23  1  0  0  0  0
 29 27  1  0  0  0  0
 30 21  1  6  0  0  0
 31 30  1  0  0  0  0
 32 24  1  0  0  0  0
 33 32  2  0  0  0  0
 34 32  1  0  0  0  0
M  END
>  <MODEL>
2

>  <REMARK>
 VINA RESULT:      -8.0      3.549      8.657
  Name = 
  4 active torsions:
  status: ('A' for Active; 'I' for Inactive)
    1  A    between atoms: C_3  and  C_25
    2  A    between atoms: C_7  and  C_11
    3  A    between atoms: N_8  and  C_18
    4  A    between atoms: C_18  and  C_30
                            x       y       z     vdW  Elec       q    Type
                         _______ _______ _______ _____ _____    ______ ____

>  <TORSDO>
F 4

$$$$
=
 OpenBabel11052420153D

 34 38  0  0  1  0  0  0  0  0999 V2000
  192.2590  175.8380  144.4220 C   0  0  0  0  0  0  0  0  0  0  0  0
  195.3820  176.3760  142.5400 C   0  0  0  0  0  3  0  0  0  0  0  0
  194.8870  176.5720  144.7340 O   0  0  0  0  0  0  0  0  0  0  0  0
  189.9840  175.5490  145.4610 N   0  0  0  0  0  0  0  0  0  0  0  0
  190.7840  175.5280  144.2290 C   0  0  0  0  0  2  0  0  0  0  0  0
  191.7950  176.4670  146.8260 C   0  0  2  0  0  3  0  0  0  0  0  0
  191.8890  175.3340  147.6380 O   0  0  0  0  0  1  0  0  0  0  0  0
  190.3640  176.6470  146.3490 C   0  0  0  0  0  2  0  0  0  0  0  0
  194.0770  176.6510  145.7820 C   0  0  0  0  0  0  0  0  0  0  0  0
  192.7210  176.3380  145.6510 C   0  0  0  0  0  0  0  0  0  0  0  0
  194.5400  177.0360  146.8900 O   0  0  0  0  0  0  0  0  0  0  0  0
  195.1060  176.3190  141.0750 C   0  0  0  0  0  2  0  0  0  0  0  0
  194.6190  174.9900  140.6230 C   0  0  0  0  0  0  0  0  0  0  0  0
  193.5060  174.4630  141.1270 C   0  0  0  0  0  3  0  0  0  0  0  0
  194.4920  176.1850  143.5240 C   0  0  0  0  0  0  0  0  0  0  0  0
  192.7480  174.9610  142.2880 C   0  0  0  0  0  3  0  0  0  0  0  0
  193.1640  175.6920  143.3440 C   0  0  0  0  0  0  0  0  0  0  0  0
  195.2870  174.3400  139.4800 C   0  0  0  0  0  0  0  0  0  0  0  0
  195.9460  175.1070  138.5240 O   0  0  0  0  0  0  0  0  0  0  0  0
  195.2520  173.0830  139.3500 O   0  0  0  0  0  1  0  0  0  0  0  0
  188.5500  175.6790  145.1460 C   0  0  0  0  0  2  0  0  0  0  0  0
  185.9320  178.4180  145.3920 C   0  0  0  0  0  2  0  0  0  0  0  0
  188.1560  177.7930  143.9040 O   0  0  0  0  0  0  0  0  0  0  0  0
  184.4940  178.3330  141.9210 C   0  0  0  0  0  0  0  0  0  0  0  0
  184.6090  178.5810  143.2400 C   0  0  0  0  0  3  0  0  0  0  0  0
  185.9540  178.7140  143.8920 C   0  0  2  0  0  3  0  0  0  0  0  0
  187.0710  178.2320  141.7620 C   0  0  0  0  0  2  0  0  0  0  0  0
  186.9380  177.7900  143.2050 C   0  0  1  0  0  3  0  0  0  0  0  0
  185.7150  178.0390  141.0560 C   0  0  0  0  0  2  0  0  0  0  0  0
  187.9740  177.1180  145.1520 C   0  0  1  0  0  3  0  0  0  0  0  0
  186.5930  177.1420  145.6910 N   0  0  0  0  0  2  0  0  0  0  0  0
  183.1500  178.2110  141.3270 C   0  0  0  0  0  0  0  0  0  0  0  0
  182.1270  178.5060  142.0020 O   0  0  0  0  0  1  0  0  0  0  0  0
  182.9940  177.7730  140.0170 O   0  0  0  0  0  0  0  0  0  0  0  0
  1 10  2  0  0  0  0
  2 15  2  0  0  0  0
  3  9  1  0  0  0  0
  4  8  1  0  0  0  0
  5  1  1  0  0  0  0
  5  4  1  0  0  0  0
  6  7  1  1  0  0  0
  8  6  1  0  0  0  0
  9 11  2  0  0  0  0
 10  9  1  0  0  0  0
 10  6  1  0  0  0  0
 12  2  1  0  0  0  0
 13 12  1  0  0  0  0
 13 14  2  0  0  0  0
 14 16  1  0  0  0  0
 15  3  1  0  0  0  0
 16 17  2  0  0  0  0
 17 15  1  0  0  0  0
 17  1  1  0  0  0  0
 18 13  1  0  0  0  0
 19 18  2  0  0  0  0
 20 18  1  0  0  0  0
 21  4  1  0  0  0  0
 22 31  1  0  0  0  0
 23 30  1  0  0  0  0
 24 25  2  0  0  0  0
 26 25  1  6  0  0  0
 26 22  1  0  0  0  0
 28 27  1  6  0  0  0
 28 26  1  0  0  0  0
 28 23  1  0  0  0  0
 29 27  1  0  0  0  0
 29 24  1  0  0  0  0
 30 21  1  6  0  0  0
 30 31  1  0  0  0  0
 32 24  1  0  0  0  0
 32 33  1  0  0  0  0
 34 32  2  0  0  0  0
M  END
>  <MODEL>
3

>  <REMARK>
 VINA RESULT:      -7.9      3.464      4.539
  Name = 
  4 active torsions:
  status: ('A' for Active; 'I' for Inactive)
    1  A    between atoms: C_3  and  C_25
    2  A    between atoms: C_7  and  C_11
    3  A    between atoms: N_8  and  C_18
    4  A    between atoms: C_18  and  C_30
                            x       y       z     vdW  Elec       q    Type
                         _______ _______ _______ _____ _____    ______ ____

>  <TORSDO>
F 4

$$$$
=
 OpenBabel11052420153D

 34 38  0  0  1  0  0  0  0  0999 V2000
  187.0400  176.5170  142.5440 C   0  0  0  0  0  0  0  0  0  0  0  0
  187.8470  174.9750  139.2960 C   0  0  0  0  0  3  0  0  0  0  0  0
  186.6100  176.7830  139.8450 O   0  0  0  0  0  0  0  0  0  0  0  0
  186.5120  177.2990  144.8790 N   0  0  0  0  0  0  0  0  0  0  0  0
  187.2000  176.3060  144.0410 C   0  0  0  0  0  2  0  0  0  0  0  0
  185.3320  178.3240  142.9970 C   0  0  2  0  0  3  0  0  0  0  0  0
  185.9740  179.5570  143.1390 O   0  0  0  0  0  1  0  0  0  0  0  0
  185.1950  177.6510  144.3520 C   0  0  0  0  0  2  0  0  0  0  0  0
  185.9550  177.5850  140.6740 C   0  0  0  0  0  0  0  0  0  0  0  0
  186.1050  177.4450  142.0570 C   0  0  0  0  0  0  0  0  0  0  0  0
  185.1760  178.4560  140.2010 O   0  0  0  0  0  0  0  0  0  0  0  0
  188.5240  173.6640  139.5120 C   0  0  0  0  0  2  0  0  0  0  0  0
  189.8340  173.7890  140.2040 C   0  0  0  0  0  0  0  0  0  0  0  0
  189.9170  174.3380  141.4130 C   0  0  0  0  0  3  0  0  0  0  0  0
  187.4470  175.8290  140.2480 C   0  0  0  0  0  0  0  0  0  0  0  0
  188.8480  175.0620  142.1230 C   0  0  0  0  0  3  0  0  0  0  0  0
  187.7820  175.7290  141.6330 C   0  0  0  0  0  0  0  0  0  0  0  0
  191.0160  173.1370  139.6100 C   0  0  0  0  0  0  0  0  0  0  0  0
  191.5490  173.6080  138.4140 O   0  0  0  0  0  0  0  0  0  0  0  0
  191.5450  172.1370  140.1740 O   0  0  0  0  0  1  0  0  0  0  0  0
  186.3460  176.7910  146.2530 C   0  0  0  0  0  2  0  0  0  0  0  0
  189.9310  177.4790  147.2970 C   0  0  0  0  0  2  0  0  0  0  0  0
  188.1670  175.3770  147.1740 O   0  0  0  0  0  0  0  0  0  0  0  0
  191.7860  175.0930  145.0640 C   0  0  0  0  0  0  0  0  0  0  0  0
  191.5440  176.1330  145.8840 C   0  0  0  0  0  3  0  0  0  0  0  0
  190.4250  176.0920  146.8830 C   0  0  2  0  0  3  0  0  0  0  0  0
  189.7530  173.8720  146.0880 C   0  0  0  0  0  2  0  0  0  0  0  0
  189.2730  175.2910  146.3130 C   0  0  1  0  0  3  0  0  0  0  0  0
  190.8570  173.8840  145.0140 C   0  0  0  0  0  2  0  0  0  0  0  0
  187.6330  176.7020  147.1110 C   0  0  1  0  0  3  0  0  0  0  0  0
  188.6030  177.7590  146.7370 N   0  0  0  0  0  2  0  0  0  0  0  0
  192.8980  175.1820  144.1000 C   0  0  0  0  0  0  0  0  0  0  0  0
  193.7160  176.1380  144.1580 O   0  0  0  0  0  1  0  0  0  0  0  0
  193.0590  174.2120  143.1170 O   0  0  0  0  0  0  0  0  0  0  0  0
  1  5  1  0  0  0  0
  2 12  1  0  0  0  0
  2 15  2  0  0  0  0
  3 15  1  0  0  0  0
  3  9  1  0  0  0  0
  4 21  1  0  0  0  0
  5  4  1  0  0  0  0
  6  7  1  1  0  0  0
  6  8  1  0  0  0  0
  8  4  1  0  0  0  0
  9 10  1  0  0  0  0
 10  1  2  0  0  0  0
 10  6  1  0  0  0  0
 11  9  2  0  0  0  0
 12 13  1  0  0  0  0
 13 14  2  0  0  0  0
 14 16  1  0  0  0  0
 15 17  1  0  0  0  0
 17 16  2  0  0  0  0
 17  1  1  0  0  0  0
 18 20  1  0  0  0  0
 18 13  1  0  0  0  0
 19 18  2  0  0  0  0
 24 25  2  0  0  0  0
 26 25  1  6  0  0  0
 26 22  1  0  0  0  0
 28 27  1  1  0  0  0
 28 26  1  0  0  0  0
 28 23  1  0  0  0  0
 29 24  1  0  0  0  0
 29 27  1  0  0  0  0
 30 21  1  6  0  0  0
 30 23  1  0  0  0  0
 31 30  1  0  0  0  0
 31 22  1  0  0  0  0
 32 33  1  0  0  0  0
 32 24  1  0  0  0  0
 34 32  2  0  0  0  0
M  END
>  <MODEL>
4

>  <REMARK>
 VINA RESULT:      -7.9      3.447      7.820
  Name = 
  4 active torsions:
  status: ('A' for Active; 'I' for Inactive)
    1  A    between atoms: C_3  and  C_25
    2  A    between atoms: C_7  and  C_11
    3  A    between atoms: N_8  and  C_18
    4  A    between atoms: C_18  and  C_30
                            x       y       z     vdW  Elec       q    Type
                         _______ _______ _______ _____ _____    ______ ____

>  <TORSDO>
F 4

$$$$
=
 OpenBabel11052420153D

 34 38  0  0  1  0  0  0  0  0999 V2000
  190.9180  175.2150  145.1590 C   0  0  0  0  0  0  0  0  0  0  0  0
  193.3150  174.6400  142.4200 C   0  0  0  0  0  3  0  0  0  0  0  0
  193.5910  175.3460  144.5470 O   0  0  0  0  0  0  0  0  0  0  0  0
  189.0810  175.6720  146.8210 N   0  0  0  0  0  0  0  0  0  0  0  0
  189.4280  175.2350  145.4610 C   0  0  0  0  0  2  0  0  0  0  0  0
  191.3640  176.3650  147.3650 C   0  0  2  0  0  3  0  0  0  0  0  0
  191.5170  175.4110  148.3740 O   0  0  0  0  0  1  0  0  0  0  0  0
  189.9080  176.7910  147.2710 C   0  0  0  0  0  2  0  0  0  0  0  0
  193.1870  175.8060  145.7240 C   0  0  0  0  0  0  0  0  0  0  0  0
  191.8270  175.8060  146.0510 C   0  0  0  0  0  0  0  0  0  0  0  0
  194.0380  176.2660  146.5310 O   0  0  0  0  0  0  0  0  0  0  0  0
  192.5780  174.3830  141.1490 C   0  0  0  0  0  2  0  0  0  0  0  0
  191.7520  173.1480  141.1900 C   0  0  0  0  0  0  0  0  0  0  0  0
  190.7870  173.0030  142.0950 C   0  0  0  0  0  3  0  0  0  0  0  0
  192.7680  174.8500  143.6260 C   0  0  0  0  0  0  0  0  0  0  0  0
  190.5380  173.8710  143.2580 C   0  0  0  0  0  3  0  0  0  0  0  0
  191.3890  174.6620  143.9450 C   0  0  0  0  0  0  0  0  0  0  0  0
  191.8960  172.1600  140.1050 C   0  0  0  0  0  0  0  0  0  0  0  0
  193.0840  172.0790  139.3840 O   0  0  0  0  0  0  0  0  0  0  0  0
  190.9380  171.3900  139.8110 O   0  0  0  0  0  1  0  0  0  0  0  0
  187.6670  176.0790  146.8890 C   0  0  0  0  0  2  0  0  0  0  0  0
  185.5550  179.0940  145.9560 C   0  0  0  0  0  2  0  0  0  0  0  0
  187.9040  177.8840  145.2010 O   0  0  0  0  0  0  0  0  0  0  0  0
  184.8850  178.3880  142.3260 C   0  0  0  0  0  0  0  0  0  0  0  0
  184.7610  178.9160  143.5590 C   0  0  0  0  0  3  0  0  0  0  0  0
  185.9420  179.0340  144.4770 C   0  0  2  0  0  3  0  0  0  0  0  0
  187.3830  177.9470  142.8170 C   0  0  0  0  0  2  0  0  0  0  0  0
  186.8780  177.8660  144.2430 C   0  0  1  0  0  3  0  0  0  0  0  0
  186.1930  177.7600  141.8560 C   0  0  0  0  0  2  0  0  0  0  0  0
  187.3530  177.5400  146.4750 C   0  0  1  0  0  3  0  0  0  0  0  0
  185.9140  177.8510  146.6490 N   0  0  0  0  0  2  0  0  0  0  0  0
  183.6950  178.2940  141.4610 C   0  0  0  0  0  0  0  0  0  0  0  0
  183.8230  178.2130  140.2100 O   0  0  0  0  0  0  0  0  0  0  0  0
  182.4180  178.2900  142.0130 O   0  0  0  0  0  1  0  0  0  0  0  0
  1  5  1  0  0  0  0
  1 10  2  0  0  0  0
  2 15  2  0  0  0  0
  3  9  1  0  0  0  0
  4 21  1  0  0  0  0
  4  8  1  0  0  0  0
  5  4  1  0  0  0  0
  6  7  1  1  0  0  0
  8  6  1  0  0  0  0
  9 10  1  0  0  0  0
  9 11  2  0  0  0  0
 10  6  1  0  0  0  0
 12 13  1  0  0  0  0
 12  2  1  0  0  0  0
 13 14  2  0  0  0  0
 14 16  1  0  0  0  0
 15 17  1  0  0  0  0
 15  3  1  0  0  0  0
 16 17  2  0  0  0  0
 17  1  1  0  0  0  0
 18 13  1  0  0  0  0
 19 18  2  0  0  0  0
 20 18  1  0  0  0  0
 22 31  1  0  0  0  0
 23 30  1  0  0  0  0
 24 25  2  0  0  0  0
 26 25  1  6  0  0  0
 26 22  1  0  0  0  0
 28 27  1  6  0  0  0
 28 26  1  0  0  0  0
 28 23  1  0  0  0  0
 29 24  1  0  0  0  0
 29 27  1  0  0  0  0
 30 31  1  0  0  0  0
 30 21  1  6  0  0  0
 32 34  1  0  0  0  0
 32 24  1  0  0  0  0
 33 32  2  0  0  0  0
M  END
>  <MODEL>
5

>  <REMARK>
 VINA RESULT:      -7.9      3.440      4.806
  Name = 
  4 active torsions:
  status: ('A' for Active; 'I' for Inactive)
    1  A    between atoms: C_3  and  C_25
    2  A    between atoms: C_7  and  C_11
    3  A    between atoms: N_8  and  C_18
    4  A    between atoms: C_18  and  C_30
                            x       y       z     vdW  Elec       q    Type
                         _______ _______ _______ _____ _____    ______ ____

>  <TORSDO>
F 4

$$$$
=
 OpenBabel11052420153D

 34 38  0  0  1  0  0  0  0  0999 V2000
  194.8060  175.7380  142.5050 C   0  0  0  0  0  0  0  0  0  0  0  0
  197.9410  175.0710  140.6870 C   0  0  0  0  0  3  0  0  0  0  0  0
  197.3480  174.7560  142.8430 O   0  0  0  0  0  0  0  0  0  0  0  0
  192.6200  176.4150  143.5570 N   0  0  0  0  0  0  0  0  0  0  0  0
  193.4360  176.3740  142.3350 C   0  0  0  0  0  2  0  0  0  0  0  0
  194.4440  175.6680  145.0060 C   0  0  2  0  0  3  0  0  0  0  0  0
  193.8070  174.4750  145.3580 O   0  0  0  0  0  1  0  0  0  0  0  0
  193.4120  176.7500  144.7400 C   0  0  0  0  0  2  0  0  0  0  0  0
  196.5800  174.9080  143.9130 C   0  0  0  0  0  0  0  0  0  0  0  0
  195.2990  175.4560  143.7900 C   0  0  0  0  0  0  0  0  0  0  0  0
  197.0280  174.5780  145.0440 O   0  0  0  0  0  0  0  0  0  0  0  0
  197.8720  175.6700  139.3230 C   0  0  0  0  0  2  0  0  0  0  0  0
  196.8110  175.0710  138.4730 C   0  0  0  0  0  0  0  0  0  0  0  0
  195.5340  175.1080  138.8480 C   0  0  0  0  0  3  0  0  0  0  0  0
  196.9690  175.0820  141.6090 C   0  0  0  0  0  0  0  0  0  0  0  0
  195.0190  175.5150  140.1670 C   0  0  0  0  0  3  0  0  0  0  0  0
  195.6210  175.4920  141.3750 C   0  0  0  0  0  0  0  0  0  0  0  0
  197.1660  174.5900  137.1250 C   0  0  0  0  0  0  0  0  0  0  0  0
  196.9210  175.3860  136.0100 O   0  0  0  0  0  0  0  0  0  0  0  0
  197.6800  173.4460  136.9690 O   0  0  0  0  0  1  0  0  0  0  0  0
  191.5380  177.4060  143.4230 C   0  0  0  0  0  2  0  0  0  0  0  0
  187.8390  177.4710  142.5650 C   0  0  0  0  0  2  0  0  0  0  0  0
  189.5980  176.0040  144.0840 O   0  0  0  0  0  0  0  0  0  0  0  0
  186.3280  177.8270  145.9880 C   0  0  0  0  0  0  0  0  0  0  0  0
  186.4500  177.8520  144.6470 C   0  0  0  0  0  3  0  0  0  0  0  0
  187.4090  176.9440  143.9350 C   0  0  2  0  0  3  0  0  0  0  0  0
  188.1860  176.0330  146.0760 C   0  0  0  0  0  2  0  0  0  0  0  0
  188.6310  176.7250  144.8030 C   0  0  1  0  0  3  0  0  0  0  0  0
  187.2520  176.9790  146.8560 C   0  0  0  0  0  2  0  0  0  0  0  0
  190.1380  176.8470  143.0630 C   0  0  1  0  0  3  0  0  0  0  0  0
  189.2360  177.9230  142.5860 N   0  0  0  0  0  2  0  0  0  0  0  0
  185.3720  178.7390  146.6410 C   0  0  0  0  0  0  0  0  0  0  0  0
  185.7220  179.4170  147.6440 O   0  0  0  0  0  1  0  0  0  0  0  0
  184.0740  178.8660  146.1580 O   0  0  0  0  0  0  0  0  0  0  0  0
  1 10  2  0  0  0  0
  2 15  2  0  0  0  0
  3  9  1  0  0  0  0
  4  8  1  0  0  0  0
  5  1  1  0  0  0  0
  5  4  1  0  0  0  0
  6  7  1  6  0  0  0
  8  6  1  0  0  0  0
  9 11  2  0  0  0  0
 10  9  1  0  0  0  0
 10  6  1  0  0  0  0
 12  2  1  0  0  0  0
 13 14  2  0  0  0  0
 13 12  1  0  0  0  0
 14 16  1  0  0  0  0
 15  3  1  0  0  0  0
 16 17  2  0  0  0  0
 17 15  1  0  0  0  0
 17  1  1  0  0  0  0
 18 13  1  0  0  0  0
 19 18  2  0  0  0  0
 20 18  1  0  0  0  0
 21  4  1  0  0  0  0
 22 31  1  0  0  0  0
 23 28  1  0  0  0  0
 24 32  1  0  0  0  0
 24 29  1  0  0  0  0
 25 24  2  0  0  0  0
 26 22  1  6  0  0  0
 26 25  1  0  0  0  0
 26 28  1  0  0  0  0
 27 29  1  0  0  0  0
 28 27  1  1  0  0  0
 30 21  1  1  0  0  0
 30 23  1  0  0  0  0
 31 30  1  0  0  0  0
 32 33  1  0  0  0  0
 34 32  2  0  0  0  0
M  END
>  <MODEL>
6

>  <REMARK>
 VINA RESULT:      -7.8      4.064      4.804
  Name = 
  4 active torsions:
  status: ('A' for Active; 'I' for Inactive)
    1  A    between atoms: C_3  and  C_25
    2  A    between atoms: C_7  and  C_11
    3  A    between atoms: N_8  and  C_18
    4  A    between atoms: C_18  and  C_30
                            x       y       z     vdW  Elec       q    Type
                         _______ _______ _______ _____ _____    ______ ____

>  <TORSDO>
F 4

$$$$
=
 OpenBabel11052420153D

 34 38  0  0  1  0  0  0  0  0999 V2000
  189.4310  175.7310  143.6620 C   0  0  0  0  0  0  0  0  0  0  0  0
  185.9390  176.8000  143.1650 C   0  0  0  0  0  3  0  0  0  0  0  0
  187.1690  175.1610  142.2140 O   0  0  0  0  0  0  0  0  0  0  0  0
  191.8750  175.2830  144.0720 N   0  0  0  0  0  0  0  0  0  0  0  0
  190.7070  176.1150  144.3940 C   0  0  0  0  0  2  0  0  0  0  0  0
  190.7530  174.1140  142.2390 C   0  0  2  0  0  3  0  0  0  0  0  0
  190.8100  172.8670  142.8690 O   0  0  0  0  0  1  0  0  0  0  0  0
  191.9480  174.9580  142.6480 C   0  0  0  0  0  2  0  0  0  0  0  0
  188.2890  174.5140  141.9210 C   0  0  0  0  0  0  0  0  0  0  0  0
  189.4750  174.8150  142.5990 C   0  0  0  0  0  0  0  0  0  0  0  0
  188.2780  173.6460  141.0080 O   0  0  0  0  0  0  0  0  0  0  0  0
  185.6930  178.0790  143.8910 C   0  0  0  0  0  2  0  0  0  0  0  0
  185.8410  177.9530  145.3640 C   0  0  0  0  0  0  0  0  0  0  0  0
  186.9910  177.5540  145.9030 C   0  0  0  0  0  3  0  0  0  0  0  0
  187.0820  176.0990  143.1540 C   0  0  0  0  0  0  0  0  0  0  0  0
  188.1500  176.9980  145.1850 C   0  0  0  0  0  3  0  0  0  0  0  0
  188.2040  176.3480  144.0020 C   0  0  0  0  0  0  0  0  0  0  0  0
  184.7550  178.4450  146.2320 C   0  0  0  0  0  0  0  0  0  0  0  0
  184.8980  178.4200  147.6160 O   0  0  0  0  0  1  0  0  0  0  0  0
  183.6790  178.8770  145.7280 O   0  0  0  0  0  0  0  0  0  0  0  0
  193.1210  175.9680  144.4590 C   0  0  0  0  0  2  0  0  0  0  0  0
  196.2670  174.3320  145.8180 C   0  0  0  0  0  2  0  0  0  0  0  0
  193.5530  173.9060  145.7750 O   0  0  0  0  0  0  0  0  0  0  0  0
  196.0780  170.9610  144.1680 C   0  0  0  0  0  0  0  0  0  0  0  0
  196.5850  172.0350  144.8030 C   0  0  0  0  0  3  0  0  0  0  0  0
  195.7200  172.9130  145.6590 C   0  0  2  0  0  3  0  0  0  0  0  0
  193.7460  171.5680  145.1010 C   0  0  0  0  0  2  0  0  0  0  0  0
  194.3250  172.9680  145.0710 C   0  0  1  0  0  3  0  0  0  0  0  0
  194.5820  170.6650  144.1730 C   0  0  0  0  0  2  0  0  0  0  0  0
  194.0290  175.2200  145.4690 C   0  0  1  0  0  3  0  0  0  0  0  0
  195.4550  175.3010  145.0720 N   0  0  0  0  0  2  0  0  0  0  0  0
  196.9690  170.1290  143.3390 C   0  0  0  0  0  0  0  0  0  0  0  0
  196.9940  168.8780  143.4910 O   0  0  0  0  0  1  0  0  0  0  0  0
  197.7890  170.7110  142.3790 O   0  0  0  0  0  0  0  0  0  0  0  0
  1 17  1  0  0  0  0
  1  5  1  0  0  0  0
  2 12  1  0  0  0  0
  3 15  1  0  0  0  0
  4  5  1  0  0  0  0
  4 21  1  0  0  0  0
  6 10  1  0  0  0  0
  6  8  1  0  0  0  0
  6  7  1  1  0  0  0
  8  4  1  0  0  0  0
  9  3  1  0  0  0  0
  9 10  1  0  0  0  0
 10  1  2  0  0  0  0
 11  9  2  0  0  0  0
 12 13  1  0  0  0  0
 13 14  2  0  0  0  0
 13 18  1  0  0  0  0
 15  2  2  0  0  0  0
 15 17  1  0  0  0  0
 16 14  1  0  0  0  0
 17 16  2  0  0  0  0
 18 19  1  0  0  0  0
 20 18  2  0  0  0  0
 24 29  1  0  0  0  0
 24 25  2  0  0  0  0
 26 25  1  6  0  0  0
 26 22  1  0  0  0  0
 28 27  1  1  0  0  0
 28 26  1  0  0  0  0
 28 23  1  0  0  0  0
 29 27  1  0  0  0  0
 30 21  1  6  0  0  0
 30 23  1  0  0  0  0
 31 30  1  0  0  0  0
 31 22  1  0  0  0  0
 32 33  1  0  0  0  0
 32 24  1  0  0  0  0
 34 32  2  0  0  0  0
M  END
>  <MODEL>
7

>  <REMARK>
 VINA RESULT:      -7.7      1.913      9.879
  Name = 
  4 active torsions:
  status: ('A' for Active; 'I' for Inactive)
    1  A    between atoms: C_3  and  C_25
    2  A    between atoms: C_7  and  C_11
    3  A    between atoms: N_8  and  C_18
    4  A    between atoms: C_18  and  C_30
                            x       y       z     vdW  Elec       q    Type
                         _______ _______ _______ _____ _____    ______ ____

>  <TORSDO>
F 4

$$$$
=
 OpenBabel11052420153D

 34 38  0  0  1  0  0  0  0  0999 V2000
  190.3550  174.4130  141.5770 C   0  0  0  0  0  0  0  0  0  0  0  0
  187.3460  176.5130  141.9240 C   0  0  0  0  0  3  0  0  0  0  0  0
  187.8260  174.7710  140.5690 O   0  0  0  0  0  0  0  0  0  0  0  0
  192.5650  173.2150  141.4270 N   0  0  0  0  0  0  0  0  0  0  0  0
  191.7870  174.2830  142.0700 C   0  0  0  0  0  2  0  0  0  0  0  0
  190.8510  172.7430  139.7450 C   0  0  2  0  0  3  0  0  0  0  0  0
  190.6130  171.4470  140.2100 O   0  0  0  0  0  1  0  0  0  0  0  0
  192.3010  173.1250  139.9910 C   0  0  0  0  0  2  0  0  0  0  0  0
  188.6220  173.8870  139.9840 C   0  0  0  0  0  0  0  0  0  0  0  0
  189.9350  173.7140  140.4330 C   0  0  0  0  0  0  0  0  0  0  0  0
  188.1910  173.2240  139.0020 O   0  0  0  0  0  0  0  0  0  0  0  0
  187.6360  177.6680  142.8210 C   0  0  0  0  0  2  0  0  0  0  0  0
  187.9720  177.2610  144.2100 C   0  0  0  0  0  0  0  0  0  0  0  0
  189.0090  176.4630  144.4560 C   0  0  0  0  0  3  0  0  0  0  0  0
  188.1920  175.5230  141.6040 C   0  0  0  0  0  0  0  0  0  0  0  0
  189.8010  175.7230  143.4590 C   0  0  0  0  0  3  0  0  0  0  0  0
  189.4560  175.2920  142.2260 C   0  0  0  0  0  0  0  0  0  0  0  0
  187.2510  177.8940  145.3310 C   0  0  0  0  0  0  0  0  0  0  0  0
  187.5820  177.5760  146.6450 O   0  0  0  0  0  1  0  0  0  0  0  0
  186.3170  178.7160  145.1070 O   0  0  0  0  0  0  0  0  0  0  0  0
  194.0090  173.4350  141.6230 C   0  0  0  0  0  2  0  0  0  0  0  0
  193.9120  172.7100  145.3490 C   0  0  0  0  0  2  0  0  0  0  0  0
  194.8550  174.6320  143.6270 O   0  0  0  0  0  0  0  0  0  0  0  0
  192.1340  175.7690  146.6170 C   0  0  0  0  0  0  0  0  0  0  0  0
  192.6330  174.5190  146.5750 C   0  0  0  0  0  3  0  0  0  0  0  0
  193.8330  174.1870  145.7370 C   0  0  2  0  0  3  0  0  0  0  0  0
  193.9330  176.4940  144.9090 C   0  0  0  0  0  2  0  0  0  0  0  0
  193.8240  175.0430  144.4870 C   0  0  1  0  0  3  0  0  0  0  0  0
  192.6750  176.8740  145.7140 C   0  0  0  0  0  2  0  0  0  0  0  0
  194.5220  173.3520  143.0830 C   0  0  1  0  0  3  0  0  0  0  0  0
  193.6260  172.5210  143.9220 N   0  0  0  0  0  2  0  0  0  0  0  0
  190.9530  176.0440  147.4550 C   0  0  0  0  0  0  0  0  0  0  0  0
  190.8160  177.1670  148.0120 O   0  0  0  0  0  1  0  0  0  0  0  0
  189.9750  175.0740  147.6380 O   0  0  0  0  0  0  0  0  0  0  0  0
  1  5  1  0  0  0  0
  1 17  1  0  0  0  0
  2 12  1  0  0  0  0
  3 15  1  0  0  0  0
  4 21  1  0  0  0  0
  4  5  1  0  0  0  0
  6  8  1  0  0  0  0
  6  7  1  1  0  0  0
  6 10  1  0  0  0  0
  8  4  1  0  0  0  0
  9 10  1  0  0  0  0
  9  3  1  0  0  0  0
 10  1  2  0  0  0  0
 11  9  2  0  0  0  0
 12 13  1  0  0  0  0
 13 14  2  0  0  0  0
 13 18  1  0  0  0  0
 15  2  2  0  0  0  0
 15 17  1  0  0  0  0
 16 14  1  0  0  0  0
 17 16  2  0  0  0  0
 18 19  1  0  0  0  0
 20 18  2  0  0  0  0
 23 28  1  0  0  0  0
 24 32  1  0  0  0  0
 25 24  2  0  0  0  0
 26 22  1  6  0  0  0
 26 25  1  0  0  0  0
 27 29  1  0  0  0  0
 28 27  1  1  0  0  0
 28 26  1  0  0  0  0
 29 24  1  0  0  0  0
 30 21  1  6  0  0  0
 30 23  1  0  0  0  0
 30 31  1  0  0  0  0
 31 22  1  0  0  0  0
 32 34  2  0  0  0  0
 32 33  1  0  0  0  0
M  END
>  <MODEL>
8

>  <REMARK>
 VINA RESULT:      -7.7      2.667      7.951
  Name = 
  4 active torsions:
  status: ('A' for Active; 'I' for Inactive)
    1  A    between atoms: C_3  and  C_25
    2  A    between atoms: C_7  and  C_11
    3  A    between atoms: N_8  and  C_18
    4  A    between atoms: C_18  and  C_30
                            x       y       z     vdW  Elec       q    Type
                         _______ _______ _______ _____ _____    ______ ____

>  <TORSDO>
F 4

$$$$
=
 OpenBabel11052420153D

 34 38  0  0  1  0  0  0  0  0999 V2000
  190.7240  176.4210  145.0430 C   0  0  0  0  0  0  0  0  0  0  0  0
  187.3870  176.5080  146.6050 C   0  0  0  0  0  3  0  0  0  0  0  0
  189.4300  176.0160  147.4310 O   0  0  0  0  0  0  0  0  0  0  0  0
  192.8660  176.2900  143.7250 N   0  0  0  0  0  0  0  0  0  0  0  0
  191.4190  176.5500  143.6980 C   0  0  0  0  0  2  0  0  0  0  0  0
  192.8520  175.4840  146.0350 C   0  0  2  0  0  3  0  0  0  0  0  0
  193.6530  176.5270  146.5070 O   0  0  0  0  0  1  0  0  0  0  0  0
  193.2100  175.1650  144.5930 C   0  0  0  0  0  2  0  0  0  0  0  0
  190.7200  175.7190  147.3510 C   0  0  0  0  0  0  0  0  0  0  0  0
  191.4020  175.8600  146.1380 C   0  0  0  0  0  0  0  0  0  0  0  0
  191.3170  175.2830  148.3720 O   0  0  0  0  0  0  0  0  0  0  0  0
  186.3420  176.6830  145.5550 C   0  0  0  0  0  2  0  0  0  0  0  0
  186.4510  177.9750  144.8300 C   0  0  0  0  0  0  0  0  0  0  0  0
  187.5580  178.2920  144.1630 C   0  0  0  0  0  3  0  0  0  0  0  0
  188.7130  176.4730  146.4080 C   0  0  0  0  0  0  0  0  0  0  0  0
  188.8450  177.5770  144.2090 C   0  0  0  0  0  3  0  0  0  0  0  0
  189.3680  176.8000  145.1820 C   0  0  0  0  0  0  0  0  0  0  0  0
  185.2530  178.8270  144.7100 C   0  0  0  0  0  0  0  0  0  0  0  0
  185.3320  180.0620  144.0740 O   0  0  0  0  0  0  0  0  0  0  0  0
  184.1500  178.4500  145.1990 O   0  0  0  0  0  1  0  0  0  0  0  0
  193.3660  176.0040  142.3680 C   0  0  0  0  0  2  0  0  0  0  0  0
  197.0380  175.9660  141.4000 C   0  0  0  0  0  2  0  0  0  0  0  0
  194.9120  174.2340  141.5680 O   0  0  0  0  0  0  0  0  0  0  0  0
  196.8200  174.7260  137.8590 C   0  0  0  0  0  0  0  0  0  0  0  0
  197.3100  175.3050  138.9720 C   0  0  0  0  0  3  0  0  0  0  0  0
  196.8500  174.8840  140.3370 C   0  0  2  0  0  3  0  0  0  0  0  0
  195.2740  173.2860  139.3470 C   0  0  0  0  0  2  0  0  0  0  0  0
  195.3910  174.4810  140.2710 C   0  0  1  0  0  3  0  0  0  0  0  0
  195.6780  173.7170  137.9240 C   0  0  0  0  0  2  0  0  0  0  0  0
  194.8200  175.4750  142.2710 C   0  0  1  0  0  3  0  0  0  0  0  0
  195.7480  176.5350  141.8110 N   0  0  0  0  0  2  0  0  0  0  0  0
  197.3040  175.1750  136.5410 C   0  0  0  0  0  0  0  0  0  0  0  0
  197.1690  176.3780  136.1900 O   0  0  0  0  0  1  0  0  0  0  0  0
  197.9180  174.2810  135.6720 O   0  0  0  0  0  0  0  0  0  0  0  0
  1 17  1  0  0  0  0
  1 10  2  0  0  0  0
  4  8  1  0  0  0  0
  5  4  1  0  0  0  0
  5  1  1  0  0  0  0
  6 10  1  0  0  0  0
  6  7  1  6  0  0  0
  8  6  1  0  0  0  0
  9  3  1  0  0  0  0
  9 11  2  0  0  0  0
 10  9  1  0  0  0  0
 12  2  1  0  0  0  0
 13 12  1  0  0  0  0
 14 16  1  0  0  0  0
 14 13  2  0  0  0  0
 15  2  2  0  0  0  0
 15  3  1  0  0  0  0
 16 17  2  0  0  0  0
 17 15  1  0  0  0  0
 18 13  1  0  0  0  0
 18 20  1  0  0  0  0
 19 18  2  0  0  0  0
 21  4  1  0  0  0  0
 22 31  1  0  0  0  0
 23 30  1  0  0  0  0
 24 29  1  0  0  0  0
 24 25  2  0  0  0  0
 26 25  1  6  0  0  0
 26 22  1  0  0  0  0
 28 27  1  6  0  0  0
 28 26  1  0  0  0  0
 28 23  1  0  0  0  0
 29 27  1  0  0  0  0
 30 21  1  6  0  0  0
 31 30  1  0  0  0  0
 32 24  1  0  0  0  0
 33 32  1  0  0  0  0
 34 32  2  0  0  0  0
M  END
>  <MODEL>
9

>  <REMARK>
 VINA RESULT:      -7.7      4.431      9.616
  Name = 
  4 active torsions:
  status: ('A' for Active; 'I' for Inactive)
    1  A    between atoms: C_3  and  C_25
    2  A    between atoms: C_7  and  C_11
    3  A    between atoms: N_8  and  C_18
    4  A    between atoms: C_18  and  C_30
                            x       y       z     vdW  Elec       q    Type
                         _______ _______ _______ _____ _____    ______ ____

>  <TORSDO>
F 4

$$$$
