=
 OpenBabel11052420113D

 37 40  0  0  1  0  0  0  0  0999 V2000
  188.8370  177.9150  143.5110 C   0  0  0  0  0  2  0  0  0  0  0  0
  188.6220  175.3780  143.0260 C   0  0  2  0  0  3  0  0  0  0  0  0
  189.0050  175.9940  146.0530 C   0  0  0  0  0  0  0  0  0  0  0  0
  187.9270  176.6880  143.4440 C   0  0  2  0  0  3  0  0  0  0  0  0
  189.9590  177.7740  144.5360 C   0  0  0  0  0  2  0  0  0  0  0  0
  189.5830  174.7320  143.9950 C   0  0  0  0  0  3  0  0  0  0  0  0
  189.4320  177.4300  145.9280 C   0  0  0  0  0  2  0  0  0  0  0  0
  188.2950  175.6630  147.1220 C   0  0  0  0  0  2  0  0  0  0  0  0
  189.7200  174.9340  145.3130 C   0  0  0  0  0  0  0  0  0  0  0  0
  186.4890  177.0420  142.4060 S   0  0  2  0  0  0  0  0  0  0  0  0
  186.7880  178.4200  141.8320 O   0  0  0  0  0  0  0  0  0  0  0  0
  185.0940  177.3260  143.5290 C   0  0  0  0  0  2  0  0  0  0  0  0
  185.3940  179.7290  144.0940 C   0  0  0  0  0  1  0  0  0  0  0  0
  185.4430  178.3130  144.6340 C   0  0  1  0  0  3  0  0  0  0  0  0
  184.4430  178.1760  145.7820 C   0  0  1  0  0  3  0  0  0  0  0  0
  186.5070  178.7510  147.2210 C   0  0  0  0  0  1  0  0  0  0  0  0
  184.8270  177.0180  146.6860 C   0  0  0  0  0  2  0  0  0  0  0  0
  185.0190  178.4380  147.1810 C   0  0  2  0  0  3  0  0  0  0  0  0
  190.7240  174.0890  146.0340 C   0  0  0  0  0  2  0  0  0  0  0  0
  192.1220  174.6920  145.9730 C   0  0  2  0  0  0  0  0  0  0  0  0
  192.7520  174.6460  144.5880 C   0  0  2  0  0  3  0  0  0  0  0  0
  193.2360  173.7110  145.6930 C   0  0  0  0  0  2  0  0  0  0  0  0
  192.4890  175.8660  146.8730 C   0  0  0  0  0  1  0  0  0  0  0  0
  193.3150  176.2760  143.2080 C   0  0  0  0  0  1  0  0  0  0  0  0
  193.6810  175.6760  144.4120 O   0  0  0  0  0  0  0  0  0  0  0  0
  189.1340  175.3280  141.5840 C   0  0  0  0  0  2  0  0  0  0  0  0
  188.5900  174.1300  140.8140 C   0  0  2  0  0  3  0  0  0  0  0  0
  187.6530  173.4750  141.6180 O   0  0  0  0  0  1  0  0  0  0  0  0
  189.7110  173.1640  140.4060 C   0  0  1  0  0  3  0  0  0  0  0  0
  189.4890  171.6390  138.4280 O   0  0  0  0  0  1  0  0  0  0  0  0
  189.6990  172.9190  138.9300 C   0  0  0  0  0  0  0  0  0  0  0  0
  189.8280  173.8860  138.1380 O   0  0  0  0  0  0  0  0  0  0  0  0
  191.0820  173.7130  140.7850 C   0  0  0  0  0  2  0  0  0  0  0  0
  191.8640  172.6990  141.5980 C   0  0  0  0  0  2  0  0  0  0  0  0
  191.5800  170.3890  142.4070 C   0  0  0  0  0  2  0  0  0  0  0  0
  191.4490  171.3110  143.5990 C   0  0  0  0  0  2  0  0  0  0  0  0
  190.8990  171.7330  142.2510 C   0  0  0  0  0  3  0  0  0  0  0  0
  1  5  1  0  0  0  0
  2 26  1  6  0  0  0
  2  4  1  0  0  0  0
  2  6  1  0  0  0  0
  3  8  2  0  0  0  0
  4 10  1  6  0  0  0
  4  1  1  0  0  0  0
  5  7  1  0  0  0  0
  6  9  2  0  0  0  0
  7  3  1  0  0  0  0
  9 19  1  0  0  0  0
  9  3  1  0  0  0  0
 10 11  2  1  0  0  0
 10 12  1  0  0  0  0
 12 14  1  0  0  0  0
 14 13  1  6  0  0  0
 15 14  1  6  0  0  0
 15 17  1  0  0  0  0
 15 18  1  0  0  0  0
 17 18  1  0  0  0  0
 18 16  1  6  0  0  0
 20 19  1  0  0  0  0
 20 23  1  1  0  0  0
 21 25  1  1  0  0  0
 21 22  1  0  0  0  0
 21 20  1  0  0  0  0
 22 20  1  0  0  0  0
 24 25  1  0  0  0  0
 27 26  1  0  0  0  0
 27 28  1  1  0  0  0
 29 33  1  6  0  0  0
 29 27  1  0  0  0  0
 30 31  1  0  0  0  0
 31 29  1  0  0  0  0
 32 31  2  0  0  0  0
 33 34  1  0  0  0  0
 34 37  1  0  0  0  0
 35 36  1  0  0  0  0
 37 35  1  0  0  0  0
 37 36  1  0  0  0  0
M  END
>  <MODEL>
1

>  <REMARK>
 VINA RESULT:      -6.5      0.000      0.000
  Name = 
  14 active torsions:
  status: ('A' for Active; 'I' for Inactive)
    1  A    between atoms: C_1  and  C_26
    2  A    between atoms: C_2  and  C_35
    3  A    between atoms: C_4  and  C_13
    4  A    between atoms: C_4  and  C_28
    5  A    between atoms: C_5  and  O_23
    6  A    between atoms: C_6  and  S_31
    7  A    between atoms: C_6  and  C_35
    8  A    between atoms: C_10  and  C_28
    9  A    between atoms: C_13  and  C_16
   10  A    between atoms: C_13  and  C_20
   11  A    between atoms: C_14  and  S_31
   12  A    between atoms: C_20  and  C_25
   13  A    between atoms: C_25  and  C_32
   14  A    between atoms: C_26  and  C_36
                            x       y       z     vdW  Elec       q    Type
                         _______ _______ _______ _____ _____    ______ ____

>  <TORSDO>
F 14

$$$$
=
 OpenBabel11052420113D

 37 40  0  0  1  0  0  0  0  0999 V2000
  188.9560  177.3410  142.5400 C   0  0  0  0  0  2  0  0  0  0  0  0
  188.7570  174.9880  143.6070 C   0  0  2  0  0  3  0  0  0  0  0  0
  190.0650  177.0690  145.5190 C   0  0  0  0  0  0  0  0  0  0  0  0
  188.1530  176.3950  143.4350 C   0  0  2  0  0  3  0  0  0  0  0  0
  190.3570  177.6270  143.0730 C   0  0  0  0  0  2  0  0  0  0  0  0
  190.0200  174.8420  144.4220 C   0  0  0  0  0  3  0  0  0  0  0  0
  190.3350  178.1490  144.5090 C   0  0  0  0  0  2  0  0  0  0  0  0
  189.7650  177.4520  146.7520 C   0  0  0  0  0  2  0  0  0  0  0  0
  190.5660  175.6960  145.2990 C   0  0  0  0  0  0  0  0  0  0  0  0
  186.4360  176.3210  142.8720 S   0  0  2  0  0  0  0  0  0  0  0  0
  186.4220  177.2110  141.6360 O   0  0  0  0  0  0  0  0  0  0  0  0
  185.4510  177.2380  144.0860 C   0  0  0  0  0  2  0  0  0  0  0  0
  186.3170  179.5560  143.8260 C   0  0  0  0  0  1  0  0  0  0  0  0
  186.2520  178.3520  144.7470 C   0  0  1  0  0  3  0  0  0  0  0  0
  185.5840  178.7580  146.0600 C   0  0  1  0  0  3  0  0  0  0  0  0
  186.6770  176.5810  146.9150 C   0  0  0  0  0  1  0  0  0  0  0  0
  184.5370  177.7340  146.4620 C   0  0  0  0  0  2  0  0  0  0  0  0
  185.8360  177.8070  147.2390 C   0  0  2  0  0  3  0  0  0  0  0  0
  191.8020  175.2460  146.0140 C   0  0  0  0  0  2  0  0  0  0  0  0
  193.0650  175.8040  145.3710 C   0  0  2  0  0  0  0  0  0  0  0  0
  194.3310  175.5520  146.1780 C   0  0  2  0  0  3  0  0  0  0  0  0
  193.7170  176.9480  146.1120 C   0  0  0  0  0  2  0  0  0  0  0  0
  193.1960  175.8440  143.8530 C   0  0  0  0  0  1  0  0  0  0  0  0
  196.1490  174.3640  145.7760 C   0  0  0  0  0  1  0  0  0  0  0  0
  195.4620  175.5030  145.3580 O   0  0  0  0  0  0  0  0  0  0  0  0
  188.7730  174.1130  142.3520 C   0  0  0  0  0  2  0  0  0  0  0  0
  190.0940  173.3730  142.1750 C   0  0  2  0  0  3  0  0  0  0  0  0
  190.8750  174.0750  141.2520 O   0  0  0  0  0  1  0  0  0  0  0  0
  189.8750  171.9300  141.6990 C   0  0  1  0  0  3  0  0  0  0  0  0
  191.3870  171.3340  139.7880 O   0  0  0  0  0  1  0  0  0  0  0  0
  190.1530  171.7980  140.2350 C   0  0  0  0  0  0  0  0  0  0  0  0
  189.2470  172.0580  139.4030 O   0  0  0  0  0  0  0  0  0  0  0  0
  190.7810  170.9560  142.4430 C   0  0  0  0  0  2  0  0  0  0  0  0
  191.2880  171.5710  143.7340 C   0  0  0  0  0  2  0  0  0  0  0  0
  193.6320  172.2730  143.4520 C   0  0  0  0  0  2  0  0  0  0  0  0
  193.3770  172.1150  144.9350 C   0  0  0  0  0  2  0  0  0  0  0  0
  192.7290  171.1630  143.9490 C   0  0  0  0  0  3  0  0  0  0  0  0
  1  5  1  0  0  0  0
  1  4  1  0  0  0  0
  2 26  1  6  0  0  0
  2  6  1  0  0  0  0
  3  8  2  0  0  0  0
  4 10  1  6  0  0  0
  4  2  1  0  0  0  0
  5  7  1  0  0  0  0
  6  9  2  0  0  0  0
  7  3  1  0  0  0  0
  9  3  1  0  0  0  0
  9 19  1  0  0  0  0
 10 11  2  6  0  0  0
 10 12  1  0  0  0  0
 12 14  1  0  0  0  0
 14 13  1  6  0  0  0
 15 14  1  6  0  0  0
 15 17  1  0  0  0  0
 15 18  1  0  0  0  0
 17 18  1  0  0  0  0
 18 16  1  6  0  0  0
 20 23  1  6  0  0  0
 20 19  1  0  0  0  0
 20 22  1  0  0  0  0
 20 21  1  0  0  0  0
 21 25  1  6  0  0  0
 22 21  1  0  0  0  0
 25 24  1  0  0  0  0
 27 28  1  6  0  0  0
 27 26  1  0  0  0  0
 29 27  1  0  0  0  0
 29 33  1  1  0  0  0
 30 31  1  0  0  0  0
 31 29  1  0  0  0  0
 32 31  2  0  0  0  0
 33 34  1  0  0  0  0
 34 37  1  0  0  0  0
 35 37  1  0  0  0  0
 35 36  1  0  0  0  0
 37 36  1  0  0  0  0
M  END
>  <MODEL>
2

>  <REMARK>
 VINA RESULT:      -6.5      1.470      2.059
  Name = 
  14 active torsions:
  status: ('A' for Active; 'I' for Inactive)
    1  A    between atoms: C_1  and  C_26
    2  A    between atoms: C_2  and  C_35
    3  A    between atoms: C_4  and  C_13
    4  A    between atoms: C_4  and  C_28
    5  A    between atoms: C_5  and  O_23
    6  A    between atoms: C_6  and  S_31
    7  A    between atoms: C_6  and  C_35
    8  A    between atoms: C_10  and  C_28
    9  A    between atoms: C_13  and  C_16
   10  A    between atoms: C_13  and  C_20
   11  A    between atoms: C_14  and  S_31
   12  A    between atoms: C_20  and  C_25
   13  A    between atoms: C_25  and  C_32
   14  A    between atoms: C_26  and  C_36
                            x       y       z     vdW  Elec       q    Type
                         _______ _______ _______ _____ _____    ______ ____

>  <TORSDO>
F 14

$$$$
=
 OpenBabel11052420113D

 37 40  0  0  1  0  0  0  0  0999 V2000
  189.1110  172.9760  142.1790 C   0  0  0  0  0  2  0  0  0  0  0  0
  188.7730  175.5320  141.9180 C   0  0  2  0  0  3  0  0  0  0  0  0
  191.6220  174.7930  142.9340 C   0  0  0  0  0  0  0  0  0  0  0  0
  189.2860  174.2170  141.3020 C   0  0  2  0  0  3  0  0  0  0  0  0
  189.8710  173.0620  143.4990 C   0  0  0  0  0  2  0  0  0  0  0  0
  189.5330  176.1280  143.0790 C   0  0  0  0  0  3  0  0  0  0  0  0
  191.3560  173.3580  143.2930 C   0  0  0  0  0  2  0  0  0  0  0  0
  192.8310  175.0920  142.4800 C   0  0  0  0  0  2  0  0  0  0  0  0
  190.7820  175.8720  143.4940 C   0  0  0  0  0  0  0  0  0  0  0  0
  188.5730  173.9220  139.6660 S   0  0  2  0  0  0  0  0  0  0  0  0
  187.8890  172.5700  139.8080 O   0  0  0  0  0  0  0  0  0  0  0  0
  189.9600  173.5980  138.5440 C   0  0  0  0  0  2  0  0  0  0  0  0
  189.7990  171.6640  136.9890 C   0  0  0  0  0  1  0  0  0  0  0  0
  190.2210  172.1080  138.3770 C   0  0  1  0  0  3  0  0  0  0  0  0
  191.7110  171.8210  138.5650 C   0  0  1  0  0  3  0  0  0  0  0  0
  190.8580  170.3920  140.5370 C   0  0  0  0  0  1  0  0  0  0  0  0
  192.1930  172.3700  139.8960 C   0  0  0  0  0  2  0  0  0  0  0  0
  192.0500  170.8720  139.7230 C   0  0  2  0  0  3  0  0  0  0  0  0
  191.2980  176.6750  144.6480 C   0  0  0  0  0  2  0  0  0  0  0  0
  191.0370  175.9840  145.9820 C   0  0  2  0  0  0  0  0  0  0  0  0
  191.9150  176.4890  147.1180 C   0  0  2  0  0  3  0  0  0  0  0  0
  192.1650  175.1190  146.4920 C   0  0  0  0  0  2  0  0  0  0  0  0
  189.6320  175.5110  146.3350 C   0  0  0  0  0  1  0  0  0  0  0  0
  191.5350  177.5210  149.0330 C   0  0  0  0  0  1  0  0  0  0  0  0
  191.2930  176.3250  148.3590 O   0  0  0  0  0  0  0  0  0  0  0  0
  187.2580  175.6320  142.1060 C   0  0  0  0  0  2  0  0  0  0  0  0
  186.6810  176.9150  141.5200 C   0  0  2  0  0  3  0  0  0  0  0  0
  187.7020  177.5940  140.8490 O   0  0  0  0  0  1  0  0  0  0  0  0
  186.0720  177.8110  142.6090 C   0  0  1  0  0  3  0  0  0  0  0  0
  184.2750  178.3180  140.9350 O   0  0  0  0  0  0  0  0  0  0  0  0
  184.6690  178.1990  142.2630 C   0  0  0  0  0  0  0  0  0  0  0  0
  183.8260  178.3670  143.1810 O   0  0  0  0  0  1  0  0  0  0  0  0
  186.0500  177.1040  143.9590 C   0  0  0  0  0  2  0  0  0  0  0  0
  186.8490  177.8810  144.9880 C   0  0  0  0  0  2  0  0  0  0  0  0
  185.1390  176.8770  146.4500 C   0  0  0  0  0  2  0  0  0  0  0  0
  186.3820  177.0970  147.2830 C   0  0  0  0  0  2  0  0  0  0  0  0
  185.9960  178.1040  146.2180 C   0  0  0  0  0  3  0  0  0  0  0  0
  1  5  1  0  0  0  0
  2 26  1  1  0  0  0
  2  6  1  0  0  0  0
  3  7  1  0  0  0  0
  3  9  1  0  0  0  0
  4 10  1  6  0  0  0
  4  2  1  0  0  0  0
  4  1  1  0  0  0  0
  6  9  2  0  0  0  0
  7  5  1  0  0  0  0
  8  3  2  0  0  0  0
  9 19  1  0  0  0  0
 10 11  2  1  0  0  0
 12 10  1  0  0  0  0
 14 13  1  6  0  0  0
 14 12  1  0  0  0  0
 15 14  1  1  0  0  0
 15 18  1  0  0  0  0
 15 17  1  0  0  0  0
 18 17  1  0  0  0  0
 18 16  1  1  0  0  0
 19 20  1  0  0  0  0
 20 23  1  1  0  0  0
 20 22  1  0  0  0  0
 20 21  1  0  0  0  0
 21 25  1  1  0  0  0
 22 21  1  0  0  0  0
 25 24  1  0  0  0  0
 27 28  1  1  0  0  0
 27 26  1  0  0  0  0
 27 29  1  0  0  0  0
 29 33  1  1  0  0  0
 30 31  2  0  0  0  0
 31 29  1  0  0  0  0
 31 32  1  0  0  0  0
 33 34  1  0  0  0  0
 34 37  1  0  0  0  0
 35 36  1  0  0  0  0
 37 35  1  0  0  0  0
 37 36  1  0  0  0  0
M  END
>  <MODEL>
3

>  <REMARK>
 VINA RESULT:      -6.3      2.033      7.045
  Name = 
  14 active torsions:
  status: ('A' for Active; 'I' for Inactive)
    1  A    between atoms: C_1  and  C_26
    2  A    between atoms: C_2  and  C_35
    3  A    between atoms: C_4  and  C_13
    4  A    between atoms: C_4  and  C_28
    5  A    between atoms: C_5  and  O_23
    6  A    between atoms: C_6  and  S_31
    7  A    between atoms: C_6  and  C_35
    8  A    between atoms: C_10  and  C_28
    9  A    between atoms: C_13  and  C_16
   10  A    between atoms: C_13  and  C_20
   11  A    between atoms: C_14  and  S_31
   12  A    between atoms: C_20  and  C_25
   13  A    between atoms: C_25  and  C_32
   14  A    between atoms: C_26  and  C_36
                            x       y       z     vdW  Elec       q    Type
                         _______ _______ _______ _____ _____    ______ ____

>  <TORSDO>
F 14

$$$$
=
 OpenBabel11052420113D

 37 40  0  0  1  0  0  0  0  0999 V2000
  188.8690  172.2500  142.2540 C   0  0  0  0  0  2  0  0  0  0  0  0
  189.0140  174.8160  142.5810 C   0  0  2  0  0  3  0  0  0  0  0  0
  191.0040  173.2580  144.4000 C   0  0  0  0  0  0  0  0  0  0  0  0
  189.5710  173.5580  141.8880 C   0  0  2  0  0  3  0  0  0  0  0  0
  188.9760  171.9060  143.7370 C   0  0  0  0  0  2  0  0  0  0  0  0
  189.2560  174.9890  144.0610 C   0  0  0  0  0  3  0  0  0  0  0  0
  190.4240  171.8820  144.2230 C   0  0  0  0  0  2  0  0  0  0  0  0
  192.3170  173.3480  144.5590 C   0  0  0  0  0  2  0  0  0  0  0  0
  190.1510  174.3780  144.8500 C   0  0  0  0  0  0  0  0  0  0  0  0
  189.6180  173.7500  140.0900 S   0  0  2  0  0  0  0  0  0  0  0  0
  188.4450  172.9090  139.6060 O   0  0  0  0  0  0  0  0  0  0  0  0
  191.0790  172.8470  139.5080 C   0  0  0  0  0  2  0  0  0  0  0  0
  192.2290  171.2030  140.9780 C   0  0  0  0  0  1  0  0  0  0  0  0
  192.1150  172.6700  140.6090 C   0  0  1  0  0  3  0  0  0  0  0  0
  193.4740  173.1740  140.1230 C   0  0  1  0  0  3  0  0  0  0  0  0
  192.9130  175.1800  141.6460 C   0  0  0  0  0  1  0  0  0  0  0  0
  193.3100  174.4510  139.3180 C   0  0  0  0  0  2  0  0  0  0  0  0
  193.9130  174.5250  140.7070 C   0  0  2  0  0  3  0  0  0  0  0  0
  190.2060  174.8060  146.2830 C   0  0  0  0  0  2  0  0  0  0  0  0
  191.0720  176.0460  146.4730 C   0  0  2  0  0  0  0  0  0  0  0  0
  192.3940  175.7720  147.1760 C   0  0  2  0  0  3  0  0  0  0  0  0
  191.2600  176.4900  147.9040 C   0  0  0  0  0  2  0  0  0  0  0  0
  191.0460  177.1620  145.4350 C   0  0  0  0  0  1  0  0  0  0  0  0
  194.4560  175.9270  146.4000 C   0  0  0  0  0  1  0  0  0  0  0  0
  193.3720  176.7020  146.8110 O   0  0  0  0  0  0  0  0  0  0  0  0
  187.5980  175.2280  142.1740 C   0  0  0  0  0  2  0  0  0  0  0  0
  187.5390  176.6470  141.6220 C   0  0  2  0  0  3  0  0  0  0  0  0
  188.8080  177.2200  141.7380 O   0  0  0  0  0  1  0  0  0  0  0  0
  186.4990  177.5000  142.3630 C   0  0  1  0  0  3  0  0  0  0  0  0
  185.4390  177.7490  140.1040 O   0  0  0  0  0  0  0  0  0  0  0  0
  185.3190  177.7880  141.4890 C   0  0  0  0  0  0  0  0  0  0  0  0
  184.1990  178.0160  142.0120 O   0  0  0  0  0  1  0  0  0  0  0  0
  185.9980  176.7960  143.6190 C   0  0  0  0  0  2  0  0  0  0  0  0
  186.3380  177.6010  144.8590 C   0  0  0  0  0  2  0  0  0  0  0  0
  187.6230  177.4060  146.9520 C   0  0  0  0  0  2  0  0  0  0  0  0
  186.1690  177.1490  147.2820 C   0  0  0  0  0  2  0  0  0  0  0  0
  186.7470  176.6570  145.9700 C   0  0  0  0  0  3  0  0  0  0  0  0
  1  5  1  0  0  0  0
  2 26  1  1  0  0  0
  2  6  1  0  0  0  0
  3  8  2  0  0  0  0
  3  9  1  0  0  0  0
  4 10  1  6  0  0  0
  4  1  1  0  0  0  0
  4  2  1  0  0  0  0
  5  7  1  0  0  0  0
  6  9  2  0  0  0  0
  7  3  1  0  0  0  0
  9 19  1  0  0  0  0
 10 11  2  6  0  0  0
 12 10  1  0  0  0  0
 12 14  1  0  0  0  0
 14 13  1  6  0  0  0
 15 14  1  1  0  0  0
 15 18  1  0  0  0  0
 17 15  1  0  0  0  0
 17 18  1  0  0  0  0
 18 16  1  1  0  0  0
 19 20  1  0  0  0  0
 20 23  1  6  0  0  0
 20 21  1  0  0  0  0
 20 22  1  0  0  0  0
 21 25  1  6  0  0  0
 21 22  1  0  0  0  0
 24 25  1  0  0  0  0
 27 28  1  1  0  0  0
 27 26  1  0  0  0  0
 27 29  1  0  0  0  0
 29 33  1  1  0  0  0
 30 31  2  0  0  0  0
 31 32  1  0  0  0  0
 31 29  1  0  0  0  0
 33 34  1  0  0  0  0
 34 37  1  0  0  0  0
 35 36  1  0  0  0  0
 37 35  1  0  0  0  0
 37 36  1  0  0  0  0
M  END
>  <MODEL>
4

>  <REMARK>
 VINA RESULT:      -6.3      1.977      6.618
  Name = 
  14 active torsions:
  status: ('A' for Active; 'I' for Inactive)
    1  A    between atoms: C_1  and  C_26
    2  A    between atoms: C_2  and  C_35
    3  A    between atoms: C_4  and  C_13
    4  A    between atoms: C_4  and  C_28
    5  A    between atoms: C_5  and  O_23
    6  A    between atoms: C_6  and  S_31
    7  A    between atoms: C_6  and  C_35
    8  A    between atoms: C_10  and  C_28
    9  A    between atoms: C_13  and  C_16
   10  A    between atoms: C_13  and  C_20
   11  A    between atoms: C_14  and  S_31
   12  A    between atoms: C_20  and  C_25
   13  A    between atoms: C_25  and  C_32
   14  A    between atoms: C_26  and  C_36
                            x       y       z     vdW  Elec       q    Type
                         _______ _______ _______ _____ _____    ______ ____

>  <TORSDO>
F 14

$$$$
=
 OpenBabel11052420113D

 37 40  0  0  1  0  0  0  0  0999 V2000
  188.6860  172.3320  142.2060 C   0  0  0  0  0  2  0  0  0  0  0  0
  188.7320  174.8930  142.5960 C   0  0  2  0  0  3  0  0  0  0  0  0
  190.9750  173.4000  144.1550 C   0  0  0  0  0  0  0  0  0  0  0  0
  189.2780  173.6850  141.8110 C   0  0  2  0  0  3  0  0  0  0  0  0
  188.9620  171.9570  143.6590 C   0  0  0  0  0  2  0  0  0  0  0  0
  189.1150  175.0410  144.0490 C   0  0  0  0  0  3  0  0  0  0  0  0
  190.4520  172.0000  143.9950 C   0  0  0  0  0  2  0  0  0  0  0  0
  192.2910  173.5570  144.1830 C   0  0  0  0  0  2  0  0  0  0  0  0
  190.1160  174.4590  144.7240 C   0  0  0  0  0  0  0  0  0  0  0  0
  189.1310  173.9260  140.0250 S   0  0  2  0  0  0  0  0  0  0  0  0
  188.1860  172.8150  139.5880 O   0  0  0  0  0  0  0  0  0  0  0  0
  190.7260  173.4570  139.3030 C   0  0  0  0  0  2  0  0  0  0  0  0
  190.5990  171.6060  137.6460 C   0  0  0  0  0  1  0  0  0  0  0  0
  190.8410  171.9520  139.1030 C   0  0  1  0  0  3  0  0  0  0  0  0
  192.2390  171.4840  139.5060 C   0  0  1  0  0  3  0  0  0  0  0  0
  190.9110  169.8180  140.9630 C   0  0  0  0  0  1  0  0  0  0  0  0
  192.4760  171.7310  140.9860 C   0  0  0  0  0  2  0  0  0  0  0  0
  192.2720  170.3110  140.4970 C   0  0  2  0  0  3  0  0  0  0  0  0
  190.2960  174.8530  146.1570 C   0  0  0  0  0  2  0  0  0  0  0  0
  191.2050  176.0680  146.3020 C   0  0  2  0  0  0  0  0  0  0  0  0
  192.4890  175.7880  147.0690 C   0  0  2  0  0  3  0  0  0  0  0  0
  191.3620  176.5930  147.7090 C   0  0  0  0  0  2  0  0  0  0  0  0
  191.2600  177.1170  145.1980 C   0  0  0  0  0  1  0  0  0  0  0  0
  194.5690  175.8120  146.3240 C   0  0  0  0  0  1  0  0  0  0  0  0
  193.5170  176.6540  146.6840 O   0  0  0  0  0  0  0  0  0  0  0  0
  187.2610  175.2370  142.3480 C   0  0  0  0  0  2  0  0  0  0  0  0
  187.0830  176.6150  141.7210 C   0  0  2  0  0  3  0  0  0  0  0  0
  188.3400  177.2140  141.6030 O   0  0  0  0  0  1  0  0  0  0  0  0
  186.1470  177.5000  142.5570 C   0  0  1  0  0  3  0  0  0  0  0  0
  185.0940  178.1520  140.3770 O   0  0  0  0  0  0  0  0  0  0  0  0
  184.9740  177.9570  141.7490 C   0  0  0  0  0  0  0  0  0  0  0  0
  183.8590  178.1160  142.3060 O   0  0  0  0  0  1  0  0  0  0  0  0
  185.6200  176.7520  143.7770 C   0  0  0  0  0  2  0  0  0  0  0  0
  185.8640  177.5480  145.0450 C   0  0  0  0  0  2  0  0  0  0  0  0
  187.7180  177.4400  146.6640 C   0  0  0  0  0  2  0  0  0  0  0  0
  186.4260  177.2890  147.4360 C   0  0  0  0  0  2  0  0  0  0  0  0
  186.5620  176.6690  146.0600 C   0  0  0  0  0  3  0  0  0  0  0  0
  1  5  1  0  0  0  0
  2 26  1  1  0  0  0
  2  6  1  0  0  0  0
  3  8  2  0  0  0  0
  3  9  1  0  0  0  0
  4 10  1  6  0  0  0
  4  1  1  0  0  0  0
  4  2  1  0  0  0  0
  5  7  1  0  0  0  0
  6  9  2  0  0  0  0
  7  3  1  0  0  0  0
  9 19  1  0  0  0  0
 10 11  2  6  0  0  0
 12 10  1  0  0  0  0
 14 13  1  6  0  0  0
 14 12  1  0  0  0  0
 15 14  1  1  0  0  0
 15 18  1  0  0  0  0
 15 17  1  0  0  0  0
 18 16  1  1  0  0  0
 18 17  1  0  0  0  0
 19 20  1  0  0  0  0
 20 23  1  6  0  0  0
 20 21  1  0  0  0  0
 20 22  1  0  0  0  0
 21 25  1  6  0  0  0
 21 22  1  0  0  0  0
 24 25  1  0  0  0  0
 27 28  1  1  0  0  0
 27 26  1  0  0  0  0
 27 29  1  0  0  0  0
 29 33  1  1  0  0  0
 30 31  2  0  0  0  0
 31 32  1  0  0  0  0
 31 29  1  0  0  0  0
 33 34  1  0  0  0  0
 34 37  1  0  0  0  0
 35 36  1  0  0  0  0
 37 35  1  0  0  0  0
 37 36  1  0  0  0  0
M  END
>  <MODEL>
5

>  <REMARK>
 VINA RESULT:      -6.3      1.869      6.836
  Name = 
  14 active torsions:
  status: ('A' for Active; 'I' for Inactive)
    1  A    between atoms: C_1  and  C_26
    2  A    between atoms: C_2  and  C_35
    3  A    between atoms: C_4  and  C_13
    4  A    between atoms: C_4  and  C_28
    5  A    between atoms: C_5  and  O_23
    6  A    between atoms: C_6  and  S_31
    7  A    between atoms: C_6  and  C_35
    8  A    between atoms: C_10  and  C_28
    9  A    between atoms: C_13  and  C_16
   10  A    between atoms: C_13  and  C_20
   11  A    between atoms: C_14  and  S_31
   12  A    between atoms: C_20  and  C_25
   13  A    between atoms: C_25  and  C_32
   14  A    between atoms: C_26  and  C_36
                            x       y       z     vdW  Elec       q    Type
                         _______ _______ _______ _____ _____    ______ ____

>  <TORSDO>
F 14

$$$$
=
 OpenBabel11052420113D

 37 40  0  0  1  0  0  0  0  0999 V2000
  190.3200  174.3530  145.0720 C   0  0  0  0  0  2  0  0  0  0  0  0
  190.3170  174.6240  142.4950 C   0  0  2  0  0  3  0  0  0  0  0  0
  190.0350  177.3400  143.9900 C   0  0  0  0  0  0  0  0  0  0  0  0
  191.1250  174.6510  143.8060 C   0  0  2  0  0  3  0  0  0  0  0  0
  189.2070  175.3640  145.3280 C   0  0  0  0  0  2  0  0  0  0  0  0
  189.3220  175.7310  142.2390 C   0  0  0  0  0  3  0  0  0  0  0  0
  189.7270  176.8010  145.3590 C   0  0  0  0  0  2  0  0  0  0  0  0
  190.7330  178.4660  143.9230 C   0  0  0  0  0  2  0  0  0  0  0  0
  189.2230  176.9330  142.8240 C   0  0  0  0  0  0  0  0  0  0  0  0
  192.5710  173.5670  143.7240 S   0  0  2  0  0  0  0  0  0  0  0  0
  192.5010  172.7730  145.0210 O   0  0  0  0  0  0  0  0  0  0  0  0
  194.0270  174.6260  143.9330 C   0  0  0  0  0  2  0  0  0  0  0  0
  195.7550  173.8160  145.5290 C   0  0  0  0  0  1  0  0  0  0  0  0
  194.5040  174.6610  145.3780 C   0  0  1  0  0  3  0  0  0  0  0  0
  194.8180  176.1010  145.7830 C   0  0  1  0  0  3  0  0  0  0  0  0
  192.6690  175.8340  147.1870 C   0  0  0  0  0  1  0  0  0  0  0  0
  193.7230  177.0380  145.3030 C   0  0  0  0  0  2  0  0  0  0  0  0
  193.8330  176.7250  146.7820 C   0  0  2  0  0  3  0  0  0  0  0  0
  188.1660  177.8590  142.3120 C   0  0  0  0  0  2  0  0  0  0  0  0
  186.8130  177.5920  142.9620 C   0  0  2  0  0  0  0  0  0  0  0  0
  185.7710  178.6640  142.6780 C   0  0  2  0  0  3  0  0  0  0  0  0
  186.4200  178.5580  144.0550 C   0  0  0  0  0  2  0  0  0  0  0  0
  186.3200  176.1620  143.1390 C   0  0  0  0  0  1  0  0  0  0  0  0
  183.9800  178.2930  141.4390 C   0  0  0  0  0  1  0  0  0  0  0  0
  184.4740  178.1470  142.7360 O   0  0  0  0  0  0  0  0  0  0  0  0
  189.7800  173.2550  142.0730 C   0  0  0  0  0  2  0  0  0  0  0  0
  188.5170  173.3600  141.2270 C   0  0  2  0  0  3  0  0  0  0  0  0
  187.4970  172.6470  141.8630 O   0  0  0  0  0  1  0  0  0  0  0  0
  188.7400  172.8180  139.8080 C   0  0  1  0  0  3  0  0  0  0  0  0
  188.5750  173.5850  137.4250 O   0  0  0  0  0  0  0  0  0  0  0  0
  188.3780  173.8420  138.7780 C   0  0  0  0  0  0  0  0  0  0  0  0
  187.8430  174.9220  139.1360 O   0  0  0  0  0  1  0  0  0  0  0  0
  190.1950  172.4190  139.5890 C   0  0  0  0  0  2  0  0  0  0  0  0
  190.3270  170.9140  139.4560 C   0  0  0  0  0  2  0  0  0  0  0  0
  191.2400  169.8300  137.4400 C   0  0  0  0  0  2  0  0  0  0  0  0
  190.0680  169.0000  137.9160 C   0  0  0  0  0  2  0  0  0  0  0  0
  190.0210  170.5110  138.0290 C   0  0  0  0  0  3  0  0  0  0  0  0
  1  5  1  0  0  0  0
  2 26  1  1  0  0  0
  2  4  1  0  0  0  0
  3  7  1  0  0  0  0
  4 10  1  6  0  0  0
  4  1  1  0  0  0  0
  5  7  1  0  0  0  0
  6  2  1  0  0  0  0
  6  9  2  0  0  0  0
  8  3  2  0  0  0  0
  9  3  1  0  0  0  0
 10 12  1  0  0  0  0
 10 11  2  1  0  0  0
 12 14  1  0  0  0  0
 14 13  1  6  0  0  0
 15 14  1  6  0  0  0
 15 18  1  0  0  0  0
 17 15  1  0  0  0  0
 17 18  1  0  0  0  0
 18 16  1  6  0  0  0
 19  9  1  0  0  0  0
 19 20  1  0  0  0  0
 20 23  1  1  0  0  0
 20 22  1  0  0  0  0
 21 25  1  1  0  0  0
 21 20  1  0  0  0  0
 21 22  1  0  0  0  0
 24 25  1  0  0  0  0
 27 28  1  1  0  0  0
 27 26  1  0  0  0  0
 29 33  1  1  0  0  0
 29 27  1  0  0  0  0
 30 31  2  0  0  0  0
 31 32  1  0  0  0  0
 31 29  1  0  0  0  0
 34 33  1  0  0  0  0
 35 36  1  0  0  0  0
 35 37  1  0  0  0  0
 36 37  1  0  0  0  0
 37 34  1  0  0  0  0
M  END
>  <MODEL>
6

>  <REMARK>
 VINA RESULT:      -6.2      2.235      6.249
  Name = 
  14 active torsions:
  status: ('A' for Active; 'I' for Inactive)
    1  A    between atoms: C_1  and  C_26
    2  A    between atoms: C_2  and  C_35
    3  A    between atoms: C_4  and  C_13
    4  A    between atoms: C_4  and  C_28
    5  A    between atoms: C_5  and  O_23
    6  A    between atoms: C_6  and  S_31
    7  A    between atoms: C_6  and  C_35
    8  A    between atoms: C_10  and  C_28
    9  A    between atoms: C_13  and  C_16
   10  A    between atoms: C_13  and  C_20
   11  A    between atoms: C_14  and  S_31
   12  A    between atoms: C_20  and  C_25
   13  A    between atoms: C_25  and  C_32
   14  A    between atoms: C_26  and  C_36
                            x       y       z     vdW  Elec       q    Type
                         _______ _______ _______ _____ _____    ______ ____

>  <TORSDO>
F 14

$$$$
=
 OpenBabel11052420113D

 37 40  0  0  1  0  0  0  0  0999 V2000
  190.5800  173.1060  145.0680 C   0  0  0  0  0  2  0  0  0  0  0  0
  191.1580  175.0440  143.4490 C   0  0  2  0  0  3  0  0  0  0  0  0
  190.1790  176.0510  146.2270 C   0  0  0  0  0  0  0  0  0  0  0  0
  191.6190  174.1240  144.5950 C   0  0  2  0  0  3  0  0  0  0  0  0
  189.3170  173.7540  145.6280 C   0  0  0  0  0  2  0  0  0  0  0  0
  190.1200  176.0990  143.7450 C   0  0  0  0  0  3  0  0  0  0  0  0
  189.6240  174.7530  146.7430 C   0  0  0  0  0  2  0  0  0  0  0  0
  190.7210  176.8750  147.1130 C   0  0  0  0  0  2  0  0  0  0  0  0
  189.7290  176.5940  144.9280 C   0  0  0  0  0  0  0  0  0  0  0  0
  193.1700  173.2830  144.1950 S   0  0  2  0  0  0  0  0  0  0  0  0
  193.7700  172.9660  145.5580 O   0  0  0  0  0  0  0  0  0  0  0  0
  194.2800  174.5400  143.5070 C   0  0  0  0  0  2  0  0  0  0  0  0
  196.6640  174.6580  144.2070 C   0  0  0  0  0  1  0  0  0  0  0  0
  195.2480  175.0790  144.5500 C   0  0  1  0  0  3  0  0  0  0  0  0
  195.1710  176.6060  144.5850 C   0  0  1  0  0  3  0  0  0  0  0  0
  194.0840  176.1780  146.8860 C   0  0  0  0  0  1  0  0  0  0  0  0
  193.7240  177.0640  144.6070 C   0  0  0  0  0  2  0  0  0  0  0  0
  194.5600  177.1980  145.8630 C   0  0  2  0  0  3  0  0  0  0  0  0
  188.7140  177.6940  144.9090 C   0  0  0  0  0  2  0  0  0  0  0  0
  187.3380  177.2040  145.3450 C   0  0  2  0  0  0  0  0  0  0  0  0
  186.4160  178.3130  145.8330 C   0  0  2  0  0  3  0  0  0  0  0  0
  187.0440  177.3330  146.8210 C   0  0  0  0  0  2  0  0  0  0  0  0
  186.6950  176.0120  144.6470 C   0  0  0  0  0  1  0  0  0  0  0  0
  184.5180  179.1050  145.0280 C   0  0  0  0  0  1  0  0  0  0  0  0
  185.0710  177.9830  145.6440 O   0  0  0  0  0  0  0  0  0  0  0  0
  190.9190  174.3600  142.1010 C   0  0  0  0  0  2  0  0  0  0  0  0
  189.4370  174.1900  141.7890 C   0  0  2  0  0  3  0  0  0  0  0  0
  189.0710  172.8730  142.0820 O   0  0  0  0  0  1  0  0  0  0  0  0
  189.1270  174.5150  140.3210 C   0  0  1  0  0  3  0  0  0  0  0  0
  187.8650  172.6660  139.1900 O   0  0  0  0  0  1  0  0  0  0  0  0
  189.0810  173.2700  139.4920 C   0  0  0  0  0  0  0  0  0  0  0  0
  190.1470  172.7970  139.0200 O   0  0  0  0  0  0  0  0  0  0  0  0
  187.7870  175.2270  140.1810 C   0  0  0  0  0  2  0  0  0  0  0  0
  187.5120  176.1020  141.3900 C   0  0  0  0  0  2  0  0  0  0  0  0
  186.1440  177.8190  140.2720 C   0  0  0  0  0  2  0  0  0  0  0  0
  186.3570  178.2620  141.7030 C   0  0  0  0  0  2  0  0  0  0  0  0
  187.4690  177.5520  140.9570 C   0  0  0  0  0  3  0  0  0  0  0  0
  1  5  1  0  0  0  0
  2 26  1  6  0  0  0
  2  6  1  0  0  0  0
  2  4  1  0  0  0  0
  3  7  1  0  0  0  0
  3  8  2  0  0  0  0
  4 10  1  6  0  0  0
  4  1  1  0  0  0  0
  5  7  1  0  0  0  0
  6  9  2  0  0  0  0
  9  3  1  0  0  0  0
 10 11  2  1  0  0  0
 12 10  1  0  0  0  0
 12 14  1  0  0  0  0
 14 13  1  6  0  0  0
 15 14  1  1  0  0  0
 15 17  1  0  0  0  0
 15 18  1  0  0  0  0
 17 18  1  0  0  0  0
 18 16  1  1  0  0  0
 19  9  1  0  0  0  0
 19 20  1  0  0  0  0
 20 23  1  6  0  0  0
 20 21  1  0  0  0  0
 20 22  1  0  0  0  0
 21 25  1  6  0  0  0
 21 22  1  0  0  0  0
 24 25  1  0  0  0  0
 27 28  1  6  0  0  0
 27 26  1  0  0  0  0
 29 33  1  1  0  0  0
 29 27  1  0  0  0  0
 30 31  1  0  0  0  0
 31 29  1  0  0  0  0
 32 31  2  0  0  0  0
 33 34  1  0  0  0  0
 35 37  1  0  0  0  0
 35 36  1  0  0  0  0
 37 34  1  0  0  0  0
 37 36  1  0  0  0  0
M  END
>  <MODEL>
7

>  <REMARK>
 VINA RESULT:      -6.1      2.379      6.583
  Name = 
  14 active torsions:
  status: ('A' for Active; 'I' for Inactive)
    1  A    between atoms: C_1  and  C_26
    2  A    between atoms: C_2  and  C_35
    3  A    between atoms: C_4  and  C_13
    4  A    between atoms: C_4  and  C_28
    5  A    between atoms: C_5  and  O_23
    6  A    between atoms: C_6  and  S_31
    7  A    between atoms: C_6  and  C_35
    8  A    between atoms: C_10  and  C_28
    9  A    between atoms: C_13  and  C_16
   10  A    between atoms: C_13  and  C_20
   11  A    between atoms: C_14  and  S_31
   12  A    between atoms: C_20  and  C_25
   13  A    between atoms: C_25  and  C_32
   14  A    between atoms: C_26  and  C_36
                            x       y       z     vdW  Elec       q    Type
                         _______ _______ _______ _____ _____    ______ ____

>  <TORSDO>
F 14

$$$$
=
 OpenBabel11052420113D

 37 40  0  0  1  0  0  0  0  0999 V2000
  187.4940  174.8960  142.5690 C   0  0  0  0  0  2  0  0  0  0  0  0
  189.8880  175.8840  142.6670 C   0  0  2  0  0  3  0  0  0  0  0  0
  189.5770  173.7020  140.4690 C   0  0  0  0  0  0  0  0  0  0  0  0
  188.4930  175.9130  142.0140 C   0  0  2  0  0  3  0  0  0  0  0  0
  187.9400  173.4500  142.3760 C   0  0  0  0  0  2  0  0  0  0  0  0
  190.7890  174.7050  142.3900 C   0  0  0  0  0  3  0  0  0  0  0  0
  188.2590  173.1330  140.9150 C   0  0  0  0  0  2  0  0  0  0  0  0
  189.8240  173.7130  139.1660 C   0  0  0  0  0  2  0  0  0  0  0  0
  190.7120  173.7920  141.4120 C   0  0  0  0  0  0  0  0  0  0  0  0
  187.7710  177.5710  142.0510 S   0  0  2  0  0  0  0  0  0  0  0  0
  188.9310  178.4780  141.6620 O   0  0  0  0  0  0  0  0  0  0  0  0
  187.4670  177.9670  143.7930 C   0  0  0  0  0  2  0  0  0  0  0  0
  185.1670  177.7780  142.8640 C   0  0  0  0  0  1  0  0  0  0  0  0
  185.9830  177.9470  144.1320 C   0  0  1  0  0  3  0  0  0  0  0  0
  185.6860  176.7850  145.0800 C   0  0  1  0  0  3  0  0  0  0  0  0
  185.1120  178.6930  146.7210 C   0  0  0  0  0  1  0  0  0  0  0  0
  186.6410  176.8060  146.2600 C   0  0  0  0  0  2  0  0  0  0  0  0
  185.1920  177.1940  146.4750 C   0  0  2  0  0  3  0  0  0  0  0  0
  191.7970  172.7630  141.3480 C   0  0  0  0  0  2  0  0  0  0  0  0
  191.5000  171.5670  142.2450 C   0  0  2  0  0  0  0  0  0  0  0  0
  192.3010  170.3210  141.8950 C   0  0  2  0  0  3  0  0  0  0  0  0
  190.8130  170.4060  141.5660 C   0  0  0  0  0  2  0  0  0  0  0  0
  191.1380  171.7810  143.7090 C   0  0  0  0  0  1  0  0  0  0  0  0
  193.8610  169.2920  143.0720 C   0  0  0  0  0  1  0  0  0  0  0  0
  192.4830  169.4970  143.0090 O   0  0  0  0  0  0  0  0  0  0  0  0
  189.9460  176.3250  144.1310 C   0  0  0  0  0  2  0  0  0  0  0  0
  190.5550  175.2610  145.0370 C   0  0  2  0  0  3  0  0  0  0  0  0
  189.5280  174.6670  145.7750 O   0  0  0  0  0  1  0  0  0  0  0  0
  191.6120  175.8570  145.9770 C   0  0  1  0  0  3  0  0  0  0  0  0
  191.1960  175.3270  148.3930 O   0  0  0  0  0  1  0  0  0  0  0  0
  191.0210  176.1850  147.3120 C   0  0  0  0  0  0  0  0  0  0  0  0
  190.4070  177.2700  147.4710 O   0  0  0  0  0  0  0  0  0  0  0  0
  192.7690  174.8890  146.1960 C   0  0  0  0  0  2  0  0  0  0  0  0
  193.4550  174.5630  144.8830 C   0  0  0  0  0  2  0  0  0  0  0  0
  195.2360  175.3200  143.3580 C   0  0  0  0  0  2  0  0  0  0  0  0
  193.9630  176.0390  142.9690 C   0  0  0  0  0  2  0  0  0  0  0  0
  194.2600  175.7610  144.4290 C   0  0  0  0  0  3  0  0  0  0  0  0
  2 26  1  1  0  0  0
  3  7  1  0  0  0  0
  3  9  1  0  0  0  0
  4 10  1  1  0  0  0
  4  1  1  0  0  0  0
  4  2  1  0  0  0  0
  5  1  1  0  0  0  0
  6  2  1  0  0  0  0
  7  5  1  0  0  0  0
  8  3  2  0  0  0  0
  9  6  2  0  0  0  0
 10 11  2  1  0  0  0
 10 12  1  0  0  0  0
 12 14  1  0  0  0  0
 14 13  1  6  0  0  0
 15 14  1  6  0  0  0
 15 17  1  0  0  0  0
 15 18  1  0  0  0  0
 17 18  1  0  0  0  0
 18 16  1  6  0  0  0
 19  9  1  0  0  0  0
 19 20  1  0  0  0  0
 20 23  1  1  0  0  0
 21 20  1  0  0  0  0
 21 25  1  1  0  0  0
 22 21  1  0  0  0  0
 22 20  1  0  0  0  0
 25 24  1  0  0  0  0
 26 27  1  0  0  0  0
 27 28  1  1  0  0  0
 27 29  1  0  0  0  0
 29 33  1  1  0  0  0
 29 31  1  0  0  0  0
 31 32  2  0  0  0  0
 31 30  1  0  0  0  0
 34 33  1  0  0  0  0
 35 37  1  0  0  0  0
 36 35  1  0  0  0  0
 36 37  1  0  0  0  0
 37 34  1  0  0  0  0
M  END
>  <MODEL>
8

>  <REMARK>
 VINA RESULT:      -6.0      2.101      5.246
  Name = 
  14 active torsions:
  status: ('A' for Active; 'I' for Inactive)
    1  A    between atoms: C_1  and  C_26
    2  A    between atoms: C_2  and  C_35
    3  A    between atoms: C_4  and  C_13
    4  A    between atoms: C_4  and  C_28
    5  A    between atoms: C_5  and  O_23
    6  A    between atoms: C_6  and  S_31
    7  A    between atoms: C_6  and  C_35
    8  A    between atoms: C_10  and  C_28
    9  A    between atoms: C_13  and  C_16
   10  A    between atoms: C_13  and  C_20
   11  A    between atoms: C_14  and  S_31
   12  A    between atoms: C_20  and  C_25
   13  A    between atoms: C_25  and  C_32
   14  A    between atoms: C_26  and  C_36
                            x       y       z     vdW  Elec       q    Type
                         _______ _______ _______ _____ _____    ______ ____

>  <TORSDO>
F 14

$$$$
=
 OpenBabel11052420113D

 37 40  0  0  1  0  0  0  0  0999 V2000
  191.2840  177.2920  142.9000 C   0  0  0  0  0  2  0  0  0  0  0  0
  190.3110  174.9000  143.1030 C   0  0  2  0  0  3  0  0  0  0  0  0
  192.0470  175.7030  145.5590 C   0  0  0  0  0  0  0  0  0  0  0  0
  190.1730  176.3950  143.4470 C   0  0  2  0  0  3  0  0  0  0  0  0
  192.6650  176.9360  143.4430 C   0  0  0  0  0  2  0  0  0  0  0  0
  191.4100  174.1060  143.7680 C   0  0  0  0  0  3  0  0  0  0  0  0
  192.7000  176.9230  144.9710 C   0  0  0  0  0  2  0  0  0  0  0  0
  191.7900  175.7200  146.8600 C   0  0  0  0  0  2  0  0  0  0  0  0
  192.1250  174.4020  144.8630 C   0  0  0  0  0  0  0  0  0  0  0  0
  188.5570  177.0470  142.9600 S   0  0  2  0  0  0  0  0  0  0  0  0
  188.9000  178.2660  142.1150 O   0  0  0  0  0  0  0  0  0  0  0  0
  187.8060  177.7440  144.4560 C   0  0  0  0  0  2  0  0  0  0  0  0
  185.9350  176.4450  143.4570 C   0  0  0  0  0  1  0  0  0  0  0  0
  186.3210  177.4220  144.5510 C   0  0  1  0  0  3  0  0  0  0  0  0
  186.0150  176.7990  145.9130 C   0  0  1  0  0  3  0  0  0  0  0  0
  184.2350  178.6660  146.0060 C   0  0  0  0  0  1  0  0  0  0  0  0
  186.3080  177.7890  147.0270 C   0  0  0  0  0  2  0  0  0  0  0  0
  184.8670  177.4630  146.6890 C   0  0  2  0  0  3  0  0  0  0  0  0
  193.1130  173.3810  145.3320 C   0  0  0  0  0  2  0  0  0  0  0  0
  194.5240  173.6910  144.8450 C   0  0  2  0  0  0  0  0  0  0  0  0
  195.6160  172.9750  145.6270 C   0  0  2  0  0  3  0  0  0  0  0  0
  195.3830  174.4730  145.8110 C   0  0  0  0  0  2  0  0  0  0  0  0
  194.7800  173.9620  143.3680 C   0  0  0  0  0  1  0  0  0  0  0  0
  197.1840  171.4880  145.1720 C   0  0  0  0  0  1  0  0  0  0  0  0
  196.7590  172.7760  144.8480 O   0  0  0  0  0  0  0  0  0  0  0  0
  190.1500  174.5400  141.6250 C   0  0  0  0  0  2  0  0  0  0  0  0
  188.8230  173.8500  141.3330 C   0  0  2  0  0  3  0  0  0  0  0  0
  188.1580  173.6380  142.5450 O   0  0  0  0  0  1  0  0  0  0  0  0
  189.0270  172.5180  140.5970 C   0  0  1  0  0  3  0  0  0  0  0  0
  188.2070  173.8140  138.6130 O   0  0  0  0  0  1  0  0  0  0  0  0
  188.8390  172.6840  139.1220 C   0  0  0  0  0  0  0  0  0  0  0  0
  189.3030  171.8210  138.3350 O   0  0  0  0  0  0  0  0  0  0  0  0
  190.4250  171.9600  140.8370 C   0  0  0  0  0  2  0  0  0  0  0  0
  190.4130  170.9380  141.9580 C   0  0  0  0  0  2  0  0  0  0  0  0
  192.8600  171.1750  142.1250 C   0  0  0  0  0  2  0  0  0  0  0  0
  192.3970  170.3530  143.3080 C   0  0  0  0  0  2  0  0  0  0  0  0
  191.7250  170.1840  141.9600 C   0  0  0  0  0  3  0  0  0  0  0  0
  1  5  1  0  0  0  0
  1  4  1  0  0  0  0
  2 26  1  6  0  0  0
  2  4  1  0  0  0  0
  2  6  1  0  0  0  0
  3  8  2  0  0  0  0
  4 10  1  6  0  0  0
  5  7  1  0  0  0  0
  6  9  2  0  0  0  0
  7  3  1  0  0  0  0
  9 19  1  0  0  0  0
  9  3  1  0  0  0  0
 10 11  2  6  0  0  0
 10 12  1  0  0  0  0
 12 14  1  0  0  0  0
 14 13  1  6  0  0  0
 15 14  1  6  0  0  0
 15 18  1  0  0  0  0
 15 17  1  0  0  0  0
 18 16  1  6  0  0  0
 18 17  1  0  0  0  0
 20 23  1  6  0  0  0
 20 19  1  0  0  0  0
 20 21  1  0  0  0  0
 20 22  1  0  0  0  0
 21 25  1  6  0  0  0
 21 22  1  0  0  0  0
 25 24  1  0  0  0  0
 27 26  1  0  0  0  0
 27 28  1  1  0  0  0
 29 33  1  6  0  0  0
 29 27  1  0  0  0  0
 30 31  1  0  0  0  0
 31 29  1  0  0  0  0
 32 31  2  0  0  0  0
 33 34  1  0  0  0  0
 34 37  1  0  0  0  0
 35 36  1  0  0  0  0
 37 35  1  0  0  0  0
 37 36  1  0  0  0  0
M  END
>  <MODEL>
9

>  <REMARK>
 VINA RESULT:      -6.0      1.731      2.645
  Name = 
  14 active torsions:
  status: ('A' for Active; 'I' for Inactive)
    1  A    between atoms: C_1  and  C_26
    2  A    between atoms: C_2  and  C_35
    3  A    between atoms: C_4  and  C_13
    4  A    between atoms: C_4  and  C_28
    5  A    between atoms: C_5  and  O_23
    6  A    between atoms: C_6  and  S_31
    7  A    between atoms: C_6  and  C_35
    8  A    between atoms: C_10  and  C_28
    9  A    between atoms: C_13  and  C_16
   10  A    between atoms: C_13  and  C_20
   11  A    between atoms: C_14  and  S_31
   12  A    between atoms: C_20  and  C_25
   13  A    between atoms: C_25  and  C_32
   14  A    between atoms: C_26  and  C_36
                            x       y       z     vdW  Elec       q    Type
                         _______ _______ _______ _____ _____    ______ ____

>  <TORSDO>
F 14

$$$$
