=
 OpenBabel11052417193D

 30 32  0  0  1  0  0  0  0  0999 V2000
  188.5440  175.6780  142.8430 N   0  0  0  0  0  2  0  0  0  0  0  0
  188.8610  173.2490  142.9650 C   0  0  0  0  0  0  0  0  0  0  0  0
  188.7230  177.0430  143.3270 C   0  0  2  0  0  3  0  0  0  0  0  0
  189.4910  172.1330  143.5240 C   0  0  0  0  0  3  0  0  0  0  0  0
  187.6480  173.0030  141.7210 Cl  0  0  0  0  0  0  0  0  0  0  0  0
  190.5430  176.0380  144.8300 N   0  0  0  0  0  0  0  0  0  0  0  0
  190.4600  172.2970  144.5130 C   0  0  0  0  0  3  0  0  0  0  0  0
  189.2000  174.5390  143.4050 C   0  0  0  0  0  0  0  0  0  0  0  0
  189.8760  177.1900  144.2870 C   0  0  0  0  0  0  0  0  0  0  0  0
  190.2700  178.3500  144.5890 O   0  0  0  0  0  0  0  0  0  0  0  0
  190.8050  173.5790  144.9460 C   0  0  0  0  0  3  0  0  0  0  0  0
  190.1790  174.7120  144.3990 C   0  0  0  0  0  0  0  0  0  0  0  0
  191.6610  176.2300  145.7570 C   0  0  0  0  0  2  0  0  0  0  0  0
  191.1580  176.5690  147.1510 C   0  0  0  0  0  2  0  0  0  0  0  0
  191.2680  175.3600  148.0570 C   0  0  0  0  0  1  0  0  0  0  0  0
  187.3820  177.6400  143.8000 C   0  0  1  0  0  3  0  0  0  0  0  0
  185.6680  179.5440  143.5660 C   0  0  0  0  0  1  0  0  0  0  0  0
  186.6920  178.6560  142.8690 C   0  0  2  0  0  3  0  0  0  0  0  0
  187.0900  177.7610  140.5420 N   0  0  0  0  0  2  0  0  0  0  0  0
  184.9480  177.7730  141.4740 O   0  0  0  0  0  0  0  0  0  0  0  0
  186.1740  178.0500  141.6000 C   0  0  0  0  0  0  0  0  0  0  0  0
  186.3210  176.6350  138.3180 C   0  0  0  0  0  3  0  0  0  0  0  0
  186.6760  177.1550  139.3460 C   0  0  0  0  0  0  0  0  0  0  0  0
  186.4110  176.5630  144.2700 C   0  0  0  0  0  2  0  0  0  0  0  0
  186.9400  177.8480  146.3090 C   0  0  1  0  0  3  0  0  0  0  0  0
  187.1940  176.3830  146.6080 C   0  0  0  0  0  2  0  0  0  0  0  0
  186.0340  176.7820  145.7220 C   0  0  2  0  0  3  0  0  0  0  0  0
  184.8770  178.5240  147.5480 O   0  0  0  0  0  0  0  0  0  0  0  0
  186.2640  178.4990  147.4700 C   0  0  0  0  0  0  0  0  0  0  0  0
  186.9500  178.9930  148.4040 O   0  0  0  0  0  1  0  0  0  0  0  0
  1  3  1  0  0  0  0
  1  8  1  0  0  0  0
  2  8  2  0  0  0  0
  2  4  1  0  0  0  0
  3 16  1  1  0  0  0
  3  9  1  0  0  0  0
  4  7  2  0  0  0  0
  5  2  1  0  0  0  0
  6 13  1  0  0  0  0
  7 11  1  0  0  0  0
  8 12  1  0  0  0  0
  9 10  2  0  0  0  0
  9  6  1  0  0  0  0
 12  6  1  0  0  0  0
 12 11  2  0  0  0  0
 13 14  1  0  0  0  0
 14 15  1  0  0  0  0
 16 24  1  6  0  0  0
 18 17  1  1  0  0  0
 18 16  1  0  0  0  0
 19 21  1  0  0  0  0
 20 21  2  0  0  0  0
 21 18  1  0  0  0  0
 22 23  3  0  0  0  0
 23 19  1  0  0  0  0
 25 26  1  0  0  0  0
 25 29  1  1  0  0  0
 27 24  1  6  0  0  0
 27 25  1  0  0  0  0
 27 26  1  0  0  0  0
 29 28  2  0  0  0  0
 29 30  1  0  0  0  0
M  END
>  <MODEL>
1

>  <REMARK>
 VINA RESULT:      -7.0      0.000      0.000
  Name = 
  9 active torsions:
  status: ('A' for Active; 'I' for Inactive)
    1  A    between atoms: C_3  and  C_11
    2  A    between atoms: C_3  and  N_19
    3  A    between atoms: C_4  and  C_13
    4  A    between atoms: N_5  and  C_21
    5  A    between atoms: C_7  and  C_15
    6  A    between atoms: C_8  and  C_12
    7  A    between atoms: C_8  and  C_13
    8  A    between atoms: C_13  and  C_27
    9  A    between atoms: C_27  and  C_30
                            x       y       z     vdW  Elec       q    Type
                         _______ _______ _______ _____ _____    ______ ____

>  <TORSDO>
F 9

$$$$
=
 OpenBabel11052417193D

 30 32  0  0  1  0  0  0  0  0999 V2000
  188.6610  177.4390  145.9280 N   0  0  0  0  0  2  0  0  0  0  0  0
  186.2350  177.5900  146.2550 C   0  0  0  0  0  0  0  0  0  0  0  0
  189.8610  177.3090  145.1090 C   0  0  2  0  0  3  0  0  0  0  0  0
  184.9470  177.7450  145.7350 C   0  0  0  0  0  3  0  0  0  0  0  0
  186.4290  177.3600  147.9840 Cl  0  0  0  0  0  0  0  0  0  0  0  0
  188.3100  177.8550  143.1390 N   0  0  0  0  0  0  0  0  0  0  0  0
  184.7620  177.9320  144.3650 C   0  0  0  0  0  3  0  0  0  0  0  0
  187.3460  177.6140  145.3960 C   0  0  0  0  0  0  0  0  0  0  0  0
  189.6370  177.6600  143.6600 C   0  0  0  0  0  0  0  0  0  0  0  0
  190.6390  177.8090  142.9080 O   0  0  0  0  0  0  0  0  0  0  0  0
  185.8650  177.9640  143.5100 C   0  0  0  0  0  3  0  0  0  0  0  0
  187.1670  177.8050  144.0150 C   0  0  0  0  0  0  0  0  0  0  0  0
  188.1410  178.1980  141.7260 C   0  0  0  0  0  2  0  0  0  0  0  0
  187.6480  176.9980  140.9310 C   0  0  0  0  0  2  0  0  0  0  0  0
  186.6240  177.4340  139.9030 C   0  0  0  0  0  1  0  0  0  0  0  0
  190.5610  175.9590  145.3660 C   0  0  1  0  0  3  0  0  0  0  0  0
  191.1230  176.6330  147.7840 C   0  0  0  0  0  1  0  0  0  0  0  0
  191.5720  175.8970  146.5280 C   0  0  2  0  0  3  0  0  0  0  0  0
  193.4120  175.9130  144.7980 N   0  0  0  0  0  2  0  0  0  0  0  0
  193.7540  176.8170  146.9250 O   0  0  0  0  0  0  0  0  0  0  0  0
  192.9740  176.2340  146.1200 C   0  0  0  0  0  0  0  0  0  0  0  0
  195.8020  176.5210  143.9480 C   0  0  0  0  0  3  0  0  0  0  0  0
  194.6980  176.2400  144.3420 C   0  0  0  0  0  0  0  0  0  0  0  0
  189.5690  174.8040  145.4250 C   0  0  0  0  0  2  0  0  0  0  0  0
  190.0570  172.8500  143.9990 C   0  0  1  0  0  3  0  0  0  0  0  0
  190.7120  174.0620  143.3620 C   0  0  0  0  0  2  0  0  0  0  0  0
  189.3700  174.2020  144.0470 C   0  0  2  0  0  3  0  0  0  0  0  0
  190.1090  170.9210  142.4090 O   0  0  0  0  0  0  0  0  0  0  0  0
  189.4210  172.0000  142.9490 C   0  0  0  0  0  0  0  0  0  0  0  0
  188.2400  172.2350  142.5780 O   0  0  0  0  0  1  0  0  0  0  0  0
  2  5  1  0  0  0  0
  3 16  1  6  0  0  0
  3  1  1  0  0  0  0
  4  2  1  0  0  0  0
  6  9  1  0  0  0  0
  6 12  1  0  0  0  0
  7  4  2  0  0  0  0
  8  1  1  0  0  0  0
  8  2  2  0  0  0  0
  9  3  1  0  0  0  0
 10  9  2  0  0  0  0
 11 12  2  0  0  0  0
 11  7  1  0  0  0  0
 12  8  1  0  0  0  0
 13  6  1  0  0  0  0
 14 13  1  0  0  0  0
 15 14  1  0  0  0  0
 16 24  1  1  0  0  0
 16 18  1  0  0  0  0
 18 17  1  1  0  0  0
 19 21  1  0  0  0  0
 21 18  1  0  0  0  0
 21 20  2  0  0  0  0
 22 23  3  0  0  0  0
 23 19  1  0  0  0  0
 25 29  1  6  0  0  0
 25 27  1  0  0  0  0
 26 25  1  0  0  0  0
 26 27  1  0  0  0  0
 27 24  1  1  0  0  0
 28 29  2  0  0  0  0
 30 29  1  0  0  0  0
M  END
>  <MODEL>
2

>  <REMARK>
 VINA RESULT:      -6.6      2.971      6.937
  Name = 
  9 active torsions:
  status: ('A' for Active; 'I' for Inactive)
    1  A    between atoms: C_3  and  C_11
    2  A    between atoms: C_3  and  N_19
    3  A    between atoms: C_4  and  C_13
    4  A    between atoms: N_5  and  C_21
    5  A    between atoms: C_7  and  C_15
    6  A    between atoms: C_8  and  C_12
    7  A    between atoms: C_8  and  C_13
    8  A    between atoms: C_13  and  C_27
    9  A    between atoms: C_27  and  C_30
                            x       y       z     vdW  Elec       q    Type
                         _______ _______ _______ _____ _____    ______ ____

>  <TORSDO>
F 9

$$$$
=
 OpenBabel11052417193D

 30 32  0  0  1  0  0  0  0  0999 V2000
  188.4020  177.9910  145.9350 N   0  0  0  0  0  2  0  0  0  0  0  0
  186.3660  178.4990  147.2050 C   0  0  0  0  0  0  0  0  0  0  0  0
  189.1260  177.4200  144.8040 C   0  0  2  0  0  3  0  0  0  0  0  0
  184.9730  178.5520  147.2950 C   0  0  0  0  0  3  0  0  0  0  0  0
  187.3240  178.9800  148.5950 Cl  0  0  0  0  0  0  0  0  0  0  0  0
  186.8180  177.2590  143.6920 N   0  0  0  0  0  0  0  0  0  0  0  0
  184.1850  178.1780  146.2060 C   0  0  0  0  0  3  0  0  0  0  0  0
  186.9770  178.0600  146.0190 C   0  0  0  0  0  0  0  0  0  0  0  0
  188.2510  177.1660  143.6020 C   0  0  0  0  0  0  0  0  0  0  0  0
  188.7990  176.8960  142.4980 O   0  0  0  0  0  0  0  0  0  0  0  0
  184.7900  177.7490  145.0230 C   0  0  0  0  0  3  0  0  0  0  0  0
  186.1900  177.6850  144.9170 C   0  0  0  0  0  0  0  0  0  0  0  0
  186.0100  177.0070  142.4980 C   0  0  0  0  0  2  0  0  0  0  0  0
  185.8290  178.2800  141.6860 C   0  0  0  0  0  2  0  0  0  0  0  0
  184.4720  178.2850  141.0120 C   0  0  0  0  0  1  0  0  0  0  0  0
  190.0030  176.2330  145.2520 C   0  0  1  0  0  3  0  0  0  0  0  0
  189.2170  174.4960  146.9780 C   0  0  0  0  0  1  0  0  0  0  0  0
  189.2950  174.8880  145.5080 C   0  0  2  0  0  3  0  0  0  0  0  0
  189.2200  173.6140  143.3280 N   0  0  0  0  0  2  0  0  0  0  0  0
  190.7070  173.0070  145.0240 O   0  0  0  0  0  0  0  0  0  0  0  0
  189.7870  173.7770  144.6300 C   0  0  0  0  0  0  0  0  0  0  0  0
  190.0480  171.7680  141.6830 C   0  0  0  0  0  3  0  0  0  0  0  0
  189.6650  172.6210  142.4430 C   0  0  0  0  0  0  0  0  0  0  0  0
  191.2280  176.0610  144.3620 C   0  0  0  0  0  2  0  0  0  0  0  0
  193.3390  175.3620  145.4300 C   0  0  1  0  0  3  0  0  0  0  0  0
  192.4850  176.0320  146.4890 C   0  0  0  0  0  2  0  0  0  0  0  0
  192.4740  176.5550  145.0700 C   0  0  2  0  0  3  0  0  0  0  0  0
  195.6950  174.9570  146.1640 O   0  0  0  0  0  1  0  0  0  0  0  0
  194.7620  175.7950  145.5670 C   0  0  0  0  0  0  0  0  0  0  0  0
  195.1290  176.9080  145.1040 O   0  0  0  0  0  0  0  0  0  0  0  0
  1  8  1  0  0  0  0
  2  4  1  0  0  0  0
  2  5  1  0  0  0  0
  3 16  1  1  0  0  0
  3  1  1  0  0  0  0
  6 12  1  0  0  0  0
  7  4  2  0  0  0  0
  8  2  2  0  0  0  0
  9  6  1  0  0  0  0
  9  3  1  0  0  0  0
 10  9  2  0  0  0  0
 11  7  1  0  0  0  0
 12 11  2  0  0  0  0
 12  8  1  0  0  0  0
 13  6  1  0  0  0  0
 14 13  1  0  0  0  0
 15 14  1  0  0  0  0
 16 24  1  6  0  0  0
 16 18  1  0  0  0  0
 18 17  1  1  0  0  0
 19 21  1  0  0  0  0
 21 20  2  0  0  0  0
 21 18  1  0  0  0  0
 22 23  3  0  0  0  0
 23 19  1  0  0  0  0
 25 29  1  1  0  0  0
 25 26  1  0  0  0  0
 27 24  1  6  0  0  0
 27 25  1  0  0  0  0
 27 26  1  0  0  0  0
 29 28  1  0  0  0  0
 30 29  2  0  0  0  0
M  END
>  <MODEL>
3

>  <REMARK>
 VINA RESULT:      -6.5      3.028      6.827
  Name = 
  9 active torsions:
  status: ('A' for Active; 'I' for Inactive)
    1  A    between atoms: C_3  and  C_11
    2  A    between atoms: C_3  and  N_19
    3  A    between atoms: C_4  and  C_13
    4  A    between atoms: N_5  and  C_21
    5  A    between atoms: C_7  and  C_15
    6  A    between atoms: C_8  and  C_12
    7  A    between atoms: C_8  and  C_13
    8  A    between atoms: C_13  and  C_27
    9  A    between atoms: C_27  and  C_30
                            x       y       z     vdW  Elec       q    Type
                         _______ _______ _______ _____ _____    ______ ____

>  <TORSDO>
F 9

$$$$
=
 OpenBabel11052417193D

 30 32  0  0  1  0  0  0  0  0999 V2000
  187.9990  177.5180  145.6120 N   0  0  0  0  0  2  0  0  0  0  0  0
  185.8120  178.0530  146.5870 C   0  0  0  0  0  0  0  0  0  0  0  0
  188.9000  177.2560  144.4950 C   0  0  2  0  0  3  0  0  0  0  0  0
  184.4860  178.4680  146.4400 C   0  0  0  0  0  3  0  0  0  0  0  0
  186.4010  177.6490  148.1910 Cl  0  0  0  0  0  0  0  0  0  0  0  0
  187.0210  178.2210  143.0380 N   0  0  0  0  0  0  0  0  0  0  0  0
  183.9900  178.7980  145.1780 C   0  0  0  0  0  3  0  0  0  0  0  0
  186.6470  177.9590  145.4620 C   0  0  0  0  0  0  0  0  0  0  0  0
  188.3770  177.7600  143.1740 C   0  0  0  0  0  0  0  0  0  0  0  0
  189.1600  177.7990  142.1860 O   0  0  0  0  0  0  0  0  0  0  0  0
  184.8210  178.7140  144.0590 C   0  0  0  0  0  3  0  0  0  0  0  0
  186.1550  178.2930  144.1880 C   0  0  0  0  0  0  0  0  0  0  0  0
  186.5580  178.7060  141.7360 C   0  0  0  0  0  2  0  0  0  0  0  0
  185.9060  177.5860  140.9410 C   0  0  0  0  0  2  0  0  0  0  0  0
  186.6930  177.3120  139.6760 C   0  0  0  0  0  1  0  0  0  0  0  0
  189.3780  175.7900  144.5060 C   0  0  1  0  0  3  0  0  0  0  0  0
  188.8930  174.9990  146.9040 C   0  0  0  0  0  1  0  0  0  0  0  0
  189.9450  175.2400  145.8290 C   0  0  2  0  0  3  0  0  0  0  0  0
  192.3820  175.8780  145.6460 N   0  0  0  0  0  2  0  0  0  0  0  0
  191.0320  176.7600  147.3370 O   0  0  0  0  0  0  0  0  0  0  0  0
  191.1340  176.0010  146.3330 C   0  0  0  0  0  0  0  0  0  0  0  0
  194.5000  177.2100  146.3810 C   0  0  0  0  0  3  0  0  0  0  0  0
  193.5210  176.5950  146.0410 C   0  0  0  0  0  0  0  0  0  0  0  0
  188.3410  174.8470  143.9070 C   0  0  0  0  0  2  0  0  0  0  0  0
  188.2870  174.4300  141.4750 C   0  0  1  0  0  3  0  0  0  0  0  0
  187.8870  173.1440  142.1730 C   0  0  0  0  0  2  0  0  0  0  0  0
  188.9490  174.0330  142.7810 C   0  0  2  0  0  3  0  0  0  0  0  0
  190.5610  173.9360  140.5610 O   0  0  0  0  0  1  0  0  0  0  0  0
  189.2040  174.1310  140.3350 C   0  0  0  0  0  0  0  0  0  0  0  0
  188.7420  174.0150  139.1690 O   0  0  0  0  0  0  0  0  0  0  0  0
  2  5  1  0  0  0  0
  3 16  1  6  0  0  0
  3  1  1  0  0  0  0
  4  2  1  0  0  0  0
  6  9  1  0  0  0  0
  6 12  1  0  0  0  0
  7  4  2  0  0  0  0
  8  1  1  0  0  0  0
  8  2  2  0  0  0  0
  9  3  1  0  0  0  0
 10  9  2  0  0  0  0
 11 12  2  0  0  0  0
 11  7  1  0  0  0  0
 12  8  1  0  0  0  0
 13  6  1  0  0  0  0
 14 13  1  0  0  0  0
 15 14  1  0  0  0  0
 16 24  1  1  0  0  0
 16 18  1  0  0  0  0
 18 21  1  0  0  0  0
 18 17  1  1  0  0  0
 19 23  1  0  0  0  0
 19 21  1  0  0  0  0
 21 20  2  0  0  0  0
 23 22  3  0  0  0  0
 25 29  1  6  0  0  0
 25 26  1  0  0  0  0
 25 27  1  0  0  0  0
 26 27  1  0  0  0  0
 27 24  1  1  0  0  0
 29 28  1  0  0  0  0
 30 29  2  0  0  0  0
M  END
>  <MODEL>
4

>  <REMARK>
 VINA RESULT:      -6.5      2.765      7.112
  Name = 
  9 active torsions:
  status: ('A' for Active; 'I' for Inactive)
    1  A    between atoms: C_3  and  C_11
    2  A    between atoms: C_3  and  N_19
    3  A    between atoms: C_4  and  C_13
    4  A    between atoms: N_5  and  C_21
    5  A    between atoms: C_7  and  C_15
    6  A    between atoms: C_8  and  C_12
    7  A    between atoms: C_8  and  C_13
    8  A    between atoms: C_13  and  C_27
    9  A    between atoms: C_27  and  C_30
                            x       y       z     vdW  Elec       q    Type
                         _______ _______ _______ _____ _____    ______ ____

>  <TORSDO>
F 9

$$$$
=
 OpenBabel11052417193D

 30 32  0  0  1  0  0  0  0  0999 V2000
  189.3790  176.5620  144.7730 N   0  0  0  0  0  2  0  0  0  0  0  0
  187.7960  176.2000  146.6110 C   0  0  0  0  0  0  0  0  0  0  0  0
  189.7270  176.9270  143.4040 C   0  0  2  0  0  3  0  0  0  0  0  0
  186.5130  176.3270  147.1510 C   0  0  0  0  0  3  0  0  0  0  0  0
  189.0380  175.3970  147.5560 Cl  0  0  0  0  0  0  0  0  0  0  0  0
  187.3530  177.8930  143.2910 N   0  0  0  0  0  0  0  0  0  0  0  0
  185.5060  176.9620  146.4250 C   0  0  0  0  0  3  0  0  0  0  0  0
  188.0710  176.7070  145.3300 C   0  0  0  0  0  0  0  0  0  0  0  0
  188.6600  177.7360  142.7120 C   0  0  0  0  0  0  0  0  0  0  0  0
  188.9390  178.3020  141.6190 O   0  0  0  0  0  0  0  0  0  0  0  0
  185.7790  177.4740  145.1550 C   0  0  0  0  0  3  0  0  0  0  0  0
  187.0620  177.3510  144.5950 C   0  0  0  0  0  0  0  0  0  0  0  0
  186.3490  178.6900  142.5840 C   0  0  0  0  0  2  0  0  0  0  0  0
  185.4200  177.7990  141.7740 C   0  0  0  0  0  2  0  0  0  0  0  0
  185.7330  177.9180  140.2970 C   0  0  0  0  0  1  0  0  0  0  0  0
  190.2480  175.7040  142.6230 C   0  0  1  0  0  3  0  0  0  0  0  0
  192.1940  174.4930  141.4550 C   0  0  0  0  0  1  0  0  0  0  0  0
  191.7730  175.5820  142.4340 C   0  0  2  0  0  3  0  0  0  0  0  0
  192.9980  176.7590  144.3030 N   0  0  0  0  0  2  0  0  0  0  0  0
  192.7440  174.4370  144.3070 O   0  0  0  0  0  0  0  0  0  0  0  0
  192.5350  175.5370  143.7240 C   0  0  0  0  0  0  0  0  0  0  0  0
  194.2660  176.8150  146.5810 C   0  0  0  0  0  3  0  0  0  0  0  0
  193.6790  176.7890  145.5280 C   0  0  0  0  0  0  0  0  0  0  0  0
  189.6420  174.4020  143.1310 C   0  0  0  0  0  2  0  0  0  0  0  0
  188.6280  174.7030  140.9020 C   0  0  1  0  0  3  0  0  0  0  0  0
  187.5100  174.3940  141.8800 C   0  0  0  0  0  2  0  0  0  0  0  0
  188.8540  173.7170  142.0310 C   0  0  2  0  0  3  0  0  0  0  0  0
  188.6530  172.5970  139.5560 O   0  0  0  0  0  1  0  0  0  0  0  0
  188.4110  173.9630  139.6230 C   0  0  0  0  0  0  0  0  0  0  0  0
  187.9670  174.5680  138.6120 O   0  0  0  0  0  0  0  0  0  0  0  0
  1  8  1  0  0  0  0
  2  4  1  0  0  0  0
  2  5  1  0  0  0  0
  3 16  1  6  0  0  0
  3  1  1  0  0  0  0
  6 12  1  0  0  0  0
  7  4  2  0  0  0  0
  8  2  2  0  0  0  0
  9  6  1  0  0  0  0
  9  3  1  0  0  0  0
 10  9  2  0  0  0  0
 11  7  1  0  0  0  0
 12 11  2  0  0  0  0
 12  8  1  0  0  0  0
 13  6  1  0  0  0  0
 14 13  1  0  0  0  0
 15 14  1  0  0  0  0
 16 24  1  1  0  0  0
 18 17  1  1  0  0  0
 18 16  1  0  0  0  0
 18 21  1  0  0  0  0
 19 23  1  0  0  0  0
 21 19  1  0  0  0  0
 21 20  2  0  0  0  0
 23 22  3  0  0  0  0
 25 29  1  6  0  0  0
 25 26  1  0  0  0  0
 25 27  1  0  0  0  0
 26 27  1  0  0  0  0
 27 24  1  1  0  0  0
 28 29  1  0  0  0  0
 30 29  2  0  0  0  0
M  END
>  <MODEL>
5

>  <REMARK>
 VINA RESULT:      -6.4      2.920      6.873
  Name = 
  9 active torsions:
  status: ('A' for Active; 'I' for Inactive)
    1  A    between atoms: C_3  and  C_11
    2  A    between atoms: C_3  and  N_19
    3  A    between atoms: C_4  and  C_13
    4  A    between atoms: N_5  and  C_21
    5  A    between atoms: C_7  and  C_15
    6  A    between atoms: C_8  and  C_12
    7  A    between atoms: C_8  and  C_13
    8  A    between atoms: C_13  and  C_27
    9  A    between atoms: C_27  and  C_30
                            x       y       z     vdW  Elec       q    Type
                         _______ _______ _______ _____ _____    ______ ____

>  <TORSDO>
F 9

$$$$
=
 OpenBabel11052417193D

 30 32  0  0  1  0  0  0  0  0999 V2000
  188.6980  175.6450  142.7670 N   0  0  0  0  0  2  0  0  0  0  0  0
  189.1610  173.2990  142.2210 C   0  0  0  0  0  0  0  0  0  0  0  0
  189.0680  176.9660  143.2630 C   0  0  2  0  0  3  0  0  0  0  0  0
  190.0670  172.2500  142.0410 C   0  0  0  0  0  3  0  0  0  0  0  0
  187.4470  172.9830  142.0120 Cl  0  0  0  0  0  0  0  0  0  0  0  0
  191.4830  176.1260  143.0550 N   0  0  0  0  0  0  0  0  0  0  0  0
  191.4350  172.4710  142.1980 C   0  0  0  0  0  3  0  0  0  0  0  0
  189.6270  174.5770  142.5680 C   0  0  0  0  0  0  0  0  0  0  0  0
  190.5560  177.2030  143.2780 C   0  0  0  0  0  0  0  0  0  0  0  0
  190.9830  178.3760  143.4630 O   0  0  0  0  0  0  0  0  0  0  0  0
  191.9020  173.7430  142.5350 C   0  0  0  0  0  3  0  0  0  0  0  0
  191.0050  174.8080  142.7240 C   0  0  0  0  0  0  0  0  0  0  0  0
  192.9200  176.4050  143.0770 C   0  0  0  0  0  2  0  0  0  0  0  0
  193.5400  175.9640  144.3940 C   0  0  0  0  0  2  0  0  0  0  0  0
  193.8850  177.1700  145.2420 C   0  0  0  0  0  1  0  0  0  0  0  0
  188.3280  177.2900  144.5770 C   0  0  1  0  0  3  0  0  0  0  0  0
  186.3140  178.3230  145.7980 C   0  0  0  0  0  1  0  0  0  0  0  0
  187.0600  178.1600  144.4790 C   0  0  2  0  0  3  0  0  0  0  0  0
  186.0440  178.6670  142.2230 N   0  0  0  0  0  2  0  0  0  0  0  0
  185.5330  176.6880  143.3530 O   0  0  0  0  0  0  0  0  0  0  0  0
  186.1620  177.7840  143.3400 C   0  0  0  0  0  0  0  0  0  0  0  0
  184.5750  178.0850  140.1490 C   0  0  0  0  0  3  0  0  0  0  0  0
  185.2540  178.3540  141.1080 C   0  0  0  0  0  0  0  0  0  0  0  0
  188.0870  176.0410  145.4180 C   0  0  0  0  0  2  0  0  0  0  0  0
  190.1640  175.1840  146.4370 C   0  0  1  0  0  3  0  0  0  0  0  0
  188.9990  174.6780  147.2660 C   0  0  0  0  0  2  0  0  0  0  0  0
  188.9500  176.0640  146.6640 C   0  0  2  0  0  3  0  0  0  0  0  0
  191.1510  176.7780  148.0900 O   0  0  0  0  0  1  0  0  0  0  0  0
  191.2780  175.6220  147.3290 C   0  0  0  0  0  0  0  0  0  0  0  0
  192.3200  174.9230  147.4270 O   0  0  0  0  0  0  0  0  0  0  0  0
  1  3  1  0  0  0  0
  2  8  1  0  0  0  0
  3  9  1  0  0  0  0
  3 16  1  1  0  0  0
  4  7  1  0  0  0  0
  4  2  2  0  0  0  0
  5  2  1  0  0  0  0
  6 13  1  0  0  0  0
  6  9  1  0  0  0  0
  7 11  2  0  0  0  0
  8 12  2  0  0  0  0
  8  1  1  0  0  0  0
  9 10  2  0  0  0  0
 11 12  1  0  0  0  0
 12  6  1  0  0  0  0
 13 14  1  0  0  0  0
 14 15  1  0  0  0  0
 16 24  1  6  0  0  0
 18 16  1  0  0  0  0
 18 17  1  1  0  0  0
 19 21  1  0  0  0  0
 21 20  2  0  0  0  0
 21 18  1  0  0  0  0
 22 23  3  0  0  0  0
 23 19  1  0  0  0  0
 25 27  1  0  0  0  0
 25 26  1  0  0  0  0
 25 29  1  1  0  0  0
 27 24  1  6  0  0  0
 27 26  1  0  0  0  0
 29 30  2  0  0  0  0
 29 28  1  0  0  0  0
M  END
>  <MODEL>
6

>  <REMARK>
 VINA RESULT:      -6.3      2.031      2.997
  Name = 
  9 active torsions:
  status: ('A' for Active; 'I' for Inactive)
    1  A    between atoms: C_3  and  C_11
    2  A    between atoms: C_3  and  N_19
    3  A    between atoms: C_4  and  C_13
    4  A    between atoms: N_5  and  C_21
    5  A    between atoms: C_7  and  C_15
    6  A    between atoms: C_8  and  C_12
    7  A    between atoms: C_8  and  C_13
    8  A    between atoms: C_13  and  C_27
    9  A    between atoms: C_27  and  C_30
                            x       y       z     vdW  Elec       q    Type
                         _______ _______ _______ _____ _____    ______ ____

>  <TORSDO>
F 9

$$$$
=
 OpenBabel11052417193D

 30 32  0  0  1  0  0  0  0  0999 V2000
  192.1570  175.7060  145.7310 N   0  0  0  0  0  2  0  0  0  0  0  0
  194.3980  176.4090  145.0220 C   0  0  0  0  0  0  0  0  0  0  0  0
  190.8580  175.0770  145.5160 C   0  0  2  0  0  3  0  0  0  0  0  0
  195.4450  176.3740  144.0980 C   0  0  0  0  0  3  0  0  0  0  0  0
  194.5670  177.4050  146.4580 Cl  0  0  0  0  0  0  0  0  0  0  0  0
  191.9390  174.0730  143.4170 N   0  0  0  0  0  0  0  0  0  0  0  0
  195.3410  175.5900  142.9490 C   0  0  0  0  0  3  0  0  0  0  0  0
  193.2340  175.6580  144.7920 C   0  0  0  0  0  0  0  0  0  0  0  0
  190.8410  174.1290  144.3440 C   0  0  0  0  0  0  0  0  0  0  0  0
  189.8520  173.3580  144.2010 O   0  0  0  0  0  0  0  0  0  0  0  0
  194.1880  174.8360  142.7220 C   0  0  0  0  0  3  0  0  0  0  0  0
  193.1240  174.8620  143.6380 C   0  0  0  0  0  0  0  0  0  0  0  0
  191.8780  173.1340  142.2950 C   0  0  0  0  0  2  0  0  0  0  0  0
  191.4170  173.8330  141.0260 C   0  0  0  0  0  2  0  0  0  0  0  0
  189.9450  173.5680  140.7850 C   0  0  0  0  0  1  0  0  0  0  0  0
  189.7270  176.1250  145.5430 C   0  0  1  0  0  3  0  0  0  0  0  0
  188.7880  174.8190  147.5490 C   0  0  0  0  0  1  0  0  0  0  0  0
  188.7940  176.1280  146.7690 C   0  0  2  0  0  3  0  0  0  0  0  0
  186.8460  177.6370  147.3220 N   0  0  0  0  0  2  0  0  0  0  0  0
  186.7760  176.2140  145.4710 O   0  0  0  0  0  0  0  0  0  0  0  0
  187.4170  176.6400  146.4730 C   0  0  0  0  0  0  0  0  0  0  0  0
  184.4920  178.6610  146.8620 C   0  0  0  0  0  3  0  0  0  0  0  0
  185.5800  178.1880  147.0750 C   0  0  0  0  0  0  0  0  0  0  0  0
  190.2390  177.5250  145.2250 C   0  0  0  0  0  2  0  0  0  0  0  0
  189.1650  176.8430  143.1110 C   0  0  1  0  0  3  0  0  0  0  0  0
  190.4690  177.5370  142.7650 C   0  0  0  0  0  2  0  0  0  0  0  0
  189.6380  178.0300  143.9280 C   0  0  2  0  0  3  0  0  0  0  0  0
  187.8210  176.5380  141.0250 O   0  0  0  0  0  0  0  0  0  0  0  0
  188.0880  177.2750  142.1720 C   0  0  0  0  0  0  0  0  0  0  0  0
  187.3890  178.2890  142.4380 O   0  0  0  0  0  1  0  0  0  0  0  0
  2  5  1  0  0  0  0
  3 16  1  6  0  0  0
  3  1  1  0  0  0  0
  4  2  2  0  0  0  0
  6 12  1  0  0  0  0
  6  9  1  0  0  0  0
  7  4  1  0  0  0  0
  8  2  1  0  0  0  0
  8  1  1  0  0  0  0
  9  3  1  0  0  0  0
 10  9  2  0  0  0  0
 11  7  2  0  0  0  0
 11 12  1  0  0  0  0
 12  8  2  0  0  0  0
 13  6  1  0  0  0  0
 14 13  1  0  0  0  0
 15 14  1  0  0  0  0
 16 24  1  1  0  0  0
 16 18  1  0  0  0  0
 18 17  1  6  0  0  0
 20 21  2  0  0  0  0
 21 18  1  0  0  0  0
 21 19  1  0  0  0  0
 22 23  3  0  0  0  0
 23 19  1  0  0  0  0
 25 29  1  6  0  0  0
 25 27  1  0  0  0  0
 26 25  1  0  0  0  0
 26 27  1  0  0  0  0
 27 24  1  1  0  0  0
 28 29  2  0  0  0  0
 29 30  1  0  0  0  0
M  END
>  <MODEL>
7

>  <REMARK>
 VINA RESULT:      -6.3      3.189      5.769
  Name = 
  9 active torsions:
  status: ('A' for Active; 'I' for Inactive)
    1  A    between atoms: C_3  and  C_11
    2  A    between atoms: C_3  and  N_19
    3  A    between atoms: C_4  and  C_13
    4  A    between atoms: N_5  and  C_21
    5  A    between atoms: C_7  and  C_15
    6  A    between atoms: C_8  and  C_12
    7  A    between atoms: C_8  and  C_13
    8  A    between atoms: C_13  and  C_27
    9  A    between atoms: C_27  and  C_30
                            x       y       z     vdW  Elec       q    Type
                         _______ _______ _______ _____ _____    ______ ____

>  <TORSDO>
F 9

$$$$
=
 OpenBabel11052417193D

 30 32  0  0  1  0  0  0  0  0999 V2000
  190.8350  175.5510  144.9710 N   0  0  0  0  0  2  0  0  0  0  0  0
  192.5130  176.3050  146.5930 C   0  0  0  0  0  0  0  0  0  0  0  0
  190.3390  175.3200  143.6180 C   0  0  2  0  0  3  0  0  0  0  0  0
  193.8100  176.7330  146.8880 C   0  0  0  0  0  3  0  0  0  0  0  0
  191.3390  176.1980  147.8940 Cl  0  0  0  0  0  0  0  0  0  0  0  0
  192.7740  175.6960  142.8990 N   0  0  0  0  0  0  0  0  0  0  0  0
  194.7650  176.8260  145.8750 C   0  0  0  0  0  3  0  0  0  0  0  0
  192.1660  175.9740  145.2730 C   0  0  0  0  0  0  0  0  0  0  0  0
  191.4320  175.2890  142.5800 C   0  0  0  0  0  0  0  0  0  0  0  0
  191.1570  174.8710  141.4210 O   0  0  0  0  0  0  0  0  0  0  0  0
  194.4250  176.4900  144.5640 C   0  0  0  0  0  3  0  0  0  0  0  0
  193.1240  176.0610  144.2490 C   0  0  0  0  0  0  0  0  0  0  0  0
  193.8020  175.6470  141.8580 C   0  0  0  0  0  2  0  0  0  0  0  0
  194.4150  174.2580  141.7660 C   0  0  0  0  0  2  0  0  0  0  0  0
  195.9120  174.3290  141.9820 C   0  0  0  0  0  1  0  0  0  0  0  0
  189.1460  176.2440  143.3030 C   0  0  1  0  0  3  0  0  0  0  0  0
  187.9990  174.1120  142.4350 C   0  0  0  0  0  1  0  0  0  0  0  0
  187.8420  175.5770  142.8240 C   0  0  2  0  0  3  0  0  0  0  0  0
  185.9400  177.1130  142.1910 N   0  0  0  0  0  2  0  0  0  0  0  0
  187.5100  176.4290  140.6030 O   0  0  0  0  0  0  0  0  0  0  0  0
  187.1010  176.3800  141.7970 C   0  0  0  0  0  0  0  0  0  0  0  0
  184.6130  178.6060  140.5140 C   0  0  0  0  0  3  0  0  0  0  0  0
  185.2260  177.9160  141.2900 C   0  0  0  0  0  0  0  0  0  0  0  0
  188.8850  177.2420  144.4250 C   0  0  0  0  0  2  0  0  0  0  0  0
  187.0430  177.9150  145.9230 C   0  0  1  0  0  3  0  0  0  0  0  0
  188.0810  177.1930  146.7610 C   0  0  0  0  0  2  0  0  0  0  0  0
  187.7970  176.7310  145.3500 C   0  0  2  0  0  3  0  0  0  0  0  0
  184.9030  178.2960  147.1590 O   0  0  0  0  0  1  0  0  0  0  0  0
  185.6700  177.4900  146.3260 C   0  0  0  0  0  0  0  0  0  0  0  0
  185.1860  176.4160  145.8800 O   0  0  0  0  0  0  0  0  0  0  0  0
  1  8  1  0  0  0  0
  2  4  1  0  0  0  0
  2  5  1  0  0  0  0
  3 16  1  6  0  0  0
  3  1  1  0  0  0  0
  6 12  1  0  0  0  0
  7  4  2  0  0  0  0
  8  2  2  0  0  0  0
  9  6  1  0  0  0  0
  9  3  1  0  0  0  0
 10  9  2  0  0  0  0
 11  7  1  0  0  0  0
 12 11  2  0  0  0  0
 12  8  1  0  0  0  0
 13  6  1  0  0  0  0
 14 13  1  0  0  0  0
 14 15  1  0  0  0  0
 16 24  1  1  0  0  0
 18 17  1  6  0  0  0
 18 16  1  0  0  0  0
 20 21  2  0  0  0  0
 21 19  1  0  0  0  0
 21 18  1  0  0  0  0
 22 23  3  0  0  0  0
 23 19  1  0  0  0  0
 25 29  1  1  0  0  0
 25 26  1  0  0  0  0
 27 24  1  6  0  0  0
 27 25  1  0  0  0  0
 27 26  1  0  0  0  0
 29 28  1  0  0  0  0
 30 29  2  0  0  0  0
M  END
>  <MODEL>
8

>  <REMARK>
 VINA RESULT:      -6.2      2.900      4.224
  Name = 
  9 active torsions:
  status: ('A' for Active; 'I' for Inactive)
    1  A    between atoms: C_3  and  C_11
    2  A    between atoms: C_3  and  N_19
    3  A    between atoms: C_4  and  C_13
    4  A    between atoms: N_5  and  C_21
    5  A    between atoms: C_7  and  C_15
    6  A    between atoms: C_8  and  C_12
    7  A    between atoms: C_8  and  C_13
    8  A    between atoms: C_13  and  C_27
    9  A    between atoms: C_27  and  C_30
                            x       y       z     vdW  Elec       q    Type
                         _______ _______ _______ _____ _____    ______ ____

>  <TORSDO>
F 9

$$$$
=
 OpenBabel11052417193D

 30 32  0  0  1  0  0  0  0  0999 V2000
  191.7750  175.7500  146.1470 N   0  0  0  0  0  2  0  0  0  0  0  0
  194.2280  175.7150  146.1300 C   0  0  0  0  0  0  0  0  0  0  0  0
  190.4610  175.2770  145.7270 C   0  0  2  0  0  3  0  0  0  0  0  0
  195.4300  175.0990  145.7740 C   0  0  0  0  0  3  0  0  0  0  0  0
  194.2810  177.2460  146.9860 Cl  0  0  0  0  0  0  0  0  0  0  0  0
  191.7310  173.2500  144.7980 N   0  0  0  0  0  0  0  0  0  0  0  0
  195.4200  173.8800  145.0950 C   0  0  0  0  0  3  0  0  0  0  0  0
  193.0040  175.1110  145.7970 C   0  0  0  0  0  0  0  0  0  0  0  0
  190.4870  173.8940  145.1280 C   0  0  0  0  0  0  0  0  0  0  0  0
  189.3950  173.2900  144.9430 O   0  0  0  0  0  0  0  0  0  0  0  0
  194.2060  173.2730  144.7700 C   0  0  0  0  0  3  0  0  0  0  0  0
  192.9870  173.8810  145.1160 C   0  0  0  0  0  0  0  0  0  0  0  0
  191.7070  171.9050  144.2200 C   0  0  0  0  0  2  0  0  0  0  0  0
  191.5670  171.9660  142.7070 C   0  0  0  0  0  2  0  0  0  0  0  0
  190.3320  171.2100  142.2630 C   0  0  0  0  0  1  0  0  0  0  0  0
  189.7290  176.3490  144.8950 C   0  0  1  0  0  3  0  0  0  0  0  0
  191.0330  177.8630  143.2760 C   0  0  0  0  0  1  0  0  0  0  0  0
  190.2220  176.5860  143.4550 C   0  0  2  0  0  3  0  0  0  0  0  0
  188.4690  177.5810  141.9340 N   0  0  0  0  0  2  0  0  0  0  0  0
  188.8660  175.2800  141.9630 O   0  0  0  0  0  0  0  0  0  0  0  0
  189.1500  176.4230  142.4200 C   0  0  0  0  0  0  0  0  0  0  0  0
  186.6410  177.4330  140.0800 C   0  0  0  0  0  3  0  0  0  0  0  0
  187.4860  177.5020  140.9370 C   0  0  0  0  0  0  0  0  0  0  0  0
  188.2150  176.1770  144.9470 C   0  0  0  0  0  2  0  0  0  0  0  0
  186.0750  177.1120  145.7440 C   0  0  1  0  0  3  0  0  0  0  0  0
  186.7590  178.1740  144.9030 C   0  0  0  0  0  2  0  0  0  0  0  0
  187.5830  177.2680  145.7900 C   0  0  2  0  0  3  0  0  0  0  0  0
  184.2310  178.3600  146.8820 O   0  0  0  0  0  0  0  0  0  0  0  0
  185.4690  177.7320  146.9590 C   0  0  0  0  0  0  0  0  0  0  0  0
  186.0590  177.6530  148.0690 O   0  0  0  0  0  1  0  0  0  0  0  0
  2  5  1  0  0  0  0
  3 16  1  6  0  0  0
  3  1  1  0  0  0  0
  4  2  2  0  0  0  0
  6 12  1  0  0  0  0
  6  9  1  0  0  0  0
  7  4  1  0  0  0  0
  8  2  1  0  0  0  0
  8  1  1  0  0  0  0
  9  3  1  0  0  0  0
 10  9  2  0  0  0  0
 11  7  2  0  0  0  0
 11 12  1  0  0  0  0
 12  8  2  0  0  0  0
 13  6  1  0  0  0  0
 14 13  1  0  0  0  0
 15 14  1  0  0  0  0
 16 24  1  6  0  0  0
 18 17  1  1  0  0  0
 18 16  1  0  0  0  0
 19 21  1  0  0  0  0
 20 21  2  0  0  0  0
 21 18  1  0  0  0  0
 22 23  3  0  0  0  0
 23 19  1  0  0  0  0
 25 27  1  0  0  0  0
 25 29  1  1  0  0  0
 26 25  1  0  0  0  0
 26 27  1  0  0  0  0
 27 24  1  6  0  0  0
 28 29  2  0  0  0  0
 29 30  1  0  0  0  0
M  END
>  <MODEL>
9

>  <REMARK>
 VINA RESULT:      -6.2      2.864      4.355
  Name = 
  9 active torsions:
  status: ('A' for Active; 'I' for Inactive)
    1  A    between atoms: C_3  and  C_11
    2  A    between atoms: C_3  and  N_19
    3  A    between atoms: C_4  and  C_13
    4  A    between atoms: N_5  and  C_21
    5  A    between atoms: C_7  and  C_15
    6  A    between atoms: C_8  and  C_12
    7  A    between atoms: C_8  and  C_13
    8  A    between atoms: C_13  and  C_27
    9  A    between atoms: C_27  and  C_30
                            x       y       z     vdW  Elec       q    Type
                         _______ _______ _______ _____ _____    ______ ____

>  <TORSDO>
F 9

$$$$
