=
 OpenBabel11052421413D

 32 34  0  0  1  0  0  0  0  0999 V2000
  184.9420  178.1940  147.6780 C   0  0  0  0  0  2  0  0  0  0  0  0
  184.2650  178.8000  146.4540 C   0  0  0  0  0  2  0  0  0  0  0  0
  186.4420  178.0730  147.4310 C   0  0  0  0  0  2  0  0  0  0  0  0
  186.7140  177.1870  146.2160 C   0  0  1  0  0  3  0  0  0  0  0  0
  184.4980  177.9170  145.2340 C   0  0  0  0  0  2  0  0  0  0  0  0
  185.9960  177.7400  144.9750 C   0  0  2  0  0  3  0  0  0  0  0  0
  188.1480  177.1170  145.9750 N   0  0  0  0  0  2  0  0  0  0  0  0
  188.4650  175.1850  147.2530 O   0  0  0  0  0  0  0  0  0  0  0  0
  188.9710  176.0860  146.5310 C   0  0  0  0  0  0  0  0  0  0  0  0
  191.2120  176.6110  147.4420 C   0  0  0  0  0  2  0  0  0  0  0  0
  193.2460  175.5880  146.4150 C   0  0  0  0  0  0  0  0  0  0  0  0
  192.3950  174.6030  145.6290 C   0  0  2  0  0  3  0  0  0  0  0  0
  192.6920  176.5330  147.1960 C   0  0  0  0  0  3  0  0  0  0  0  0
  190.8990  174.6360  145.9760 C   0  0  0  0  0  2  0  0  0  0  0  0
  190.4350  176.0610  146.2510 C   0  0  1  0  0  3  0  0  0  0  0  0
  193.3570  172.6570  144.3270 C   0  0  0  0  0  1  0  0  0  0  0  0
  192.9330  173.1740  145.6940 C   0  0  0  0  0  2  0  0  0  0  0  0
  194.7300  175.5980  146.2120 C   0  0  0  0  0  2  0  0  0  0  0  0
  195.1450  176.7690  145.3410 C   0  0  0  0  0  2  0  0  0  0  0  0
  195.8110  176.2510  144.0850 C   0  0  0  0  0  2  0  0  0  0  0  0
  194.7530  175.8730  143.0700 C   0  0  0  0  0  1  0  0  0  0  0  0
  186.2370  176.8860  143.7240 C   0  0  0  0  0  2  0  0  0  0  0  0
  186.9650  177.6330  142.6100 C   0  0  0  0  0  2  0  0  0  0  0  0
  187.5490  176.6640  141.5970 C   0  0  0  0  0  2  0  0  0  0  0  0
  190.0290  176.8900  142.2030 C   0  0  1  0  0  3  0  0  0  0  0  0
  189.0840  174.7380  142.2500 C   0  0  0  0  0  0  0  0  0  0  0  0
  190.5180  174.4760  142.4680 C   0  0  0  0  0  3  0  0  0  0  0  0
  191.1410  175.8730  142.4950 C   0  0  0  0  0  3  0  0  0  0  0  0
  187.9930  173.5500  141.9690 S   0  0  0  0  0  0  0  0  0  0  0  0
  188.8020  176.1190  142.1000 N   0  0  0  0  0  0  0  0  0  0  0  0
  191.3280  178.3910  143.7140 C   0  0  0  0  0  1  0  0  0  0  0  0
  189.9460  177.8800  143.3550 C   0  0  0  0  0  2  0  0  0  0  0  0
  2  1  1  0  0  0  0
  3  1  1  0  0  0  0
  4  7  1  6  0  0  0
  4  3  1  0  0  0  0
  5  2  1  0  0  0  0
  6 22  1  6  0  0  0
  6  5  1  0  0  0  0
  6  4  1  0  0  0  0
  7  9  1  0  0  0  0
  9  8  2  0  0  0  0
 11 13  2  0  0  0  0
 12 17  1  1  0  0  0
 12 14  1  0  0  0  0
 12 11  1  0  0  0  0
 13 10  1  0  0  0  0
 14 15  1  0  0  0  0
 15  9  1  1  0  0  0
 15 10  1  0  0  0  0
 16 17  1  0  0  0  0
 18 11  1  0  0  0  0
 19 18  1  0  0  0  0
 20 19  1  0  0  0  0
 21 20  1  0  0  0  0
 23 22  1  0  0  0  0
 24 30  1  0  0  0  0
 24 23  1  0  0  0  0
 25 28  1  0  0  0  0
 25 32  1  1  0  0  0
 26 27  1  0  0  0  0
 27 28  2  0  0  0  0
 29 26  2  0  0  0  0
 30 25  1  0  0  0  0
 30 26  1  0  0  0  0
 32 31  1  0  0  0  0
M  END
>  <MODEL>
1

>  <REMARK>
 VINA RESULT:      -6.4      0.000      0.000
  Name = 
  11 active torsions:
  status: ('A' for Active; 'I' for Inactive)
    1  A    between atoms: C_1  and  C_20
    2  A    between atoms: C_2  and  C_12
    3  A    between atoms: C_2  and  C_20
    4  A    between atoms: N_3  and  C_15
    5  A    between atoms: C_6  and  C_16
    6  A    between atoms: C_6  and  C_26
    7  A    between atoms: C_7  and  C_31
    8  A    between atoms: C_14  and  C_28
    9  A    between atoms: C_16  and  C_27
   10  A    between atoms: C_19  and  C_24
   11  A    between atoms: C_27  and  N_32
                            x       y       z     vdW  Elec       q    Type
                         _______ _______ _______ _____ _____    ______ ____

>  <TORSDO>
F 11

$$$$
=
 OpenBabel11052421413D

 32 34  0  0  1  0  0  0  0  0999 V2000
  190.5820  172.2220  138.7140 C   0  0  0  0  0  2  0  0  0  0  0  0
  192.0410  172.0080  139.0990 C   0  0  0  0  0  2  0  0  0  0  0  0
  190.0400  173.4670  139.4080 C   0  0  0  0  0  2  0  0  0  0  0  0
  190.1420  173.3200  140.9250 C   0  0  1  0  0  3  0  0  0  0  0  0
  192.1630  171.8300  140.6090 C   0  0  0  0  0  2  0  0  0  0  0  0
  191.5960  173.0460  141.3440 C   0  0  2  0  0  3  0  0  0  0  0  0
  189.6580  174.5350  141.5660 N   0  0  0  0  0  2  0  0  0  0  0  0
  187.4970  173.7170  141.9230 O   0  0  0  0  0  0  0  0  0  0  0  0
  188.3140  174.6690  142.0410 C   0  0  0  0  0  0  0  0  0  0  0  0
  186.3490  175.9760  142.7880 C   0  0  0  0  0  2  0  0  0  0  0  0
  186.6390  177.8320  144.4330 C   0  0  0  0  0  0  0  0  0  0  0  0
  188.0540  177.3730  144.7520 C   0  0  2  0  0  3  0  0  0  0  0  0
  185.8920  177.2190  143.4970 C   0  0  0  0  0  3  0  0  0  0  0  0
  188.4560  176.0460  144.0930 C   0  0  0  0  0  2  0  0  0  0  0  0
  187.8700  175.9350  142.6910 C   0  0  1  0  0  3  0  0  0  0  0  0
  187.7240  176.1200  146.9260 C   0  0  0  0  0  1  0  0  0  0  0  0
  188.3390  177.3380  146.2530 C   0  0  0  0  0  2  0  0  0  0  0  0
  186.1110  179.0780  145.0760 C   0  0  0  0  0  2  0  0  0  0  0  0
  184.5940  179.0570  145.1200 C   0  0  0  0  0  2  0  0  0  0  0  0
  184.1360  178.2990  146.3470 C   0  0  0  0  0  2  0  0  0  0  0  0
  185.0460  178.6250  147.5120 C   0  0  0  0  0  1  0  0  0  0  0  0
  191.7540  172.8910  142.8620 C   0  0  0  0  0  2  0  0  0  0  0  0
  193.1330  173.2960  143.3720 C   0  0  0  0  0  2  0  0  0  0  0  0
  193.2330  173.1060  144.8760 C   0  0  0  0  0  2  0  0  0  0  0  0
  192.3480  175.3900  145.6300 C   0  0  1  0  0  3  0  0  0  0  0  0
  194.6530  174.9820  145.8540 C   0  0  0  0  0  0  0  0  0  0  0  0
  194.5320  176.4090  146.2030 C   0  0  0  0  0  3  0  0  0  0  0  0
  193.0280  176.6770  146.1160 C   0  0  0  0  0  3  0  0  0  0  0  0
  196.0940  174.2380  145.6310 S   0  0  0  0  0  0  0  0  0  0  0  0
  193.4040  174.3970  145.5280 N   0  0  0  0  0  0  0  0  0  0  0  0
  191.3050  175.9100  147.8350 C   0  0  0  0  0  1  0  0  0  0  0  0
  191.3070  174.9620  146.6530 C   0  0  0  0  0  2  0  0  0  0  0  0
  1  2  1  0  0  0  0
  1  3  1  0  0  0  0
  2  5  1  0  0  0  0
  3  4  1  0  0  0  0
  4  6  1  0  0  0  0
  4  7  1  1  0  0  0
  5  6  1  0  0  0  0
  6 22  1  1  0  0  0
  7  9  1  0  0  0  0
  8  9  2  0  0  0  0
 10 13  1  0  0  0  0
 11 12  1  0  0  0  0
 11 18  1  0  0  0  0
 12 17  1  1  0  0  0
 13 11  2  0  0  0  0
 14 12  1  0  0  0  0
 15  9  1  1  0  0  0
 15 10  1  0  0  0  0
 15 14  1  0  0  0  0
 17 16  1  0  0  0  0
 18 19  1  0  0  0  0
 19 20  1  0  0  0  0
 20 21  1  0  0  0  0
 22 23  1  0  0  0  0
 23 24  1  0  0  0  0
 24 30  1  0  0  0  0
 25 28  1  0  0  0  0
 25 32  1  1  0  0  0
 26 27  1  0  0  0  0
 28 27  2  0  0  0  0
 29 26  2  0  0  0  0
 30 25  1  0  0  0  0
 30 26  1  0  0  0  0
 32 31  1  0  0  0  0
M  END
>  <MODEL>
2

>  <REMARK>
 VINA RESULT:      -6.3      2.814      7.787
  Name = 
  11 active torsions:
  status: ('A' for Active; 'I' for Inactive)
    1  A    between atoms: C_1  and  C_20
    2  A    between atoms: C_2  and  C_12
    3  A    between atoms: C_2  and  C_20
    4  A    between atoms: N_3  and  C_15
    5  A    between atoms: C_6  and  C_16
    6  A    between atoms: C_6  and  C_26
    7  A    between atoms: C_7  and  C_31
    8  A    between atoms: C_14  and  C_28
    9  A    between atoms: C_16  and  C_27
   10  A    between atoms: C_19  and  C_24
   11  A    between atoms: C_27  and  N_32
                            x       y       z     vdW  Elec       q    Type
                         _______ _______ _______ _____ _____    ______ ____

>  <TORSDO>
F 11

$$$$
=
 OpenBabel11052421413D

 32 34  0  0  1  0  0  0  0  0999 V2000
  194.9440  175.5450  146.1420 C   0  0  0  0  0  2  0  0  0  0  0  0
  195.1630  174.2260  145.4100 C   0  0  0  0  0  2  0  0  0  0  0  0
  193.4830  175.9680  146.0200 C   0  0  0  0  0  2  0  0  0  0  0  0
  193.0980  176.1390  144.5520 C   0  0  1  0  0  3  0  0  0  0  0  0
  194.8120  174.3810  143.9350 C   0  0  0  0  0  2  0  0  0  0  0  0
  193.3610  174.8410  143.7710 C   0  0  2  0  0  3  0  0  0  0  0  0
  191.6910  176.5030  144.4560 N   0  0  0  0  0  2  0  0  0  0  0  0
  192.0990  178.6010  143.5100 O   0  0  0  0  0  0  0  0  0  0  0  0
  191.2580  177.7610  143.9260 C   0  0  0  0  0  0  0  0  0  0  0  0
  189.2570  177.7390  142.4690 C   0  0  0  0  0  2  0  0  0  0  0  0
  186.9790  177.9120  143.4770 C   0  0  0  0  0  0  0  0  0  0  0  0
  187.5380  177.6570  144.8690 C   0  0  2  0  0  3  0  0  0  0  0  0
  187.7800  178.0010  142.4000 C   0  0  0  0  0  3  0  0  0  0  0  0
  189.0300  177.2910  144.8970 C   0  0  0  0  0  2  0  0  0  0  0  0
  189.8040  178.0820  143.8500 C   0  0  1  0  0  3  0  0  0  0  0  0
  187.4320  176.1780  146.9200 C   0  0  0  0  0  1  0  0  0  0  0  0
  186.7170  176.6370  145.6570 C   0  0  0  0  0  2  0  0  0  0  0  0
  185.5190  178.2080  143.3180 C   0  0  0  0  0  2  0  0  0  0  0  0
  185.1470  179.4830  144.0510 C   0  0  0  0  0  2  0  0  0  0  0  0
  183.8440  179.2760  144.7940 C   0  0  0  0  0  2  0  0  0  0  0  0
  184.1260  178.6460  146.1420 C   0  0  0  0  0  1  0  0  0  0  0  0
  192.9890  174.9590  142.2870 C   0  0  0  0  0  2  0  0  0  0  0  0
  192.7980  173.6100  141.6010 C   0  0  0  0  0  2  0  0  0  0  0  0
  191.8420  172.7310  142.3870 C   0  0  0  0  0  2  0  0  0  0  0  0
  189.9450  173.6110  140.9060 C   0  0  1  0  0  3  0  0  0  0  0  0
  189.5940  173.5840  143.2300 C   0  0  0  0  0  0  0  0  0  0  0  0
  188.4080  174.2970  142.7230 C   0  0  0  0  0  3  0  0  0  0  0  0
  188.5940  174.2740  141.2050 C   0  0  0  0  0  3  0  0  0  0  0  0
  189.9620  173.4860  144.8230 S   0  0  0  0  0  0  0  0  0  0  0  0
  190.4730  173.1890  142.1920 N   0  0  0  0  0  0  0  0  0  0  0  0
  188.5090  172.6360  139.1140 C   0  0  0  0  0  1  0  0  0  0  0  0
  189.7190  172.4110  139.9990 C   0  0  0  0  0  2  0  0  0  0  0  0
  2  1  1  0  0  0  0
  3  1  1  0  0  0  0
  4  7  1  1  0  0  0
  4  3  1  0  0  0  0
  5  2  1  0  0  0  0
  6 22  1  6  0  0  0
  6  5  1  0  0  0  0
  6  4  1  0  0  0  0
  8  9  2  0  0  0  0
  9  7  1  0  0  0  0
 10 15  1  0  0  0  0
 11 12  1  0  0  0  0
 12 14  1  0  0  0  0
 12 17  1  6  0  0  0
 13 10  1  0  0  0  0
 13 11  2  0  0  0  0
 15  9  1  6  0  0  0
 15 14  1  0  0  0  0
 17 16  1  0  0  0  0
 18 11  1  0  0  0  0
 18 19  1  0  0  0  0
 19 20  1  0  0  0  0
 20 21  1  0  0  0  0
 23 22  1  0  0  0  0
 23 24  1  0  0  0  0
 25 32  1  6  0  0  0
 25 28  1  0  0  0  0
 25 30  1  0  0  0  0
 26 29  2  0  0  0  0
 27 26  1  0  0  0  0
 28 27  2  0  0  0  0
 30 24  1  0  0  0  0
 30 26  1  0  0  0  0
 31 32  1  0  0  0  0
M  END
>  <MODEL>
3

>  <REMARK>
 VINA RESULT:      -6.3      2.242      7.253
  Name = 
  11 active torsions:
  status: ('A' for Active; 'I' for Inactive)
    1  A    between atoms: C_1  and  C_20
    2  A    between atoms: C_2  and  C_12
    3  A    between atoms: C_2  and  C_20
    4  A    between atoms: N_3  and  C_15
    5  A    between atoms: C_6  and  C_16
    6  A    between atoms: C_6  and  C_26
    7  A    between atoms: C_7  and  C_31
    8  A    between atoms: C_14  and  C_28
    9  A    between atoms: C_16  and  C_27
   10  A    between atoms: C_19  and  C_24
   11  A    between atoms: C_27  and  N_32
                            x       y       z     vdW  Elec       q    Type
                         _______ _______ _______ _____ _____    ______ ____

>  <TORSDO>
F 11

$$$$
=
 OpenBabel11052421413D

 32 34  0  0  1  0  0  0  0  0999 V2000
  184.4350  179.2510  145.2510 C   0  0  0  0  0  2  0  0  0  0  0  0
  184.1330  179.2250  143.7580 C   0  0  0  0  0  2  0  0  0  0  0  0
  185.9240  179.0140  145.4820 C   0  0  0  0  0  2  0  0  0  0  0  0
  186.3440  177.6610  144.9090 C   0  0  1  0  0  3  0  0  0  0  0  0
  184.5180  177.8720  143.1690 C   0  0  0  0  0  2  0  0  0  0  0  0
  186.0000  177.5800  143.4130 C   0  0  2  0  0  3  0  0  0  0  0  0
  187.7750  177.4720  145.1040 N   0  0  0  0  0  2  0  0  0  0  0  0
  187.5380  176.2100  147.0580 O   0  0  0  0  0  0  0  0  0  0  0  0
  188.3080  176.7350  146.2100 C   0  0  0  0  0  0  0  0  0  0  0  0
  190.1100  175.1680  146.8630 C   0  0  0  0  0  2  0  0  0  0  0  0
  192.4650  175.6150  146.1620 C   0  0  0  0  0  0  0  0  0  0  0  0
  192.0050  176.6840  145.1800 C   0  0  2  0  0  3  0  0  0  0  0  0
  191.5950  174.9710  146.9610 C   0  0  0  0  0  3  0  0  0  0  0  0
  190.4810  176.7930  145.0270 C   0  0  0  0  0  2  0  0  0  0  0  0
  189.7820  176.5710  146.3620 C   0  0  1  0  0  3  0  0  0  0  0  0
  192.0310  177.4590  142.7710 C   0  0  0  0  0  1  0  0  0  0  0  0
  192.6780  176.5590  143.8140 C   0  0  0  0  0  2  0  0  0  0  0  0
  193.9310  175.3690  146.3420 C   0  0  0  0  0  2  0  0  0  0  0  0
  194.2950  173.9600  145.9130 C   0  0  0  0  0  2  0  0  0  0  0  0
  195.0400  174.0100  144.5970 C   0  0  0  0  0  2  0  0  0  0  0  0
  196.0330  175.1530  144.6210 C   0  0  0  0  0  1  0  0  0  0  0  0
  186.4030  176.2380  142.7870 C   0  0  0  0  0  2  0  0  0  0  0  0
  187.6400  176.3320  141.8970 C   0  0  0  0  0  2  0  0  0  0  0  0
  187.6380  175.2330  140.8490 C   0  0  0  0  0  2  0  0  0  0  0  0
  189.8600  174.6270  141.9720 C   0  0  1  0  0  3  0  0  0  0  0  0
  189.5090  173.8800  139.7720 C   0  0  0  0  0  0  0  0  0  0  0  0
  190.9150  173.5170  140.0250 C   0  0  0  0  0  3  0  0  0  0  0  0
  191.1430  173.9480  141.4750 C   0  0  0  0  0  3  0  0  0  0  0  0
  188.8160  173.7810  138.2910 S   0  0  0  0  0  0  0  0  0  0  0  0
  188.9040  174.5130  140.8850 N   0  0  0  0  0  0  0  0  0  0  0  0
  190.5010  173.1800  143.9010 C   0  0  0  0  0  1  0  0  0  0  0  0
  189.3580  173.8960  143.2080 C   0  0  0  0  0  2  0  0  0  0  0  0
  1  3  1  0  0  0  0
  2  1  1  0  0  0  0
  4  7  1  6  0  0  0
  4  3  1  0  0  0  0
  5  6  1  0  0  0  0
  5  2  1  0  0  0  0
  6 22  1  1  0  0  0
  6  4  1  0  0  0  0
  7  9  1  0  0  0  0
  9  8  2  0  0  0  0
 10 13  1  0  0  0  0
 11 18  1  0  0  0  0
 11 13  2  0  0  0  0
 12 17  1  6  0  0  0
 12 11  1  0  0  0  0
 14 12  1  0  0  0  0
 14 15  1  0  0  0  0
 15  9  1  6  0  0  0
 15 10  1  0  0  0  0
 16 17  1  0  0  0  0
 19 18  1  0  0  0  0
 20 21  1  0  0  0  0
 20 19  1  0  0  0  0
 23 22  1  0  0  0  0
 24 30  1  0  0  0  0
 24 23  1  0  0  0  0
 25 32  1  1  0  0  0
 26 27  1  0  0  0  0
 26 30  1  0  0  0  0
 27 28  2  0  0  0  0
 28 25  1  0  0  0  0
 29 26  2  0  0  0  0
 30 25  1  0  0  0  0
 32 31  1  0  0  0  0
M  END
>  <MODEL>
4

>  <REMARK>
 VINA RESULT:      -6.2      1.652      2.543
  Name = 
  11 active torsions:
  status: ('A' for Active; 'I' for Inactive)
    1  A    between atoms: C_1  and  C_20
    2  A    between atoms: C_2  and  C_12
    3  A    between atoms: C_2  and  C_20
    4  A    between atoms: N_3  and  C_15
    5  A    between atoms: C_6  and  C_16
    6  A    between atoms: C_6  and  C_26
    7  A    between atoms: C_7  and  C_31
    8  A    between atoms: C_14  and  C_28
    9  A    between atoms: C_16  and  C_27
   10  A    between atoms: C_19  and  C_24
   11  A    between atoms: C_27  and  N_32
                            x       y       z     vdW  Elec       q    Type
                         _______ _______ _______ _____ _____    ______ ____

>  <TORSDO>
F 11

$$$$
=
 OpenBabel11052421413D

 32 34  0  0  1  0  0  0  0  0999 V2000
  196.0610  173.2500  145.4000 C   0  0  0  0  0  2  0  0  0  0  0  0
  196.0960  172.3280  144.1860 C   0  0  0  0  0  2  0  0  0  0  0  0
  194.6910  173.9110  145.5070 C   0  0  0  0  0  2  0  0  0  0  0  0
  194.3910  174.7260  144.2500 C   0  0  1  0  0  3  0  0  0  0  0  0
  195.8270  173.1250  142.9150 C   0  0  0  0  0  2  0  0  0  0  0  0
  194.4750  173.8360  142.9990 C   0  0  2  0  0  3  0  0  0  0  0  0
  193.0630  175.3160  144.3560 N   0  0  0  0  0  2  0  0  0  0  0  0
  193.8190  177.3290  145.2720 O   0  0  0  0  0  0  0  0  0  0  0  0
  192.8460  176.6280  144.8850 C   0  0  0  0  0  0  0  0  0  0  0  0
  190.7930  177.1420  143.6030 C   0  0  0  0  0  2  0  0  0  0  0  0
  188.6360  177.5220  144.8040 C   0  0  0  0  0  0  0  0  0  0  0  0
  189.2210  176.9760  146.0980 C   0  0  2  0  0  3  0  0  0  0  0  0
  189.3790  177.6420  143.6880 C   0  0  0  0  0  3  0  0  0  0  0  0
  190.6290  176.3790  145.9560 C   0  0  0  0  0  2  0  0  0  0  0  0
  191.4660  177.1840  144.9700 C   0  0  1  0  0  3  0  0  0  0  0  0
  189.0170  174.7480  147.2810 C   0  0  0  0  0  1  0  0  0  0  0  0
  188.2860  175.9940  146.8010 C   0  0  0  0  0  2  0  0  0  0  0  0
  187.2400  178.0660  144.8040 C   0  0  0  0  0  2  0  0  0  0  0  0
  186.7280  178.2290  143.3850 C   0  0  0  0  0  2  0  0  0  0  0  0
  185.5180  177.3430  143.1820 C   0  0  0  0  0  2  0  0  0  0  0  0
  184.7050  177.8580  142.0130 C   0  0  0  0  0  1  0  0  0  0  0  0
  194.1800  174.6070  141.7060 C   0  0  0  0  0  2  0  0  0  0  0  0
  192.7990  174.3140  141.1270 C   0  0  0  0  0  2  0  0  0  0  0  0
  192.3840  172.8810  141.4110 C   0  0  0  0  0  2  0  0  0  0  0  0
  190.3250  173.9280  142.5210 C   0  0  1  0  0  3  0  0  0  0  0  0
  191.2430  172.0050  143.5150 C   0  0  0  0  0  0  0  0  0  0  0  0
  190.2190  172.4250  144.4880 C   0  0  0  0  0  3  0  0  0  0  0  0
  189.5730  173.6460  143.8290 C   0  0  0  0  0  3  0  0  0  0  0  0
  192.3420  170.8320  143.8280 S   0  0  0  0  0  0  0  0  0  0  0  0
  191.3040  172.8630  142.3880 N   0  0  0  0  0  0  0  0  0  0  0  0
  188.0970  174.6990  141.7050 C   0  0  0  0  0  1  0  0  0  0  0  0
  189.3380  173.8970  141.3640 C   0  0  0  0  0  2  0  0  0  0  0  0
  1  3  1  0  0  0  0
  2  1  1  0  0  0  0
  4  7  1  1  0  0  0
  4  3  1  0  0  0  0
  5  6  1  0  0  0  0
  5  2  1  0  0  0  0
  6 22  1  6  0  0  0
  6  4  1  0  0  0  0
  7  9  1  0  0  0  0
  9  8  2  0  0  0  0
 10 13  1  0  0  0  0
 10 15  1  0  0  0  0
 11 12  1  0  0  0  0
 12 17  1  6  0  0  0
 13 11  2  0  0  0  0
 14 12  1  0  0  0  0
 15  9  1  6  0  0  0
 15 14  1  0  0  0  0
 17 16  1  0  0  0  0
 18 11  1  0  0  0  0
 19 18  1  0  0  0  0
 20 19  1  0  0  0  0
 21 20  1  0  0  0  0
 23 24  1  0  0  0  0
 23 22  1  0  0  0  0
 24 30  1  0  0  0  0
 25 32  1  6  0  0  0
 25 28  1  0  0  0  0
 26 29  2  0  0  0  0
 26 27  1  0  0  0  0
 28 27  2  0  0  0  0
 30 25  1  0  0  0  0
 30 26  1  0  0  0  0
 32 31  1  0  0  0  0
M  END
>  <MODEL>
5

>  <REMARK>
 VINA RESULT:      -6.1      2.608      7.141
  Name = 
  11 active torsions:
  status: ('A' for Active; 'I' for Inactive)
    1  A    between atoms: C_1  and  C_20
    2  A    between atoms: C_2  and  C_12
    3  A    between atoms: C_2  and  C_20
    4  A    between atoms: N_3  and  C_15
    5  A    between atoms: C_6  and  C_16
    6  A    between atoms: C_6  and  C_26
    7  A    between atoms: C_7  and  C_31
    8  A    between atoms: C_14  and  C_28
    9  A    between atoms: C_16  and  C_27
   10  A    between atoms: C_19  and  C_24
   11  A    between atoms: C_27  and  N_32
                            x       y       z     vdW  Elec       q    Type
                         _______ _______ _______ _____ _____    ______ ____

>  <TORSDO>
F 11

$$$$
=
 OpenBabel11052421413D

 32 34  0  0  1  0  0  0  0  0999 V2000
  196.2370  175.8950  144.0890 C   0  0  0  0  0  2  0  0  0  0  0  0
  196.5290  174.5060  144.6440 C   0  0  0  0  0  2  0  0  0  0  0  0
  194.8140  176.3080  144.4490 C   0  0  0  0  0  2  0  0  0  0  0  0
  193.8070  175.3150  143.8710 C   0  0  1  0  0  3  0  0  0  0  0  0
  195.5530  173.4920  144.0590 C   0  0  0  0  0  2  0  0  0  0  0  0
  194.1090  173.8920  144.3680 C   0  0  2  0  0  3  0  0  0  0  0  0
  192.4590  175.7050  144.2610 N   0  0  0  0  0  2  0  0  0  0  0  0
  192.1480  177.1530  142.4520 O   0  0  0  0  0  0  0  0  0  0  0  0
  191.6810  176.6390  143.5040 C   0  0  0  0  0  0  0  0  0  0  0  0
  189.2820  176.5750  142.9010 C   0  0  0  0  0  2  0  0  0  0  0  0
  187.5440  176.9010  144.6650 C   0  0  0  0  0  0  0  0  0  0  0  0
  188.5820  176.7320  145.7650 C   0  0  2  0  0  3  0  0  0  0  0  0
  187.8860  176.8810  143.3640 C   0  0  0  0  0  3  0  0  0  0  0  0
  189.9750  176.3200  145.2680 C   0  0  0  0  0  2  0  0  0  0  0  0
  190.3050  177.0030  143.9470 C   0  0  1  0  0  3  0  0  0  0  0  0
  189.1980  174.8320  147.3200 C   0  0  0  0  0  1  0  0  0  0  0  0
  188.1100  175.8030  146.8830 C   0  0  0  0  0  2  0  0  0  0  0  0
  186.1310  177.2330  145.0360 C   0  0  0  0  0  2  0  0  0  0  0  0
  185.9210  178.7360  145.0540 C   0  0  0  0  0  2  0  0  0  0  0  0
  185.6180  179.1850  146.4680 C   0  0  0  0  0  2  0  0  0  0  0  0
  184.5300  178.3100  147.0540 C   0  0  0  0  0  1  0  0  0  0  0  0
  193.1230  172.8530  143.8170 C   0  0  0  0  0  2  0  0  0  0  0  0
  192.9140  172.9570  142.3090 C   0  0  0  0  0  2  0  0  0  0  0  0
  191.8850  171.9470  141.8330 C   0  0  0  0  0  2  0  0  0  0  0  0
  189.4280  172.4430  142.3670 C   0  0  1  0  0  3  0  0  0  0  0  0
  190.2910  173.2550  140.3370 C   0  0  0  0  0  0  0  0  0  0  0  0
  188.8520  173.5590  140.2320 C   0  0  0  0  0  3  0  0  0  0  0  0
  188.2840  173.0860  141.5710 C   0  0  0  0  0  3  0  0  0  0  0  0
  191.3290  173.4140  139.0800 S   0  0  0  0  0  0  0  0  0  0  0  0
  190.6220  172.6180  141.5580 N   0  0  0  0  0  0  0  0  0  0  0  0
  189.6910  172.1610  144.8320 C   0  0  0  0  0  1  0  0  0  0  0  0
  189.5720  173.1620  143.6990 C   0  0  0  0  0  2  0  0  0  0  0  0
  1  3  1  0  0  0  0
  1  2  1  0  0  0  0
  4  7  1  1  0  0  0
  4  6  1  0  0  0  0
  4  3  1  0  0  0  0
  5  6  1  0  0  0  0
  5  2  1  0  0  0  0
  6 22  1  6  0  0  0
  8  9  2  0  0  0  0
  9  7  1  0  0  0  0
 10 13  1  0  0  0  0
 10 15  1  0  0  0  0
 11 18  1  0  0  0  0
 11 12  1  0  0  0  0
 12 17  1  1  0  0  0
 13 11  2  0  0  0  0
 14 12  1  0  0  0  0
 15  9  1  6  0  0  0
 15 14  1  0  0  0  0
 17 16  1  0  0  0  0
 18 19  1  0  0  0  0
 19 20  1  0  0  0  0
 20 21  1  0  0  0  0
 23 22  1  0  0  0  0
 24 23  1  0  0  0  0
 25 32  1  1  0  0  0
 26 30  1  0  0  0  0
 27 26  1  0  0  0  0
 27 28  2  0  0  0  0
 28 25  1  0  0  0  0
 29 26  2  0  0  0  0
 30 24  1  0  0  0  0
 30 25  1  0  0  0  0
 32 31  1  0  0  0  0
M  END
>  <MODEL>
6

>  <REMARK>
 VINA RESULT:      -6.1      2.353      7.252
  Name = 
  11 active torsions:
  status: ('A' for Active; 'I' for Inactive)
    1  A    between atoms: C_1  and  C_20
    2  A    between atoms: C_2  and  C_12
    3  A    between atoms: C_2  and  C_20
    4  A    between atoms: N_3  and  C_15
    5  A    between atoms: C_6  and  C_16
    6  A    between atoms: C_6  and  C_26
    7  A    between atoms: C_7  and  C_31
    8  A    between atoms: C_14  and  C_28
    9  A    between atoms: C_16  and  C_27
   10  A    between atoms: C_19  and  C_24
   11  A    between atoms: C_27  and  N_32
                            x       y       z     vdW  Elec       q    Type
                         _______ _______ _______ _____ _____    ______ ____

>  <TORSDO>
F 11

$$$$
=
 OpenBabel11052421413D

 32 34  0  0  1  0  0  0  0  0999 V2000
  192.5720  172.2520  139.2340 C   0  0  0  0  0  2  0  0  0  0  0  0
  193.2690  171.4350  140.3150 C   0  0  0  0  0  2  0  0  0  0  0  0
  191.8310  173.4240  139.8680 C   0  0  0  0  0  2  0  0  0  0  0  0
  190.7890  172.9200  140.8660 C   0  0  1  0  0  3  0  0  0  0  0  0
  192.2440  170.8970  141.3080 C   0  0  0  0  0  2  0  0  0  0  0  0
  191.4520  172.0430  141.9400 C   0  0  2  0  0  3  0  0  0  0  0  0
  190.1210  174.0550  141.4880 N   0  0  0  0  0  2  0  0  0  0  0  0
  188.2620  173.9850  140.0720 O   0  0  0  0  0  0  0  0  0  0  0  0
  188.8530  174.5420  141.0360 C   0  0  0  0  0  0  0  0  0  0  0  0
  186.9180  175.2790  142.3920 C   0  0  0  0  0  2  0  0  0  0  0  0
  187.0250  177.4360  143.6470 C   0  0  0  0  0  0  0  0  0  0  0  0
  188.5260  177.5330  143.4200 C   0  0  2  0  0  3  0  0  0  0  0  0
  186.2950  176.4320  143.1270 C   0  0  0  0  0  3  0  0  0  0  0  0
  189.1500  176.2950  142.7580 C   0  0  0  0  0  2  0  0  0  0  0  0
  188.2130  175.7080  141.7100 C   0  0  1  0  0  3  0  0  0  0  0  0
  190.7890  178.0260  144.4400 C   0  0  0  0  0  1  0  0  0  0  0  0
  189.2910  177.9110  144.6870 C   0  0  0  0  0  2  0  0  0  0  0  0
  186.3170  178.5540  144.3490 C   0  0  0  0  0  2  0  0  0  0  0  0
  184.8870  178.1640  144.6740 C   0  0  0  0  0  2  0  0  0  0  0  0
  184.7330  178.0150  146.1720 C   0  0  0  0  0  2  0  0  0  0  0  0
  185.6200  179.0220  146.8740 C   0  0  0  0  0  1  0  0  0  0  0  0
  190.4470  171.5120  142.9700 C   0  0  0  0  0  2  0  0  0  0  0  0
  190.7200  171.9990  144.3910 C   0  0  0  0  0  2  0  0  0  0  0  0
  190.0830  173.3560  144.6310 C   0  0  0  0  0  2  0  0  0  0  0  0
  192.4440  174.2250  145.1140 C   0  0  1  0  0  3  0  0  0  0  0  0
  190.7130  174.9090  146.5500 C   0  0  0  0  0  0  0  0  0  0  0  0
  191.9210  175.4340  147.2120 C   0  0  0  0  0  3  0  0  0  0  0  0
  193.0540  175.0450  146.2590 C   0  0  0  0  0  3  0  0  0  0  0  0
  189.2360  174.9130  147.2570 S   0  0  0  0  0  0  0  0  0  0  0  0
  191.0110  174.2190  145.3490 N   0  0  0  0  0  0  0  0  0  0  0  0
  193.8270  175.9700  143.9890 C   0  0  0  0  0  1  0  0  0  0  0  0
  192.7680  174.9030  143.7910 C   0  0  0  0  0  2  0  0  0  0  0  0
  1  3  1  0  0  0  0
  1  2  1  0  0  0  0
  2  5  1  0  0  0  0
  3  4  1  0  0  0  0
  4  7  1  1  0  0  0
  4  6  1  0  0  0  0
  5  6  1  0  0  0  0
  6 22  1  1  0  0  0
  8  9  2  0  0  0  0
  9  7  1  0  0  0  0
 10 13  1  0  0  0  0
 11 18  1  0  0  0  0
 12 11  1  0  0  0  0
 12 17  1  1  0  0  0
 13 11  2  0  0  0  0
 14 12  1  0  0  0  0
 15  9  1  1  0  0  0
 15 10  1  0  0  0  0
 15 14  1  0  0  0  0
 16 17  1  0  0  0  0
 18 19  1  0  0  0  0
 19 20  1  0  0  0  0
 20 21  1  0  0  0  0
 22 23  1  0  0  0  0
 23 24  1  0  0  0  0
 24 30  1  0  0  0  0
 25 32  1  6  0  0  0
 25 30  1  0  0  0  0
 25 28  1  0  0  0  0
 26 27  1  0  0  0  0
 26 29  2  0  0  0  0
 28 27  2  0  0  0  0
 30 26  1  0  0  0  0
 32 31  1  0  0  0  0
M  END
>  <MODEL>
7

>  <REMARK>
 VINA RESULT:      -6.0      2.666      7.577
  Name = 
  11 active torsions:
  status: ('A' for Active; 'I' for Inactive)
    1  A    between atoms: C_1  and  C_20
    2  A    between atoms: C_2  and  C_12
    3  A    between atoms: C_2  and  C_20
    4  A    between atoms: N_3  and  C_15
    5  A    between atoms: C_6  and  C_16
    6  A    between atoms: C_6  and  C_26
    7  A    between atoms: C_7  and  C_31
    8  A    between atoms: C_14  and  C_28
    9  A    between atoms: C_16  and  C_27
   10  A    between atoms: C_19  and  C_24
   11  A    between atoms: C_27  and  N_32
                            x       y       z     vdW  Elec       q    Type
                         _______ _______ _______ _____ _____    ______ ____

>  <TORSDO>
F 11

$$$$
=
 OpenBabel11052421413D

 32 34  0  0  1  0  0  0  0  0999 V2000
  195.8480  174.7700  145.5580 C   0  0  0  0  0  2  0  0  0  0  0  0
  196.2070  174.0710  144.2510 C   0  0  0  0  0  2  0  0  0  0  0  0
  194.3380  174.7340  145.7650 C   0  0  0  0  0  2  0  0  0  0  0  0
  193.6230  175.4320  144.6090 C   0  0  1  0  0  3  0  0  0  0  0  0
  195.5270  174.7690  143.0790 C   0  0  0  0  0  2  0  0  0  0  0  0
  194.0090  174.7870  143.2680 C   0  0  2  0  0  3  0  0  0  0  0  0
  192.1820  175.3510  144.8060 N   0  0  0  0  0  2  0  0  0  0  0  0
  191.8150  177.6370  144.4830 O   0  0  0  0  0  0  0  0  0  0  0  0
  191.3320  176.5010  144.7350 C   0  0  0  0  0  0  0  0  0  0  0  0
  189.4720  176.8880  146.3210 C   0  0  0  0  0  2  0  0  0  0  0  0
  187.1130  176.8970  145.4980 C   0  0  0  0  0  0  0  0  0  0  0  0
  187.5830  176.9620  144.0520 C   0  0  2  0  0  3  0  0  0  0  0  0
  187.9850  176.8100  146.5190 C   0  0  0  0  0  3  0  0  0  0  0  0
  189.0980  177.1440  143.8830 C   0  0  0  0  0  2  0  0  0  0  0  0
  189.8620  176.3620  144.9440 C   0  0  1  0  0  3  0  0  0  0  0  0
  185.7690  177.3590  142.3320 C   0  0  0  0  0  1  0  0  0  0  0  0
  186.8190  177.9980  143.2290 C   0  0  0  0  0  2  0  0  0  0  0  0
  185.6470  176.7920  145.7880 C   0  0  0  0  0  2  0  0  0  0  0  0
  185.3160  177.4400  147.1190 C   0  0  0  0  0  2  0  0  0  0  0  0
  184.8680  178.8670  146.8870 C   0  0  0  0  0  2  0  0  0  0  0  0
  184.0660  178.9440  145.6050 C   0  0  0  0  0  1  0  0  0  0  0  0
  193.3160  175.4520  142.0720 C   0  0  0  0  0  2  0  0  0  0  0  0
  192.9410  174.4700  140.9660 C   0  0  0  0  0  2  0  0  0  0  0  0
  192.4280  173.1650  141.5490 C   0  0  0  0  0  2  0  0  0  0  0  0
  190.1020  174.0550  140.9490 C   0  0  1  0  0  3  0  0  0  0  0  0
  190.3260  172.8480  142.9530 C   0  0  0  0  0  0  0  0  0  0  0  0
  188.9400  173.3450  143.0180 C   0  0  0  0  0  3  0  0  0  0  0  0
  188.7600  174.0880  141.6920 C   0  0  0  0  0  3  0  0  0  0  0  0
  191.0740  172.1260  144.2180 S   0  0  0  0  0  0  0  0  0  0  0  0
  190.9910  173.2520  141.7690 N   0  0  0  0  0  0  0  0  0  0  0  0
  188.4250  173.3770  139.2300 C   0  0  0  0  0  1  0  0  0  0  0  0
  189.8980  173.4100  139.5860 C   0  0  0  0  0  2  0  0  0  0  0  0
  1  3  1  0  0  0  0
  2  1  1  0  0  0  0
  4  7  1  1  0  0  0
  4  3  1  0  0  0  0
  5  6  1  0  0  0  0
  5  2  1  0  0  0  0
  6 22  1  6  0  0  0
  6  4  1  0  0  0  0
  8  9  2  0  0  0  0
  9  7  1  0  0  0  0
 10 13  1  0  0  0  0
 11 18  1  0  0  0  0
 11 13  2  0  0  0  0
 12 17  1  1  0  0  0
 12 11  1  0  0  0  0
 14 12  1  0  0  0  0
 14 15  1  0  0  0  0
 15  9  1  6  0  0  0
 15 10  1  0  0  0  0
 16 17  1  0  0  0  0
 18 19  1  0  0  0  0
 20 19  1  0  0  0  0
 21 20  1  0  0  0  0
 23 24  1  0  0  0  0
 23 22  1  0  0  0  0
 24 30  1  0  0  0  0
 25 32  1  6  0  0  0
 25 28  1  0  0  0  0
 25 30  1  0  0  0  0
 26 27  1  0  0  0  0
 26 29  2  0  0  0  0
 28 27  2  0  0  0  0
 30 26  1  0  0  0  0
 31 32  1  0  0  0  0
M  END
>  <MODEL>
8

>  <REMARK>
 VINA RESULT:      -6.0      2.196      7.290
  Name = 
  11 active torsions:
  status: ('A' for Active; 'I' for Inactive)
    1  A    between atoms: C_1  and  C_20
    2  A    between atoms: C_2  and  C_12
    3  A    between atoms: C_2  and  C_20
    4  A    between atoms: N_3  and  C_15
    5  A    between atoms: C_6  and  C_16
    6  A    between atoms: C_6  and  C_26
    7  A    between atoms: C_7  and  C_31
    8  A    between atoms: C_14  and  C_28
    9  A    between atoms: C_16  and  C_27
   10  A    between atoms: C_19  and  C_24
   11  A    between atoms: C_27  and  N_32
                            x       y       z     vdW  Elec       q    Type
                         _______ _______ _______ _____ _____    ______ ____

>  <TORSDO>
F 11

$$$$
=
 OpenBabel11052421413D

 32 34  0  0  1  0  0  0  0  0999 V2000
  194.9620  175.5500  146.2410 C   0  0  0  0  0  2  0  0  0  0  0  0
  195.4090  174.5250  145.2040 C   0  0  0  0  0  2  0  0  0  0  0  0
  193.4530  175.7480  146.1550 C   0  0  0  0  0  2  0  0  0  0  0  0
  193.0570  176.2370  144.7630 C   0  0  1  0  0  3  0  0  0  0  0  0
  195.0490  175.0050  143.8030 C   0  0  0  0  0  2  0  0  0  0  0  0
  193.5430  175.2520  143.6870 C   0  0  2  0  0  3  0  0  0  0  0  0
  191.6090  176.3810  144.6900 N   0  0  0  0  0  2  0  0  0  0  0  0
  191.6750  178.5650  143.8570 O   0  0  0  0  0  0  0  0  0  0  0  0
  190.9800  177.5820  144.2300 C   0  0  0  0  0  0  0  0  0  0  0  0
  188.9430  176.7500  143.0950 C   0  0  0  0  0  2  0  0  0  0  0  0
  186.7080  177.0460  144.1700 C   0  0  0  0  0  0  0  0  0  0  0  0
  187.3570  177.4320  145.4910 C   0  0  2  0  0  3  0  0  0  0  0  0
  187.4420  176.7900  143.0710 C   0  0  0  0  0  3  0  0  0  0  0  0
  188.8860  177.2830  145.5150 C   0  0  0  0  0  2  0  0  0  0  0  0
  189.4930  177.6760  144.1750 C   0  0  1  0  0  3  0  0  0  0  0  0
  186.3000  177.6990  147.7750 C   0  0  0  0  0  1  0  0  0  0  0  0
  186.7270  176.7220  146.6880 C   0  0  0  0  0  2  0  0  0  0  0  0
  185.2160  177.0830  144.0500 C   0  0  0  0  0  2  0  0  0  0  0  0
  184.7680  178.3290  143.3090 C   0  0  0  0  0  2  0  0  0  0  0  0
  184.5740  179.4600  144.2960 C   0  0  0  0  0  2  0  0  0  0  0  0
  183.8670  178.9380  145.5290 C   0  0  0  0  0  1  0  0  0  0  0  0
  193.1690  175.6970  142.2670 C   0  0  0  0  0  2  0  0  0  0  0  0
  192.6610  174.5570  141.3890 C   0  0  0  0  0  2  0  0  0  0  0  0
  191.2050  174.2460  141.6910 C   0  0  0  0  0  2  0  0  0  0  0  0
  191.8140  172.1810  143.0800 C   0  0  1  0  0  3  0  0  0  0  0  0
  190.4320  171.8680  141.2040 C   0  0  0  0  0  0  0  0  0  0  0  0
  190.7140  170.4890  141.6430 C   0  0  0  0  0  3  0  0  0  0  0  0
  191.5690  170.6770  142.8980 C   0  0  0  0  0  3  0  0  0  0  0  0
  189.6870  172.2190  139.7890 S   0  0  0  0  0  0  0  0  0  0  0  0
  191.0590  172.8370  142.0270 N   0  0  0  0  0  0  0  0  0  0  0  0
  189.8280  172.2930  144.5850 C   0  0  0  0  0  1  0  0  0  0  0  0
  191.3050  172.6040  144.4490 C   0  0  0  0  0  2  0  0  0  0  0  0
  2  1  1  0  0  0  0
  3  1  1  0  0  0  0
  4  7  1  1  0  0  0
  4  3  1  0  0  0  0
  5  2  1  0  0  0  0
  6 22  1  6  0  0  0
  6  5  1  0  0  0  0
  6  4  1  0  0  0  0
  8  9  2  0  0  0  0
  9  7  1  0  0  0  0
 10 15  1  0  0  0  0
 11 12  1  0  0  0  0
 12 14  1  0  0  0  0
 12 17  1  1  0  0  0
 13 10  1  0  0  0  0
 13 11  2  0  0  0  0
 15  9  1  1  0  0  0
 15 14  1  0  0  0  0
 17 16  1  0  0  0  0
 18 11  1  0  0  0  0
 19 18  1  0  0  0  0
 19 20  1  0  0  0  0
 20 21  1  0  0  0  0
 23 24  1  0  0  0  0
 23 22  1  0  0  0  0
 24 30  1  0  0  0  0
 25 32  1  1  0  0  0
 26 27  1  0  0  0  0
 26 30  1  0  0  0  0
 27 28  2  0  0  0  0
 28 25  1  0  0  0  0
 29 26  2  0  0  0  0
 30 25  1  0  0  0  0
 32 31  1  0  0  0  0
M  END
>  <MODEL>
9

>  <REMARK>
 VINA RESULT:      -6.0      2.251      7.252
  Name = 
  11 active torsions:
  status: ('A' for Active; 'I' for Inactive)
    1  A    between atoms: C_1  and  C_20
    2  A    between atoms: C_2  and  C_12
    3  A    between atoms: C_2  and  C_20
    4  A    between atoms: N_3  and  C_15
    5  A    between atoms: C_6  and  C_16
    6  A    between atoms: C_6  and  C_26
    7  A    between atoms: C_7  and  C_31
    8  A    between atoms: C_14  and  C_28
    9  A    between atoms: C_16  and  C_27
   10  A    between atoms: C_19  and  C_24
   11  A    between atoms: C_27  and  N_32
                            x       y       z     vdW  Elec       q    Type
                         _______ _______ _______ _____ _____    ______ ____

>  <TORSDO>
F 11

$$$$
