=
 OpenBabel11052421063D

 43 48  0  0  1  0  0  0  0  0999 V2000
  191.7050  172.7090  138.3460 C   0  0  0  0  0  0  0  0  0  0  0  0
  192.7170  175.3710  142.4800 C   0  0  0  0  0  0  0  0  0  0  0  0
  192.7250  174.2330  140.0090 C   0  0  2  0  0  3  0  0  0  0  0  0
  190.3710  172.7590  139.0720 C   0  0  0  0  0  2  0  0  0  0  0  0
  191.8240  171.9050  137.2610 F   0  0  0  0  0  0  0  0  0  0  0  0
  191.6430  173.7510  140.9830 C   0  0  2  0  0  3  0  0  0  0  0  0
  192.8030  173.3240  138.8200 C   0  0  0  0  0  3  0  0  0  0  0  0
  190.3200  173.7660  140.2330 C   0  0  0  0  0  2  0  0  0  0  0  0
  190.6360  174.7530  143.1470 N   0  0  0  0  0  2  0  0  0  0  0  0
  191.6540  174.6610  142.1720 C   0  0  0  0  0  0  0  0  0  0  0  0
  193.8840  175.4790  141.5270 C   0  0  0  0  0  2  0  0  0  0  0  0
  192.4930  176.1570  143.7200 C   0  0  1  0  0  3  0  0  0  0  0  0
  191.0950  175.6900  144.1710 C   0  0  1  0  0  3  0  0  0  0  0  0
  193.9640  174.3470  140.6750 O   0  0  0  0  0  0  0  0  0  0  0  0
  193.5290  175.7820  144.7640 C   0  0  0  0  0  2  0  0  0  0  0  0
  193.0580  174.7220  145.5430 O   0  0  0  0  0  0  0  0  0  0  0  0
  194.6600  171.4270  145.1250 C   0  0  0  0  0  2  0  0  0  0  0  0
  196.6650  173.9490  145.9780 C   0  0  0  0  0  2  0  0  0  0  0  0
  196.9160  172.5980  145.3200 C   0  0  0  0  0  2  0  0  0  0  0  0
  194.0390  172.7440  144.6480 C   0  0  0  0  0  2  0  0  0  0  0  0
  194.1520  173.8650  145.6750 C   0  0  0  0  0  3  0  0  0  0  0  0
  195.9730  171.5590  145.9050 C   0  0  0  0  0  2  0  0  0  0  0  0
  195.4330  174.6480  145.4120 C   0  0  0  0  0  2  0  0  0  0  0  0
  190.2310  176.7850  144.2260 O   0  0  0  0  0  0  0  0  0  0  0  0
  189.3580  176.6060  143.1520 C   0  0  1  0  0  3  0  0  0  0  0  0
  188.1930  177.5690  143.2930 C   0  0  1  0  0  3  0  0  0  0  0  0
  189.3200  177.8730  142.3250 C   0  0  0  0  0  2  0  0  0  0  0  0
  186.9890  177.0410  142.5190 C   0  0  1  0  0  3  0  0  0  0  0  0
  186.7090  175.7350  142.9290 O   0  0  0  0  0  1  0  0  0  0  0  0
  186.1260  179.2270  142.9950 O   0  0  0  0  0  1  0  0  0  0  0  0
  185.7310  177.9180  142.6770 C   0  0  1  0  0  0  0  0  0  0  0  0
  184.9110  177.9080  141.3750 C   0  0  0  0  0  2  0  0  0  0  0  0
  182.9700  178.1770  140.3590 C   0  0  0  0  0  1  0  0  0  0  0  0
  183.5680  178.2080  141.6180 O   0  0  0  0  0  0  0  0  0  0  0  0
  184.9570  177.3570  143.7260 O   0  0  0  0  0  0  0  0  0  0  0  0
  184.8670  178.2610  144.8020 C   0  0  1  0  0  3  0  0  0  0  0  0
  183.6660  178.9680  144.7040 O   0  0  0  0  0  1  0  0  0  0  0  0
  184.9100  177.4960  146.1270 C   0  0  0  0  0  3  0  0  0  0  0  0
  185.9320  179.2210  147.6430 C   0  0  0  0  0  2  0  0  0  0  0  0
  187.3410  177.7220  146.7220 C   0  0  0  0  0  2  0  0  0  0  0  0
  186.9880  178.3400  147.9340 O   0  0  0  0  0  0  0  0  0  0  0  0
  186.2390  176.7480  146.2970 C   0  0  0  0  0  2  0  0  0  0  0  0
  184.6640  178.4270  147.3210 C   0  0  0  0  0  2  0  0  0  0  0  0
  1  7  2  0  0  0  0
  1  4  1  0  0  0  0
  2 12  1  0  0  0  0
  3  7  1  6  0  0  0
  3 14  1  0  0  0  0
  3  6  1  0  0  0  0
  4  8  1  0  0  0  0
  5  1  1  0  0  0  0
  6  8  1  6  0  0  0
  6 10  1  0  0  0  0
  9 13  1  0  0  0  0
 10  2  2  0  0  0  0
 10  9  1  0  0  0  0
 11  2  1  0  0  0  0
 12 13  1  0  0  0  0
 12 15  1  1  0  0  0
 13 24  1  6  0  0  0
 14 11  1  0  0  0  0
 15 16  1  0  0  0  0
 16 21  1  0  0  0  0
 17 22  1  0  0  0  0
 19 22  1  0  0  0  0
 19 18  1  0  0  0  0
 20 17  1  0  0  0  0
 20 21  1  0  0  0  0
 23 21  1  0  0  0  0
 23 18  1  0  0  0  0
 25 26  1  0  0  0  0
 25 24  1  1  0  0  0
 26 28  1  6  0  0  0
 27 25  1  0  0  0  0
 27 26  1  0  0  0  0
 28 31  1  0  0  0  0
 28 29  1  1  0  0  0
 31 30  1  1  0  0  0
 31 35  1  0  0  0  0
 32 34  1  0  0  0  0
 32 31  1  0  0  0  0
 33 34  1  0  0  0  0
 35 36  1  0  0  0  0
 36 37  1  6  0  0  0
 36 38  1  0  0  0  0
 38 42  1  0  0  0  0
 38 43  1  0  0  0  0
 39 41  1  0  0  0  0
 40 41  1  0  0  0  0
 42 40  1  0  0  0  0
 43 39  1  0  0  0  0
M  END
>  <MODEL>
1

>  <REMARK>
 VINA RESULT:      -7.5      0.000      0.000
  Name = 
  12 active torsions:
  status: ('A' for Active; 'I' for Inactive)
    1  A    between atoms: C_1  and  O_28
    2  A    between atoms: C_1  and  C_34
    3  A    between atoms: C_2  and  O_13
    4  A    between atoms: C_4  and  C_12
    5  A    between atoms: C_4  and  C_15
    6  A    between atoms: C_4  and  O_22
    7  A    between atoms: C_6  and  C_12
    8  A    between atoms: C_11  and  C_14
    9  A    between atoms: O_13  and  C_38
   10  A    between atoms: C_14  and  O_22
   11  A    between atoms: C_15  and  O_42
   12  A    between atoms: O_28  and  C_35
                            x       y       z     vdW  Elec       q    Type
                         _______ _______ _______ _____ _____    ______ ____

>  <TORSDO>
F 12

$$$$
=
 OpenBabel11052421063D

 43 48  0  0  1  0  0  0  0  0999 V2000
  191.7760  170.1100  136.3070 C   0  0  0  0  0  0  0  0  0  0  0  0
  190.9880  172.8420  140.4440 C   0  0  0  0  0  0  0  0  0  0  0  0
  192.0630  171.4900  138.3420 C   0  0  2  0  0  3  0  0  0  0  0  0
  190.3360  170.5710  136.1600 C   0  0  0  0  0  2  0  0  0  0  0  0
  192.2570  169.1940  135.4300 F   0  0  0  0  0  0  0  0  0  0  0  0
  190.5400  171.4020  138.5100 C   0  0  2  0  0  3  0  0  0  0  0  0
  192.5420  170.4720  137.3510 C   0  0  0  0  0  3  0  0  0  0  0  0
  189.9200  171.6730  137.1480 C   0  0  0  0  0  2  0  0  0  0  0  0
  188.8140  172.8440  139.7890 N   0  0  0  0  0  2  0  0  0  0  0  0
  190.1330  172.3970  139.5510 C   0  0  0  0  0  0  0  0  0  0  0  0
  192.4650  172.5510  140.3190 C   0  0  0  0  0  2  0  0  0  0  0  0
  190.3330  173.7840  141.3880 C   0  0  1  0  0  3  0  0  0  0  0  0
  188.8570  173.7340  140.9470 C   0  0  1  0  0  3  0  0  0  0  0  0
  192.6990  171.3540  139.5950 O   0  0  0  0  0  0  0  0  0  0  0  0
  190.4690  173.2680  142.8090 C   0  0  0  0  0  2  0  0  0  0  0  0
  191.7210  173.6100  143.3230 O   0  0  0  0  0  0  0  0  0  0  0  0
  192.5690  175.7730  146.1860 C   0  0  0  0  0  2  0  0  0  0  0  0
  189.5310  174.4050  146.2150 C   0  0  0  0  0  2  0  0  0  0  0  0
  190.1300  175.6210  146.9110 C   0  0  0  0  0  2  0  0  0  0  0  0
  192.1410  175.4740  144.7460 C   0  0  0  0  0  2  0  0  0  0  0  0
  191.4570  174.1200  144.5950 C   0  0  0  0  0  3  0  0  0  0  0  0
  191.5800  175.3420  147.2740 C   0  0  0  0  0  2  0  0  0  0  0  0
  189.9520  174.3090  144.7530 C   0  0  0  0  0  2  0  0  0  0  0  0
  188.4390  175.0130  140.5720 O   0  0  0  0  0  0  0  0  0  0  0  0
  188.3060  175.7120  141.7720 C   0  0  1  0  0  3  0  0  0  0  0  0
  187.0040  176.4930  141.7500 C   0  0  1  0  0  3  0  0  0  0  0  0
  187.0980  175.1920  142.5210 C   0  0  0  0  0  2  0  0  0  0  0  0
  187.0880  177.6660  142.7230 C   0  0  1  0  0  3  0  0  0  0  0  0
  188.0770  178.5550  142.2960 O   0  0  0  0  0  1  0  0  0  0  0  0
  186.0110  179.7080  143.3710 O   0  0  0  0  0  1  0  0  0  0  0  0
  185.7510  178.4150  142.8900 C   0  0  1  0  0  0  0  0  0  0  0  0
  185.0120  178.4850  141.5420 C   0  0  0  0  0  2  0  0  0  0  0  0
  183.2530  177.9070  140.3390 C   0  0  0  0  0  1  0  0  0  0  0  0
  183.7020  178.0110  141.6550 O   0  0  0  0  0  0  0  0  0  0  0  0
  184.9700  177.6800  143.8180 O   0  0  0  0  0  0  0  0  0  0  0  0
  184.6100  178.4980  144.9080 C   0  0  1  0  0  3  0  0  0  0  0  0
  183.3050  178.9580  144.7210 O   0  0  0  0  0  1  0  0  0  0  0  0
  184.6960  177.6960  146.2080 C   0  0  0  0  0  3  0  0  0  0  0  0
  186.1200  179.2160  147.6160 C   0  0  0  0  0  2  0  0  0  0  0  0
  187.1870  177.5630  146.5160 C   0  0  0  0  0  2  0  0  0  0  0  0
  187.0670  178.1890  147.7690 O   0  0  0  0  0  0  0  0  0  0  0  0
  185.9160  176.7650  146.2110 C   0  0  0  0  0  2  0  0  0  0  0  0
  184.7230  178.6160  147.4350 C   0  0  0  0  0  2  0  0  0  0  0  0
  1  7  2  0  0  0  0
  2 12  1  0  0  0  0
  3  7  1  6  0  0  0
  3  6  1  0  0  0  0
  3 14  1  0  0  0  0
  4  1  1  0  0  0  0
  4  8  1  0  0  0  0
  5  1  1  0  0  0  0
  6  8  1  6  0  0  0
  6 10  1  0  0  0  0
  9 13  1  0  0  0  0
 10  9  1  0  0  0  0
 10  2  2  0  0  0  0
 11  2  1  0  0  0  0
 12 15  1  1  0  0  0
 13 24  1  6  0  0  0
 13 12  1  0  0  0  0
 14 11  1  0  0  0  0
 15 16  1  0  0  0  0
 16 21  1  0  0  0  0
 17 22  1  0  0  0  0
 18 19  1  0  0  0  0
 19 22  1  0  0  0  0
 20 17  1  0  0  0  0
 21 20  1  0  0  0  0
 21 23  1  0  0  0  0
 23 18  1  0  0  0  0
 25 24  1  6  0  0  0
 25 27  1  0  0  0  0
 26 25  1  0  0  0  0
 26 27  1  0  0  0  0
 26 28  1  1  0  0  0
 28 29  1  6  0  0  0
 28 31  1  0  0  0  0
 31 30  1  1  0  0  0
 31 35  1  0  0  0  0
 32 34  1  0  0  0  0
 32 31  1  0  0  0  0
 33 34  1  0  0  0  0
 35 36  1  0  0  0  0
 36 37  1  6  0  0  0
 36 38  1  0  0  0  0
 38 42  1  0  0  0  0
 38 43  1  0  0  0  0
 39 41  1  0  0  0  0
 40 41  1  0  0  0  0
 42 40  1  0  0  0  0
 43 39  1  0  0  0  0
M  END
>  <MODEL>
2

>  <REMARK>
 VINA RESULT:      -7.4      2.358      3.368
  Name = 
  12 active torsions:
  status: ('A' for Active; 'I' for Inactive)
    1  A    between atoms: C_1  and  O_28
    2  A    between atoms: C_1  and  C_34
    3  A    between atoms: C_2  and  O_13
    4  A    between atoms: C_4  and  C_12
    5  A    between atoms: C_4  and  C_15
    6  A    between atoms: C_4  and  O_22
    7  A    between atoms: C_6  and  C_12
    8  A    between atoms: C_11  and  C_14
    9  A    between atoms: O_13  and  C_38
   10  A    between atoms: C_14  and  O_22
   11  A    between atoms: C_15  and  O_42
   12  A    between atoms: O_28  and  C_35
                            x       y       z     vdW  Elec       q    Type
                         _______ _______ _______ _____ _____    ______ ____

>  <TORSDO>
F 12

$$$$
=
 OpenBabel11052421063D

 43 48  0  0  1  0  0  0  0  0999 V2000
  184.5880  178.4870  145.9290 C   0  0  0  0  0  0  0  0  0  0  0  0
  188.5410  175.7590  144.4710 C   0  0  0  0  0  0  0  0  0  0  0  0
  186.2970  177.2910  144.5960 C   0  0  2  0  0  3  0  0  0  0  0  0
  185.5100  178.5260  147.1360 C   0  0  0  0  0  2  0  0  0  0  0  0
  183.3340  178.9890  146.0540 F   0  0  0  0  0  0  0  0  0  0  0  0
  186.8740  176.8080  145.9330 C   0  0  2  0  0  3  0  0  0  0  0  0
  184.9210  177.8530  144.7910 C   0  0  0  0  0  3  0  0  0  0  0  0
  186.9330  178.0120  146.8600 C   0  0  0  0  0  2  0  0  0  0  0  0
  189.1990  175.9190  146.6380 N   0  0  0  0  0  2  0  0  0  0  0  0
  188.2170  176.2070  145.6640 C   0  0  0  0  0  0  0  0  0  0  0  0
  187.6670  176.0400  143.2720 C   0  0  0  0  0  2  0  0  0  0  0  0
  189.9060  175.1730  144.4730 C   0  0  1  0  0  3  0  0  0  0  0  0
  190.3100  175.2580  145.9570 C   0  0  1  0  0  3  0  0  0  0  0  0
  186.3150  176.2430  143.6510 O   0  0  0  0  0  0  0  0  0  0  0  0
  189.8450  173.7210  144.0320 C   0  0  0  0  0  2  0  0  0  0  0  0
  190.8790  173.4530  143.1330 O   0  0  0  0  0  0  0  0  0  0  0  0
  191.0410  173.3500  139.4500 C   0  0  0  0  0  2  0  0  0  0  0  0
  188.0220  172.9730  140.8090 C   0  0  0  0  0  2  0  0  0  0  0  0
  188.6060  172.5990  139.4520 C   0  0  0  0  0  2  0  0  0  0  0  0
  191.1960  172.7880  140.8670 C   0  0  0  0  0  2  0  0  0  0  0  0
  190.2670  173.4510  141.8780 C   0  0  0  0  0  3  0  0  0  0  0  0
  189.6050  173.6580  139.0140 C   0  0  0  0  0  2  0  0  0  0  0  0
  188.9720  172.6490  141.9570 C   0  0  0  0  0  2  0  0  0  0  0  0
  191.4650  176.0320  146.0830 O   0  0  0  0  0  0  0  0  0  0  0  0
  192.4380  175.1500  146.5550 C   0  0  1  0  0  3  0  0  0  0  0  0
  193.5290  175.0080  145.5100 C   0  0  1  0  0  3  0  0  0  0  0  0
  193.7460  175.8920  146.7220 C   0  0  0  0  0  2  0  0  0  0  0  0
  194.2680  173.6870  145.7080 C   0  0  1  0  0  3  0  0  0  0  0  0
  193.4810  172.6380  145.2250 O   0  0  0  0  0  1  0  0  0  0  0  0
  196.1450  174.9660  144.9400 O   0  0  0  0  0  1  0  0  0  0  0  0
  195.6510  173.6550  145.0300 C   0  0  1  0  0  0  0  0  0  0  0  0
  196.6190  172.7750  145.8410 C   0  0  0  0  0  2  0  0  0  0  0  0
  197.4060  170.7800  145.3190 C   0  0  0  0  0  1  0  0  0  0  0  0
  196.2580  171.4270  145.7730 O   0  0  0  0  0  0  0  0  0  0  0  0
  195.4740  173.0950  143.7390 O   0  0  0  0  0  0  0  0  0  0  0  0
  196.3040  173.7460  142.8060 C   0  0  1  0  0  3  0  0  0  0  0  0
  197.4010  172.9280  142.5220 O   0  0  0  0  0  1  0  0  0  0  0  0
  195.5210  174.0270  141.5220 C   0  0  0  0  0  3  0  0  0  0  0  0
  196.2190  176.3940  141.0430 C   0  0  0  0  0  2  0  0  0  0  0  0
  194.2880  176.1180  142.1700 C   0  0  0  0  0  2  0  0  0  0  0  0
  194.8750  176.8010  141.0920 O   0  0  0  0  0  0  0  0  0  0  0  0
  194.1450  174.6320  141.8280 C   0  0  0  0  0  2  0  0  0  0  0  0
  196.3080  174.9390  140.5730 C   0  0  0  0  0  2  0  0  0  0  0  0
  1  5  1  0  0  0  0
  1  4  1  0  0  0  0
  2 12  1  0  0  0  0
  2 10  2  0  0  0  0
  3  7  1  1  0  0  0
  3  6  1  0  0  0  0
  6  8  1  1  0  0  0
  7  1  2  0  0  0  0
  8  4  1  0  0  0  0
 10  6  1  0  0  0  0
 10  9  1  0  0  0  0
 11 14  1  0  0  0  0
 11  2  1  0  0  0  0
 12 15  1  1  0  0  0
 12 13  1  0  0  0  0
 13 24  1  6  0  0  0
 13  9  1  0  0  0  0
 14  3  1  0  0  0  0
 16 15  1  0  0  0  0
 17 20  1  0  0  0  0
 18 23  1  0  0  0  0
 19 18  1  0  0  0  0
 20 21  1  0  0  0  0
 21 23  1  0  0  0  0
 21 16  1  0  0  0  0
 22 17  1  0  0  0  0
 22 19  1  0  0  0  0
 25 24  1  6  0  0  0
 25 27  1  0  0  0  0
 26 28  1  1  0  0  0
 26 25  1  0  0  0  0
 26 27  1  0  0  0  0
 28 29  1  6  0  0  0
 31 30  1  6  0  0  0
 31 28  1  0  0  0  0
 31 32  1  0  0  0  0
 33 34  1  0  0  0  0
 34 32  1  0  0  0  0
 35 31  1  0  0  0  0
 36 37  1  6  0  0  0
 36 35  1  0  0  0  0
 38 42  1  0  0  0  0
 38 36  1  0  0  0  0
 39 41  1  0  0  0  0
 41 40  1  0  0  0  0
 42 40  1  0  0  0  0
 43 39  1  0  0  0  0
 43 38  1  0  0  0  0
M  END
>  <MODEL>
3

>  <REMARK>
 VINA RESULT:      -7.4      3.048      9.555
  Name = 
  12 active torsions:
  status: ('A' for Active; 'I' for Inactive)
    1  A    between atoms: C_1  and  O_28
    2  A    between atoms: C_1  and  C_34
    3  A    between atoms: C_2  and  O_13
    4  A    between atoms: C_4  and  C_12
    5  A    between atoms: C_4  and  C_15
    6  A    between atoms: C_4  and  O_22
    7  A    between atoms: C_6  and  C_12
    8  A    between atoms: C_11  and  C_14
    9  A    between atoms: O_13  and  C_38
   10  A    between atoms: C_14  and  O_22
   11  A    between atoms: C_15  and  O_42
   12  A    between atoms: O_28  and  C_35
                            x       y       z     vdW  Elec       q    Type
                         _______ _______ _______ _____ _____    ______ ____

>  <TORSDO>
F 12

$$$$
=
 OpenBabel11052421063D

 43 48  0  0  1  0  0  0  0  0999 V2000
  184.4430  178.3550  145.7660 C   0  0  0  0  0  0  0  0  0  0  0  0
  189.1110  176.5110  145.7040 C   0  0  0  0  0  0  0  0  0  0  0  0
  186.4510  176.9410  146.0760 C   0  0  2  0  0  3  0  0  0  0  0  0
  185.0990  179.0880  144.6090 C   0  0  0  0  0  2  0  0  0  0  0  0
  183.2110  178.7520  146.1720 F   0  0  0  0  0  0  0  0  0  0  0  0
  187.2410  178.0690  145.4010 C   0  0  2  0  0  3  0  0  0  0  0  0
  185.0930  177.4240  146.4870 C   0  0  0  0  0  3  0  0  0  0  0  0
  186.4520  178.5020  144.1740 C   0  0  0  0  0  2  0  0  0  0  0  0
  189.5250  178.1500  144.1870 N   0  0  0  0  0  2  0  0  0  0  0  0
  188.6020  177.5440  145.0690 C   0  0  0  0  0  0  0  0  0  0  0  0
  188.2610  175.6700  146.6270 C   0  0  0  0  0  2  0  0  0  0  0  0
  190.4840  176.2120  145.2230 C   0  0  1  0  0  3  0  0  0  0  0  0
  190.7530  177.3590  144.2290 C   0  0  1  0  0  3  0  0  0  0  0  0
  187.1820  176.4180  147.1640 O   0  0  0  0  0  0  0  0  0  0  0  0
  191.4640  176.2870  146.3800 C   0  0  0  0  0  2  0  0  0  0  0  0
  192.1360  175.0700  146.5140 O   0  0  0  0  0  0  0  0  0  0  0  0
  195.0090  177.0730  145.3600 C   0  0  0  0  0  2  0  0  0  0  0  0
  195.0830  173.8220  144.6300 C   0  0  0  0  0  2  0  0  0  0  0  0
  196.1660  174.8900  144.7320 C   0  0  0  0  0  2  0  0  0  0  0  0
  194.1670  176.3090  146.3870 C   0  0  0  0  0  2  0  0  0  0  0  0
  193.3010  175.2220  145.7610 C   0  0  0  0  0  3  0  0  0  0  0  0
  195.6210  176.2220  144.2420 C   0  0  0  0  0  2  0  0  0  0  0  0
  194.0760  173.9090  145.7710 C   0  0  0  0  0  2  0  0  0  0  0  0
  191.0130  176.8280  142.9640 O   0  0  0  0  0  0  0  0  0  0  0  0
  191.3150  175.4860  143.1940 C   0  0  1  0  0  3  0  0  0  0  0  0
  191.0360  174.6900  141.9320 C   0  0  1  0  0  3  0  0  0  0  0  0
  192.4580  175.0700  142.2930 C   0  0  0  0  0  2  0  0  0  0  0  0
  190.7990  173.2240  142.2850 C   0  0  1  0  0  3  0  0  0  0  0  0
  191.0120  173.0360  143.6530 O   0  0  0  0  0  1  0  0  0  0  0  0
  188.7710  172.1950  143.0470 O   0  0  0  0  0  1  0  0  0  0  0  0
  189.3910  172.7260  141.9040 C   0  0  1  0  0  0  0  0  0  0  0  0
  188.5560  173.8860  141.3330 C   0  0  0  0  0  2  0  0  0  0  0  0
  187.4500  175.6330  142.1040 C   0  0  0  0  0  1  0  0  0  0  0  0
  187.5230  174.2450  142.2020 O   0  0  0  0  0  0  0  0  0  0  0  0
  189.5530  171.7280  140.9100 O   0  0  0  0  0  0  0  0  0  0  0  0
  190.8710  171.2300  140.9290 C   0  0  1  0  0  3  0  0  0  0  0  0
  190.8880  170.0090  141.6060 O   0  0  0  0  0  1  0  0  0  0  0  0
  191.3710  171.0350  139.4960 C   0  0  0  0  0  3  0  0  0  0  0  0
  193.2480  172.7060  139.4120 C   0  0  0  0  0  2  0  0  0  0  0  0
  191.2490  173.3900  138.6290 C   0  0  0  0  0  2  0  0  0  0  0  0
  192.6230  173.3550  138.3340 O   0  0  0  0  0  0  0  0  0  0  0  0
  190.6590  171.9810  138.5220 C   0  0  0  0  0  2  0  0  0  0  0  0
  192.8920  171.2160  139.4030 C   0  0  0  0  0  2  0  0  0  0  0  0
  1  5  1  0  0  0  0
  1  7  2  0  0  0  0
  2 11  1  0  0  0  0
  3  7  1  1  0  0  0
  3 14  1  0  0  0  0
  4  1  1  0  0  0  0
  6  8  1  6  0  0  0
  6  3  1  0  0  0  0
  8  4  1  0  0  0  0
  9 13  1  0  0  0  0
  9 10  1  0  0  0  0
 10  6  1  0  0  0  0
 10  2  2  0  0  0  0
 11 14  1  0  0  0  0
 12  2  1  0  0  0  0
 12 15  1  1  0  0  0
 13 24  1  6  0  0  0
 13 12  1  0  0  0  0
 15 16  1  0  0  0  0
 17 20  1  0  0  0  0
 18 19  1  0  0  0  0
 18 23  1  0  0  0  0
 21 23  1  0  0  0  0
 21 20  1  0  0  0  0
 21 16  1  0  0  0  0
 22 19  1  0  0  0  0
 22 17  1  0  0  0  0
 25 24  1  6  0  0  0
 26 28  1  1  0  0  0
 26 27  1  0  0  0  0
 26 25  1  0  0  0  0
 27 25  1  0  0  0  0
 28 29  1  1  0  0  0
 31 28  1  0  0  0  0
 31 30  1  1  0  0  0
 32 31  1  0  0  0  0
 32 34  1  0  0  0  0
 33 34  1  0  0  0  0
 35 36  1  0  0  0  0
 35 31  1  0  0  0  0
 36 37  1  1  0  0  0
 38 36  1  0  0  0  0
 41 40  1  0  0  0  0
 41 39  1  0  0  0  0
 42 40  1  0  0  0  0
 42 38  1  0  0  0  0
 43 39  1  0  0  0  0
 43 38  1  0  0  0  0
M  END
>  <MODEL>
4

>  <REMARK>
 VINA RESULT:      -7.3      3.206      7.630
  Name = 
  12 active torsions:
  status: ('A' for Active; 'I' for Inactive)
    1  A    between atoms: C_1  and  O_28
    2  A    between atoms: C_1  and  C_34
    3  A    between atoms: C_2  and  O_13
    4  A    between atoms: C_4  and  C_12
    5  A    between atoms: C_4  and  C_15
    6  A    between atoms: C_4  and  O_22
    7  A    between atoms: C_6  and  C_12
    8  A    between atoms: C_11  and  C_14
    9  A    between atoms: O_13  and  C_38
   10  A    between atoms: C_14  and  O_22
   11  A    between atoms: C_15  and  O_42
   12  A    between atoms: O_28  and  C_35
                            x       y       z     vdW  Elec       q    Type
                         _______ _______ _______ _____ _____    ______ ____

>  <TORSDO>
F 12

$$$$
=
 OpenBabel11052421063D

 43 48  0  0  1  0  0  0  0  0999 V2000
  184.5140  178.2760  145.4820 C   0  0  0  0  0  0  0  0  0  0  0  0
  189.1720  176.4830  146.0140 C   0  0  0  0  0  0  0  0  0  0  0  0
  186.4840  176.8960  146.0680 C   0  0  2  0  0  3  0  0  0  0  0  0
  185.2910  178.9730  144.3780 C   0  0  0  0  0  2  0  0  0  0  0  0
  183.2410  178.6740  145.7320 F   0  0  0  0  0  0  0  0  0  0  0  0
  187.3370  178.0080  145.4440 C   0  0  2  0  0  3  0  0  0  0  0  0
  185.0850  177.3790  146.3060 C   0  0  0  0  0  3  0  0  0  0  0  0
  186.6890  178.3870  144.1220 C   0  0  0  0  0  2  0  0  0  0  0  0
  189.7430  178.0700  144.4930 N   0  0  0  0  0  2  0  0  0  0  0  0
  188.7310  177.4860  145.2870 C   0  0  0  0  0  0  0  0  0  0  0  0
  188.2300  175.6670  146.8660 C   0  0  0  0  0  2  0  0  0  0  0  0
  190.5930  176.1820  145.7020 C   0  0  1  0  0  3  0  0  0  0  0  0
  190.9640  177.2950  144.7020 C   0  0  1  0  0  3  0  0  0  0  0  0
  187.0910  176.4220  147.2500 O   0  0  0  0  0  0  0  0  0  0  0  0
  191.4360  176.3100  146.9580 C   0  0  0  0  0  2  0  0  0  0  0  0
  192.2070  175.1600  147.1330 O   0  0  0  0  0  0  0  0  0  0  0  0
  194.9420  176.8180  145.2980 C   0  0  0  0  0  2  0  0  0  0  0  0
  194.3370  173.6410  144.4980 C   0  0  0  0  0  2  0  0  0  0  0  0
  195.5550  174.5410  144.3310 C   0  0  0  0  0  2  0  0  0  0  0  0
  194.2950  176.1150  146.4950 C   0  0  0  0  0  2  0  0  0  0  0  0
  193.1430  175.1980  146.0980 C   0  0  0  0  0  3  0  0  0  0  0  0
  195.1050  175.9640  144.0370 C   0  0  0  0  0  2  0  0  0  0  0  0
  193.6890  173.7920  145.8690 C   0  0  0  0  0  2  0  0  0  0  0  0
  191.3680  176.7210  143.4950 O   0  0  0  0  0  0  0  0  0  0  0  0
  190.7130  175.4910  143.4460 C   0  0  1  0  0  3  0  0  0  0  0  0
  190.2980  175.2050  142.0140 C   0  0  1  0  0  3  0  0  0  0  0  0
  191.5200  174.5280  142.6020 C   0  0  0  0  0  2  0  0  0  0  0  0
  189.1320  174.2200  141.9990 C   0  0  1  0  0  3  0  0  0  0  0  0
  187.9860  174.8500  142.4920 O   0  0  0  0  0  1  0  0  0  0  0  0
  188.0440  172.4920  140.7410 O   0  0  0  0  0  1  0  0  0  0  0  0
  188.8450  173.6370  140.6010 C   0  0  1  0  0  0  0  0  0  0  0  0
  188.1310  174.6840  139.7270 C   0  0  0  0  0  2  0  0  0  0  0  0
  187.4360  175.2810  137.7190 C   0  0  0  0  0  1  0  0  0  0  0  0
  188.3340  174.4350  138.3680 O   0  0  0  0  0  0  0  0  0  0  0  0
  190.0950  173.3090  140.0180 O   0  0  0  0  0  0  0  0  0  0  0  0
  190.2350  171.9110  139.9180 C   0  0  1  0  0  3  0  0  0  0  0  0
  190.2380  171.5490  138.5680 O   0  0  0  0  0  1  0  0  0  0  0  0
  191.5450  171.4730  140.5750 C   0  0  0  0  0  3  0  0  0  0  0  0
  191.7640  169.1290  139.6910 C   0  0  0  0  0  2  0  0  0  0  0  0
  190.8130  169.3600  141.7210 C   0  0  0  0  0  2  0  0  0  0  0  0
  191.7810  168.6340  141.0070 O   0  0  0  0  0  0  0  0  0  0  0  0
  191.2920  170.7990  141.9300 C   0  0  0  0  0  2  0  0  0  0  0  0
  192.3500  170.5430  139.6580 C   0  0  0  0  0  2  0  0  0  0  0  0
  1  5  1  0  0  0  0
  1  7  2  0  0  0  0
  2 11  1  0  0  0  0
  3  7  1  1  0  0  0
  3 14  1  0  0  0  0
  4  1  1  0  0  0  0
  6  8  1  6  0  0  0
  6  3  1  0  0  0  0
  8  4  1  0  0  0  0
  9 13  1  0  0  0  0
  9 10  1  0  0  0  0
 10  6  1  0  0  0  0
 10  2  2  0  0  0  0
 11 14  1  0  0  0  0
 12  2  1  0  0  0  0
 12 15  1  1  0  0  0
 13 24  1  6  0  0  0
 13 12  1  0  0  0  0
 15 16  1  0  0  0  0
 17 20  1  0  0  0  0
 18 23  1  0  0  0  0
 19 18  1  0  0  0  0
 21 20  1  0  0  0  0
 21 16  1  0  0  0  0
 22 19  1  0  0  0  0
 22 17  1  0  0  0  0
 23 21  1  0  0  0  0
 25 24  1  6  0  0  0
 26 28  1  1  0  0  0
 26 27  1  0  0  0  0
 26 25  1  0  0  0  0
 27 25  1  0  0  0  0
 28 29  1  6  0  0  0
 31 30  1  1  0  0  0
 31 28  1  0  0  0  0
 32 31  1  0  0  0  0
 33 34  1  0  0  0  0
 34 32  1  0  0  0  0
 35 31  1  0  0  0  0
 36 37  1  6  0  0  0
 36 35  1  0  0  0  0
 36 38  1  0  0  0  0
 38 42  1  0  0  0  0
 39 41  1  0  0  0  0
 40 42  1  0  0  0  0
 41 40  1  0  0  0  0
 43 39  1  0  0  0  0
 43 38  1  0  0  0  0
M  END
>  <MODEL>
5

>  <REMARK>
 VINA RESULT:      -7.3      3.336      7.534
  Name = 
  12 active torsions:
  status: ('A' for Active; 'I' for Inactive)
    1  A    between atoms: C_1  and  O_28
    2  A    between atoms: C_1  and  C_34
    3  A    between atoms: C_2  and  O_13
    4  A    between atoms: C_4  and  C_12
    5  A    between atoms: C_4  and  C_15
    6  A    between atoms: C_4  and  O_22
    7  A    between atoms: C_6  and  C_12
    8  A    between atoms: C_11  and  C_14
    9  A    between atoms: O_13  and  C_38
   10  A    between atoms: C_14  and  O_22
   11  A    between atoms: C_15  and  O_42
   12  A    between atoms: O_28  and  C_35
                            x       y       z     vdW  Elec       q    Type
                         _______ _______ _______ _____ _____    ______ ____

>  <TORSDO>
F 12

$$$$
=
 OpenBabel11052421063D

 43 48  0  0  1  0  0  0  0  0999 V2000
  196.6030  174.1910  145.3150 C   0  0  0  0  0  0  0  0  0  0  0  0
  191.7680  173.8920  144.0000 C   0  0  0  0  0  0  0  0  0  0  0  0
  194.2020  173.6060  145.1810 C   0  0  2  0  0  3  0  0  0  0  0  0
  196.3650  175.4780  144.5430 C   0  0  0  0  0  2  0  0  0  0  0  0
  197.8740  173.8710  145.6670 F   0  0  0  0  0  0  0  0  0  0  0  0
  194.1440  174.5020  143.9370 C   0  0  2  0  0  3  0  0  0  0  0  0
  195.6240  173.2970  145.5400 C   0  0  0  0  0  3  0  0  0  0  0  0
  194.8840  175.7870  144.2710 C   0  0  0  0  0  2  0  0  0  0  0  0
  192.2090  175.7150  142.7190 N   0  0  0  0  0  2  0  0  0  0  0  0
  192.7030  174.7240  143.5970 C   0  0  0  0  0  0  0  0  0  0  0  0
  192.0710  172.8130  145.0120 C   0  0  0  0  0  2  0  0  0  0  0  0
  190.4330  174.3070  143.4990 C   0  0  1  0  0  3  0  0  0  0  0  0
  190.7660  175.5160  142.6040 C   0  0  1  0  0  3  0  0  0  0  0  0
  193.4390  172.4360  144.9760 O   0  0  0  0  0  0  0  0  0  0  0  0
  189.8260  173.1930  142.6640 C   0  0  0  0  0  2  0  0  0  0  0  0
  190.0780  173.4220  141.3100 O   0  0  0  0  0  0  0  0  0  0  0  0
  191.3580  170.0100  141.8750 C   0  0  0  0  0  2  0  0  0  0  0  0
  191.0520  170.9680  138.6980 C   0  0  0  0  0  2  0  0  0  0  0  0
  191.1220  169.6020  139.3700 C   0  0  0  0  0  2  0  0  0  0  0  0
  190.2810  171.0950  141.7810 C   0  0  0  0  0  2  0  0  0  0  0  0
  190.6660  172.2410  140.8530 C   0  0  0  0  0  3  0  0  0  0  0  0
  192.0660  169.6640  140.5610 C   0  0  0  0  0  2  0  0  0  0  0  0
  190.1470  171.9370  139.4510 C   0  0  0  0  0  2  0  0  0  0  0  0
  190.0980  176.6470  143.0790 O   0  0  0  0  0  0  0  0  0  0  0  0
  189.0190  176.8150  142.2100 C   0  0  1  0  0  3  0  0  0  0  0  0
  187.9170  177.5750  142.9270 C   0  0  1  0  0  3  0  0  0  0  0  0
  188.8200  178.2910  141.9420 C   0  0  0  0  0  2  0  0  0  0  0  0
  186.5730  177.2860  142.2640 C   0  0  1  0  0  3  0  0  0  0  0  0
  186.1930  175.9700  142.5390 O   0  0  0  0  0  1  0  0  0  0  0  0
  186.0430  179.4270  143.2060 O   0  0  0  0  0  1  0  0  0  0  0  0
  185.4570  178.2530  142.7050 C   0  0  1  0  0  0  0  0  0  0  0  0
  184.5390  178.5810  141.5140 C   0  0  0  0  0  2  0  0  0  0  0  0
  182.6550  177.9440  140.5560 C   0  0  0  0  0  1  0  0  0  0  0  0
  183.2080  178.2630  141.7950 O   0  0  0  0  0  0  0  0  0  0  0  0
  184.7050  177.5970  143.7130 O   0  0  0  0  0  0  0  0  0  0  0  0
  184.6620  178.3840  144.8800 C   0  0  1  0  0  3  0  0  0  0  0  0
  183.4330  179.0450  144.9390 O   0  0  0  0  0  1  0  0  0  0  0  0
  184.8310  177.4930  146.1120 C   0  0  0  0  0  3  0  0  0  0  0  0
  186.1320  179.0180  147.6300 C   0  0  0  0  0  2  0  0  0  0  0  0
  187.3270  177.5560  146.4000 C   0  0  0  0  0  2  0  0  0  0  0  0
  187.1670  178.0680  147.6980 O   0  0  0  0  0  0  0  0  0  0  0  0
  186.1270  176.6760  146.0370 C   0  0  0  0  0  2  0  0  0  0  0  0
  184.7910  178.3140  147.4080 C   0  0  0  0  0  2  0  0  0  0  0  0
  1  7  2  0  0  0  0
  1  5  1  0  0  0  0
  2 11  1  0  0  0  0
  3  7  1  6  0  0  0
  4  1  1  0  0  0  0
  6  8  1  1  0  0  0
  6  3  1  0  0  0  0
  8  4  1  0  0  0  0
  9 10  1  0  0  0  0
 10  6  1  0  0  0  0
 10  2  2  0  0  0  0
 12 15  1  6  0  0  0
 12  2  1  0  0  0  0
 13  9  1  0  0  0  0
 13 24  1  1  0  0  0
 13 12  1  0  0  0  0
 14 11  1  0  0  0  0
 14  3  1  0  0  0  0
 16 15  1  0  0  0  0
 18 19  1  0  0  0  0
 18 23  1  0  0  0  0
 19 22  1  0  0  0  0
 20 17  1  0  0  0  0
 21 16  1  0  0  0  0
 21 20  1  0  0  0  0
 22 17  1  0  0  0  0
 23 21  1  0  0  0  0
 25 26  1  0  0  0  0
 25 24  1  1  0  0  0
 26 28  1  6  0  0  0
 27 25  1  0  0  0  0
 27 26  1  0  0  0  0
 28 29  1  1  0  0  0
 28 31  1  0  0  0  0
 31 30  1  1  0  0  0
 31 35  1  0  0  0  0
 32 34  1  0  0  0  0
 32 31  1  0  0  0  0
 33 34  1  0  0  0  0
 35 36  1  0  0  0  0
 36 37  1  1  0  0  0
 36 38  1  0  0  0  0
 38 43  1  0  0  0  0
 39 41  1  0  0  0  0
 40 41  1  0  0  0  0
 42 38  1  0  0  0  0
 42 40  1  0  0  0  0
 43 39  1  0  0  0  0
M  END
>  <MODEL>
6

>  <REMARK>
 VINA RESULT:      -7.3      2.306      4.578
  Name = 
  12 active torsions:
  status: ('A' for Active; 'I' for Inactive)
    1  A    between atoms: C_1  and  O_28
    2  A    between atoms: C_1  and  C_34
    3  A    between atoms: C_2  and  O_13
    4  A    between atoms: C_4  and  C_12
    5  A    between atoms: C_4  and  C_15
    6  A    between atoms: C_4  and  O_22
    7  A    between atoms: C_6  and  C_12
    8  A    between atoms: C_11  and  C_14
    9  A    between atoms: O_13  and  C_38
   10  A    between atoms: C_14  and  O_22
   11  A    between atoms: C_15  and  O_42
   12  A    between atoms: O_28  and  C_35
                            x       y       z     vdW  Elec       q    Type
                         _______ _______ _______ _____ _____    ______ ____

>  <TORSDO>
F 12

$$$$
=
 OpenBabel11052421063D

 43 48  0  0  1  0  0  0  0  0999 V2000
  184.3630  178.5310  145.6700 C   0  0  0  0  0  0  0  0  0  0  0  0
  188.9200  176.4370  145.4570 C   0  0  0  0  0  0  0  0  0  0  0  0
  186.3250  177.0550  145.9870 C   0  0  2  0  0  3  0  0  0  0  0  0
  184.9490  179.0840  144.3810 C   0  0  0  0  0  2  0  0  0  0  0  0
  183.1910  179.0410  146.1220 F   0  0  0  0  0  0  0  0  0  0  0  0
  187.1030  178.0490  145.1170 C   0  0  2  0  0  3  0  0  0  0  0  0
  185.0310  177.6580  146.4440 C   0  0  0  0  0  3  0  0  0  0  0  0
  186.2310  178.3760  143.9140 C   0  0  0  0  0  2  0  0  0  0  0  0
  189.2750  177.8590  143.7220 N   0  0  0  0  0  2  0  0  0  0  0  0
  188.4060  177.4140  144.7430 C   0  0  0  0  0  0  0  0  0  0  0  0
  188.1170  175.7600  146.5420 C   0  0  0  0  0  2  0  0  0  0  0  0
  190.2320  176.0080  144.9070 C   0  0  1  0  0  3  0  0  0  0  0  0
  190.4650  177.0110  143.7600 C   0  0  1  0  0  3  0  0  0  0  0  0
  187.1230  176.6250  147.0680 O   0  0  0  0  0  0  0  0  0  0  0  0
  191.3110  176.1650  145.9630 C   0  0  0  0  0  2  0  0  0  0  0  0
  191.8870  174.9240  146.2440 O   0  0  0  0  0  0  0  0  0  0  0  0
  195.0010  176.7150  145.4110 C   0  0  0  0  0  2  0  0  0  0  0  0
  194.9890  173.4300  144.8530 C   0  0  0  0  0  2  0  0  0  0  0  0
  196.1060  174.4460  145.0560 C   0  0  0  0  0  2  0  0  0  0  0  0
  193.9830  176.0520  146.3450 C   0  0  0  0  0  2  0  0  0  0  0  0
  193.1510  174.9760  145.6550 C   0  0  0  0  0  3  0  0  0  0  0  0
  195.7110  175.7750  144.4310 C   0  0  0  0  0  2  0  0  0  0  0  0
  193.8410  173.6280  145.8370 C   0  0  0  0  0  2  0  0  0  0  0  0
  190.5890  176.3210  142.5530 O   0  0  0  0  0  0  0  0  0  0  0  0
  191.0340  175.0480  142.9130 C   0  0  1  0  0  3  0  0  0  0  0  0
  191.0550  174.1620  141.6810 C   0  0  1  0  0  3  0  0  0  0  0  0
  192.3430  174.7600  142.2110 C   0  0  0  0  0  2  0  0  0  0  0  0
  190.9690  172.6960  142.0950 C   0  0  1  0  0  3  0  0  0  0  0  0
  189.6270  172.3260  142.2180 O   0  0  0  0  0  1  0  0  0  0  0  0
  192.3460  172.5060  140.1420 O   0  0  0  0  0  1  0  0  0  0  0  0
  191.6840  171.7440  141.1170 C   0  0  1  0  0  0  0  0  0  0  0  0
  192.6890  170.8610  141.8780 C   0  0  0  0  0  2  0  0  0  0  0  0
  192.7220  170.0910  143.9460 C   0  0  0  0  0  1  0  0  0  0  0  0
  192.8210  171.2690  143.2070 O   0  0  0  0  0  0  0  0  0  0  0  0
  190.6890  170.9240  140.5260 O   0  0  0  0  0  0  0  0  0  0  0  0
  190.8990  170.8280  139.1360 C   0  0  1  0  0  3  0  0  0  0  0  0
  191.4170  169.5660  138.8390 O   0  0  0  0  0  1  0  0  0  0  0  0
  189.5750  171.0320  138.3970 C   0  0  0  0  0  3  0  0  0  0  0  0
  190.3570  172.2420  136.3370 C   0  0  0  0  0  2  0  0  0  0  0  0
  189.6130  173.5190  138.0380 C   0  0  0  0  0  2  0  0  0  0  0  0
  189.5140  173.3220  136.6500 O   0  0  0  0  0  0  0  0  0  0  0  0
  188.9230  172.3680  138.7760 C   0  0  0  0  0  2  0  0  0  0  0  0
  189.7600  170.9400  136.8770 C   0  0  0  0  0  2  0  0  0  0  0  0
  1  5  1  0  0  0  0
  1  7  2  0  0  0  0
  2 11  1  0  0  0  0
  3  7  1  1  0  0  0
  3 14  1  0  0  0  0
  4  1  1  0  0  0  0
  6  8  1  6  0  0  0
  6  3  1  0  0  0  0
  8  4  1  0  0  0  0
  9 13  1  0  0  0  0
  9 10  1  0  0  0  0
 10  6  1  0  0  0  0
 10  2  2  0  0  0  0
 11 14  1  0  0  0  0
 12  2  1  0  0  0  0
 12 15  1  1  0  0  0
 13 24  1  6  0  0  0
 13 12  1  0  0  0  0
 15 16  1  0  0  0  0
 17 20  1  0  0  0  0
 18 19  1  0  0  0  0
 18 23  1  0  0  0  0
 21 23  1  0  0  0  0
 21 16  1  0  0  0  0
 21 20  1  0  0  0  0
 22 19  1  0  0  0  0
 22 17  1  0  0  0  0
 25 24  1  6  0  0  0
 26 28  1  1  0  0  0
 26 27  1  0  0  0  0
 26 25  1  0  0  0  0
 27 25  1  0  0  0  0
 28 29  1  6  0  0  0
 31 30  1  6  0  0  0
 31 32  1  0  0  0  0
 31 28  1  0  0  0  0
 32 34  1  0  0  0  0
 34 33  1  0  0  0  0
 35 31  1  0  0  0  0
 36 37  1  1  0  0  0
 36 35  1  0  0  0  0
 38 42  1  0  0  0  0
 38 36  1  0  0  0  0
 39 41  1  0  0  0  0
 39 43  1  0  0  0  0
 40 42  1  0  0  0  0
 41 40  1  0  0  0  0
 43 38  1  0  0  0  0
M  END
>  <MODEL>
7

>  <REMARK>
 VINA RESULT:      -7.3      3.279      8.372
  Name = 
  12 active torsions:
  status: ('A' for Active; 'I' for Inactive)
    1  A    between atoms: C_1  and  O_28
    2  A    between atoms: C_1  and  C_34
    3  A    between atoms: C_2  and  O_13
    4  A    between atoms: C_4  and  C_12
    5  A    between atoms: C_4  and  C_15
    6  A    between atoms: C_4  and  O_22
    7  A    between atoms: C_6  and  C_12
    8  A    between atoms: C_11  and  C_14
    9  A    between atoms: O_13  and  C_38
   10  A    between atoms: C_14  and  O_22
   11  A    between atoms: C_15  and  O_42
   12  A    between atoms: O_28  and  C_35
                            x       y       z     vdW  Elec       q    Type
                         _______ _______ _______ _____ _____    ______ ____

>  <TORSDO>
F 12

$$$$
=
 OpenBabel11052421063D

 43 48  0  0  1  0  0  0  0  0999 V2000
  190.4890  171.7230  140.0910 C   0  0  0  0  0  0  0  0  0  0  0  0
  190.5280  174.3730  144.3540 C   0  0  0  0  0  0  0  0  0  0  0  0
  190.4050  172.4190  142.4650 C   0  0  2  0  0  3  0  0  0  0  0  0
  191.2250  172.9970  139.7110 C   0  0  0  0  0  2  0  0  0  0  0  0
  190.1470  170.8520  139.1080 F   0  0  0  0  0  0  0  0  0  0  0  0
  190.5380  173.8600  141.9550 C   0  0  2  0  0  3  0  0  0  0  0  0
  190.0460  171.4960  141.3400 C   0  0  0  0  0  3  0  0  0  0  0  0
  191.6400  173.8680  140.9080 C   0  0  0  0  0  2  0  0  0  0  0  0
  191.3220  176.0640  143.0630 N   0  0  0  0  0  2  0  0  0  0  0  0
  190.8370  174.7380  143.1300 C   0  0  0  0  0  0  0  0  0  0  0  0
  190.0750  172.9640  144.6540 C   0  0  0  0  0  2  0  0  0  0  0  0
  190.8870  175.4300  145.3330 C   0  0  1  0  0  3  0  0  0  0  0  0
  191.3830  176.5760  144.4300 C   0  0  1  0  0  3  0  0  0  0  0  0
  189.4700  172.3610  143.5210 O   0  0  0  0  0  0  0  0  0  0  0  0
  189.6490  175.8690  146.0970 C   0  0  0  0  0  2  0  0  0  0  0  0
  189.5470  177.2610  146.0790 O   0  0  0  0  0  0  0  0  0  0  0  0
  186.4600  178.4800  144.4720 C   0  0  0  0  0  2  0  0  0  0  0  0
  186.0800  176.8200  147.3360 C   0  0  0  0  0  2  0  0  0  0  0  0
  185.1400  177.1170  146.1730 C   0  0  0  0  0  2  0  0  0  0  0  0
  187.6490  177.5340  144.6630 C   0  0  0  0  0  2  0  0  0  0  0  0
  188.1750  177.5170  146.0950 C   0  0  0  0  0  3  0  0  0  0  0  0
  185.4380  178.4990  145.6130 C   0  0  0  0  0  2  0  0  0  0  0  0
  187.4700  176.4060  146.8650 C   0  0  0  0  0  2  0  0  0  0  0  0
  192.7040  176.8890  144.7560 O   0  0  0  0  0  0  0  0  0  0  0  0
  193.1520  175.8060  145.5130 C   0  0  1  0  0  3  0  0  0  0  0  0
  194.5360  175.4040  145.0360 C   0  0  1  0  0  3  0  0  0  0  0  0
  194.3740  176.2210  146.3030 C   0  0  0  0  0  2  0  0  0  0  0  0
  194.8070  173.9470  145.4040 C   0  0  1  0  0  3  0  0  0  0  0  0
  193.8190  173.1350  144.8440 O   0  0  0  0  0  1  0  0  0  0  0  0
  197.0410  174.5670  144.7900 O   0  0  0  0  0  1  0  0  0  0  0  0
  196.1990  173.4560  144.9590 C   0  0  1  0  0  0  0  0  0  0  0  0
  196.7830  172.4970  146.0110 C   0  0  0  0  0  2  0  0  0  0  0  0
  195.9890  170.4440  146.1620 C   0  0  0  0  0  1  0  0  0  0  0  0
  196.9420  171.2100  145.4930 O   0  0  0  0  0  0  0  0  0  0  0  0
  196.0280  172.7640  143.7330 O   0  0  0  0  0  0  0  0  0  0  0  0
  196.9490  173.2320  142.7760 C   0  0  1  0  0  3  0  0  0  0  0  0
  197.9410  172.2670  142.5880 O   0  0  0  0  0  1  0  0  0  0  0  0
  196.2300  173.5010  141.4530 C   0  0  0  0  0  3  0  0  0  0  0  0
  197.8230  175.1100  140.3600 C   0  0  0  0  0  2  0  0  0  0  0  0
  196.0940  176.0090  141.4910 C   0  0  0  0  0  2  0  0  0  0  0  0
  196.7980  176.0680  140.2760 O   0  0  0  0  0  0  0  0  0  0  0  0
  195.2900  174.7080  141.5630 C   0  0  0  0  0  2  0  0  0  0  0  0
  197.2250  173.7010  140.3030 C   0  0  0  0  0  2  0  0  0  0  0  0
  1  7  2  0  0  0  0
  2 11  1  0  0  0  0
  2 12  1  0  0  0  0
  3  7  1  6  0  0  0
  3 14  1  0  0  0  0
  4  1  1  0  0  0  0
  4  8  1  0  0  0  0
  5  1  1  0  0  0  0
  6  8  1  6  0  0  0
  6  3  1  0  0  0  0
  6 10  1  0  0  0  0
  9 10  1  0  0  0  0
  9 13  1  0  0  0  0
 10  2  2  0  0  0  0
 12 15  1  6  0  0  0
 13 24  1  1  0  0  0
 13 12  1  0  0  0  0
 14 11  1  0  0  0  0
 16 21  1  0  0  0  0
 16 15  1  0  0  0  0
 17 20  1  0  0  0  0
 17 22  1  0  0  0  0
 19 18  1  0  0  0  0
 20 21  1  0  0  0  0
 21 23  1  0  0  0  0
 22 19  1  0  0  0  0
 23 18  1  0  0  0  0
 25 24  1  6  0  0  0
 25 27  1  0  0  0  0
 26 28  1  1  0  0  0
 26 25  1  0  0  0  0
 26 27  1  0  0  0  0
 28 29  1  6  0  0  0
 31 30  1  6  0  0  0
 31 28  1  0  0  0  0
 31 32  1  0  0  0  0
 34 32  1  0  0  0  0
 34 33  1  0  0  0  0
 35 31  1  0  0  0  0
 36 37  1  6  0  0  0
 36 35  1  0  0  0  0
 38 42  1  0  0  0  0
 38 36  1  0  0  0  0
 40 42  1  0  0  0  0
 41 39  1  0  0  0  0
 41 40  1  0  0  0  0
 43 39  1  0  0  0  0
 43 38  1  0  0  0  0
M  END
>  <MODEL>
8

>  <REMARK>
 VINA RESULT:      -7.2      2.724      9.275
  Name = 
  12 active torsions:
  status: ('A' for Active; 'I' for Inactive)
    1  A    between atoms: C_1  and  O_28
    2  A    between atoms: C_1  and  C_34
    3  A    between atoms: C_2  and  O_13
    4  A    between atoms: C_4  and  C_12
    5  A    between atoms: C_4  and  C_15
    6  A    between atoms: C_4  and  O_22
    7  A    between atoms: C_6  and  C_12
    8  A    between atoms: C_11  and  C_14
    9  A    between atoms: O_13  and  C_38
   10  A    between atoms: C_14  and  O_22
   11  A    between atoms: C_15  and  O_42
   12  A    between atoms: O_28  and  C_35
                            x       y       z     vdW  Elec       q    Type
                         _______ _______ _______ _____ _____    ______ ____

>  <TORSDO>
F 12

$$$$
=
 OpenBabel11052421063D

 43 48  0  0  1  0  0  0  0  0999 V2000
  193.9200  175.3230  146.0460 C   0  0  0  0  0  0  0  0  0  0  0  0
  190.9280  172.8850  142.8360 C   0  0  0  0  0  0  0  0  0  0  0  0
  192.5370  173.6170  144.9040 C   0  0  2  0  0  3  0  0  0  0  0  0
  193.2090  176.4420  145.3030 C   0  0  0  0  0  2  0  0  0  0  0  0
  194.9430  175.6430  146.8770 F   0  0  0  0  0  0  0  0  0  0  0  0
  192.3380  174.6520  143.7900 C   0  0  2  0  0  3  0  0  0  0  0  0
  193.6630  174.0250  145.8050 C   0  0  0  0  0  3  0  0  0  0  0  0
  192.0120  175.9780  144.4570 C   0  0  0  0  0  2  0  0  0  0  0  0
  190.5540  174.9360  141.9360 N   0  0  0  0  0  2  0  0  0  0  0  0
  191.2450  174.1600  142.8940 C   0  0  0  0  0  0  0  0  0  0  0  0
  191.4890  171.8990  143.8330 C   0  0  0  0  0  2  0  0  0  0  0  0
  189.8460  172.6480  141.8470 C   0  0  1  0  0  3  0  0  0  0  0  0
  189.6420  174.0430  141.2250 C   0  0  1  0  0  3  0  0  0  0  0  0
  192.7370  172.3350  144.3490 O   0  0  0  0  0  0  0  0  0  0  0  0
  190.3210  171.6700  140.7860 C   0  0  0  0  0  2  0  0  0  0  0  0
  189.3420  171.5230  139.8020 O   0  0  0  0  0  0  0  0  0  0  0  0
  189.7000  171.2610  136.1410 C   0  0  0  0  0  2  0  0  0  0  0  0
  192.3760  170.4450  137.9510 C   0  0  0  0  0  2  0  0  0  0  0  0
  192.1940  170.8770  136.5000 C   0  0  0  0  0  2  0  0  0  0  0  0
  189.6380  171.9940  137.4850 C   0  0  0  0  0  2  0  0  0  0  0  0
  190.0410  171.1150  138.6640 C   0  0  0  0  0  3  0  0  0  0  0  0
  190.8900  170.3130  135.9580 C   0  0  0  0  0  2  0  0  0  0  0  0
  191.5360  171.2790  138.9120 C   0  0  0  0  0  2  0  0  0  0  0  0
  188.3240  174.4570  141.4310 O   0  0  0  0  0  0  0  0  0  0  0  0
  188.4340  175.6800  142.0950 C   0  0  1  0  0  3  0  0  0  0  0  0
  187.0440  176.2440  142.3310 C   0  0  1  0  0  3  0  0  0  0  0  0
  187.7930  175.5650  143.4610 C   0  0  0  0  0  2  0  0  0  0  0  0
  187.1230  177.7580  142.5080 C   0  0  1  0  0  3  0  0  0  0  0  0
  187.7400  178.3250  141.3910 O   0  0  0  0  0  1  0  0  0  0  0  0
  185.9410  179.7440  143.1480 O   0  0  0  0  0  1  0  0  0  0  0  0
  185.7480  178.4160  142.7340 C   0  0  1  0  0  0  0  0  0  0  0  0
  184.9220  178.3760  141.4360 C   0  0  0  0  0  2  0  0  0  0  0  0
  182.9210  178.2400  140.5140 C   0  0  0  0  0  1  0  0  0  0  0  0
  183.6240  177.9160  141.6730 O   0  0  0  0  0  0  0  0  0  0  0  0
  185.0830  177.6680  143.7390 O   0  0  0  0  0  0  0  0  0  0  0  0
  184.7830  178.4900  144.8420 C   0  0  1  0  0  3  0  0  0  0  0  0
  183.5100  179.0380  144.6700 O   0  0  0  0  0  1  0  0  0  0  0  0
  184.8230  177.6650  146.1300 C   0  0  0  0  0  3  0  0  0  0  0  0
  186.0800  179.2180  147.6560 C   0  0  0  0  0  2  0  0  0  0  0  0
  187.2910  177.6400  146.5990 C   0  0  0  0  0  2  0  0  0  0  0  0
  187.0620  178.2320  147.8520 O   0  0  0  0  0  0  0  0  0  0  0  0
  186.0820  176.7910  146.1960 C   0  0  0  0  0  2  0  0  0  0  0  0
  184.7270  178.5590  147.3730 C   0  0  0  0  0  2  0  0  0  0  0  0
  1  5  1  0  0  0  0
  2 10  2  0  0  0  0
  2 11  1  0  0  0  0
  3  7  1  6  0  0  0
  4  1  1  0  0  0  0
  6  8  1  1  0  0  0
  6  3  1  0  0  0  0
  7  1  2  0  0  0  0
  8  4  1  0  0  0  0
  9 10  1  0  0  0  0
 10  6  1  0  0  0  0
 11 14  1  0  0  0  0
 12 15  1  6  0  0  0
 12  2  1  0  0  0  0
 13 24  1  1  0  0  0
 13 12  1  0  0  0  0
 13  9  1  0  0  0  0
 14  3  1  0  0  0  0
 16 15  1  0  0  0  0
 17 20  1  0  0  0  0
 18 23  1  0  0  0  0
 19 18  1  0  0  0  0
 20 21  1  0  0  0  0
 21 23  1  0  0  0  0
 21 16  1  0  0  0  0
 22 17  1  0  0  0  0
 22 19  1  0  0  0  0
 25 24  1  6  0  0  0
 25 26  1  0  0  0  0
 25 27  1  0  0  0  0
 26 28  1  1  0  0  0
 26 27  1  0  0  0  0
 28 29  1  6  0  0  0
 28 31  1  0  0  0  0
 31 30  1  1  0  0  0
 31 35  1  0  0  0  0
 32 34  1  0  0  0  0
 32 31  1  0  0  0  0
 33 34  1  0  0  0  0
 35 36  1  0  0  0  0
 36 37  1  6  0  0  0
 36 38  1  0  0  0  0
 38 42  1  0  0  0  0
 38 43  1  0  0  0  0
 39 41  1  0  0  0  0
 40 41  1  0  0  0  0
 42 40  1  0  0  0  0
 43 39  1  0  0  0  0
M  END
>  <MODEL>
9

>  <REMARK>
 VINA RESULT:      -7.2      2.496      5.362
  Name = 
  12 active torsions:
  status: ('A' for Active; 'I' for Inactive)
    1  A    between atoms: C_1  and  O_28
    2  A    between atoms: C_1  and  C_34
    3  A    between atoms: C_2  and  O_13
    4  A    between atoms: C_4  and  C_12
    5  A    between atoms: C_4  and  C_15
    6  A    between atoms: C_4  and  O_22
    7  A    between atoms: C_6  and  C_12
    8  A    between atoms: C_11  and  C_14
    9  A    between atoms: O_13  and  C_38
   10  A    between atoms: C_14  and  O_22
   11  A    between atoms: C_15  and  O_42
   12  A    between atoms: O_28  and  C_35
                            x       y       z     vdW  Elec       q    Type
                         _______ _______ _______ _____ _____    ______ ____

>  <TORSDO>
F 12

$$$$
