=
 OpenBabel11052418193D

 27 31  0  0  0  0  0  0  0  0999 V2000
  189.2180  176.4880  145.7250 C   0  0  0  0  0  3  0  0  0  0  0  0
  190.1660  175.2840  143.7640 C   0  0  0  0  0  0  0  0  0  0  0  0
  188.2960  176.7160  142.8850 N   0  0  0  0  0  0  0  0  0  0  0  0
  189.7720  173.1380  140.2700 N   0  0  0  0  0  0  0  0  0  0  0  0
  188.1980  173.6280  138.4690 N   0  0  0  0  0  1  0  0  0  0  0  0
  191.0030  174.1530  143.5730 C   0  0  0  0  0  3  0  0  0  0  0  0
  188.4010  174.9310  140.5270 N   0  0  0  0  0  0  0  0  0  0  0  0
  185.9290  178.7250  144.6540 C   0  0  0  0  0  0  0  0  0  0  0  0
  187.3660  175.9120  140.2400 C   0  0  0  0  0  1  0  0  0  0  0  0
  184.5970  179.7910  144.2630 Cl  0  0  0  0  0  0  0  0  0  0  0  0
  189.1860  174.8290  141.6150 C   0  0  0  0  0  0  0  0  0  0  0  0
  190.3420  176.0880  144.9370 N   0  0  0  0  0  0  0  0  0  0  0  0
  188.7820  173.8990  139.7400 C   0  0  0  0  0  0  0  0  0  0  0  0
  190.0050  173.7460  141.4490 C   0  0  0  0  0  0  0  0  0  0  0  0
  188.0920  177.0420  145.2760 C   0  0  0  0  0  0  0  0  0  0  0  0
  189.2140  175.6210  142.7750 C   0  0  0  0  0  0  0  0  0  0  0  0
  186.7180  178.1920  143.6360 C   0  0  0  0  0  3  0  0  0  0  0  0
  190.9270  173.3680  142.4130 C   0  0  0  0  0  3  0  0  0  0  0  0
  186.1720  178.3680  145.9760 C   0  0  0  0  0  3  0  0  0  0  0  0
  187.2520  177.5410  146.2810 C   0  0  0  0  0  3  0  0  0  0  0  0
  187.7790  177.3200  143.9150 C   0  0  0  0  0  0  0  0  0  0  0  0
  194.2330  176.7570  146.4630 C   0  0  0  0  0  3  0  0  0  0  0  0
  191.6630  176.3300  145.4730 C   0  0  0  0  0  0  0  0  0  0  0  0
  192.6520  176.9650  144.7040 C   0  0  0  0  0  3  0  0  0  0  0  0
  193.8980  177.1660  145.2100 N   0  0  0  0  0  0  0  0  0  0  0  0
  193.2900  176.1110  147.2630 C   0  0  0  0  0  3  0  0  0  0  0  0
  192.0050  175.8960  146.7630 C   0  0  0  0  0  3  0  0  0  0  0  0
  2 12  1  0  0  0  0
  3 21  2  0  0  0  0
  4 14  1  0  0  0  0
  5 13  1  0  0  0  0
  6  2  1  0  0  0  0
  7 11  1  0  0  0  0
  8 19  1  0  0  0  0
  9  7  1  0  0  0  0
 10  8  1  0  0  0  0
 11 16  1  0  0  0  0
 12 23  1  0  0  0  0
 12  1  1  0  0  0  0
 13  4  2  0  0  0  0
 13  7  1  0  0  0  0
 14 11  2  0  0  0  0
 14 18  1  0  0  0  0
 15  1  2  0  0  0  0
 15 20  1  0  0  0  0
 16  3  1  0  0  0  0
 16  2  2  0  0  0  0
 17 21  1  0  0  0  0
 17  8  2  0  0  0  0
 18  6  2  0  0  0  0
 19 20  2  0  0  0  0
 21 15  1  0  0  0  0
 22 26  1  0  0  0  0
 23 27  1  0  0  0  0
 24 25  1  0  0  0  0
 24 23  2  0  0  0  0
 25 22  2  0  0  0  0
 27 26  2  0  0  0  0
M  END
>  <MODEL>
1

>  <REMARK>
 VINA RESULT:      -7.6      0.000      0.000
  Name = 
  1 active torsions:
  status: ('A' for Active; 'I' for Inactive)
    1  A    between atoms: C_9  and  N_15
                            x       y       z     vdW  Elec       q    Type
                         _______ _______ _______ _____ _____    ______ ____

>  <TORSDO>
F 1

$$$$
=
 OpenBabel11052418193D

 27 31  0  0  0  0  0  0  0  0999 V2000
  189.1040  177.3680  144.8870 C   0  0  0  0  0  3  0  0  0  0  0  0
  187.7510  176.8210  142.8710 C   0  0  0  0  0  0  0  0  0  0  0  0
  189.4260  174.9650  143.1300 N   0  0  0  0  0  0  0  0  0  0  0  0
  187.3790  175.5470  138.9720 N   0  0  0  0  0  0  0  0  0  0  0  0
  188.5570  173.6560  137.9740 N   0  0  0  0  0  1  0  0  0  0  0  0
  186.8720  177.5340  142.0130 C   0  0  0  0  0  3  0  0  0  0  0  0
  188.8060  174.3770  140.2970 N   0  0  0  0  0  0  0  0  0  0  0  0
  192.1430  174.6390  145.4280 C   0  0  0  0  0  0  0  0  0  0  0  0
  189.7770  173.3760  140.7090 C   0  0  0  0  0  1  0  0  0  0  0  0
  193.3840  173.4620  145.7960 Cl  0  0  0  0  0  0  0  0  0  0  0  0
  188.2600  175.3690  141.0220 C   0  0  0  0  0  0  0  0  0  0  0  0
  187.8350  177.2010  144.2500 N   0  0  0  0  0  0  0  0  0  0  0  0
  188.2520  174.5140  139.0700 C   0  0  0  0  0  0  0  0  0  0  0  0
  187.4040  176.0670  140.2140 C   0  0  0  0  0  0  0  0  0  0  0  0
  190.1240  176.5100  144.8590 C   0  0  0  0  0  0  0  0  0  0  0  0
  188.4850  175.7260  142.3620 C   0  0  0  0  0  0  0  0  0  0  0  0
  191.1510  174.3390  144.4950 C   0  0  0  0  0  3  0  0  0  0  0  0
  186.6940  177.1660  140.6720 C   0  0  0  0  0  3  0  0  0  0  0  0
  192.1710  175.8940  146.0280 C   0  0  0  0  0  3  0  0  0  0  0  0
  191.1620  176.8140  145.7510 C   0  0  0  0  0  3  0  0  0  0  0  0
  190.1550  175.2670  144.1640 C   0  0  0  0  0  0  0  0  0  0  0  0
  184.4220  178.5120  146.3830 C   0  0  0  0  0  3  0  0  0  0  0  0
  186.6570  177.6370  144.9670 C   0  0  0  0  0  0  0  0  0  0  0  0
  186.2220  178.9700  144.9050 C   0  0  0  0  0  3  0  0  0  0  0  0
  185.1270  179.3740  145.6020 N   0  0  0  0  0  0  0  0  0  0  0  0
  184.8190  177.1790  146.4870 C   0  0  0  0  0  3  0  0  0  0  0  0
  185.9400  176.7450  145.7790 C   0  0  0  0  0  3  0  0  0  0  0  0
  2 12  1  0  0  0  0
  3 21  2  0  0  0  0
  4 13  2  0  0  0  0
  4 14  1  0  0  0  0
  5 13  1  0  0  0  0
  6  2  2  0  0  0  0
  7  9  1  0  0  0  0
  7 11  1  0  0  0  0
  8 10  1  0  0  0  0
  8 19  1  0  0  0  0
 11 16  2  0  0  0  0
 12  1  1  0  0  0  0
 12 23  1  0  0  0  0
 13  7  1  0  0  0  0
 14 18  2  0  0  0  0
 14 11  1  0  0  0  0
 15  1  2  0  0  0  0
 15 20  1  0  0  0  0
 16  2  1  0  0  0  0
 16  3  1  0  0  0  0
 17  8  2  0  0  0  0
 18  6  1  0  0  0  0
 20 19  2  0  0  0  0
 21 17  1  0  0  0  0
 21 15  1  0  0  0  0
 22 26  1  0  0  0  0
 23 27  1  0  0  0  0
 24 23  2  0  0  0  0
 24 25  1  0  0  0  0
 25 22  2  0  0  0  0
 27 26  2  0  0  0  0
M  END
>  <MODEL>
2

>  <REMARK>
 VINA RESULT:      -7.5      2.663      5.381
  Name = 
  1 active torsions:
  status: ('A' for Active; 'I' for Inactive)
    1  A    between atoms: C_9  and  N_15
                            x       y       z     vdW  Elec       q    Type
                         _______ _______ _______ _____ _____    ______ ____

>  <TORSDO>
F 1

$$$$
=
 OpenBabel11052418193D

 27 31  0  0  0  0  0  0  0  0999 V2000
  188.0020  175.8470  144.4100 C   0  0  0  0  0  3  0  0  0  0  0  0
  189.5330  174.2010  143.3410 C   0  0  0  0  0  0  0  0  0  0  0  0
  188.3150  175.3590  141.4720 N   0  0  0  0  0  0  0  0  0  0  0  0
  190.3580  171.2530  140.5840 N   0  0  0  0  0  0  0  0  0  0  0  0
  189.6870  171.2720  138.2380 N   0  0  0  0  0  1  0  0  0  0  0  0
  190.2630  173.0630  143.7740 C   0  0  0  0  0  3  0  0  0  0  0  0
  189.1770  173.0460  139.8400 N   0  0  0  0  0  0  0  0  0  0  0  0
  185.6440  177.7290  141.6050 C   0  0  0  0  0  0  0  0  0  0  0  0
  188.4420  173.9190  138.9380 C   0  0  0  0  0  1  0  0  0  0  0  0
  184.6880  178.6570  140.4710 Cl  0  0  0  0  0  0  0  0  0  0  0  0
  189.4510  173.2220  141.1460 C   0  0  0  0  0  0  0  0  0  0  0  0
  189.3030  175.2720  144.2650 N   0  0  0  0  0  0  0  0  0  0  0  0
  189.7400  171.8540  139.5370 C   0  0  0  0  0  0  0  0  0  0  0  0
  190.1600  172.1360  141.5830 C   0  0  0  0  0  0  0  0  0  0  0  0
  187.2070  176.2660  143.4260 C   0  0  0  0  0  0  0  0  0  0  0  0
  189.0910  174.2760  142.0010 C   0  0  0  0  0  0  0  0  0  0  0  0
  186.7180  176.9650  141.1510 C   0  0  0  0  0  3  0  0  0  0  0  0
  190.5800  172.0140  142.8980 C   0  0  0  0  0  3  0  0  0  0  0  0
  185.3050  177.7130  142.9540 C   0  0  0  0  0  3  0  0  0  0  0  0
  186.0890  176.9940  143.8540 C   0  0  0  0  0  3  0  0  0  0  0  0
  187.4910  176.1960  142.0320 C   0  0  0  0  0  0  0  0  0  0  0  0
  192.3130  176.3290  147.0470 C   0  0  0  0  0  3  0  0  0  0  0  0
  190.3180  175.6460  145.2250 C   0  0  0  0  0  0  0  0  0  0  0  0
  191.4960  176.2940  144.8180 C   0  0  0  0  0  3  0  0  0  0  0  0
  192.4540  176.6200  145.7260 N   0  0  0  0  0  0  0  0  0  0  0  0
  191.1670  175.6770  147.5000 C   0  0  0  0  0  3  0  0  0  0  0  0
  190.1710  175.3340  146.5850 C   0  0  0  0  0  3  0  0  0  0  0  0
  2  6  1  0  0  0  0
  2 12  1  0  0  0  0
  3 16  1  0  0  0  0
  3 21  2  0  0  0  0
  4 14  1  0  0  0  0
  5 13  1  0  0  0  0
  7 11  1  0  0  0  0
  8 19  1  0  0  0  0
  9  7  1  0  0  0  0
 10  8  1  0  0  0  0
 11 14  2  0  0  0  0
 11 16  1  0  0  0  0
 12  1  1  0  0  0  0
 12 23  1  0  0  0  0
 13  7  1  0  0  0  0
 13  4  2  0  0  0  0
 14 18  1  0  0  0  0
 15 20  1  0  0  0  0
 15  1  2  0  0  0  0
 16  2  2  0  0  0  0
 17  8  2  0  0  0  0
 17 21  1  0  0  0  0
 18  6  2  0  0  0  0
 19 20  2  0  0  0  0
 21 15  1  0  0  0  0
 22 26  1  0  0  0  0
 23 27  1  0  0  0  0
 24 23  2  0  0  0  0
 24 25  1  0  0  0  0
 25 22  2  0  0  0  0
 27 26  2  0  0  0  0
M  END
>  <MODEL>
3

>  <REMARK>
 VINA RESULT:      -7.3      1.678      2.215
  Name = 
  1 active torsions:
  status: ('A' for Active; 'I' for Inactive)
    1  A    between atoms: C_9  and  N_15
                            x       y       z     vdW  Elec       q    Type
                         _______ _______ _______ _____ _____    ______ ____

>  <TORSDO>
F 1

$$$$
=
 OpenBabel11052418193D

 27 31  0  0  0  0  0  0  0  0999 V2000
  187.9130  174.7140  142.5010 C   0  0  0  0  0  3  0  0  0  0  0  0
  189.1480  175.9860  144.2490 C   0  0  0  0  0  0  0  0  0  0  0  0
  190.8810  175.0710  142.6740 N   0  0  0  0  0  0  0  0  0  0  0  0
  192.2410  176.4160  146.9360 N   0  0  0  0  0  0  0  0  0  0  0  0
  194.5800  175.8650  146.5130 N   0  0  0  0  0  1  0  0  0  0  0  0
  188.8480  176.4890  145.5420 C   0  0  0  0  0  3  0  0  0  0  0  0
  192.7760  175.5960  144.8860 N   0  0  0  0  0  0  0  0  0  0  0  0
  190.5080  172.8450  139.9040 C   0  0  0  0  0  0  0  0  0  0  0  0
  193.5750  175.0630  143.7940 C   0  0  0  0  0  1  0  0  0  0  0  0
  191.5350  172.1140  138.6910 Cl  0  0  0  0  0  0  0  0  0  0  0  0
  191.4520  175.8360  144.9220 C   0  0  0  0  0  0  0  0  0  0  0  0
  188.1000  175.9020  143.2750 N   0  0  0  0  0  0  0  0  0  0  0  0
  193.2160  175.9580  146.1130 C   0  0  0  0  0  0  0  0  0  0  0  0
  191.1420  176.3270  146.1610 C   0  0  0  0  0  0  0  0  0  0  0  0
  188.8540  174.0480  141.8320 C   0  0  0  0  0  0  0  0  0  0  0  0
  190.4780  175.6240  143.9330 C   0  0  0  0  0  0  0  0  0  0  0  0
  191.0300  173.7910  140.7850 C   0  0  0  0  0  3  0  0  0  0  0  0
  189.8440  176.6600  146.5150 C   0  0  0  0  0  3  0  0  0  0  0  0
  189.1800  172.4470  140.0260 C   0  0  0  0  0  3  0  0  0  0  0  0
  188.3610  173.0540  140.9760 C   0  0  0  0  0  3  0  0  0  0  0  0
  190.2380  174.3780  141.7800 C   0  0  0  0  0  0  0  0  0  0  0  0
  185.1440  178.9270  143.0990 C   0  0  0  0  0  3  0  0  0  0  0  0
  187.0770  176.9220  143.2060 C   0  0  0  0  0  0  0  0  0  0  0  0
  187.2570  178.0770  142.4280 C   0  0  0  0  0  3  0  0  0  0  0  0
  186.2990  179.0410  142.3890 N   0  0  0  0  0  0  0  0  0  0  0  0
  184.9210  177.8030  143.8950 C   0  0  0  0  0  3  0  0  0  0  0  0
  185.8920  176.8030  143.9480 C   0  0  0  0  0  3  0  0  0  0  0  0
  1 12  1  0  0  0  0
  2  6  1  0  0  0  0
  3 16  1  0  0  0  0
  6 18  2  0  0  0  0
  7 11  1  0  0  0  0
  7 13  1  0  0  0  0
  8 19  1  0  0  0  0
  8 17  2  0  0  0  0
  9  7  1  0  0  0  0
 10  8  1  0  0  0  0
 11 14  2  0  0  0  0
 12  2  1  0  0  0  0
 13  5  1  0  0  0  0
 13  4  2  0  0  0  0
 14 18  1  0  0  0  0
 14  4  1  0  0  0  0
 15  1  2  0  0  0  0
 16  2  2  0  0  0  0
 16 11  1  0  0  0  0
 17 21  1  0  0  0  0
 19 20  2  0  0  0  0
 20 15  1  0  0  0  0
 21 15  1  0  0  0  0
 21  3  2  0  0  0  0
 22 26  1  0  0  0  0
 23 12  1  0  0  0  0
 23 27  1  0  0  0  0
 24 23  2  0  0  0  0
 25 24  1  0  0  0  0
 25 22  2  0  0  0  0
 26 27  2  0  0  0  0
M  END
>  <MODEL>
4

>  <REMARK>
 VINA RESULT:      -7.2      2.966      6.794
  Name = 
  1 active torsions:
  status: ('A' for Active; 'I' for Inactive)
    1  A    between atoms: C_9  and  N_15
                            x       y       z     vdW  Elec       q    Type
                         _______ _______ _______ _____ _____    ______ ____

>  <TORSDO>
F 1

$$$$
=
 OpenBabel11052418193D

 27 31  0  0  0  0  0  0  0  0999 V2000
  191.2380  174.3450  145.5730 C   0  0  0  0  0  3  0  0  0  0  0  0
  191.5930  173.9620  143.1390 C   0  0  0  0  0  0  0  0  0  0  0  0
  189.5250  175.3760  143.3440 N   0  0  0  0  0  0  0  0  0  0  0  0
  190.2310  173.0370  139.3630 N   0  0  0  0  0  0  0  0  0  0  0  0
  188.1930  173.9010  138.3340 N   0  0  0  0  0  1  0  0  0  0  0  0
  192.3560  173.0580  142.3540 C   0  0  0  0  0  3  0  0  0  0  0  0
  188.9660  174.4790  140.5800 N   0  0  0  0  0  0  0  0  0  0  0  0
  187.7440  176.4160  146.2630 C   0  0  0  0  0  0  0  0  0  0  0  0
  187.8770  175.3740  140.9370 C   0  0  0  0  0  1  0  0  0  0  0  0
  186.3390  177.3900  146.6350 Cl  0  0  0  0  0  0  0  0  0  0  0  0
  190.0360  174.1200  141.3130 C   0  0  0  0  0  0  0  0  0  0  0  0
  192.0900  174.3550  144.4240 N   0  0  0  0  0  0  0  0  0  0  0  0
  189.1180  173.8100  139.4150 C   0  0  0  0  0  0  0  0  0  0  0  0
  190.7890  173.2520  140.5710 C   0  0  0  0  0  0  0  0  0  0  0  0
  190.0210  174.8820  145.6630 C   0  0  0  0  0  0  0  0  0  0  0  0
  190.3880  174.4900  142.6210 C   0  0  0  0  0  0  0  0  0  0  0  0
  188.2110  176.3360  144.9510 C   0  0  0  0  0  3  0  0  0  0  0  0
  191.9570  172.6890  141.0610 C   0  0  0  0  0  3  0  0  0  0  0  0
  188.3680  175.6780  147.2640 C   0  0  0  0  0  3  0  0  0  0  0  0
  189.5030  174.9280  146.9640 C   0  0  0  0  0  3  0  0  0  0  0  0
  189.3210  175.5490  144.6180 C   0  0  0  0  0  0  0  0  0  0  0  0
  196.2440  174.9440  144.9800 C   0  0  0  0  0  3  0  0  0  0  0  0
  193.5060  174.5600  144.6350 C   0  0  0  0  0  0  0  0  0  0  0  0
  194.1770  175.6420  144.0440 C   0  0  0  0  0  3  0  0  0  0  0  0
  195.5140  175.8110  144.2300 N   0  0  0  0  0  0  0  0  0  0  0  0
  195.6260  173.8460  145.5800 C   0  0  0  0  0  3  0  0  0  0  0  0
  194.2560  173.6560  145.4030 C   0  0  0  0  0  3  0  0  0  0  0  0
  1 15  2  0  0  0  0
  2 12  1  0  0  0  0
  3 21  2  0  0  0  0
  4 13  2  0  0  0  0
  4 14  1  0  0  0  0
  5 13  1  0  0  0  0
  6  2  2  0  0  0  0
  7  9  1  0  0  0  0
  7 11  1  0  0  0  0
  8 10  1  0  0  0  0
  8 19  1  0  0  0  0
 11 16  2  0  0  0  0
 12 23  1  0  0  0  0
 12  1  1  0  0  0  0
 13  7  1  0  0  0  0
 14 18  2  0  0  0  0
 14 11  1  0  0  0  0
 15 20  1  0  0  0  0
 16  2  1  0  0  0  0
 16  3  1  0  0  0  0
 17  8  2  0  0  0  0
 18  6  1  0  0  0  0
 20 19  2  0  0  0  0
 21 17  1  0  0  0  0
 21 15  1  0  0  0  0
 22 26  1  0  0  0  0
 23 27  1  0  0  0  0
 24 25  1  0  0  0  0
 24 23  2  0  0  0  0
 25 22  2  0  0  0  0
 27 26  2  0  0  0  0
M  END
>  <MODEL>
5

>  <REMARK>
 VINA RESULT:      -7.1      1.951      2.471
  Name = 
  1 active torsions:
  status: ('A' for Active; 'I' for Inactive)
    1  A    between atoms: C_9  and  N_15
                            x       y       z     vdW  Elec       q    Type
                         _______ _______ _______ _____ _____    ______ ____

>  <TORSDO>
F 1

$$$$
=
 OpenBabel11052418193D

 27 31  0  0  0  0  0  0  0  0999 V2000
  187.9520  176.0380  141.7920 C   0  0  0  0  0  3  0  0  0  0  0  0
  190.2340  175.4460  142.5910 C   0  0  0  0  0  0  0  0  0  0  0  0
  188.9050  176.0750  144.6300 N   0  0  0  0  0  0  0  0  0  0  0  0
  193.5670  176.1230  144.9150 N   0  0  0  0  0  0  0  0  0  0  0  0
  193.5530  176.7910  147.2630 N   0  0  0  0  0  1  0  0  0  0  0  0
  191.5120  175.2910  141.9920 C   0  0  0  0  0  3  0  0  0  0  0  0
  191.5490  176.3970  145.9210 N   0  0  0  0  0  0  0  0  0  0  0  0
  185.5920  177.3900  144.8870 C   0  0  0  0  0  0  0  0  0  0  0  0
  190.5640  176.6900  146.9500 C   0  0  0  0  0  1  0  0  0  0  0  0
  184.4900  177.8640  146.1600 Cl  0  0  0  0  0  0  0  0  0  0  0  0
  191.3470  176.0310  144.6420 C   0  0  0  0  0  0  0  0  0  0  0  0
  189.0650  175.1400  141.8220 N   0  0  0  0  0  0  0  0  0  0  0  0
  192.8950  176.4400  146.0490 C   0  0  0  0  0  0  0  0  0  0  0  0
  192.5680  175.8710  144.0470 C   0  0  0  0  0  0  0  0  0  0  0  0
  187.3520  176.5920  142.8460 C   0  0  0  0  0  0  0  0  0  0  0  0
  190.1420  175.8510  143.9430 C   0  0  0  0  0  0  0  0  0  0  0  0
  186.8090  176.7890  145.2050 C   0  0  0  0  0  3  0  0  0  0  0  0
  192.6950  175.5080  142.7150 C   0  0  0  0  0  3  0  0  0  0  0  0
  185.2800  177.6560  143.5570 C   0  0  0  0  0  3  0  0  0  0  0  0
  186.1510  177.2500  142.5480 C   0  0  0  0  0  3  0  0  0  0  0  0
  187.7220  176.4160  144.2090 C   0  0  0  0  0  0  0  0  0  0  0  0
  189.1280  171.9050  139.0940 C   0  0  0  0  0  3  0  0  0  0  0  0
  189.0650  174.0340  140.8900 C   0  0  0  0  0  0  0  0  0  0  0  0
  189.6070  172.7890  141.2440 C   0  0  0  0  0  3  0  0  0  0  0  0
  189.6240  171.7630  140.3520 N   0  0  0  0  0  0  0  0  0  0  0  0
  188.5880  173.1260  138.6890 C   0  0  0  0  0  3  0  0  0  0  0  0
  188.5610  174.1900  139.5900 C   0  0  0  0  0  3  0  0  0  0  0  0
  1 12  1  0  0  0  0
  1 15  2  0  0  0  0
  2 16  1  0  0  0  0
  4 13  2  0  0  0  0
  6  2  2  0  0  0  0
  6 18  1  0  0  0  0
  7 13  1  0  0  0  0
  7  9  1  0  0  0  0
  8 17  2  0  0  0  0
  8 10  1  0  0  0  0
 11  7  1  0  0  0  0
 12  2  1  0  0  0  0
 13  5  1  0  0  0  0
 14 11  1  0  0  0  0
 14  4  1  0  0  0  0
 15 21  1  0  0  0  0
 16  3  1  0  0  0  0
 16 11  2  0  0  0  0
 18 14  2  0  0  0  0
 19  8  1  0  0  0  0
 20 15  1  0  0  0  0
 20 19  2  0  0  0  0
 21  3  2  0  0  0  0
 21 17  1  0  0  0  0
 22 25  1  0  0  0  0
 23 24  1  0  0  0  0
 23 12  1  0  0  0  0
 25 24  2  0  0  0  0
 26 22  2  0  0  0  0
 26 27  1  0  0  0  0
 27 23  2  0  0  0  0
M  END
>  <MODEL>
6

>  <REMARK>
 VINA RESULT:      -7.1      1.535      5.657
  Name = 
  1 active torsions:
  status: ('A' for Active; 'I' for Inactive)
    1  A    between atoms: C_9  and  N_15
                            x       y       z     vdW  Elec       q    Type
                         _______ _______ _______ _____ _____    ______ ____

>  <TORSDO>
F 1

$$$$
=
 OpenBabel11052418193D

 27 31  0  0  0  0  0  0  0  0999 V2000
  187.7350  176.3010  140.9520 C   0  0  0  0  0  3  0  0  0  0  0  0
  189.5090  175.4910  142.4990 C   0  0  0  0  0  0  0  0  0  0  0  0
  187.6700  176.4140  143.9430 N   0  0  0  0  0  0  0  0  0  0  0  0
  191.9220  175.9140  145.8100 N   0  0  0  0  0  0  0  0  0  0  0  0
  191.2090  176.7360  147.9950 N   0  0  0  0  0  1  0  0  0  0  0  0
  190.8800  175.1410  142.3790 C   0  0  0  0  0  3  0  0  0  0  0  0
  189.7410  176.4990  146.0550 N   0  0  0  0  0  0  0  0  0  0  0  0
  184.6800  178.1370  143.0170 C   0  0  0  0  0  0  0  0  0  0  0  0
  188.5170  176.9800  146.6770 C   0  0  0  0  0  1  0  0  0  0  0  0
  183.2890  178.8270  143.8220 Cl  0  0  0  0  0  0  0  0  0  0  0  0
  189.9340  176.0740  144.7930 C   0  0  0  0  0  0  0  0  0  0  0  0
  188.6370  175.2780  141.3820 N   0  0  0  0  0  0  0  0  0  0  0  0
  190.9570  176.3870  146.6370 C   0  0  0  0  0  0  0  0  0  0  0  0
  191.2500  175.7270  144.6570 C   0  0  0  0  0  0  0  0  0  0  0  0
  186.8970  176.9940  141.7220 C   0  0  0  0  0  0  0  0  0  0  0  0
  189.0230  175.9950  143.7270 C   0  0  0  0  0  0  0  0  0  0  0  0
  185.6230  177.4150  143.7470 C   0  0  0  0  0  3  0  0  0  0  0  0
  191.7670  175.2610  143.4580 C   0  0  0  0  0  3  0  0  0  0  0  0
  184.8740  178.3480  141.6550 C   0  0  0  0  0  3  0  0  0  0  0  0
  185.9690  177.7710  141.0160 C   0  0  0  0  0  3  0  0  0  0  0  0
  186.7580  176.8670  143.1340 C   0  0  0  0  0  0  0  0  0  0  0  0
  189.1750  171.8910  138.9010 C   0  0  0  0  0  3  0  0  0  0  0  0
  188.8000  174.1190  140.5320 C   0  0  0  0  0  0  0  0  0  0  0  0
  189.3420  172.9240  141.0310 C   0  0  0  0  0  3  0  0  0  0  0  0
  189.5120  171.8490  140.2170 N   0  0  0  0  0  0  0  0  0  0  0  0
  188.6420  173.0580  138.3530 C   0  0  0  0  0  3  0  0  0  0  0  0
  188.4590  174.1720  139.1710 C   0  0  0  0  0  3  0  0  0  0  0  0
  1 12  1  0  0  0  0
  1 15  2  0  0  0  0
  2 16  1  0  0  0  0
  4 13  2  0  0  0  0
  6  2  2  0  0  0  0
  6 18  1  0  0  0  0
  7 13  1  0  0  0  0
  7  9  1  0  0  0  0
  8 17  2  0  0  0  0
  8 10  1  0  0  0  0
 11  7  1  0  0  0  0
 12  2  1  0  0  0  0
 13  5  1  0  0  0  0
 14 11  1  0  0  0  0
 14  4  1  0  0  0  0
 15 21  1  0  0  0  0
 16  3  1  0  0  0  0
 16 11  2  0  0  0  0
 18 14  2  0  0  0  0
 19  8  1  0  0  0  0
 20 19  2  0  0  0  0
 20 15  1  0  0  0  0
 21 17  1  0  0  0  0
 21  3  2  0  0  0  0
 22 25  1  0  0  0  0
 23 24  1  0  0  0  0
 23 12  1  0  0  0  0
 25 24  2  0  0  0  0
 26 22  2  0  0  0  0
 26 27  1  0  0  0  0
 27 23  2  0  0  0  0
M  END
>  <MODEL>
7

>  <REMARK>
 VINA RESULT:      -7.1      1.662      5.732
  Name = 
  1 active torsions:
  status: ('A' for Active; 'I' for Inactive)
    1  A    between atoms: C_9  and  N_15
                            x       y       z     vdW  Elec       q    Type
                         _______ _______ _______ _____ _____    ______ ____

>  <TORSDO>
F 1

$$$$
=
 OpenBabel11052418193D

 27 31  0  0  0  0  0  0  0  0999 V2000
  189.6770  174.0120  143.7980 C   0  0  0  0  0  3  0  0  0  0  0  0
  191.4060  175.6140  144.5970 C   0  0  0  0  0  0  0  0  0  0  0  0
  192.0360  175.0010  142.2420 N   0  0  0  0  0  0  0  0  0  0  0  0
  195.3160  176.8420  145.0110 N   0  0  0  0  0  0  0  0  0  0  0  0
  197.0200  176.7790  143.2640 N   0  0  0  0  0  1  0  0  0  0  0  0
  191.8220  176.1140  145.8590 C   0  0  0  0  0  3  0  0  0  0  0  0
  194.7080  176.0400  142.9740 N   0  0  0  0  0  0  0  0  0  0  0  0
  190.5820  172.5930  140.0380 C   0  0  0  0  0  0  0  0  0  0  0  0
  194.8070  175.6290  141.5820 C   0  0  0  0  0  1  0  0  0  0  0  0
  190.8300  172.0310  138.4000 Cl  0  0  0  0  0  0  0  0  0  0  0  0
  193.6400  175.9960  143.7920 C   0  0  0  0  0  0  0  0  0  0  0  0
  190.0320  175.2540  144.4110 N   0  0  0  0  0  0  0  0  0  0  0  0
  195.6960  176.5570  143.7410 C   0  0  0  0  0  0  0  0  0  0  0  0
  194.0190  176.4790  145.0140 C   0  0  0  0  0  0  0  0  0  0  0  0
  190.1610  173.5250  142.6560 C   0  0  0  0  0  0  0  0  0  0  0  0
  192.3410  175.5260  143.5400 C   0  0  0  0  0  0  0  0  0  0  0  0
  191.3120  173.6770  140.5230 C   0  0  0  0  0  3  0  0  0  0  0  0
  193.1370  176.5470  146.0820 C   0  0  0  0  0  3  0  0  0  0  0  0
  189.6910  171.9290  140.8760 C   0  0  0  0  0  3  0  0  0  0  0  0
  189.4780  172.4010  142.1700 C   0  0  0  0  0  3  0  0  0  0  0  0
  191.1500  174.1380  141.8360 C   0  0  0  0  0  0  0  0  0  0  0  0
  186.9880  177.5650  146.2300 C   0  0  0  0  0  3  0  0  0  0  0  0
  188.9780  176.0270  145.0310 C   0  0  0  0  0  0  0  0  0  0  0  0
  188.4700  177.1830  144.4160 C   0  0  0  0  0  3  0  0  0  0  0  0
  187.4970  177.9160  145.0190 N   0  0  0  0  0  0  0  0  0  0  0  0
  187.4660  176.4320  146.8880 C   0  0  0  0  0  3  0  0  0  0  0  0
  188.4640  175.6660  146.2860 C   0  0  0  0  0  3  0  0  0  0  0  0
  1 12  1  0  0  0  0
  2  6  1  0  0  0  0
  3 16  1  0  0  0  0
  4 14  1  0  0  0  0
  5 13  1  0  0  0  0
  6 18  2  0  0  0  0
  7 13  1  0  0  0  0
  7 11  1  0  0  0  0
  8 17  2  0  0  0  0
  8 19  1  0  0  0  0
  9  7  1  0  0  0  0
 10  8  1  0  0  0  0
 11 14  2  0  0  0  0
 12  2  1  0  0  0  0
 12 23  1  0  0  0  0
 13  4  2  0  0  0  0
 14 18  1  0  0  0  0
 15  1  2  0  0  0  0
 16 11  1  0  0  0  0
 16  2  2  0  0  0  0
 17 21  1  0  0  0  0
 19 20  2  0  0  0  0
 20 15  1  0  0  0  0
 21  3  2  0  0  0  0
 21 15  1  0  0  0  0
 22 26  1  0  0  0  0
 23 27  1  0  0  0  0
 24 25  1  0  0  0  0
 24 23  2  0  0  0  0
 25 22  2  0  0  0  0
 27 26  2  0  0  0  0
M  END
>  <MODEL>
8

>  <REMARK>
 VINA RESULT:      -7.0      3.106      6.394
  Name = 
  1 active torsions:
  status: ('A' for Active; 'I' for Inactive)
    1  A    between atoms: C_9  and  N_15
                            x       y       z     vdW  Elec       q    Type
                         _______ _______ _______ _____ _____    ______ ____

>  <TORSDO>
F 1

$$$$
=
 OpenBabel11052418193D

 27 31  0  0  0  0  0  0  0  0999 V2000
  191.1120  176.7190  144.8790 C   0  0  0  0  0  3  0  0  0  0  0  0
  189.6600  175.2730  143.4660 C   0  0  0  0  0  0  0  0  0  0  0  0
  191.7200  173.9280  143.9820 N   0  0  0  0  0  0  0  0  0  0  0  0
  189.0720  172.6330  140.3580 N   0  0  0  0  0  0  0  0  0  0  0  0
  190.4960  170.7240  139.8250 N   0  0  0  0  0  1  0  0  0  0  0  0
  188.5430  175.4780  142.6140 C   0  0  0  0  0  3  0  0  0  0  0  0
  190.8810  172.2650  141.6820 N   0  0  0  0  0  0  0  0  0  0  0  0
  194.7180  174.8910  145.6720 C   0  0  0  0  0  0  0  0  0  0  0  0
  192.0930  171.6490  142.1990 C   0  0  0  0  0  1  0  0  0  0  0  0
  196.2240  174.1410  146.1510 Cl  0  0  0  0  0  0  0  0  0  0  0  0
  190.2290  173.3520  142.1350 C   0  0  0  0  0  0  0  0  0  0  0  0
  189.8380  176.1340  144.5970 N   0  0  0  0  0  0  0  0  0  0  0  0
  190.1550  171.8590  140.6150 C   0  0  0  0  0  0  0  0  0  0  0  0
  189.1440  173.5650  141.3290 C   0  0  0  0  0  0  0  0  0  0  0  0
  192.2820  176.0830  144.9330 C   0  0  0  0  0  0  0  0  0  0  0  0
  190.5440  174.1990  143.2100 C   0  0  0  0  0  0  0  0  0  0  0  0
  193.7030  174.1210  145.1050 C   0  0  0  0  0  3  0  0  0  0  0  0
  188.2760  174.6270  141.5310 C   0  0  0  0  0  3  0  0  0  0  0  0
  194.5480  176.2660  145.8080 C   0  0  0  0  0  3  0  0  0  0  0  0
  193.3350  176.8500  145.4490 C   0  0  0  0  0  3  0  0  0  0  0  0
  192.4940  174.6960  144.6930 C   0  0  0  0  0  0  0  0  0  0  0  0
  186.4700  177.4580  146.7910 C   0  0  0  0  0  3  0  0  0  0  0  0
  188.6960  176.6050  145.3500 C   0  0  0  0  0  0  0  0  0  0  0  0
  188.3320  176.0040  146.5650 C   0  0  0  0  0  3  0  0  0  0  0  0
  187.2430  176.4390  147.2530 N   0  0  0  0  0  0  0  0  0  0  0  0
  186.7830  178.0820  145.5840 C   0  0  0  0  0  3  0  0  0  0  0  0
  187.8970  177.6510  144.8640 C   0  0  0  0  0  3  0  0  0  0  0  0
  1 15  2  0  0  0  0
  2 12  1  0  0  0  0
  3 21  2  0  0  0  0
  4 13  2  0  0  0  0
  4 14  1  0  0  0  0
  5 13  1  0  0  0  0
  6  2  2  0  0  0  0
  7 11  1  0  0  0  0
  7  9  1  0  0  0  0
  8 19  1  0  0  0  0
  8 10  1  0  0  0  0
 11 16  2  0  0  0  0
 12  1  1  0  0  0  0
 12 23  1  0  0  0  0
 13  7  1  0  0  0  0
 14 18  2  0  0  0  0
 14 11  1  0  0  0  0
 15 20  1  0  0  0  0
 16  2  1  0  0  0  0
 16  3  1  0  0  0  0
 17  8  2  0  0  0  0
 18  6  1  0  0  0  0
 20 19  2  0  0  0  0
 21 15  1  0  0  0  0
 21 17  1  0  0  0  0
 22 25  1  0  0  0  0
 23 24  1  0  0  0  0
 24 25  2  0  0  0  0
 26 22  2  0  0  0  0
 27 23  2  0  0  0  0
 27 26  1  0  0  0  0
M  END
>  <MODEL>
9

>  <REMARK>
 VINA RESULT:      -7.0      2.990      5.581
  Name = 
  1 active torsions:
  status: ('A' for Active; 'I' for Inactive)
    1  A    between atoms: C_9  and  N_15
                            x       y       z     vdW  Elec       q    Type
                         _______ _______ _______ _____ _____    ______ ____

>  <TORSDO>
F 1

$$$$
