=
 OpenBabel11052418483D

 34 38  0  0  1  0  0  0  0  0999 V2000
  185.9060  177.0190  145.1400 C   0  0  0  0  0  0  0  0  0  0  0  0
  187.6090  178.1430  146.5390 O   0  0  0  0  0  0  0  0  0  0  0  0
  188.2590  177.0480  144.4690 C   0  0  0  0  0  0  0  0  0  0  0  0
  190.5790  177.4950  143.4440 C   0  0  1  0  0  3  0  0  0  0  0  0
  184.7840  178.8890  146.3160 C   0  0  0  0  0  2  0  0  0  0  0  0
  185.6540  179.2210  147.5280 C   0  0  0  0  0  2  0  0  0  0  0  0
  190.0920  177.8710  145.7670 O   0  0  0  0  0  0  0  0  0  0  0  0
  187.2490  177.3980  145.4010 C   0  0  0  0  0  0  0  0  0  0  0  0
  184.7580  177.3960  146.0250 C   0  0  0  0  0  2  0  0  0  0  0  0
  187.9320  176.2910  143.3200 C   0  0  0  0  0  0  0  0  0  0  0  0
  185.6000  176.2930  143.9910 C   0  0  0  0  0  3  0  0  0  0  0  0
  186.8220  178.2570  147.7200 C   0  0  0  0  0  2  0  0  0  0  0  0
  190.2230  176.4210  142.4590 C   0  0  0  0  0  3  0  0  0  0  0  0
  189.0010  175.8800  142.3570 C   0  0  0  0  0  0  0  0  0  0  0  0
  189.6700  177.4700  144.6480 C   0  0  0  0  0  0  0  0  0  0  0  0
  186.5990  175.9320  143.0950 C   0  0  0  0  0  3  0  0  0  0  0  0
  188.1480  174.1910  139.0610 C   0  0  0  0  0  0  0  0  0  0  0  0
  188.3220  172.8440  139.3880 C   0  0  0  0  0  3  0  0  0  0  0  0
  188.7830  174.8350  141.3210 C   0  0  0  0  0  0  0  0  0  0  0  0
  188.7190  172.4860  140.6780 C   0  0  0  0  0  3  0  0  0  0  0  0
  188.3730  175.1790  140.0220 C   0  0  0  0  0  3  0  0  0  0  0  0
  188.9440  173.4750  141.6400 C   0  0  0  0  0  3  0  0  0  0  0  0
  187.7510  174.5480  137.7790 O   0  0  0  0  0  1  0  0  0  0  0  0
  192.0490  177.3610  143.8120 C   0  0  0  0  0  2  0  0  0  0  0  0
  192.5540  176.0680  143.3840 N   0  0  0  0  0  2  0  0  0  0  0  0
  193.5080  175.6380  144.3890 C   0  0  0  0  0  2  0  0  0  0  0  0
  193.0610  174.3190  145.0020 C   0  0  0  0  0  2  0  0  0  0  0  0
  190.5470  173.3640  144.3390 O   0  0  0  0  0  0  0  0  0  0  0  0
  191.8660  174.5060  145.8170 N   0  0  0  0  0  0  0  0  0  0  0  0
  190.6560  173.9980  145.4230 C   0  0  0  0  0  0  0  0  0  0  0  0
  189.6390  174.8820  147.4220 C   0  0  0  0  0  3  0  0  0  0  0  0
  190.8760  175.3940  147.8100 C   0  0  0  0  0  3  0  0  0  0  0  0
  191.9860  175.1930  146.9880 C   0  0  0  0  0  3  0  0  0  0  0  0
  189.5250  174.1790  146.2230 C   0  0  0  0  0  3  0  0  0  0  0  0
  1  8  1  0  0  0  0
  1  9  1  0  0  0  0
  2 12  1  0  0  0  0
  3 15  1  0  0  0  0
  3  8  2  0  0  0  0
  4 24  1  1  0  0  0
  4 15  1  0  0  0  0
  5  6  1  0  0  0  0
  6 12  1  0  0  0  0
  8  2  1  0  0  0  0
  9  5  1  0  0  0  0
 10  3  1  0  0  0  0
 11  1  2  0  0  0  0
 13  4  1  0  0  0  0
 14 13  2  0  0  0  0
 14 10  1  0  0  0  0
 15  7  2  0  0  0  0
 16 10  2  0  0  0  0
 16 11  1  0  0  0  0
 17 18  2  0  0  0  0
 17 21  1  0  0  0  0
 18 20  1  0  0  0  0
 19 22  1  0  0  0  0
 19 14  1  0  0  0  0
 20 22  2  0  0  0  0
 21 19  2  0  0  0  0
 23 17  1  0  0  0  0
 25 24  1  0  0  0  0
 25 26  1  0  0  0  0
 26 27  1  0  0  0  0
 27 29  1  0  0  0  0
 28 30  2  0  0  0  0
 29 33  1  0  0  0  0
 30 29  1  0  0  0  0
 30 34  1  0  0  0  0
 31 32  1  0  0  0  0
 33 32  2  0  0  0  0
 34 31  2  0  0  0  0
M  END
>  <MODEL>
1

>  <REMARK>
 VINA RESULT:      -7.8      0.000      0.000
  Name = 
  6 active torsions:
  status: ('A' for Active; 'I' for Inactive)
    1  A    between atoms: C_3  and  N_13
    2  A    between atoms: C_3  and  C_17
    3  A    between atoms: C_5  and  C_18
    4  A    between atoms: C_12  and  C_28
    5  A    between atoms: C_17  and  N_29
    6  A    between atoms: C_18  and  N_29
                            x       y       z     vdW  Elec       q    Type
                         _______ _______ _______ _____ _____    ______ ____

>  <TORSDO>
F 6

$$$$
=
 OpenBabel11052418483D

 34 38  0  0  1  0  0  0  0  0999 V2000
  186.8830  178.0150  146.2150 C   0  0  0  0  0  0  0  0  0  0  0  0
  185.5100  177.9840  144.1560 O   0  0  0  0  0  0  0  0  0  0  0  0
  187.6160  176.7740  144.2370 C   0  0  0  0  0  0  0  0  0  0  0  0
  188.1800  175.0370  142.4210 C   0  0  1  0  0  3  0  0  0  0  0  0
  184.5130  178.2410  146.9000 C   0  0  0  0  0  2  0  0  0  0  0  0
  183.7550  178.7470  145.6730 C   0  0  0  0  0  2  0  0  0  0  0  0
  186.5700  176.7900  142.0860 O   0  0  0  0  0  0  0  0  0  0  0  0
  186.6630  177.6100  144.8710 C   0  0  0  0  0  0  0  0  0  0  0  0
  185.9080  178.8410  146.9950 C   0  0  0  0  0  2  0  0  0  0  0  0
  188.7910  176.3890  144.9250 C   0  0  0  0  0  0  0  0  0  0  0  0
  188.0360  177.6070  146.8820 C   0  0  0  0  0  3  0  0  0  0  0  0
  184.6630  179.0780  144.4910 C   0  0  0  0  0  2  0  0  0  0  0  0
  189.5280  174.9620  143.0720 C   0  0  0  0  0  3  0  0  0  0  0  0
  189.8210  175.5440  144.2450 C   0  0  0  0  0  0  0  0  0  0  0  0
  187.4160  176.2610  142.8590 C   0  0  0  0  0  0  0  0  0  0  0  0
  188.9770  176.8070  146.2460 C   0  0  0  0  0  3  0  0  0  0  0  0
  193.5450  176.0110  144.8440 C   0  0  0  0  0  0  0  0  0  0  0  0
  193.8030  175.0030  145.7760 C   0  0  0  0  0  3  0  0  0  0  0  0
  191.1960  175.3730  144.7850 C   0  0  0  0  0  0  0  0  0  0  0  0
  192.7660  174.1750  146.2120 C   0  0  0  0  0  3  0  0  0  0  0  0
  192.2520  176.1910  144.3500 C   0  0  0  0  0  3  0  0  0  0  0  0
  191.4720  174.3560  145.7160 C   0  0  0  0  0  3  0  0  0  0  0  0
  194.5760  176.8330  144.4090 O   0  0  0  0  0  1  0  0  0  0  0  0
  188.3550  174.9600  140.9110 C   0  0  0  0  0  2  0  0  0  0  0  0
  188.2660  173.5790  140.4700 N   0  0  0  0  0  2  0  0  0  0  0  0
  189.2340  173.4190  139.4010 C   0  0  0  0  0  2  0  0  0  0  0  0
  190.0950  172.1910  139.6570 C   0  0  0  0  0  2  0  0  0  0  0  0
  190.2370  170.8230  142.0610 O   0  0  0  0  0  0  0  0  0  0  0  0
  191.0790  172.4570  140.7010 N   0  0  0  0  0  0  0  0  0  0  0  0
  191.0880  171.7320  141.8630 C   0  0  0  0  0  0  0  0  0  0  0  0
  192.9860  173.0020  142.6350 C   0  0  0  0  0  3  0  0  0  0  0  0
  192.9640  173.7330  141.4480 C   0  0  0  0  0  3  0  0  0  0  0  0
  191.9960  173.4420  140.4850 C   0  0  0  0  0  3  0  0  0  0  0  0
  192.0440  171.9960  142.8470 C   0  0  0  0  0  3  0  0  0  0  0  0
  1 11  1  0  0  0  0
  1  9  1  0  0  0  0
  2 12  1  0  0  0  0
  2  8  1  0  0  0  0
  3  8  1  0  0  0  0
  3 10  2  0  0  0  0
  4 24  1  6  0  0  0
  4 15  1  0  0  0  0
  4 13  1  0  0  0  0
  5  9  1  0  0  0  0
  6  5  1  0  0  0  0
  7 15  2  0  0  0  0
  8  1  2  0  0  0  0
 10 16  1  0  0  0  0
 12  6  1  0  0  0  0
 13 14  2  0  0  0  0
 14 19  1  0  0  0  0
 14 10  1  0  0  0  0
 15  3  1  0  0  0  0
 16 11  2  0  0  0  0
 17 18  1  0  0  0  0
 18 20  2  0  0  0  0
 19 22  2  0  0  0  0
 21 19  1  0  0  0  0
 21 17  2  0  0  0  0
 22 20  1  0  0  0  0
 23 17  1  0  0  0  0
 25 24  1  0  0  0  0
 26 27  1  0  0  0  0
 26 25  1  0  0  0  0
 27 29  1  0  0  0  0
 29 30  1  0  0  0  0
 30 28  2  0  0  0  0
 30 34  1  0  0  0  0
 31 34  2  0  0  0  0
 32 31  1  0  0  0  0
 33 29  1  0  0  0  0
 33 32  2  0  0  0  0
M  END
>  <MODEL>
2

>  <REMARK>
 VINA RESULT:      -7.6      2.477      5.040
  Name = 
  6 active torsions:
  status: ('A' for Active; 'I' for Inactive)
    1  A    between atoms: C_3  and  N_13
    2  A    between atoms: C_3  and  C_17
    3  A    between atoms: C_5  and  C_18
    4  A    between atoms: C_12  and  C_28
    5  A    between atoms: C_17  and  N_29
    6  A    between atoms: C_18  and  N_29
                            x       y       z     vdW  Elec       q    Type
                         _______ _______ _______ _____ _____    ______ ____

>  <TORSDO>
F 6

$$$$
=
 OpenBabel11052418483D

 34 38  0  0  1  0  0  0  0  0999 V2000
  186.5780  178.1170  143.6710 C   0  0  0  0  0  0  0  0  0  0  0  0
  186.1220  177.2250  141.4080 O   0  0  0  0  0  0  0  0  0  0  0  0
  188.0020  176.3810  142.6960 C   0  0  0  0  0  0  0  0  0  0  0  0
  189.1950  174.2160  141.9750 C   0  0  1  0  0  3  0  0  0  0  0  0
  184.1340  178.2690  143.2910 C   0  0  0  0  0  2  0  0  0  0  0  0
  183.9290  178.2340  141.7770 C   0  0  0  0  0  2  0  0  0  0  0  0
  187.8840  175.5420  140.4600 O   0  0  0  0  0  0  0  0  0  0  0  0
  186.8940  177.2590  142.5830 C   0  0  0  0  0  0  0  0  0  0  0  0
  185.3930  179.0320  143.6780 C   0  0  0  0  0  2  0  0  0  0  0  0
  188.8040  176.3980  143.8610 C   0  0  0  0  0  0  0  0  0  0  0  0
  187.3680  178.1030  144.8180 C   0  0  0  0  0  3  0  0  0  0  0  0
  185.2350  178.2560  140.9860 C   0  0  0  0  0  2  0  0  0  0  0  0
  190.1790  174.5320  143.0620 C   0  0  0  0  0  3  0  0  0  0  0  0
  190.0010  175.5060  143.9660 C   0  0  0  0  0  0  0  0  0  0  0  0
  188.3470  175.4130  141.6260 C   0  0  0  0  0  0  0  0  0  0  0  0
  188.4660  177.2570  144.9110 C   0  0  0  0  0  3  0  0  0  0  0  0
  193.1950  176.6110  145.7050 C   0  0  0  0  0  0  0  0  0  0  0  0
  193.0520  176.0060  146.9550 C   0  0  0  0  0  3  0  0  0  0  0  0
  191.0500  175.6970  145.0030 C   0  0  0  0  0  0  0  0  0  0  0  0
  191.9160  175.2420  147.2340 C   0  0  0  0  0  3  0  0  0  0  0  0
  192.2020  176.4540  144.7350 C   0  0  0  0  0  3  0  0  0  0  0  0
  190.9240  175.0850  146.2620 C   0  0  0  0  0  3  0  0  0  0  0  0
  194.3240  177.3690  145.4260 O   0  0  0  0  0  1  0  0  0  0  0  0
  189.9470  173.6560  140.7760 C   0  0  0  0  0  2  0  0  0  0  0  0
  191.3560  173.9980  140.8670 N   0  0  0  0  0  2  0  0  0  0  0  0
  192.0990  172.7770  140.6190 C   0  0  0  0  0  2  0  0  0  0  0  0
  193.5430  172.9450  141.0700 C   0  0  0  0  0  2  0  0  0  0  0  0
  195.2620  174.4790  142.6090 O   0  0  0  0  0  0  0  0  0  0  0  0
  193.6430  172.8660  142.5240 N   0  0  0  0  0  0  0  0  0  0  0  0
  194.5160  173.6630  143.2150 C   0  0  0  0  0  0  0  0  0  0  0  0
  193.7690  172.6770  145.2840 C   0  0  0  0  0  3  0  0  0  0  0  0
  192.8860  171.8710  144.5680 C   0  0  0  0  0  3  0  0  0  0  0  0
  192.8370  171.9820  143.1770 C   0  0  0  0  0  3  0  0  0  0  0  0
  194.5890  173.5790  144.6080 C   0  0  0  0  0  3  0  0  0  0  0  0
  1  9  1  0  0  0  0
  1 11  1  0  0  0  0
  2  8  1  0  0  0  0
  3 10  2  0  0  0  0
  4 24  1  6  0  0  0
  4 13  1  0  0  0  0
  5  9  1  0  0  0  0
  6  5  1  0  0  0  0
  7 15  2  0  0  0  0
  8  3  1  0  0  0  0
  8  1  2  0  0  0  0
 10 14  1  0  0  0  0
 10 16  1  0  0  0  0
 11 16  2  0  0  0  0
 12  2  1  0  0  0  0
 12  6  1  0  0  0  0
 13 14  2  0  0  0  0
 14 19  1  0  0  0  0
 15  4  1  0  0  0  0
 15  3  1  0  0  0  0
 17 18  1  0  0  0  0
 18 20  2  0  0  0  0
 19 22  2  0  0  0  0
 21 19  1  0  0  0  0
 21 17  2  0  0  0  0
 22 20  1  0  0  0  0
 23 17  1  0  0  0  0
 24 25  1  0  0  0  0
 26 25  1  0  0  0  0
 26 27  1  0  0  0  0
 27 29  1  0  0  0  0
 28 30  2  0  0  0  0
 29 33  1  0  0  0  0
 29 30  1  0  0  0  0
 30 34  1  0  0  0  0
 32 31  1  0  0  0  0
 33 32  2  0  0  0  0
 34 31  2  0  0  0  0
M  END
>  <MODEL>
3

>  <REMARK>
 VINA RESULT:      -7.3      2.557      5.186
  Name = 
  6 active torsions:
  status: ('A' for Active; 'I' for Inactive)
    1  A    between atoms: C_3  and  N_13
    2  A    between atoms: C_3  and  C_17
    3  A    between atoms: C_5  and  C_18
    4  A    between atoms: C_12  and  C_28
    5  A    between atoms: C_17  and  N_29
    6  A    between atoms: C_18  and  N_29
                            x       y       z     vdW  Elec       q    Type
                         _______ _______ _______ _____ _____    ______ ____

>  <TORSDO>
F 6

$$$$
=
 OpenBabel11052418483D

 34 38  0  0  1  0  0  0  0  0999 V2000
  186.3930  176.9460  143.5190 C   0  0  0  0  0  0  0  0  0  0  0  0
  187.2100  178.1980  145.4900 O   0  0  0  0  0  0  0  0  0  0  0  0
  188.6370  176.5540  144.4110 C   0  0  0  0  0  0  0  0  0  0  0  0
  191.1550  176.4780  144.9470 C   0  0  1  0  0  3  0  0  0  0  0  0
  185.2830  179.1610  143.5030 C   0  0  0  0  0  2  0  0  0  0  0  0
  185.3610  179.6940  144.9330 C   0  0  0  0  0  2  0  0  0  0  0  0
  189.5430  177.4780  146.4230 O   0  0  0  0  0  0  0  0  0  0  0  0
  187.3950  177.2340  144.4830 C   0  0  0  0  0  0  0  0  0  0  0  0
  185.0740  177.6540  143.4670 C   0  0  0  0  0  2  0  0  0  0  0  0
  188.8520  175.5710  143.4180 C   0  0  0  0  0  0  0  0  0  0  0  0
  186.6310  175.9900  142.5340 C   0  0  0  0  0  3  0  0  0  0  0  0
  185.9460  178.6900  145.9250 C   0  0  0  0  0  2  0  0  0  0  0  0
  191.1790  175.2350  144.1090 C   0  0  0  0  0  3  0  0  0  0  0  0
  190.1440  174.8190  143.3650 C   0  0  0  0  0  0  0  0  0  0  0  0
  189.7500  176.8540  145.3460 C   0  0  0  0  0  0  0  0  0  0  0  0
  187.8430  175.3110  142.4850 C   0  0  0  0  0  3  0  0  0  0  0  0
  190.9170  172.4540  140.4910 C   0  0  0  0  0  0  0  0  0  0  0  0
  190.5740  171.2210  141.0490 C   0  0  0  0  0  3  0  0  0  0  0  0
  190.3120  173.5760  142.5670 C   0  0  0  0  0  0  0  0  0  0  0  0
  190.0950  171.1580  142.3600 C   0  0  0  0  0  3  0  0  0  0  0  0
  190.7820  173.6240  141.2440 C   0  0  0  0  0  3  0  0  0  0  0  0
  189.9620  172.3280  143.1120 C   0  0  0  0  0  3  0  0  0  0  0  0
  191.3900  172.5190  139.1880 O   0  0  0  0  0  1  0  0  0  0  0  0
  192.0760  176.2850  146.1440 C   0  0  0  0  0  2  0  0  0  0  0  0
  193.4040  176.7850  145.8350 N   0  0  0  0  0  2  0  0  0  0  0  0
  194.3480  175.8850  146.4710 C   0  0  0  0  0  2  0  0  0  0  0  0
  195.3040  175.3140  145.4330 C   0  0  0  0  0  2  0  0  0  0  0  0
  195.2080  175.0410  142.6780 O   0  0  0  0  0  0  0  0  0  0  0  0
  194.6970  174.1850  144.7360 N   0  0  0  0  0  0  0  0  0  0  0  0
  194.6940  174.1190  143.3680 C   0  0  0  0  0  0  0  0  0  0  0  0
  193.5450  172.0030  143.4780 C   0  0  0  0  0  3  0  0  0  0  0  0
  193.5550  172.0830  144.8690 C   0  0  0  0  0  3  0  0  0  0  0  0
  194.1410  173.1910  145.4850 C   0  0  0  0  0  3  0  0  0  0  0  0
  194.1170  173.0240  142.7200 C   0  0  0  0  0  3  0  0  0  0  0  0
  1  8  1  0  0  0  0
  2 12  1  0  0  0  0
  3  8  2  0  0  0  0
  3 15  1  0  0  0  0
  4 15  1  0  0  0  0
  4 24  1  1  0  0  0
  5  6  1  0  0  0  0
  6 12  1  0  0  0  0
  8  2  1  0  0  0  0
  9  5  1  0  0  0  0
  9  1  1  0  0  0  0
 10  3  1  0  0  0  0
 11  1  2  0  0  0  0
 13  4  1  0  0  0  0
 14 10  1  0  0  0  0
 14 13  2  0  0  0  0
 15  7  2  0  0  0  0
 16 11  1  0  0  0  0
 16 10  2  0  0  0  0
 17 18  2  0  0  0  0
 17 21  1  0  0  0  0
 18 20  1  0  0  0  0
 19 22  1  0  0  0  0
 19 14  1  0  0  0  0
 20 22  2  0  0  0  0
 21 19  2  0  0  0  0
 23 17  1  0  0  0  0
 25 24  1  0  0  0  0
 25 26  1  0  0  0  0
 27 26  1  0  0  0  0
 28 30  2  0  0  0  0
 29 27  1  0  0  0  0
 29 33  1  0  0  0  0
 30 29  1  0  0  0  0
 31 32  1  0  0  0  0
 32 33  2  0  0  0  0
 34 30  1  0  0  0  0
 34 31  2  0  0  0  0
M  END
>  <MODEL>
4

>  <REMARK>
 VINA RESULT:      -7.3      2.193      3.043
  Name = 
  6 active torsions:
  status: ('A' for Active; 'I' for Inactive)
    1  A    between atoms: C_3  and  N_13
    2  A    between atoms: C_3  and  C_17
    3  A    between atoms: C_5  and  C_18
    4  A    between atoms: C_12  and  C_28
    5  A    between atoms: C_17  and  N_29
    6  A    between atoms: C_18  and  N_29
                            x       y       z     vdW  Elec       q    Type
                         _______ _______ _______ _____ _____    ______ ____

>  <TORSDO>
F 6

$$$$
=
 OpenBabel11052418483D

 34 38  0  0  1  0  0  0  0  0999 V2000
  188.9860  174.1250  141.2450 C   0  0  0  0  0  0  0  0  0  0  0  0
  191.4430  174.0830  141.5300 O   0  0  0  0  0  0  0  0  0  0  0  0
  190.0450  175.2230  143.1580 C   0  0  0  0  0  0  0  0  0  0  0  0
  191.0210  175.9200  145.4370 C   0  0  1  0  0  3  0  0  0  0  0  0
  189.8150  172.0230  140.2290 C   0  0  0  0  0  2  0  0  0  0  0  0
  191.2980  172.2420  139.9320 C   0  0  0  0  0  2  0  0  0  0  0  0
  192.3950  175.4980  143.5110 O   0  0  0  0  0  0  0  0  0  0  0  0
  190.1630  174.4780  141.9580 C   0  0  0  0  0  0  0  0  0  0  0  0
  188.9960  173.2860  140.0050 C   0  0  0  0  0  2  0  0  0  0  0  0
  188.7730  175.6440  143.6100 C   0  0  0  0  0  0  0  0  0  0  0  0
  187.7400  174.5310  141.7180 C   0  0  0  0  0  3  0  0  0  0  0  0
  191.7690  173.6680  140.2070 C   0  0  0  0  0  2  0  0  0  0  0  0
  189.7100  176.6120  145.6580 C   0  0  0  0  0  3  0  0  0  0  0  0
  188.6480  176.4690  144.8520 C   0  0  0  0  0  0  0  0  0  0  0  0
  191.2280  175.5670  143.9860 C   0  0  0  0  0  0  0  0  0  0  0  0
  187.6350  175.2810  142.8830 C   0  0  0  0  0  3  0  0  0  0  0  0
  185.8480  179.0400  144.8300 C   0  0  0  0  0  0  0  0  0  0  0  0
  185.0690  178.6090  145.9060 C   0  0  0  0  0  3  0  0  0  0  0  0
  187.4010  177.2020  145.2010 C   0  0  0  0  0  0  0  0  0  0  0  0
  185.4530  177.4810  146.6360 C   0  0  0  0  0  3  0  0  0  0  0  0
  187.0080  178.3430  144.4830 C   0  0  0  0  0  3  0  0  0  0  0  0
  186.6130  176.7850  146.2880 C   0  0  0  0  0  3  0  0  0  0  0  0
  185.4700  180.1620  144.1060 O   0  0  0  0  0  1  0  0  0  0  0  0
  192.1380  176.7870  145.9990 C   0  0  0  0  0  2  0  0  0  0  0  0
  192.9770  176.0040  146.8890 N   0  0  0  0  0  2  0  0  0  0  0  0
  194.3510  176.2520  146.4940 C   0  0  0  0  0  2  0  0  0  0  0  0
  194.9670  174.9820  145.9250 C   0  0  0  0  0  2  0  0  0  0  0  0
  197.1970  173.4500  145.3300 O   0  0  0  0  0  0  0  0  0  0  0  0
  195.9310  175.3000  144.8770 N   0  0  0  0  0  0  0  0  0  0  0  0
  197.0090  174.4880  144.6390 C   0  0  0  0  0  0  0  0  0  0  0  0
  197.7130  175.9520  142.8590 C   0  0  0  0  0  3  0  0  0  0  0  0
  196.6130  176.7700  143.1120 C   0  0  0  0  0  3  0  0  0  0  0  0
  195.7270  176.4240  144.1330 C   0  0  0  0  0  3  0  0  0  0  0  0
  197.9150  174.8050  143.6240 C   0  0  0  0  0  3  0  0  0  0  0  0
  1 11  2  0  0  0  0
  1  8  1  0  0  0  0
  2  8  1  0  0  0  0
  3 10  1  0  0  0  0
  3 15  1  0  0  0  0
  4 13  1  0  0  0  0
  4 24  1  6  0  0  0
  6 12  1  0  0  0  0
  6  5  1  0  0  0  0
  7 15  2  0  0  0  0
  8  3  2  0  0  0  0
  9  5  1  0  0  0  0
  9  1  1  0  0  0  0
 10 14  1  0  0  0  0
 11 16  1  0  0  0  0
 12  2  1  0  0  0  0
 14 19  1  0  0  0  0
 14 13  2  0  0  0  0
 15  4  1  0  0  0  0
 16 10  2  0  0  0  0
 17 18  1  0  0  0  0
 18 20  2  0  0  0  0
 19 22  2  0  0  0  0
 21 17  2  0  0  0  0
 21 19  1  0  0  0  0
 22 20  1  0  0  0  0
 23 17  1  0  0  0  0
 24 25  1  0  0  0  0
 26 25  1  0  0  0  0
 27 26  1  0  0  0  0
 29 27  1  0  0  0  0
 30 29  1  0  0  0  0
 30 28  2  0  0  0  0
 31 32  1  0  0  0  0
 31 34  2  0  0  0  0
 32 33  2  0  0  0  0
 33 29  1  0  0  0  0
 34 30  1  0  0  0  0
M  END
>  <MODEL>
5

>  <REMARK>
 VINA RESULT:      -7.2      2.601      6.361
  Name = 
  6 active torsions:
  status: ('A' for Active; 'I' for Inactive)
    1  A    between atoms: C_3  and  N_13
    2  A    between atoms: C_3  and  C_17
    3  A    between atoms: C_5  and  C_18
    4  A    between atoms: C_12  and  C_28
    5  A    between atoms: C_17  and  N_29
    6  A    between atoms: C_18  and  N_29
                            x       y       z     vdW  Elec       q    Type
                         _______ _______ _______ _____ _____    ______ ____

>  <TORSDO>
F 6

$$$$
=
 OpenBabel11052418483D

 34 38  0  0  1  0  0  0  0  0999 V2000
  191.6130  176.3500  146.4650 C   0  0  0  0  0  0  0  0  0  0  0  0
  192.4510  174.6940  144.8270 O   0  0  0  0  0  0  0  0  0  0  0  0
  190.2460  175.6780  144.5490 C   0  0  0  0  0  0  0  0  0  0  0  0
  188.9950  175.4360  142.3110 C   0  0  1  0  0  3  0  0  0  0  0  0
  194.0810  176.5620  146.3900 C   0  0  0  0  0  2  0  0  0  0  0  0
  194.6110  175.2440  145.8250 C   0  0  0  0  0  2  0  0  0  0  0  0
  190.7570  173.9450  142.9820 O   0  0  0  0  0  0  0  0  0  0  0  0
  191.4470  175.5620  145.2940 C   0  0  0  0  0  0  0  0  0  0  0  0
  192.8670  176.3510  147.2840 C   0  0  0  0  0  2  0  0  0  0  0  0
  189.2140  176.5350  144.9970 C   0  0  0  0  0  0  0  0  0  0  0  0
  190.5930  177.2040  146.8770 C   0  0  0  0  0  3  0  0  0  0  0  0
  193.5240  174.1910  145.6160 C   0  0  0  0  0  2  0  0  0  0  0  0
  187.8400  176.0780  143.0180 C   0  0  0  0  0  3  0  0  0  0  0  0
  187.9270  176.6260  144.2390 C   0  0  0  0  0  0  0  0  0  0  0  0
  190.0350  174.9350  143.2820 C   0  0  0  0  0  0  0  0  0  0  0  0
  189.4100  177.2940  146.1540 C   0  0  0  0  0  3  0  0  0  0  0  0
  185.0250  179.0110  144.8240 C   0  0  0  0  0  0  0  0  0  0  0  0
  184.4230  178.4420  145.9470 C   0  0  0  0  0  3  0  0  0  0  0  0
  186.7040  177.2480  144.8150 C   0  0  0  0  0  0  0  0  0  0  0  0
  184.9570  177.2810  146.5130 C   0  0  0  0  0  3  0  0  0  0  0  0
  186.1610  178.4200  144.2640 C   0  0  0  0  0  3  0  0  0  0  0  0
  186.0930  176.6910  145.9520 C   0  0  0  0  0  3  0  0  0  0  0  0
  184.4970  180.1660  144.2630 O   0  0  0  0  0  1  0  0  0  0  0  0
  188.4670  174.3400  141.3960 C   0  0  0  0  0  2  0  0  0  0  0  0
  188.1910  174.8820  140.0780 N   0  0  0  0  0  2  0  0  0  0  0  0
  188.3720  173.7960  139.1320 C   0  0  0  0  0  2  0  0  0  0  0  0
  189.8420  173.4120  139.0530 C   0  0  0  0  0  2  0  0  0  0  0  0
  190.4880  171.2570  140.6690 O   0  0  0  0  0  0  0  0  0  0  0  0
  189.9940  172.0410  138.5790 N   0  0  0  0  0  0  0  0  0  0  0  0
  190.3100  171.0260  139.4430 C   0  0  0  0  0  0  0  0  0  0  0  0
  190.2480  169.4570  137.6140 C   0  0  0  0  0  3  0  0  0  0  0  0
  189.9270  170.4990  136.7460 C   0  0  0  0  0  3  0  0  0  0  0  0
  189.8030  171.7940  137.2520 C   0  0  0  0  0  3  0  0  0  0  0  0
  190.4410  169.7180  138.9700 C   0  0  0  0  0  3  0  0  0  0  0  0
  1 11  1  0  0  0  0
  1  9  1  0  0  0  0
  2  8  1  0  0  0  0
  2 12  1  0  0  0  0
  3 10  2  0  0  0  0
  3  8  1  0  0  0  0
  4 24  1  1  0  0  0
  4 13  1  0  0  0  0
  4 15  1  0  0  0  0
  5  9  1  0  0  0  0
  6  5  1  0  0  0  0
  7 15  2  0  0  0  0
  8  1  2  0  0  0  0
 10 16  1  0  0  0  0
 12  6  1  0  0  0  0
 13 14  2  0  0  0  0
 14 19  1  0  0  0  0
 14 10  1  0  0  0  0
 15  3  1  0  0  0  0
 16 11  2  0  0  0  0
 17 18  1  0  0  0  0
 18 20  2  0  0  0  0
 19 22  2  0  0  0  0
 21 19  1  0  0  0  0
 21 17  2  0  0  0  0
 22 20  1  0  0  0  0
 23 17  1  0  0  0  0
 25 24  1  0  0  0  0
 26 25  1  0  0  0  0
 27 26  1  0  0  0  0
 29 27  1  0  0  0  0
 29 30  1  0  0  0  0
 30 28  2  0  0  0  0
 31 34  2  0  0  0  0
 32 33  2  0  0  0  0
 32 31  1  0  0  0  0
 33 29  1  0  0  0  0
 34 30  1  0  0  0  0
M  END
>  <MODEL>
6

>  <REMARK>
 VINA RESULT:      -7.1      2.571      7.037
  Name = 
  6 active torsions:
  status: ('A' for Active; 'I' for Inactive)
    1  A    between atoms: C_3  and  N_13
    2  A    between atoms: C_3  and  C_17
    3  A    between atoms: C_5  and  C_18
    4  A    between atoms: C_12  and  C_28
    5  A    between atoms: C_17  and  N_29
    6  A    between atoms: C_18  and  N_29
                            x       y       z     vdW  Elec       q    Type
                         _______ _______ _______ _____ _____    ______ ____

>  <TORSDO>
F 6

$$$$
=
 OpenBabel11052418483D

 34 38  0  0  1  0  0  0  0  0999 V2000
  189.5880  172.3500  138.7010 C   0  0  0  0  0  0  0  0  0  0  0  0
  191.3450  171.0130  139.8200 O   0  0  0  0  0  0  0  0  0  0  0  0
  190.1720  172.7550  141.0430 C   0  0  0  0  0  0  0  0  0  0  0  0
  190.3460  172.8730  143.6100 C   0  0  1  0  0  3  0  0  0  0  0  0
  189.6000  170.1090  137.6450 C   0  0  0  0  0  2  0  0  0  0  0  0
  190.9700  169.5000  137.9400 C   0  0  0  0  0  2  0  0  0  0  0  0
  191.9750  171.7470  142.2480 O   0  0  0  0  0  0  0  0  0  0  0  0
  190.3800  172.0380  139.8380 C   0  0  0  0  0  0  0  0  0  0  0  0
  189.6830  171.6090  137.4030 C   0  0  0  0  0  2  0  0  0  0  0  0
  189.2180  173.7980  141.0920 C   0  0  0  0  0  0  0  0  0  0  0  0
  188.6380  173.3660  138.7760 C   0  0  0  0  0  3  0  0  0  0  0  0
  191.9260  170.4620  138.6420 C   0  0  0  0  0  2  0  0  0  0  0  0
  189.5880  174.1610  143.4880 C   0  0  0  0  0  3  0  0  0  0  0  0
  189.0260  174.5880  142.3480 C   0  0  0  0  0  0  0  0  0  0  0  0
  190.9190  172.4350  142.2850 C   0  0  0  0  0  0  0  0  0  0  0  0
  188.4560  174.0810  139.9540 C   0  0  0  0  0  3  0  0  0  0  0  0
  186.2300  177.1370  142.7170 C   0  0  0  0  0  0  0  0  0  0  0  0
  186.8860  178.3180  142.3660 C   0  0  0  0  0  3  0  0  0  0  0  0
  188.2860  175.8780  142.3740 C   0  0  0  0  0  0  0  0  0  0  0  0
  188.2370  178.2870  142.0130 C   0  0  0  0  0  3  0  0  0  0  0  0
  186.9250  175.9250  142.7160 C   0  0  0  0  0  3  0  0  0  0  0  0
  188.9320  177.0740  142.0130 C   0  0  0  0  0  3  0  0  0  0  0  0
  184.8870  177.1660  143.0650 O   0  0  0  0  0  1  0  0  0  0  0  0
  191.4080  173.0250  144.6900 C   0  0  0  0  0  2  0  0  0  0  0  0
  192.0610  174.3160  144.5670 N   0  0  0  0  0  2  0  0  0  0  0  0
  192.4770  174.7030  145.9030 C   0  0  0  0  0  2  0  0  0  0  0  0
  192.0280  176.1270  146.1970 C   0  0  0  0  0  2  0  0  0  0  0  0
  190.4330  178.0050  144.9310 O   0  0  0  0  0  0  0  0  0  0  0  0
  190.5760  176.1960  146.3230 N   0  0  0  0  0  0  0  0  0  0  0  0
  189.8550  177.1530  145.6600 C   0  0  0  0  0  0  0  0  0  0  0  0
  187.8200  176.2590  146.5930 C   0  0  0  0  0  3  0  0  0  0  0  0
  188.5660  175.2910  147.2630 C   0  0  0  0  0  3  0  0  0  0  0  0
  189.9540  175.2750  147.1130 C   0  0  0  0  0  3  0  0  0  0  0  0
  188.4640  177.1960  145.7870 C   0  0  0  0  0  3  0  0  0  0  0  0
  1 11  2  0  0  0  0
  1  8  1  0  0  0  0
  2  8  1  0  0  0  0
  3 10  1  0  0  0  0
  3 15  1  0  0  0  0
  4 24  1  1  0  0  0
  5  6  1  0  0  0  0
  6 12  1  0  0  0  0
  7 15  2  0  0  0  0
  8  3  2  0  0  0  0
  9  5  1  0  0  0  0
  9  1  1  0  0  0  0
 10 14  1  0  0  0  0
 11 16  1  0  0  0  0
 12  2  1  0  0  0  0
 13  4  1  0  0  0  0
 14 19  1  0  0  0  0
 14 13  2  0  0  0  0
 15  4  1  0  0  0  0
 16 10  2  0  0  0  0
 17 23  1  0  0  0  0
 18 17  2  0  0  0  0
 19 21  2  0  0  0  0
 20 18  1  0  0  0  0
 21 17  1  0  0  0  0
 22 20  2  0  0  0  0
 22 19  1  0  0  0  0
 25 24  1  0  0  0  0
 25 26  1  0  0  0  0
 26 27  1  0  0  0  0
 27 29  1  0  0  0  0
 28 30  2  0  0  0  0
 29 33  1  0  0  0  0
 30 34  1  0  0  0  0
 30 29  1  0  0  0  0
 31 32  1  0  0  0  0
 33 32  2  0  0  0  0
 34 31  2  0  0  0  0
M  END
>  <MODEL>
7

>  <REMARK>
 VINA RESULT:      -7.1      2.274      6.509
  Name = 
  6 active torsions:
  status: ('A' for Active; 'I' for Inactive)
    1  A    between atoms: C_3  and  N_13
    2  A    between atoms: C_3  and  C_17
    3  A    between atoms: C_5  and  C_18
    4  A    between atoms: C_12  and  C_28
    5  A    between atoms: C_17  and  N_29
    6  A    between atoms: C_18  and  N_29
                            x       y       z     vdW  Elec       q    Type
                         _______ _______ _______ _____ _____    ______ ____

>  <TORSDO>
F 6

$$$$
=
 OpenBabel11052418483D

 34 38  0  0  1  0  0  0  0  0999 V2000
  191.5800  176.1840  145.8380 C   0  0  0  0  0  0  0  0  0  0  0  0
  192.0120  173.9540  144.8550 O   0  0  0  0  0  0  0  0  0  0  0  0
  189.9850  175.1680  144.2840 C   0  0  0  0  0  0  0  0  0  0  0  0
  188.5530  174.4200  142.2790 C   0  0  1  0  0  3  0  0  0  0  0  0
  194.0370  175.9130  145.6660 C   0  0  0  0  0  2  0  0  0  0  0  0
  194.3000  174.4100  145.5780 C   0  0  0  0  0  2  0  0  0  0  0  0
  190.0890  172.9490  143.3970 O   0  0  0  0  0  0  0  0  0  0  0  0
  191.2020  175.0940  145.0090 C   0  0  0  0  0  0  0  0  0  0  0  0
  192.8730  176.2340  146.5920 C   0  0  0  0  0  2  0  0  0  0  0  0
  189.1430  176.2950  144.4250 C   0  0  0  0  0  0  0  0  0  0  0  0
  190.7460  177.2950  145.9470 C   0  0  0  0  0  3  0  0  0  0  0  0
  193.0430  173.5600  145.7540 C   0  0  0  0  0  2  0  0  0  0  0  0
  187.5730  175.4580  142.7380 C   0  0  0  0  0  3  0  0  0  0  0  0
  187.8370  176.3570  143.6980 C   0  0  0  0  0  0  0  0  0  0  0  0
  189.5630  174.0950  143.3500 C   0  0  0  0  0  0  0  0  0  0  0  0
  189.5440  177.3490  145.2520 C   0  0  0  0  0  3  0  0  0  0  0  0
  184.9070  178.0470  145.4320 C   0  0  0  0  0  0  0  0  0  0  0  0
  184.7450  179.1910  144.6480 C   0  0  0  0  0  3  0  0  0  0  0  0
  186.7780  177.3440  144.0420 C   0  0  0  0  0  0  0  0  0  0  0  0
  185.5900  179.4150  143.5580 C   0  0  0  0  0  3  0  0  0  0  0  0
  185.9140  177.1280  145.1280 C   0  0  0  0  0  3  0  0  0  0  0  0
  186.5980  178.4950  143.2550 C   0  0  0  0  0  3  0  0  0  0  0  0
  184.0660  177.8220  146.5140 O   0  0  0  0  0  1  0  0  0  0  0  0
  187.7860  173.1950  141.8000 C   0  0  0  0  0  2  0  0  0  0  0  0
  188.3960  172.6680  140.5920 N   0  0  0  0  0  2  0  0  0  0  0  0
  189.0170  173.7900  139.9130 C   0  0  0  0  0  2  0  0  0  0  0  0
  190.2720  173.3290  139.1850 C   0  0  0  0  0  2  0  0  0  0  0  0
  191.1560  170.8170  139.9470 O   0  0  0  0  0  0  0  0  0  0  0  0
  191.3580  173.0870  140.1290 N   0  0  0  0  0  0  0  0  0  0  0  0
  191.7420  171.8130  140.4520 C   0  0  0  0  0  0  0  0  0  0  0  0
  193.4410  172.7000  141.9140 C   0  0  0  0  0  3  0  0  0  0  0  0
  193.0390  173.9920  141.5770 C   0  0  0  0  0  3  0  0  0  0  0  0
  191.9880  174.1660  140.6750 C   0  0  0  0  0  3  0  0  0  0  0  0
  192.7910  171.6030  141.3500 C   0  0  0  0  0  3  0  0  0  0  0  0
  1 11  1  0  0  0  0
  1  9  1  0  0  0  0
  2  8  1  0  0  0  0
  2 12  1  0  0  0  0
  3 10  2  0  0  0  0
  3  8  1  0  0  0  0
  4 24  1  1  0  0  0
  4 13  1  0  0  0  0
  4 15  1  0  0  0  0
  5  9  1  0  0  0  0
  6  5  1  0  0  0  0
  6 12  1  0  0  0  0
  8  1  2  0  0  0  0
 10 16  1  0  0  0  0
 13 14  2  0  0  0  0
 14 19  1  0  0  0  0
 14 10  1  0  0  0  0
 15  7  2  0  0  0  0
 15  3  1  0  0  0  0
 16 11  2  0  0  0  0
 17 23  1  0  0  0  0
 18 17  2  0  0  0  0
 19 21  2  0  0  0  0
 20 18  1  0  0  0  0
 21 17  1  0  0  0  0
 22 20  2  0  0  0  0
 22 19  1  0  0  0  0
 25 24  1  0  0  0  0
 26 25  1  0  0  0  0
 27 26  1  0  0  0  0
 27 29  1  0  0  0  0
 28 30  2  0  0  0  0
 29 30  1  0  0  0  0
 29 33  1  0  0  0  0
 30 34  1  0  0  0  0
 32 31  1  0  0  0  0
 33 32  2  0  0  0  0
 34 31  2  0  0  0  0
M  END
>  <MODEL>
8

>  <REMARK>
 VINA RESULT:      -7.0      2.510      6.369
  Name = 
  6 active torsions:
  status: ('A' for Active; 'I' for Inactive)
    1  A    between atoms: C_3  and  N_13
    2  A    between atoms: C_3  and  C_17
    3  A    between atoms: C_5  and  C_18
    4  A    between atoms: C_12  and  C_28
    5  A    between atoms: C_17  and  N_29
    6  A    between atoms: C_18  and  N_29
                            x       y       z     vdW  Elec       q    Type
                         _______ _______ _______ _____ _____    ______ ____

>  <TORSDO>
F 6

$$$$
=
 OpenBabel11052418483D

 34 38  0  0  1  0  0  0  0  0999 V2000
  192.0210  176.4060  146.4180 C   0  0  0  0  0  0  0  0  0  0  0  0
  192.7140  175.4980  144.2230 O   0  0  0  0  0  0  0  0  0  0  0  0
  190.4800  176.4080  144.5170 C   0  0  0  0  0  0  0  0  0  0  0  0
  189.0170  176.9320  142.4630 C   0  0  1  0  0  3  0  0  0  0  0  0
  194.4660  176.7500  146.2100 C   0  0  0  0  0  2  0  0  0  0  0  0
  194.9550  175.7540  145.1590 C   0  0  0  0  0  2  0  0  0  0  0  0
  190.8560  175.3870  142.3870 O   0  0  0  0  0  0  0  0  0  0  0  0
  191.7500  176.0890  145.0600 C   0  0  0  0  0  0  0  0  0  0  0  0
  193.3500  176.1720  147.0680 C   0  0  0  0  0  2  0  0  0  0  0  0
  189.4860  176.9930  145.3350 C   0  0  0  0  0  0  0  0  0  0  0  0
  191.0360  177.0030  147.2010 C   0  0  0  0  0  3  0  0  0  0  0  0
  193.8670  174.7970  144.6760 C   0  0  0  0  0  2  0  0  0  0  0  0
  187.9290  177.2180  143.4540 C   0  0  0  0  0  3  0  0  0  0  0  0
  188.1290  177.2910  144.7790 C   0  0  0  0  0  0  0  0  0  0  0  0
  190.1540  176.1640  143.0900 C   0  0  0  0  0  0  0  0  0  0  0  0
  189.7860  177.2910  146.6680 C   0  0  0  0  0  3  0  0  0  0  0  0
  184.7100  178.4830  145.9350 C   0  0  0  0  0  0  0  0  0  0  0  0
  184.7810  178.2340  147.3080 C   0  0  0  0  0  3  0  0  0  0  0  0
  186.9610  177.6010  145.6460 C   0  0  0  0  0  0  0  0  0  0  0  0
  185.9380  177.6750  147.8560 C   0  0  0  0  0  3  0  0  0  0  0  0
  185.7950  178.1730  145.1120 C   0  0  0  0  0  3  0  0  0  0  0  0
  187.0230  177.3650  147.0310 C   0  0  0  0  0  3  0  0  0  0  0  0
  183.5620  179.0410  145.3900 O   0  0  0  0  0  1  0  0  0  0  0  0
  188.4150  176.2170  141.2620 C   0  0  0  0  0  2  0  0  0  0  0  0
  187.6420  175.0690  141.7010 N   0  0  0  0  0  2  0  0  0  0  0  0
  188.1740  173.9140  141.0010 C   0  0  0  0  0  2  0  0  0  0  0  0
  188.0100  172.6650  141.8550 C   0  0  0  0  0  2  0  0  0  0  0  0
  190.2060  171.3580  140.7870 O   0  0  0  0  0  0  0  0  0  0  0  0
  189.2360  172.3760  142.5900 N   0  0  0  0  0  0  0  0  0  0  0  0
  190.2830  171.7290  141.9900 C   0  0  0  0  0  0  0  0  0  0  0  0
  191.5430  171.8750  144.0400 C   0  0  0  0  0  3  0  0  0  0  0  0
  190.4700  172.5330  144.6380 C   0  0  0  0  0  3  0  0  0  0  0  0
  189.3160  172.7760  143.8910 C   0  0  0  0  0  3  0  0  0  0  0  0
  191.4530  171.4700  142.7090 C   0  0  0  0  0  3  0  0  0  0  0  0
  1  9  1  0  0  0  0
  1 11  1  0  0  0  0
  2 12  1  0  0  0  0
  2  8  1  0  0  0  0
  3  8  1  0  0  0  0
  3 10  2  0  0  0  0
  4 24  1  6  0  0  0
  4 15  1  0  0  0  0
  4 13  1  0  0  0  0
  5  9  1  0  0  0  0
  6  5  1  0  0  0  0
  7 15  2  0  0  0  0
  8  1  2  0  0  0  0
 10 16  1  0  0  0  0
 12  6  1  0  0  0  0
 13 14  2  0  0  0  0
 14 10  1  0  0  0  0
 14 19  1  0  0  0  0
 15  3  1  0  0  0  0
 16 11  2  0  0  0  0
 17 18  1  0  0  0  0
 18 20  2  0  0  0  0
 19 22  2  0  0  0  0
 21 19  1  0  0  0  0
 21 17  2  0  0  0  0
 22 20  1  0  0  0  0
 23 17  1  0  0  0  0
 24 25  1  0  0  0  0
 26 25  1  0  0  0  0
 26 27  1  0  0  0  0
 27 29  1  0  0  0  0
 28 30  2  0  0  0  0
 29 33  1  0  0  0  0
 30 29  1  0  0  0  0
 30 34  1  0  0  0  0
 31 32  1  0  0  0  0
 33 32  2  0  0  0  0
 34 31  2  0  0  0  0
M  END
>  <MODEL>
9

>  <REMARK>
 VINA RESULT:      -7.0      2.259      6.245
  Name = 
  6 active torsions:
  status: ('A' for Active; 'I' for Inactive)
    1  A    between atoms: C_3  and  N_13
    2  A    between atoms: C_3  and  C_17
    3  A    between atoms: C_5  and  C_18
    4  A    between atoms: C_12  and  C_28
    5  A    between atoms: C_17  and  N_29
    6  A    between atoms: C_18  and  N_29
                            x       y       z     vdW  Elec       q    Type
                         _______ _______ _______ _____ _____    ______ ____

>  <TORSDO>
F 6

$$$$
