=
 OpenBabel11052419113D

 32 37  0  0  1  0  0  0  0  0999 V2000
  188.8890  174.8450  142.4790 C   0  0  2  0  0  3  0  0  0  0  0  0
  186.8440  176.2200  142.8320 C   0  0  2  0  0  3  0  0  0  0  0  0
  189.8270  174.2950  141.4080 C   0  0  0  0  0  2  0  0  0  0  0  0
  188.0530  176.0030  141.9400 C   0  0  2  0  0  3  0  0  0  0  0  0
  186.2050  177.5120  142.3970 C   0  0  0  0  0  0  0  0  0  0  0  0
  185.6330  177.7420  147.5000 C   0  0  0  0  0  2  0  0  0  0  0  0
  187.1490  176.0510  144.3450 C   0  0  1  0  0  3  0  0  0  0  0  0
  185.4250  179.2980  145.5560 C   0  0  0  0  0  2  0  0  0  0  0  0
  186.3280  178.3970  144.7210 C   0  0  2  0  0  3  0  0  0  0  0  0
  187.5770  175.8560  140.5200 C   0  0  0  0  0  0  0  0  0  0  0  0
  185.9420  178.4920  143.2760 C   0  0  0  0  0  3  0  0  0  0  0  0
  186.6670  176.9220  139.9550 C   0  0  0  0  0  2  0  0  0  0  0  0
  188.0790  174.9130  139.7090 C   0  0  0  0  0  3  0  0  0  0  0  0
  188.6500  176.2080  144.6560 C   0  0  0  0  0  2  0  0  0  0  0  0
  189.5370  175.2460  143.8350 C   0  0  2  0  0  3  0  0  0  0  0  0
  186.2450  176.9430  145.2030 C   0  0  2  0  0  3  0  0  0  0  0  0
  185.9330  177.6800  140.9870 N   0  0  0  0  0  0  0  0  0  0  0  0
  188.9990  173.8290  140.2120 C   0  0  0  0  0  2  0  0  0  0  0  0
  185.7890  179.1850  147.0330 C   0  0  0  0  0  2  0  0  0  0  0  0
  186.5530  176.8260  146.6960 C   0  0  0  0  0  2  0  0  0  0  0  0
  185.0100  178.7060  140.5170 C   0  0  0  0  0  2  0  0  0  0  0  0
  183.5930  178.1610  140.4860 C   0  0  0  0  0  1  0  0  0  0  0  0
  190.9500  175.8540  143.7820 C   0  0  2  0  0  3  0  0  0  0  0  0
  191.1910  176.5820  142.6130 O   0  0  0  0  0  1  0  0  0  0  0  0
  192.1000  174.8850  144.0990 C   0  0  2  0  0  3  0  0  0  0  0  0
  191.6440  173.4790  144.4520 C   0  0  0  0  0  1  0  0  0  0  0  0
  193.1400  175.4220  145.0970 C   0  0  2  0  0  3  0  0  0  0  0  0
  193.8570  174.3140  145.8510 C   0  0  0  0  0  1  0  0  0  0  0  0
  192.5270  176.4020  146.0860 C   0  0  0  0  0  2  0  0  0  0  0  0
  191.3690  176.6390  148.2510 C   0  0  0  0  0  2  0  0  0  0  0  0
  192.2110  175.7110  147.3990 C   0  0  0  0  0  3  0  0  0  0  0  0
  190.7150  175.5040  147.4930 C   0  0  0  0  0  2  0  0  0  0  0  0
  1  3  1  6  0  0  0
  1 15  1  0  0  0  0
  2  5  1  1  0  0  0
  2  7  1  0  0  0  0
  4 10  1  6  0  0  0
  4  1  1  0  0  0  0
  4  2  1  0  0  0  0
  5 11  2  0  0  0  0
  7 14  1  6  0  0  0
  7 16  1  0  0  0  0
  8 19  1  0  0  0  0
  9 11  1  6  0  0  0
  9 16  1  0  0  0  0
  9  8  1  0  0  0  0
 12 10  1  0  0  0  0
 12 17  1  0  0  0  0
 13 18  1  0  0  0  0
 13 10  2  0  0  0  0
 15 23  1  6  0  0  0
 15 14  1  0  0  0  0
 16 20  1  1  0  0  0
 17  5  1  0  0  0  0
 18  3  1  0  0  0  0
 19  6  1  0  0  0  0
 20  6  1  0  0  0  0
 21 17  1  0  0  0  0
 22 21  1  0  0  0  0
 23 24  1  6  0  0  0
 23 25  1  0  0  0  0
 25 26  1  1  0  0  0
 25 27  1  0  0  0  0
 27 28  1  1  0  0  0
 27 29  1  0  0  0  0
 29 31  1  0  0  0  0
 31 32  1  0  0  0  0
 31 30  1  0  0  0  0
 32 30  1  0  0  0  0
M  END
>  <MODEL>
1

>  <REMARK>
 VINA RESULT:      -8.1      0.000      0.000
  Name = 
  6 active torsions:
  status: ('A' for Active; 'I' for Inactive)
    1  A    between atoms: C_3  and  C_15
    2  A    between atoms: C_3  and  C_22
    3  A    between atoms: C_13  and  N_29
    4  A    between atoms: C_15  and  C_19
    5  A    between atoms: C_16  and  C_22
    6  A    between atoms: C_16  and  C_27
                            x       y       z     vdW  Elec       q    Type
                         _______ _______ _______ _____ _____    ______ ____

>  <TORSDO>
F 6

$$$$
=
 OpenBabel11052419113D

 32 37  0  0  1  0  0  0  0  0999 V2000
  189.1470  174.8890  142.9380 C   0  0  2  0  0  3  0  0  0  0  0  0
  187.0630  176.2210  143.2240 C   0  0  2  0  0  3  0  0  0  0  0  0
  190.1160  174.3360  141.8960 C   0  0  0  0  0  2  0  0  0  0  0  0
  188.2920  176.0110  142.3570 C   0  0  2  0  0  3  0  0  0  0  0  0
  186.3990  177.4840  142.7450 C   0  0  0  0  0  0  0  0  0  0  0  0
  185.7390  177.8310  147.8300 C   0  0  0  0  0  2  0  0  0  0  0  0
  187.3480  176.0990  144.7450 C   0  0  1  0  0  3  0  0  0  0  0  0
  185.5230  179.3310  145.8430 C   0  0  0  0  0  2  0  0  0  0  0  0
  186.4620  178.4310  145.0470 C   0  0  2  0  0  3  0  0  0  0  0  0
  187.8420  175.8160  140.9330 C   0  0  0  0  0  0  0  0  0  0  0  0
  186.0980  178.4790  143.5930 C   0  0  0  0  0  3  0  0  0  0  0  0
  186.9150  176.8430  140.3270 C   0  0  0  0  0  2  0  0  0  0  0  0
  188.3810  174.8650  140.1560 C   0  0  0  0  0  3  0  0  0  0  0  0
  188.8390  176.3020  145.0750 C   0  0  0  0  0  2  0  0  0  0  0  0
  189.7630  175.3420  144.2930 C   0  0  2  0  0  3  0  0  0  0  0  0
  186.4070  176.9890  145.5650 C   0  0  2  0  0  3  0  0  0  0  0  0
  186.1460  177.6090  141.3270 N   0  0  0  0  0  0  0  0  0  0  0  0
  189.3200  173.8180  140.7000 C   0  0  0  0  0  2  0  0  0  0  0  0
  185.8670  179.2640  147.3280 C   0  0  0  0  0  2  0  0  0  0  0  0
  186.6950  176.9180  147.0650 C   0  0  0  0  0  2  0  0  0  0  0  0
  185.2050  178.5980  140.8150 C   0  0  0  0  0  2  0  0  0  0  0  0
  183.8180  177.9920  140.7030 C   0  0  0  0  0  1  0  0  0  0  0  0
  191.1610  175.9840  144.2460 C   0  0  2  0  0  3  0  0  0  0  0  0
  191.4200  176.6490  143.0440 O   0  0  0  0  0  1  0  0  0  0  0  0
  192.3250  175.0660  144.6530 C   0  0  2  0  0  3  0  0  0  0  0  0
  191.9070  173.6390  144.9650 C   0  0  0  0  0  1  0  0  0  0  0  0
  193.2550  175.6440  145.7330 C   0  0  2  0  0  3  0  0  0  0  0  0
  192.4970  176.3490  146.8460 C   0  0  0  0  0  1  0  0  0  0  0  0
  194.2950  176.5870  145.1450 C   0  0  0  0  0  2  0  0  0  0  0  0
  196.2600  176.5940  143.6550 C   0  0  0  0  0  2  0  0  0  0  0  0
  194.8770  176.0130  143.8670 C   0  0  0  0  0  3  0  0  0  0  0  0
  196.1030  175.1960  144.2150 C   0  0  0  0  0  2  0  0  0  0  0  0
  1  3  1  6  0  0  0
  1 15  1  0  0  0  0
  2  5  1  1  0  0  0
  2  7  1  0  0  0  0
  4 10  1  6  0  0  0
  4  1  1  0  0  0  0
  4  2  1  0  0  0  0
  5 11  2  0  0  0  0
  7 14  1  6  0  0  0
  7 16  1  0  0  0  0
  8 19  1  0  0  0  0
  9 11  1  6  0  0  0
  9 16  1  0  0  0  0
  9  8  1  0  0  0  0
 12 10  1  0  0  0  0
 12 17  1  0  0  0  0
 13 18  1  0  0  0  0
 13 10  2  0  0  0  0
 15 23  1  6  0  0  0
 15 14  1  0  0  0  0
 16 20  1  1  0  0  0
 17  5  1  0  0  0  0
 18  3  1  0  0  0  0
 19  6  1  0  0  0  0
 20  6  1  0  0  0  0
 21 17  1  0  0  0  0
 22 21  1  0  0  0  0
 23 24  1  6  0  0  0
 23 25  1  0  0  0  0
 25 26  1  1  0  0  0
 25 27  1  0  0  0  0
 27 28  1  1  0  0  0
 29 27  1  0  0  0  0
 30 31  1  0  0  0  0
 30 32  1  0  0  0  0
 31 32  1  0  0  0  0
 31 29  1  0  0  0  0
M  END
>  <MODEL>
2

>  <REMARK>
 VINA RESULT:      -7.8      1.059      1.950
  Name = 
  6 active torsions:
  status: ('A' for Active; 'I' for Inactive)
    1  A    between atoms: C_3  and  C_15
    2  A    between atoms: C_3  and  C_22
    3  A    between atoms: C_13  and  N_29
    4  A    between atoms: C_15  and  C_19
    5  A    between atoms: C_16  and  C_22
    6  A    between atoms: C_16  and  C_27
                            x       y       z     vdW  Elec       q    Type
                         _______ _______ _______ _____ _____    ______ ____

>  <TORSDO>
F 6

$$$$
=
 OpenBabel11052419113D

 32 37  0  0  1  0  0  0  0  0999 V2000
  190.9300  175.5570  146.6950 C   0  0  2  0  0  3  0  0  0  0  0  0
  192.2710  174.5090  144.8780 C   0  0  2  0  0  3  0  0  0  0  0  0
  190.9120  176.7070  147.6980 C   0  0  0  0  0  2  0  0  0  0  0  0
  191.9360  175.8150  145.5770 C   0  0  2  0  0  3  0  0  0  0  0  0
  193.0630  174.8620  143.6480 C   0  0  0  0  0  0  0  0  0  0  0  0
  190.1610  170.9820  141.9320 C   0  0  0  0  0  2  0  0  0  0  0  0
  191.0470  173.5730  144.6920 C   0  0  1  0  0  3  0  0  0  0  0  0
  191.6200  172.7570  140.9510 C   0  0  0  0  0  2  0  0  0  0  0  0
  191.4660  173.5990  142.2140 C   0  0  2  0  0  3  0  0  0  0  0  0
  193.2240  176.4730  145.9980 C   0  0  0  0  0  0  0  0  0  0  0  0
  192.7060  174.4130  142.4340 C   0  0  0  0  0  3  0  0  0  0  0  0
  194.3010  176.6710  144.9590 C   0  0  0  0  0  2  0  0  0  0  0  0
  193.3560  177.0340  147.2090 C   0  0  0  0  0  3  0  0  0  0  0  0
  189.7120  174.3370  144.7760 C   0  0  0  0  0  2  0  0  0  0  0  0
  189.5610  175.1380  146.0880 C   0  0  2  0  0  3  0  0  0  0  0  0
  191.1860  172.7110  143.4330 C   0  0  2  0  0  3  0  0  0  0  0  0
  194.1950  175.7470  143.8130 N   0  0  0  0  0  0  0  0  0  0  0  0
  192.3110  176.8790  148.2860 C   0  0  0  0  0  2  0  0  0  0  0  0
  190.3760  171.9020  140.7360 C   0  0  0  0  0  2  0  0  0  0  0  0
  189.9740  171.8070  143.2040 C   0  0  0  0  0  2  0  0  0  0  0  0
  195.2200  175.8570  142.7820 C   0  0  0  0  0  2  0  0  0  0  0  0
  196.4430  176.5680  143.3340 C   0  0  0  0  0  1  0  0  0  0  0  0
  188.5390  176.2590  145.8280 C   0  0  2  0  0  3  0  0  0  0  0  0
  187.3190  176.0510  146.4770 O   0  0  0  0  0  1  0  0  0  0  0  0
  188.3420  176.6480  144.3540 C   0  0  2  0  0  3  0  0  0  0  0  0
  189.2560  177.7680  143.8830 C   0  0  0  0  0  1  0  0  0  0  0  0
  186.8810  176.8820  143.9380 C   0  0  2  0  0  3  0  0  0  0  0  0
  186.4740  176.0550  142.7300 C   0  0  0  0  0  1  0  0  0  0  0  0
  186.5930  178.3530  143.6720 C   0  0  0  0  0  2  0  0  0  0  0  0
  184.5360  179.4590  144.4640 C   0  0  0  0  0  2  0  0  0  0  0  0
  185.9180  178.9920  144.8710 C   0  0  0  0  0  3  0  0  0  0  0  0
  184.7020  178.1700  145.2410 C   0  0  0  0  0  2  0  0  0  0  0  0
  1  3  1  6  0  0  0
  2  5  1  6  0  0  0
  2  4  1  0  0  0  0
  3 18  1  0  0  0  0
  4 10  1  1  0  0  0
  4  1  1  0  0  0  0
  5 17  1  0  0  0  0
  6 20  1  0  0  0  0
  7 14  1  6  0  0  0
  7  2  1  0  0  0  0
  9  8  1  6  0  0  0
  9 11  1  0  0  0  0
  9 16  1  0  0  0  0
 10 13  2  0  0  0  0
 11  5  2  0  0  0  0
 12 10  1  0  0  0  0
 13 18  1  0  0  0  0
 14 15  1  0  0  0  0
 15 23  1  6  0  0  0
 15  1  1  0  0  0  0
 16 20  1  6  0  0  0
 16  7  1  0  0  0  0
 17 12  1  0  0  0  0
 19  8  1  0  0  0  0
 19  6  1  0  0  0  0
 21 22  1  0  0  0  0
 21 17  1  0  0  0  0
 23 24  1  6  0  0  0
 25 26  1  1  0  0  0
 25 23  1  0  0  0  0
 27 28  1  6  0  0  0
 27 25  1  0  0  0  0
 29 27  1  0  0  0  0
 29 31  1  0  0  0  0
 30 31  1  0  0  0  0
 30 32  1  0  0  0  0
 31 32  1  0  0  0  0
M  END
>  <MODEL>
3

>  <REMARK>
 VINA RESULT:      -7.5      2.663      7.606
  Name = 
  6 active torsions:
  status: ('A' for Active; 'I' for Inactive)
    1  A    between atoms: C_3  and  C_15
    2  A    between atoms: C_3  and  C_22
    3  A    between atoms: C_13  and  N_29
    4  A    between atoms: C_15  and  C_19
    5  A    between atoms: C_16  and  C_22
    6  A    between atoms: C_16  and  C_27
                            x       y       z     vdW  Elec       q    Type
                         _______ _______ _______ _____ _____    ______ ____

>  <TORSDO>
F 6

$$$$
=
 OpenBabel11052419113D

 32 37  0  0  1  0  0  0  0  0999 V2000
  189.7550  175.6060  146.0080 C   0  0  2  0  0  3  0  0  0  0  0  0
  190.8950  174.3740  144.1690 C   0  0  2  0  0  3  0  0  0  0  0  0
  190.0020  176.4690  147.2420 C   0  0  0  0  0  2  0  0  0  0  0  0
  190.9880  175.5620  145.1080 C   0  0  2  0  0  3  0  0  0  0  0  0
  191.9990  174.5270  143.1580 C   0  0  0  0  0  0  0  0  0  0  0  0
  188.1880  172.6700  140.2520 C   0  0  0  0  0  2  0  0  0  0  0  0
  189.4620  174.1220  143.6250 C   0  0  1  0  0  3  0  0  0  0  0  0
  190.4170  173.7410  139.8930 C   0  0  0  0  0  2  0  0  0  0  0  0
  190.3620  174.3510  141.2900 C   0  0  2  0  0  3  0  0  0  0  0  0
  192.3130  175.5030  145.8220 C   0  0  0  0  0  0  0  0  0  0  0  0
  191.7510  174.4830  141.8400 C   0  0  0  0  0  3  0  0  0  0  0  0
  193.5670  175.3630  144.9930 C   0  0  0  0  0  2  0  0  0  0  0  0
  192.4080  175.7470  147.1370 C   0  0  0  0  0  3  0  0  0  0  0  0
  188.5730  175.3770  143.7260 C   0  0  0  0  0  2  0  0  0  0  0  0
  188.4950  175.9420  145.1610 C   0  0  2  0  0  3  0  0  0  0  0  0
  189.4950  173.5000  142.2250 C   0  0  2  0  0  3  0  0  0  0  0  0
  193.3320  174.7770  143.6590 N   0  0  0  0  0  0  0  0  0  0  0  0
  191.1920  175.9050  148.0160 C   0  0  0  0  0  2  0  0  0  0  0  0
  189.0050  173.5740  139.3380 C   0  0  0  0  0  2  0  0  0  0  0  0
  188.0950  173.2790  141.6490 C   0  0  0  0  0  2  0  0  0  0  0  0
  194.5030  174.5810  142.8110 C   0  0  0  0  0  2  0  0  0  0  0  0
  195.5540  175.6330  143.1200 C   0  0  0  0  0  1  0  0  0  0  0  0
  188.1020  177.4260  145.0510 C   0  0  2  0  0  3  0  0  0  0  0  0
  189.2050  178.2840  145.0100 O   0  0  0  0  0  1  0  0  0  0  0  0
  187.0410  177.9080  146.0540 C   0  0  2  0  0  3  0  0  0  0  0  0
  186.3970  176.7890  146.8560 C   0  0  0  0  0  1  0  0  0  0  0  0
  185.9970  178.8770  145.4740 C   0  0  2  0  0  3  0  0  0  0  0  0
  184.5930  178.6030  145.9860 C   0  0  0  0  0  1  0  0  0  0  0  0
  185.9980  178.8720  143.9520 C   0  0  0  0  0  2  0  0  0  0  0  0
  184.5830  178.2600  142.0280 C   0  0  0  0  0  2  0  0  0  0  0  0
  185.0170  177.8450  143.4190 C   0  0  0  0  0  3  0  0  0  0  0  0
  185.6250  177.1760  142.2050 C   0  0  0  0  0  2  0  0  0  0  0  0
  1  3  1  1  0  0  0
  2  5  1  6  0  0  0
  2  4  1  0  0  0  0
  3 18  1  0  0  0  0
  4 10  1  1  0  0  0
  4  1  1  0  0  0  0
  5 17  1  0  0  0  0
  6 20  1  0  0  0  0
  7 14  1  6  0  0  0
  7  2  1  0  0  0  0
  9  8  1  6  0  0  0
  9 11  1  0  0  0  0
  9 16  1  0  0  0  0
 10 13  2  0  0  0  0
 11  5  2  0  0  0  0
 12 10  1  0  0  0  0
 13 18  1  0  0  0  0
 14 15  1  0  0  0  0
 15 23  1  6  0  0  0
 15  1  1  0  0  0  0
 16 20  1  6  0  0  0
 16  7  1  0  0  0  0
 17 12  1  0  0  0  0
 19  8  1  0  0  0  0
 19  6  1  0  0  0  0
 21 22  1  0  0  0  0
 21 17  1  0  0  0  0
 23 24  1  1  0  0  0
 23 25  1  0  0  0  0
 25 26  1  6  0  0  0
 27 28  1  1  0  0  0
 27 25  1  0  0  0  0
 29 27  1  0  0  0  0
 30 32  1  0  0  0  0
 30 31  1  0  0  0  0
 31 29  1  0  0  0  0
 32 31  1  0  0  0  0
M  END
>  <MODEL>
4

>  <REMARK>
 VINA RESULT:      -7.4      2.078      7.388
  Name = 
  6 active torsions:
  status: ('A' for Active; 'I' for Inactive)
    1  A    between atoms: C_3  and  C_15
    2  A    between atoms: C_3  and  C_22
    3  A    between atoms: C_13  and  N_29
    4  A    between atoms: C_15  and  C_19
    5  A    between atoms: C_16  and  C_22
    6  A    between atoms: C_16  and  C_27
                            x       y       z     vdW  Elec       q    Type
                         _______ _______ _______ _____ _____    ______ ____

>  <TORSDO>
F 6

$$$$
=
 OpenBabel11052419113D

 32 37  0  0  1  0  0  0  0  0999 V2000
  190.9980  176.1480  142.8470 C   0  0  2  0  0  3  0  0  0  0  0  0
  190.0820  177.0340  144.9870 C   0  0  2  0  0  3  0  0  0  0  0  0
  192.2340  175.5210  142.2100 C   0  0  0  0  0  2  0  0  0  0  0  0
  191.0420  176.0330  144.3690 C   0  0  2  0  0  3  0  0  0  0  0  0
  189.9890  176.7050  146.4520 C   0  0  0  0  0  0  0  0  0  0  0  0
  185.1340  178.0020  145.3740 C   0  0  0  0  0  2  0  0  0  0  0  0
  188.7490  177.1800  144.2040 C   0  0  1  0  0  3  0  0  0  0  0  0
  186.3670  176.8890  147.2420 C   0  0  0  0  0  2  0  0  0  0  0  0
  187.5100  176.5390  146.2950 C   0  0  2  0  0  3  0  0  0  0  0  0
  192.3970  176.2220  144.9970 C   0  0  0  0  0  0  0  0  0  0  0  0
  188.8040  176.5120  147.0510 C   0  0  0  0  0  3  0  0  0  0  0  0
  192.4960  176.2150  146.5040 C   0  0  0  0  0  2  0  0  0  0  0  0
  193.5160  176.2180  144.2570 C   0  0  0  0  0  3  0  0  0  0  0  0
  188.4650  175.9620  143.3050 C   0  0  0  0  0  2  0  0  0  0  0  0
  189.6180  175.6620  142.3200 C   0  0  2  0  0  3  0  0  0  0  0  0
  187.5880  177.5420  145.1370 C   0  0  2  0  0  3  0  0  0  0  0  0
  191.2280  176.5520  147.1810 N   0  0  0  0  0  0  0  0  0  0  0  0
  193.4820  176.2170  142.7490 C   0  0  0  0  0  2  0  0  0  0  0  0
  185.0490  176.9500  146.4740 C   0  0  0  0  0  2  0  0  0  0  0  0
  186.2540  177.6520  144.3970 C   0  0  0  0  0  2  0  0  0  0  0  0
  191.2530  176.5960  148.6390 C   0  0  0  0  0  2  0  0  0  0  0  0
  191.5130  178.0140  149.1150 C   0  0  0  0  0  1  0  0  0  0  0  0
  189.5050  174.1820  141.9160 C   0  0  2  0  0  3  0  0  0  0  0  0
  188.2770  173.6100  142.2620 O   0  0  0  0  0  1  0  0  0  0  0  0
  190.6870  173.2900  142.3310 C   0  0  2  0  0  3  0  0  0  0  0  0
  191.3200  172.5290  141.1770 C   0  0  0  0  0  1  0  0  0  0  0  0
  190.4170  172.3820  143.5420 C   0  0  2  0  0  3  0  0  0  0  0  0
  189.8690  173.1440  144.7370 C   0  0  0  0  0  1  0  0  0  0  0  0
  191.6550  171.6000  143.9560 C   0  0  0  0  0  2  0  0  0  0  0  0
  193.8290  171.6700  145.1180 C   0  0  0  0  0  2  0  0  0  0  0  0
  192.6400  172.4990  144.6790 C   0  0  0  0  0  3  0  0  0  0  0  0
  193.9290  172.5460  143.8870 C   0  0  0  0  0  2  0  0  0  0  0  0
  1  3  1  6  0  0  0
  1  4  1  0  0  0  0
  2  5  1  1  0  0  0
  3 18  1  0  0  0  0
  4  2  1  0  0  0  0
  4 10  1  1  0  0  0
  5 11  2  0  0  0  0
  5 17  1  0  0  0  0
  6 19  1  0  0  0  0
  7 14  1  1  0  0  0
  7  2  1  0  0  0  0
  7 16  1  0  0  0  0
  9 11  1  1  0  0  0
  9  8  1  0  0  0  0
 10 12  1  0  0  0  0
 12 17  1  0  0  0  0
 13 10  2  0  0  0  0
 15 23  1  1  0  0  0
 15  1  1  0  0  0  0
 15 14  1  0  0  0  0
 16 20  1  6  0  0  0
 16  9  1  0  0  0  0
 17 21  1  0  0  0  0
 18 13  1  0  0  0  0
 19  8  1  0  0  0  0
 20  6  1  0  0  0  0
 21 22  1  0  0  0  0
 23 24  1  1  0  0  0
 23 25  1  0  0  0  0
 25 26  1  6  0  0  0
 25 27  1  0  0  0  0
 27 29  1  0  0  0  0
 27 28  1  1  0  0  0
 29 31  1  0  0  0  0
 31 30  1  0  0  0  0
 32 31  1  0  0  0  0
 32 30  1  0  0  0  0
M  END
>  <MODEL>
5

>  <REMARK>
 VINA RESULT:      -7.2      2.523      5.207
  Name = 
  6 active torsions:
  status: ('A' for Active; 'I' for Inactive)
    1  A    between atoms: C_3  and  C_15
    2  A    between atoms: C_3  and  C_22
    3  A    between atoms: C_13  and  N_29
    4  A    between atoms: C_15  and  C_19
    5  A    between atoms: C_16  and  C_22
    6  A    between atoms: C_16  and  C_27
                            x       y       z     vdW  Elec       q    Type
                         _______ _______ _______ _____ _____    ______ ____

>  <TORSDO>
F 6

$$$$
=
 OpenBabel11052419113D

 32 37  0  0  1  0  0  0  0  0999 V2000
  190.2470  176.4980  143.6970 C   0  0  2  0  0  3  0  0  0  0  0  0
  188.1460  177.7280  144.2210 C   0  0  2  0  0  3  0  0  0  0  0  0
  191.4290  175.7680  144.3280 C   0  0  0  0  0  2  0  0  0  0  0  0
  189.0910  176.6340  144.6850 C   0  0  2  0  0  3  0  0  0  0  0  0
  186.9200  177.6450  145.0890 C   0  0  0  0  0  0  0  0  0  0  0  0
  184.8720  178.7710  140.5110 C   0  0  0  0  0  2  0  0  0  0  0  0
  187.9300  177.7500  142.6840 C   0  0  1  0  0  3  0  0  0  0  0  0
  184.0660  177.9750  142.7380 C   0  0  0  0  0  2  0  0  0  0  0  0
  185.4640  177.4680  143.0770 C   0  0  2  0  0  3  0  0  0  0  0  0
  189.4830  176.9180  146.1110 C   0  0  0  0  0  0  0  0  0  0  0  0
  185.6910  177.5590  144.5560 C   0  0  0  0  0  3  0  0  0  0  0  0
  188.3870  177.1570  147.1220 C   0  0  0  0  0  2  0  0  0  0  0  0
  190.7520  176.7860  146.5250 C   0  0  0  0  0  3  0  0  0  0  0  0
  188.2830  176.4020  142.0270 C   0  0  0  0  0  2  0  0  0  0  0  0
  189.7220  175.9390  142.3440 C   0  0  2  0  0  3  0  0  0  0  0  0
  186.5330  178.2670  142.3210 C   0  0  2  0  0  3  0  0  0  0  0  0
  187.1170  177.6070  146.5210 N   0  0  0  0  0  0  0  0  0  0  0  0
  191.8890  176.5370  145.5650 C   0  0  0  0  0  2  0  0  0  0  0  0
  183.8370  177.9150  141.2310 C   0  0  0  0  0  2  0  0  0  0  0  0
  186.2790  178.2600  140.8130 C   0  0  0  0  0  2  0  0  0  0  0  0
  186.0190  177.8900  147.4380 C   0  0  0  0  0  2  0  0  0  0  0  0
  185.9410  179.3810  147.7180 C   0  0  0  0  0  1  0  0  0  0  0  0
  189.7680  174.4130  142.1530 C   0  0  2  0  0  3  0  0  0  0  0  0
  191.0220  173.9470  141.7490 O   0  0  0  0  0  1  0  0  0  0  0  0
  188.6350  173.8180  141.3000 C   0  0  2  0  0  3  0  0  0  0  0  0
  187.8830  172.6830  141.9770 C   0  0  0  0  0  1  0  0  0  0  0  0
  189.0320  173.4670  139.8560 C   0  0  2  0  0  3  0  0  0  0  0  0
  188.1920  174.1980  138.8220 C   0  0  0  0  0  1  0  0  0  0  0  0
  188.9730  171.9680  139.5970 C   0  0  0  0  0  2  0  0  0  0  0  0
  190.6230  170.1910  139.1480 C   0  0  0  0  0  2  0  0  0  0  0  0
  190.1060  171.5370  138.6850 C   0  0  0  0  0  3  0  0  0  0  0  0
  189.6920  170.2760  137.9570 C   0  0  0  0  0  2  0  0  0  0  0  0
  1  3  1  1  0  0  0
  1  4  1  0  0  0  0
  2  4  1  0  0  0  0
  2  5  1  1  0  0  0
  3 18  1  0  0  0  0
  4 10  1  1  0  0  0
  5 17  1  0  0  0  0
  6 20  1  0  0  0  0
  6 19  1  0  0  0  0
  7 14  1  1  0  0  0
  7  2  1  0  0  0  0
  9  8  1  1  0  0  0
  9 11  1  0  0  0  0
 10 13  2  0  0  0  0
 10 12  1  0  0  0  0
 11  5  2  0  0  0  0
 14 15  1  0  0  0  0
 15 23  1  1  0  0  0
 15  1  1  0  0  0  0
 16 20  1  6  0  0  0
 16  7  1  0  0  0  0
 16  9  1  0  0  0  0
 17 12  1  0  0  0  0
 17 21  1  0  0  0  0
 18 13  1  0  0  0  0
 19  8  1  0  0  0  0
 21 22  1  0  0  0  0
 23 24  1  6  0  0  0
 25 26  1  1  0  0  0
 25 23  1  0  0  0  0
 27 28  1  6  0  0  0
 27 25  1  0  0  0  0
 29 27  1  0  0  0  0
 31 30  1  0  0  0  0
 31 29  1  0  0  0  0
 32 31  1  0  0  0  0
 32 30  1  0  0  0  0
M  END
>  <MODEL>
6

>  <REMARK>
 VINA RESULT:      -7.1      1.999      5.989
  Name = 
  6 active torsions:
  status: ('A' for Active; 'I' for Inactive)
    1  A    between atoms: C_3  and  C_15
    2  A    between atoms: C_3  and  C_22
    3  A    between atoms: C_13  and  N_29
    4  A    between atoms: C_15  and  C_19
    5  A    between atoms: C_16  and  C_22
    6  A    between atoms: C_16  and  C_27
                            x       y       z     vdW  Elec       q    Type
                         _______ _______ _______ _____ _____    ______ ____

>  <TORSDO>
F 6

$$$$
=
 OpenBabel11052419113D

 32 37  0  0  1  0  0  0  0  0999 V2000
  189.7780  175.0290  143.4930 C   0  0  2  0  0  3  0  0  0  0  0  0
  188.0570  176.7220  144.1040 C   0  0  2  0  0  3  0  0  0  0  0  0
  190.7540  174.0090  144.0720 C   0  0  0  0  0  2  0  0  0  0  0  0
  188.7100  175.4140  144.5140 C   0  0  2  0  0  3  0  0  0  0  0  0
  186.8650  176.9160  145.0010 C   0  0  0  0  0  0  0  0  0  0  0  0
  185.0780  178.6660  140.5110 C   0  0  0  0  0  2  0  0  0  0  0  0
  187.8260  176.8490  142.5750 C   0  0  1  0  0  3  0  0  0  0  0  0
  184.1400  178.0200  142.7350 C   0  0  0  0  0  2  0  0  0  0  0  0
  185.3740  177.1720  143.0230 C   0  0  2  0  0  3  0  0  0  0  0  0
  189.1860  175.5440  145.9360 C   0  0  0  0  0  0  0  0  0  0  0  0
  185.6440  177.1540  144.4980 C   0  0  0  0  0  3  0  0  0  0  0  0
  188.2020  176.0130  146.9810 C   0  0  0  0  0  2  0  0  0  0  0  0
  190.3900  175.0890  146.3130 C   0  0  0  0  0  3  0  0  0  0  0  0
  187.8220  175.4780  141.8710 C   0  0  0  0  0  2  0  0  0  0  0  0
  189.1060  174.6630  142.1380 C   0  0  2  0  0  3  0  0  0  0  0  0
  186.5940  177.7060  142.2630 C   0  0  2  0  0  3  0  0  0  0  0  0
  187.0720  176.7830  146.4260 N   0  0  0  0  0  0  0  0  0  0  0  0
  191.4120  174.5990  145.3170 C   0  0  0  0  0  2  0  0  0  0  0  0
  183.8760  178.0690  141.2330 C   0  0  0  0  0  2  0  0  0  0  0  0
  186.3200  177.8140  140.7620 C   0  0  0  0  0  2  0  0  0  0  0  0
  186.0960  177.2970  147.3790 C   0  0  0  0  0  2  0  0  0  0  0  0
  186.6070  178.5800  148.0110 C   0  0  0  0  0  1  0  0  0  0  0  0
  188.7680  173.1800  141.9040 C   0  0  2  0  0  3  0  0  0  0  0  0
  188.5700  172.4680  143.0900 O   0  0  0  0  0  1  0  0  0  0  0  0
  189.7020  172.4320  140.9380 C   0  0  2  0  0  3  0  0  0  0  0  0
  190.4410  171.2660  141.5720 C   0  0  0  0  0  1  0  0  0  0  0  0
  190.6410  173.3340  140.1200 C   0  0  2  0  0  3  0  0  0  0  0  0
  190.5150  173.1090  138.6220 C   0  0  0  0  0  1  0  0  0  0  0  0
  192.0940  173.1760  140.5420 C   0  0  0  0  0  2  0  0  0  0  0  0
  193.8200  174.2350  141.9500 C   0  0  0  0  0  2  0  0  0  0  0  0
  192.6660  174.5020  141.0050 C   0  0  0  0  0  3  0  0  0  0  0  0
  194.0910  174.6170  140.5100 C   0  0  0  0  0  2  0  0  0  0  0  0
  1  3  1  1  0  0  0
  1  4  1  0  0  0  0
  2  4  1  0  0  0  0
  2  5  1  1  0  0  0
  3 18  1  0  0  0  0
  4 10  1  1  0  0  0
  5 17  1  0  0  0  0
  6 20  1  0  0  0  0
  6 19  1  0  0  0  0
  7 14  1  1  0  0  0
  7  2  1  0  0  0  0
  9  8  1  1  0  0  0
  9 11  1  0  0  0  0
 10 13  2  0  0  0  0
 10 12  1  0  0  0  0
 11  5  2  0  0  0  0
 14 15  1  0  0  0  0
 15 23  1  1  0  0  0
 15  1  1  0  0  0  0
 16 20  1  6  0  0  0
 16  7  1  0  0  0  0
 16  9  1  0  0  0  0
 17 12  1  0  0  0  0
 17 21  1  0  0  0  0
 18 13  1  0  0  0  0
 19  8  1  0  0  0  0
 21 22  1  0  0  0  0
 23 24  1  1  0  0  0
 25 26  1  1  0  0  0
 25 23  1  0  0  0  0
 27 28  1  6  0  0  0
 27 29  1  0  0  0  0
 27 25  1  0  0  0  0
 29 31  1  0  0  0  0
 31 30  1  0  0  0  0
 32 31  1  0  0  0  0
 32 30  1  0  0  0  0
M  END
>  <MODEL>
7

>  <REMARK>
 VINA RESULT:      -7.1      2.127      5.259
  Name = 
  6 active torsions:
  status: ('A' for Active; 'I' for Inactive)
    1  A    between atoms: C_3  and  C_15
    2  A    between atoms: C_3  and  C_22
    3  A    between atoms: C_13  and  N_29
    4  A    between atoms: C_15  and  C_19
    5  A    between atoms: C_16  and  C_22
    6  A    between atoms: C_16  and  C_27
                            x       y       z     vdW  Elec       q    Type
                         _______ _______ _______ _____ _____    ______ ____

>  <TORSDO>
F 6

$$$$
=
 OpenBabel11052419113D

 32 37  0  0  1  0  0  0  0  0999 V2000
  193.4770  176.0350  143.1640 C   0  0  2  0  0  3  0  0  0  0  0  0
  191.7270  177.0490  144.6170 C   0  0  2  0  0  3  0  0  0  0  0  0
  194.8270  175.3240  143.1850 C   0  0  0  0  0  2  0  0  0  0  0  0
  192.8010  175.9790  144.5320 C   0  0  2  0  0  3  0  0  0  0  0  0
  190.9440  176.7840  145.8750 C   0  0  0  0  0  0  0  0  0  0  0  0
  187.2350  178.2650  142.6400 C   0  0  0  0  0  2  0  0  0  0  0  0
  190.9230  177.2270  143.3020 C   0  0  1  0  0  3  0  0  0  0  0  0
  187.3890  177.1720  144.8810 C   0  0  0  0  0  2  0  0  0  0  0  0
  188.8170  176.7300  144.5820 C   0  0  2  0  0  3  0  0  0  0  0  0
  193.7180  176.1290  145.7170 C   0  0  0  0  0  0  0  0  0  0  0  0
  189.6070  176.6720  145.8550 C   0  0  0  0  0  3  0  0  0  0  0  0
  193.1050  176.1780  147.0960 C   0  0  0  0  0  2  0  0  0  0  0  0
  195.0500  176.0420  145.5840 C   0  0  0  0  0  3  0  0  0  0  0  0
  191.0160  175.9880  142.3900 C   0  0  0  0  0  2  0  0  0  0  0  0
  192.4730  175.5940  142.0610 C   0  0  2  0  0  3  0  0  0  0  0  0
  189.4850  177.6810  143.5810 C   0  0  2  0  0  3  0  0  0  0  0  0
  191.6910  176.6020  147.1000 N   0  0  0  0  0  0  0  0  0  0  0  0
  195.7210  175.9820  144.2350 C   0  0  0  0  0  2  0  0  0  0  0  0
  186.5860  177.2640  143.5870 C   0  0  0  0  0  2  0  0  0  0  0  0
  188.6580  177.8240  142.3020 C   0  0  0  0  0  2  0  0  0  0  0  0
  191.0380  176.7030  148.4000 C   0  0  0  0  0  2  0  0  0  0  0  0
  191.5660  177.9080  149.1580 C   0  0  0  0  0  1  0  0  0  0  0  0
  192.4710  174.1060  141.6710 C   0  0  2  0  0  3  0  0  0  0  0  0
  191.7790  173.8490  140.4840 O   0  0  0  0  0  1  0  0  0  0  0  0
  192.0700  173.1290  142.7880 C   0  0  2  0  0  3  0  0  0  0  0  0
  192.4830  171.6890  142.5280 C   0  0  0  0  0  1  0  0  0  0  0  0
  190.6050  173.2350  143.2430 C   0  0  2  0  0  3  0  0  0  0  0  0
  190.4570  173.2290  144.7560 C   0  0  0  0  0  1  0  0  0  0  0  0
  189.7390  172.1390  142.6390 C   0  0  0  0  0  2  0  0  0  0  0  0
  187.4150  172.6760  142.0150 C   0  0  0  0  0  2  0  0  0  0  0  0
  188.8540  172.6980  141.5420 C   0  0  0  0  0  3  0  0  0  0  0  0
  188.2020  173.9690  142.0430 C   0  0  0  0  0  2  0  0  0  0  0  0
  1  3  1  1  0  0  0
  1  4  1  0  0  0  0
  2  5  1  1  0  0  0
  3 18  1  0  0  0  0
  4  2  1  0  0  0  0
  4 10  1  1  0  0  0
  5 17  1  0  0  0  0
  6 19  1  0  0  0  0
  7 14  1  1  0  0  0
  7 16  1  0  0  0  0
  7  2  1  0  0  0  0
  9  8  1  1  0  0  0
  9 11  1  0  0  0  0
 10 12  1  0  0  0  0
 11  5  2  0  0  0  0
 12 17  1  0  0  0  0
 13 10  2  0  0  0  0
 15 23  1  1  0  0  0
 15 14  1  0  0  0  0
 15  1  1  0  0  0  0
 16 20  1  6  0  0  0
 16  9  1  0  0  0  0
 17 21  1  0  0  0  0
 18 13  1  0  0  0  0
 19  8  1  0  0  0  0
 20  6  1  0  0  0  0
 21 22  1  0  0  0  0
 23 24  1  6  0  0  0
 23 25  1  0  0  0  0
 25 26  1  6  0  0  0
 25 27  1  0  0  0  0
 27 28  1  1  0  0  0
 29 27  1  0  0  0  0
 30 32  1  0  0  0  0
 31 30  1  0  0  0  0
 31 32  1  0  0  0  0
 31 29  1  0  0  0  0
M  END
>  <MODEL>
8

>  <REMARK>
 VINA RESULT:      -7.1      2.553      6.102
  Name = 
  6 active torsions:
  status: ('A' for Active; 'I' for Inactive)
    1  A    between atoms: C_3  and  C_15
    2  A    between atoms: C_3  and  C_22
    3  A    between atoms: C_13  and  N_29
    4  A    between atoms: C_15  and  C_19
    5  A    between atoms: C_16  and  C_22
    6  A    between atoms: C_16  and  C_27
                            x       y       z     vdW  Elec       q    Type
                         _______ _______ _______ _____ _____    ______ ____

>  <TORSDO>
F 6

$$$$
=
 OpenBabel11052419113D

 32 37  0  0  1  0  0  0  0  0999 V2000
  190.1680  176.0400  144.3190 C   0  0  2  0  0  3  0  0  0  0  0  0
  188.2170  177.5860  144.3700 C   0  0  2  0  0  3  0  0  0  0  0  0
  191.1750  175.3080  145.2020 C   0  0  0  0  0  2  0  0  0  0  0  0
  188.9550  176.4950  145.1260 C   0  0  2  0  0  3  0  0  0  0  0  0
  186.9140  177.8130  145.0890 C   0  0  0  0  0  0  0  0  0  0  0  0
  185.4800  178.2900  140.1770 C   0  0  0  0  0  2  0  0  0  0  0  0
  188.1510  177.3440  142.8380 C   0  0  1  0  0  3  0  0  0  0  0  0
  184.3660  178.0280  142.3980 C   0  0  0  0  0  2  0  0  0  0  0  0
  185.6430  177.4330  142.9820 C   0  0  2  0  0  3  0  0  0  0  0  0
  189.2470  176.9940  146.5160 C   0  0  0  0  0  0  0  0  0  0  0  0
  185.7410  177.7730  144.4390 C   0  0  0  0  0  3  0  0  0  0  0  0
  188.1040  177.5470  147.3340 C   0  0  0  0  0  2  0  0  0  0  0  0
  190.4410  176.7940  147.0920 C   0  0  0  0  0  3  0  0  0  0  0  0
  188.3760  175.8640  142.4730 C   0  0  0  0  0  2  0  0  0  0  0  0
  189.7010  175.3020  143.0330 C   0  0  2  0  0  3  0  0  0  0  0  0
  186.8780  177.9430  142.2300 C   0  0  2  0  0  3  0  0  0  0  0  0
  186.9690  178.0230  146.5190 N   0  0  0  0  0  0  0  0  0  0  0  0
  191.6180  176.2370  146.3310 C   0  0  0  0  0  2  0  0  0  0  0  0
  184.2740  177.7130  140.9090 C   0  0  0  0  0  2  0  0  0  0  0  0
  186.7690  177.6830  140.7260 C   0  0  0  0  0  2  0  0  0  0  0  0
  185.8400  178.6000  147.2380 C   0  0  0  0  0  2  0  0  0  0  0  0
  186.3190  179.7030  148.1650 C   0  0  0  0  0  1  0  0  0  0  0  0
  189.5540  173.7730  143.1180 C   0  0  2  0  0  3  0  0  0  0  0  0
  189.3760  173.3100  144.4250 O   0  0  0  0  0  1  0  0  0  0  0  0
  190.6220  172.9620  142.3650 C   0  0  2  0  0  3  0  0  0  0  0  0
  191.8210  173.7830  141.9190 C   0  0  0  0  0  1  0  0  0  0  0  0
  190.0780  172.0720  141.2350 C   0  0  2  0  0  3  0  0  0  0  0  0
  191.1270  171.7540  140.1820 C   0  0  0  0  0  1  0  0  0  0  0  0
  188.8520  172.6810  140.5700 C   0  0  0  0  0  2  0  0  0  0  0  0
  188.2180  173.2750  138.2620 C   0  0  0  0  0  2  0  0  0  0  0  0
  189.2500  173.4900  139.3500 C   0  0  0  0  0  3  0  0  0  0  0  0
  188.1890  174.5390  139.0950 C   0  0  0  0  0  2  0  0  0  0  0  0
  1  4  1  0  0  0  0
  1  3  1  1  0  0  0
  2  5  1  1  0  0  0
  2  4  1  0  0  0  0
  3 18  1  0  0  0  0
  4 10  1  1  0  0  0
  5 17  1  0  0  0  0
  6 20  1  0  0  0  0
  6 19  1  0  0  0  0
  7 14  1  1  0  0  0
  7  2  1  0  0  0  0
  9  8  1  6  0  0  0
  9 11  1  0  0  0  0
 10 13  2  0  0  0  0
 10 12  1  0  0  0  0
 11  5  2  0  0  0  0
 14 15  1  0  0  0  0
 15 23  1  1  0  0  0
 15  1  1  0  0  0  0
 16 20  1  6  0  0  0
 16  7  1  0  0  0  0
 16  9  1  0  0  0  0
 17 21  1  0  0  0  0
 17 12  1  0  0  0  0
 18 13  1  0  0  0  0
 19  8  1  0  0  0  0
 21 22  1  0  0  0  0
 23 24  1  1  0  0  0
 25 26  1  6  0  0  0
 25 23  1  0  0  0  0
 27 28  1  6  0  0  0
 27 25  1  0  0  0  0
 29 27  1  0  0  0  0
 30 32  1  0  0  0  0
 30 31  1  0  0  0  0
 31 29  1  0  0  0  0
 32 31  1  0  0  0  0
M  END
>  <MODEL>
9

>  <REMARK>
 VINA RESULT:      -6.9      1.868      5.685
  Name = 
  6 active torsions:
  status: ('A' for Active; 'I' for Inactive)
    1  A    between atoms: C_3  and  C_15
    2  A    between atoms: C_3  and  C_22
    3  A    between atoms: C_13  and  N_29
    4  A    between atoms: C_15  and  C_19
    5  A    between atoms: C_16  and  C_22
    6  A    between atoms: C_16  and  C_27
                            x       y       z     vdW  Elec       q    Type
                         _______ _______ _______ _____ _____    ______ ____

>  <TORSDO>
F 6

$$$$
