=
 OpenBabel11052417503D

 31 35  0  0  1  0  0  0  0  0999 V2000
  191.3940  171.1160  143.0370 C   0  0  0  0  0  0  0  0  0  0  0  0
  190.2440  174.4780  143.6210 N   0  0  0  0  0  0  0  0  0  0  0  0
  190.1200  173.0750  143.2820 C   0  0  2  0  0  3  0  0  0  0  0  0
  190.5800  170.7720  141.7710 C   0  0  0  0  0  2  0  0  0  0  0  0
  188.1860  174.7960  142.3160 C   0  0  1  0  0  3  0  0  0  0  0  0
  192.4930  170.2040  143.4550 C   0  0  0  0  0  1  0  0  0  0  0  0
  189.3100  174.3490  141.3880 C   0  0  1  0  0  3  0  0  0  0  0  0
  189.6070  175.2880  142.5660 C   0  0  2  0  0  3  0  0  0  0  0  0
  191.2190  172.2340  143.6720 N   0  0  0  0  0  0  0  0  0  0  0  0
  190.0660  173.0900  141.7990 C   0  0  2  0  0  3  0  0  0  0  0  0
  189.5780  171.7930  141.3640 N   0  0  0  0  0  2  0  0  0  0  0  0
  190.3550  174.9450  144.9780 C   0  0  0  0  0  0  0  0  0  0  0  0
  189.2540  175.2200  147.1620 N   0  0  0  0  0  2  0  0  0  0  0  0
  189.4620  174.3230  146.0290 C   0  0  0  0  0  2  0  0  0  0  0  0
  190.5630  175.5060  147.7320 C   0  0  0  0  0  2  0  0  0  0  0  0
  191.3550  176.3680  146.7570 C   0  0  0  0  0  2  0  0  0  0  0  0
  191.3180  175.8260  145.3450 C   0  0  0  0  0  0  0  0  0  0  0  0
  191.1820  178.4770  143.7030 C   0  0  0  0  0  1  0  0  0  0  0  0
  192.2500  177.4390  143.6180 C   0  0  0  0  0  3  0  0  0  0  0  0
  192.2920  176.3100  144.3340 C   0  0  0  0  0  3  0  0  0  0  0  0
  187.3850  175.8910  141.6400 C   0  0  0  0  0  2  0  0  0  0  0  0
  188.3610  178.0400  141.8310 O   0  0  0  0  0  0  0  0  0  0  0  0
  187.5940  177.1880  142.3520 C   0  0  0  0  0  0  0  0  0  0  0  0
  185.7600  177.9680  146.1580 C   0  0  0  0  0  0  0  0  0  0  0  0
  187.7310  177.6010  144.8090 C   0  0  0  0  0  3  0  0  0  0  0  0
  184.7250  177.4450  142.6980 F   0  0  0  0  0  0  0  0  0  0  0  0
  185.1360  178.2360  147.4800 C   0  0  0  0  0  1  0  0  0  0  0  0
  187.1460  177.8560  146.0500 C   0  0  0  0  0  3  0  0  0  0  0  0
  185.5380  177.5720  143.7760 C   0  0  0  0  0  0  0  0  0  0  0  0
  186.9400  177.4570  143.6560 C   0  0  0  0  0  0  0  0  0  0  0  0
  184.9580  177.8270  145.0240 C   0  0  0  0  0  3  0  0  0  0  0  0
  1  6  1  0  0  0  0
  1  9  2  0  0  0  0
  2 12  1  0  0  0  0
  3  2  1  0  0  0  0
  3  9  1  6  0  0  0
  4  1  1  0  0  0  0
  5 21  1  6  0  0  0
  5  8  1  0  0  0  0
  7 10  1  0  0  0  0
  7  5  1  0  0  0  0
  7  8  1  0  0  0  0
  8  2  1  0  0  0  0
 10  3  1  0  0  0  0
 11  4  1  0  0  0  0
 11 10  1  0  0  0  0
 12 17  2  0  0  0  0
 12 14  1  0  0  0  0
 13 15  1  0  0  0  0
 14 13  1  0  0  0  0
 16 15  1  0  0  0  0
 17 16  1  0  0  0  0
 19 18  1  0  0  0  0
 19 20  2  0  0  0  0
 20 17  1  0  0  0  0
 21 23  1  0  0  0  0
 22 23  2  0  0  0  0
 23 30  1  0  0  0  0
 24 27  1  0  0  0  0
 25 28  2  0  0  0  0
 26 29  1  0  0  0  0
 28 24  1  0  0  0  0
 29 31  1  0  0  0  0
 30 29  2  0  0  0  0
 30 25  1  0  0  0  0
 31 24  2  0  0  0  0
M  END
>  <MODEL>
1

>  <REMARK>
 VINA RESULT:      -7.5      0.000      0.000
  Name = 
  5 active torsions:
  status: ('A' for Active; 'I' for Inactive)
    1  A    between atoms: N_4  and  C_5
    2  A    between atoms: C_9  and  C_22
    3  A    between atoms: C_9  and  C_23
    4  A    between atoms: C_15  and  C_23
    5  A    between atoms: C_30  and  C_31
                            x       y       z     vdW  Elec       q    Type
                         _______ _______ _______ _____ _____    ______ ____

>  <TORSDO>
F 5

$$$$
=
 OpenBabel11052417503D

 31 35  0  0  1  0  0  0  0  0999 V2000
  191.4410  171.1460  143.1400 C   0  0  0  0  0  0  0  0  0  0  0  0
  190.5180  174.6010  143.5590 N   0  0  0  0  0  0  0  0  0  0  0  0
  190.3070  173.2010  143.2550 C   0  0  2  0  0  3  0  0  0  0  0  0
  190.6740  170.8210  141.8410 C   0  0  0  0  0  2  0  0  0  0  0  0
  188.5640  175.0270  142.1310 C   0  0  1  0  0  3  0  0  0  0  0  0
  192.4440  170.1700  143.6470 C   0  0  0  0  0  1  0  0  0  0  0  0
  189.7000  174.4670  141.2810 C   0  0  1  0  0  3  0  0  0  0  0  0
  190.0030  175.4200  142.4460 C   0  0  2  0  0  3  0  0  0  0  0  0
  191.3170  172.2950  143.7320 N   0  0  0  0  0  0  0  0  0  0  0  0
  190.3350  173.1710  141.7720 C   0  0  2  0  0  3  0  0  0  0  0  0
  189.7760  171.8990  141.3480 N   0  0  0  0  0  2  0  0  0  0  0  0
  190.5900  175.1050  144.9060 C   0  0  0  0  0  0  0  0  0  0  0  0
  189.3630  175.7050  146.9520 N   0  0  0  0  0  2  0  0  0  0  0  0
  189.4910  174.7290  145.8750 C   0  0  0  0  0  2  0  0  0  0  0  0
  190.6400  175.7500  147.6490 C   0  0  0  0  0  2  0  0  0  0  0  0
  191.6840  176.3840  146.7380 C   0  0  0  0  0  2  0  0  0  0  0  0
  191.6740  175.7910  145.3460 C   0  0  0  0  0  0  0  0  0  0  0  0
  194.3320  174.1610  145.1960 C   0  0  0  0  0  1  0  0  0  0  0  0
  193.9670  175.3350  144.3510 C   0  0  0  0  0  3  0  0  0  0  0  0
  192.8200  176.0180  144.4300 C   0  0  0  0  0  3  0  0  0  0  0  0
  187.8870  176.1550  141.3780 C   0  0  0  0  0  2  0  0  0  0  0  0
  188.8020  178.2890  141.8400 O   0  0  0  0  0  0  0  0  0  0  0  0
  187.9600  177.4150  142.1770 C   0  0  0  0  0  0  0  0  0  0  0  0
  185.3710  178.0060  145.5550 C   0  0  0  0  0  0  0  0  0  0  0  0
  185.6890  177.5630  143.2010 C   0  0  0  0  0  3  0  0  0  0  0  0
  188.9510  177.9450  144.8520 F   0  0  0  0  0  0  0  0  0  0  0  0
  184.4660  178.2110  146.7160 C   0  0  0  0  0  1  0  0  0  0  0  0
  184.8380  177.7520  144.2900 C   0  0  0  0  0  3  0  0  0  0  0  0
  187.6130  177.8800  144.6400 C   0  0  0  0  0  0  0  0  0  0  0  0
  187.0840  177.6230  143.3570 C   0  0  0  0  0  0  0  0  0  0  0  0
  186.7540  178.0690  145.7290 C   0  0  0  0  0  3  0  0  0  0  0  0
  1  6  1  0  0  0  0
  1  9  2  0  0  0  0
  2 12  1  0  0  0  0
  3  2  1  0  0  0  0
  3  9  1  1  0  0  0
  4  1  1  0  0  0  0
  5 21  1  6  0  0  0
  5  8  1  0  0  0  0
  7 10  1  0  0  0  0
  7  5  1  0  0  0  0
  7  8  1  0  0  0  0
  8  2  1  0  0  0  0
 10  3  1  0  0  0  0
 11 10  1  0  0  0  0
 11  4  1  0  0  0  0
 12 17  2  0  0  0  0
 12 14  1  0  0  0  0
 13 15  1  0  0  0  0
 14 13  1  0  0  0  0
 16 15  1  0  0  0  0
 17 16  1  0  0  0  0
 19 20  2  0  0  0  0
 19 18  1  0  0  0  0
 20 17  1  0  0  0  0
 21 23  1  0  0  0  0
 22 23  2  0  0  0  0
 23 30  1  0  0  0  0
 24 31  1  0  0  0  0
 24 27  1  0  0  0  0
 25 30  2  0  0  0  0
 25 28  1  0  0  0  0
 28 24  2  0  0  0  0
 29 26  1  0  0  0  0
 29 31  2  0  0  0  0
 30 29  1  0  0  0  0
M  END
>  <MODEL>
2

>  <REMARK>
 VINA RESULT:      -7.5      1.165      1.707
  Name = 
  5 active torsions:
  status: ('A' for Active; 'I' for Inactive)
    1  A    between atoms: N_4  and  C_5
    2  A    between atoms: C_9  and  C_22
    3  A    between atoms: C_9  and  C_23
    4  A    between atoms: C_15  and  C_23
    5  A    between atoms: C_30  and  C_31
                            x       y       z     vdW  Elec       q    Type
                         _______ _______ _______ _____ _____    ______ ____

>  <TORSDO>
F 5

$$$$
=
 OpenBabel11052417503D

 31 35  0  0  1  0  0  0  0  0999 V2000
  184.8870  177.9300  141.9120 C   0  0  0  0  0  0  0  0  0  0  0  0
  187.8840  176.6640  143.4570 N   0  0  0  0  0  0  0  0  0  0  0  0
  186.4610  176.8960  143.3190 C   0  0  2  0  0  3  0  0  0  0  0  0
  184.1380  178.4390  143.1630 C   0  0  0  0  0  2  0  0  0  0  0  0
  187.4350  176.4200  145.8610 C   0  0  1  0  0  3  0  0  0  0  0  0
  184.3750  178.3020  140.5650 C   0  0  0  0  0  1  0  0  0  0  0  0
  187.1460  177.8560  145.4340 C   0  0  1  0  0  3  0  0  0  0  0  0
  188.3130  177.0810  144.8040 C   0  0  2  0  0  3  0  0  0  0  0  0
  186.0110  177.2880  142.0100 N   0  0  0  0  0  0  0  0  0  0  0  0
  186.2150  178.0330  144.2410 C   0  0  2  0  0  3  0  0  0  0  0  0
  184.7810  178.1150  144.4640 N   0  0  0  0  0  2  0  0  0  0  0  0
  188.5830  175.6470  142.7150 C   0  0  0  0  0  0  0  0  0  0  0  0
  188.5490  173.3560  141.8170 N   0  0  0  0  0  2  0  0  0  0  0  0
  187.7710  174.5750  142.0220 C   0  0  0  0  0  2  0  0  0  0  0  0
  189.7000  173.7100  141.0000 C   0  0  0  0  0  2  0  0  0  0  0  0
  190.6450  174.5820  141.8180 C   0  0  0  0  0  2  0  0  0  0  0  0
  189.9240  175.7100  142.5240 C   0  0  0  0  0  0  0  0  0  0  0  0
  193.0140  176.1420  142.4310 C   0  0  0  0  0  1  0  0  0  0  0  0
  192.0120  177.0570  143.0510 C   0  0  0  0  0  3  0  0  0  0  0  0
  190.6910  176.8550  143.0770 C   0  0  0  0  0  3  0  0  0  0  0  0
  188.1560  176.4300  147.1940 C   0  0  0  0  0  2  0  0  0  0  0  0
  188.5760  174.1640  147.7370 O   0  0  0  0  0  0  0  0  0  0  0  0
  189.0550  175.2410  147.2940 C   0  0  0  0  0  0  0  0  0  0  0  0
  193.2060  175.5540  146.2290 C   0  0  0  0  0  0  0  0  0  0  0  0
  191.3030  176.3000  147.5180 C   0  0  0  0  0  3  0  0  0  0  0  0
  190.3150  173.5140  145.3330 F   0  0  0  0  0  0  0  0  0  0  0  0
  194.6420  175.6720  145.8670 C   0  0  0  0  0  1  0  0  0  0  0  0
  192.6520  176.4100  147.1810 C   0  0  0  0  0  3  0  0  0  0  0  0
  191.0550  174.4690  145.9490 C   0  0  0  0  0  0  0  0  0  0  0  0
  190.4850  175.3320  146.9110 C   0  0  0  0  0  0  0  0  0  0  0  0
  192.4090  174.5860  145.6160 C   0  0  0  0  0  3  0  0  0  0  0  0
  1  9  2  0  0  0  0
  1  4  1  0  0  0  0
  2  8  1  0  0  0  0
  3  9  1  6  0  0  0
  3  2  1  0  0  0  0
  3 10  1  0  0  0  0
  4 11  1  0  0  0  0
  5 21  1  1  0  0  0
  6  1  1  0  0  0  0
  7  5  1  0  0  0  0
  8  7  1  0  0  0  0
  8  5  1  0  0  0  0
 10 11  1  0  0  0  0
 10  7  1  0  0  0  0
 12  2  1  0  0  0  0
 13 14  1  0  0  0  0
 14 12  1  0  0  0  0
 15 13  1  0  0  0  0
 15 16  1  0  0  0  0
 16 17  1  0  0  0  0
 17 12  2  0  0  0  0
 17 20  1  0  0  0  0
 18 19  1  0  0  0  0
 19 20  2  0  0  0  0
 21 23  1  0  0  0  0
 23 22  2  0  0  0  0
 24 28  1  0  0  0  0
 26 29  1  0  0  0  0
 27 24  1  0  0  0  0
 28 25  2  0  0  0  0
 29 30  2  0  0  0  0
 30 23  1  0  0  0  0
 30 25  1  0  0  0  0
 31 29  1  0  0  0  0
 31 24  2  0  0  0  0
M  END
>  <MODEL>
3

>  <REMARK>
 VINA RESULT:      -7.4      2.809      6.442
  Name = 
  5 active torsions:
  status: ('A' for Active; 'I' for Inactive)
    1  A    between atoms: N_4  and  C_5
    2  A    between atoms: C_9  and  C_22
    3  A    between atoms: C_9  and  C_23
    4  A    between atoms: C_15  and  C_23
    5  A    between atoms: C_30  and  C_31
                            x       y       z     vdW  Elec       q    Type
                         _______ _______ _______ _____ _____    ______ ____

>  <TORSDO>
F 5

$$$$
=
 OpenBabel11052417503D

 31 35  0  0  1  0  0  0  0  0999 V2000
  191.5560  171.5910  143.6290 C   0  0  0  0  0  0  0  0  0  0  0  0
  191.7500  175.1860  143.6500 N   0  0  0  0  0  0  0  0  0  0  0  0
  191.1090  173.8940  143.7750 C   0  0  2  0  0  3  0  0  0  0  0  0
  190.2140  171.4010  142.8880 C   0  0  0  0  0  2  0  0  0  0  0  0
  189.5080  176.0550  143.1440 C   0  0  1  0  0  3  0  0  0  0  0  0
  192.4280  170.4060  143.8530 C   0  0  0  0  0  1  0  0  0  0  0  0
  189.9480  175.1090  142.0310 C   0  0  1  0  0  3  0  0  0  0  0  0
  190.9720  176.0240  142.7190 C   0  0  2  0  0  3  0  0  0  0  0  0
  191.9890  172.7700  143.9550 N   0  0  0  0  0  0  0  0  0  0  0  0
  190.4270  173.7290  142.4680 C   0  0  2  0  0  3  0  0  0  0  0  0
  189.4610  172.6520  142.6090 N   0  0  0  0  0  2  0  0  0  0  0  0
  192.5610  175.7590  144.6930 C   0  0  0  0  0  0  0  0  0  0  0  0
  194.8140  176.4260  145.4230 N   0  0  0  0  0  2  0  0  0  0  0  0
  193.8700  176.4140  144.3100 C   0  0  0  0  0  2  0  0  0  0  0  0
  194.1910  177.1660  146.5110 C   0  0  0  0  0  2  0  0  0  0  0  0
  193.0250  176.3560  147.0630 C   0  0  0  0  0  2  0  0  0  0  0  0
  192.1170  175.8320  145.9720 C   0  0  0  0  0  0  0  0  0  0  0  0
  189.6030  177.5170  146.7350 C   0  0  0  0  0  1  0  0  0  0  0  0
  189.6740  176.0300  146.6400 C   0  0  0  0  0  3  0  0  0  0  0  0
  190.7620  175.3270  146.3080 C   0  0  0  0  0  3  0  0  0  0  0  0
  188.8310  177.2650  142.5310 C   0  0  0  0  0  2  0  0  0  0  0  0
  186.6930  176.7120  141.6780 O   0  0  0  0  0  0  0  0  0  0  0  0
  187.3480  177.1400  142.6650 C   0  0  0  0  0  0  0  0  0  0  0  0
  185.3610  178.2300  146.3150 C   0  0  0  0  0  0  0  0  0  0  0  0
  186.5030  176.5960  144.9480 C   0  0  0  0  0  3  0  0  0  0  0  0
  186.2720  179.7910  143.1450 F   0  0  0  0  0  0  0  0  0  0  0  0
  184.6730  178.5950  147.5810 C   0  0  0  0  0  1  0  0  0  0  0  0
  185.8600  176.9390  146.1390 C   0  0  0  0  0  3  0  0  0  0  0  0
  186.1490  178.8410  144.1040 C   0  0  0  0  0  0  0  0  0  0  0  0
  186.6580  177.5370  143.9160 C   0  0  0  0  0  0  0  0  0  0  0  0
  185.5060  179.1780  145.3000 C   0  0  0  0  0  3  0  0  0  0  0  0
  1  6  1  0  0  0  0
  1  9  2  0  0  0  0
  2  3  1  0  0  0  0
  2 12  1  0  0  0  0
  3  9  1  6  0  0  0
  4  1  1  0  0  0  0
  5 21  1  6  0  0  0
  7 10  1  0  0  0  0
  7  8  1  0  0  0  0
  7  5  1  0  0  0  0
  8  5  1  0  0  0  0
  8  2  1  0  0  0  0
 10 11  1  0  0  0  0
 10  3  1  0  0  0  0
 11  4  1  0  0  0  0
 12 17  2  0  0  0  0
 13 15  1  0  0  0  0
 14 12  1  0  0  0  0
 14 13  1  0  0  0  0
 15 16  1  0  0  0  0
 17 20  1  0  0  0  0
 17 16  1  0  0  0  0
 19 18  1  0  0  0  0
 20 19  2  0  0  0  0
 21 23  1  0  0  0  0
 22 23  2  0  0  0  0
 23 30  1  0  0  0  0
 24 27  1  0  0  0  0
 25 28  2  0  0  0  0
 26 29  1  0  0  0  0
 28 24  1  0  0  0  0
 29 31  1  0  0  0  0
 30 29  2  0  0  0  0
 30 25  1  0  0  0  0
 31 24  2  0  0  0  0
M  END
>  <MODEL>
4

>  <REMARK>
 VINA RESULT:      -7.4      1.702      2.367
  Name = 
  5 active torsions:
  status: ('A' for Active; 'I' for Inactive)
    1  A    between atoms: N_4  and  C_5
    2  A    between atoms: C_9  and  C_22
    3  A    between atoms: C_9  and  C_23
    4  A    between atoms: C_15  and  C_23
    5  A    between atoms: C_30  and  C_31
                            x       y       z     vdW  Elec       q    Type
                         _______ _______ _______ _____ _____    ______ ____

>  <TORSDO>
F 5

$$$$
=
 OpenBabel11052417503D

 31 35  0  0  1  0  0  0  0  0999 V2000
  193.7320  175.5100  145.2290 C   0  0  0  0  0  0  0  0  0  0  0  0
  190.2650  174.6200  144.8380 N   0  0  0  0  0  0  0  0  0  0  0  0
  191.3830  175.4900  145.1350 C   0  0  2  0  0  3  0  0  0  0  0  0
  193.6500  176.3320  146.5340 C   0  0  0  0  0  2  0  0  0  0  0  0
  188.9480  176.1070  146.2850 C   0  0  1  0  0  3  0  0  0  0  0  0
  195.0700  175.1180  144.7080 C   0  0  0  0  0  1  0  0  0  0  0  0
  190.0010  175.3880  147.1220 C   0  0  1  0  0  3  0  0  0  0  0  0
  189.3090  174.6610  145.9590 C   0  0  2  0  0  3  0  0  0  0  0  0
  192.6650  175.0580  144.6450 N   0  0  0  0  0  0  0  0  0  0  0  0
  191.4380  175.4730  146.6180 C   0  0  2  0  0  3  0  0  0  0  0  0
  192.2750  176.5830  147.0400 N   0  0  0  0  0  2  0  0  0  0  0  0
  189.8490  174.3170  143.4920 C   0  0  0  0  0  0  0  0  0  0  0  0
  188.5230  175.0070  141.5380 N   0  0  0  0  0  2  0  0  0  0  0  0
  189.4210  175.4590  142.5970 C   0  0  0  0  0  2  0  0  0  0  0  0
  189.2420  174.0110  140.7580 C   0  0  0  0  0  2  0  0  0  0  0  0
  189.4310  172.7560  141.6020 C   0  0  0  0  0  2  0  0  0  0  0  0
  189.9580  173.0640  142.9860 C   0  0  0  0  0  0  0  0  0  0  0  0
  192.8800  171.9700  142.9350 C   0  0  0  0  0  1  0  0  0  0  0  0
  191.7750  171.4960  143.8170 C   0  0  0  0  0  3  0  0  0  0  0  0
  190.5290  171.9810  143.8250 C   0  0  0  0  0  3  0  0  0  0  0  0
  187.6400  176.1390  147.0500 C   0  0  0  0  0  2  0  0  0  0  0  0
  187.1190  178.3560  147.7020 O   0  0  0  0  0  0  0  0  0  0  0  0
  186.9600  177.4530  146.8380 C   0  0  0  0  0  0  0  0  0  0  0  0
  184.4910  178.0770  143.3770 C   0  0  0  0  0  0  0  0  0  0  0  0
  186.4450  177.1110  144.4210 C   0  0  0  0  0  3  0  0  0  0  0  0
  184.5280  179.0340  146.8990 F   0  0  0  0  0  0  0  0  0  0  0  0
  183.6460  178.2880  142.1730 C   0  0  0  0  0  1  0  0  0  0  0  0
  185.6500  177.3050  143.2900 C   0  0  0  0  0  3  0  0  0  0  0  0
  184.9180  178.4610  145.7330 C   0  0  0  0  0  0  0  0  0  0  0  0
  186.0930  177.6820  145.6560 C   0  0  0  0  0  0  0  0  0  0  0  0
  184.1260  178.6520  144.5960 C   0  0  0  0  0  3  0  0  0  0  0  0
  1  4  1  0  0  0  0
  2  3  1  0  0  0  0
  2  8  1  0  0  0  0
  3  9  1  6  0  0  0
  3 10  1  0  0  0  0
  4 11  1  0  0  0  0
  5 21  1  1  0  0  0
  5  7  1  0  0  0  0
  6  1  1  0  0  0  0
  8  5  1  0  0  0  0
  8  7  1  0  0  0  0
  9  1  2  0  0  0  0
 10 11  1  0  0  0  0
 10  7  1  0  0  0  0
 12  2  1  0  0  0  0
 13 14  1  0  0  0  0
 14 12  1  0  0  0  0
 15 13  1  0  0  0  0
 15 16  1  0  0  0  0
 16 17  1  0  0  0  0
 17 12  2  0  0  0  0
 17 20  1  0  0  0  0
 18 19  1  0  0  0  0
 19 20  2  0  0  0  0
 23 21  1  0  0  0  0
 23 22  2  0  0  0  0
 24 31  1  0  0  0  0
 25 30  2  0  0  0  0
 27 24  1  0  0  0  0
 28 24  2  0  0  0  0
 28 25  1  0  0  0  0
 29 26  1  0  0  0  0
 30 29  1  0  0  0  0
 30 23  1  0  0  0  0
 31 29  2  0  0  0  0
M  END
>  <MODEL>
5

>  <REMARK>
 VINA RESULT:      -7.4      2.107      4.880
  Name = 
  5 active torsions:
  status: ('A' for Active; 'I' for Inactive)
    1  A    between atoms: N_4  and  C_5
    2  A    between atoms: C_9  and  C_22
    3  A    between atoms: C_9  and  C_23
    4  A    between atoms: C_15  and  C_23
    5  A    between atoms: C_30  and  C_31
                            x       y       z     vdW  Elec       q    Type
                         _______ _______ _______ _____ _____    ______ ____

>  <TORSDO>
F 5

$$$$
=
 OpenBabel11052417503D

 31 35  0  0  1  0  0  0  0  0999 V2000
  194.8760  175.2510  143.2590 C   0  0  0  0  0  0  0  0  0  0  0  0
  191.5070  174.7420  144.4230 N   0  0  0  0  0  0  0  0  0  0  0  0
  192.6910  175.5040  144.0860 C   0  0  2  0  0  3  0  0  0  0  0  0
  195.3660  176.2770  144.3030 C   0  0  0  0  0  2  0  0  0  0  0  0
  190.9570  176.5940  145.9410 C   0  0  1  0  0  3  0  0  0  0  0  0
  195.8700  174.6170  142.3510 C   0  0  0  0  0  1  0  0  0  0  0  0
  192.2220  175.8970  146.4300 C   0  0  1  0  0  3  0  0  0  0  0  0
  191.0860  175.0820  145.7940 C   0  0  2  0  0  3  0  0  0  0  0  0
  193.6440  174.8440  143.2350 N   0  0  0  0  0  0  0  0  0  0  0  0
  193.3370  175.7220  145.4040 C   0  0  2  0  0  3  0  0  0  0  0  0
  194.3250  176.7740  145.2410 N   0  0  0  0  0  2  0  0  0  0  0  0
  190.5700  174.2780  143.4310 C   0  0  0  0  0  0  0  0  0  0  0  0
  188.6750  174.8330  141.9650 N   0  0  0  0  0  2  0  0  0  0  0  0
  189.9570  175.2910  142.4900 C   0  0  0  0  0  2  0  0  0  0  0  0
  188.9190  173.5860  141.2560 C   0  0  0  0  0  2  0  0  0  0  0  0
  189.2800  172.5010  142.2630 C   0  0  0  0  0  2  0  0  0  0  0  0
  190.3340  172.9550  143.2490 C   0  0  0  0  0  0  0  0  0  0  0  0
  192.9680  171.4500  142.5150 C   0  0  0  0  0  1  0  0  0  0  0  0
  192.1890  171.3020  143.7780 C   0  0  0  0  0  3  0  0  0  0  0  0
  191.0630  171.9590  144.0740 C   0  0  0  0  0  3  0  0  0  0  0  0
  190.0710  176.9120  147.1290 C   0  0  0  0  0  2  0  0  0  0  0  0
  188.3400  175.3000  147.2520 O   0  0  0  0  0  0  0  0  0  0  0  0
  188.6750  176.4500  146.8600 C   0  0  0  0  0  0  0  0  0  0  0  0
  185.9280  178.9260  144.6740 C   0  0  0  0  0  0  0  0  0  0  0  0
  187.8940  177.5230  144.7480 C   0  0  0  0  0  3  0  0  0  0  0  0
  186.3950  177.7490  148.0970 F   0  0  0  0  0  0  0  0  0  0  0  0
  184.9860  179.7830  143.9090 C   0  0  0  0  0  1  0  0  0  0  0  0
  187.0080  178.3240  144.0270 C   0  0  0  0  0  3  0  0  0  0  0  0
  186.6200  177.9220  146.7710 C   0  0  0  0  0  0  0  0  0  0  0  0
  187.7150  177.3090  146.1250 C   0  0  0  0  0  0  0  0  0  0  0  0
  185.7350  178.7250  146.0420 C   0  0  0  0  0  3  0  0  0  0  0  0
  1  4  1  0  0  0  0
  2  8  1  0  0  0  0
  3  9  1  6  0  0  0
  3  2  1  0  0  0  0
  3 10  1  0  0  0  0
  4 11  1  0  0  0  0
  5  7  1  0  0  0  0
  5 21  1  1  0  0  0
  6  1  1  0  0  0  0
  8  5  1  0  0  0  0
  8  7  1  0  0  0  0
  9  1  2  0  0  0  0
 10  7  1  0  0  0  0
 11 10  1  0  0  0  0
 12  2  1  0  0  0  0
 13 14  1  0  0  0  0
 14 12  1  0  0  0  0
 15 13  1  0  0  0  0
 15 16  1  0  0  0  0
 16 17  1  0  0  0  0
 17 12  2  0  0  0  0
 17 20  1  0  0  0  0
 18 19  1  0  0  0  0
 19 20  2  0  0  0  0
 23 21  1  0  0  0  0
 23 22  2  0  0  0  0
 24 31  1  0  0  0  0
 25 30  2  0  0  0  0
 27 24  1  0  0  0  0
 28 24  2  0  0  0  0
 28 25  1  0  0  0  0
 29 26  1  0  0  0  0
 30 29  1  0  0  0  0
 30 23  1  0  0  0  0
 31 29  2  0  0  0  0
M  END
>  <MODEL>
6

>  <REMARK>
 VINA RESULT:      -7.2      2.437      4.900
  Name = 
  5 active torsions:
  status: ('A' for Active; 'I' for Inactive)
    1  A    between atoms: N_4  and  C_5
    2  A    between atoms: C_9  and  C_22
    3  A    between atoms: C_9  and  C_23
    4  A    between atoms: C_15  and  C_23
    5  A    between atoms: C_30  and  C_31
                            x       y       z     vdW  Elec       q    Type
                         _______ _______ _______ _____ _____    ______ ____

>  <TORSDO>
F 5

$$$$
=
 OpenBabel11052417503D

 31 35  0  0  1  0  0  0  0  0999 V2000
  186.7900  176.9780  146.0080 C   0  0  0  0  0  0  0  0  0  0  0  0
  189.3730  176.3160  143.5880 N   0  0  0  0  0  0  0  0  0  0  0  0
  188.7440  176.2990  144.8920 C   0  0  2  0  0  3  0  0  0  0  0  0
  187.6560  177.4220  147.2070 C   0  0  0  0  0  2  0  0  0  0  0  0
  191.5010  176.1310  144.8040 C   0  0  1  0  0  3  0  0  0  0  0  0
  185.3180  177.1850  146.0680 C   0  0  0  0  0  1  0  0  0  0  0  0
  190.8500  177.4730  145.1220 C   0  0  1  0  0  3  0  0  0  0  0  0
  190.7330  176.8710  143.7140 C   0  0  2  0  0  3  0  0  0  0  0  0
  187.3260  176.5390  144.9100 N   0  0  0  0  0  0  0  0  0  0  0  0
  189.4030  177.4270  145.5980 C   0  0  2  0  0  3  0  0  0  0  0  0
  189.1240  177.2810  147.0160 N   0  0  0  0  0  2  0  0  0  0  0  0
  189.0220  175.3910  142.5410 C   0  0  0  0  0  0  0  0  0  0  0  0
  189.3990  173.1800  141.5290 N   0  0  0  0  0  2  0  0  0  0  0  0
  189.2430  173.9140  142.7810 C   0  0  0  0  0  2  0  0  0  0  0  0
  188.1800  173.3780  140.7580 C   0  0  0  0  0  2  0  0  0  0  0  0
  188.1110  174.8290  140.2960 C   0  0  0  0  0  2  0  0  0  0  0  0
  188.3880  175.8060  141.4170 C   0  0  0  0  0  0  0  0  0  0  0  0
  185.6530  177.1620  142.0720 C   0  0  0  0  0  1  0  0  0  0  0  0
  186.8680  177.8390  141.5340 C   0  0  0  0  0  3  0  0  0  0  0  0
  188.0320  177.2390  141.2620 C   0  0  0  0  0  3  0  0  0  0  0  0
  192.9890  176.3330  144.5980 C   0  0  0  0  0  2  0  0  0  0  0  0
  193.6930  176.5620  146.8480 O   0  0  0  0  0  0  0  0  0  0  0  0
  193.7370  175.8610  145.8020 C   0  0  0  0  0  0  0  0  0  0  0  0
  196.1120  172.2820  145.6950 C   0  0  0  0  0  0  0  0  0  0  0  0
  195.9340  174.6830  145.9090 C   0  0  0  0  0  3  0  0  0  0  0  0
  192.5950  173.2200  145.4340 F   0  0  0  0  0  0  0  0  0  0  0  0
  196.9440  171.0510  145.6580 C   0  0  0  0  0  1  0  0  0  0  0  0
  196.7150  173.5270  145.8770 C   0  0  0  0  0  3  0  0  0  0  0  0
  193.9370  173.3480  145.5780 C   0  0  0  0  0  0  0  0  0  0  0  0
  194.5380  174.6130  145.7620 C   0  0  0  0  0  0  0  0  0  0  0  0
  194.7270  172.1940  145.5470 C   0  0  0  0  0  3  0  0  0  0  0  0
  1  6  1  0  0  0  0
  1  4  1  0  0  0  0
  2  8  1  0  0  0  0
  2  3  1  0  0  0  0
  3  9  1  6  0  0  0
  3 10  1  0  0  0  0
  5 21  1  6  0  0  0
  5  7  1  0  0  0  0
  7 10  1  0  0  0  0
  8  5  1  0  0  0  0
  8  7  1  0  0  0  0
  9  1  2  0  0  0  0
 10 11  1  0  0  0  0
 11  4  1  0  0  0  0
 12 14  1  0  0  0  0
 12  2  1  0  0  0  0
 13 14  1  0  0  0  0
 15 13  1  0  0  0  0
 16 15  1  0  0  0  0
 16 17  1  0  0  0  0
 17 12  2  0  0  0  0
 19 18  1  0  0  0  0
 20 17  1  0  0  0  0
 20 19  2  0  0  0  0
 21 23  1  0  0  0  0
 23 22  2  0  0  0  0
 24 28  1  0  0  0  0
 26 29  1  0  0  0  0
 27 24  1  0  0  0  0
 28 25  2  0  0  0  0
 29 30  2  0  0  0  0
 30 23  1  0  0  0  0
 30 25  1  0  0  0  0
 31 29  1  0  0  0  0
 31 24  2  0  0  0  0
M  END
>  <MODEL>
7

>  <REMARK>
 VINA RESULT:      -7.0      3.271      7.596
  Name = 
  5 active torsions:
  status: ('A' for Active; 'I' for Inactive)
    1  A    between atoms: N_4  and  C_5
    2  A    between atoms: C_9  and  C_22
    3  A    between atoms: C_9  and  C_23
    4  A    between atoms: C_15  and  C_23
    5  A    between atoms: C_30  and  C_31
                            x       y       z     vdW  Elec       q    Type
                         _______ _______ _______ _____ _____    ______ ____

>  <TORSDO>
F 5

$$$$
=
 OpenBabel11052417503D

 31 35  0  0  1  0  0  0  0  0999 V2000
  196.2710  175.6980  143.9200 C   0  0  0  0  0  0  0  0  0  0  0  0
  193.2780  174.1960  145.2430 N   0  0  0  0  0  0  0  0  0  0  0  0
  194.0690  175.2130  144.5830 C   0  0  2  0  0  3  0  0  0  0  0  0
  196.0670  177.1550  144.3890 C   0  0  0  0  0  2  0  0  0  0  0  0
  191.7120  176.0100  145.7850 C   0  0  1  0  0  3  0  0  0  0  0  0
  197.5950  175.2970  143.3730 C   0  0  0  0  0  1  0  0  0  0  0  0
  193.0320  176.2450  146.5130 C   0  0  1  0  0  3  0  0  0  0  0  0
  192.4950  174.8190  146.3260 C   0  0  2  0  0  3  0  0  0  0  0  0
  195.3570  174.7940  144.1000 N   0  0  0  0  0  0  0  0  0  0  0  0
  194.2920  176.2140  145.6550 C   0  0  2  0  0  3  0  0  0  0  0  0
  194.7530  177.4390  145.0240 N   0  0  0  0  0  2  0  0  0  0  0  0
  192.8390  172.9960  144.5780 C   0  0  0  0  0  0  0  0  0  0  0  0
  191.0470  171.8720  143.3210 N   0  0  0  0  0  2  0  0  0  0  0  0
  191.7900  173.1160  143.4940 C   0  0  0  0  0  2  0  0  0  0  0  0
  192.0090  170.8400  142.9650 C   0  0  0  0  0  2  0  0  0  0  0  0
  192.8930  170.5430  144.1700 C   0  0  0  0  0  2  0  0  0  0  0  0
  193.4330  171.8000  144.8150 C   0  0  0  0  0  0  0  0  0  0  0  0
  196.4470  171.3630  144.1330 C   0  0  0  0  0  1  0  0  0  0  0  0
  195.8650  171.5320  145.4960 C   0  0  0  0  0  3  0  0  0  0  0  0
  194.5700  171.7220  145.7670 C   0  0  0  0  0  3  0  0  0  0  0  0
  190.5620  176.3250  146.7220 C   0  0  0  0  0  2  0  0  0  0  0  0
  189.2940  174.5510  145.7990 O   0  0  0  0  0  0  0  0  0  0  0  0
  189.2930  175.7520  146.1790 C   0  0  0  0  0  0  0  0  0  0  0  0
  185.7240  178.1270  145.8990 C   0  0  0  0  0  0  0  0  0  0  0  0
  187.0330  176.4190  146.9980 C   0  0  0  0  0  3  0  0  0  0  0  0
  188.8800  177.7400  144.1070 F   0  0  0  0  0  0  0  0  0  0  0  0
  184.4850  178.9420  145.8100 C   0  0  0  0  0  1  0  0  0  0  0  0
  185.8700  177.1860  146.9180 C   0  0  0  0  0  3  0  0  0  0  0  0
  187.9130  177.5370  145.0350 C   0  0  0  0  0  0  0  0  0  0  0  0
  188.0700  176.5820  146.0630 C   0  0  0  0  0  0  0  0  0  0  0  0
  186.7430  178.3020  144.9600 C   0  0  0  0  0  3  0  0  0  0  0  0
  1  9  2  0  0  0  0
  1  4  1  0  0  0  0
  2  8  1  0  0  0  0
  3  9  1  1  0  0  0
  3  2  1  0  0  0  0
  3 10  1  0  0  0  0
  4 11  1  0  0  0  0
  5  8  1  0  0  0  0
  5  7  1  0  0  0  0
  5 21  1  1  0  0  0
  6  1  1  0  0  0  0
  8  7  1  0  0  0  0
 10  7  1  0  0  0  0
 11 10  1  0  0  0  0
 12 17  2  0  0  0  0
 12  2  1  0  0  0  0
 13 14  1  0  0  0  0
 14 12  1  0  0  0  0
 15 13  1  0  0  0  0
 15 16  1  0  0  0  0
 16 17  1  0  0  0  0
 17 20  1  0  0  0  0
 18 19  1  0  0  0  0
 19 20  2  0  0  0  0
 22 23  2  0  0  0  0
 23 21  1  0  0  0  0
 24 28  1  0  0  0  0
 26 29  1  0  0  0  0
 27 24  1  0  0  0  0
 28 25  2  0  0  0  0
 29 30  2  0  0  0  0
 30 23  1  0  0  0  0
 30 25  1  0  0  0  0
 31 29  1  0  0  0  0
 31 24  2  0  0  0  0
M  END
>  <MODEL>
8

>  <REMARK>
 VINA RESULT:      -7.0      2.947      5.379
  Name = 
  5 active torsions:
  status: ('A' for Active; 'I' for Inactive)
    1  A    between atoms: N_4  and  C_5
    2  A    between atoms: C_9  and  C_22
    3  A    between atoms: C_9  and  C_23
    4  A    between atoms: C_15  and  C_23
    5  A    between atoms: C_30  and  C_31
                            x       y       z     vdW  Elec       q    Type
                         _______ _______ _______ _____ _____    ______ ____

>  <TORSDO>
F 5

$$$$
=
 OpenBabel11052417503D

 31 35  0  0  1  0  0  0  0  0999 V2000
  195.0990  175.5220  144.0650 C   0  0  0  0  0  0  0  0  0  0  0  0
  191.9500  173.8840  144.6710 N   0  0  0  0  0  0  0  0  0  0  0  0
  192.8350  175.0030  144.4250 C   0  0  2  0  0  3  0  0  0  0  0  0
  194.9390  176.7530  144.9830 C   0  0  0  0  0  2  0  0  0  0  0  0
  190.4470  175.5240  145.7150 C   0  0  1  0  0  3  0  0  0  0  0  0
  196.4350  175.2310  143.4770 C   0  0  0  0  0  1  0  0  0  0  0  0
  191.7260  175.4110  146.5400 C   0  0  1  0  0  3  0  0  0  0  0  0
  191.1290  174.1680  145.8620 C   0  0  2  0  0  3  0  0  0  0  0  0
  194.1300  174.6770  143.8900 N   0  0  0  0  0  0  0  0  0  0  0  0
  193.0370  175.5760  145.7800 C   0  0  2  0  0  3  0  0  0  0  0  0
  193.6020  176.9040  145.6160 N   0  0  0  0  0  2  0  0  0  0  0  0
  191.4950  173.0060  143.6240 C   0  0  0  0  0  0  0  0  0  0  0  0
  191.6570  170.7830  142.5810 N   0  0  0  0  0  2  0  0  0  0  0  0
  191.5950  171.5120  143.8440 C   0  0  0  0  0  2  0  0  0  0  0  0
  190.4410  171.0940  141.8420 C   0  0  0  0  0  2  0  0  0  0  0  0
  190.4860  172.5500  141.3970 C   0  0  0  0  0  2  0  0  0  0  0  0
  190.8730  173.4870  142.5200 C   0  0  0  0  0  0  0  0  0  0  0  0
  188.1290  174.9750  142.5360 C   0  0  0  0  0  1  0  0  0  0  0  0
  189.4730  175.6030  142.3890 C   0  0  0  0  0  3  0  0  0  0  0  0
  190.6380  174.9470  142.3880 C   0  0  0  0  0  3  0  0  0  0  0  0
  189.2550  175.5930  146.6490 C   0  0  0  0  0  2  0  0  0  0  0  0
  189.3780  177.8130  147.4620 O   0  0  0  0  0  0  0  0  0  0  0  0
  188.7550  176.9980  146.7310 C   0  0  0  0  0  0  0  0  0  0  0  0
  185.2650  178.2320  144.5490 C   0  0  0  0  0  0  0  0  0  0  0  0
  187.6570  177.9160  144.6870 C   0  0  0  0  0  3  0  0  0  0  0  0
  186.0740  176.8610  147.8330 F   0  0  0  0  0  0  0  0  0  0  0  0
  184.0650  178.6630  143.7860 C   0  0  0  0  0  1  0  0  0  0  0  0
  186.5310  178.3180  143.9690 C   0  0  0  0  0  3  0  0  0  0  0  0
  186.2520  177.3350  146.5750 C   0  0  0  0  0  0  0  0  0  0  0  0
  187.5370  177.4190  145.9960 C   0  0  0  0  0  0  0  0  0  0  0  0
  185.1270  177.7410  145.8490 C   0  0  0  0  0  3  0  0  0  0  0  0
  1  4  1  0  0  0  0
  2  8  1  0  0  0  0
  3  9  1  1  0  0  0
  3  2  1  0  0  0  0
  3 10  1  0  0  0  0
  4 11  1  0  0  0  0
  5  8  1  0  0  0  0
  5  7  1  0  0  0  0
  5 21  1  1  0  0  0
  6  1  1  0  0  0  0
  8  7  1  0  0  0  0
  9  1  2  0  0  0  0
 10  7  1  0  0  0  0
 11 10  1  0  0  0  0
 12 14  1  0  0  0  0
 12  2  1  0  0  0  0
 13 14  1  0  0  0  0
 15 13  1  0  0  0  0
 16 15  1  0  0  0  0
 16 17  1  0  0  0  0
 17 12  2  0  0  0  0
 19 18  1  0  0  0  0
 20 19  2  0  0  0  0
 20 17  1  0  0  0  0
 21 23  1  0  0  0  0
 23 22  2  0  0  0  0
 24 31  1  0  0  0  0
 25 30  2  0  0  0  0
 27 24  1  0  0  0  0
 28 24  2  0  0  0  0
 28 25  1  0  0  0  0
 29 26  1  0  0  0  0
 30 29  1  0  0  0  0
 30 23  1  0  0  0  0
 31 29  2  0  0  0  0
M  END
>  <MODEL>
9

>  <REMARK>
 VINA RESULT:      -6.9      2.326      4.761
  Name = 
  5 active torsions:
  status: ('A' for Active; 'I' for Inactive)
    1  A    between atoms: N_4  and  C_5
    2  A    between atoms: C_9  and  C_22
    3  A    between atoms: C_9  and  C_23
    4  A    between atoms: C_15  and  C_23
    5  A    between atoms: C_30  and  C_31
                            x       y       z     vdW  Elec       q    Type
                         _______ _______ _______ _____ _____    ______ ____

>  <TORSDO>
F 5

$$$$
