=
 OpenBabel11052418153D

 28 32  0  0  1  0  0  0  0  0999 V2000
  190.0990  175.0650  144.2890 C   0  0  2  0  0  3  0  0  0  0  0  0
  186.2640  177.3560  141.5970 C   0  0  0  0  0  3  0  0  0  0  0  0
  187.2440  177.2830  147.5930 O   0  0  0  0  0  0  0  0  0  0  0  0
  184.7140  178.1010  143.3150 C   0  0  0  0  0  0  0  0  0  0  0  0
  186.8860  177.1890  143.9620 C   0  0  0  0  0  0  0  0  0  0  0  0
  184.1030  178.2590  140.9780 C   0  0  0  0  0  0  0  0  0  0  0  0
  185.9660  177.5440  142.9560 C   0  0  0  0  0  0  0  0  0  0  0  0
  185.3110  177.9560  145.6530 C   0  0  0  0  0  3  0  0  0  0  0  0
  183.7920  178.4530  142.3250 C   0  0  0  0  0  3  0  0  0  0  0  0
  188.8320  176.4000  146.0230 C   0  0  1  0  0  3  0  0  0  0  0  0
  188.2460  176.6470  143.6030 C   0  0  0  0  0  2  0  0  0  0  0  0
  184.3970  178.3030  144.6590 C   0  0  0  0  0  3  0  0  0  0  0  0
  190.6920  174.8930  146.7280 C   0  0  0  0  0  2  0  0  0  0  0  0
  187.5080  177.0230  146.3860 C   0  0  0  0  0  0  0  0  0  0  0  0
  189.3190  175.4360  147.1040 C   0  0  0  0  0  2  0  0  0  0  0  0
  183.2060  178.6010  140.0210 F   0  0  0  0  0  0  0  0  0  0  0  0
  185.3360  177.7120  140.6130 C   0  0  0  0  0  3  0  0  0  0  0  0
  186.5550  177.4050  145.3190 C   0  0  0  0  0  0  0  0  0  0  0  0
  190.6160  174.1470  145.4010 C   0  0  0  0  0  2  0  0  0  0  0  0
  188.7390  175.6720  144.6730 C   0  0  1  0  0  3  0  0  0  0  0  0
  190.0320  174.3110  142.9950 C   0  0  0  0  0  0  0  0  0  0  0  0
  191.0370  174.4440  142.0240 C   0  0  0  0  0  3  0  0  0  0  0  0
  189.8750  172.8690  140.5960 C   0  0  0  0  0  0  0  0  0  0  0  0
  188.9510  173.4560  142.7580 C   0  0  0  0  0  3  0  0  0  0  0  0
  192.2340  173.9100  139.6350 Cl  0  0  0  0  0  0  0  0  0  0  0  0
  190.9600  173.7260  140.8270 C   0  0  0  0  0  0  0  0  0  0  0  0
  189.7840  172.1470  139.4120 O   0  0  0  0  0  1  0  0  0  0  0  0
  188.8720  172.7380  141.5620 C   0  0  0  0  0  3  0  0  0  0  0  0
  1 21  1  6  0  0  0
  1 20  1  0  0  0  0
  1 19  1  0  0  0  0
  2  7  1  0  0  0  0
  4 12  1  0  0  0  0
  5 18  2  0  0  0  0
  6  9  2  0  0  0  0
  7  4  2  0  0  0  0
  7  5  1  0  0  0  0
  9  4  1  0  0  0  0
 10 14  1  0  0  0  0
 10 15  1  1  0  0  0
 11  5  1  0  0  0  0
 12  8  2  0  0  0  0
 13 15  1  0  0  0  0
 14  3  2  0  0  0  0
 16  6  1  0  0  0  0
 17  6  1  0  0  0  0
 17  2  2  0  0  0  0
 18  8  1  0  0  0  0
 18 14  1  0  0  0  0
 19 13  1  0  0  0  0
 20 11  1  6  0  0  0
 20 10  1  0  0  0  0
 22 21  2  0  0  0  0
 23 26  2  0  0  0  0
 23 28  1  0  0  0  0
 24 21  1  0  0  0  0
 25 26  1  0  0  0  0
 26 22  1  0  0  0  0
 27 23  1  0  0  0  0
 28 24  2  0  0  0  0
M  END
>  <MODEL>
1

>  <REMARK>
 VINA RESULT:      -8.7      0.000      0.000
  Name = 
  1 active torsions:
  status: ('A' for Active; 'I' for Inactive)
    1  A    between atoms: C_1  and  C_2
                            x       y       z     vdW  Elec       q    Type
                         _______ _______ _______ _____ _____    ______ ____

>  <TORSDO>
F 1

$$$$
=
 OpenBabel11052418153D

 28 32  0  0  1  0  0  0  0  0999 V2000
  190.8320  174.9140  143.5130 C   0  0  2  0  0  3  0  0  0  0  0  0
  186.3340  177.5430  143.2700 C   0  0  0  0  0  3  0  0  0  0  0  0
  190.2320  177.0050  147.9000 O   0  0  0  0  0  0  0  0  0  0  0  0
  185.9380  178.2260  145.5690 C   0  0  0  0  0  0  0  0  0  0  0  0
  188.0640  177.1830  144.9700 C   0  0  0  0  0  0  0  0  0  0  0  0
  184.2310  178.5750  143.8880 C   0  0  0  0  0  0  0  0  0  0  0  0
  186.7870  177.6460  144.5950 C   0  0  0  0  0  0  0  0  0  0  0  0
  187.6330  177.8920  147.2600 C   0  0  0  0  0  3  0  0  0  0  0  0
  184.6670  178.6850  145.2090 C   0  0  0  0  0  3  0  0  0  0  0  0
  190.7280  176.1720  145.7020 C   0  0  1  0  0  3  0  0  0  0  0  0
  189.0060  176.6140  143.9410 C   0  0  0  0  0  2  0  0  0  0  0  0
  186.3670  178.3450  146.8920 C   0  0  0  0  0  3  0  0  0  0  0  0
  192.5740  174.5440  145.2900 C   0  0  0  0  0  2  0  0  0  0  0  0
  189.8230  176.8200  146.7200 C   0  0  0  0  0  0  0  0  0  0  0  0
  191.6280  175.1150  146.3400 C   0  0  0  0  0  2  0  0  0  0  0  0
  182.9980  179.0200  143.5430 F   0  0  0  0  0  0  0  0  0  0  0  0
  185.0620  178.0050  142.9190 C   0  0  0  0  0  3  0  0  0  0  0  0
  188.4890  177.3160  146.3120 C   0  0  0  0  0  0  0  0  0  0  0  0
  191.7780  173.8980  144.1620 C   0  0  0  0  0  2  0  0  0  0  0  0
  189.9060  175.5460  144.5650 C   0  0  1  0  0  3  0  0  0  0  0  0
  190.0600  174.2560  142.4080 C   0  0  0  0  0  0  0  0  0  0  0  0
  190.5650  174.2050  141.0990 C   0  0  0  0  0  3  0  0  0  0  0  0
  188.5890  173.0030  140.3770 C   0  0  0  0  0  0  0  0  0  0  0  0
  188.8180  173.6800  142.6920 C   0  0  0  0  0  3  0  0  0  0  0  0
  190.4930  173.5290  138.4610 Cl  0  0  0  0  0  0  0  0  0  0  0  0
  189.8330  173.5800  140.0850 C   0  0  0  0  0  0  0  0  0  0  0  0
  187.8490  172.3780  139.3800 O   0  0  0  0  0  1  0  0  0  0  0  0
  188.0840  173.0560  141.6800 C   0  0  0  0  0  3  0  0  0  0  0  0
  1 21  1  6  0  0  0
  1 19  1  0  0  0  0
  1 20  1  0  0  0  0
  2  7  1  0  0  0  0
  4 12  1  0  0  0  0
  5 18  2  0  0  0  0
  6  9  2  0  0  0  0
  7  5  1  0  0  0  0
  7  4  2  0  0  0  0
  9  4  1  0  0  0  0
 10 15  1  1  0  0  0
 10 14  1  0  0  0  0
 11  5  1  0  0  0  0
 12  8  2  0  0  0  0
 13 15  1  0  0  0  0
 14  3  2  0  0  0  0
 16  6  1  0  0  0  0
 17  2  2  0  0  0  0
 17  6  1  0  0  0  0
 18 14  1  0  0  0  0
 18  8  1  0  0  0  0
 19 13  1  0  0  0  0
 20 11  1  6  0  0  0
 20 10  1  0  0  0  0
 21 24  1  0  0  0  0
 22 21  2  0  0  0  0
 23 28  1  0  0  0  0
 25 26  1  0  0  0  0
 26 23  2  0  0  0  0
 26 22  1  0  0  0  0
 27 23  1  0  0  0  0
 28 24  2  0  0  0  0
M  END
>  <MODEL>
2

>  <REMARK>
 VINA RESULT:      -8.5      1.492      2.097
  Name = 
  1 active torsions:
  status: ('A' for Active; 'I' for Inactive)
    1  A    between atoms: C_1  and  C_2
                            x       y       z     vdW  Elec       q    Type
                         _______ _______ _______ _____ _____    ______ ____

>  <TORSDO>
F 1

$$$$
=
 OpenBabel11052418153D

 28 32  0  0  1  0  0  0  0  0999 V2000
  185.3840  177.5190  144.0080 C   0  0  2  0  0  3  0  0  0  0  0  0
  190.1660  175.4390  144.1220 C   0  0  0  0  0  3  0  0  0  0  0  0
  187.2390  178.5950  148.4110 O   0  0  0  0  0  0  0  0  0  0  0  0
  191.1370  176.3310  146.1650 C   0  0  0  0  0  0  0  0  0  0  0  0
  188.7730  176.7160  145.6840 C   0  0  0  0  0  0  0  0  0  0  0  0
  192.5090  175.0720  144.6160 C   0  0  0  0  0  0  0  0  0  0  0  0
  190.0150  176.1600  145.3180 C   0  0  0  0  0  0  0  0  0  0  0  0
  189.7800  177.5830  147.7250 C   0  0  0  0  0  3  0  0  0  0  0  0
  192.3740  175.7870  145.8080 C   0  0  0  0  0  3  0  0  0  0  0  0
  186.1640  177.8820  146.3850 C   0  0  1  0  0  3  0  0  0  0  0  0
  187.5520  176.5020  144.8270 C   0  0  0  0  0  2  0  0  0  0  0  0
  191.0110  177.0390  147.3610 C   0  0  0  0  0  3  0  0  0  0  0  0
  183.9930  178.8520  145.6270 C   0  0  0  0  0  2  0  0  0  0  0  0
  187.3610  178.0260  147.2910 C   0  0  0  0  0  0  0  0  0  0  0  0
  185.2220  179.0790  146.5000 C   0  0  0  0  0  2  0  0  0  0  0  0
  193.7100  174.5480  144.2740 F   0  0  0  0  0  0  0  0  0  0  0  0
  191.4070  174.8980  143.7740 C   0  0  0  0  0  3  0  0  0  0  0  0
  188.6580  177.4260  146.9010 C   0  0  0  0  0  0  0  0  0  0  0  0
  184.4090  178.6900  144.1690 C   0  0  0  0  0  2  0  0  0  0  0  0
  186.6060  177.6990  144.9250 C   0  0  1  0  0  3  0  0  0  0  0  0
  185.7790  177.3800  142.5680 C   0  0  0  0  0  0  0  0  0  0  0  0
  186.7290  176.4300  142.1640 C   0  0  0  0  0  3  0  0  0  0  0  0
  186.4740  177.1430  139.8630 C   0  0  0  0  0  0  0  0  0  0  0  0
  185.1820  178.2090  141.6130 C   0  0  0  0  0  3  0  0  0  0  0  0
  188.2650  175.1090  140.3420 Cl  0  0  0  0  0  0  0  0  0  0  0  0
  187.0770  176.3100  140.8150 C   0  0  0  0  0  0  0  0  0  0  0  0
  186.8080  177.0370  138.5180 O   0  0  0  0  0  1  0  0  0  0  0  0
  185.5290  178.0920  140.2650 C   0  0  0  0  0  3  0  0  0  0  0  0
  1 21  1  6  0  0  0
  1 19  1  0  0  0  0
  1 20  1  0  0  0  0
  2  7  1  0  0  0  0
  4 12  1  0  0  0  0
  5 18  2  0  0  0  0
  6  9  2  0  0  0  0
  7  5  1  0  0  0  0
  7  4  2  0  0  0  0
  9  4  1  0  0  0  0
 10 15  1  6  0  0  0
 10 14  1  0  0  0  0
 11  5  1  0  0  0  0
 12  8  2  0  0  0  0
 13 15  1  0  0  0  0
 14  3  2  0  0  0  0
 16  6  1  0  0  0  0
 17  2  2  0  0  0  0
 17  6  1  0  0  0  0
 18 14  1  0  0  0  0
 18  8  1  0  0  0  0
 19 13  1  0  0  0  0
 20 11  1  1  0  0  0
 20 10  1  0  0  0  0
 22 21  1  0  0  0  0
 23 28  2  0  0  0  0
 23 26  1  0  0  0  0
 24 21  2  0  0  0  0
 25 26  1  0  0  0  0
 26 22  2  0  0  0  0
 27 23  1  0  0  0  0
 28 24  1  0  0  0  0
M  END
>  <MODEL>
3

>  <REMARK>
 VINA RESULT:      -8.5      3.165      6.029
  Name = 
  1 active torsions:
  status: ('A' for Active; 'I' for Inactive)
    1  A    between atoms: C_1  and  C_2
                            x       y       z     vdW  Elec       q    Type
                         _______ _______ _______ _____ _____    ______ ____

>  <TORSDO>
F 1

$$$$
=
 OpenBabel11052418153D

 28 32  0  0  1  0  0  0  0  0999 V2000
  190.5240  176.1430  144.7390 C   0  0  2  0  0  3  0  0  0  0  0  0
  186.5450  177.6830  141.7380 C   0  0  0  0  0  3  0  0  0  0  0  0
  187.1200  177.9160  147.7820 O   0  0  0  0  0  0  0  0  0  0  0  0
  184.7810  178.1910  143.3310 C   0  0  0  0  0  0  0  0  0  0  0  0
  187.0270  177.6790  144.1420 C   0  0  0  0  0  0  0  0  0  0  0  0
  184.3090  178.1890  140.9550 C   0  0  0  0  0  0  0  0  0  0  0  0
  186.1300  177.8490  143.0690 C   0  0  0  0  0  0  0  0  0  0  0  0
  185.2350  178.2040  145.7050 C   0  0  0  0  0  3  0  0  0  0  0  0
  183.8810  178.3580  142.2740 C   0  0  0  0  0  3  0  0  0  0  0  0
  188.9360  177.2810  146.3440 C   0  0  1  0  0  3  0  0  0  0  0  0
  188.4800  177.3690  143.8860 C   0  0  0  0  0  2  0  0  0  0  0  0
  184.3440  178.3670  144.6440 C   0  0  0  0  0  3  0  0  0  0  0  0
  190.9720  176.1300  147.2150 C   0  0  0  0  0  2  0  0  0  0  0  0
  187.5050  177.6760  146.6040 C   0  0  0  0  0  0  0  0  0  0  0  0
  189.5050  176.4390  147.4860 C   0  0  0  0  0  2  0  0  0  0  0  0
  183.4340  178.3510  139.9340 F   0  0  0  0  0  0  0  0  0  0  0  0
  185.6390  177.8520  140.6870 C   0  0  0  0  0  3  0  0  0  0  0  0
  186.5740  177.8660  145.4670 C   0  0  0  0  0  0  0  0  0  0  0  0
  191.1130  175.3520  145.9110 C   0  0  0  0  0  2  0  0  0  0  0  0
  189.0580  176.5170  145.0170 C   0  0  1  0  0  3  0  0  0  0  0  0
  190.6720  175.3590  143.4690 C   0  0  0  0  0  0  0  0  0  0  0  0
  189.6570  174.4980  143.0240 C   0  0  0  0  0  3  0  0  0  0  0  0
  190.9860  173.9240  141.0820 C   0  0  0  0  0  0  0  0  0  0  0  0
  191.8420  175.4950  142.7160 C   0  0  0  0  0  3  0  0  0  0  0  0
  188.5220  172.7190  141.3010 Cl  0  0  0  0  0  0  0  0  0  0  0  0
  189.8110  173.7830  141.8330 C   0  0  0  0  0  0  0  0  0  0  0  0
  191.1550  173.2200  139.8950 O   0  0  0  0  0  1  0  0  0  0  0  0
  191.9990  174.7790  141.5260 C   0  0  0  0  0  3  0  0  0  0  0  0
  1 21  1  6  0  0  0
  1 20  1  0  0  0  0
  1 19  1  0  0  0  0
  2  7  1  0  0  0  0
  4 12  1  0  0  0  0
  5 18  2  0  0  0  0
  6  9  2  0  0  0  0
  7  4  2  0  0  0  0
  7  5  1  0  0  0  0
  9  4  1  0  0  0  0
 10 14  1  0  0  0  0
 10 15  1  1  0  0  0
 11  5  1  0  0  0  0
 12  8  2  0  0  0  0
 13 15  1  0  0  0  0
 14  3  2  0  0  0  0
 16  6  1  0  0  0  0
 17  6  1  0  0  0  0
 17  2  2  0  0  0  0
 18  8  1  0  0  0  0
 18 14  1  0  0  0  0
 19 13  1  0  0  0  0
 20 11  1  6  0  0  0
 20 10  1  0  0  0  0
 22 21  1  0  0  0  0
 23 28  2  0  0  0  0
 23 26  1  0  0  0  0
 24 21  2  0  0  0  0
 25 26  1  0  0  0  0
 26 22  2  0  0  0  0
 27 23  1  0  0  0  0
 28 24  1  0  0  0  0
M  END
>  <MODEL>
4

>  <REMARK>
 VINA RESULT:      -8.4      1.176      1.564
  Name = 
  1 active torsions:
  status: ('A' for Active; 'I' for Inactive)
    1  A    between atoms: C_1  and  C_2
                            x       y       z     vdW  Elec       q    Type
                         _______ _______ _______ _____ _____    ______ ____

>  <TORSDO>
F 1

$$$$
=
 OpenBabel11052418153D

 28 32  0  0  1  0  0  0  0  0999 V2000
  189.2260  176.2700  146.5480 C   0  0  2  0  0  3  0  0  0  0  0  0
  188.6500  173.5140  142.1570 C   0  0  0  0  0  3  0  0  0  0  0  0
  193.6860  174.6260  145.3690 O   0  0  0  0  0  0  0  0  0  0  0  0
  190.9320  173.0610  141.4530 C   0  0  0  0  0  0  0  0  0  0  0  0
  190.5230  174.0910  143.6300 C   0  0  0  0  0  0  0  0  0  0  0  0
  189.0790  172.4980  140.0000 C   0  0  0  0  0  0  0  0  0  0  0  0
  190.0280  173.5590  142.4230 C   0  0  0  0  0  0  0  0  0  0  0  0
  192.7940  173.6110  142.8940 C   0  0  0  0  0  3  0  0  0  0  0  0
  190.4520  172.5360  140.2500 C   0  0  0  0  0  3  0  0  0  0  0  0
  191.5010  175.2410  146.1550 C   0  0  1  0  0  3  0  0  0  0  0  0
  189.5780  174.5760  144.7000 C   0  0  0  0  0  2  0  0  0  0  0  0
  192.3060  173.0900  141.6960 C   0  0  0  0  0  3  0  0  0  0  0  0
  191.1760  176.8640  148.0220 C   0  0  0  0  0  2  0  0  0  0  0  0
  192.4490  174.6780  145.1260 C   0  0  0  0  0  0  0  0  0  0  0  0
  192.1410  176.3810  146.9470 C   0  0  0  0  0  2  0  0  0  0  0  0
  188.6180  171.9880  138.8330 F   0  0  0  0  0  0  0  0  0  0  0  0
  188.1790  172.9860  140.9510 C   0  0  0  0  0  3  0  0  0  0  0  0
  191.9160  174.1090  143.8670 C   0  0  0  0  0  0  0  0  0  0  0  0
  189.8880  177.3710  147.3830 C   0  0  0  0  0  2  0  0  0  0  0  0
  190.2030  175.7260  145.4920 C   0  0  1  0  0  3  0  0  0  0  0  0
  187.9630  176.7900  145.9290 C   0  0  0  0  0  0  0  0  0  0  0  0
  187.9790  177.4490  144.6900 C   0  0  0  0  0  3  0  0  0  0  0  0
  185.5760  177.7320  144.8020 C   0  0  0  0  0  0  0  0  0  0  0  0
  186.7490  176.6070  146.5990 C   0  0  0  0  0  3  0  0  0  0  0  0
  186.8420  178.7350  142.5740 Cl  0  0  0  0  0  0  0  0  0  0  0  0
  186.7890  177.9190  144.1260 C   0  0  0  0  0  0  0  0  0  0  0  0
  184.3830  178.1920  144.2550 O   0  0  0  0  0  1  0  0  0  0  0  0
  185.5590  177.0770  146.0370 C   0  0  0  0  0  3  0  0  0  0  0  0
  1 21  1  6  0  0  0
  1 19  1  0  0  0  0
  2  7  1  0  0  0  0
  4 12  2  0  0  0  0
  4  7  1  0  0  0  0
  5 18  1  0  0  0  0
  5 11  1  0  0  0  0
  6  9  2  0  0  0  0
  6 17  1  0  0  0  0
  7  5  2  0  0  0  0
  8 18  2  0  0  0  0
  9  4  1  0  0  0  0
 10 15  1  6  0  0  0
 12  8  1  0  0  0  0
 14  3  2  0  0  0  0
 14 10  1  0  0  0  0
 15 13  1  0  0  0  0
 16  6  1  0  0  0  0
 17  2  2  0  0  0  0
 18 14  1  0  0  0  0
 19 13  1  0  0  0  0
 20 11  1  1  0  0  0
 20 10  1  0  0  0  0
 20  1  1  0  0  0  0
 21 24  1  0  0  0  0
 22 21  2  0  0  0  0
 23 28  1  0  0  0  0
 25 26  1  0  0  0  0
 26 22  1  0  0  0  0
 26 23  2  0  0  0  0
 27 23  1  0  0  0  0
 28 24  2  0  0  0  0
M  END
>  <MODEL>
5

>  <REMARK>
 VINA RESULT:      -8.3      3.192      6.365
  Name = 
  1 active torsions:
  status: ('A' for Active; 'I' for Inactive)
    1  A    between atoms: C_1  and  C_2
                            x       y       z     vdW  Elec       q    Type
                         _______ _______ _______ _____ _____    ______ ____

>  <TORSDO>
F 1

$$$$
=
 OpenBabel11052418153D

 28 32  0  0  1  0  0  0  0  0999 V2000
  190.6480  173.8930  144.3080 C   0  0  2  0  0  3  0  0  0  0  0  0
  186.9700  177.5870  144.4960 C   0  0  0  0  0  3  0  0  0  0  0  0
  188.8260  174.2430  139.7760 O   0  0  0  0  0  0  0  0  0  0  0  0
  186.3940  177.9500  142.1630 C   0  0  0  0  0  0  0  0  0  0  0  0
  187.8820  176.1100  142.7660 C   0  0  0  0  0  0  0  0  0  0  0  0
  185.4990  179.4090  143.8760 C   0  0  0  0  0  0  0  0  0  0  0  0
  187.0880  177.2080  143.1500 C   0  0  0  0  0  0  0  0  0  0  0  0
  187.2720  176.5000  140.4410 C   0  0  0  0  0  3  0  0  0  0  0  0
  185.6060  179.0440  142.5330 C   0  0  0  0  0  3  0  0  0  0  0  0
  189.5800  173.8270  142.0180 C   0  0  1  0  0  3  0  0  0  0  0  0
  188.5860  175.2720  143.8020 C   0  0  0  0  0  2  0  0  0  0  0  0
  186.4900  177.5910  140.8180 C   0  0  0  0  0  3  0  0  0  0  0  0
  191.5790  172.4120  142.5000 C   0  0  0  0  0  2  0  0  0  0  0  0
  188.8100  174.6080  140.9840 C   0  0  0  0  0  0  0  0  0  0  0  0
  190.8750  173.2550  141.4430 C   0  0  0  0  0  2  0  0  0  0  0  0
  184.7350  180.4710  144.2300 F   0  0  0  0  0  0  0  0  0  0  0  0
  186.1790  178.6820  144.8570 C   0  0  0  0  0  3  0  0  0  0  0  0
  187.9670  175.7520  141.4010 C   0  0  0  0  0  0  0  0  0  0  0  0
  191.9150  173.2680  143.7160 C   0  0  0  0  0  2  0  0  0  0  0  0
  189.8900  174.7020  143.2420 C   0  0  1  0  0  3  0  0  0  0  0  0
  191.0030  174.7310  145.5010 C   0  0  0  0  0  0  0  0  0  0  0  0
  192.2340  175.4010  145.5780 C   0  0  0  0  0  3  0  0  0  0  0  0
  191.6170  176.2980  147.7420 C   0  0  0  0  0  0  0  0  0  0  0  0
  190.0850  174.8480  146.5500 C   0  0  0  0  0  3  0  0  0  0  0  0
  194.0860  177.0110  146.7590 Cl  0  0  0  0  0  0  0  0  0  0  0  0
  192.5410  176.1830  146.6950 C   0  0  0  0  0  0  0  0  0  0  0  0
  191.9080  177.0730  148.8590 O   0  0  0  0  0  1  0  0  0  0  0  0
  190.3920  175.6290  147.6670 C   0  0  0  0  0  3  0  0  0  0  0  0
  1 21  1  1  0  0  0
  2 17  1  0  0  0  0
  3 14  2  0  0  0  0
  4  9  2  0  0  0  0
  4  7  1  0  0  0  0
  5  7  1  0  0  0  0
  5 11  1  0  0  0  0
  6 16  1  0  0  0  0
  6 17  2  0  0  0  0
  7  2  2  0  0  0  0
  8 12  2  0  0  0  0
  8 18  1  0  0  0  0
  9  6  1  0  0  0  0
 10 15  1  6  0  0  0
 10 20  1  0  0  0  0
 12  4  1  0  0  0  0
 13 19  1  0  0  0  0
 14 18  1  0  0  0  0
 14 10  1  0  0  0  0
 15 13  1  0  0  0  0
 18  5  2  0  0  0  0
 19  1  1  0  0  0  0
 20 11  1  1  0  0  0
 20  1  1  0  0  0  0
 21 22  2  0  0  0  0
 21 24  1  0  0  0  0
 22 26  1  0  0  0  0
 23 27  1  0  0  0  0
 24 28  2  0  0  0  0
 26 25  1  0  0  0  0
 26 23  2  0  0  0  0
 28 23  1  0  0  0  0
M  END
>  <MODEL>
6

>  <REMARK>
 VINA RESULT:      -8.2      2.451      5.135
  Name = 
  1 active torsions:
  status: ('A' for Active; 'I' for Inactive)
    1  A    between atoms: C_1  and  C_2
                            x       y       z     vdW  Elec       q    Type
                         _______ _______ _______ _____ _____    ______ ____

>  <TORSDO>
F 1

$$$$
=
 OpenBabel11052418153D

 28 32  0  0  1  0  0  0  0  0999 V2000
  186.0410  177.7470  145.4420 C   0  0  2  0  0  3  0  0  0  0  0  0
  189.3120  175.0090  142.4410 C   0  0  0  0  0  3  0  0  0  0  0  0
  190.2550  177.4610  147.9190 O   0  0  0  0  0  0  0  0  0  0  0  0
  191.4560  175.2360  143.5630 C   0  0  0  0  0  0  0  0  0  0  0  0
  189.4330  176.0730  144.6460 C   0  0  0  0  0  0  0  0  0  0  0  0
  191.3320  174.1900  141.3830 C   0  0  0  0  0  0  0  0  0  0  0  0
  190.0550  175.4410  143.5510 C   0  0  0  0  0  0  0  0  0  0  0  0
  191.5980  176.2720  145.7430 C   0  0  0  0  0  3  0  0  0  0  0  0
  192.0840  174.6140  142.4800 C   0  0  0  0  0  3  0  0  0  0  0  0
  188.0860  177.4160  146.8910 C   0  0  1  0  0  3  0  0  0  0  0  0
  187.9370  176.2530  144.6810 C   0  0  0  0  0  2  0  0  0  0  0  0
  192.2160  175.6520  144.6570 C   0  0  0  0  0  3  0  0  0  0  0  0
  186.2100  178.8500  147.6970 C   0  0  0  0  0  2  0  0  0  0  0  0
  189.5720  177.1610  146.9010 C   0  0  0  0  0  0  0  0  0  0  0  0
  187.7230  178.6780  147.6710 C   0  0  0  0  0  2  0  0  0  0  0  0
  191.9440  173.5880  140.3350 F   0  0  0  0  0  0  0  0  0  0  0  0
  189.9480  174.3860  141.3620 C   0  0  0  0  0  3  0  0  0  0  0  0
  190.2130  176.4840  145.7510 C   0  0  0  0  0  0  0  0  0  0  0  0
  185.6710  178.9780  146.2760 C   0  0  0  0  0  2  0  0  0  0  0  0
  187.5610  177.5200  145.4500 C   0  0  1  0  0  3  0  0  0  0  0  0
  185.5020  177.8950  144.0500 C   0  0  0  0  0  0  0  0  0  0  0  0
  186.2990  177.6130  142.9290 C   0  0  0  0  0  3  0  0  0  0  0  0
  184.4500  178.1690  141.4670 C   0  0  0  0  0  0  0  0  0  0  0  0
  184.1810  178.3140  143.8700 C   0  0  0  0  0  3  0  0  0  0  0  0
  186.7960  177.3860  140.2600 Cl  0  0  0  0  0  0  0  0  0  0  0  0
  185.7760  177.7500  141.6400 C   0  0  0  0  0  0  0  0  0  0  0  0
  183.9140  178.3090  140.1910 O   0  0  0  0  0  1  0  0  0  0  0  0
  183.6560  178.4520  142.5830 C   0  0  0  0  0  3  0  0  0  0  0  0
  1 21  1  6  0  0  0
  1 20  1  0  0  0  0
  1 19  1  0  0  0  0
  2  7  1  0  0  0  0
  4 12  1  0  0  0  0
  5 11  1  0  0  0  0
  5 18  2  0  0  0  0
  6  9  2  0  0  0  0
  7  4  2  0  0  0  0
  7  5  1  0  0  0  0
  8 18  1  0  0  0  0
  9  4  1  0  0  0  0
 10 14  1  0  0  0  0
 10 15  1  1  0  0  0
 12  8  2  0  0  0  0
 14  3  2  0  0  0  0
 15 13  1  0  0  0  0
 16  6  1  0  0  0  0
 17  6  1  0  0  0  0
 17  2  2  0  0  0  0
 18 14  1  0  0  0  0
 19 13  1  0  0  0  0
 20 11  1  6  0  0  0
 20 10  1  0  0  0  0
 22 21  2  0  0  0  0
 23 26  2  0  0  0  0
 23 28  1  0  0  0  0
 24 21  1  0  0  0  0
 25 26  1  0  0  0  0
 26 22  1  0  0  0  0
 27 23  1  0  0  0  0
 28 24  2  0  0  0  0
M  END
>  <MODEL>
7

>  <REMARK>
 VINA RESULT:      -8.0      3.055      6.126
  Name = 
  1 active torsions:
  status: ('A' for Active; 'I' for Inactive)
    1  A    between atoms: C_1  and  C_2
                            x       y       z     vdW  Elec       q    Type
                         _______ _______ _______ _____ _____    ______ ____

>  <TORSDO>
F 1

$$$$
=
 OpenBabel11052418153D

 28 32  0  0  1  0  0  0  0  0999 V2000
  187.8400  177.9230  146.4880 C   0  0  2  0  0  3  0  0  0  0  0  0
  187.2980  177.5040  141.3170 C   0  0  0  0  0  3  0  0  0  0  0  0
  183.2900  179.4160  145.4630 O   0  0  0  0  0  0  0  0  0  0  0  0
  184.9280  177.9000  140.9490 C   0  0  0  0  0  0  0  0  0  0  0  0
  185.8770  178.2440  143.1730 C   0  0  0  0  0  0  0  0  0  0  0  0
  186.3350  177.1650  139.1200 C   0  0  0  0  0  0  0  0  0  0  0  0
  186.0440  177.8840  141.8210 C   0  0  0  0  0  0  0  0  0  0  0  0
  183.5100  178.6410  142.7610 C   0  0  0  0  0  3  0  0  0  0  0  0
  185.0820  177.5410  139.6060 C   0  0  0  0  0  3  0  0  0  0  0  0
  185.5820  178.9560  146.0120 C   0  0  1  0  0  3  0  0  0  0  0  0
  187.0590  178.2870  144.1070 C   0  0  0  0  0  2  0  0  0  0  0  0
  183.6720  178.2790  141.4240 C   0  0  0  0  0  3  0  0  0  0  0  0
  186.3440  178.6640  148.3710 C   0  0  0  0  0  2  0  0  0  0  0  0
  184.4110  178.9990  145.0630 C   0  0  0  0  0  0  0  0  0  0  0  0
  185.1410  178.6200  147.4360 C   0  0  0  0  0  2  0  0  0  0  0  0
  186.4790  176.8170  137.8190 F   0  0  0  0  0  0  0  0  0  0  0  0
  187.4420  177.1470  139.9730 C   0  0  0  0  0  3  0  0  0  0  0  0
  184.6010  178.6310  143.6410 C   0  0  0  0  0  0  0  0  0  0  0  0
  187.3910  177.6480  147.9260 C   0  0  0  0  0  2  0  0  0  0  0  0
  186.6330  177.9410  145.5350 C   0  0  1  0  0  3  0  0  0  0  0  0
  188.8670  176.9130  146.0730 C   0  0  0  0  0  0  0  0  0  0  0  0
  190.0560  177.3040  145.4360 C   0  0  0  0  0  3  0  0  0  0  0  0
  190.7670  174.9910  145.3290 C   0  0  0  0  0  0  0  0  0  0  0  0
  188.6360  175.5580  146.3320 C   0  0  0  0  0  3  0  0  0  0  0  0
  192.4810  176.8690  144.2750 Cl  0  0  0  0  0  0  0  0  0  0  0  0
  191.0040  176.3470  145.0650 C   0  0  0  0  0  0  0  0  0  0  0  0
  191.7010  174.0270  144.9660 O   0  0  0  0  0  1  0  0  0  0  0  0
  189.5830  174.6000  145.9600 C   0  0  0  0  0  3  0  0  0  0  0  0
  1 21  1  6  0  0  0
  1 19  1  0  0  0  0
  2  7  1  0  0  0  0
  4 12  2  0  0  0  0
  4  7  1  0  0  0  0
  5 18  1  0  0  0  0
  5 11  1  0  0  0  0
  6  9  2  0  0  0  0
  6 17  1  0  0  0  0
  7  5  2  0  0  0  0
  8 18  2  0  0  0  0
  9  4  1  0  0  0  0
 10 15  1  1  0  0  0
 12  8  1  0  0  0  0
 14  3  2  0  0  0  0
 14 10  1  0  0  0  0
 15 13  1  0  0  0  0
 16  6  1  0  0  0  0
 17  2  2  0  0  0  0
 18 14  1  0  0  0  0
 19 13  1  0  0  0  0
 20 11  1  6  0  0  0
 20 10  1  0  0  0  0
 20  1  1  0  0  0  0
 21 24  1  0  0  0  0
 22 21  2  0  0  0  0
 23 28  1  0  0  0  0
 25 26  1  0  0  0  0
 26 23  2  0  0  0  0
 26 22  1  0  0  0  0
 27 23  1  0  0  0  0
 28 24  2  0  0  0  0
M  END
>  <MODEL>
8

>  <REMARK>
 VINA RESULT:      -8.0      2.868      4.088
  Name = 
  1 active torsions:
  status: ('A' for Active; 'I' for Inactive)
    1  A    between atoms: C_1  and  C_2
                            x       y       z     vdW  Elec       q    Type
                         _______ _______ _______ _____ _____    ______ ____

>  <TORSDO>
F 1

$$$$
=
 OpenBabel11052418153D

 28 32  0  0  1  0  0  0  0  0999 V2000
  191.1650  173.9620  143.1090 C   0  0  2  0  0  3  0  0  0  0  0  0
  187.4980  177.4780  144.2910 C   0  0  0  0  0  3  0  0  0  0  0  0
  188.3530  174.3980  139.1240 O   0  0  0  0  0  0  0  0  0  0  0  0
  186.3950  177.9010  142.1660 C   0  0  0  0  0  0  0  0  0  0  0  0
  188.0460  176.1080  142.3320 C   0  0  0  0  0  0  0  0  0  0  0  0
  185.8610  179.2540  144.1020 C   0  0  0  0  0  0  0  0  0  0  0  0
  187.3200  177.1550  142.9360 C   0  0  0  0  0  0  0  0  0  0  0  0
  186.9110  176.5570  140.2250 C   0  0  0  0  0  3  0  0  0  0  0  0
  185.6740  178.9440  142.7540 C   0  0  0  0  0  3  0  0  0  0  0  0
  189.6090  173.9330  141.1170 C   0  0  1  0  0  3  0  0  0  0  0  0
  188.9950  175.2650  143.1440 C   0  0  0  0  0  2  0  0  0  0  0  0
  186.1970  177.5970  140.8190 C   0  0  0  0  0  3  0  0  0  0  0  0
  191.7140  172.5920  141.0710 C   0  0  0  0  0  2  0  0  0  0  0  0
  188.5970  174.7170  140.3200 C   0  0  0  0  0  0  0  0  0  0  0  0
  190.7600  173.4410  140.2390 C   0  0  0  0  0  2  0  0  0  0  0  0
  185.1600  180.2660  144.6680 F   0  0  0  0  0  0  0  0  0  0  0  0
  186.7710  178.5220  144.8710 C   0  0  0  0  0  3  0  0  0  0  0  0
  187.8310  175.8060  140.9680 C   0  0  0  0  0  0  0  0  0  0  0  0
  192.2870  173.4170  142.2180 C   0  0  0  0  0  2  0  0  0  0  0  0
  190.1580  174.7760  142.2790 C   0  0  1  0  0  3  0  0  0  0  0  0
  191.7510  174.7700  144.2280 C   0  0  0  0  0  0  0  0  0  0  0  0
  191.2930  174.6240  145.5470 C   0  0  0  0  0  3  0  0  0  0  0  0
  192.8870  176.2890  146.2920 C   0  0  0  0  0  0  0  0  0  0  0  0
  192.7760  175.6800  143.9500 C   0  0  0  0  0  3  0  0  0  0  0  0
  191.2670  175.1710  148.2150 Cl  0  0  0  0  0  0  0  0  0  0  0  0
  191.8590  175.3800  146.5770 C   0  0  0  0  0  0  0  0  0  0  0  0
  193.4610  177.0480  147.3060 O   0  0  0  0  0  1  0  0  0  0  0  0
  193.3420  176.4370  144.9780 C   0  0  0  0  0  3  0  0  0  0  0  0
  1 21  1  1  0  0  0
  2 17  1  0  0  0  0
  3 14  2  0  0  0  0
  4  9  2  0  0  0  0
  4  7  1  0  0  0  0
  5  7  1  0  0  0  0
  5 11  1  0  0  0  0
  6 16  1  0  0  0  0
  6 17  2  0  0  0  0
  7  2  2  0  0  0  0
  8 12  2  0  0  0  0
  8 18  1  0  0  0  0
  9  6  1  0  0  0  0
 10 15  1  6  0  0  0
 10 20  1  0  0  0  0
 12  4  1  0  0  0  0
 13 19  1  0  0  0  0
 14 18  1  0  0  0  0
 14 10  1  0  0  0  0
 15 13  1  0  0  0  0
 18  5  2  0  0  0  0
 19  1  1  0  0  0  0
 20  1  1  0  0  0  0
 20 11  1  1  0  0  0
 21 22  1  0  0  0  0
 22 26  2  0  0  0  0
 23 26  1  0  0  0  0
 23 27  1  0  0  0  0
 24 21  2  0  0  0  0
 24 28  1  0  0  0  0
 26 25  1  0  0  0  0
 28 23  2  0  0  0  0
M  END
>  <MODEL>
9

>  <REMARK>
 VINA RESULT:      -7.9      2.792      5.302
  Name = 
  1 active torsions:
  status: ('A' for Active; 'I' for Inactive)
    1  A    between atoms: C_1  and  C_2
                            x       y       z     vdW  Elec       q    Type
                         _______ _______ _______ _____ _____    ______ ____

>  <TORSDO>
F 1

$$$$
