=
 OpenBabel11052421333D

 32 36  0  0  1  0  0  0  0  0999 V2000
  185.1780  177.8540  146.8640 C   0  0  1  0  0  3  0  0  0  0  0  0
  189.7790  176.6500  144.7950 C   0  0  0  0  0  0  0  0  0  0  0  0
  188.5910  173.8880  140.9680 C   0  0  0  0  0  3  0  0  0  0  0  0
  189.9430  173.7560  140.6460 C   0  0  0  0  0  3  0  0  0  0  0  0
  188.0670  177.1210  146.5810 C   0  0  2  0  0  3  0  0  0  0  0  0
  187.3730  176.1730  144.3970 C   0  0  0  0  0  3  0  0  0  0  0  0
  185.5710  176.6940  145.9440 C   0  0  0  0  0  2  0  0  0  0  0  0
  188.2070  174.6430  142.0770 C   0  0  0  0  0  3  0  0  0  0  0  0
  188.7910  176.0350  144.0060 C   0  0  0  0  0  0  0  0  0  0  0  0
  189.1690  175.2770  142.8790 C   0  0  0  0  0  0  0  0  0  0  0  0
  191.5190  175.7690  143.3520 C   0  0  0  0  0  0  0  0  0  0  0  0
  186.1800  178.0070  148.0080 C   0  0  0  0  0  2  0  0  0  0  0  0
  187.0170  176.7410  145.5520 C   0  0  0  0  0  0  0  0  0  0  0  0
  187.5860  178.2640  147.4720 C   0  0  0  0  0  2  0  0  0  0  0  0
  190.9140  174.3780  141.4320 C   0  0  0  0  0  3  0  0  0  0  0  0
  190.5440  175.1410  142.5520 C   0  0  0  0  0  0  0  0  0  0  0  0
  189.3900  177.5440  145.9330 C   0  0  0  0  0  2  0  0  0  0  0  0
  191.1270  176.5240  144.4600 C   0  0  0  0  0  3  0  0  0  0  0  0
  185.0200  179.1590  146.0910 C   0  0  0  0  0  2  0  0  0  0  0  0
  184.0180  178.9910  144.9630 C   0  0  0  0  0  2  0  0  0  0  0  0
  184.7250  179.0200  143.6550 C   0  0  0  0  0  0  0  0  0  0  0  0
  185.7600  179.7210  143.5140 O   0  0  0  0  0  1  0  0  0  0  0  0
  184.2230  178.3020  142.5770 O   0  0  0  0  0  0  0  0  0  0  0  0
  192.9830  175.6290  143.0730 C   0  0  0  0  0  2  0  0  0  0  0  0
  194.9090  175.9440  144.7670 C   0  0  1  0  0  3  0  0  0  0  0  0
  193.8380  173.9350  144.7390 C   0  0  0  0  0  0  0  0  0  0  0  0
  195.0340  173.8010  145.5300 C   0  0  0  0  0  3  0  0  0  0  0  0
  195.6400  174.9430  145.5540 N   0  0  0  0  0  0  0  0  0  0  0  0
  193.0360  173.0060  144.4610 O   0  0  0  0  0  0  0  0  0  0  0  0
  193.7040  175.2670  144.2880 N   0  0  0  0  0  0  0  0  0  0  0  0
  194.5660  177.1660  145.6200 C   0  0  0  0  0  2  0  0  0  0  0  0
  193.8140  176.7940  146.8890 C   0  0  0  0  0  1  0  0  0  0  0  0
  1 19  1  6  0  0  0
  1 12  1  0  0  0  0
  2 17  1  0  0  0  0
  3  8  1  0  0  0  0
  4  3  2  0  0  0  0
  4 15  1  0  0  0  0
  5 17  1  6  0  0  0
  5 14  1  0  0  0  0
  6 13  2  0  0  0  0
  7  1  1  0  0  0  0
  8 10  2  0  0  0  0
  9  6  1  0  0  0  0
  9  2  2  0  0  0  0
 10  9  1  0  0  0  0
 11 18  2  0  0  0  0
 13  7  1  0  0  0  0
 13  5  1  0  0  0  0
 14 12  1  0  0  0  0
 15 16  2  0  0  0  0
 16 10  1  0  0  0  0
 16 11  1  0  0  0  0
 18  2  1  0  0  0  0
 20 19  1  0  0  0  0
 21 20  1  0  0  0  0
 22 21  1  0  0  0  0
 23 21  2  0  0  0  0
 24 11  1  0  0  0  0
 24 30  1  0  0  0  0
 25 28  1  0  0  0  0
 25 31  1  1  0  0  0
 26 27  1  0  0  0  0
 27 28  2  0  0  0  0
 29 26  2  0  0  0  0
 30 26  1  0  0  0  0
 30 25  1  0  0  0  0
 31 32  1  0  0  0  0
M  END
>  <MODEL>
1

>  <REMARK>
 VINA RESULT:      -8.1      0.000      0.000
  Name = 
  6 active torsions:
  status: ('A' for Active; 'I' for Inactive)
    1  A    between atoms: C_1  and  C_10
    2  A    between atoms: C_2  and  C_24
    3  A    between atoms: C_6  and  C_7
    4  A    between atoms: C_10  and  C_24
    5  A    between atoms: C_16  and  C_27
    6  A    between atoms: C_27  and  N_32
                            x       y       z     vdW  Elec       q    Type
                         _______ _______ _______ _____ _____    ______ ____

>  <TORSDO>
F 6

$$$$
=
 OpenBabel11052421333D

 32 36  0  0  1  0  0  0  0  0999 V2000
  185.2120  177.8250  146.8540 C   0  0  1  0  0  3  0  0  0  0  0  0
  189.7460  176.6910  144.6040 C   0  0  0  0  0  0  0  0  0  0  0  0
  188.4730  173.7070  140.9760 C   0  0  0  0  0  3  0  0  0  0  0  0
  189.8110  173.6090  140.5900 C   0  0  0  0  0  3  0  0  0  0  0  0
  188.1090  177.1840  146.4540 C   0  0  2  0  0  3  0  0  0  0  0  0
  187.3430  176.1080  144.3560 C   0  0  0  0  0  3  0  0  0  0  0  0
  185.6030  176.6370  145.9690 C   0  0  0  0  0  2  0  0  0  0  0  0
  188.1170  174.5000  142.0680 C   0  0  0  0  0  3  0  0  0  0  0  0
  188.7440  176.0030  143.8970 C   0  0  0  0  0  0  0  0  0  0  0  0
  189.0940  175.2060  142.7880 C   0  0  0  0  0  0  0  0  0  0  0  0
  191.4430  175.8050  143.1150 C   0  0  0  0  0  0  0  0  0  0  0  0
  186.2640  178.0690  147.9360 C   0  0  0  0  0  2  0  0  0  0  0  0
  187.0250  176.7180  145.5000 C   0  0  0  0  0  0  0  0  0  0  0  0
  187.6310  178.3500  147.3160 C   0  0  0  0  0  2  0  0  0  0  0  0
  190.7960  174.3030  141.2950 C   0  0  0  0  0  3  0  0  0  0  0  0
  190.4540  175.1050  142.3960 C   0  0  0  0  0  0  0  0  0  0  0  0
  189.3800  177.6230  145.7190 C   0  0  0  0  0  2  0  0  0  0  0  0
  191.0790  176.5970  144.2060 C   0  0  0  0  0  3  0  0  0  0  0  0
  184.9660  179.0850  146.0320 C   0  0  0  0  0  2  0  0  0  0  0  0
  183.9070  178.8300  144.9740 C   0  0  0  0  0  2  0  0  0  0  0  0
  184.5230  178.8900  143.6220 C   0  0  0  0  0  0  0  0  0  0  0  0
  183.9490  178.3460  142.6430 O   0  0  0  0  0  0  0  0  0  0  0  0
  185.7510  179.5140  143.4450 O   0  0  0  0  0  1  0  0  0  0  0  0
  192.8960  175.7050  142.7660 C   0  0  0  0  0  2  0  0  0  0  0  0
  193.0210  174.0570  144.7520 C   0  0  1  0  0  3  0  0  0  0  0  0
  194.7010  175.5770  144.5270 C   0  0  0  0  0  0  0  0  0  0  0  0
  194.8120  174.9670  145.8270 C   0  0  0  0  0  3  0  0  0  0  0  0
  193.8630  174.0970  145.9540 N   0  0  0  0  0  0  0  0  0  0  0  0
  195.4300  176.5050  144.0890 O   0  0  0  0  0  0  0  0  0  0  0  0
  193.6270  175.0000  143.8130 N   0  0  0  0  0  0  0  0  0  0  0  0
  192.9650  172.6430  144.1710 C   0  0  0  0  0  2  0  0  0  0  0  0
  191.5590  172.0620  144.1940 C   0  0  0  0  0  1  0  0  0  0  0  0
  1 19  1  6  0  0  0
  1 12  1  0  0  0  0
  2 17  1  0  0  0  0
  3  8  1  0  0  0  0
  4  3  2  0  0  0  0
  4 15  1  0  0  0  0
  5 17  1  6  0  0  0
  5 14  1  0  0  0  0
  6 13  2  0  0  0  0
  7  1  1  0  0  0  0
  8 10  2  0  0  0  0
  9  6  1  0  0  0  0
  9  2  2  0  0  0  0
 10  9  1  0  0  0  0
 11 18  2  0  0  0  0
 13  7  1  0  0  0  0
 13  5  1  0  0  0  0
 14 12  1  0  0  0  0
 15 16  2  0  0  0  0
 16 10  1  0  0  0  0
 16 11  1  0  0  0  0
 18  2  1  0  0  0  0
 20 19  1  0  0  0  0
 21 20  1  0  0  0  0
 22 21  2  0  0  0  0
 23 21  1  0  0  0  0
 24 11  1  0  0  0  0
 24 30  1  0  0  0  0
 25 31  1  6  0  0  0
 25 28  1  0  0  0  0
 26 27  1  0  0  0  0
 27 28  2  0  0  0  0
 29 26  2  0  0  0  0
 30 26  1  0  0  0  0
 30 25  1  0  0  0  0
 31 32  1  0  0  0  0
M  END
>  <MODEL>
2

>  <REMARK>
 VINA RESULT:      -7.8      1.083      1.817
  Name = 
  6 active torsions:
  status: ('A' for Active; 'I' for Inactive)
    1  A    between atoms: C_1  and  C_10
    2  A    between atoms: C_2  and  C_24
    3  A    between atoms: C_6  and  C_7
    4  A    between atoms: C_10  and  C_24
    5  A    between atoms: C_16  and  C_27
    6  A    between atoms: C_27  and  N_32
                            x       y       z     vdW  Elec       q    Type
                         _______ _______ _______ _____ _____    ______ ____

>  <TORSDO>
F 6

$$$$
=
 OpenBabel11052421333D

 32 36  0  0  1  0  0  0  0  0999 V2000
  185.0020  178.1200  146.2430 C   0  0  1  0  0  3  0  0  0  0  0  0
  189.7660  176.1700  145.6100 C   0  0  0  0  0  0  0  0  0  0  0  0
  189.2520  173.1910  141.7950 C   0  0  0  0  0  3  0  0  0  0  0  0
  190.6070  172.8660  141.8690 C   0  0  0  0  0  3  0  0  0  0  0  0
  187.7270  177.0230  146.8180 C   0  0  2  0  0  3  0  0  0  0  0  0
  187.5080  175.9450  144.5950 C   0  0  0  0  0  3  0  0  0  0  0  0
  185.4550  176.8330  145.5460 C   0  0  0  0  0  2  0  0  0  0  0  0
  188.6990  174.0960  142.7030 C   0  0  0  0  0  3  0  0  0  0  0  0
  188.9450  175.5990  144.6210 C   0  0  0  0  0  0  0  0  0  0  0  0
  189.4960  174.6900  143.6960 C   0  0  0  0  0  0  0  0  0  0  0  0
  191.6810  174.9440  144.7650 C   0  0  0  0  0  0  0  0  0  0  0  0
  185.6760  178.2700  147.6070 C   0  0  0  0  0  2  0  0  0  0  0  0
  186.9450  176.6670  145.5670 C   0  0  0  0  0  0  0  0  0  0  0  0
  187.1960  178.3000  147.4640 C   0  0  0  0  0  2  0  0  0  0  0  0
  191.4140  173.4460  142.8490 C   0  0  0  0  0  3  0  0  0  0  0  0
  190.8740  174.3580  143.7700 C   0  0  0  0  0  0  0  0  0  0  0  0
  189.2210  177.2160  146.5350 C   0  0  0  0  0  2  0  0  0  0  0  0
  191.1220  175.8490  145.6690 C   0  0  0  0  0  3  0  0  0  0  0  0
  185.2430  179.3490  145.3720 C   0  0  0  0  0  2  0  0  0  0  0  0
  184.3030  179.3470  144.1800 C   0  0  0  0  0  2  0  0  0  0  0  0
  184.9890  178.7550  143.0010 C   0  0  0  0  0  0  0  0  0  0  0  0
  184.3940  177.9070  142.2860 O   0  0  0  0  0  0  0  0  0  0  0  0
  186.2990  179.1110  142.7070 O   0  0  0  0  0  1  0  0  0  0  0  0
  193.1320  174.6020  144.9120 C   0  0  0  0  0  2  0  0  0  0  0  0
  194.6610  175.5220  143.0440 C   0  0  1  0  0  3  0  0  0  0  0  0
  194.7780  176.5070  145.0940 C   0  0  0  0  0  0  0  0  0  0  0  0
  195.8920  176.9680  144.3050 C   0  0  0  0  0  3  0  0  0  0  0  0
  195.8230  176.4160  143.1360 N   0  0  0  0  0  0  0  0  0  0  0  0
  194.5630  176.8020  146.2990 O   0  0  0  0  0  0  0  0  0  0  0  0
  193.9660  175.6440  144.3250 N   0  0  0  0  0  0  0  0  0  0  0  0
  193.7590  175.9190  141.8750 C   0  0  0  0  0  2  0  0  0  0  0  0
  193.9550  175.0230  140.6610 C   0  0  0  0  0  1  0  0  0  0  0  0
  1 19  1  6  0  0  0
  1 12  1  0  0  0  0
  2 18  1  0  0  0  0
  2 17  1  0  0  0  0
  3  4  2  0  0  0  0
  3  8  1  0  0  0  0
  4 15  1  0  0  0  0
  5 17  1  6  0  0  0
  5 14  1  0  0  0  0
  6  9  1  0  0  0  0
  6 13  2  0  0  0  0
  7 13  1  0  0  0  0
  7  1  1  0  0  0  0
  8 10  2  0  0  0  0
  9  2  2  0  0  0  0
 10 16  1  0  0  0  0
 10  9  1  0  0  0  0
 11 24  1  0  0  0  0
 11 18  2  0  0  0  0
 13  5  1  0  0  0  0
 14 12  1  0  0  0  0
 15 16  2  0  0  0  0
 16 11  1  0  0  0  0
 20 19  1  0  0  0  0
 21 20  1  0  0  0  0
 22 21  2  0  0  0  0
 23 21  1  0  0  0  0
 25 31  1  6  0  0  0
 25 28  1  0  0  0  0
 25 30  1  0  0  0  0
 26 29  2  0  0  0  0
 27 26  1  0  0  0  0
 28 27  2  0  0  0  0
 30 24  1  0  0  0  0
 30 26  1  0  0  0  0
 32 31  1  0  0  0  0
M  END
>  <MODEL>
3

>  <REMARK>
 VINA RESULT:      -7.7      1.439      2.148
  Name = 
  6 active torsions:
  status: ('A' for Active; 'I' for Inactive)
    1  A    between atoms: C_1  and  C_10
    2  A    between atoms: C_2  and  C_24
    3  A    between atoms: C_6  and  C_7
    4  A    between atoms: C_10  and  C_24
    5  A    between atoms: C_16  and  C_27
    6  A    between atoms: C_27  and  N_32
                            x       y       z     vdW  Elec       q    Type
                         _______ _______ _______ _____ _____    ______ ____

>  <TORSDO>
F 6

$$$$
=
 OpenBabel11052421333D

 32 36  0  0  1  0  0  0  0  0999 V2000
  192.5630  173.1490  144.7270 C   0  0  1  0  0  3  0  0  0  0  0  0
  188.9110  176.6290  143.5200 C   0  0  0  0  0  0  0  0  0  0  0  0
  186.3720  177.0570  147.6510 C   0  0  0  0  0  3  0  0  0  0  0  0
  185.5450  178.0020  147.0420 C   0  0  0  0  0  3  0  0  0  0  0  0
  190.4890  174.6900  143.2140 C   0  0  2  0  0  3  0  0  0  0  0  0
  189.5850  175.2280  145.4590 C   0  0  0  0  0  3  0  0  0  0  0  0
  191.2020  173.4150  145.3780 C   0  0  0  0  0  2  0  0  0  0  0  0
  187.4200  176.4790  146.9320 C   0  0  0  0  0  3  0  0  0  0  0  0
  188.7060  176.2550  144.8600 C   0  0  0  0  0  0  0  0  0  0  0  0
  187.6560  176.8390  145.5960 C   0  0  0  0  0  0  0  0  0  0  0  0
  187.0370  178.1650  143.6350 C   0  0  0  0  0  0  0  0  0  0  0  0
  192.4360  173.0800  143.2050 C   0  0  0  0  0  2  0  0  0  0  0  0
  190.4680  174.5480  144.7250 C   0  0  0  0  0  0  0  0  0  0  0  0
  191.8720  174.3830  142.6440 C   0  0  0  0  0  2  0  0  0  0  0  0
  185.7630  178.3720  145.7140 C   0  0  0  0  0  3  0  0  0  0  0  0
  186.8130  177.8000  144.9770 C   0  0  0  0  0  0  0  0  0  0  0  0
  190.0860  176.0960  142.7570 C   0  0  0  0  0  2  0  0  0  0  0  0
  188.0880  177.5830  142.9230 C   0  0  0  0  0  3  0  0  0  0  0  0
  193.6010  174.1830  145.1460 C   0  0  0  0  0  2  0  0  0  0  0  0
  193.1010  174.9870  146.3330 C   0  0  0  0  0  2  0  0  0  0  0  0
  193.3720  176.4330  146.1100 C   0  0  0  0  0  0  0  0  0  0  0  0
  194.1400  177.0570  146.8880 O   0  0  0  0  0  1  0  0  0  0  0  0
  192.7500  177.1040  145.0650 O   0  0  0  0  0  0  0  0  0  0  0  0
  186.1570  179.1450  142.9230 C   0  0  0  0  0  2  0  0  0  0  0  0
  185.3040  178.3010  140.6350 C   0  0  1  0  0  3  0  0  0  0  0  0
  183.7970  178.4720  142.3330 C   0  0  0  0  0  0  0  0  0  0  0  0
  183.0740  178.2690  141.1040 C   0  0  0  0  0  3  0  0  0  0  0  0
  183.9290  178.1630  140.1380 N   0  0  0  0  0  0  0  0  0  0  0  0
  183.2780  178.6680  143.4640 O   0  0  0  0  0  0  0  0  0  0  0  0
  185.1870  178.4500  142.0850 N   0  0  0  0  0  0  0  0  0  0  0  0
  186.1440  177.0800  140.2610 C   0  0  0  0  0  2  0  0  0  0  0  0
  186.6750  177.1560  138.8370 C   0  0  0  0  0  1  0  0  0  0  0  0
  1 19  1  6  0  0  0
  1  7  1  0  0  0  0
  2  9  1  0  0  0  0
  4  3  1  0  0  0  0
  5 14  1  1  0  0  0
  5 13  1  0  0  0  0
  8  3  2  0  0  0  0
  9  6  1  0  0  0  0
  9 10  2  0  0  0  0
 10  8  1  0  0  0  0
 11 16  2  0  0  0  0
 12  1  1  0  0  0  0
 13  7  1  0  0  0  0
 13  6  2  0  0  0  0
 14 12  1  0  0  0  0
 15  4  2  0  0  0  0
 16 10  1  0  0  0  0
 16 15  1  0  0  0  0
 17  5  1  0  0  0  0
 17  2  1  0  0  0  0
 18  2  2  0  0  0  0
 18 11  1  0  0  0  0
 19 20  1  0  0  0  0
 21 20  1  0  0  0  0
 21 22  1  0  0  0  0
 23 21  2  0  0  0  0
 24 11  1  0  0  0  0
 25 31  1  1  0  0  0
 25 30  1  0  0  0  0
 26 29  2  0  0  0  0
 27 26  1  0  0  0  0
 28 25  1  0  0  0  0
 28 27  2  0  0  0  0
 30 26  1  0  0  0  0
 30 24  1  0  0  0  0
 32 31  1  0  0  0  0
M  END
>  <MODEL>
4

>  <REMARK>
 VINA RESULT:      -7.6      3.334      8.259
  Name = 
  6 active torsions:
  status: ('A' for Active; 'I' for Inactive)
    1  A    between atoms: C_1  and  C_10
    2  A    between atoms: C_2  and  C_24
    3  A    between atoms: C_6  and  C_7
    4  A    between atoms: C_10  and  C_24
    5  A    between atoms: C_16  and  C_27
    6  A    between atoms: C_27  and  N_32
                            x       y       z     vdW  Elec       q    Type
                         _______ _______ _______ _____ _____    ______ ____

>  <TORSDO>
F 6

$$$$
=
 OpenBabel11052421333D

 32 36  0  0  1  0  0  0  0  0999 V2000
  185.0820  179.1470  143.6960 C   0  0  1  0  0  3  0  0  0  0  0  0
  188.7000  175.4320  143.5970 C   0  0  0  0  0  0  0  0  0  0  0  0
  191.4880  176.4890  147.4440 C   0  0  0  0  0  3  0  0  0  0  0  0
  192.2890  175.3820  147.1650 C   0  0  0  0  0  3  0  0  0  0  0  0
  187.0810  177.1470  142.7130 C   0  0  2  0  0  3  0  0  0  0  0  0
  188.1250  177.4410  144.9430 C   0  0  0  0  0  3  0  0  0  0  0  0
  186.4830  179.1200  144.3150 C   0  0  0  0  0  2  0  0  0  0  0  0
  190.3910  176.7810  146.6310 C   0  0  0  0  0  3  0  0  0  0  0  0
  188.9800  176.2600  144.6990 C   0  0  0  0  0  0  0  0  0  0  0  0
  190.0810  175.9680  145.5290 C   0  0  0  0  0  0  0  0  0  0  0  0
  190.5980  174.0220  144.1400 C   0  0  0  0  0  0  0  0  0  0  0  0
  185.1160  178.6650  142.2450 C   0  0  0  0  0  2  0  0  0  0  0  0
  187.1910  177.8210  144.0680 C   0  0  0  0  0  0  0  0  0  0  0  0
  185.6630  177.2420  142.1550 C   0  0  0  0  0  2  0  0  0  0  0  0
  191.9970  174.5630  146.0740 C   0  0  0  0  0  3  0  0  0  0  0  0
  190.8970  174.8420  145.2450 C   0  0  0  0  0  0  0  0  0  0  0  0
  187.4750  175.6670  142.7660 C   0  0  0  0  0  2  0  0  0  0  0  0
  189.4990  174.3200  143.3320 C   0  0  0  0  0  3  0  0  0  0  0  0
  184.0840  178.3410  144.5200 C   0  0  0  0  0  2  0  0  0  0  0  0
  184.0670  178.8280  145.9590 C   0  0  0  0  0  2  0  0  0  0  0  0
  184.7880  177.8590  146.8260 C   0  0  0  0  0  0  0  0  0  0  0  0
  184.8230  176.6400  146.5140 O   0  0  0  0  0  0  0  0  0  0  0  0
  185.3940  178.2920  147.9980 O   0  0  0  0  0  1  0  0  0  0  0  0
  191.4470  172.8440  143.7740 C   0  0  0  0  0  2  0  0  0  0  0  0
  192.8860  174.4590  142.3620 C   0  0  1  0  0  3  0  0  0  0  0  0
  192.0610  172.6000  141.3380 C   0  0  0  0  0  0  0  0  0  0  0  0
  192.5750  173.4860  140.3250 C   0  0  0  0  0  3  0  0  0  0  0  0
  193.0520  174.5390  140.9050 N   0  0  0  0  0  0  0  0  0  0  0  0
  191.4770  171.5050  141.1250 O   0  0  0  0  0  0  0  0  0  0  0  0
  192.2810  173.1520  142.6190 N   0  0  0  0  0  0  0  0  0  0  0  0
  194.2320  174.6060  143.0730 C   0  0  0  0  0  2  0  0  0  0  0  0
  194.4120  175.9830  143.6940 C   0  0  0  0  0  1  0  0  0  0  0  0
  1  7  1  0  0  0  0
  1 19  1  1  0  0  0
  2  9  1  0  0  0  0
  4  3  1  0  0  0  0
  5 14  1  1  0  0  0
  5 17  1  0  0  0  0
  5 13  1  0  0  0  0
  8  3  2  0  0  0  0
  9  6  1  0  0  0  0
  9 10  2  0  0  0  0
 10  8  1  0  0  0  0
 11 16  2  0  0  0  0
 12  1  1  0  0  0  0
 13  7  1  0  0  0  0
 13  6  2  0  0  0  0
 14 12  1  0  0  0  0
 15  4  2  0  0  0  0
 16 10  1  0  0  0  0
 16 15  1  0  0  0  0
 17  2  1  0  0  0  0
 18  2  2  0  0  0  0
 18 11  1  0  0  0  0
 19 20  1  0  0  0  0
 20 21  1  0  0  0  0
 21 23  1  0  0  0  0
 22 21  2  0  0  0  0
 24 11  1  0  0  0  0
 25 30  1  0  0  0  0
 25 31  1  1  0  0  0
 26 30  1  0  0  0  0
 27 28  2  0  0  0  0
 27 26  1  0  0  0  0
 28 25  1  0  0  0  0
 29 26  2  0  0  0  0
 30 24  1  0  0  0  0
 31 32  1  0  0  0  0
M  END
>  <MODEL>
5

>  <REMARK>
 VINA RESULT:      -7.6      2.274      4.105
  Name = 
  6 active torsions:
  status: ('A' for Active; 'I' for Inactive)
    1  A    between atoms: C_1  and  C_10
    2  A    between atoms: C_2  and  C_24
    3  A    between atoms: C_6  and  C_7
    4  A    between atoms: C_10  and  C_24
    5  A    between atoms: C_16  and  C_27
    6  A    between atoms: C_27  and  N_32
                            x       y       z     vdW  Elec       q    Type
                         _______ _______ _______ _____ _____    ______ ____

>  <TORSDO>
F 6

$$$$
=
 OpenBabel11052421333D

 32 36  0  0  1  0  0  0  0  0999 V2000
  185.0340  178.9170  144.5700 C   0  0  1  0  0  3  0  0  0  0  0  0
  188.6740  175.7700  142.6340 C   0  0  0  0  0  0  0  0  0  0  0  0
  192.6460  176.9600  145.1830 C   0  0  0  0  0  3  0  0  0  0  0  0
  193.3790  175.9980  144.4860 C   0  0  0  0  0  3  0  0  0  0  0  0
  186.6660  177.2910  142.6590 C   0  0  2  0  0  3  0  0  0  0  0  0
  188.4820  177.5840  144.3220 C   0  0  0  0  0  3  0  0  0  0  0  0
  186.5600  179.0500  144.5860 C   0  0  0  0  0  2  0  0  0  0  0  0
  191.2910  177.1450  144.9030 C   0  0  0  0  0  3  0  0  0  0  0  0
  189.2850  176.5560  143.6280 C   0  0  0  0  0  0  0  0  0  0  0  0
  190.6500  176.3700  143.9220 C   0  0  0  0  0  0  0  0  0  0  0  0
  190.7660  174.6120  142.2250 C   0  0  0  0  0  0  0  0  0  0  0  0
  184.5320  178.5410  143.1760 C   0  0  0  0  0  2  0  0  0  0  0  0
  187.2410  177.8840  143.9320 C   0  0  0  0  0  0  0  0  0  0  0  0
  185.1420  177.2190  142.7140 C   0  0  0  0  0  2  0  0  0  0  0  0
  192.7590  175.2190  143.5080 C   0  0  0  0  0  3  0  0  0  0  0  0
  191.3970  175.3920  143.2130 C   0  0  0  0  0  0  0  0  0  0  0  0
  187.2000  175.8820  142.3810 C   0  0  0  0  0  2  0  0  0  0  0  0
  189.4100  174.8030  141.9500 C   0  0  0  0  0  3  0  0  0  0  0  0
  184.5420  177.9250  145.6180 C   0  0  0  0  0  2  0  0  0  0  0  0
  184.6520  178.5240  147.0090 C   0  0  0  0  0  2  0  0  0  0  0  0
  185.9210  178.0840  147.6470 C   0  0  0  0  0  0  0  0  0  0  0  0
  186.6920  178.9320  148.1680 O   0  0  0  0  0  1  0  0  0  0  0  0
  186.2750  176.7410  147.6360 O   0  0  0  0  0  0  0  0  0  0  0  0
  191.5140  173.5930  141.4220 C   0  0  0  0  0  2  0  0  0  0  0  0
  191.9320  171.4220  142.7570 C   0  0  1  0  0  3  0  0  0  0  0  0
  190.5130  171.3180  140.9800 C   0  0  0  0  0  0  0  0  0  0  0  0
  190.8220  169.9730  141.3920 C   0  0  0  0  0  3  0  0  0  0  0  0
  191.6220  170.0290  142.4070 N   0  0  0  0  0  0  0  0  0  0  0  0
  189.8030  171.6360  139.9900 O   0  0  0  0  0  0  0  0  0  0  0  0
  191.1480  172.2450  141.8370 N   0  0  0  0  0  0  0  0  0  0  0  0
  191.5730  171.7100  144.2160 C   0  0  0  0  0  2  0  0  0  0  0  0
  190.0830  171.9520  144.4080 C   0  0  0  0  0  1  0  0  0  0  0  0
  1  7  1  0  0  0  0
  1 19  1  1  0  0  0
  2  9  1  0  0  0  0
  4  3  1  0  0  0  0
  5 17  1  1  0  0  0
  5 14  1  0  0  0  0
  5 13  1  0  0  0  0
  8  3  2  0  0  0  0
  9 10  2  0  0  0  0
  9  6  1  0  0  0  0
 10  8  1  0  0  0  0
 11 16  2  0  0  0  0
 12  1  1  0  0  0  0
 13  6  2  0  0  0  0
 13  7  1  0  0  0  0
 14 12  1  0  0  0  0
 15  4  2  0  0  0  0
 16 15  1  0  0  0  0
 16 10  1  0  0  0  0
 17  2  1  0  0  0  0
 18 11  1  0  0  0  0
 18  2  2  0  0  0  0
 19 20  1  0  0  0  0
 20 21  1  0  0  0  0
 21 22  1  0  0  0  0
 23 21  2  0  0  0  0
 24 30  1  0  0  0  0
 24 11  1  0  0  0  0
 25 31  1  1  0  0  0
 26 27  1  0  0  0  0
 26 30  1  0  0  0  0
 27 28  2  0  0  0  0
 28 25  1  0  0  0  0
 29 26  2  0  0  0  0
 30 25  1  0  0  0  0
 31 32  1  0  0  0  0
M  END
>  <MODEL>
6

>  <REMARK>
 VINA RESULT:      -7.5      2.699      4.487
  Name = 
  6 active torsions:
  status: ('A' for Active; 'I' for Inactive)
    1  A    between atoms: C_1  and  C_10
    2  A    between atoms: C_2  and  C_24
    3  A    between atoms: C_6  and  C_7
    4  A    between atoms: C_10  and  C_24
    5  A    between atoms: C_16  and  C_27
    6  A    between atoms: C_27  and  N_32
                            x       y       z     vdW  Elec       q    Type
                         _______ _______ _______ _____ _____    ______ ____

>  <TORSDO>
F 6

$$$$
=
 OpenBabel11052421333D

 32 36  0  0  1  0  0  0  0  0999 V2000
  195.4380  174.9110  144.7080 C   0  0  1  0  0  3  0  0  0  0  0  0
  190.3970  175.3800  143.5830 C   0  0  0  0  0  0  0  0  0  0  0  0
  188.6070  177.7400  147.4450 C   0  0  0  0  0  3  0  0  0  0  0  0
  187.3380  177.7240  146.8650 C   0  0  0  0  0  3  0  0  0  0  0  0
  192.6790  174.3220  143.7070 C   0  0  2  0  0  3  0  0  0  0  0  0
  191.9560  175.9490  145.4330 C   0  0  0  0  0  3  0  0  0  0  0  0
  194.2390  175.1390  145.6350 C   0  0  0  0  0  2  0  0  0  0  0  0
  189.6900  177.1660  146.7760 C   0  0  0  0  0  3  0  0  0  0  0  0
  190.6030  175.9790  144.8390 C   0  0  0  0  0  0  0  0  0  0  0  0
  189.5170  176.5680  145.5170 C   0  0  0  0  0  0  0  0  0  0  0  0
  188.0400  175.9500  143.6680 C   0  0  0  0  0  0  0  0  0  0  0  0
  195.1500  173.7930  143.7060 C   0  0  0  0  0  2  0  0  0  0  0  0
  192.9470  175.2460  144.8800 C   0  0  0  0  0  0  0  0  0  0  0  0
  193.9290  174.1270  142.8520 C   0  0  0  0  0  2  0  0  0  0  0  0
  187.1480  177.1340  145.6140 C   0  0  0  0  0  3  0  0  0  0  0  0
  188.2260  176.5510  144.9280 C   0  0  0  0  0  0  0  0  0  0  0  0
  191.5570  174.8420  142.8010 C   0  0  0  0  0  2  0  0  0  0  0  0
  189.1280  175.3780  143.0040 C   0  0  0  0  0  3  0  0  0  0  0  0
  195.8540  176.1940  143.9970 C   0  0  0  0  0  2  0  0  0  0  0  0
  197.1530  175.9850  143.2400 C   0  0  0  0  0  2  0  0  0  0  0  0
  196.9200  176.1660  141.7830 C   0  0  0  0  0  0  0  0  0  0  0  0
  197.7280  175.6790  140.9500 O   0  0  0  0  0  0  0  0  0  0  0  0
  195.8290  176.9030  141.3400 O   0  0  0  0  0  1  0  0  0  0  0  0
  186.6940  175.8720  143.0170 C   0  0  0  0  0  2  0  0  0  0  0  0
  185.4560  177.9970  142.2270 C   0  0  1  0  0  3  0  0  0  0  0  0
  186.7340  176.8850  140.7060 C   0  0  0  0  0  0  0  0  0  0  0  0
  185.9240  177.8450  140.0020 C   0  0  0  0  0  3  0  0  0  0  0  0
  185.2020  178.4840  140.8650 N   0  0  0  0  0  0  0  0  0  0  0  0
  187.5170  176.0560  140.1720 O   0  0  0  0  0  0  0  0  0  0  0  0
  186.5040  176.9850  142.0960 N   0  0  0  0  0  0  0  0  0  0  0  0
  185.8910  179.1420  143.1430 C   0  0  0  0  0  2  0  0  0  0  0  0
  184.8080  179.5290  144.1400 C   0  0  0  0  0  1  0  0  0  0  0  0
  1 19  1  6  0  0  0
  1  7  1  0  0  0  0
  2  9  1  0  0  0  0
  4  3  1  0  0  0  0
  5 17  1  6  0  0  0
  5 13  1  0  0  0  0
  8  3  2  0  0  0  0
  9  6  1  0  0  0  0
  9 10  2  0  0  0  0
 10  8  1  0  0  0  0
 11 16  2  0  0  0  0
 12  1  1  0  0  0  0
 13  6  2  0  0  0  0
 13  7  1  0  0  0  0
 14 12  1  0  0  0  0
 14  5  1  0  0  0  0
 15  4  2  0  0  0  0
 16 10  1  0  0  0  0
 16 15  1  0  0  0  0
 17  2  1  0  0  0  0
 18  2  2  0  0  0  0
 18 11  1  0  0  0  0
 20 19  1  0  0  0  0
 21 20  1  0  0  0  0
 22 21  2  0  0  0  0
 23 21  1  0  0  0  0
 24 11  1  0  0  0  0
 25 31  1  1  0  0  0
 26 30  1  0  0  0  0
 27 26  1  0  0  0  0
 27 28  2  0  0  0  0
 28 25  1  0  0  0  0
 29 26  2  0  0  0  0
 30 25  1  0  0  0  0
 30 24  1  0  0  0  0
 31 32  1  0  0  0  0
M  END
>  <MODEL>
7

>  <REMARK>
 VINA RESULT:      -7.3      3.210      8.506
  Name = 
  6 active torsions:
  status: ('A' for Active; 'I' for Inactive)
    1  A    between atoms: C_1  and  C_10
    2  A    between atoms: C_2  and  C_24
    3  A    between atoms: C_6  and  C_7
    4  A    between atoms: C_10  and  C_24
    5  A    between atoms: C_16  and  C_27
    6  A    between atoms: C_27  and  N_32
                            x       y       z     vdW  Elec       q    Type
                         _______ _______ _______ _____ _____    ______ ____

>  <TORSDO>
F 6

$$$$
=
 OpenBabel11052421333D

 32 36  0  0  1  0  0  0  0  0999 V2000
  185.0520  179.1550  143.7160 C   0  0  1  0  0  3  0  0  0  0  0  0
  188.6060  175.3840  143.4960 C   0  0  0  0  0  0  0  0  0  0  0  0
  191.5770  176.4360  147.2050 C   0  0  0  0  0  3  0  0  0  0  0  0
  192.3490  175.3140  146.9030 C   0  0  0  0  0  3  0  0  0  0  0  0
  186.9750  177.1140  142.6660 C   0  0  2  0  0  3  0  0  0  0  0  0
  188.1220  177.4150  144.8450 C   0  0  0  0  0  3  0  0  0  0  0  0
  186.4780  179.1120  144.2730 C   0  0  0  0  0  2  0  0  0  0  0  0
  190.4500  176.7370  146.4390 C   0  0  0  0  0  3  0  0  0  0  0  0
  188.9470  176.2180  144.5760 C   0  0  0  0  0  0  0  0  0  0  0  0
  190.0790  175.9180  145.3600 C   0  0  0  0  0  0  0  0  0  0  0  0
  190.5050  173.9510  143.9700 C   0  0  0  0  0  0  0  0  0  0  0  0
  185.0150  178.6580  142.2700 C   0  0  0  0  0  2  0  0  0  0  0  0
  187.1550  177.8000  144.0080 C   0  0  0  0  0  0  0  0  0  0  0  0
  185.5350  177.2260  142.1710 C   0  0  0  0  0  2  0  0  0  0  0  0
  191.9960  174.4880  145.8340 C   0  0  0  0  0  3  0  0  0  0  0  0
  190.8650  174.7770  145.0530 C   0  0  0  0  0  0  0  0  0  0  0  0
  187.3490  175.6290  142.7180 C   0  0  0  0  0  2  0  0  0  0  0  0
  189.3760  174.2570  143.2080 C   0  0  0  0  0  3  0  0  0  0  0  0
  184.0800  178.3720  144.5920 C   0  0  0  0  0  2  0  0  0  0  0  0
  184.1790  178.8300  146.0360 C   0  0  0  0  0  2  0  0  0  0  0  0
  184.9010  177.8070  146.8390 C   0  0  0  0  0  0  0  0  0  0  0  0
  184.8350  176.5920  146.5160 O   0  0  0  0  0  0  0  0  0  0  0  0
  185.6200  178.1870  147.9640 O   0  0  0  0  0  1  0  0  0  0  0  0
  191.3190  172.7560  143.5800 C   0  0  0  0  0  2  0  0  0  0  0  0
  191.7080  171.8670  141.1850 C   0  0  1  0  0  3  0  0  0  0  0  0
  193.0010  173.6010  141.8970 C   0  0  0  0  0  0  0  0  0  0  0  0
  193.5650  173.0860  140.6760 C   0  0  0  0  0  3  0  0  0  0  0  0
  192.8280  172.1060  140.2650 N   0  0  0  0  0  0  0  0  0  0  0  0
  193.4920  174.5240  142.5990 O   0  0  0  0  0  0  0  0  0  0  0  0
  191.8180  172.8980  142.2170 N   0  0  0  0  0  0  0  0  0  0  0  0
  190.3700  171.9490  140.4490 C   0  0  0  0  0  2  0  0  0  0  0  0
  190.1160  173.3290  139.8610 C   0  0  0  0  0  1  0  0  0  0  0  0
  1  7  1  0  0  0  0
  1 19  1  1  0  0  0
  2  9  1  0  0  0  0
  4  3  1  0  0  0  0
  5 14  1  1  0  0  0
  5 17  1  0  0  0  0
  5 13  1  0  0  0  0
  8  3  2  0  0  0  0
  9  6  1  0  0  0  0
  9 10  2  0  0  0  0
 10  8  1  0  0  0  0
 11 16  2  0  0  0  0
 12  1  1  0  0  0  0
 13  7  1  0  0  0  0
 13  6  2  0  0  0  0
 14 12  1  0  0  0  0
 15  4  2  0  0  0  0
 16 10  1  0  0  0  0
 16 15  1  0  0  0  0
 17  2  1  0  0  0  0
 18  2  2  0  0  0  0
 18 11  1  0  0  0  0
 19 20  1  0  0  0  0
 20 21  1  0  0  0  0
 21 23  1  0  0  0  0
 22 21  2  0  0  0  0
 24 11  1  0  0  0  0
 25 31  1  6  0  0  0
 25 30  1  0  0  0  0
 26 30  1  0  0  0  0
 26 29  2  0  0  0  0
 27 26  1  0  0  0  0
 28 27  2  0  0  0  0
 28 25  1  0  0  0  0
 30 24  1  0  0  0  0
 32 31  1  0  0  0  0
M  END
>  <MODEL>
8

>  <REMARK>
 VINA RESULT:      -7.3      2.376      4.600
  Name = 
  6 active torsions:
  status: ('A' for Active; 'I' for Inactive)
    1  A    between atoms: C_1  and  C_10
    2  A    between atoms: C_2  and  C_24
    3  A    between atoms: C_6  and  C_7
    4  A    between atoms: C_10  and  C_24
    5  A    between atoms: C_16  and  C_27
    6  A    between atoms: C_27  and  N_32
                            x       y       z     vdW  Elec       q    Type
                         _______ _______ _______ _____ _____    ______ ____

>  <TORSDO>
F 6

$$$$
=
 OpenBabel11052421333D

 32 36  0  0  1  0  0  0  0  0999 V2000
  185.7420  178.5300  141.8640 C   0  0  1  0  0  3  0  0  0  0  0  0
  189.5880  175.5610  143.6780 C   0  0  0  0  0  0  0  0  0  0  0  0
  190.4970  177.4700  148.0620 C   0  0  0  0  0  3  0  0  0  0  0  0
  191.4870  176.5100  148.2720 C   0  0  0  0  0  3  0  0  0  0  0  0
  188.2190  176.8550  142.0060 C   0  0  2  0  0  3  0  0  0  0  0  0
  188.2680  177.5440  144.3880 C   0  0  0  0  0  3  0  0  0  0  0  0
  186.7830  178.8220  142.9490 C   0  0  0  0  0  2  0  0  0  0  0  0
  189.7710  177.4760  146.8690 C   0  0  0  0  0  3  0  0  0  0  0  0
  189.3040  176.5250  144.6620 C   0  0  0  0  0  0  0  0  0  0  0  0
  190.0260  176.5220  145.8720 C   0  0  0  0  0  0  0  0  0  0  0  0
  191.3020  174.5860  145.0910 C   0  0  0  0  0  0  0  0  0  0  0  0
  186.4000  177.9310  140.6210 C   0  0  0  0  0  2  0  0  0  0  0  0
  187.7020  177.6610  143.1840 C   0  0  0  0  0  0  0  0  0  0  0  0
  187.1280  176.6320  140.9610 C   0  0  0  0  0  2  0  0  0  0  0  0
  191.7550  175.5530  147.2920 C   0  0  0  0  0  3  0  0  0  0  0  0
  191.0350  175.5460  146.0860 C   0  0  0  0  0  0  0  0  0  0  0  0
  188.7600  175.4860  142.4310 C   0  0  0  0  0  2  0  0  0  0  0  0
  190.5710  174.5970  143.9010 C   0  0  0  0  0  3  0  0  0  0  0  0
  184.6230  177.6330  142.3820 C   0  0  0  0  0  2  0  0  0  0  0  0
  183.3370  178.4240  142.5410 C   0  0  0  0  0  2  0  0  0  0  0  0
  182.4120  178.1090  141.4190 C   0  0  0  0  0  0  0  0  0  0  0  0
  181.1730  178.0300  141.6280 O   0  0  0  0  0  1  0  0  0  0  0  0
  182.9170  177.8650  140.1490 O   0  0  0  0  0  0  0  0  0  0  0  0
  192.3780  173.5570  145.2500 C   0  0  0  0  0  2  0  0  0  0  0  0
  194.0350  175.3530  144.4100 C   0  0  1  0  0  3  0  0  0  0  0  0
  194.0580  173.3220  143.3800 C   0  0  0  0  0  0  0  0  0  0  0  0
  194.8320  174.2430  142.5870 C   0  0  0  0  0  3  0  0  0  0  0  0
  194.8280  175.3950  143.1750 N   0  0  0  0  0  0  0  0  0  0  0  0
  193.8080  172.1260  143.0780 O   0  0  0  0  0  0  0  0  0  0  0  0
  193.5870  173.9670  144.5460 N   0  0  0  0  0  0  0  0  0  0  0  0
  194.8730  175.7930  145.6110 C   0  0  0  0  0  2  0  0  0  0  0  0
  194.5690  177.2210  146.0380 C   0  0  0  0  0  1  0  0  0  0  0  0
  1 19  1  1  0  0  0
  1  7  1  0  0  0  0
  2 18  2  0  0  0  0
  2  9  1  0  0  0  0
  3  4  1  0  0  0  0
  5 14  1  6  0  0  0
  5 17  1  0  0  0  0
  5 13  1  0  0  0  0
  6  9  1  0  0  0  0
  7 13  1  0  0  0  0
  8  3  2  0  0  0  0
  9 10  2  0  0  0  0
 10 16  1  0  0  0  0
 10  8  1  0  0  0  0
 11 24  1  0  0  0  0
 11 16  2  0  0  0  0
 12 14  1  0  0  0  0
 12  1  1  0  0  0  0
 13  6  2  0  0  0  0
 15  4  2  0  0  0  0
 16 15  1  0  0  0  0
 17  2  1  0  0  0  0
 18 11  1  0  0  0  0
 19 20  1  0  0  0  0
 21 22  1  0  0  0  0
 21 20  1  0  0  0  0
 23 21  2  0  0  0  0
 25 30  1  0  0  0  0
 25 31  1  1  0  0  0
 26 30  1  0  0  0  0
 27 28  2  0  0  0  0
 27 26  1  0  0  0  0
 28 25  1  0  0  0  0
 29 26  2  0  0  0  0
 30 24  1  0  0  0  0
 31 32  1  0  0  0  0
M  END
>  <MODEL>
9

>  <REMARK>
 VINA RESULT:      -7.3      2.255      4.091
  Name = 
  6 active torsions:
  status: ('A' for Active; 'I' for Inactive)
    1  A    between atoms: C_1  and  C_10
    2  A    between atoms: C_2  and  C_24
    3  A    between atoms: C_6  and  C_7
    4  A    between atoms: C_10  and  C_24
    5  A    between atoms: C_16  and  C_27
    6  A    between atoms: C_27  and  N_32
                            x       y       z     vdW  Elec       q    Type
                         _______ _______ _______ _____ _____    ______ ____

>  <TORSDO>
F 6

$$$$
