=
 OpenBabel11052419573D

 37 41  0  0  1  0  0  0  0  0999 V2000
  190.3010  176.1430  143.7170 C   0  0  2  0  0  3  0  0  0  0  0  0
  187.3910  174.3480  141.9030 C   0  0  0  0  0  2  0  0  0  0  0  0
  189.9610  176.1830  146.5240 C   0  0  0  0  0  3  0  0  0  0  0  0
  189.3960  174.9530  143.3420 C   0  0  0  0  0  2  0  0  0  0  0  0
  191.4870  175.7310  144.6110 C   0  0  1  0  0  3  0  0  0  0  0  0
  188.2530  175.4450  142.4810 C   0  0  0  0  0  0  0  0  0  0  0  0
  188.2840  177.9600  146.3470 C   0  0  0  0  0  1  0  0  0  0  0  0
  189.1980  178.5380  142.2760 C   0  0  0  0  0  1  0  0  0  0  0  0
  188.9360  176.7990  145.6100 C   0  0  1  0  0  3  0  0  0  0  0  0
  188.3470  175.1320  141.0050 C   0  0  0  0  0  2  0  0  0  0  0  0
  189.5500  177.2520  144.3470 N   0  0  2  0  0  0  0  0  0  0  0  0
  191.1120  175.6430  146.0830 C   0  0  0  0  0  0  0  0  0  0  0  0
  187.5310  176.7140  142.9510 C   0  0  1  0  0  3  0  0  0  0  0  0
  188.5280  177.7940  143.4260 C   0  0  2  0  0  3  0  0  0  0  0  0
  186.5040  177.3920  140.7990 C   0  0  0  0  0  3  0  0  0  0  0  0
  186.3790  177.2210  142.1210 C   0  0  0  0  0  0  0  0  0  0  0  0
  185.0890  177.5230  142.8380 C   0  0  0  0  0  2  0  0  0  0  0  0
  182.8720  178.2920  142.3950 O   0  0  0  0  0  0  0  0  0  0  0  0
  184.2380  178.1620  140.5170 N   0  0  0  0  0  0  0  0  0  0  0  0
  184.0030  178.0110  141.9200 C   0  0  0  0  0  0  0  0  0  0  0  0
  185.3860  177.8820  139.9810 C   0  0  0  0  0  3  0  0  0  0  0  0
  192.0940  175.1420  147.1180 C   0  0  0  0  0  0  0  0  0  0  0  0
  193.1360  176.0430  147.2620 F   0  0  0  0  0  0  0  0  0  0  0  0
  191.4470  175.0050  148.3320 F   0  0  0  0  0  0  0  0  0  0  0  0
  192.6320  173.9190  146.7560 F   0  0  0  0  0  0  0  0  0  0  0  0
  192.1770  174.4620  144.1030 C   0  0  0  0  0  2  0  0  0  0  0  0
  194.5530  173.7280  144.1600 C   0  0  0  0  0  2  0  0  0  0  0  0
  195.8860  174.4400  144.2480 C   0  0  1  0  0  3  0  0  0  0  0  0
  194.0770  176.0920  144.1520 C   0  0  0  0  0  2  0  0  0  0  0  0
  195.5690  175.9210  144.3990 C   0  0  2  0  0  3  0  0  0  0  0  0
  193.5880  174.7580  143.6220 C   0  0  2  0  0  3  0  0  0  0  0  0
  196.6330  173.9610  145.4130 C   0  0  0  0  0  0  0  0  0  0  0  0
  197.2240  173.5820  146.3340 N   0  0  0  0  0  0  0  0  0  0  0  0
  196.4110  176.7890  143.4590 C   0  0  0  0  0  2  0  0  0  0  0  0
  196.7860  176.0940  142.1860 C   0  0  0  0  0  0  0  0  0  0  0  0
  197.9410  175.6160  142.0480 O   0  0  0  0  0  1  0  0  0  0  0  0
  195.8500  175.9520  141.1700 O   0  0  0  0  0  0  0  0  0  0  0  0
  1  4  1  1  0  0  0
  1 11  1  0  0  0  0
  1  5  1  0  0  0  0
  2  6  1  0  0  0  0
  5 26  1  6  0  0  0
  5 12  1  0  0  0  0
  6 13  1  0  0  0  0
  6  4  1  0  0  0  0
  8 14  1  0  0  0  0
  9  7  1  1  0  0  0
  9  3  1  0  0  0  0
 10  2  1  0  0  0  0
 10  6  1  0  0  0  0
 11  9  1  0  0  0  0
 12  3  2  0  0  0  0
 12 22  1  0  0  0  0
 13 14  1  0  0  0  0
 14 11  1  0  0  0  0
 15 16  2  0  0  0  0
 16 17  1  0  0  0  0
 16 13  1  0  0  0  0
 19 20  1  0  0  0  0
 20 18  2  0  0  0  0
 20 17  1  0  0  0  0
 21 19  2  0  0  0  0
 21 15  1  0  0  0  0
 22 23  1  0  0  0  0
 22 24  1  0  0  0  0
 25 22  1  0  0  0  0
 27 28  1  0  0  0  0
 28 30  1  0  0  0  0
 28 32  1  0  0  0  0
 29 30  1  0  0  0  0
 31 26  1  0  0  0  0
 31 29  1  0  0  0  0
 31 27  1  0  0  0  0
 32 33  3  0  0  0  0
 34 30  1  0  0  0  0
 35 34  1  0  0  0  0
 36 35  1  0  0  0  0
 37 35  2  0  0  0  0
M  END
>  <MODEL>
1

>  <REMARK>
 VINA RESULT:      -7.5      0.000      0.000
  Name = 
  7 active torsions:
  status: ('A' for Active; 'I' for Inactive)
    1  A    between atoms: C_3  and  C_30
    2  A    between atoms: C_5  and  C_12
    3  A    between atoms: C_6  and  C_31
    4  A    between atoms: C_11  and  C_26
    5  A    between atoms: C_13  and  C_20
    6  A    between atoms: C_20  and  C_36
    7  A    between atoms: C_26  and  C_33
                            x       y       z     vdW  Elec       q    Type
                         _______ _______ _______ _____ _____    ______ ____

>  <TORSDO>
F 7

$$$$
=
 OpenBabel11052419573D

 37 41  0  0  1  0  0  0  0  0999 V2000
  190.2690  175.5020  143.5070 C   0  0  2  0  0  3  0  0  0  0  0  0
  186.6880  176.0630  142.1510 C   0  0  0  0  0  2  0  0  0  0  0  0
  190.5020  173.0990  144.9770 C   0  0  0  0  0  3  0  0  0  0  0  0
  189.0210  175.1930  142.6580 C   0  0  0  0  0  2  0  0  0  0  0  0
  191.4480  174.5600  143.1990 C   0  0  1  0  0  3  0  0  0  0  0  0
  187.9100  176.1500  143.0330 C   0  0  0  0  0  0  0  0  0  0  0  0
  189.3690  174.1050  146.9020 C   0  0  0  0  0  1  0  0  0  0  0  0
  189.6010  177.9290  145.1500 C   0  0  0  0  0  1  0  0  0  0  0  0
  189.5260  174.1680  145.3900 C   0  0  1  0  0  3  0  0  0  0  0  0
  187.6290  177.2630  142.0500 C   0  0  0  0  0  2  0  0  0  0  0  0
  189.9830  175.5030  144.9600 N   0  0  2  0  0  0  0  0  0  0  0  0
  191.3550  173.2370  143.9470 C   0  0  0  0  0  0  0  0  0  0  0  0
  187.6650  176.3700  144.5310 C   0  0  1  0  0  3  0  0  0  0  0  0
  188.9890  176.5400  145.3070 C   0  0  2  0  0  3  0  0  0  0  0  0
  185.6520  176.9510  145.8580 C   0  0  0  0  0  3  0  0  0  0  0  0
  186.5550  177.3080  144.9350 C   0  0  0  0  0  0  0  0  0  0  0  0
  186.5060  178.6550  144.2620 C   0  0  0  0  0  2  0  0  0  0  0  0
  185.2240  180.6690  144.2620 O   0  0  0  0  0  0  0  0  0  0  0  0
  184.4560  179.0400  145.7340 N   0  0  0  0  0  0  0  0  0  0  0  0
  185.3720  179.5160  144.7420 C   0  0  0  0  0  0  0  0  0  0  0  0
  184.5700  177.8600  146.2600 C   0  0  0  0  0  3  0  0  0  0  0  0
  192.3450  172.1210  143.7000 C   0  0  0  0  0  0  0  0  0  0  0  0
  192.1780  171.1190  144.6410 F   0  0  0  0  0  0  0  0  0  0  0  0
  192.1330  171.5940  142.4390 F   0  0  0  0  0  0  0  0  0  0  0  0
  193.6500  172.5730  143.7820 F   0  0  0  0  0  0  0  0  0  0  0  0
  191.6570  174.3700  141.6940 C   0  0  0  0  0  2  0  0  0  0  0  0
  193.8240  173.7580  140.6390 C   0  0  0  0  0  2  0  0  0  0  0  0
  195.2720  174.1170  140.8950 C   0  0  1  0  0  3  0  0  0  0  0  0
  193.8340  175.3480  142.4510 C   0  0  0  0  0  2  0  0  0  0  0  0
  195.2800  174.9990  142.1360 C   0  0  2  0  0  3  0  0  0  0  0  0
  193.0220  174.8780  141.2600 C   0  0  2  0  0  3  0  0  0  0  0  0
  196.0550  172.9030  141.1300 C   0  0  0  0  0  0  0  0  0  0  0  0
  196.6750  171.9420  141.3150 N   0  0  0  0  0  0  0  0  0  0  0  0
  196.1480  176.2470  141.9500 C   0  0  0  0  0  2  0  0  0  0  0  0
  197.1860  176.4120  143.0170 C   0  0  0  0  0  0  0  0  0  0  0  0
  197.4020  177.5470  143.5130 O   0  0  0  0  0  1  0  0  0  0  0  0
  197.8890  175.3080  143.4800 O   0  0  0  0  0  0  0  0  0  0  0  0
  1  4  1  6  0  0  0
  1 11  1  0  0  0  0
  2  6  1  0  0  0  0
  3  9  1  0  0  0  0
  4  6  1  0  0  0  0
  5 26  1  6  0  0  0
  5  1  1  0  0  0  0
  5 12  1  0  0  0  0
  6 13  1  0  0  0  0
  8 14  1  0  0  0  0
  9  7  1  1  0  0  0
 10  2  1  0  0  0  0
 10  6  1  0  0  0  0
 11 14  1  0  0  0  0
 11  9  1  0  0  0  0
 12  3  2  0  0  0  0
 13 16  1  0  0  0  0
 13 14  1  0  0  0  0
 15 21  1  0  0  0  0
 16 15  2  0  0  0  0
 17 20  1  0  0  0  0
 17 16  1  0  0  0  0
 18 20  2  0  0  0  0
 19 21  2  0  0  0  0
 20 19  1  0  0  0  0
 22 25  1  0  0  0  0
 22 12  1  0  0  0  0
 22 23  1  0  0  0  0
 24 22  1  0  0  0  0
 27 28  1  0  0  0  0
 27 31  1  0  0  0  0
 28 32  1  0  0  0  0
 28 30  1  0  0  0  0
 30 29  1  0  0  0  0
 31 26  1  0  0  0  0
 31 29  1  0  0  0  0
 32 33  3  0  0  0  0
 34 30  1  0  0  0  0
 34 35  1  0  0  0  0
 35 37  2  0  0  0  0
 35 36  1  0  0  0  0
M  END
>  <MODEL>
2

>  <REMARK>
 VINA RESULT:      -7.1      2.634      3.455
  Name = 
  7 active torsions:
  status: ('A' for Active; 'I' for Inactive)
    1  A    between atoms: C_3  and  C_30
    2  A    between atoms: C_5  and  C_12
    3  A    between atoms: C_6  and  C_31
    4  A    between atoms: C_11  and  C_26
    5  A    between atoms: C_13  and  C_20
    6  A    between atoms: C_20  and  C_36
    7  A    between atoms: C_26  and  C_33
                            x       y       z     vdW  Elec       q    Type
                         _______ _______ _______ _____ _____    ______ ____

>  <TORSDO>
F 7

$$$$
=
 OpenBabel11052419573D

 37 41  0  0  1  0  0  0  0  0999 V2000
  187.9070  177.0900  144.1220 C   0  0  2  0  0  3  0  0  0  0  0  0
  188.2800  173.6820  142.3260 C   0  0  0  0  0  2  0  0  0  0  0  0
  185.2550  177.5780  144.9700 C   0  0  0  0  0  3  0  0  0  0  0  0
  187.8850  175.5540  143.9980 C   0  0  0  0  0  2  0  0  0  0  0  0
  187.6720  177.5760  145.5650 C   0  0  1  0  0  3  0  0  0  0  0  0
  188.1080  175.1650  142.5530 C   0  0  0  0  0  0  0  0  0  0  0  0
  184.5680  178.1180  142.6820 C   0  0  0  0  0  1  0  0  0  0  0  0
  188.5770  178.1540  141.3920 C   0  0  0  0  0  1  0  0  0  0  0  0
  185.5730  177.3410  143.5180 C   0  0  1  0  0  3  0  0  0  0  0  0
  189.4770  174.6240  142.2110 C   0  0  0  0  0  2  0  0  0  0  0  0
  186.9540  177.7490  143.2000 N   0  0  2  0  0  0  0  0  0  0  0  0
  186.1960  177.6390  145.9300 C   0  0  0  0  0  0  0  0  0  0  0  0
  187.3030  175.9340  141.4980 C   0  0  1  0  0  3  0  0  0  0  0  0
  187.2840  177.4500  141.7900 C   0  0  2  0  0  3  0  0  0  0  0  0
  188.3050  174.5530  139.7000 C   0  0  0  0  0  3  0  0  0  0  0  0
  187.4940  175.5590  140.0510 C   0  0  0  0  0  0  0  0  0  0  0  0
  186.7370  176.3580  139.0210 C   0  0  0  0  0  2  0  0  0  0  0  0
  186.4090  176.4800  136.6590 O   0  0  0  0  0  0  0  0  0  0  0  0
  187.8780  174.8100  137.3420 N   0  0  0  0  0  0  0  0  0  0  0  0
  186.9880  175.8980  137.6130 C   0  0  0  0  0  0  0  0  0  0  0  0
  188.4950  174.1770  138.2920 C   0  0  0  0  0  3  0  0  0  0  0  0
  185.7450  177.9750  147.3340 C   0  0  0  0  0  0  0  0  0  0  0  0
  184.4110  178.3480  147.3300 F   0  0  0  0  0  0  0  0  0  0  0  0
  185.8990  176.8640  148.1420 F   0  0  0  0  0  0  0  0  0  0  0  0
  186.4800  179.0200  147.8660 F   0  0  0  0  0  0  0  0  0  0  0  0
  188.4950  176.7800  146.5820 C   0  0  0  0  0  2  0  0  0  0  0  0
  190.3450  177.6080  145.1410 C   0  0  0  0  0  2  0  0  0  0  0  0
  191.8250  177.3050  145.0290 C   0  0  1  0  0  3  0  0  0  0  0  0
  190.8600  176.0110  146.8730 C   0  0  0  0  0  2  0  0  0  0  0  0
  192.1070  176.1860  146.0200 C   0  0  2  0  0  3  0  0  0  0  0  0
  189.9600  177.1840  146.5390 C   0  0  2  0  0  3  0  0  0  0  0  0
  192.1440  176.8700  143.6670 C   0  0  0  0  0  0  0  0  0  0  0  0
  192.3980  176.5260  142.5910 N   0  0  0  0  0  0  0  0  0  0  0  0
  193.3510  176.4680  146.8690 C   0  0  0  0  0  2  0  0  0  0  0  0
  194.5890  176.6840  146.0540 C   0  0  0  0  0  0  0  0  0  0  0  0
  195.2090  175.6990  145.5790 O   0  0  0  0  0  0  0  0  0  0  0  0
  195.0360  177.9740  145.7980 O   0  0  0  0  0  1  0  0  0  0  0  0
  1  4  1  1  0  0  0
  1  5  1  0  0  0  0
  2  6  1  0  0  0  0
  3 12  2  0  0  0  0
  5 12  1  0  0  0  0
  5 26  1  1  0  0  0
  6  4  1  0  0  0  0
  8 14  1  0  0  0  0
  9  7  1  6  0  0  0
  9  3  1  0  0  0  0
 10  2  1  0  0  0  0
 10  6  1  0  0  0  0
 11  9  1  0  0  0  0
 11  1  1  0  0  0  0
 12 22  1  0  0  0  0
 13 14  1  0  0  0  0
 13  6  1  0  0  0  0
 14 11  1  0  0  0  0
 15 16  2  0  0  0  0
 16 13  1  0  0  0  0
 17 16  1  0  0  0  0
 18 20  2  0  0  0  0
 19 20  1  0  0  0  0
 19 21  2  0  0  0  0
 20 17  1  0  0  0  0
 21 15  1  0  0  0  0
 22 25  1  0  0  0  0
 22 24  1  0  0  0  0
 23 22  1  0  0  0  0
 27 31  1  0  0  0  0
 28 27  1  0  0  0  0
 28 30  1  0  0  0  0
 30 34  1  0  0  0  0
 30 29  1  0  0  0  0
 31 26  1  0  0  0  0
 31 29  1  0  0  0  0
 32 28  1  0  0  0  0
 33 32  3  0  0  0  0
 35 34  1  0  0  0  0
 36 35  2  0  0  0  0
 37 35  1  0  0  0  0
M  END
>  <MODEL>
3

>  <REMARK>
 VINA RESULT:      -7.1      3.361      4.841
  Name = 
  7 active torsions:
  status: ('A' for Active; 'I' for Inactive)
    1  A    between atoms: C_3  and  C_30
    2  A    between atoms: C_5  and  C_12
    3  A    between atoms: C_6  and  C_31
    4  A    between atoms: C_11  and  C_26
    5  A    between atoms: C_13  and  C_20
    6  A    between atoms: C_20  and  C_36
    7  A    between atoms: C_26  and  C_33
                            x       y       z     vdW  Elec       q    Type
                         _______ _______ _______ _____ _____    ______ ____

>  <TORSDO>
F 7

$$$$
=
 OpenBabel11052419573D

 37 41  0  0  1  0  0  0  0  0999 V2000
  192.4810  175.8940  143.8250 C   0  0  2  0  0  3  0  0  0  0  0  0
  189.0150  174.2860  143.2110 C   0  0  0  0  0  2  0  0  0  0  0  0
  193.5730  175.1770  146.3320 C   0  0  0  0  0  3  0  0  0  0  0  0
  191.4820  174.7390  143.6130 C   0  0  0  0  0  2  0  0  0  0  0  0
  193.9440  175.4130  143.8830 C   0  0  1  0  0  3  0  0  0  0  0  0
  190.0750  175.2940  143.5850 C   0  0  0  0  0  0  0  0  0  0  0  0
  192.0690  176.7270  147.4890 C   0  0  0  0  0  1  0  0  0  0  0  0
  190.8650  178.4280  143.8280 C   0  0  0  0  0  1  0  0  0  0  0  0
  192.2450  175.8780  146.2380 C   0  0  1  0  0  3  0  0  0  0  0  0
  189.4200  175.3810  142.2250 C   0  0  0  0  0  2  0  0  0  0  0  0
  192.1650  176.7080  145.0210 N   0  0  2  0  0  0  0  0  0  0  0  0
  194.3440  174.9090  145.2620 C   0  0  0  0  0  0  0  0  0  0  0  0
  189.7090  176.3060  144.6780 C   0  0  1  0  0  3  0  0  0  0  0  0
  190.8340  177.3400  144.8980 C   0  0  2  0  0  3  0  0  0  0  0  0
  187.9100  177.7360  143.7470 C   0  0  0  0  0  3  0  0  0  0  0  0
  188.3090  176.8650  144.6830 C   0  0  0  0  0  0  0  0  0  0  0  0
  187.3820  176.4050  145.7780 C   0  0  0  0  0  2  0  0  0  0  0  0
  185.1390  176.7030  146.5410 O   0  0  0  0  0  0  0  0  0  0  0  0
  185.6830  177.9380  144.6460 N   0  0  0  0  0  0  0  0  0  0  0  0
  186.0100  177.0120  145.6870 C   0  0  0  0  0  0  0  0  0  0  0  0
  186.5470  178.2840  143.7420 C   0  0  0  0  0  3  0  0  0  0  0  0
  195.6970  174.2820  145.5110 C   0  0  0  0  0  0  0  0  0  0  0  0
  196.6540  174.8790  144.7060 F   0  0  0  0  0  0  0  0  0  0  0  0
  196.0480  174.4630  146.8360 F   0  0  0  0  0  0  0  0  0  0  0  0
  195.6870  172.9270  145.2320 F   0  0  0  0  0  0  0  0  0  0  0  0
  194.2640  174.4070  142.7740 C   0  0  0  0  0  2  0  0  0  0  0  0
  193.8440  175.2050  140.4570 C   0  0  0  0  0  2  0  0  0  0  0  0
  194.6470  175.2190  139.1730 C   0  0  1  0  0  3  0  0  0  0  0  0
  196.0110  174.2880  140.9840 C   0  0  0  0  0  2  0  0  0  0  0  0
  195.9520  174.4990  139.4790 C   0  0  2  0  0  3  0  0  0  0  0  0
  194.8680  175.0980  141.5630 C   0  0  2  0  0  3  0  0  0  0  0  0
  193.9140  174.5160  138.1180 C   0  0  0  0  0  0  0  0  0  0  0  0
  193.3340  173.9600  137.2840 N   0  0  0  0  0  0  0  0  0  0  0  0
  197.1700  175.2670  138.9560 C   0  0  0  0  0  2  0  0  0  0  0  0
  197.4740  174.9900  137.5170 C   0  0  0  0  0  0  0  0  0  0  0  0
  197.9410  173.8730  137.1760 O   0  0  0  0  0  1  0  0  0  0  0  0
  197.2130  175.9550  136.5530 O   0  0  0  0  0  0  0  0  0  0  0  0
  1  4  1  1  0  0  0
  1  5  1  0  0  0  0
  1 11  1  0  0  0  0
  2  6  1  0  0  0  0
  5 26  1  6  0  0  0
  5 12  1  0  0  0  0
  6  4  1  0  0  0  0
  6 13  1  0  0  0  0
  8 14  1  0  0  0  0
  9  3  1  0  0  0  0
  9  7  1  1  0  0  0
 10  2  1  0  0  0  0
 10  6  1  0  0  0  0
 11  9  1  0  0  0  0
 12 22  1  0  0  0  0
 12  3  2  0  0  0  0
 13 16  1  0  0  0  0
 13 14  1  0  0  0  0
 14 11  1  0  0  0  0
 15 16  2  0  0  0  0
 16 17  1  0  0  0  0
 19 20  1  0  0  0  0
 20 17  1  0  0  0  0
 20 18  2  0  0  0  0
 21 15  1  0  0  0  0
 21 19  2  0  0  0  0
 22 24  1  0  0  0  0
 23 22  1  0  0  0  0
 25 22  1  0  0  0  0
 27 31  1  0  0  0  0
 28 30  1  0  0  0  0
 28 27  1  0  0  0  0
 29 31  1  0  0  0  0
 30 29  1  0  0  0  0
 31 26  1  0  0  0  0
 32 28  1  0  0  0  0
 33 32  3  0  0  0  0
 34 30  1  0  0  0  0
 35 34  1  0  0  0  0
 36 35  1  0  0  0  0
 37 35  2  0  0  0  0
M  END
>  <MODEL>
4

>  <REMARK>
 VINA RESULT:      -7.0      3.136      4.203
  Name = 
  7 active torsions:
  status: ('A' for Active; 'I' for Inactive)
    1  A    between atoms: C_3  and  C_30
    2  A    between atoms: C_5  and  C_12
    3  A    between atoms: C_6  and  C_31
    4  A    between atoms: C_11  and  C_26
    5  A    between atoms: C_13  and  C_20
    6  A    between atoms: C_20  and  C_36
    7  A    between atoms: C_26  and  C_33
                            x       y       z     vdW  Elec       q    Type
                         _______ _______ _______ _____ _____    ______ ____

>  <TORSDO>
F 7

$$$$
=
 OpenBabel11052419573D

 37 41  0  0  1  0  0  0  0  0999 V2000
  190.4000  175.0380  144.0880 C   0  0  2  0  0  3  0  0  0  0  0  0
  193.5850  176.1910  142.2150 C   0  0  0  0  0  2  0  0  0  0  0  0
  189.7960  176.6850  146.3040 C   0  0  0  0  0  3  0  0  0  0  0  0
  191.2750  175.9960  143.2550 C   0  0  0  0  0  2  0  0  0  0  0  0
  188.9550  175.5460  144.2580 C   0  0  1  0  0  3  0  0  0  0  0  0
  192.6750  175.4310  143.1510 C   0  0  0  0  0  0  0  0  0  0  0  0
  191.5800  175.6480  147.6260 C   0  0  0  0  0  1  0  0  0  0  0  0
  192.1130  172.6500  144.7160 C   0  0  0  0  0  1  0  0  0  0  0  0
  191.1130  175.9620  146.2120 C   0  0  1  0  0  3  0  0  0  0  0  0
  193.0480  174.8150  141.8220 C   0  0  0  0  0  2  0  0  0  0  0  0
  190.9910  174.7300  145.4100 N   0  0  2  0  0  0  0  0  0  0  0  0
  188.8150  176.5480  145.3950 C   0  0  0  0  0  0  0  0  0  0  0  0
  193.3050  174.9010  144.4450 C   0  0  1  0  0  3  0  0  0  0  0  0
  192.3010  174.0610  145.2640 C   0  0  2  0  0  3  0  0  0  0  0  0
  195.7370  175.0050  144.9150 C   0  0  0  0  0  3  0  0  0  0  0  0
  194.7040  174.3450  144.3740 C   0  0  0  0  0  0  0  0  0  0  0  0
  194.8910  173.0250  143.6730 C   0  0  0  0  0  2  0  0  0  0  0  0
  196.6080  171.4600  143.1170 O   0  0  0  0  0  0  0  0  0  0  0  0
  197.3530  173.3360  144.2730 N   0  0  0  0  0  0  0  0  0  0  0  0
  196.3190  172.5550  143.6660 C   0  0  0  0  0  0  0  0  0  0  0  0
  197.1040  174.4690  144.8540 C   0  0  0  0  0  3  0  0  0  0  0  0
  187.5080  177.2610  145.6590 C   0  0  0  0  0  0  0  0  0  0  0  0
  187.4630  177.7020  146.9720 F   0  0  0  0  0  0  0  0  0  0  0  0
  187.4040  178.3510  144.8150 F   0  0  0  0  0  0  0  0  0  0  0  0
  186.4240  176.4270  145.4500 F   0  0  0  0  0  0  0  0  0  0  0  0
  188.3680  176.0640  142.9420 C   0  0  0  0  0  2  0  0  0  0  0  0
  188.3060  173.5930  142.6740 C   0  0  0  0  0  2  0  0  0  0  0  0
  188.5470  172.6400  141.5220 C   0  0  1  0  0  3  0  0  0  0  0  0
  188.7540  174.9510  140.7330 C   0  0  0  0  0  2  0  0  0  0  0  0
  188.9790  173.4990  140.3420 C   0  0  2  0  0  3  0  0  0  0  0  0
  187.9690  174.9170  142.0290 C   0  0  2  0  0  3  0  0  0  0  0  0
  189.6030  171.6890  141.8710 C   0  0  0  0  0  0  0  0  0  0  0  0
  190.4390  170.9360  142.1480 N   0  0  0  0  0  0  0  0  0  0  0  0
  188.2360  173.1260  139.0550 C   0  0  0  0  0  2  0  0  0  0  0  0
  188.5150  174.0580  137.9170 C   0  0  0  0  0  0  0  0  0  0  0  0
  189.6260  174.0150  137.3270 O   0  0  0  0  0  0  0  0  0  0  0  0
  187.5390  174.9490  137.4920 O   0  0  0  0  0  1  0  0  0  0  0  0
  1  4  1  1  0  0  0
  1  5  1  0  0  0  0
  1 11  1  0  0  0  0
  2  6  1  0  0  0  0
  5 26  1  6  0  0  0
  5 12  1  0  0  0  0
  6  4  1  0  0  0  0
  6 13  1  0  0  0  0
  8 14  1  0  0  0  0
  9  3  1  0  0  0  0
  9  7  1  1  0  0  0
 10  2  1  0  0  0  0
 10  6  1  0  0  0  0
 11  9  1  0  0  0  0
 12 22  1  0  0  0  0
 12  3  2  0  0  0  0
 13 14  1  0  0  0  0
 14 11  1  0  0  0  0
 16 13  1  0  0  0  0
 16 15  2  0  0  0  0
 17 16  1  0  0  0  0
 18 20  2  0  0  0  0
 19 21  2  0  0  0  0
 20 17  1  0  0  0  0
 20 19  1  0  0  0  0
 21 15  1  0  0  0  0
 22 23  1  0  0  0  0
 24 22  1  0  0  0  0
 25 22  1  0  0  0  0
 28 32  1  0  0  0  0
 28 27  1  0  0  0  0
 29 31  1  0  0  0  0
 30 29  1  0  0  0  0
 30 28  1  0  0  0  0
 31 27  1  0  0  0  0
 31 26  1  0  0  0  0
 32 33  3  0  0  0  0
 34 30  1  0  0  0  0
 35 34  1  0  0  0  0
 36 35  2  0  0  0  0
 37 35  1  0  0  0  0
M  END
>  <MODEL>
5

>  <REMARK>
 VINA RESULT:      -6.9      3.344      7.862
  Name = 
  7 active torsions:
  status: ('A' for Active; 'I' for Inactive)
    1  A    between atoms: C_3  and  C_30
    2  A    between atoms: C_5  and  C_12
    3  A    between atoms: C_6  and  C_31
    4  A    between atoms: C_11  and  C_26
    5  A    between atoms: C_13  and  C_20
    6  A    between atoms: C_20  and  C_36
    7  A    between atoms: C_26  and  C_33
                            x       y       z     vdW  Elec       q    Type
                         _______ _______ _______ _____ _____    ______ ____

>  <TORSDO>
F 7

$$$$
=
 OpenBabel11052419573D

 37 41  0  0  1  0  0  0  0  0999 V2000
  190.4940  174.0140  142.6150 C   0  0  2  0  0  3  0  0  0  0  0  0
  190.4980  173.4070  138.7920 C   0  0  0  0  0  2  0  0  0  0  0  0
  192.9250  175.1270  143.5320 C   0  0  0  0  0  3  0  0  0  0  0  0
  190.5480  174.4100  141.1260 C   0  0  0  0  0  2  0  0  0  0  0  0
  190.4390  175.2330  143.5550 C   0  0  1  0  0  3  0  0  0  0  0  0
  190.6150  173.1590  140.2770 C   0  0  0  0  0  0  0  0  0  0  0  0
  194.0470  172.9560  143.3520 C   0  0  0  0  0  1  0  0  0  0  0  0
  190.3700  171.0120  142.6920 C   0  0  0  0  0  1  0  0  0  0  0  0
  192.9000  173.8020  142.8180 C   0  0  1  0  0  3  0  0  0  0  0  0
  189.3420  172.7690  139.5620 C   0  0  0  0  0  2  0  0  0  0  0  0
  191.6070  173.1190  143.0060 N   0  0  2  0  0  0  0  0  0  0  0  0
  191.8140  175.8220  143.8350 C   0  0  0  0  0  0  0  0  0  0  0  0
  191.6080  172.0770  140.7190 C   0  0  1  0  0  3  0  0  0  0  0  0
  191.5630  171.8510  142.2460 C   0  0  2  0  0  3  0  0  0  0  0  0
  190.8160  169.8350  140.0170 C   0  0  0  0  0  3  0  0  0  0  0  0
  191.7080  170.8260  139.8840 C   0  0  0  0  0  0  0  0  0  0  0  0
  192.8450  170.7370  138.9000 C   0  0  0  0  0  2  0  0  0  0  0  0
  193.7440  169.2630  137.2510 O   0  0  0  0  0  0  0  0  0  0  0  0
  191.8480  168.4570  138.3310 N   0  0  0  0  0  0  0  0  0  0  0  0
  192.8480  169.4580  138.1120 C   0  0  0  0  0  0  0  0  0  0  0  0
  190.9030  168.6140  139.2050 C   0  0  0  0  0  3  0  0  0  0  0  0
  191.9780  177.0940  144.6370 C   0  0  0  0  0  0  0  0  0  0  0  0
  191.1480  177.0690  145.7450 F   0  0  0  0  0  0  0  0  0  0  0  0
  193.2900  177.2000  145.0600 F   0  0  0  0  0  0  0  0  0  0  0  0
  191.6580  178.2110  143.8860 F   0  0  0  0  0  0  0  0  0  0  0  0
  189.4360  176.2850  143.0760 C   0  0  0  0  0  2  0  0  0  0  0  0
  186.9740  176.2020  142.7330 C   0  0  0  0  0  2  0  0  0  0  0  0
  185.7730  176.7080  143.5040 C   0  0  1  0  0  3  0  0  0  0  0  0
  187.8220  177.2130  144.7510 C   0  0  0  0  0  2  0  0  0  0  0  0
  186.3250  177.4780  144.6950 C   0  0  2  0  0  3  0  0  0  0  0  0
  188.0860  176.1040  143.7510 C   0  0  2  0  0  3  0  0  0  0  0  0
  184.9710  177.5930  142.6560 C   0  0  0  0  0  0  0  0  0  0  0  0
  184.3370  178.2930  141.9860 N   0  0  0  0  0  0  0  0  0  0  0  0
  185.6230  177.0980  146.0020 C   0  0  0  0  0  2  0  0  0  0  0  0
  184.7370  178.1800  146.5360 C   0  0  0  0  0  0  0  0  0  0  0  0
  184.9540  178.6660  147.6760 O   0  0  0  0  0  1  0  0  0  0  0  0
  183.6910  178.6680  145.7630 O   0  0  0  0  0  0  0  0  0  0  0  0
  1  4  1  6  0  0  0
  1 11  1  0  0  0  0
  1  5  1  0  0  0  0
  2 10  1  0  0  0  0
  2  6  1  0  0  0  0
  3 12  2  0  0  0  0
  5 26  1  6  0  0  0
  5 12  1  0  0  0  0
  6 13  1  0  0  0  0
  6  4  1  0  0  0  0
  9 11  1  0  0  0  0
  9  7  1  1  0  0  0
  9  3  1  0  0  0  0
 10  6  1  0  0  0  0
 12 22  1  0  0  0  0
 13 14  1  0  0  0  0
 14  8  1  0  0  0  0
 14 11  1  0  0  0  0
 16 15  2  0  0  0  0
 16 13  1  0  0  0  0
 17 16  1  0  0  0  0
 18 20  2  0  0  0  0
 19 21  2  0  0  0  0
 20 19  1  0  0  0  0
 20 17  1  0  0  0  0
 21 15  1  0  0  0  0
 22 24  1  0  0  0  0
 22 23  1  0  0  0  0
 25 22  1  0  0  0  0
 26 31  1  0  0  0  0
 27 28  1  0  0  0  0
 27 31  1  0  0  0  0
 28 30  1  0  0  0  0
 30 29  1  0  0  0  0
 30 34  1  0  0  0  0
 31 29  1  0  0  0  0
 32 28  1  0  0  0  0
 33 32  3  0  0  0  0
 34 35  1  0  0  0  0
 35 36  1  0  0  0  0
 37 35  2  0  0  0  0
M  END
>  <MODEL>
6

>  <REMARK>
 VINA RESULT:      -6.9      4.107      8.611
  Name = 
  7 active torsions:
  status: ('A' for Active; 'I' for Inactive)
    1  A    between atoms: C_3  and  C_30
    2  A    between atoms: C_5  and  C_12
    3  A    between atoms: C_6  and  C_31
    4  A    between atoms: C_11  and  C_26
    5  A    between atoms: C_13  and  C_20
    6  A    between atoms: C_20  and  C_36
    7  A    between atoms: C_26  and  C_33
                            x       y       z     vdW  Elec       q    Type
                         _______ _______ _______ _____ _____    ______ ____

>  <TORSDO>
F 7

$$$$
=
 OpenBabel11052419573D

 37 41  0  0  1  0  0  0  0  0999 V2000
  188.2760  176.8560  144.3760 C   0  0  2  0  0  3  0  0  0  0  0  0
  191.7080  178.6360  144.1930 C   0  0  0  0  0  2  0  0  0  0  0  0
  187.4380  176.3980  147.0360 C   0  0  0  0  0  3  0  0  0  0  0  0
  189.2780  178.0080  144.5910 C   0  0  0  0  0  2  0  0  0  0  0  0
  186.8370  177.2370  144.7720 C   0  0  1  0  0  3  0  0  0  0  0  0
  190.6640  177.5460  144.1930 C   0  0  0  0  0  0  0  0  0  0  0  0
  189.0060  174.5290  147.2630 C   0  0  0  0  0  1  0  0  0  0  0  0
  189.8240  174.6010  143.1310 C   0  0  0  0  0  1  0  0  0  0  0  0
  188.7350  175.8320  146.5240 C   0  0  1  0  0  3  0  0  0  0  0  0
  191.1870  178.0670  142.8740 C   0  0  0  0  0  2  0  0  0  0  0  0
  188.6820  175.6120  145.0660 N   0  0  2  0  0  0  0  0  0  0  0  0
  186.5790  177.0880  146.2650 C   0  0  0  0  0  0  0  0  0  0  0  0
  191.1050  176.1680  144.7010 C   0  0  1  0  0  3  0  0  0  0  0  0
  189.9810  175.1200  144.5570 C   0  0  2  0  0  3  0  0  0  0  0  0
  192.8000  175.4020  143.0630 C   0  0  0  0  0  3  0  0  0  0  0  0
  192.4860  175.6880  144.3330 C   0  0  0  0  0  0  0  0  0  0  0  0
  193.4900  175.5440  145.4460 C   0  0  0  0  0  2  0  0  0  0  0  0
  195.7660  174.9160  145.8060 O   0  0  0  0  0  0  0  0  0  0  0  0
  195.0710  174.7900  143.5890 N   0  0  0  0  0  0  0  0  0  0  0  0
  194.8360  175.0700  144.9730 C   0  0  0  0  0  0  0  0  0  0  0  0
  194.1450  174.9370  142.6930 C   0  0  0  0  0  3  0  0  0  0  0  0
  185.2700  177.5210  146.8860 C   0  0  0  0  0  0  0  0  0  0  0  0
  184.3170  176.5270  146.7300 F   0  0  0  0  0  0  0  0  0  0  0  0
  185.4600  177.7540  148.2350 F   0  0  0  0  0  0  0  0  0  0  0  0
  184.7860  178.6750  146.2950 F   0  0  0  0  0  0  0  0  0  0  0  0
  186.4390  178.6180  144.2430 C   0  0  0  0  0  2  0  0  0  0  0  0
  185.1980  179.0410  142.1300 C   0  0  0  0  0  2  0  0  0  0  0  0
  185.1910  178.4090  140.7540 C   0  0  1  0  0  3  0  0  0  0  0  0
  186.8820  177.3150  142.1510 C   0  0  0  0  0  2  0  0  0  0  0  0
  186.1440  177.2240  140.8240 C   0  0  2  0  0  3  0  0  0  0  0  0
  186.5360  178.6740  142.7270 C   0  0  2  0  0  3  0  0  0  0  0  0
  183.8400  177.9540  140.4190 C   0  0  0  0  0  0  0  0  0  0  0  0
  182.7710  177.5960  140.1550 N   0  0  0  0  0  0  0  0  0  0  0  0
  187.1040  177.1850  139.6320 C   0  0  0  0  0  2  0  0  0  0  0  0
  186.6910  176.2140  138.5690 C   0  0  0  0  0  0  0  0  0  0  0  0
  187.3980  175.2000  138.3350 O   0  0  0  0  0  1  0  0  0  0  0  0
  185.5140  176.4180  137.8610 O   0  0  0  0  0  0  0  0  0  0  0  0
  1  4  1  1  0  0  0
  1  5  1  0  0  0  0
  1 11  1  0  0  0  0
  2  6  1  0  0  0  0
  5 26  1  1  0  0  0
  5 12  1  0  0  0  0
  6  4  1  0  0  0  0
  6 13  1  0  0  0  0
  8 14  1  0  0  0  0
  9  3  1  0  0  0  0
  9  7  1  1  0  0  0
 10  2  1  0  0  0  0
 10  6  1  0  0  0  0
 11  9  1  0  0  0  0
 12 22  1  0  0  0  0
 12  3  2  0  0  0  0
 14 13  1  0  0  0  0
 14 11  1  0  0  0  0
 15 16  2  0  0  0  0
 16 13  1  0  0  0  0
 16 17  1  0  0  0  0
 19 20  1  0  0  0  0
 20 17  1  0  0  0  0
 20 18  2  0  0  0  0
 21 15  1  0  0  0  0
 21 19  2  0  0  0  0
 22 24  1  0  0  0  0
 23 22  1  0  0  0  0
 25 22  1  0  0  0  0
 27 31  1  0  0  0  0
 28 30  1  0  0  0  0
 28 27  1  0  0  0  0
 29 31  1  0  0  0  0
 30 29  1  0  0  0  0
 31 26  1  0  0  0  0
 32 28  1  0  0  0  0
 33 32  3  0  0  0  0
 34 30  1  0  0  0  0
 35 34  1  0  0  0  0
 36 35  1  0  0  0  0
 37 35  2  0  0  0  0
M  END
>  <MODEL>
7

>  <REMARK>
 VINA RESULT:      -6.9      3.102      8.481
  Name = 
  7 active torsions:
  status: ('A' for Active; 'I' for Inactive)
    1  A    between atoms: C_3  and  C_30
    2  A    between atoms: C_5  and  C_12
    3  A    between atoms: C_6  and  C_31
    4  A    between atoms: C_11  and  C_26
    5  A    between atoms: C_13  and  C_20
    6  A    between atoms: C_20  and  C_36
    7  A    between atoms: C_26  and  C_33
                            x       y       z     vdW  Elec       q    Type
                         _______ _______ _______ _____ _____    ______ ____

>  <TORSDO>
F 7

$$$$
=
 OpenBabel11052419573D

 37 41  0  0  1  0  0  0  0  0999 V2000
  191.1490  175.4350  143.2880 C   0  0  2  0  0  3  0  0  0  0  0  0
  187.4260  174.8700  142.3920 C   0  0  0  0  0  2  0  0  0  0  0  0
  191.8810  174.1650  145.7050 C   0  0  0  0  0  3  0  0  0  0  0  0
  189.9020  174.6140  142.9060 C   0  0  0  0  0  2  0  0  0  0  0  0
  192.4350  174.5860  143.3160 C   0  0  1  0  0  3  0  0  0  0  0  0
  188.6860  175.5160  142.9180 C   0  0  0  0  0  0  0  0  0  0  0  0
  190.7620  175.9040  147.0180 C   0  0  0  0  0  1  0  0  0  0  0  0
  190.2370  178.2830  143.5820 C   0  0  0  0  0  1  0  0  0  0  0  0
  190.7840  175.1940  145.6720 C   0  0  1  0  0  3  0  0  0  0  0  0
  188.1520  175.9310  141.5660 C   0  0  0  0  0  2  0  0  0  0  0  0
  190.9860  176.1550  144.5710 N   0  0  2  0  0  0  0  0  0  0  0  0
  192.6160  173.8350  144.6270 C   0  0  0  0  0  0  0  0  0  0  0  0
  188.5310  176.4500  144.1240 C   0  0  1  0  0  3  0  0  0  0  0  0
  189.8690  177.1220  144.5010 C   0  0  2  0  0  3  0  0  0  0  0  0
  187.1270  178.2910  143.2360 C   0  0  0  0  0  3  0  0  0  0  0  0
  187.3230  177.3500  144.1690 C   0  0  0  0  0  0  0  0  0  0  0  0
  186.3490  177.1480  145.3020 C   0  0  0  0  0  2  0  0  0  0  0  0
  184.2870  178.0150  146.1370 O   0  0  0  0  0  0  0  0  0  0  0  0
  185.0600  179.0610  144.2080 N   0  0  0  0  0  0  0  0  0  0  0  0
  185.1770  178.0860  145.2500 C   0  0  0  0  0  0  0  0  0  0  0  0
  185.9500  179.1700  143.2710 C   0  0  0  0  0  3  0  0  0  0  0  0
  193.7480  172.8520  144.8230 C   0  0  0  0  0  0  0  0  0  0  0  0
  193.5490  171.7330  144.0320 F   0  0  0  0  0  0  0  0  0  0  0  0
  194.9400  173.4520  144.4620 F   0  0  0  0  0  0  0  0  0  0  0  0
  193.8370  172.4370  146.1400 F   0  0  0  0  0  0  0  0  0  0  0  0
  192.5480  173.6710  142.0940 C   0  0  0  0  0  2  0  0  0  0  0  0
  194.7790  172.8640  141.3460 C   0  0  0  0  0  2  0  0  0  0  0  0
  196.1340  173.5090  141.1500 C   0  0  1  0  0  3  0  0  0  0  0  0
  194.5070  175.2090  141.8340 C   0  0  0  0  0  2  0  0  0  0  0  0
  195.9890  174.9530  141.6080 C   0  0  2  0  0  3  0  0  0  0  0  0
  193.7850  173.9990  141.2740 C   0  0  2  0  0  3  0  0  0  0  0  0
  197.1390  172.8180  141.9610 C   0  0  0  0  0  0  0  0  0  0  0  0
  197.9350  172.2720  142.6010 N   0  0  0  0  0  0  0  0  0  0  0  0
  196.5980  175.9390  140.6070 C   0  0  0  0  0  2  0  0  0  0  0  0
  196.7040  175.3860  139.2190 C   0  0  0  0  0  0  0  0  0  0  0  0
  195.6770  175.2900  138.5000 O   0  0  0  0  0  0  0  0  0  0  0  0
  197.9410  175.0070  138.7150 O   0  0  0  0  0  1  0  0  0  0  0  0
  1  4  1  1  0  0  0
  1  5  1  0  0  0  0
  1 11  1  0  0  0  0
  2  6  1  0  0  0  0
  4  6  1  0  0  0  0
  5 26  1  6  0  0  0
  5 12  1  0  0  0  0
  6 13  1  0  0  0  0
  8 14  1  0  0  0  0
  9  3  1  0  0  0  0
  9  7  1  1  0  0  0
 10  2  1  0  0  0  0
 10  6  1  0  0  0  0
 11  9  1  0  0  0  0
 12 22  1  0  0  0  0
 12  3  2  0  0  0  0
 13 16  1  0  0  0  0
 13 14  1  0  0  0  0
 14 11  1  0  0  0  0
 15 21  1  0  0  0  0
 15 16  2  0  0  0  0
 16 17  1  0  0  0  0
 19 20  1  0  0  0  0
 20 17  1  0  0  0  0
 20 18  2  0  0  0  0
 21 19  2  0  0  0  0
 22 25  1  0  0  0  0
 23 22  1  0  0  0  0
 24 22  1  0  0  0  0
 28 27  1  0  0  0  0
 28 30  1  0  0  0  0
 28 32  1  0  0  0  0
 30 29  1  0  0  0  0
 31 27  1  0  0  0  0
 31 29  1  0  0  0  0
 31 26  1  0  0  0  0
 32 33  3  0  0  0  0
 34 30  1  0  0  0  0
 35 34  1  0  0  0  0
 36 35  2  0  0  0  0
 37 35  1  0  0  0  0
M  END
>  <MODEL>
8

>  <REMARK>
 VINA RESULT:      -6.9      2.359      2.975
  Name = 
  7 active torsions:
  status: ('A' for Active; 'I' for Inactive)
    1  A    between atoms: C_3  and  C_30
    2  A    between atoms: C_5  and  C_12
    3  A    between atoms: C_6  and  C_31
    4  A    between atoms: C_11  and  C_26
    5  A    between atoms: C_13  and  C_20
    6  A    between atoms: C_20  and  C_36
    7  A    between atoms: C_26  and  C_33
                            x       y       z     vdW  Elec       q    Type
                         _______ _______ _______ _____ _____    ______ ____

>  <TORSDO>
F 7

$$$$
=
 OpenBabel11052419573D

 37 41  0  0  1  0  0  0  0  0999 V2000
  190.6890  173.5560  143.2550 C   0  0  2  0  0  3  0  0  0  0  0  0
  192.3690  174.0950  139.8100 C   0  0  0  0  0  2  0  0  0  0  0  0
  192.4800  173.9620  145.4040 C   0  0  0  0  0  3  0  0  0  0  0  0
  191.3970  174.3550  142.1440 C   0  0  0  0  0  2  0  0  0  0  0  0
  190.2400  174.4420  144.4330 C   0  0  1  0  0  3  0  0  0  0  0  0
  191.8170  173.4110  141.0380 C   0  0  0  0  0  0  0  0  0  0  0  0
  193.5400  171.7910  144.9980 C   0  0  0  0  0  1  0  0  0  0  0  0
  190.5060  170.7190  142.2800 C   0  0  0  0  0  1  0  0  0  0  0  0
  192.7560  172.9230  144.3500 C   0  0  1  0  0  3  0  0  0  0  0  0
  190.9840  173.4490  139.7770 C   0  0  0  0  0  2  0  0  0  0  0  0
  191.5040  172.4240  143.7510 N   0  0  2  0  0  0  0  0  0  0  0  0
  191.3580  174.7040  145.4320 C   0  0  0  0  0  0  0  0  0  0  0  0
  192.5000  172.1060  141.4660 C   0  0  1  0  0  3  0  0  0  0  0  0
  191.7840  171.4560  142.6700 C   0  0  2  0  0  3  0  0  0  0  0  0
  194.2410  170.9640  140.1200 C   0  0  0  0  0  3  0  0  0  0  0  0
  192.9420  171.1520  140.3860 C   0  0  0  0  0  0  0  0  0  0  0  0
  191.8670  170.4230  139.6230 C   0  0  0  0  0  2  0  0  0  0  0  0
  191.6150  168.8160  137.8740 O   0  0  0  0  0  0  0  0  0  0  0  0
  193.8220  169.3620  138.3690 N   0  0  0  0  0  0  0  0  0  0  0  0
  192.4110  169.4900  138.5780 C   0  0  0  0  0  0  0  0  0  0  0  0
  194.6810  170.0340  139.0710 C   0  0  0  0  0  3  0  0  0  0  0  0
  191.1670  175.6450  146.6000 C   0  0  0  0  0  0  0  0  0  0  0  0
  192.1570  175.4370  147.5460 F   0  0  0  0  0  0  0  0  0  0  0  0
  191.2430  176.9500  146.1500 F   0  0  0  0  0  0  0  0  0  0  0  0
  189.9420  175.4520  147.2120 F   0  0  0  0  0  0  0  0  0  0  0  0
  189.5630  175.7320  143.9590 C   0  0  0  0  0  2  0  0  0  0  0  0
  187.2750  175.9660  143.0130 C   0  0  0  0  0  2  0  0  0  0  0  0
  185.9890  176.6140  143.4830 C   0  0  1  0  0  3  0  0  0  0  0  0
  187.7040  176.8390  145.2190 C   0  0  0  0  0  2  0  0  0  0  0  0
  186.3130  177.2940  144.8050 C   0  0  2  0  0  3  0  0  0  0  0  0
  188.0750  175.7170  144.2700 C   0  0  2  0  0  3  0  0  0  0  0  0
  185.5390  177.6020  142.5010 C   0  0  0  0  0  0  0  0  0  0  0  0
  185.1810  178.3830  141.7240 N   0  0  0  0  0  0  0  0  0  0  0  0
  185.2640  176.9920  145.8800 C   0  0  0  0  0  2  0  0  0  0  0  0
  184.4580  178.1910  146.2750 C   0  0  0  0  0  0  0  0  0  0  0  0
  184.3580  178.5090  147.4880 O   0  0  0  0  0  1  0  0  0  0  0  0
  183.8450  178.9690  145.3020 O   0  0  0  0  0  0  0  0  0  0  0  0
  1  4  1  6  0  0  0
  1 11  1  0  0  0  0
  1  5  1  0  0  0  0
  2  6  1  0  0  0  0
  3 12  2  0  0  0  0
  5 26  1  6  0  0  0
  5 12  1  0  0  0  0
  6 13  1  0  0  0  0
  6  4  1  0  0  0  0
  8 14  1  0  0  0  0
  9  7  1  1  0  0  0
  9  3  1  0  0  0  0
 10  2  1  0  0  0  0
 10  6  1  0  0  0  0
 11  9  1  0  0  0  0
 12 22  1  0  0  0  0
 13 14  1  0  0  0  0
 14 11  1  0  0  0  0
 15 16  2  0  0  0  0
 16 13  1  0  0  0  0
 17 16  1  0  0  0  0
 18 20  2  0  0  0  0
 19 20  1  0  0  0  0
 19 21  2  0  0  0  0
 20 17  1  0  0  0  0
 21 15  1  0  0  0  0
 22 25  1  0  0  0  0
 22 23  1  0  0  0  0
 24 22  1  0  0  0  0
 26 31  1  0  0  0  0
 27 28  1  0  0  0  0
 27 31  1  0  0  0  0
 28 30  1  0  0  0  0
 30 29  1  0  0  0  0
 30 34  1  0  0  0  0
 31 29  1  0  0  0  0
 32 28  1  0  0  0  0
 33 32  3  0  0  0  0
 34 35  1  0  0  0  0
 35 36  1  0  0  0  0
 37 35  2  0  0  0  0
M  END
>  <MODEL>
9

>  <REMARK>
 VINA RESULT:      -6.8      3.921      8.569
  Name = 
  7 active torsions:
  status: ('A' for Active; 'I' for Inactive)
    1  A    between atoms: C_3  and  C_30
    2  A    between atoms: C_5  and  C_12
    3  A    between atoms: C_6  and  C_31
    4  A    between atoms: C_11  and  C_26
    5  A    between atoms: C_13  and  C_20
    6  A    between atoms: C_20  and  C_36
    7  A    between atoms: C_26  and  C_33
                            x       y       z     vdW  Elec       q    Type
                         _______ _______ _______ _____ _____    ______ ____

>  <TORSDO>
F 7

$$$$
