=
 OpenBabel11052418483D

 34 39  0  0  1  0  0  0  0  0999 V2000
  189.5600  172.4180  141.9500 C   0  0  2  0  0  3  0  0  0  0  0  0
  191.4270  172.3840  143.6440 C   0  0  0  0  0  0  0  0  0  0  0  0
  189.5800  174.3200  143.6230 C   0  0  2  0  0  3  0  0  0  0  0  0
  189.4520  176.3690  145.0770 N   0  0  0  0  0  0  0  0  0  0  0  0
  190.6480  170.3040  142.3150 C   0  0  0  0  0  2  0  0  0  0  0  0
  191.5600  170.8950  143.3880 C   0  0  0  0  0  2  0  0  0  0  0  0
  191.3350  174.8180  145.3640 C   0  0  0  0  0  0  0  0  0  0  0  0
  190.4750  173.2940  142.8310 C   0  0  2  0  0  3  0  0  0  0  0  0
  192.6180  174.2610  144.8570 C   0  0  1  0  0  3  0  0  0  0  0  0
  190.2430  177.4430  145.6660 C   0  0  0  0  0  1  0  0  0  0  0  0
  190.3180  171.3200  141.2470 C   0  0  0  0  0  2  0  0  0  0  0  0
  188.6280  175.0520  142.6370 C   0  0  2  0  0  3  0  0  0  0  0  0
  188.7440  173.2320  140.9750 C   0  0  0  0  0  2  0  0  0  0  0  0
  192.3770  172.8400  144.4740 C   0  0  0  0  0  3  0  0  0  0  0  0
  188.6110  177.0430  144.0970 C   0  0  0  0  0  2  0  0  0  0  0  0
  187.7270  176.0470  143.3680 C   0  0  1  0  0  3  0  0  0  0  0  0
  191.0340  174.6640  146.5390 O   0  0  0  0  0  0  0  0  0  0  0  0
  190.3610  175.4230  144.3930 C   0  0  1  0  0  3  0  0  0  0  0  0
  187.8040  174.0860  141.7940 C   0  0  0  0  0  2  0  0  0  0  0  0
  193.2330  175.0790  143.7070 C   0  0  1  0  0  3  0  0  0  0  0  0
  194.8520  177.4130  145.8680 C   0  0  0  0  0  1  0  0  0  0  0  0
  193.5640  176.3960  144.1270 O   0  0  0  0  0  0  0  0  0  0  0  0
  194.8290  176.3930  144.7480 C   0  0  1  0  0  3  0  0  0  0  0  0
  195.4870  176.5370  142.2830 C   0  0  0  0  0  2  0  0  0  0  0  0
  195.0870  175.1030  141.9090 C   0  0  0  0  0  2  0  0  0  0  0  0
  194.3880  174.3130  143.0200 C   0  0  0  0  0  2  0  0  0  0  0  0
  195.9410  176.7080  143.7380 C   0  0  0  0  0  2  0  0  0  0  0  0
  184.6760  177.8440  141.9530 C   0  0  0  0  0  0  0  0  0  0  0  0
  185.1270  178.1600  140.6670 C   0  0  0  0  0  3  0  0  0  0  0  0
  186.8060  176.7850  142.4390 C   0  0  0  0  0  0  0  0  0  0  0  0
  186.4130  177.7890  140.2670 C   0  0  0  0  0  3  0  0  0  0  0  0
  185.5130  177.1580  142.8370 C   0  0  0  0  0  3  0  0  0  0  0  0
  187.2510  177.1020  141.1510 C   0  0  0  0  0  3  0  0  0  0  0  0
  183.3980  178.2130  142.3500 O   0  0  0  0  0  1  0  0  0  0  0  0
  1 13  1  6  0  0  0
  1  8  1  0  0  0  0
  2 14  2  0  0  0  0
  3 18  1  0  0  0  0
  4 10  1  0  0  0  0
  5  6  1  0  0  0  0
  6  2  1  0  0  0  0
  7 17  2  0  0  0  0
  8  3  1  0  0  0  0
  8  2  1  0  0  0  0
  9  7  1  0  0  0  0
 11  1  1  0  0  0  0
 11  5  1  0  0  0  0
 12 16  1  0  0  0  0
 12  3  1  0  0  0  0
 13 19  1  0  0  0  0
 14  9  1  0  0  0  0
 15  4  1  0  0  0  0
 16 15  1  0  0  0  0
 18  4  1  0  0  0  0
 18  7  1  0  0  0  0
 19 12  1  0  0  0  0
 20 22  1  0  0  0  0
 20  9  1  0  0  0  0
 22 23  1  0  0  0  0
 23 21  1  0  0  0  0
 24 27  1  0  0  0  0
 25 24  1  0  0  0  0
 25 26  1  0  0  0  0
 26 20  1  0  0  0  0
 27 23  1  0  0  0  0
 28 34  1  0  0  0  0
 28 32  1  0  0  0  0
 29 28  2  0  0  0  0
 30 32  2  0  0  0  0
 30 16  1  0  0  0  0
 31 29  1  0  0  0  0
 31 33  2  0  0  0  0
 33 30  1  0  0  0  0
M  END
>  <MODEL>
1

>  <REMARK>
 VINA RESULT:      -8.3      0.000      0.000
  Name = 
  2 active torsions:
  status: ('A' for Active; 'I' for Inactive)
    1  A    between atoms: C_3  and  C_17
    2  A    between atoms: C_12  and  C_28
                            x       y       z     vdW  Elec       q    Type
                         _______ _______ _______ _____ _____    ______ ____

>  <TORSDO>
F 2

$$$$
=
 OpenBabel11052418483D

 34 39  0  0  1  0  0  0  0  0999 V2000
  188.5960  174.1690  140.6210 C   0  0  2  0  0  3  0  0  0  0  0  0
  190.6430  172.8880  141.3460 C   0  0  0  0  0  0  0  0  0  0  0  0
  189.2680  174.4250  143.0500 C   0  0  2  0  0  3  0  0  0  0  0  0
  189.7940  174.9450  145.4540 N   0  0  0  0  0  0  0  0  0  0  0  0
  189.2530  172.3120  139.2400 C   0  0  0  0  0  2  0  0  0  0  0  0
  190.4180  171.9650  140.1640 C   0  0  0  0  0  2  0  0  0  0  0  0
  191.3260  173.5080  144.1810 C   0  0  0  0  0  0  0  0  0  0  0  0
  189.7970  174.1600  141.5900 C   0  0  2  0  0  3  0  0  0  0  0  0
  192.3720  173.3710  143.1320 C   0  0  1  0  0  3  0  0  0  0  0  0
  190.8730  175.2860  146.3730 C   0  0  0  0  0  1  0  0  0  0  0  0
  188.9920  173.8000  139.2130 C   0  0  0  0  0  2  0  0  0  0  0  0
  188.3570  175.6840  143.0550 C   0  0  2  0  0  3  0  0  0  0  0  0
  187.8370  175.4730  140.6530 C   0  0  0  0  0  2  0  0  0  0  0  0
  191.7810  172.6040  141.9970 C   0  0  0  0  0  3  0  0  0  0  0  0
  188.9800  176.1520  145.3980 C   0  0  0  0  0  2  0  0  0  0  0  0
  187.8070  175.9670  144.4530 C   0  0  1  0  0  3  0  0  0  0  0  0
  191.1770  172.6150  145.0030 O   0  0  0  0  0  0  0  0  0  0  0  0
  190.3700  174.6650  144.1200 C   0  0  1  0  0  3  0  0  0  0  0  0
  187.2320  175.5960  142.0310 C   0  0  0  0  0  2  0  0  0  0  0  0
  192.9700  174.7150  142.6790 C   0  0  1  0  0  3  0  0  0  0  0  0
  195.2550  174.9330  145.4110 C   0  0  0  0  0  1  0  0  0  0  0  0
  193.5860  175.3990  143.7620 O   0  0  0  0  0  0  0  0  0  0  0  0
  194.9010  174.9210  143.9390 C   0  0  1  0  0  3  0  0  0  0  0  0
  195.2450  176.6380  142.0780 C   0  0  0  0  0  2  0  0  0  0  0  0
  194.5450  175.8400  140.9690 C   0  0  0  0  0  2  0  0  0  0  0  0
  193.8660  174.5460  141.4300 C   0  0  0  0  0  2  0  0  0  0  0  0
  195.9090  175.7730  143.1570 C   0  0  0  0  0  2  0  0  0  0  0  0
  185.1040  178.4660  145.4490 C   0  0  0  0  0  0  0  0  0  0  0  0
  185.3410  179.4930  144.5310 C   0  0  0  0  0  3  0  0  0  0  0  0
  186.9360  177.1910  144.4940 C   0  0  0  0  0  0  0  0  0  0  0  0
  186.3710  179.3710  143.5950 C   0  0  0  0  0  3  0  0  0  0  0  0
  185.8990  177.3160  145.4320 C   0  0  0  0  0  3  0  0  0  0  0  0
  187.1670  178.2210  143.5770 C   0  0  0  0  0  3  0  0  0  0  0  0
  184.0790  178.5870  146.3780 O   0  0  0  0  0  1  0  0  0  0  0  0
  1 11  1  6  0  0  0
  1 13  1  0  0  0  0
  1  8  1  0  0  0  0
  2  8  1  0  0  0  0
  2 14  2  0  0  0  0
  3 12  1  0  0  0  0
  3 18  1  0  0  0  0
  4 10  1  0  0  0  0
  5  6  1  0  0  0  0
  6  2  1  0  0  0  0
  7 17  2  0  0  0  0
  8  3  1  0  0  0  0
  9  7  1  0  0  0  0
 11  5  1  0  0  0  0
 12 16  1  0  0  0  0
 13 19  1  0  0  0  0
 14  9  1  0  0  0  0
 15  4  1  0  0  0  0
 16 30  1  0  0  0  0
 16 15  1  0  0  0  0
 18  7  1  0  0  0  0
 18  4  1  0  0  0  0
 19 12  1  0  0  0  0
 20  9  1  0  0  0  0
 20 22  1  0  0  0  0
 22 23  1  0  0  0  0
 23 21  1  0  0  0  0
 24 27  1  0  0  0  0
 25 26  1  0  0  0  0
 25 24  1  0  0  0  0
 26 20  1  0  0  0  0
 27 23  1  0  0  0  0
 28 34  1  0  0  0  0
 29 28  2  0  0  0  0
 30 32  2  0  0  0  0
 31 29  1  0  0  0  0
 32 28  1  0  0  0  0
 33 31  2  0  0  0  0
 33 30  1  0  0  0  0
M  END
>  <MODEL>
2

>  <REMARK>
 VINA RESULT:      -7.9      1.827      2.383
  Name = 
  2 active torsions:
  status: ('A' for Active; 'I' for Inactive)
    1  A    between atoms: C_3  and  C_17
    2  A    between atoms: C_12  and  C_28
                            x       y       z     vdW  Elec       q    Type
                         _______ _______ _______ _____ _____    ______ ____

>  <TORSDO>
F 2

$$$$
=
 OpenBabel11052418483D

 34 39  0  0  1  0  0  0  0  0999 V2000
  194.2220  176.2180  144.0140 C   0  0  2  0  0  3  0  0  0  0  0  0
  195.0810  174.1580  142.8420 C   0  0  0  0  0  0  0  0  0  0  0  0
  192.4650  174.5710  143.2270 C   0  0  2  0  0  3  0  0  0  0  0  0
  190.5460  173.0450  142.6650 N   0  0  0  0  0  0  0  0  0  0  0  0
  196.4430  176.3430  143.0990 C   0  0  0  0  0  2  0  0  0  0  0  0
  196.3510  174.9270  142.5360 C   0  0  0  0  0  2  0  0  0  0  0  0
  192.8390  172.3020  142.1920 C   0  0  0  0  0  0  0  0  0  0  0  0
  193.9500  174.7260  143.7320 C   0  0  2  0  0  3  0  0  0  0  0  0
  194.1500  171.8080  142.6940 C   0  0  1  0  0  3  0  0  0  0  0  0
  190.1010  171.6570  142.6960 C   0  0  0  0  0  1  0  0  0  0  0  0
  195.6600  176.4800  144.3850 C   0  0  0  0  0  2  0  0  0  0  0  0
  191.5020  175.2980  144.2060 C   0  0  2  0  0  3  0  0  0  0  0  0
  193.2780  176.7940  145.0410 C   0  0  0  0  0  2  0  0  0  0  0  0
  195.1620  172.8770  142.4540 C   0  0  0  0  0  3  0  0  0  0  0  0
  189.6950  173.7150  143.6380 C   0  0  0  0  0  2  0  0  0  0  0  0
  190.0500  175.1870  143.7430 C   0  0  1  0  0  3  0  0  0  0  0  0
  192.5540  172.1580  141.0120 O   0  0  0  0  0  0  0  0  0  0  0  0
  191.9580  173.1060  143.1050 C   0  0  1  0  0  3  0  0  0  0  0  0
  191.8930  176.7530  144.4380 C   0  0  0  0  0  2  0  0  0  0  0  0
  194.1150  171.3580  144.1660 C   0  0  1  0  0  3  0  0  0  0  0  0
  192.6920  168.1660  143.4410 C   0  0  0  0  0  1  0  0  0  0  0  0
  193.1650  170.3200  144.3680 O   0  0  0  0  0  0  0  0  0  0  0  0
  193.7420  169.0760  144.0430 C   0  0  1  0  0  3  0  0  0  0  0  0
  194.5670  169.3940  146.4410 C   0  0  0  0  0  2  0  0  0  0  0  0
  195.5600  170.5250  146.1390 C   0  0  0  0  0  2  0  0  0  0  0  0
  195.5340  171.0440  144.6970 C   0  0  0  0  0  2  0  0  0  0  0  0
  194.3550  168.4110  145.2830 C   0  0  0  0  0  2  0  0  0  0  0  0
  187.4200  177.5620  145.1510 C   0  0  0  0  0  0  0  0  0  0  0  0
  187.3180  177.0960  146.4650 C   0  0  0  0  0  3  0  0  0  0  0  0
  189.0910  175.8650  144.6800 C   0  0  0  0  0  0  0  0  0  0  0  0
  188.1000  176.0180  146.8870 C   0  0  0  0  0  3  0  0  0  0  0  0
  188.3050  176.9490  144.2590 C   0  0  0  0  0  3  0  0  0  0  0  0
  188.9850  175.4040  145.9960 C   0  0  0  0  0  3  0  0  0  0  0  0
  186.6440  178.6340  144.7320 O   0  0  0  0  0  1  0  0  0  0  0  0
  1 11  1  1  0  0  0
  1 13  1  0  0  0  0
  2  8  1  0  0  0  0
  3  8  1  0  0  0  0
  3 12  1  0  0  0  0
  4 10  1  0  0  0  0
  4 18  1  0  0  0  0
  4 15  1  0  0  0  0
  5 11  1  0  0  0  0
  6  2  1  0  0  0  0
  6  5  1  0  0  0  0
  7  9  1  0  0  0  0
  7 18  1  0  0  0  0
  8  1  1  0  0  0  0
  9 20  1  0  0  0  0
 12 19  1  0  0  0  0
 14  9  1  0  0  0  0
 14  2  2  0  0  0  0
 15 16  1  0  0  0  0
 16 12  1  0  0  0  0
 16 30  1  0  0  0  0
 17  7  2  0  0  0  0
 18  3  1  0  0  0  0
 19 13  1  0  0  0  0
 20 22  1  0  0  0  0
 20 26  1  0  0  0  0
 21 23  1  0  0  0  0
 23 22  1  0  0  0  0
 23 27  1  0  0  0  0
 25 24  1  0  0  0  0
 26 25  1  0  0  0  0
 27 24  1  0  0  0  0
 28 29  1  0  0  0  0
 29 31  2  0  0  0  0
 30 33  2  0  0  0  0
 32 30  1  0  0  0  0
 32 28  2  0  0  0  0
 33 31  1  0  0  0  0
 34 28  1  0  0  0  0
M  END
>  <MODEL>
3

>  <REMARK>
 VINA RESULT:      -7.8      2.656      5.671
  Name = 
  2 active torsions:
  status: ('A' for Active; 'I' for Inactive)
    1  A    between atoms: C_3  and  C_17
    2  A    between atoms: C_12  and  C_28
                            x       y       z     vdW  Elec       q    Type
                         _______ _______ _______ _____ _____    ______ ____

>  <TORSDO>
F 2

$$$$
=
 OpenBabel11052418483D

 34 39  0  0  1  0  0  0  0  0999 V2000
  191.5510  171.6870  144.2650 C   0  0  2  0  0  3  0  0  0  0  0  0
  194.0700  171.7910  144.3150 C   0  0  0  0  0  0  0  0  0  0  0  0
  192.5590  173.8140  145.2000 C   0  0  2  0  0  3  0  0  0  0  0  0
  193.3050  176.0620  146.0470 N   0  0  0  0  0  0  0  0  0  0  0  0
  192.7210  169.5880  144.1550 C   0  0  0  0  0  2  0  0  0  0  0  0
  194.0800  170.2750  144.2670 C   0  0  0  0  0  2  0  0  0  0  0  0
  194.9960  174.4570  145.2760 C   0  0  0  0  0  0  0  0  0  0  0  0
  192.7730  172.6260  144.1880 C   0  0  2  0  0  3  0  0  0  0  0  0
  195.6650  173.7500  144.1500 C   0  0  1  0  0  3  0  0  0  0  0  0
  194.2320  177.1600  145.8050 C   0  0  0  0  0  1  0  0  0  0  0  0
  191.7230  170.4500  143.4180 C   0  0  0  0  0  2  0  0  0  0  0  0
  191.1590  174.4470  144.9730 C   0  0  2  0  0  3  0  0  0  0  0  0
  190.2570  172.3940  143.9450 C   0  0  0  0  0  2  0  0  0  0  0  0
  195.3060  172.3060  144.2430 C   0  0  0  0  0  3  0  0  0  0  0  0
  191.9950  176.6320  145.7620 C   0  0  0  0  0  2  0  0  0  0  0  0
  190.9020  175.5960  145.9490 C   0  0  1  0  0  3  0  0  0  0  0  0
  195.5420  174.5010  146.3690 O   0  0  0  0  0  0  0  0  0  0  0  0
  193.5950  174.9680  145.0940 C   0  0  1  0  0  3  0  0  0  0  0  0
  190.0350  173.4190  145.0320 C   0  0  0  0  0  2  0  0  0  0  0  0
  195.3400  174.3450  142.7690 C   0  0  1  0  0  3  0  0  0  0  0  0
  197.5590  177.1170  143.1350 C   0  0  0  0  0  1  0  0  0  0  0  0
  195.6550  175.7300  142.7140 O   0  0  0  0  0  0  0  0  0  0  0  0
  197.0230  175.8950  142.4180 C   0  0  1  0  0  3  0  0  0  0  0  0
  196.0450  175.5710  140.0790 C   0  0  0  0  0  2  0  0  0  0  0  0
  195.7200  174.0790  140.2280 C   0  0  0  0  0  2  0  0  0  0  0  0
  195.9520  173.5000  141.6270 C   0  0  0  0  0  2  0  0  0  0  0  0
  197.2470  176.0430  140.9060 C   0  0  0  0  0  2  0  0  0  0  0  0
  187.3220  176.7830  146.5070 C   0  0  0  0  0  0  0  0  0  0  0  0
  187.0780  177.4630  145.3100 C   0  0  0  0  0  3  0  0  0  0  0  0
  189.5620  176.2420  145.7430 C   0  0  0  0  0  0  0  0  0  0  0  0
  188.0720  177.5320  144.3300 C   0  0  0  0  0  3  0  0  0  0  0  0
  188.5610  176.1730  146.7240 C   0  0  0  0  0  3  0  0  0  0  0  0
  189.3110  176.9220  144.5460 C   0  0  0  0  0  3  0  0  0  0  0  0
  186.3340  176.7140  147.4800 O   0  0  0  0  0  1  0  0  0  0  0  0
  1 11  1  6  0  0  0
  5  6  1  0  0  0  0
  6  2  1  0  0  0  0
  7 17  2  0  0  0  0
  8  1  1  0  0  0  0
  8  2  1  0  0  0  0
  8  3  1  0  0  0  0
  9 14  1  0  0  0  0
  9  7  1  0  0  0  0
 10  4  1  0  0  0  0
 11  5  1  0  0  0  0
 12 19  1  0  0  0  0
 12  3  1  0  0  0  0
 12 16  1  0  0  0  0
 13  1  1  0  0  0  0
 13 19  1  0  0  0  0
 14  2  2  0  0  0  0
 15 16  1  0  0  0  0
 15  4  1  0  0  0  0
 18  3  1  0  0  0  0
 18  7  1  0  0  0  0
 18  4  1  0  0  0  0
 20  9  1  0  0  0  0
 22 20  1  0  0  0  0
 23 22  1  0  0  0  0
 23 21  1  0  0  0  0
 24 25  1  0  0  0  0
 24 27  1  0  0  0  0
 25 26  1  0  0  0  0
 26 20  1  0  0  0  0
 27 23  1  0  0  0  0
 28 32  1  0  0  0  0
 28 34  1  0  0  0  0
 29 28  2  0  0  0  0
 30 16  1  0  0  0  0
 30 32  2  0  0  0  0
 31 33  2  0  0  0  0
 31 29  1  0  0  0  0
 33 30  1  0  0  0  0
M  END
>  <MODEL>
4

>  <REMARK>
 VINA RESULT:      -7.8      2.654      3.686
  Name = 
  2 active torsions:
  status: ('A' for Active; 'I' for Inactive)
    1  A    between atoms: C_3  and  C_17
    2  A    between atoms: C_12  and  C_28
                            x       y       z     vdW  Elec       q    Type
                         _______ _______ _______ _____ _____    ______ ____

>  <TORSDO>
F 2

$$$$
=
 OpenBabel11052418483D

 34 39  0  0  1  0  0  0  0  0999 V2000
  189.0040  173.9580  141.0270 C   0  0  2  0  0  3  0  0  0  0  0  0
  191.2040  172.8060  141.4600 C   0  0  0  0  0  0  0  0  0  0  0  0
  189.9660  174.2340  143.3540 C   0  0  2  0  0  3  0  0  0  0  0  0
  190.7660  174.7650  145.6790 N   0  0  0  0  0  0  0  0  0  0  0  0
  189.5920  172.1600  139.5410 C   0  0  0  0  0  2  0  0  0  0  0  0
  190.8870  171.8810  140.3010 C   0  0  0  0  0  2  0  0  0  0  0  0
  192.2070  173.4420  144.1950 C   0  0  0  0  0  0  0  0  0  0  0  0
  190.3180  174.0180  141.8330 C   0  0  2  0  0  3  0  0  0  0  0  0
  193.1150  173.3840  143.0180 C   0  0  1  0  0  3  0  0  0  0  0  0
  191.9310  175.1670  146.4580 C   0  0  0  0  0  1  0  0  0  0  0  0
  189.2360  173.6290  139.5740 C   0  0  0  0  0  2  0  0  0  0  0  0
  188.9870  175.4320  143.4980 C   0  0  2  0  0  3  0  0  0  0  0  0
  188.1740  175.2100  141.1790 C   0  0  0  0  0  2  0  0  0  0  0  0
  192.4320  172.5910  141.9550 C   0  0  0  0  0  3  0  0  0  0  0  0
  189.8760  175.9170  145.7490 C   0  0  0  0  0  2  0  0  0  0  0  0
  188.6050  175.6650  144.9600 C   0  0  1  0  0  3  0  0  0  0  0  0
  192.2230  172.5330  145.0130 O   0  0  0  0  0  0  0  0  0  0  0  0
  191.1800  174.5350  144.2770 C   0  0  1  0  0  3  0  0  0  0  0  0
  187.7460  175.2800  142.6260 C   0  0  0  0  0  2  0  0  0  0  0  0
  193.5630  174.7680  142.5150 C   0  0  1  0  0  3  0  0  0  0  0  0
  196.4290  174.9150  144.6380 C   0  0  0  0  0  1  0  0  0  0  0  0
  194.4070  175.4130  143.4600 O   0  0  0  0  0  0  0  0  0  0  0  0
  195.7340  174.9680  143.2930 C   0  0  1  0  0  3  0  0  0  0  0  0
  195.5950  176.7910  141.5060 C   0  0  0  0  0  2  0  0  0  0  0  0
  194.6660  176.0300  140.5500 C   0  0  0  0  0  2  0  0  0  0  0  0
  194.1400  174.6930  141.0820 C   0  0  0  0  0  2  0  0  0  0  0  0
  196.5120  175.8920  142.3450 C   0  0  0  0  0  2  0  0  0  0  0  0
  186.3700  178.6670  144.2260 C   0  0  0  0  0  0  0  0  0  0  0  0
  185.9300  178.9910  145.5130 C   0  0  0  0  0  3  0  0  0  0  0  0
  187.6710  176.8290  145.1340 C   0  0  0  0  0  0  0  0  0  0  0  0
  186.3600  178.2390  146.6090 C   0  0  0  0  0  3  0  0  0  0  0  0
  187.2390  177.5890  144.0360 C   0  0  0  0  0  3  0  0  0  0  0  0
  187.2290  177.1600  146.4200 C   0  0  0  0  0  3  0  0  0  0  0  0
  185.9440  179.4160  143.1370 O   0  0  0  0  0  1  0  0  0  0  0  0
  1 11  1  6  0  0  0
  1 13  1  0  0  0  0
  1  8  1  0  0  0  0
  2  8  1  0  0  0  0
  2 14  2  0  0  0  0
  3 12  1  0  0  0  0
  3 18  1  0  0  0  0
  4 15  1  0  0  0  0
  4 10  1  0  0  0  0
  5 11  1  0  0  0  0
  5  6  1  0  0  0  0
  6  2  1  0  0  0  0
  7 18  1  0  0  0  0
  7 17  2  0  0  0  0
  8  3  1  0  0  0  0
  9  7  1  0  0  0  0
 12 16  1  0  0  0  0
 13 19  1  0  0  0  0
 14  9  1  0  0  0  0
 16 30  1  0  0  0  0
 16 15  1  0  0  0  0
 18  4  1  0  0  0  0
 19 12  1  0  0  0  0
 20  9  1  0  0  0  0
 20 22  1  0  0  0  0
 23 22  1  0  0  0  0
 23 21  1  0  0  0  0
 24 27  1  0  0  0  0
 25 26  1  0  0  0  0
 25 24  1  0  0  0  0
 26 20  1  0  0  0  0
 27 23  1  0  0  0  0
 28 29  1  0  0  0  0
 29 31  2  0  0  0  0
 30 33  2  0  0  0  0
 32 28  2  0  0  0  0
 32 30  1  0  0  0  0
 33 31  1  0  0  0  0
 34 28  1  0  0  0  0
M  END
>  <MODEL>
5

>  <REMARK>
 VINA RESULT:      -7.7      1.930      2.709
  Name = 
  2 active torsions:
  status: ('A' for Active; 'I' for Inactive)
    1  A    between atoms: C_3  and  C_17
    2  A    between atoms: C_12  and  C_28
                            x       y       z     vdW  Elec       q    Type
                         _______ _______ _______ _____ _____    ______ ____

>  <TORSDO>
F 2

$$$$
=
 OpenBabel11052418483D

 34 39  0  0  1  0  0  0  0  0999 V2000
  189.6180  172.8350  141.5360 C   0  0  2  0  0  3  0  0  0  0  0  0
  191.8840  172.2850  142.4940 C   0  0  0  0  0  0  0  0  0  0  0  0
  190.3450  174.2100  143.5350 C   0  0  2  0  0  3  0  0  0  0  0  0
  190.8840  175.7900  145.4170 N   0  0  0  0  0  0  0  0  0  0  0  0
  190.5190  170.6680  141.0030 C   0  0  0  0  0  2  0  0  0  0  0  0
  191.7660  170.9180  141.8470 C   0  0  0  0  0  2  0  0  0  0  0  0
  192.5790  174.1620  144.7040 C   0  0  0  0  0  0  0  0  0  0  0  0
  190.8450  173.4100  142.2740 C   0  0  2  0  0  3  0  0  0  0  0  0
  193.5840  173.7240  143.6980 C   0  0  1  0  0  3  0  0  0  0  0  0
  191.9290  176.6380  145.9760 C   0  0  0  0  0  1  0  0  0  0  0  0
  190.0060  171.9460  140.3800 C   0  0  0  0  0  2  0  0  0  0  0  0
  189.2340  175.2110  143.1130 C   0  0  2  0  0  3  0  0  0  0  0  0
  188.6490  173.9070  141.1010 C   0  0  0  0  0  2  0  0  0  0  0  0
  193.0820  172.4680  143.0690 C   0  0  0  0  0  3  0  0  0  0  0  0
  189.8730  176.7300  144.9510 C   0  0  0  0  0  2  0  0  0  0  0  0
  188.7070  175.9970  144.3130 C   0  0  1  0  0  3  0  0  0  0  0  0
  192.6220  173.7040  145.8370 O   0  0  0  0  0  0  0  0  0  0  0  0
  191.4380  175.0370  144.2700 C   0  0  1  0  0  3  0  0  0  0  0  0
  188.0950  174.5350  142.3580 C   0  0  0  0  0  2  0  0  0  0  0  0
  193.9220  174.8040  142.6550 C   0  0  1  0  0  3  0  0  0  0  0  0
  195.5490  176.9480  144.9990 C   0  0  0  0  0  1  0  0  0  0  0  0
  194.1510  176.0650  143.2700 O   0  0  0  0  0  0  0  0  0  0  0  0
  195.4850  176.1390  143.7200 C   0  0  1  0  0  3  0  0  0  0  0  0
  195.7530  176.7900  141.2630 C   0  0  0  0  0  2  0  0  0  0  0  0
  195.4770  175.3980  140.6790 C   0  0  0  0  0  2  0  0  0  0  0  0
  195.0480  174.3390  141.7000 C   0  0  0  0  0  2  0  0  0  0  0  0
  196.3920  176.7770  142.6580 C   0  0  0  0  0  2  0  0  0  0  0  0
  185.5260  178.0990  144.3520 C   0  0  0  0  0  0  0  0  0  0  0  0
  185.6880  178.8470  143.1820 C   0  0  0  0  0  3  0  0  0  0  0  0
  187.6440  176.9880  143.9340 C   0  0  0  0  0  0  0  0  0  0  0  0
  186.8240  178.6670  142.3880 C   0  0  0  0  0  3  0  0  0  0  0  0
  186.5010  177.1700  144.7280 C   0  0  0  0  0  3  0  0  0  0  0  0
  187.7990  177.7380  142.7630 C   0  0  0  0  0  3  0  0  0  0  0  0
  184.3970  178.2780  145.1400 O   0  0  0  0  0  1  0  0  0  0  0  0
  1 11  1  6  0  0  0
  1  8  1  0  0  0  0
  2 14  2  0  0  0  0
  3 18  1  0  0  0  0
  4 10  1  0  0  0  0
  5  6  1  0  0  0  0
  6  2  1  0  0  0  0
  7 17  2  0  0  0  0
  8  2  1  0  0  0  0
  8  3  1  0  0  0  0
  9  7  1  0  0  0  0
 11  5  1  0  0  0  0
 12  3  1  0  0  0  0
 12 16  1  0  0  0  0
 13  1  1  0  0  0  0
 13 19  1  0  0  0  0
 14  9  1  0  0  0  0
 15  4  1  0  0  0  0
 16 15  1  0  0  0  0
 18  7  1  0  0  0  0
 18  4  1  0  0  0  0
 19 12  1  0  0  0  0
 20 22  1  0  0  0  0
 20  9  1  0  0  0  0
 22 23  1  0  0  0  0
 23 21  1  0  0  0  0
 24 27  1  0  0  0  0
 25 24  1  0  0  0  0
 25 26  1  0  0  0  0
 26 20  1  0  0  0  0
 27 23  1  0  0  0  0
 28 32  1  0  0  0  0
 28 34  1  0  0  0  0
 29 28  2  0  0  0  0
 30 16  1  0  0  0  0
 30 32  2  0  0  0  0
 31 33  2  0  0  0  0
 31 29  1  0  0  0  0
 33 30  1  0  0  0  0
M  END
>  <MODEL>
6

>  <REMARK>
 VINA RESULT:      -7.7      1.370      1.576
  Name = 
  2 active torsions:
  status: ('A' for Active; 'I' for Inactive)
    1  A    between atoms: C_3  and  C_17
    2  A    between atoms: C_12  and  C_28
                            x       y       z     vdW  Elec       q    Type
                         _______ _______ _______ _____ _____    ______ ____

>  <TORSDO>
F 2

$$$$
=
 OpenBabel11052418483D

 34 39  0  0  1  0  0  0  0  0999 V2000
  193.4770  176.3900  144.2700 C   0  0  2  0  0  3  0  0  0  0  0  0
  194.1140  174.6780  142.5320 C   0  0  0  0  0  0  0  0  0  0  0  0
  191.5660  175.3820  142.9470 C   0  0  2  0  0  3  0  0  0  0  0  0
  189.4950  174.4470  141.8690 N   0  0  0  0  0  0  0  0  0  0  0  0
  195.7600  176.4180  143.5120 C   0  0  0  0  0  2  0  0  0  0  0  0
  195.5060  175.2810  142.5260 C   0  0  0  0  0  2  0  0  0  0  0  0
  191.6830  173.5140  141.2570 C   0  0  0  0  0  0  0  0  0  0  0  0
  193.0110  175.1240  143.5200 C   0  0  2  0  0  3  0  0  0  0  0  0
  192.8590  172.6780  141.6170 C   0  0  1  0  0  3  0  0  0  0  0  0
  188.8470  173.2120  141.4440 C   0  0  0  0  0  1  0  0  0  0  0  0
  194.9030  176.2810  144.7490 C   0  0  0  0  0  2  0  0  0  0  0  0
  190.6450  175.9220  144.0750 C   0  0  2  0  0  3  0  0  0  0  0  0
  192.5480  176.7700  145.3970 C   0  0  0  0  0  2  0  0  0  0  0  0
  194.0350  173.5840  141.7600 C   0  0  0  0  0  3  0  0  0  0  0  0
  188.6750  174.9170  142.9780 C   0  0  0  0  0  2  0  0  0  0  0  0
  189.2350  176.2030  143.5550 C   0  0  1  0  0  3  0  0  0  0  0  0
  191.4770  173.7910  140.0840 O   0  0  0  0  0  0  0  0  0  0  0  0
  190.8590  174.1330  142.3500 C   0  0  1  0  0  3  0  0  0  0  0  0
  191.2270  177.1480  144.7690 C   0  0  0  0  0  2  0  0  0  0  0  0
  192.6380  171.8080  142.8680 C   0  0  1  0  0  3  0  0  0  0  0  0
  191.2530  169.0660  141.0520 C   0  0  0  0  0  1  0  0  0  0  0  0
  191.6500  170.8120  142.6380 O   0  0  0  0  0  0  0  0  0  0  0  0
  192.2390  169.6940  142.0140 C   0  0  1  0  0  3  0  0  0  0  0  0
  192.7710  169.2300  144.4710 C   0  0  0  0  0  2  0  0  0  0  0  0
  193.8150  170.3420  144.6390 C   0  0  0  0  0  2  0  0  0  0  0  0
  193.9750  171.2710  143.4310 C   0  0  0  0  0  2  0  0  0  0  0  0
  192.6840  168.6530  143.0520 C   0  0  0  0  0  2  0  0  0  0  0  0
  186.6580  178.2910  145.4380 C   0  0  0  0  0  0  0  0  0  0  0  0
  186.6130  177.6160  146.6610 C   0  0  0  0  0  3  0  0  0  0  0  0
  188.3140  176.7100  144.6280 C   0  0  0  0  0  0  0  0  0  0  0  0
  187.4160  176.4920  146.8700 C   0  0  0  0  0  3  0  0  0  0  0  0
  187.5070  177.8400  144.4230 C   0  0  0  0  0  3  0  0  0  0  0  0
  188.2660  176.0410  145.8560 C   0  0  0  0  0  3  0  0  0  0  0  0
  185.8600  179.4080  145.2310 O   0  0  0  0  0  1  0  0  0  0  0  0
  1 11  1  1  0  0  0
  1 13  1  0  0  0  0
  2  8  1  0  0  0  0
  3  8  1  0  0  0  0
  3 12  1  0  0  0  0
  4 18  1  0  0  0  0
  4 15  1  0  0  0  0
  5 11  1  0  0  0  0
  6  2  1  0  0  0  0
  6  5  1  0  0  0  0
  7  9  1  0  0  0  0
  7 18  1  0  0  0  0
  8  1  1  0  0  0  0
  9 14  1  0  0  0  0
  9 20  1  0  0  0  0
 10  4  1  0  0  0  0
 12 19  1  0  0  0  0
 14  2  2  0  0  0  0
 15 16  1  0  0  0  0
 16 12  1  0  0  0  0
 16 30  1  0  0  0  0
 17  7  2  0  0  0  0
 18  3  1  0  0  0  0
 19 13  1  0  0  0  0
 20 26  1  0  0  0  0
 21 23  1  0  0  0  0
 22 20  1  0  0  0  0
 23 22  1  0  0  0  0
 23 27  1  0  0  0  0
 24 25  1  0  0  0  0
 26 25  1  0  0  0  0
 27 24  1  0  0  0  0
 28 29  1  0  0  0  0
 29 31  2  0  0  0  0
 30 33  2  0  0  0  0
 32 30  1  0  0  0  0
 32 28  2  0  0  0  0
 33 31  1  0  0  0  0
 34 28  1  0  0  0  0
M  END
>  <MODEL>
7

>  <REMARK>
 VINA RESULT:      -7.6      2.443      5.451
  Name = 
  2 active torsions:
  status: ('A' for Active; 'I' for Inactive)
    1  A    between atoms: C_3  and  C_17
    2  A    between atoms: C_12  and  C_28
                            x       y       z     vdW  Elec       q    Type
                         _______ _______ _______ _____ _____    ______ ____

>  <TORSDO>
F 2

$$$$
=
 OpenBabel11052418483D

 34 39  0  0  1  0  0  0  0  0999 V2000
  188.2330  175.0640  141.5180 C   0  0  2  0  0  3  0  0  0  0  0  0
  189.6490  176.8980  142.5130 C   0  0  0  0  0  0  0  0  0  0  0  0
  190.7220  174.6070  141.6420 C   0  0  2  0  0  3  0  0  0  0  0  0
  193.1210  173.8610  141.7710 N   0  0  0  0  0  0  0  0  0  0  0  0
  187.2750  177.2700  141.5500 C   0  0  0  0  0  2  0  0  0  0  0  0
  188.5340  177.8680  142.1720 C   0  0  0  0  0  2  0  0  0  0  0  0
  192.4960  176.0380  142.7190 C   0  0  0  0  0  0  0  0  0  0  0  0
  189.5190  175.3690  142.3160 C   0  0  2  0  0  3  0  0  0  0  0  0
  191.8290  176.8160  143.7980 C   0  0  1  0  0  3  0  0  0  0  0  0
  194.2930  173.8170  142.6370 C   0  0  0  0  0  1  0  0  0  0  0  0
  187.0470  175.8510  142.0160 C   0  0  0  0  0  2  0  0  0  0  0  0
  190.3470  173.1130  141.4400 C   0  0  2  0  0  3  0  0  0  0  0  0
  187.9260  173.5870  141.4590 C   0  0  0  0  0  2  0  0  0  0  0  0
  190.6360  177.4860  143.2040 C   0  0  0  0  0  3  0  0  0  0  0  0
  192.7210  172.4660  141.6400 C   0  0  0  0  0  2  0  0  0  0  0  0
  191.4830  172.3390  140.7720 C   0  0  1  0  0  3  0  0  0  0  0  0
  193.3050  176.5930  141.9890 O   0  0  0  0  0  0  0  0  0  0  0  0
  192.0530  174.6290  142.4470 C   0  0  1  0  0  3  0  0  0  0  0  0
  189.0400  172.9360  140.6750 C   0  0  0  0  0  2  0  0  0  0  0  0
  191.4690  175.9720  145.0340 C   0  0  1  0  0  3  0  0  0  0  0  0
  194.3550  176.9590  146.8870 C   0  0  0  0  0  1  0  0  0  0  0  0
  192.6170  175.7020  145.8280 O   0  0  0  0  0  0  0  0  0  0  0  0
  192.8630  176.7890  146.6920 C   0  0  1  0  0  3  0  0  0  0  0  0
  191.0970  175.4960  148.0120 C   0  0  0  0  0  2  0  0  0  0  0  0
  189.9140  175.8210  147.0910 C   0  0  0  0  0  2  0  0  0  0  0  0
  190.2770  176.5800  145.8100 C   0  0  0  0  0  2  0  0  0  0  0  0
  192.1830  176.5780  148.0530 C   0  0  0  0  0  2  0  0  0  0  0  0
  190.5920  169.0030  139.1530 C   0  0  0  0  0  0  0  0  0  0  0  0
  190.5550  168.1660  140.2720 C   0  0  0  0  0  3  0  0  0  0  0  0
  191.1570  170.8850  140.5790 C   0  0  0  0  0  0  0  0  0  0  0  0
  190.8160  168.6860  141.5430 C   0  0  0  0  0  3  0  0  0  0  0  0
  190.8920  170.3600  139.3050 C   0  0  0  0  0  3  0  0  0  0  0  0
  191.1160  170.0430  141.6960 C   0  0  0  0  0  3  0  0  0  0  0  0
  190.3310  168.4870  137.8910 O   0  0  0  0  0  1  0  0  0  0  0  0
  1 13  1  1  0  0  0
  1 11  1  0  0  0  0
  1  8  1  0  0  0  0
  2 14  2  0  0  0  0
  3  8  1  0  0  0  0
  3 18  1  0  0  0  0
  4 18  1  0  0  0  0
  4 10  1  0  0  0  0
  5 11  1  0  0  0  0
  5  6  1  0  0  0  0
  6  2  1  0  0  0  0
  7  9  1  0  0  0  0
  8  2  1  0  0  0  0
  9 20  1  0  0  0  0
 12  3  1  0  0  0  0
 14  9  1  0  0  0  0
 15  4  1  0  0  0  0
 16 12  1  0  0  0  0
 16 15  1  0  0  0  0
 17  7  2  0  0  0  0
 18  7  1  0  0  0  0
 19 12  1  0  0  0  0
 19 13  1  0  0  0  0
 20 26  1  0  0  0  0
 20 22  1  0  0  0  0
 22 23  1  0  0  0  0
 23 21  1  0  0  0  0
 23 27  1  0  0  0  0
 24 27  1  0  0  0  0
 25 24  1  0  0  0  0
 26 25  1  0  0  0  0
 28 32  2  0  0  0  0
 28 29  1  0  0  0  0
 29 31  2  0  0  0  0
 30 16  1  0  0  0  0
 30 33  2  0  0  0  0
 31 33  1  0  0  0  0
 32 30  1  0  0  0  0
 34 28  1  0  0  0  0
M  END
>  <MODEL>
8

>  <REMARK>
 VINA RESULT:      -7.4      2.717      6.312
  Name = 
  2 active torsions:
  status: ('A' for Active; 'I' for Inactive)
    1  A    between atoms: C_3  and  C_17
    2  A    between atoms: C_12  and  C_28
                            x       y       z     vdW  Elec       q    Type
                         _______ _______ _______ _____ _____    ______ ____

>  <TORSDO>
F 2

$$$$
=
 OpenBabel11052418483D

 34 39  0  0  1  0  0  0  0  0999 V2000
  190.1220  172.7490  141.6990 C   0  0  2  0  0  3  0  0  0  0  0  0
  192.4930  171.9920  142.1000 C   0  0  0  0  0  0  0  0  0  0  0  0
  191.1950  173.5420  143.8530 C   0  0  2  0  0  3  0  0  0  0  0  0
  192.0690  174.5610  145.9800 N   0  0  0  0  0  0  0  0  0  0  0  0
  190.8640  170.8200  140.4660 C   0  0  0  0  0  2  0  0  0  0  0  0
  192.2350  170.8500  141.1360 C   0  0  0  0  0  2  0  0  0  0  0  0
  193.5820  173.2110  144.5950 C   0  0  0  0  0  0  0  0  0  0  0  0
  191.4670  173.1200  142.3590 C   0  0  2  0  0  3  0  0  0  0  0  0
  194.4030  173.0750  143.3610 C   0  0  1  0  0  3  0  0  0  0  0  0
  193.2140  175.2400  146.5730 C   0  0  0  0  0  1  0  0  0  0  0  0
  190.2980  172.2120  140.3000 C   0  0  0  0  0  2  0  0  0  0  0  0
  190.0620  174.6040  143.8970 C   0  0  2  0  0  3  0  0  0  0  0  0
  189.1300  173.8860  141.7290 C   0  0  0  0  0  2  0  0  0  0  0  0
  193.7710  172.0300  142.5060 C   0  0  0  0  0  3  0  0  0  0  0  0
  191.0260  175.5780  145.9510 C   0  0  0  0  0  2  0  0  0  0  0  0
  189.7540  175.0290  145.3330 C   0  0  1  0  0  3  0  0  0  0  0  0
  193.7880  172.4640  145.5410 O   0  0  0  0  0  0  0  0  0  0  0  0
  192.4130  174.1540  144.5990 C   0  0  1  0  0  3  0  0  0  0  0  0
  188.7990  174.1430  143.1800 C   0  0  0  0  0  2  0  0  0  0  0  0
  194.6060  174.4010  142.6070 C   0  0  1  0  0  3  0  0  0  0  0  0
  197.9120  174.9190  143.8490 C   0  0  0  0  0  1  0  0  0  0  0  0
  195.6220  175.1910  143.2120 O   0  0  0  0  0  0  0  0  0  0  0  0
  196.8860  174.7780  142.7440 C   0  0  1  0  0  3  0  0  0  0  0  0
  196.1550  176.3570  140.8710 C   0  0  0  0  0  2  0  0  0  0  0  0
  195.0620  175.4490  140.2910 C   0  0  0  0  0  2  0  0  0  0  0  0
  194.7890  174.1700  141.0890 C   0  0  0  0  0  2  0  0  0  0  0  0
  197.3210  175.6050  141.5260 C   0  0  0  0  0  2  0  0  0  0  0  0
  186.8010  177.1140  146.5490 C   0  0  0  0  0  0  0  0  0  0  0  0
  186.6750  178.0320  145.5020 C   0  0  0  0  0  3  0  0  0  0  0  0
  188.6740  176.0700  145.4080 C   0  0  0  0  0  0  0  0  0  0  0  0
  187.5450  177.9700  144.4090 C   0  0  0  0  0  3  0  0  0  0  0  0
  187.7980  176.1340  146.5030 C   0  0  0  0  0  3  0  0  0  0  0  0
  188.5410  176.9900  144.3630 C   0  0  0  0  0  3  0  0  0  0  0  0
  185.9370  177.1750  147.6340 O   0  0  0  0  0  1  0  0  0  0  0  0
  1 11  1  6  0  0  0
  1 13  1  0  0  0  0
  1  8  1  0  0  0  0
  2  8  1  0  0  0  0
  2 14  2  0  0  0  0
  3 12  1  0  0  0  0
  3 18  1  0  0  0  0
  4 10  1  0  0  0  0
  5  6  1  0  0  0  0
  6  2  1  0  0  0  0
  7 18  1  0  0  0  0
  7 17  2  0  0  0  0
  8  3  1  0  0  0  0
  9  7  1  0  0  0  0
 11  5  1  0  0  0  0
 12 16  1  0  0  0  0
 13 19  1  0  0  0  0
 14  9  1  0  0  0  0
 15  4  1  0  0  0  0
 16 30  1  0  0  0  0
 16 15  1  0  0  0  0
 18  4  1  0  0  0  0
 19 12  1  0  0  0  0
 20 22  1  0  0  0  0
 20  9  1  0  0  0  0
 23 22  1  0  0  0  0
 23 21  1  0  0  0  0
 24 27  1  0  0  0  0
 25 24  1  0  0  0  0
 25 26  1  0  0  0  0
 26 20  1  0  0  0  0
 27 23  1  0  0  0  0
 28 34  1  0  0  0  0
 29 28  2  0  0  0  0
 30 32  2  0  0  0  0
 31 29  1  0  0  0  0
 32 28  1  0  0  0  0
 33 31  2  0  0  0  0
 33 30  1  0  0  0  0
M  END
>  <MODEL>
9

>  <REMARK>
 VINA RESULT:      -7.4      2.409      3.079
  Name = 
  2 active torsions:
  status: ('A' for Active; 'I' for Inactive)
    1  A    between atoms: C_3  and  C_17
    2  A    between atoms: C_12  and  C_28
                            x       y       z     vdW  Elec       q    Type
                         _______ _______ _______ _____ _____    ______ ____

>  <TORSDO>
F 2

$$$$
