=
 OpenBabel11052419133D

 32 37  0  0  1  0  0  0  0  0999 V2000
  189.4480  174.6820  142.9320 N   0  0  1  0  0  0  0  0  0  0  0  0
  191.7910  174.1760  143.0960 C   0  0  1  0  0  3  0  0  0  0  0  0
  188.3150  174.5070  142.0090 C   0  0  0  0  0  2  0  0  0  0  0  0
  190.5520  173.9250  142.3140 C   0  0  1  0  0  3  0  0  0  0  0  0
  192.6710  173.0330  143.5150 C   0  0  2  0  0  3  0  0  0  0  0  0
  195.0580  176.6210  144.2860 S   0  0  0  0  0  0  0  0  0  0  0  0
  192.3600  176.2600  143.5620 C   0  0  2  0  0  3  0  0  0  0  0  0
  194.7570  174.7840  146.0210 C   0  0  0  0  0  2  0  0  0  0  0  0
  193.5690  174.6410  145.1960 N   0  0  2  0  0  0  0  0  0  0  0  0
  190.2570  172.4240  142.2990 C   0  0  2  0  0  3  0  0  0  0  0  0
  193.9270  173.6450  144.1560 C   0  0  0  0  0  2  0  0  0  0  0  0
  191.4740  171.6350  141.7560 C   0  0  0  0  0  2  0  0  0  0  0  0
  189.0120  172.1660  141.4640 C   0  0  0  0  0  2  0  0  0  0  0  0
  190.9140  176.4650  144.1060 C   0  0  0  0  0  2  0  0  0  0  0  0
  189.7460  176.1440  143.1010 C   0  0  2  0  0  3  0  0  0  0  0  0
  192.4560  175.2800  142.5630 O   0  0  0  0  0  0  0  0  0  0  0  0
  192.8560  172.0990  142.3070 C   0  0  2  0  0  3  0  0  0  0  0  0
  187.8640  173.0450  141.9650 C   0  0  0  0  0  2  0  0  0  0  0  0
  195.7910  175.4080  145.2880 O   0  0  0  0  0  0  0  0  0  0  0  0
  193.4100  176.0100  144.6940 C   0  0  1  0  0  3  0  0  0  0  0  0
  186.6460  178.5540  143.4830 C   0  0  0  0  0  0  0  0  0  0  0  0
  185.9680  179.4460  142.9000 O   0  0  0  0  0  0  0  0  0  0  0  0
  188.5280  176.8570  143.6370 C   0  0  0  0  0  0  0  0  0  0  0  0
  186.1740  178.0520  144.7760 C   0  0  0  0  0  3  0  0  0  0  0  0
  188.0190  176.4600  144.8150 C   0  0  0  0  0  3  0  0  0  0  0  0
  187.9170  178.0160  142.8600 C   0  0  1  0  0  3  0  0  0  0  0  0
  187.6770  177.6210  141.4120 C   0  0  0  0  0  1  0  0  0  0  0  0
  186.8250  177.0680  145.4130 C   0  0  0  0  0  0  0  0  0  0  0  0
  186.0680  177.3860  147.7470 C   0  0  0  0  0  1  0  0  0  0  0  0
  186.3740  176.5660  146.6310 O   0  0  0  0  0  0  0  0  0  0  0  0
  193.6820  170.8760  142.6830 C   0  0  0  0  0  2  0  0  0  0  0  0
  193.0600  170.1800  143.7310 O   0  0  0  0  0  1  0  0  0  0  0  0
  1  3  1  6  0  0  0
  1 15  1  0  0  0  0
  2 16  1  6  0  0  0
  2  5  1  0  0  0  0
  4  1  1  0  0  0  0
  4  2  1  0  0  0  0
  5 11  1  0  0  0  0
  6 20  1  0  0  0  0
  6 19  1  0  0  0  0
  7 14  1  0  0  0  0
  7 20  1  0  0  0  0
  9  8  1  0  0  0  0
 10  4  1  0  0  0  0
 11  9  1  0  0  0  0
 12 10  1  0  0  0  0
 12 17  1  0  0  0  0
 13 18  1  0  0  0  0
 13 10  1  0  0  0  0
 15 23  1  0  0  0  0
 15 14  1  0  0  0  0
 16  7  1  0  0  0  0
 17 31  1  0  0  0  0
 17  5  1  0  0  0  0
 18  3  1  0  0  0  0
 19  8  1  0  0  0  0
 20  9  1  0  0  0  0
 21 24  1  0  0  0  0
 22 21  2  0  0  0  0
 23 25  2  0  0  0  0
 24 28  2  0  0  0  0
 25 28  1  0  0  0  0
 26 21  1  0  0  0  0
 26 23  1  0  0  0  0
 27 26  1  0  0  0  0
 28 30  1  0  0  0  0
 30 29  1  0  0  0  0
 31 32  1  0  0  0  0
M  END
>  <MODEL>
1

>  <REMARK>
 VINA RESULT:      -6.9      0.000      0.000
  Name = 
  3 active torsions:
  status: ('A' for Active; 'I' for Inactive)
    1  A    between atoms: C_13  and  C_29
    2  A    between atoms: O_15  and  C_26
    3  A    between atoms: C_16  and  C_27
                            x       y       z     vdW  Elec       q    Type
                         _______ _______ _______ _____ _____    ______ ____

>  <TORSDO>
F 3

$$$$
=
 OpenBabel11052419133D

 32 37  0  0  1  0  0  0  0  0999 V2000
  193.6040  175.3600  144.2850 N   0  0  1  0  0  0  0  0  0  0  0  0
  191.2110  175.2110  144.1330 C   0  0  1  0  0  3  0  0  0  0  0  0
  194.6510  176.2540  144.8060 C   0  0  0  0  0  2  0  0  0  0  0  0
  192.3400  175.9590  144.7480 C   0  0  1  0  0  3  0  0  0  0  0  0
  190.0540  174.7520  144.9740 C   0  0  2  0  0  3  0  0  0  0  0  0
  188.7190  174.2000  140.8420 S   0  0  0  0  0  0  0  0  0  0  0  0
  191.2230  174.8580  141.9520 C   0  0  2  0  0  3  0  0  0  0  0  0
  188.5090  172.3710  142.5990 C   0  0  0  0  0  2  0  0  0  0  0  0
  189.6170  173.1680  143.0990 N   0  0  2  0  0  0  0  0  0  0  0  0
  192.2190  175.8950  146.2720 C   0  0  2  0  0  3  0  0  0  0  0  0
  189.0080  174.1630  144.0140 C   0  0  0  0  0  2  0  0  0  0  0  0
  190.8360  176.4190  146.7320 C   0  0  0  0  0  2  0  0  0  0  0  0
  193.3520  176.6940  146.8980 C   0  0  0  0  0  2  0  0  0  0  0  0
  192.6680  174.3000  142.1150 C   0  0  0  0  0  2  0  0  0  0  0  0
  193.7110  175.2690  142.7900 C   0  0  2  0  0  3  0  0  0  0  0  0
  190.8700  175.8100  142.9200 O   0  0  0  0  0  0  0  0  0  0  0  0
  189.6290  175.9150  145.8860 C   0  0  2  0  0  3  0  0  0  0  0  0
  194.6910  176.2180  146.3360 C   0  0  0  0  0  2  0  0  0  0  0  0
  187.6830  173.1520  141.7590 O   0  0  0  0  0  0  0  0  0  0  0  0
  190.1410  173.7340  141.8500 C   0  0  1  0  0  3  0  0  0  0  0  0
  197.1850  174.7530  140.9930 C   0  0  0  0  0  0  0  0  0  0  0  0
  197.9410  175.2000  140.0850 O   0  0  0  0  0  0  0  0  0  0  0  0
  195.0740  174.7470  142.4040 C   0  0  0  0  0  0  0  0  0  0  0  0
  197.6880  173.6830  141.8580 C   0  0  0  0  0  3  0  0  0  0  0  0
  195.6200  173.7690  143.1440 C   0  0  0  0  0  3  0  0  0  0  0  0
  195.7900  175.3110  141.1830 C   0  0  1  0  0  3  0  0  0  0  0  0
  195.8240  176.8300  141.2370 C   0  0  0  0  0  1  0  0  0  0  0  0
  196.9480  173.2100  142.8700 C   0  0  0  0  0  0  0  0  0  0  0  0
  197.0150  172.0680  145.0650 C   0  0  0  0  0  1  0  0  0  0  0  0
  197.4250  172.2090  143.7150 O   0  0  0  0  0  0  0  0  0  0  0  0
  188.5030  175.4930  146.8200 C   0  0  0  0  0  2  0  0  0  0  0  0
  188.9350  174.4510  147.6530 O   0  0  0  0  0  1  0  0  0  0  0  0
  1  4  1  0  0  0  0
  1  3  1  6  0  0  0
  2 16  1  6  0  0  0
  2  4  1  0  0  0  0
  2  5  1  0  0  0  0
  3 18  1  0  0  0  0
  4 10  1  0  0  0  0
  5 17  1  0  0  0  0
  6 19  1  0  0  0  0
  6 20  1  0  0  0  0
  7 14  1  0  0  0  0
  7 16  1  0  0  0  0
  8  9  1  0  0  0  0
  9 11  1  0  0  0  0
 10 12  1  0  0  0  0
 10 13  1  0  0  0  0
 11  5  1  0  0  0  0
 14 15  1  0  0  0  0
 15  1  1  0  0  0  0
 17 12  1  0  0  0  0
 17 31  1  0  0  0  0
 18 13  1  0  0  0  0
 19  8  1  0  0  0  0
 20  7  1  0  0  0  0
 20  9  1  0  0  0  0
 21 26  1  0  0  0  0
 21 24  1  0  0  0  0
 22 21  2  0  0  0  0
 23 15  1  0  0  0  0
 23 25  2  0  0  0  0
 24 28  2  0  0  0  0
 26 27  1  0  0  0  0
 26 23  1  0  0  0  0
 28 25  1  0  0  0  0
 28 30  1  0  0  0  0
 30 29  1  0  0  0  0
 31 32  1  0  0  0  0
M  END
>  <MODEL>
2

>  <REMARK>
 VINA RESULT:      -6.8      3.104      7.761
  Name = 
  3 active torsions:
  status: ('A' for Active; 'I' for Inactive)
    1  A    between atoms: C_13  and  C_29
    2  A    between atoms: O_15  and  C_26
    3  A    between atoms: C_16  and  C_27
                            x       y       z     vdW  Elec       q    Type
                         _______ _______ _______ _____ _____    ______ ____

>  <TORSDO>
F 3

$$$$
=
 OpenBabel11052419133D

 32 37  0  0  1  0  0  0  0  0999 V2000
  192.4270  174.8780  145.1760 N   0  0  1  0  0  0  0  0  0  0  0  0
  193.5010  172.9260  144.2770 C   0  0  1  0  0  3  0  0  0  0  0  0
  192.4570  175.7370  146.3710 C   0  0  0  0  0  2  0  0  0  0  0  0
  193.5490  173.9420  145.3620 C   0  0  1  0  0  3  0  0  0  0  0  0
  194.7410  172.5760  143.5060 C   0  0  2  0  0  3  0  0  0  0  0  0
  191.8420  169.4810  142.4220 S   0  0  0  0  0  0  0  0  0  0  0  0
  191.5950  171.8830  143.8710 C   0  0  2  0  0  3  0  0  0  0  0  0
  193.1860  170.7610  140.6810 C   0  0  0  0  0  2  0  0  0  0  0  0
  193.1540  171.6860  141.8020 N   0  0  2  0  0  0  0  0  0  0  0  0
  194.8950  174.6690  145.3160 C   0  0  2  0  0  3  0  0  0  0  0  0
  194.3810  171.3990  142.5860 C   0  0  0  0  0  2  0  0  0  0  0  0
  196.0650  173.6570  145.3940 C   0  0  0  0  0  2  0  0  0  0  0  0
  194.9570  175.6780  146.4520 C   0  0  0  0  0  2  0  0  0  0  0  0
  190.9170  173.2840  143.8020 C   0  0  0  0  0  2  0  0  0  0  0  0
  191.0910  174.1990  145.0720 C   0  0  2  0  0  3  0  0  0  0  0  0
  192.7290  171.8420  144.6960 O   0  0  0  0  0  0  0  0  0  0  0  0
  195.8940  172.3870  144.5070 C   0  0  2  0  0  3  0  0  0  0  0  0
  193.7290  176.5880  146.4020 C   0  0  0  0  0  2  0  0  0  0  0  0
  193.0040  169.4350  141.1330 O   0  0  0  0  0  0  0  0  0  0  0  0
  191.9070  171.2830  142.4610 C   0  0  1  0  0  3  0  0  0  0  0  0
  187.8680  176.3470  145.8190 C   0  0  0  0  0  0  0  0  0  0  0  0
  186.9070  176.5010  146.6240 O   0  0  0  0  0  0  0  0  0  0  0  0
  189.9940  175.2330  144.9920 C   0  0  0  0  0  0  0  0  0  0  0  0
  188.0340  177.3210  144.7360 C   0  0  0  0  0  3  0  0  0  0  0  0
  190.0660  176.1730  144.0350 C   0  0  0  0  0  3  0  0  0  0  0  0
  188.8260  175.1840  145.9680 C   0  0  1  0  0  3  0  0  0  0  0  0
  189.3280  175.0860  147.4000 C   0  0  0  0  0  1  0  0  0  0  0  0
  189.0670  177.2370  143.8860 C   0  0  0  0  0  0  0  0  0  0  0  0
  188.4360  178.2260  141.7090 C   0  0  0  0  0  1  0  0  0  0  0  0
  189.2500  178.1700  142.8680 O   0  0  0  0  0  0  0  0  0  0  0  0
  197.2030  172.1000  143.7850 C   0  0  0  0  0  2  0  0  0  0  0  0
  197.9400  171.1380  144.4910 O   0  0  0  0  0  1  0  0  0  0  0  0
  1  4  1  0  0  0  0
  1  3  1  1  0  0  0
  2 16  1  1  0  0  0
  2  4  1  0  0  0  0
  3 18  1  0  0  0  0
  5  2  1  0  0  0  0
  5 17  1  0  0  0  0
  6 20  1  0  0  0  0
  7 16  1  0  0  0  0
  8 19  1  0  0  0  0
  8  9  1  0  0  0  0
  9 20  1  0  0  0  0
  9 11  1  0  0  0  0
 10  4  1  0  0  0  0
 10 12  1  0  0  0  0
 10 13  1  0  0  0  0
 11  5  1  0  0  0  0
 14  7  1  0  0  0  0
 14 15  1  0  0  0  0
 15  1  1  0  0  0  0
 17 12  1  0  0  0  0
 18 13  1  0  0  0  0
 19  6  1  0  0  0  0
 20  7  1  0  0  0  0
 21 26  1  0  0  0  0
 21 22  2  0  0  0  0
 23 15  1  0  0  0  0
 23 26  1  0  0  0  0
 24 21  1  0  0  0  0
 25 23  2  0  0  0  0
 26 27  1  0  0  0  0
 28 25  1  0  0  0  0
 28 24  2  0  0  0  0
 29 30  1  0  0  0  0
 30 28  1  0  0  0  0
 31 32  1  0  0  0  0
 31 17  1  0  0  0  0
M  END
>  <MODEL>
3

>  <REMARK>
 VINA RESULT:      -6.8      2.596      5.074
  Name = 
  3 active torsions:
  status: ('A' for Active; 'I' for Inactive)
    1  A    between atoms: C_13  and  C_29
    2  A    between atoms: O_15  and  C_26
    3  A    between atoms: C_16  and  C_27
                            x       y       z     vdW  Elec       q    Type
                         _______ _______ _______ _____ _____    ______ ____

>  <TORSDO>
F 3

$$$$
=
 OpenBabel11052419133D

 32 37  0  0  1  0  0  0  0  0999 V2000
  192.3180  174.7810  145.0680 N   0  0  1  0  0  0  0  0  0  0  0  0
  190.4440  175.1080  143.6010 C   0  0  1  0  0  3  0  0  0  0  0  0
  193.1730  175.5360  145.9970 C   0  0  0  0  0  2  0  0  0  0  0  0
  191.2680  175.7340  144.6680 C   0  0  1  0  0  3  0  0  0  0  0  0
  188.9440  175.1430  143.6770 C   0  0  2  0  0  3  0  0  0  0  0  0
  189.8230  173.8160  139.6000 S   0  0  0  0  0  0  0  0  0  0  0  0
  191.4580  174.1970  141.8610 C   0  0  2  0  0  3  0  0  0  0  0  0
  188.1640  172.6040  141.1010 C   0  0  0  0  0  2  0  0  0  0  0  0
  189.0460  173.2500  142.0580 N   0  0  2  0  0  0  0  0  0  0  0  0
  190.3700  176.1020  145.8510 C   0  0  2  0  0  3  0  0  0  0  0  0
  188.4140  174.5570  142.3590 C   0  0  0  0  0  2  0  0  0  0  0  0
  189.2040  177.0100  145.3890 C   0  0  0  0  0  2  0  0  0  0  0  0
  191.2090  176.7790  146.9250 C   0  0  0  0  0  2  0  0  0  0  0  0
  192.3440  173.4090  142.8710 C   0  0  0  0  0  2  0  0  0  0  0  0
  193.1400  174.2770  143.9170 C   0  0  2  0  0  3  0  0  0  0  0  0
  190.9880  175.4230  142.3550 O   0  0  0  0  0  0  0  0  0  0  0  0
  188.5140  176.5680  144.0630 C   0  0  2  0  0  3  0  0  0  0  0  0
  192.4090  175.8980  147.2740 C   0  0  0  0  0  2  0  0  0  0  0  0
  188.1900  173.2910  139.8670 O   0  0  0  0  0  0  0  0  0  0  0  0
  190.2860  173.3420  141.2780 C   0  0  1  0  0  3  0  0  0  0  0  0
  196.6990  172.7910  144.7450 C   0  0  0  0  0  0  0  0  0  0  0  0
  197.9410  172.9900  144.6310 O   0  0  0  0  0  0  0  0  0  0  0  0
  194.2540  173.3950  144.4270 C   0  0  0  0  0  0  0  0  0  0  0  0
  196.2460  171.6480  145.5420 C   0  0  0  0  0  3  0  0  0  0  0  0
  193.9340  172.3260  145.1750 C   0  0  0  0  0  3  0  0  0  0  0  0
  195.7010  173.7100  144.0730 C   0  0  1  0  0  3  0  0  0  0  0  0
  196.0230  175.1640  144.3820 C   0  0  0  0  0  1  0  0  0  0  0  0
  194.9400  171.4200  145.7400 C   0  0  0  0  0  0  0  0  0  0  0  0
  195.3210  169.2550  146.8750 C   0  0  0  0  0  1  0  0  0  0  0  0
  194.4960  170.3500  146.5160 O   0  0  0  0  0  0  0  0  0  0  0  0
  187.0040  176.6570  144.2300 C   0  0  0  0  0  2  0  0  0  0  0  0
  186.6890  177.4520  145.3430 O   0  0  0  0  0  1  0  0  0  0  0  0
  1  3  1  1  0  0  0
  2 16  1  6  0  0  0
  2  5  1  0  0  0  0
  2  4  1  0  0  0  0
  3 18  1  0  0  0  0
  4  1  1  0  0  0  0
  4 10  1  0  0  0  0
  5 17  1  0  0  0  0
  6 19  1  0  0  0  0
  6 20  1  0  0  0  0
  7 16  1  0  0  0  0
  7 14  1  0  0  0  0
  8  9  1  0  0  0  0
  9 11  1  0  0  0  0
 10 13  1  0  0  0  0
 11  5  1  0  0  0  0
 12 10  1  0  0  0  0
 13 18  1  0  0  0  0
 14 15  1  0  0  0  0
 15 23  1  0  0  0  0
 15  1  1  0  0  0  0
 17 31  1  0  0  0  0
 17 12  1  0  0  0  0
 19  8  1  0  0  0  0
 20  7  1  0  0  0  0
 20  9  1  0  0  0  0
 21 24  1  0  0  0  0
 22 21  2  0  0  0  0
 23 25  2  0  0  0  0
 24 28  2  0  0  0  0
 25 28  1  0  0  0  0
 26 27  1  0  0  0  0
 26 23  1  0  0  0  0
 26 21  1  0  0  0  0
 28 30  1  0  0  0  0
 30 29  1  0  0  0  0
 31 32  1  0  0  0  0
M  END
>  <MODEL>
4

>  <REMARK>
 VINA RESULT:      -6.6      2.586      7.763
  Name = 
  3 active torsions:
  status: ('A' for Active; 'I' for Inactive)
    1  A    between atoms: C_13  and  C_29
    2  A    between atoms: O_15  and  C_26
    3  A    between atoms: C_16  and  C_27
                            x       y       z     vdW  Elec       q    Type
                         _______ _______ _______ _____ _____    ______ ____

>  <TORSDO>
F 3

$$$$
=
 OpenBabel11052419133D

 32 37  0  0  1  0  0  0  0  0999 V2000
  189.5220  176.4100  145.8230 N   0  0  1  0  0  0  0  0  0  0  0  0
  191.0460  174.7670  144.9540 C   0  0  1  0  0  3  0  0  0  0  0  0
  189.1210  177.0160  147.1020 C   0  0  0  0  0  2  0  0  0  0  0  0
  190.6700  175.5500  146.1620 C   0  0  1  0  0  3  0  0  0  0  0  0
  192.4810  174.6780  144.5210 C   0  0  2  0  0  3  0  0  0  0  0  0
  190.4110  171.6310  142.1580 S   0  0  0  0  0  0  0  0  0  0  0  0
  189.4720  173.6720  143.8560 C   0  0  2  0  0  3  0  0  0  0  0  0
  191.9840  173.3340  141.1090 C   0  0  0  0  0  2  0  0  0  0  0  0
  191.5340  174.0140  142.3130 N   0  0  2  0  0  0  0  0  0  0  0  0
  191.8700  176.3790  146.6220 C   0  0  2  0  0  3  0  0  0  0  0  0
  192.5360  173.6800  143.3540 C   0  0  0  0  0  2  0  0  0  0  0  0
  193.1020  175.4710  146.8600 C   0  0  0  0  0  2  0  0  0  0  0  0
  191.4950  177.1470  147.8800 C   0  0  0  0  0  2  0  0  0  0  0  0
  188.6550  174.9990  143.8310 C   0  0  0  0  0  2  0  0  0  0  0  0
  188.3640  175.6580  145.2310 C   0  0  2  0  0  3  0  0  0  0  0  0
  190.3420  173.5630  144.9510 O   0  0  0  0  0  0  0  0  0  0  0  0
  193.3420  174.3910  145.7630 C   0  0  2  0  0  3  0  0  0  0  0  0
  190.2140  177.9460  147.6350 C   0  0  0  0  0  2  0  0  0  0  0  0
  191.8670  171.9340  141.2640 O   0  0  0  0  0  0  0  0  0  0  0  0
  190.2210  173.3890  142.5130 C   0  0  1  0  0  3  0  0  0  0  0  0
  185.0200  177.6940  145.7130 C   0  0  0  0  0  0  0  0  0  0  0  0
  184.0660  177.9180  146.5100 O   0  0  0  0  0  0  0  0  0  0  0  0
  187.2000  176.5940  145.0170 C   0  0  0  0  0  0  0  0  0  0  0  0
  185.1000  178.4840  144.4810 C   0  0  0  0  0  3  0  0  0  0  0  0
  187.1910  177.3650  143.9170 C   0  0  0  0  0  3  0  0  0  0  0  0
  186.0550  176.6330  146.0210 C   0  0  1  0  0  3  0  0  0  0  0  0
  186.5900  176.8040  147.4340 C   0  0  0  0  0  1  0  0  0  0  0  0
  186.1200  178.3250  143.6260 C   0  0  0  0  0  0  0  0  0  0  0  0
  185.7110  178.6660  141.2100 C   0  0  0  0  0  1  0  0  0  0  0  0
  186.2210  179.0870  142.4640 O   0  0  0  0  0  0  0  0  0  0  0  0
  194.8220  174.3600  145.4060 C   0  0  0  0  0  2  0  0  0  0  0  0
  195.3410  175.6640  145.3920 O   0  0  0  0  0  1  0  0  0  0  0  0
  1  4  1  0  0  0  0
  1  3  1  1  0  0  0
  2 16  1  1  0  0  0
  2  4  1  0  0  0  0
  3 18  1  0  0  0  0
  4 10  1  0  0  0  0
  5  2  1  0  0  0  0
  5 17  1  0  0  0  0
  6 20  1  0  0  0  0
  7 16  1  0  0  0  0
  8 19  1  0  0  0  0
  8  9  1  0  0  0  0
  9 20  1  0  0  0  0
  9 11  1  0  0  0  0
 10 12  1  0  0  0  0
 10 13  1  0  0  0  0
 11  5  1  0  0  0  0
 14  7  1  0  0  0  0
 14 15  1  0  0  0  0
 15  1  1  0  0  0  0
 17 12  1  0  0  0  0
 18 13  1  0  0  0  0
 19  6  1  0  0  0  0
 20  7  1  0  0  0  0
 21 26  1  0  0  0  0
 21 22  2  0  0  0  0
 23 15  1  0  0  0  0
 23 26  1  0  0  0  0
 24 21  1  0  0  0  0
 25 23  2  0  0  0  0
 26 27  1  0  0  0  0
 28 25  1  0  0  0  0
 28 24  2  0  0  0  0
 29 30  1  0  0  0  0
 30 28  1  0  0  0  0
 31 17  1  0  0  0  0
 32 31  1  0  0  0  0
M  END
>  <MODEL>
5

>  <REMARK>
 VINA RESULT:      -6.5      2.409      4.777
  Name = 
  3 active torsions:
  status: ('A' for Active; 'I' for Inactive)
    1  A    between atoms: C_13  and  C_29
    2  A    between atoms: O_15  and  C_26
    3  A    between atoms: C_16  and  C_27
                            x       y       z     vdW  Elec       q    Type
                         _______ _______ _______ _____ _____    ______ ____

>  <TORSDO>
F 3

$$$$
=
 OpenBabel11052419133D

 32 37  0  0  1  0  0  0  0  0999 V2000
  192.5980  173.2850  142.9650 N   0  0  1  0  0  0  0  0  0  0  0  0
  190.4480  174.2890  143.3430 C   0  0  1  0  0  3  0  0  0  0  0  0
  193.2160  172.1860  142.2060 C   0  0  0  0  0  2  0  0  0  0  0  0
  191.1970  173.3100  142.5110 C   0  0  1  0  0  3  0  0  0  0  0  0
  189.5500  175.3060  142.6990 C   0  0  2  0  0  3  0  0  0  0  0  0
  188.5670  175.4880  146.9610 S   0  0  0  0  0  0  0  0  0  0  0  0
  190.6150  174.1720  145.5430 C   0  0  2  0  0  3  0  0  0  0  0  0
  189.0620  177.5710  145.5850 C   0  0  0  0  0  2  0  0  0  0  0  0
  189.7740  176.5330  144.8580 N   0  0  2  0  0  0  0  0  0  0  0  0
  191.0960  173.7160  141.0390 C   0  0  2  0  0  3  0  0  0  0  0  0
  188.8190  176.0420  143.8340 C   0  0  0  0  0  2  0  0  0  0  0  0
  189.6140  173.8520  140.6100 C   0  0  0  0  0  2  0  0  0  0  0  0
  191.8280  172.6900  140.1860 C   0  0  0  0  0  2  0  0  0  0  0  0
  192.1620  174.1660  145.3620 C   0  0  0  0  0  2  0  0  0  0  0  0
  192.7450  173.0310  144.4380 C   0  0  2  0  0  3  0  0  0  0  0  0
  189.9140  173.6350  144.4530 O   0  0  0  0  0  0  0  0  0  0  0  0
  188.7010  174.5940  141.6320 C   0  0  2  0  0  3  0  0  0  0  0  0
  193.2530  172.5060  140.7090 C   0  0  0  0  0  2  0  0  0  0  0  0
  188.0070  177.0080  146.3380 O   0  0  0  0  0  0  0  0  0  0  0  0
  190.0500  175.5760  145.9360 C   0  0  1  0  0  3  0  0  0  0  0  0
  196.2050  171.7070  145.7930 C   0  0  0  0  0  0  0  0  0  0  0  0
  196.7760  170.7310  146.3550 O   0  0  0  0  0  0  0  0  0  0  0  0
  194.2070  172.9140  144.7950 C   0  0  0  0  0  0  0  0  0  0  0  0
  197.0310  172.8230  145.3250 C   0  0  0  0  0  3  0  0  0  0  0  0
  195.0440  173.8880  144.4010 C   0  0  0  0  0  3  0  0  0  0  0  0
  194.7030  171.7250  145.6070 C   0  0  1  0  0  3  0  0  0  0  0  0
  194.2260  170.4200  144.9900 C   0  0  0  0  0  1  0  0  0  0  0  0
  196.4850  173.8600  144.6740 C   0  0  0  0  0  0  0  0  0  0  0  0
  196.7250  176.0310  143.5130 C   0  0  0  0  0  1  0  0  0  0  0  0
  197.2630  174.9160  144.2030 O   0  0  0  0  0  0  0  0  0  0  0  0
  187.8160  175.5840  140.8870 C   0  0  0  0  0  2  0  0  0  0  0  0
  187.8160  175.2910  139.5150 O   0  0  0  0  0  1  0  0  0  0  0  0
  1  3  1  6  0  0  0
  1 15  1  0  0  0  0
  2 16  1  1  0  0  0
  4  1  1  0  0  0  0
  4  2  1  0  0  0  0
  5  2  1  0  0  0  0
  5 11  1  0  0  0  0
  7 20  1  0  0  0  0
  8 19  1  0  0  0  0
  9  8  1  0  0  0  0
  9 20  1  0  0  0  0
 10  4  1  0  0  0  0
 11  9  1  0  0  0  0
 12 10  1  0  0  0  0
 12 17  1  0  0  0  0
 13 18  1  0  0  0  0
 13 10  1  0  0  0  0
 14  7  1  0  0  0  0
 15 23  1  0  0  0  0
 15 14  1  0  0  0  0
 16  7  1  0  0  0  0
 17  5  1  0  0  0  0
 18  3  1  0  0  0  0
 19  6  1  0  0  0  0
 20  6  1  0  0  0  0
 21 22  2  0  0  0  0
 23 26  1  0  0  0  0
 24 21  1  0  0  0  0
 25 28  1  0  0  0  0
 25 23  2  0  0  0  0
 26 21  1  0  0  0  0
 27 26  1  0  0  0  0
 28 24  2  0  0  0  0
 29 30  1  0  0  0  0
 30 28  1  0  0  0  0
 31 17  1  0  0  0  0
 32 31  1  0  0  0  0
M  END
>  <MODEL>
6

>  <REMARK>
 VINA RESULT:      -6.4      2.680      7.299
  Name = 
  3 active torsions:
  status: ('A' for Active; 'I' for Inactive)
    1  A    between atoms: C_13  and  C_29
    2  A    between atoms: O_15  and  C_26
    3  A    between atoms: C_16  and  C_27
                            x       y       z     vdW  Elec       q    Type
                         _______ _______ _______ _____ _____    ______ ____

>  <TORSDO>
F 3

$$$$
=
 OpenBabel11052419133D

 32 37  0  0  1  0  0  0  0  0999 V2000
  189.8690  176.5740  143.3890 N   0  0  1  0  0  0  0  0  0  0  0  0
  191.1870  174.6940  142.6810 C   0  0  1  0  0  3  0  0  0  0  0  0
  189.9110  177.6880  144.3490 C   0  0  0  0  0  2  0  0  0  0  0  0
  191.1910  175.9350  143.5010 C   0  0  1  0  0  3  0  0  0  0  0  0
  192.3180  174.4010  141.7370 C   0  0  2  0  0  3  0  0  0  0  0  0
  190.0670  170.6550  141.9790 S   0  0  0  0  0  0  0  0  0  0  0  0
  189.5330  173.2500  142.9340 C   0  0  2  0  0  3  0  0  0  0  0  0
  190.7470  171.6960  139.7590 C   0  0  0  0  0  2  0  0  0  0  0  0
  190.7020  172.8440  140.6490 N   0  0  2  0  0  0  0  0  0  0  0  0
  192.3020  176.8640  143.0070 C   0  0  2  0  0  3  0  0  0  0  0  0
  192.0810  172.9890  141.1770 C   0  0  0  0  0  2  0  0  0  0  0  0
  193.6690  176.1350  143.0210 C   0  0  0  0  0  2  0  0  0  0  0  0
  192.3310  178.1140  143.8730 C   0  0  0  0  0  2  0  0  0  0  0  0
  188.5480  174.4420  142.7400 C   0  0  0  0  0  2  0  0  0  0  0  0
  188.7290  175.6550  143.7270 C   0  0  2  0  0  3  0  0  0  0  0  0
  190.7740  173.6220  143.4730 O   0  0  0  0  0  0  0  0  0  0  0  0
  193.6410  174.6790  142.4690 C   0  0  2  0  0  3  0  0  0  0  0  0
  190.9370  178.7410  143.9200 C   0  0  0  0  0  2  0  0  0  0  0  0
  190.9600  170.5110  140.4970 O   0  0  0  0  0  0  0  0  0  0  0  0
  189.7190  172.3920  141.6400 C   0  0  1  0  0  3  0  0  0  0  0  0
  185.3230  177.3580  144.7570 C   0  0  0  0  0  0  0  0  0  0  0  0
  184.5470  177.5850  145.7280 O   0  0  0  0  0  0  0  0  0  0  0  0
  187.4270  176.4180  143.6920 C   0  0  0  0  0  0  0  0  0  0  0  0
  185.0190  177.9710  143.4610 C   0  0  0  0  0  3  0  0  0  0  0  0
  187.0680  177.0210  142.5470 C   0  0  0  0  0  3  0  0  0  0  0  0
  186.5390  176.4720  144.9280 C   0  0  1  0  0  3  0  0  0  0  0  0
  187.3440  176.8980  146.1460 C   0  0  0  0  0  1  0  0  0  0  0  0
  185.8360  177.8070  142.4120 C   0  0  0  0  0  0  0  0  0  0  0  0
  184.3250  178.2910  140.5140 C   0  0  0  0  0  1  0  0  0  0  0  0
  185.5700  178.4040  141.1810 O   0  0  0  0  0  0  0  0  0  0  0  0
  194.8320  174.4710  141.5430 C   0  0  0  0  0  2  0  0  0  0  0  0
  195.9330  175.2100  142.0020 O   0  0  0  0  0  1  0  0  0  0  0  0
  1  4  1  0  0  0  0
  1 15  1  0  0  0  0
  1  3  1  1  0  0  0
  2 16  1  1  0  0  0
  2  4  1  0  0  0  0
  5 17  1  0  0  0  0
  5  2  1  0  0  0  0
  7 16  1  0  0  0  0
  8 19  1  0  0  0  0
  8  9  1  0  0  0  0
  9 11  1  0  0  0  0
  9 20  1  0  0  0  0
 10 12  1  0  0  0  0
 10  4  1  0  0  0  0
 10 13  1  0  0  0  0
 11  5  1  0  0  0  0
 13 18  1  0  0  0  0
 14  7  1  0  0  0  0
 14 15  1  0  0  0  0
 17 12  1  0  0  0  0
 18  3  1  0  0  0  0
 19  6  1  0  0  0  0
 20  6  1  0  0  0  0
 20  7  1  0  0  0  0
 21 26  1  0  0  0  0
 21 22  2  0  0  0  0
 23 15  1  0  0  0  0
 23 26  1  0  0  0  0
 24 21  1  0  0  0  0
 25 23  2  0  0  0  0
 26 27  1  0  0  0  0
 28 25  1  0  0  0  0
 28 24  2  0  0  0  0
 29 30  1  0  0  0  0
 30 28  1  0  0  0  0
 31 32  1  0  0  0  0
 31 17  1  0  0  0  0
M  END
>  <MODEL>
7

>  <REMARK>
 VINA RESULT:      -6.4      2.473      4.751
  Name = 
  3 active torsions:
  status: ('A' for Active; 'I' for Inactive)
    1  A    between atoms: C_13  and  C_29
    2  A    between atoms: O_15  and  C_26
    3  A    between atoms: C_16  and  C_27
                            x       y       z     vdW  Elec       q    Type
                         _______ _______ _______ _____ _____    ______ ____

>  <TORSDO>
F 3

$$$$
=
 OpenBabel11052419133D

 32 37  0  0  1  0  0  0  0  0999 V2000
  189.4940  174.7610  143.1470 N   0  0  1  0  0  0  0  0  0  0  0  0
  191.8540  174.3350  142.9830 C   0  0  1  0  0  3  0  0  0  0  0  0
  188.2820  174.7510  142.3140 C   0  0  0  0  0  2  0  0  0  0  0  0
  190.5500  174.2150  142.2770 C   0  0  1  0  0  3  0  0  0  0  0  0
  192.7950  173.1670  143.0460 C   0  0  2  0  0  3  0  0  0  0  0  0
  195.1630  176.5880  144.4090 S   0  0  0  0  0  0  0  0  0  0  0  0
  192.4170  176.2820  143.8640 C   0  0  2  0  0  3  0  0  0  0  0  0
  195.0730  174.3930  145.6940 C   0  0  0  0  0  2  0  0  0  0  0  0
  193.8140  174.3880  144.9670 N   0  0  2  0  0  0  0  0  0  0  0  0
  190.2900  172.7450  141.9420 C   0  0  2  0  0  3  0  0  0  0  0  0
  194.0930  173.6730  143.6980 C   0  0  0  0  0  2  0  0  0  0  0  0
  191.4660  172.1540  141.1260 C   0  0  0  0  0  2  0  0  0  0  0  0
  188.9750  172.6290  141.1840 C   0  0  0  0  0  2  0  0  0  0  0  0
  191.0260  176.2940  144.5670 C   0  0  0  0  0  2  0  0  0  0  0  0
  189.7740  176.1590  143.6220 C   0  0  2  0  0  3  0  0  0  0  0  0
  192.4380  175.5610  142.6610 O   0  0  0  0  0  0  0  0  0  0  0  0
  192.8840  172.5410  141.6450 C   0  0  2  0  0  3  0  0  0  0  0  0
  187.8620  173.3190  141.9740 C   0  0  0  0  0  2  0  0  0  0  0  0
  196.0170  175.2120  145.0350 O   0  0  0  0  0  0  0  0  0  0  0  0
  193.5770  175.8280  144.8100 C   0  0  1  0  0  3  0  0  0  0  0  0
  187.0660  176.7050  146.4390 C   0  0  0  0  0  0  0  0  0  0  0  0
  186.6930  176.3250  147.5850 O   0  0  0  0  0  0  0  0  0  0  0  0
  188.5980  176.6770  144.4140 C   0  0  0  0  0  0  0  0  0  0  0  0
  186.3760  177.8390  145.8200 C   0  0  0  0  0  3  0  0  0  0  0  0
  187.9070  177.7210  143.9280 C   0  0  0  0  0  3  0  0  0  0  0  0
  188.2000  176.0030  145.7210 C   0  0  1  0  0  3  0  0  0  0  0  0
  189.4050  175.8590  146.6370 C   0  0  0  0  0  1  0  0  0  0  0  0
  186.7650  178.3170  144.6300 C   0  0  0  0  0  0  0  0  0  0  0  0
  184.7590  179.7080  144.2270 C   0  0  0  0  0  1  0  0  0  0  0  0
  186.1320  179.4110  144.0420 O   0  0  0  0  0  0  0  0  0  0  0  0
  193.7690  171.3030  141.6540 C   0  0  0  0  0  2  0  0  0  0  0  0
  193.2640  170.3570  142.5580 O   0  0  0  0  0  1  0  0  0  0  0  0
  1  3  1  6  0  0  0
  1 15  1  0  0  0  0
  2 16  1  6  0  0  0
  2  5  1  0  0  0  0
  4  2  1  0  0  0  0
  4  1  1  0  0  0  0
  5 11  1  0  0  0  0
  6 20  1  0  0  0  0
  6 19  1  0  0  0  0
  7 14  1  0  0  0  0
  7 20  1  0  0  0  0
  9  8  1  0  0  0  0
 10  4  1  0  0  0  0
 11  9  1  0  0  0  0
 12 17  1  0  0  0  0
 12 10  1  0  0  0  0
 13 10  1  0  0  0  0
 13 18  1  0  0  0  0
 15 23  1  0  0  0  0
 15 14  1  0  0  0  0
 16  7  1  0  0  0  0
 17 31  1  0  0  0  0
 17  5  1  0  0  0  0
 18  3  1  0  0  0  0
 19  8  1  0  0  0  0
 20  9  1  0  0  0  0
 21 22  2  0  0  0  0
 23 26  1  0  0  0  0
 24 21  1  0  0  0  0
 25 23  2  0  0  0  0
 25 28  1  0  0  0  0
 26 21  1  0  0  0  0
 26 27  1  0  0  0  0
 28 24  2  0  0  0  0
 30 29  1  0  0  0  0
 30 28  1  0  0  0  0
 31 32  1  0  0  0  0
M  END
>  <MODEL>
8

>  <REMARK>
 VINA RESULT:      -6.4      0.892      2.076
  Name = 
  3 active torsions:
  status: ('A' for Active; 'I' for Inactive)
    1  A    between atoms: C_13  and  C_29
    2  A    between atoms: O_15  and  C_26
    3  A    between atoms: C_16  and  C_27
                            x       y       z     vdW  Elec       q    Type
                         _______ _______ _______ _____ _____    ______ ____

>  <TORSDO>
F 3

$$$$
=
 OpenBabel11052419133D

 32 37  0  0  1  0  0  0  0  0999 V2000
  189.6670  176.6360  145.4020 N   0  0  1  0  0  0  0  0  0  0  0  0
  191.3110  175.1300  144.5050 C   0  0  1  0  0  3  0  0  0  0  0  0
  189.0200  176.9740  146.6790 C   0  0  0  0  0  2  0  0  0  0  0  0
  190.7060  175.6540  145.7590 C   0  0  1  0  0  3  0  0  0  0  0  0
  192.8030  175.0490  144.3560 C   0  0  2  0  0  3  0  0  0  0  0  0
  191.2180  172.7190  141.0060 S   0  0  0  0  0  0  0  0  0  0  0  0
  189.9810  174.3980  142.9000 C   0  0  2  0  0  3  0  0  0  0  0  0
  193.0000  174.5100  140.7000 C   0  0  0  0  0  2  0  0  0  0  0  0
  192.3230  174.9390  141.9120 N   0  0  2  0  0  0  0  0  0  0  0  0
  191.7990  176.2890  146.6220 C   0  0  2  0  0  3  0  0  0  0  0  0
  193.0830  174.3260  143.0290 C   0  0  0  0  0  2  0  0  0  0  0  0
  192.9400  175.2770  146.8880 C   0  0  0  0  0  2  0  0  0  0  0  0
  191.1840  176.7870  147.9210 C   0  0  0  0  0  2  0  0  0  0  0  0
  189.2080  175.7460  143.0130 C   0  0  0  0  0  2  0  0  0  0  0  0
  188.6450  176.1020  144.4400 C   0  0  2  0  0  3  0  0  0  0  0  0
  190.6050  174.0000  144.0920 O   0  0  0  0  0  0  0  0  0  0  0  0
  193.3850  174.4480  145.6460 C   0  0  2  0  0  3  0  0  0  0  0  0
  189.9940  177.6970  147.6130 C   0  0  0  0  0  2  0  0  0  0  0  0
  192.8320  173.1200  140.5100 O   0  0  0  0  0  0  0  0  0  0  0  0
  190.9870  174.3670  141.7030 C   0  0  1  0  0  3  0  0  0  0  0  0
  185.9140  178.4050  142.7640 C   0  0  0  0  0  0  0  0  0  0  0  0
  185.3260  178.6670  141.6770 O   0  0  0  0  0  0  0  0  0  0  0  0
  187.5640  177.1320  144.2150 C   0  0  0  0  0  0  0  0  0  0  0  0
  185.4570  179.0750  143.9840 C   0  0  0  0  0  3  0  0  0  0  0  0
  187.0770  177.7930  145.2780 C   0  0  0  0  0  3  0  0  0  0  0  0
  187.0660  177.4220  142.8050 C   0  0  1  0  0  3  0  0  0  0  0  0
  186.6920  176.1310  142.0940 C   0  0  0  0  0  1  0  0  0  0  0  0
  186.0100  178.7940  145.1730 C   0  0  0  0  0  0  0  0  0  0  0  0
  185.9690  178.9910  147.6390 C   0  0  0  0  0  1  0  0  0  0  0  0
  185.5680  179.4070  146.3440 O   0  0  0  0  0  0  0  0  0  0  0  0
  194.9060  174.4040  145.5910 C   0  0  0  0  0  2  0  0  0  0  0  0
  195.4170  175.6940  145.3820 O   0  0  0  0  0  1  0  0  0  0  0  0
  1  4  1  0  0  0  0
  1  3  1  1  0  0  0
  2 16  1  1  0  0  0
  2  4  1  0  0  0  0
  3 18  1  0  0  0  0
  4 10  1  0  0  0  0
  5  2  1  0  0  0  0
  5 17  1  0  0  0  0
  6 20  1  0  0  0  0
  7 14  1  0  0  0  0
  7 16  1  0  0  0  0
  8  9  1  0  0  0  0
  9 11  1  0  0  0  0
 10 12  1  0  0  0  0
 10 13  1  0  0  0  0
 11  5  1  0  0  0  0
 14 15  1  0  0  0  0
 15  1  1  0  0  0  0
 17 12  1  0  0  0  0
 18 13  1  0  0  0  0
 19  8  1  0  0  0  0
 19  6  1  0  0  0  0
 20  9  1  0  0  0  0
 20  7  1  0  0  0  0
 21 26  1  0  0  0  0
 21 24  1  0  0  0  0
 22 21  2  0  0  0  0
 23 15  1  0  0  0  0
 23 25  2  0  0  0  0
 24 28  2  0  0  0  0
 26 23  1  0  0  0  0
 27 26  1  0  0  0  0
 28 25  1  0  0  0  0
 28 30  1  0  0  0  0
 30 29  1  0  0  0  0
 31 17  1  0  0  0  0
 32 31  1  0  0  0  0
M  END
>  <MODEL>
9

>  <REMARK>
 VINA RESULT:      -6.4      2.325      4.103
  Name = 
  3 active torsions:
  status: ('A' for Active; 'I' for Inactive)
    1  A    between atoms: C_13  and  C_29
    2  A    between atoms: O_15  and  C_26
    3  A    between atoms: C_16  and  C_27
                            x       y       z     vdW  Elec       q    Type
                         _______ _______ _______ _____ _____    ______ ____

>  <TORSDO>
F 3

$$$$
