=
 OpenBabel11052418513D

 34 38  0  0  1  0  0  0  0  0999 V2000
  185.1520  178.5020  145.8760 C   0  0  0  0  0  0  0  0  0  0  0  0
  186.0180  178.0860  143.6320 C   0  0  0  0  0  0  0  0  0  0  0  0
  187.3730  177.5560  145.5880 C   0  0  0  0  0  0  0  0  0  0  0  0
  189.3220  176.1080  145.0500 N   0  0  0  0  0  0  0  0  0  0  0  0
  183.8180  179.0580  143.9310 C   0  0  0  0  0  3  0  0  0  0  0  0
  184.8310  178.5840  143.0880 C   0  0  0  0  0  3  0  0  0  0  0  0
  188.1330  177.0530  143.2770 C   0  0  0  0  0  0  0  0  0  0  0  0
  186.1840  178.0560  145.0290 C   0  0  0  0  0  0  0  0  0  0  0  0
  189.8980  175.6170  143.7890 C   0  0  0  0  0  2  0  0  0  0  0  0
  183.9750  179.0120  145.3220 C   0  0  0  0  0  3  0  0  0  0  0  0
  186.5170  177.9230  147.7790 C   0  0  0  0  0  3  0  0  0  0  0  0
  185.3180  178.4260  147.2600 C   0  0  0  0  0  3  0  0  0  0  0  0
  186.9960  177.4560  142.7900 N   0  0  0  0  0  0  0  0  0  0  0  0
  189.0260  176.0790  142.6190 C   0  0  1  0  0  3  0  0  0  0  0  0
  188.5490  177.2860  144.6800 C   0  0  1  0  0  3  0  0  0  0  0  0
  187.5130  177.5180  146.9420 N   0  0  0  0  0  0  0  0  0  0  0  0
  188.2490  174.8760  142.0910 C   0  0  0  0  0  2  0  0  0  0  0  0
  188.6500  174.5640  140.6580 C   0  0  0  0  0  2  0  0  0  0  0  0
  189.8510  173.7500  140.6400 N   0  0  0  0  0  2  0  0  0  0  0  0
  189.4190  172.3650  140.5780 C   0  0  0  0  0  2  0  0  0  0  0  0
  190.3330  171.4910  141.4300 C   0  0  0  0  0  2  0  0  0  0  0  0
  190.5120  172.0280  142.8500 C   0  0  2  0  0  3  0  0  0  0  0  0
  191.5210  171.3310  143.5210 O   0  0  0  0  0  1  0  0  0  0  0  0
  189.6740  172.1720  144.8950 C   0  0  0  0  0  1  0  0  0  0  0  0
  189.3140  171.9380  143.5670 O   0  0  0  0  0  0  0  0  0  0  0  0
  190.4330  176.5670  145.8670 C   0  0  0  0  0  2  0  0  0  0  0  0
  191.0450  175.3910  146.6060 C   0  0  0  0  0  2  0  0  0  0  0  0
  195.3900  174.8890  145.3120 C   0  0  0  0  0  3  0  0  0  0  0  0
  194.4780  173.9680  145.6260 C   0  0  0  0  0  3  0  0  0  0  0  0
  192.5150  175.3620  146.3750 C   0  0  0  0  0  0  0  0  0  0  0  0
  193.0480  174.2330  145.8860 C   0  0  0  0  0  3  0  0  0  0  0  0
  194.4480  176.9490  146.2980 C   0  0  0  0  0  3  0  0  0  0  0  0
  193.2980  176.5320  146.8300 C   0  0  0  0  0  3  0  0  0  0  0  0
  195.0580  176.3260  145.0850 C   0  0  0  0  0  2  0  0  0  0  0  0
  1 12  1  0  0  0  0
  2  8  1  0  0  0  0
  3 16  2  0  0  0  0
  4 26  1  0  0  0  0
  5 10  2  0  0  0  0
  6  2  2  0  0  0  0
  6  5  1  0  0  0  0
  8  3  1  0  0  0  0
  8  1  2  0  0  0  0
  9  4  1  0  0  0  0
 10  1  1  0  0  0  0
 12 11  2  0  0  0  0
 13  7  2  0  0  0  0
 13  2  1  0  0  0  0
 14 17  1  1  0  0  0
 14  7  1  0  0  0  0
 14  9  1  0  0  0  0
 15  7  1  6  0  0  0
 15  4  1  0  0  0  0
 15  3  1  0  0  0  0
 16 11  1  0  0  0  0
 18 17  1  0  0  0  0
 19 18  1  0  0  0  0
 20 19  1  0  0  0  0
 20 21  1  0  0  0  0
 21 22  1  0  0  0  0
 22 23  1  1  0  0  0
 22 25  1  0  0  0  0
 25 24  1  0  0  0  0
 26 27  1  0  0  0  0
 28 29  2  0  0  0  0
 29 31  1  0  0  0  0
 30 27  1  0  0  0  0
 30 33  1  0  0  0  0
 31 30  2  0  0  0  0
 32 33  2  0  0  0  0
 34 28  1  0  0  0  0
 34 32  1  0  0  0  0
M  END
>  <MODEL>
1

>  <REMARK>
 VINA RESULT:      -7.4      0.000      0.000
  Name = 
  10 active torsions:
  status: ('A' for Active; 'I' for Inactive)
    1  A    between atoms: C_3  and  N_13
    2  A    between atoms: C_3  and  C_17
    3  A    between atoms: N_5  and  C_26
    4  A    between atoms: C_12  and  C_28
    5  A    between atoms: N_13  and  C_33
    6  A    between atoms: O_14  and  C_20
    7  A    between atoms: C_17  and  C_29
    8  A    between atoms: C_20  and  C_34
    9  A    between atoms: C_26  and  C_28
   10  A    between atoms: C_33  and  C_34
                            x       y       z     vdW  Elec       q    Type
                         _______ _______ _______ _____ _____    ______ ____

>  <TORSDO>
F 10

$$$$
=
 OpenBabel11052418513D

 34 38  0  0  1  0  0  0  0  0999 V2000
  185.0860  178.4750  145.8940 C   0  0  0  0  0  0  0  0  0  0  0  0
  186.1850  178.1110  143.7450 C   0  0  0  0  0  0  0  0  0  0  0  0
  187.3420  177.5700  145.8210 C   0  0  0  0  0  0  0  0  0  0  0  0
  189.3620  176.1630  145.4650 N   0  0  0  0  0  0  0  0  0  0  0  0
  183.9490  179.0430  143.8310 C   0  0  0  0  0  3  0  0  0  0  0  0
  185.0510  178.6000  143.0890 C   0  0  0  0  0  3  0  0  0  0  0  0
  188.3440  177.1190  143.5930 C   0  0  0  0  0  0  0  0  0  0  0  0
  186.2070  178.0600  145.1510 C   0  0  0  0  0  0  0  0  0  0  0  0
  190.0730  175.7030  144.2620 C   0  0  0  0  0  2  0  0  0  0  0  0
  183.9630  178.9750  145.2290 C   0  0  0  0  0  3  0  0  0  0  0  0
  186.2590  177.8850  147.9180 C   0  0  0  0  0  3  0  0  0  0  0  0
  185.1110  178.3780  147.2860 C   0  0  0  0  0  3  0  0  0  0  0  0
  187.2560  177.5120  142.9990 N   0  0  0  0  0  0  0  0  0  0  0  0
  189.3170  176.1710  143.0160 C   0  0  1  0  0  3  0  0  0  0  0  0
  188.6100  177.3350  145.0350 C   0  0  1  0  0  3  0  0  0  0  0  0
  187.3430  177.5120  147.1810 N   0  0  0  0  0  0  0  0  0  0  0  0
  188.6190  174.9650  142.3920 C   0  0  0  0  0  2  0  0  0  0  0  0
  189.4930  174.3340  141.3190 C   0  0  0  0  0  2  0  0  0  0  0  0
  190.0440  173.0800  141.7970 N   0  0  0  0  0  2  0  0  0  0  0  0
  191.4280  173.0350  141.3570 C   0  0  0  0  0  2  0  0  0  0  0  0
  192.3290  173.6980  142.3930 C   0  0  0  0  0  2  0  0  0  0  0  0
  193.2330  174.7750  141.7910 C   0  0  2  0  0  3  0  0  0  0  0  0
  192.8860  176.0400  142.2740 O   0  0  0  0  0  1  0  0  0  0  0  0
  194.4580  175.0110  139.9610 C   0  0  0  0  0  1  0  0  0  0  0  0
  193.1550  174.7610  140.3940 O   0  0  0  0  0  0  0  0  0  0  0  0
  190.3740  176.6270  146.3980 C   0  0  0  0  0  2  0  0  0  0  0  0
  191.0900  175.4360  147.0090 C   0  0  0  0  0  2  0  0  0  0  0  0
  195.2690  175.1130  145.2110 C   0  0  0  0  0  3  0  0  0  0  0  0
  194.4140  174.1540  145.5670 C   0  0  0  0  0  3  0  0  0  0  0  0
  192.5250  175.4550  146.6140 C   0  0  0  0  0  0  0  0  0  0  0  0
  193.0190  174.3690  146.0010 C   0  0  0  0  0  3  0  0  0  0  0  0
  194.4090  177.0890  146.4180 C   0  0  0  0  0  3  0  0  0  0  0  0
  193.3340  176.6140  147.0490 C   0  0  0  0  0  3  0  0  0  0  0  0
  194.8900  176.5530  145.1090 C   0  0  0  0  0  2  0  0  0  0  0  0
  1 12  1  0  0  0  0
  2  8  1  0  0  0  0
  3 16  2  0  0  0  0
  4 26  1  0  0  0  0
  5 10  2  0  0  0  0
  6  2  2  0  0  0  0
  6  5  1  0  0  0  0
  8  3  1  0  0  0  0
  8  1  2  0  0  0  0
  9  4  1  0  0  0  0
 10  1  1  0  0  0  0
 12 11  2  0  0  0  0
 13  7  2  0  0  0  0
 13  2  1  0  0  0  0
 14 17  1  1  0  0  0
 14  7  1  0  0  0  0
 14  9  1  0  0  0  0
 15  7  1  6  0  0  0
 15  4  1  0  0  0  0
 15  3  1  0  0  0  0
 16 11  1  0  0  0  0
 18 19  1  0  0  0  0
 18 17  1  0  0  0  0
 20 19  1  0  0  0  0
 20 21  1  0  0  0  0
 22 23  1  1  0  0  0
 22 21  1  0  0  0  0
 24 25  1  0  0  0  0
 25 22  1  0  0  0  0
 26 27  1  0  0  0  0
 28 29  2  0  0  0  0
 29 31  1  0  0  0  0
 30 27  1  0  0  0  0
 30 33  1  0  0  0  0
 31 30  2  0  0  0  0
 32 33  2  0  0  0  0
 34 28  1  0  0  0  0
 34 32  1  0  0  0  0
M  END
>  <MODEL>
2

>  <REMARK>
 VINA RESULT:      -7.3      1.794      2.102
  Name = 
  10 active torsions:
  status: ('A' for Active; 'I' for Inactive)
    1  A    between atoms: C_3  and  N_13
    2  A    between atoms: C_3  and  C_17
    3  A    between atoms: N_5  and  C_26
    4  A    between atoms: C_12  and  C_28
    5  A    between atoms: N_13  and  C_33
    6  A    between atoms: O_14  and  C_20
    7  A    between atoms: C_17  and  C_29
    8  A    between atoms: C_20  and  C_34
    9  A    between atoms: C_26  and  C_28
   10  A    between atoms: C_33  and  C_34
                            x       y       z     vdW  Elec       q    Type
                         _______ _______ _______ _____ _____    ______ ____

>  <TORSDO>
F 10

$$$$
=
 OpenBabel11052418513D

 34 38  0  0  1  0  0  0  0  0999 V2000
  185.1270  178.4550  145.8770 C   0  0  0  0  0  0  0  0  0  0  0  0
  186.2220  178.2160  143.7090 C   0  0  0  0  0  0  0  0  0  0  0  0
  187.4130  177.6380  145.7550 C   0  0  0  0  0  0  0  0  0  0  0  0
  189.4810  176.3230  145.3320 N   0  0  0  0  0  0  0  0  0  0  0  0
  183.9530  179.0590  143.8450 C   0  0  0  0  0  3  0  0  0  0  0  0
  185.0660  178.6870  143.0800 C   0  0  0  0  0  3  0  0  0  0  0  0
  188.4150  177.3120  143.5050 C   0  0  0  0  0  0  0  0  0  0  0  0
  186.2570  178.1110  145.1120 C   0  0  0  0  0  0  0  0  0  0  0  0
  190.2000  175.9370  144.1080 C   0  0  0  0  0  2  0  0  0  0  0  0
  183.9810  178.9370  145.2400 C   0  0  0  0  0  3  0  0  0  0  0  0
  186.3350  177.8310  147.8690 C   0  0  0  0  0  3  0  0  0  0  0  0
  185.1650  178.3040  147.2650 C   0  0  0  0  0  3  0  0  0  0  0  0
  187.3080  177.6870  142.9330 N   0  0  0  0  0  0  0  0  0  0  0  0
  189.4180  176.4240  142.8850 C   0  0  1  0  0  3  0  0  0  0  0  0
  188.6830  177.4810  144.9530 C   0  0  1  0  0  3  0  0  0  0  0  0
  187.4270  177.5270  147.1120 N   0  0  0  0  0  0  0  0  0  0  0  0
  188.7610  175.2180  142.2200 C   0  0  0  0  0  2  0  0  0  0  0  0
  189.4340  173.9280  142.6610 C   0  0  0  0  0  2  0  0  0  0  0  0
  188.7230  172.7830  142.1230 N   0  0  0  0  0  2  0  0  0  0  0  0
  189.7100  171.7380  141.9110 C   0  0  0  0  0  2  0  0  0  0  0  0
  190.3360  171.8810  140.5290 C   0  0  0  0  0  2  0  0  0  0  0  0
  189.3150  172.2390  139.4480 C   0  0  2  0  0  3  0  0  0  0  0  0
  189.3270  171.2910  138.4200 O   0  0  0  0  0  1  0  0  0  0  0  0
  188.3190  174.0210  138.5900 C   0  0  0  0  0  1  0  0  0  0  0  0
  189.5740  173.5110  138.9260 O   0  0  0  0  0  0  0  0  0  0  0  0
  190.4830  176.7870  146.2760 C   0  0  0  0  0  2  0  0  0  0  0  0
  191.1410  175.5970  146.9510 C   0  0  0  0  0  2  0  0  0  0  0  0
  195.3270  175.0010  145.2410 C   0  0  0  0  0  3  0  0  0  0  0  0
  194.4360  174.1010  145.6560 C   0  0  0  0  0  3  0  0  0  0  0  0
  192.5800  175.5390  146.5760 C   0  0  0  0  0  0  0  0  0  0  0  0
  193.0430  174.3940  146.0520 C   0  0  0  0  0  3  0  0  0  0  0  0
  194.5210  177.0890  146.2850 C   0  0  0  0  0  3  0  0  0  0  0  0
  193.4240  176.7000  146.9350 C   0  0  0  0  0  3  0  0  0  0  0  0
  194.9980  176.4410  145.0270 C   0  0  0  0  0  2  0  0  0  0  0  0
  1 12  1  0  0  0  0
  2  8  1  0  0  0  0
  3 16  2  0  0  0  0
  4 26  1  0  0  0  0
  5 10  2  0  0  0  0
  6  2  2  0  0  0  0
  6  5  1  0  0  0  0
  8  3  1  0  0  0  0
  8  1  2  0  0  0  0
  9  4  1  0  0  0  0
 10  1  1  0  0  0  0
 12 11  2  0  0  0  0
 13  7  2  0  0  0  0
 13  2  1  0  0  0  0
 14 17  1  1  0  0  0
 14  7  1  0  0  0  0
 14  9  1  0  0  0  0
 15  7  1  6  0  0  0
 15  4  1  0  0  0  0
 15  3  1  0  0  0  0
 16 11  1  0  0  0  0
 17 18  1  0  0  0  0
 19 18  1  0  0  0  0
 20 19  1  0  0  0  0
 21 20  1  0  0  0  0
 22 23  1  6  0  0  0
 22 21  1  0  0  0  0
 24 25  1  0  0  0  0
 25 22  1  0  0  0  0
 26 27  1  0  0  0  0
 28 29  2  0  0  0  0
 29 31  1  0  0  0  0
 30 33  1  0  0  0  0
 30 27  1  0  0  0  0
 31 30  2  0  0  0  0
 32 33  2  0  0  0  0
 34 28  1  0  0  0  0
 34 32  1  0  0  0  0
M  END
>  <MODEL>
3

>  <REMARK>
 VINA RESULT:      -7.3      1.487      1.943
  Name = 
  10 active torsions:
  status: ('A' for Active; 'I' for Inactive)
    1  A    between atoms: C_3  and  N_13
    2  A    between atoms: C_3  and  C_17
    3  A    between atoms: N_5  and  C_26
    4  A    between atoms: C_12  and  C_28
    5  A    between atoms: N_13  and  C_33
    6  A    between atoms: O_14  and  C_20
    7  A    between atoms: C_17  and  C_29
    8  A    between atoms: C_20  and  C_34
    9  A    between atoms: C_26  and  C_28
   10  A    between atoms: C_33  and  C_34
                            x       y       z     vdW  Elec       q    Type
                         _______ _______ _______ _____ _____    ______ ____

>  <TORSDO>
F 10

$$$$
=
 OpenBabel11052418513D

 34 38  0  0  1  0  0  0  0  0999 V2000
  194.8940  174.8960  145.7600 C   0  0  0  0  0  0  0  0  0  0  0  0
  193.6430  172.9230  145.0510 C   0  0  0  0  0  0  0  0  0  0  0  0
  192.4760  175.0070  145.5390 C   0  0  0  0  0  0  0  0  0  0  0  0
  190.1310  175.0190  144.7090 N   0  0  0  0  0  0  0  0  0  0  0  0
  196.0510  172.8160  145.3050 C   0  0  0  0  0  3  0  0  0  0  0  0
  194.8370  172.2020  144.9720 C   0  0  0  0  0  3  0  0  0  0  0  0
  191.2890  172.9920  144.7000 C   0  0  0  0  0  0  0  0  0  0  0  0
  193.6700  174.2700  145.4570 C   0  0  0  0  0  0  0  0  0  0  0  0
  189.2680  173.9920  144.1060 C   0  0  0  0  0  2  0  0  0  0  0  0
  196.0810  174.1610  145.6910 C   0  0  0  0  0  3  0  0  0  0  0  0
  193.6960  176.9440  146.1910 C   0  0  0  0  0  3  0  0  0  0  0  0
  194.9060  176.2450  146.1210 C   0  0  0  0  0  3  0  0  0  0  0  0
  192.4160  172.3560  144.5670 N   0  0  0  0  0  0  0  0  0  0  0  0
  190.0670  172.6990  143.9260 C   0  0  1  0  0  3  0  0  0  0  0  0
  191.1580  174.2770  145.4270 C   0  0  1  0  0  3  0  0  0  0  0  0
  192.5190  176.3140  145.9190 N   0  0  0  0  0  0  0  0  0  0  0  0
  190.3750  172.5240  142.4410 C   0  0  0  0  0  2  0  0  0  0  0  0
  189.1850  172.9450  141.5930 C   0  0  0  0  0  2  0  0  0  0  0  0
  189.5530  174.0510  140.7280 N   0  0  0  0  0  2  0  0  0  0  0  0
  188.3350  174.7960  140.4580 C   0  0  0  0  0  2  0  0  0  0  0  0
  188.1970  175.9510  141.4440 C   0  0  0  0  0  2  0  0  0  0  0  0
  187.4360  177.1410  140.8610 C   0  0  2  0  0  3  0  0  0  0  0  0
  188.0530  178.3450  141.2120 O   0  0  0  0  0  1  0  0  0  0  0  0
  185.5300  178.2590  140.6970 C   0  0  0  0  0  1  0  0  0  0  0  0
  186.1070  177.1410  141.3010 O   0  0  0  0  0  0  0  0  0  0  0  0
  189.3290  175.7080  145.7050 C   0  0  0  0  0  2  0  0  0  0  0  0
  189.0160  177.1140  145.2270 C   0  0  0  0  0  2  0  0  0  0  0  0
  184.6770  177.8430  146.4270 C   0  0  0  0  0  3  0  0  0  0  0  0
  185.4490  176.7720  146.6160 C   0  0  0  0  0  3  0  0  0  0  0  0
  187.5610  177.3870  145.3850 C   0  0  0  0  0  0  0  0  0  0  0  0
  186.8940  176.6960  146.3220 C   0  0  0  0  0  3  0  0  0  0  0  0
  185.8610  179.0620  144.6360 C   0  0  0  0  0  3  0  0  0  0  0  0
  186.9310  178.3000  144.4060 C   0  0  0  0  0  3  0  0  0  0  0  0
  185.2030  179.1630  145.9730 C   0  0  0  0  0  2  0  0  0  0  0  0
  1 12  1  0  0  0  0
  2  8  1  0  0  0  0
  3 16  2  0  0  0  0
  4 15  1  0  0  0  0
  4 26  1  0  0  0  0
  5 10  2  0  0  0  0
  6  2  2  0  0  0  0
  6  5  1  0  0  0  0
  8  3  1  0  0  0  0
  8  1  2  0  0  0  0
  9  4  1  0  0  0  0
 10  1  1  0  0  0  0
 12 11  2  0  0  0  0
 13  7  2  0  0  0  0
 13  2  1  0  0  0  0
 14 17  1  6  0  0  0
 14  9  1  0  0  0  0
 14  7  1  0  0  0  0
 15  7  1  6  0  0  0
 15  3  1  0  0  0  0
 16 11  1  0  0  0  0
 18 17  1  0  0  0  0
 19 18  1  0  0  0  0
 20 19  1  0  0  0  0
 20 21  1  0  0  0  0
 22 23  1  1  0  0  0
 22 25  1  0  0  0  0
 22 21  1  0  0  0  0
 24 25  1  0  0  0  0
 27 30  1  0  0  0  0
 27 26  1  0  0  0  0
 28 29  2  0  0  0  0
 30 31  2  0  0  0  0
 31 29  1  0  0  0  0
 32 34  1  0  0  0  0
 33 32  2  0  0  0  0
 33 30  1  0  0  0  0
 34 28  1  0  0  0  0
M  END
>  <MODEL>
4

>  <REMARK>
 VINA RESULT:      -7.2      2.389      7.493
  Name = 
  10 active torsions:
  status: ('A' for Active; 'I' for Inactive)
    1  A    between atoms: C_3  and  N_13
    2  A    between atoms: C_3  and  C_17
    3  A    between atoms: N_5  and  C_26
    4  A    between atoms: C_12  and  C_28
    5  A    between atoms: N_13  and  C_33
    6  A    between atoms: O_14  and  C_20
    7  A    between atoms: C_17  and  C_29
    8  A    between atoms: C_20  and  C_34
    9  A    between atoms: C_26  and  C_28
   10  A    between atoms: C_33  and  C_34
                            x       y       z     vdW  Elec       q    Type
                         _______ _______ _______ _____ _____    ______ ____

>  <TORSDO>
F 10

$$$$
=
 OpenBabel11052418513D

 34 38  0  0  1  0  0  0  0  0999 V2000
  184.6580  178.2910  144.8200 C   0  0  0  0  0  0  0  0  0  0  0  0
  186.4770  177.2100  146.0380 C   0  0  0  0  0  0  0  0  0  0  0  0
  186.4260  177.1510  143.6020 C   0  0  0  0  0  0  0  0  0  0  0  0
  188.5910  176.4360  142.6070 N   0  0  0  0  0  0  0  0  0  0  0  0
  184.6910  178.3220  147.2430 C   0  0  0  0  0  3  0  0  0  0  0  0
  185.8950  177.6060  147.2450 C   0  0  0  0  0  3  0  0  0  0  0  0
  188.3020  176.1790  144.9090 C   0  0  0  0  0  0  0  0  0  0  0  0
  185.8500  177.5430  144.8220 C   0  0  0  0  0  0  0  0  0  0  0  0
  189.8440  175.9200  143.1790 C   0  0  0  0  0  2  0  0  0  0  0  0
  184.0770  178.6700  146.0330 C   0  0  0  0  0  3  0  0  0  0  0  0
  184.6770  178.2380  142.4090 C   0  0  0  0  0  3  0  0  0  0  0  0
  184.0730  178.6470  143.6030 C   0  0  0  0  0  3  0  0  0  0  0  0
  187.7830  176.6140  146.0200 N   0  0  0  0  0  0  0  0  0  0  0  0
  189.7390  175.9120  144.7060 C   0  0  1  0  0  3  0  0  0  0  0  0
  187.5760  176.1720  143.6170 C   0  0  1  0  0  3  0  0  0  0  0  0
  185.8180  177.4940  142.4330 N   0  0  0  0  0  0  0  0  0  0  0  0
  190.6010  177.0460  145.2550 C   0  0  0  0  0  2  0  0  0  0  0  0
  191.3810  176.5840  146.4770 C   0  0  0  0  0  2  0  0  0  0  0  0
  191.8850  175.2390  146.2690 N   0  0  0  0  0  2  0  0  0  0  0  0
  193.3100  175.2770  146.5500 C   0  0  0  0  0  2  0  0  0  0  0  0
  194.0990  174.8530  145.3160 C   0  0  0  0  0  2  0  0  0  0  0  0
  194.5290  176.0380  144.4510 C   0  0  2  0  0  3  0  0  0  0  0  0
  194.7180  177.1820  145.2330 O   0  0  0  0  0  1  0  0  0  0  0  0
  193.4470  175.0840  142.7700 C   0  0  0  0  0  1  0  0  0  0  0  0
  193.5790  176.2930  143.4560 O   0  0  0  0  0  0  0  0  0  0  0  0
  188.2790  175.6000  141.4610 C   0  0  0  0  0  2  0  0  0  0  0  0
  187.7090  174.2760  141.9340 C   0  0  0  0  0  2  0  0  0  0  0  0
  190.5360  171.3190  139.9160 C   0  0  0  0  0  3  0  0  0  0  0  0
  189.4770  171.9620  139.4250 C   0  0  0  0  0  3  0  0  0  0  0  0
  188.5650  173.1580  141.4480 C   0  0  0  0  0  0  0  0  0  0  0  0
  188.7170  173.0190  140.1220 C   0  0  0  0  0  3  0  0  0  0  0  0
  190.2000  171.4980  142.3570 C   0  0  0  0  0  3  0  0  0  0  0  0
  189.0720  172.2030  142.4570 C   0  0  0  0  0  3  0  0  0  0  0  0
  191.1640  171.6570  141.2270 C   0  0  0  0  0  2  0  0  0  0  0  0
  1  8  1  0  0  0  0
  1 10  2  0  0  0  0
  2  6  1  0  0  0  0
  3  8  1  0  0  0  0
  4  9  1  0  0  0  0
  4 15  1  0  0  0  0
  5  6  2  0  0  0  0
  7 13  2  0  0  0  0
  8  2  2  0  0  0  0
  9 14  1  0  0  0  0
 10  5  1  0  0  0  0
 11 16  1  0  0  0  0
 11 12  2  0  0  0  0
 12  1  1  0  0  0  0
 13  2  1  0  0  0  0
 14  7  1  0  0  0  0
 14 17  1  1  0  0  0
 15  3  1  1  0  0  0
 15  7  1  0  0  0  0
 16  3  2  0  0  0  0
 17 18  1  0  0  0  0
 19 18  1  0  0  0  0
 19 20  1  0  0  0  0
 21 20  1  0  0  0  0
 22 23  1  1  0  0  0
 22 21  1  0  0  0  0
 24 25  1  0  0  0  0
 25 22  1  0  0  0  0
 26 27  1  0  0  0  0
 26  4  1  0  0  0  0
 28 34  1  0  0  0  0
 29 28  2  0  0  0  0
 29 31  1  0  0  0  0
 30 27  1  0  0  0  0
 30 33  1  0  0  0  0
 31 30  2  0  0  0  0
 32 33  2  0  0  0  0
 34 32  1  0  0  0  0
M  END
>  <MODEL>
5

>  <REMARK>
 VINA RESULT:      -7.2      1.945      5.309
  Name = 
  10 active torsions:
  status: ('A' for Active; 'I' for Inactive)
    1  A    between atoms: C_3  and  N_13
    2  A    between atoms: C_3  and  C_17
    3  A    between atoms: N_5  and  C_26
    4  A    between atoms: C_12  and  C_28
    5  A    between atoms: N_13  and  C_33
    6  A    between atoms: O_14  and  C_20
    7  A    between atoms: C_17  and  C_29
    8  A    between atoms: C_20  and  C_34
    9  A    between atoms: C_26  and  C_28
   10  A    between atoms: C_33  and  C_34
                            x       y       z     vdW  Elec       q    Type
                         _______ _______ _______ _____ _____    ______ ____

>  <TORSDO>
F 10

$$$$
=
 OpenBabel11052418513D

 34 38  0  0  1  0  0  0  0  0999 V2000
  185.7980  178.6500  145.0510 C   0  0  0  0  0  0  0  0  0  0  0  0
  186.8410  177.0280  146.5470 C   0  0  0  0  0  0  0  0  0  0  0  0
  187.5790  177.2130  144.2320 C   0  0  0  0  0  0  0  0  0  0  0  0
  189.7430  176.0610  143.8120 N   0  0  0  0  0  0  0  0  0  0  0  0
  185.0420  178.4450  147.3450 C   0  0  0  0  0  3  0  0  0  0  0  0
  185.9950  177.4460  147.5790 C   0  0  0  0  0  3  0  0  0  0  0  0
  188.6690  175.6720  145.8480 C   0  0  0  0  0  0  0  0  0  0  0  0
  186.7340  177.6240  145.2770 C   0  0  0  0  0  0  0  0  0  0  0  0
  190.5980  175.1880  144.6310 C   0  0  0  0  0  2  0  0  0  0  0  0
  184.9480  179.0510  146.0860 C   0  0  0  0  0  3  0  0  0  0  0  0
  186.5930  178.8220  142.7810 C   0  0  0  0  0  3  0  0  0  0  0  0
  185.7340  179.2580  143.7960 C   0  0  0  0  0  3  0  0  0  0  0  0
  187.9210  176.1200  146.8140 N   0  0  0  0  0  0  0  0  0  0  0  0
  190.0000  175.0640  146.0340 C   0  0  1  0  0  3  0  0  0  0  0  0
  188.4220  175.9740  144.4180 C   0  0  1  0  0  3  0  0  0  0  0  0
  187.4750  177.8090  143.0120 N   0  0  0  0  0  0  0  0  0  0  0  0
  190.8570  175.8800  146.9980 C   0  0  0  0  0  2  0  0  0  0  0  0
  192.3350  175.6000  146.7720 C   0  0  0  0  0  2  0  0  0  0  0  0
  193.1010  176.8260  146.8950 N   0  0  0  0  0  2  0  0  0  0  0  0
  194.3800  176.5880  146.2490 C   0  0  0  0  0  2  0  0  0  0  0  0
  194.1680  176.2330  144.7810 C   0  0  0  0  0  2  0  0  0  0  0  0
  195.4060  175.6100  144.1360 C   0  0  2  0  0  3  0  0  0  0  0  0
  195.9340  174.6010  144.9470 O   0  0  0  0  0  1  0  0  0  0  0  0
  196.4390  176.6950  142.5050 C   0  0  0  0  0  1  0  0  0  0  0  0
  196.3800  176.5860  143.8950 O   0  0  0  0  0  0  0  0  0  0  0  0
  189.6510  175.4460  142.4990 C   0  0  0  0  0  2  0  0  0  0  0  0
  188.9240  174.1180  142.6070 C   0  0  0  0  0  2  0  0  0  0  0  0
  190.8110  170.4070  140.7430 C   0  0  0  0  0  3  0  0  0  0  0  0
  190.4460  170.6400  142.0040 C   0  0  0  0  0  3  0  0  0  0  0  0
  189.7190  173.0530  141.9350 C   0  0  0  0  0  0  0  0  0  0  0  0
  189.7000  171.8250  142.4740 C   0  0  0  0  0  3  0  0  0  0  0  0
  190.9350  172.6790  139.7810 C   0  0  0  0  0  3  0  0  0  0  0  0
  190.5780  173.4600  140.8010 C   0  0  0  0  0  3  0  0  0  0  0  0
  190.4230  171.2870  139.6010 C   0  0  0  0  0  2  0  0  0  0  0  0
  1  8  1  0  0  0  0
  1 10  2  0  0  0  0
  2 13  1  0  0  0  0
  2  6  1  0  0  0  0
  3  8  1  0  0  0  0
  4 15  1  0  0  0  0
  4  9  1  0  0  0  0
  5  6  2  0  0  0  0
  7 14  1  0  0  0  0
  7 13  2  0  0  0  0
  8  2  2  0  0  0  0
  9 14  1  0  0  0  0
 10  5  1  0  0  0  0
 11 16  1  0  0  0  0
 11 12  2  0  0  0  0
 12  1  1  0  0  0  0
 14 17  1  1  0  0  0
 15  3  1  1  0  0  0
 15  7  1  0  0  0  0
 16  3  2  0  0  0  0
 18 19  1  0  0  0  0
 18 17  1  0  0  0  0
 20 19  1  0  0  0  0
 21 20  1  0  0  0  0
 22 21  1  0  0  0  0
 22 23  1  1  0  0  0
 24 25  1  0  0  0  0
 25 22  1  0  0  0  0
 26 27  1  0  0  0  0
 26  4  1  0  0  0  0
 28 29  2  0  0  0  0
 29 31  1  0  0  0  0
 30 31  2  0  0  0  0
 30 27  1  0  0  0  0
 32 33  2  0  0  0  0
 33 30  1  0  0  0  0
 34 32  1  0  0  0  0
 34 28  1  0  0  0  0
M  END
>  <MODEL>
6

>  <REMARK>
 VINA RESULT:      -7.1      2.111      5.517
  Name = 
  10 active torsions:
  status: ('A' for Active; 'I' for Inactive)
    1  A    between atoms: C_3  and  N_13
    2  A    between atoms: C_3  and  C_17
    3  A    between atoms: N_5  and  C_26
    4  A    between atoms: C_12  and  C_28
    5  A    between atoms: N_13  and  C_33
    6  A    between atoms: O_14  and  C_20
    7  A    between atoms: C_17  and  C_29
    8  A    between atoms: C_20  and  C_34
    9  A    between atoms: C_26  and  C_28
   10  A    between atoms: C_33  and  C_34
                            x       y       z     vdW  Elec       q    Type
                         _______ _______ _______ _____ _____    ______ ____

>  <TORSDO>
F 10

$$$$
=
 OpenBabel11052418513D

 34 38  0  0  1  0  0  0  0  0999 V2000
  194.8380  174.6670  145.7890 C   0  0  0  0  0  0  0  0  0  0  0  0
  193.4640  172.7860  145.0610 C   0  0  0  0  0  0  0  0  0  0  0  0
  192.4420  174.9550  145.4960 C   0  0  0  0  0  0  0  0  0  0  0  0
  190.1300  175.1330  144.5960 N   0  0  0  0  0  0  0  0  0  0  0  0
  195.8490  172.5020  145.3870 C   0  0  0  0  0  3  0  0  0  0  0  0
  194.6030  171.9760  145.0240 C   0  0  0  0  0  3  0  0  0  0  0  0
  191.1330  173.0250  144.6390 C   0  0  0  0  0  0  0  0  0  0  0  0
  193.5800  174.1310  145.4560 C   0  0  0  0  0  0  0  0  0  0  0  0
  189.2100  174.1670  143.9770 C   0  0  0  0  0  2  0  0  0  0  0  0
  195.9680  173.8460  145.7620 C   0  0  0  0  0  3  0  0  0  0  0  0
  193.7840  176.8030  146.1670 C   0  0  0  0  0  3  0  0  0  0  0  0
  194.9400  176.0150  146.1380 C   0  0  0  0  0  3  0  0  0  0  0  0
  192.2130  172.3050  144.5450 N   0  0  0  0  0  0  0  0  0  0  0  0
  189.9150  172.8160  143.8320 C   0  0  1  0  0  3  0  0  0  0  0  0
  191.0770  174.3240  145.3500 C   0  0  1  0  0  3  0  0  0  0  0  0
  192.5710  176.2600  145.8650 N   0  0  0  0  0  0  0  0  0  0  0  0
  190.2520  172.6020  142.3580 C   0  0  0  0  0  2  0  0  0  0  0  0
  190.3310  173.9330  141.6270 C   0  0  0  0  0  2  0  0  0  0  0  0
  191.5830  174.0310  140.9000 N   0  0  0  0  0  2  0  0  0  0  0  0
  192.4620  174.8760  141.6900 C   0  0  0  0  0  2  0  0  0  0  0  0
  193.8500  174.2510  141.7770 C   0  0  0  0  0  2  0  0  0  0  0  0
  194.9370  175.2660  142.1310 C   0  0  2  0  0  3  0  0  0  0  0  0
  194.3770  176.4170  142.6920 O   0  0  0  0  0  1  0  0  0  0  0  0
  196.3440  176.7850  141.3440 C   0  0  0  0  0  1  0  0  0  0  0  0
  195.6850  175.6040  140.9980 O   0  0  0  0  0  0  0  0  0  0  0  0
  189.3530  175.8910  145.5620 C   0  0  0  0  0  2  0  0  0  0  0  0
  188.9520  177.2250  144.9620 C   0  0  0  0  0  2  0  0  0  0  0  0
  184.6340  177.8460  146.2970 C   0  0  0  0  0  3  0  0  0  0  0  0
  185.4550  176.8160  146.5050 C   0  0  0  0  0  3  0  0  0  0  0  0
  187.4940  177.4500  145.1640 C   0  0  0  0  0  0  0  0  0  0  0  0
  186.8910  176.7810  146.1580 C   0  0  0  0  0  3  0  0  0  0  0  0
  185.7010  179.0200  144.4040 C   0  0  0  0  0  3  0  0  0  0  0  0
  186.7910  178.2890  144.1680 C   0  0  0  0  0  3  0  0  0  0  0  0
  185.0900  179.1610  145.7590 C   0  0  0  0  0  2  0  0  0  0  0  0
  1 12  1  0  0  0  0
  2  8  1  0  0  0  0
  3 16  2  0  0  0  0
  4 15  1  0  0  0  0
  4 26  1  0  0  0  0
  5 10  2  0  0  0  0
  6  2  2  0  0  0  0
  6  5  1  0  0  0  0
  8  3  1  0  0  0  0
  8  1  2  0  0  0  0
  9  4  1  0  0  0  0
 10  1  1  0  0  0  0
 12 11  2  0  0  0  0
 13  7  2  0  0  0  0
 13  2  1  0  0  0  0
 14 17  1  6  0  0  0
 14  9  1  0  0  0  0
 14  7  1  0  0  0  0
 15  7  1  6  0  0  0
 15  3  1  0  0  0  0
 16 11  1  0  0  0  0
 18 17  1  0  0  0  0
 19 18  1  0  0  0  0
 19 20  1  0  0  0  0
 20 21  1  0  0  0  0
 21 22  1  0  0  0  0
 22 23  1  6  0  0  0
 25 24  1  0  0  0  0
 25 22  1  0  0  0  0
 27 30  1  0  0  0  0
 27 26  1  0  0  0  0
 28 29  2  0  0  0  0
 30 31  2  0  0  0  0
 31 29  1  0  0  0  0
 32 34  1  0  0  0  0
 33 32  2  0  0  0  0
 33 30  1  0  0  0  0
 34 28  1  0  0  0  0
M  END
>  <MODEL>
7

>  <REMARK>
 VINA RESULT:      -7.1      2.484      7.491
  Name = 
  10 active torsions:
  status: ('A' for Active; 'I' for Inactive)
    1  A    between atoms: C_3  and  N_13
    2  A    between atoms: C_3  and  C_17
    3  A    between atoms: N_5  and  C_26
    4  A    between atoms: C_12  and  C_28
    5  A    between atoms: N_13  and  C_33
    6  A    between atoms: O_14  and  C_20
    7  A    between atoms: C_17  and  C_29
    8  A    between atoms: C_20  and  C_34
    9  A    between atoms: C_26  and  C_28
   10  A    between atoms: C_33  and  C_34
                            x       y       z     vdW  Elec       q    Type
                         _______ _______ _______ _____ _____    ______ ____

>  <TORSDO>
F 10

$$$$
=
 OpenBabel11052418513D

 34 38  0  0  1  0  0  0  0  0999 V2000
  185.6670  178.3770  145.8680 C   0  0  0  0  0  0  0  0  0  0  0  0
  186.7650  178.2840  143.6900 C   0  0  0  0  0  0  0  0  0  0  0  0
  187.5260  176.8530  145.5100 C   0  0  0  0  0  0  0  0  0  0  0  0
  189.0290  175.0260  144.7400 N   0  0  0  0  0  0  0  0  0  0  0  0
  184.9310  179.8230  144.0680 C   0  0  0  0  0  3  0  0  0  0  0  0
  185.8960  179.2700  143.2160 C   0  0  0  0  0  3  0  0  0  0  0  0
  188.5120  176.7320  143.2330 C   0  0  0  0  0  0  0  0  0  0  0  0
  186.6580  177.8450  145.0230 C   0  0  0  0  0  0  0  0  0  0  0  0
  189.6550  174.7110  143.4470 C   0  0  0  0  0  2  0  0  0  0  0  0
  184.8120  179.3730  145.3880 C   0  0  0  0  0  3  0  0  0  0  0  0
  186.4320  176.9110  147.6240 C   0  0  0  0  0  3  0  0  0  0  0  0
  185.5490  177.8990  147.1750 C   0  0  0  0  0  3  0  0  0  0  0  0
  187.6510  177.6020  142.7900 N   0  0  0  0  0  0  0  0  0  0  0  0
  189.1840  175.7190  142.3960 C   0  0  1  0  0  3  0  0  0  0  0  0
  188.7160  176.4470  144.6730 C   0  0  1  0  0  3  0  0  0  0  0  0
  187.4010  176.4260  146.7970 N   0  0  0  0  0  0  0  0  0  0  0  0
  188.1980  175.0210  141.4640 C   0  0  0  0  0  2  0  0  0  0  0  0
  188.3120  173.5100  141.5950 C   0  0  0  0  0  2  0  0  0  0  0  0
  188.2430  172.8880  140.2860 N   0  0  0  0  0  2  0  0  0  0  0  0
  189.3460  173.4250  139.5070 C   0  0  0  0  0  2  0  0  0  0  0  0
  190.6040  172.5960  139.7390 C   0  0  0  0  0  2  0  0  0  0  0  0
  190.3680  171.0960  139.5630 C   0  0  2  0  0  3  0  0  0  0  0  0
  190.7360  170.3960  140.7150 O   0  0  0  0  0  1  0  0  0  0  0  0
  190.1150  170.0410  137.6310 C   0  0  0  0  0  1  0  0  0  0  0  0
  191.0820  170.6100  138.4620 O   0  0  0  0  0  0  0  0  0  0  0  0
  190.0580  174.8650  145.7530 C   0  0  0  0  0  2  0  0  0  0  0  0
  191.0700  173.8310  145.2940 C   0  0  0  0  0  2  0  0  0  0  0  0
  195.4730  174.9500  145.7090 C   0  0  0  0  0  3  0  0  0  0  0  0
  194.9070  173.7600  145.5040 C   0  0  0  0  0  3  0  0  0  0  0  0
  192.4450  174.2830  145.6450 C   0  0  0  0  0  0  0  0  0  0  0  0
  193.4740  173.5280  145.2320 C   0  0  0  0  0  3  0  0  0  0  0  0
  193.5930  176.3090  146.5580 C   0  0  0  0  0  3  0  0  0  0  0  0
  192.5680  175.4560  146.5380 C   0  0  0  0  0  3  0  0  0  0  0  0
  194.7310  176.2400  145.5940 C   0  0  0  0  0  2  0  0  0  0  0  0
  1 12  1  0  0  0  0
  2  8  1  0  0  0  0
  3 16  2  0  0  0  0
  4 26  1  0  0  0  0
  5 10  2  0  0  0  0
  6  2  2  0  0  0  0
  6  5  1  0  0  0  0
  8  3  1  0  0  0  0
  8  1  2  0  0  0  0
  9  4  1  0  0  0  0
 10  1  1  0  0  0  0
 12 11  2  0  0  0  0
 13  7  2  0  0  0  0
 13  2  1  0  0  0  0
 14 17  1  6  0  0  0
 14  7  1  0  0  0  0
 14  9  1  0  0  0  0
 15  7  1  6  0  0  0
 15  4  1  0  0  0  0
 15  3  1  0  0  0  0
 16 11  1  0  0  0  0
 17 18  1  0  0  0  0
 19 18  1  0  0  0  0
 20 21  1  0  0  0  0
 20 19  1  0  0  0  0
 22 21  1  0  0  0  0
 22 23  1  1  0  0  0
 24 25  1  0  0  0  0
 25 22  1  0  0  0  0
 27 30  1  0  0  0  0
 27 26  1  0  0  0  0
 29 28  2  0  0  0  0
 30 33  1  0  0  0  0
 31 29  1  0  0  0  0
 31 30  2  0  0  0  0
 33 32  2  0  0  0  0
 34 28  1  0  0  0  0
 34 32  1  0  0  0  0
M  END
>  <MODEL>
8

>  <REMARK>
 VINA RESULT:      -7.0      1.585      2.088
  Name = 
  10 active torsions:
  status: ('A' for Active; 'I' for Inactive)
    1  A    between atoms: C_3  and  N_13
    2  A    between atoms: C_3  and  C_17
    3  A    between atoms: N_5  and  C_26
    4  A    between atoms: C_12  and  C_28
    5  A    between atoms: N_13  and  C_33
    6  A    between atoms: O_14  and  C_20
    7  A    between atoms: C_17  and  C_29
    8  A    between atoms: C_20  and  C_34
    9  A    between atoms: C_26  and  C_28
   10  A    between atoms: C_33  and  C_34
                            x       y       z     vdW  Elec       q    Type
                         _______ _______ _______ _____ _____    ______ ____

>  <TORSDO>
F 10

$$$$
=
 OpenBabel11052418513D

 34 38  0  0  1  0  0  0  0  0999 V2000
  185.8890  178.7110  145.0000 C   0  0  0  0  0  0  0  0  0  0  0  0
  187.3390  177.2950  146.3600 C   0  0  0  0  0  0  0  0  0  0  0  0
  187.5040  177.2430  143.9290 C   0  0  0  0  0  0  0  0  0  0  0  0
  189.5690  176.1140  143.1240 N   0  0  0  0  0  0  0  0  0  0  0  0
  185.7040  178.7390  147.4160 C   0  0  0  0  0  3  0  0  0  0  0  0
  186.7370  177.8000  147.5160 C   0  0  0  0  0  3  0  0  0  0  0  0
  189.0230  175.9230  145.3860 C   0  0  0  0  0  0  0  0  0  0  0  0
  186.9060  177.7430  145.0990 C   0  0  0  0  0  0  0  0  0  0  0  0
  190.6380  175.3620  143.7990 C   0  0  0  0  0  2  0  0  0  0  0  0
  185.2850  179.1990  146.1620 C   0  0  0  0  0  3  0  0  0  0  0  0
  186.1210  178.6530  142.6000 C   0  0  0  0  0  3  0  0  0  0  0  0
  185.5010  179.1750  143.7410 C   0  0  0  0  0  3  0  0  0  0  0  0
  188.4990  176.4530  146.4520 N   0  0  0  0  0  0  0  0  0  0  0  0
  190.3920  175.3770  145.3100 C   0  0  1  0  0  3  0  0  0  0  0  0
  188.4330  176.0570  144.0330 C   0  0  1  0  0  3  0  0  0  0  0  0
  187.0860  177.6980  142.7160 N   0  0  0  0  0  0  0  0  0  0  0  0
  191.4050  176.3190  145.9540 C   0  0  0  0  0  2  0  0  0  0  0  0
  192.2990  176.9500  144.8980 C   0  0  0  0  0  2  0  0  0  0  0  0
  193.6430  177.1240  145.4180 N   0  0  0  0  0  2  0  0  0  0  0  0
  193.8380  176.0960  146.4270 C   0  0  0  0  0  2  0  0  0  0  0  0
  195.0680  175.2600  146.0910 C   0  0  0  0  0  2  0  0  0  0  0  0
  194.7230  173.9660  145.3540 C   0  0  2  0  0  3  0  0  0  0  0  0
  193.4880  173.4680  145.7770 O   0  0  0  0  0  1  0  0  0  0  0  0
  196.7750  173.6980  146.1470 C   0  0  0  0  0  1  0  0  0  0  0  0
  195.7190  173.0030  145.5550 O   0  0  0  0  0  0  0  0  0  0  0  0
  189.2060  175.3550  141.9400 C   0  0  0  0  0  2  0  0  0  0  0  0
  188.5260  174.0620  142.3500 C   0  0  0  0  0  2  0  0  0  0  0  0
  190.5580  171.0700  139.5720 C   0  0  0  0  0  3  0  0  0  0  0  0
  189.5550  171.9140  139.3330 C   0  0  0  0  0  3  0  0  0  0  0  0
  189.1230  172.9200  141.6050 C   0  0  0  0  0  0  0  0  0  0  0  0
  189.0700  172.9540  140.2650 C   0  0  0  0  0  3  0  0  0  0  0  0
  190.5890  170.9400  142.0380 C   0  0  0  0  0  3  0  0  0  0  0  0
  189.6090  171.7700  142.3980 C   0  0  0  0  0  3  0  0  0  0  0  0
  191.4040  171.1280  140.8000 C   0  0  0  0  0  2  0  0  0  0  0  0
  1  8  1  0  0  0  0
  1 10  2  0  0  0  0
  2 13  1  0  0  0  0
  2  6  1  0  0  0  0
  3  8  1  0  0  0  0
  4  9  1  0  0  0  0
  4 15  1  0  0  0  0
  5  6  2  0  0  0  0
  7 13  2  0  0  0  0
  8  2  2  0  0  0  0
  9 14  1  0  0  0  0
 10  5  1  0  0  0  0
 11 16  1  0  0  0  0
 11 12  2  0  0  0  0
 12  1  1  0  0  0  0
 14  7  1  0  0  0  0
 14 17  1  1  0  0  0
 15  3  1  1  0  0  0
 15  7  1  0  0  0  0
 16  3  2  0  0  0  0
 18 19  1  0  0  0  0
 18 17  1  0  0  0  0
 19 20  1  0  0  0  0
 21 20  1  0  0  0  0
 22 25  1  0  0  0  0
 22 23  1  1  0  0  0
 22 21  1  0  0  0  0
 25 24  1  0  0  0  0
 26 27  1  0  0  0  0
 26  4  1  0  0  0  0
 28 34  1  0  0  0  0
 29 28  2  0  0  0  0
 29 31  1  0  0  0  0
 30 27  1  0  0  0  0
 30 33  1  0  0  0  0
 31 30  2  0  0  0  0
 32 33  2  0  0  0  0
 34 32  1  0  0  0  0
M  END
>  <MODEL>
9

>  <REMARK>
 VINA RESULT:      -6.9      1.722      5.400
  Name = 
  10 active torsions:
  status: ('A' for Active; 'I' for Inactive)
    1  A    between atoms: C_3  and  N_13
    2  A    between atoms: C_3  and  C_17
    3  A    between atoms: N_5  and  C_26
    4  A    between atoms: C_12  and  C_28
    5  A    between atoms: N_13  and  C_33
    6  A    between atoms: O_14  and  C_20
    7  A    between atoms: C_17  and  C_29
    8  A    between atoms: C_20  and  C_34
    9  A    between atoms: C_26  and  C_28
   10  A    between atoms: C_33  and  C_34
                            x       y       z     vdW  Elec       q    Type
                         _______ _______ _______ _____ _____    ______ ____

>  <TORSDO>
F 10

$$$$
