=
 OpenBabel11052417253D

 25 28  0  0  1  0  0  0  0  0999 V2000
  186.8410  176.9400  144.1270 C   0  0  0  0  0  0  0  0  0  0  0  0
  188.0790  176.2670  144.1170 C   0  0  0  0  0  0  0  0  0  0  0  0
  186.6830  176.7760  141.6960 C   0  0  0  0  0  3  0  0  0  0  0  0
  186.1310  177.4450  145.2310 C   0  0  0  0  0  0  0  0  0  0  0  0
  184.4160  178.5700  147.0950 C   0  0  0  0  0  3  0  0  0  0  0  0
  187.9150  176.1100  141.6760 C   0  0  0  0  0  3  0  0  0  0  0  0
  184.9370  178.0540  144.8620 C   0  0  0  0  0  0  0  0  0  0  0  0
  184.0940  178.6060  145.7690 N   0  0  0  0  0  0  0  0  0  0  0  0
  189.9010  175.1380  142.8510 C   0  0  0  0  0  0  0  0  0  0  0  0
  190.4990  174.9080  141.7680 O   0  0  0  0  0  0  0  0  0  0  0  0
  188.8860  176.0690  145.3760 C   0  0  0  0  0  2  0  0  0  0  0  0
  185.6120  177.9640  147.5230 C   0  0  0  0  0  3  0  0  0  0  0  0
  186.1690  177.1770  142.9250 C   0  0  0  0  0  0  0  0  0  0  0  0
  184.7160  177.9950  143.1940 S   0  0  0  0  0  0  0  0  0  0  0  0
  190.4800  174.7180  144.0890 N   0  0  0  0  0  2  0  0  0  0  0  0
  186.4810  177.3940  146.5810 C   0  0  0  0  0  3  0  0  0  0  0  0
  189.6950  174.7700  145.3180 C   0  0  1  0  0  3  0  0  0  0  0  0
  188.6130  175.8550  142.8720 C   0  0  0  0  0  0  0  0  0  0  0  0
  190.6170  174.6600  146.5170 C   0  0  0  0  0  2  0  0  0  0  0  0
  192.0680  174.7650  146.0790 C   0  0  0  0  0  2  0  0  0  0  0  0
  192.7270  175.9150  146.7640 C   0  0  0  0  0  0  0  0  0  0  0  0
  192.0280  176.6730  147.5430 N   0  0  0  0  0  2  0  0  0  0  0  0
  194.1350  176.2360  146.4870 C   0  0  0  0  0  0  0  0  0  0  0  0
  195.0340  175.2240  146.1760 O   0  0  0  0  0  0  0  0  0  0  0  0
  194.5370  177.4280  146.5310 O   0  0  0  0  0  1  0  0  0  0  0  0
  1  4  1  0  0  0  0
  2  1  1  0  0  0  0
  2 11  1  0  0  0  0
  3 13  1  0  0  0  0
  4 16  1  0  0  0  0
  5 12  1  0  0  0  0
  6  3  2  0  0  0  0
  6 18  1  0  0  0  0
  7  4  2  0  0  0  0
  7  8  1  0  0  0  0
  8  5  2  0  0  0  0
  9 18  1  0  0  0  0
  9 15  1  0  0  0  0
 10  9  2  0  0  0  0
 13 14  1  0  0  0  0
 13  1  2  0  0  0  0
 14  7  1  0  0  0  0
 15 17  1  0  0  0  0
 16 12  2  0  0  0  0
 17 11  1  0  0  0  0
 17 19  1  1  0  0  0
 18  2  2  0  0  0  0
 20 19  1  0  0  0  0
 20 21  1  0  0  0  0
 21 22  2  0  0  0  0
 23 25  1  0  0  0  0
 23 21  1  0  0  0  0
 24 23  2  0  0  0  0
M  END
>  <MODEL>
1

>  <REMARK>
 VINA RESULT:      -7.3      0.000      0.000
  Name = 
  4 active torsions:
  status: ('A' for Active; 'I' for Inactive)
    1  A    between atoms: C_2  and  CA_21
    2  A    between atoms: C_6  and  C_15
    3  A    between atoms: C_6  and  C_23
    4  A    between atoms: C_15  and  CA_21
                            x       y       z     vdW  Elec       q    Type
                         _______ _______ _______ _____ _____    ______ ____

>  <TORSDO>
F 4

$$$$
=
 OpenBabel11052417253D

 25 28  0  0  1  0  0  0  0  0999 V2000
  187.0620  177.7500  144.1950 C   0  0  0  0  0  0  0  0  0  0  0  0
  188.3800  177.4640  144.6040 C   0  0  0  0  0  0  0  0  0  0  0  0
  186.3310  177.9180  146.5180 C   0  0  0  0  0  3  0  0  0  0  0  0
  186.5560  177.8490  142.8860 C   0  0  0  0  0  0  0  0  0  0  0  0
  185.1580  178.1420  140.5120 C   0  0  0  0  0  3  0  0  0  0  0  0
  187.6360  177.6310  146.9340 C   0  0  0  0  0  3  0  0  0  0  0  0
  185.1990  178.1460  142.8620 C   0  0  0  0  0  0  0  0  0  0  0  0
  184.5090  178.2910  141.7030 N   0  0  0  0  0  0  0  0  0  0  0  0
  190.0360  177.1190  146.4300 C   0  0  0  0  0  0  0  0  0  0  0  0
  190.2970  176.8820  147.6380 O   0  0  0  0  0  0  0  0  0  0  0  0
  189.4640  177.1250  143.6120 C   0  0  0  0  0  2  0  0  0  0  0  0
  186.5320  177.8440  140.4800 C   0  0  0  0  0  3  0  0  0  0  0  0
  186.0700  177.9740  145.1530 C   0  0  0  0  0  0  0  0  0  0  0  0
  184.5810  178.2930  144.4210 S   0  0  0  0  0  0  0  0  0  0  0  0
  191.0820  177.0960  145.4570 N   0  0  0  0  0  2  0  0  0  0  0  0
  187.2420  177.6950  141.6800 C   0  0  0  0  0  3  0  0  0  0  0  0
  190.8350  177.5930  144.1060 C   0  0  1  0  0  3  0  0  0  0  0  0
  188.6570  177.4040  145.9910 C   0  0  0  0  0  0  0  0  0  0  0  0
  191.9330  177.1100  143.1770 C   0  0  0  0  0  2  0  0  0  0  0  0
  192.6120  175.8820  143.7560 C   0  0  0  0  0  2  0  0  0  0  0  0
  194.0760  176.1290  143.9070 C   0  0  0  0  0  0  0  0  0  0  0  0
  194.8420  176.0410  142.8690 N   0  0  0  0  0  2  0  0  0  0  0  0
  194.6530  176.3850  145.2340 C   0  0  0  0  0  0  0  0  0  0  0  0
  195.2980  175.3660  145.9230 O   0  0  0  0  0  1  0  0  0  0  0  0
  194.5660  177.5270  145.7570 O   0  0  0  0  0  0  0  0  0  0  0  0
  1  2  2  0  0  0  0
  1 13  1  0  0  0  0
  2 18  1  0  0  0  0
  3  6  1  0  0  0  0
  4  1  1  0  0  0  0
  5  8  1  0  0  0  0
  7  4  1  0  0  0  0
  7 14  1  0  0  0  0
  8  7  2  0  0  0  0
  9 10  2  0  0  0  0
 11 17  1  0  0  0  0
 11  2  1  0  0  0  0
 12  5  2  0  0  0  0
 12 16  1  0  0  0  0
 13  3  2  0  0  0  0
 14 13  1  0  0  0  0
 15  9  1  0  0  0  0
 16  4  2  0  0  0  0
 17 19  1  6  0  0  0
 17 15  1  0  0  0  0
 18  9  1  0  0  0  0
 18  6  2  0  0  0  0
 19 20  1  0  0  0  0
 20 21  1  0  0  0  0
 21 23  1  0  0  0  0
 22 21  2  0  0  0  0
 23 25  2  0  0  0  0
 23 24  1  0  0  0  0
M  END
>  <MODEL>
2

>  <REMARK>
 VINA RESULT:      -7.3      2.229      3.844
  Name = 
  4 active torsions:
  status: ('A' for Active; 'I' for Inactive)
    1  A    between atoms: C_2  and  CA_21
    2  A    between atoms: C_6  and  C_15
    3  A    between atoms: C_6  and  C_23
    4  A    between atoms: C_15  and  CA_21
                            x       y       z     vdW  Elec       q    Type
                         _______ _______ _______ _____ _____    ______ ____

>  <TORSDO>
F 4

$$$$
=
 OpenBabel11052417253D

 25 28  0  0  1  0  0  0  0  0999 V2000
  186.6080  176.9440  143.8690 C   0  0  0  0  0  0  0  0  0  0  0  0
  187.7500  176.1330  143.7080 C   0  0  0  0  0  0  0  0  0  0  0  0
  186.3130  177.0840  141.4490 C   0  0  0  0  0  3  0  0  0  0  0  0
  186.0210  177.3980  145.0630 C   0  0  0  0  0  0  0  0  0  0  0  0
  184.5530  178.4950  147.1420 C   0  0  0  0  0  3  0  0  0  0  0  0
  187.4490  176.2830  141.2800 C   0  0  0  0  0  3  0  0  0  0  0  0
  184.8970  178.1840  144.8390 C   0  0  0  0  0  0  0  0  0  0  0  0
  184.1750  178.7230  145.8520 N   0  0  0  0  0  0  0  0  0  0  0  0
  189.3510  174.9500  142.2150 C   0  0  0  0  0  0  0  0  0  0  0  0
  189.8630  174.7780  141.0780 O   0  0  0  0  0  0  0  0  0  0  0  0
  188.5850  175.6960  144.8850 C   0  0  0  0  0  2  0  0  0  0  0  0
  185.6820  177.7060  147.4260 C   0  0  0  0  0  3  0  0  0  0  0  0
  185.9130  177.3980  142.7450 C   0  0  0  0  0  0  0  0  0  0  0  0
  184.5900  178.3470  143.1920 S   0  0  0  0  0  0  0  0  0  0  0  0
  189.9320  174.3230  143.3610 N   0  0  0  0  0  2  0  0  0  0  0  0
  186.4260  177.1490  146.3760 C   0  0  0  0  0  3  0  0  0  0  0  0
  189.2200  174.3250  144.6350 C   0  0  1  0  0  3  0  0  0  0  0  0
  188.1660  175.8080  142.3950 C   0  0  0  0  0  0  0  0  0  0  0  0
  190.1780  173.9670  145.7560 C   0  0  0  0  0  2  0  0  0  0  0  0
  189.8640  174.7800  146.9990 C   0  0  0  0  0  2  0  0  0  0  0  0
  191.0290  175.6420  147.3540 C   0  0  0  0  0  0  0  0  0  0  0  0
  192.2250  175.1630  147.2510 N   0  0  0  0  0  2  0  0  0  0  0  0
  190.8160  176.9910  147.8990 C   0  0  0  0  0  0  0  0  0  0  0  0
  191.5960  177.4500  148.9540 O   0  0  0  0  0  1  0  0  0  0  0  0
  189.9260  177.7400  147.4160 O   0  0  0  0  0  0  0  0  0  0  0  0
  1  4  1  0  0  0  0
  2  1  1  0  0  0  0
  2 11  1  0  0  0  0
  3 13  1  0  0  0  0
  4 16  1  0  0  0  0
  5 12  1  0  0  0  0
  6  3  2  0  0  0  0
  6 18  1  0  0  0  0
  7  4  2  0  0  0  0
  7  8  1  0  0  0  0
  8  5  2  0  0  0  0
  9 18  1  0  0  0  0
  9 15  1  0  0  0  0
 10  9  2  0  0  0  0
 13 14  1  0  0  0  0
 13  1  2  0  0  0  0
 14  7  1  0  0  0  0
 15 17  1  0  0  0  0
 16 12  2  0  0  0  0
 17 11  1  0  0  0  0
 17 19  1  1  0  0  0
 18  2  2  0  0  0  0
 19 20  1  0  0  0  0
 20 21  1  0  0  0  0
 21 23  1  0  0  0  0
 22 21  2  0  0  0  0
 23 24  1  0  0  0  0
 25 23  2  0  0  0  0
M  END
>  <MODEL>
3

>  <REMARK>
 VINA RESULT:      -7.3      1.623      1.777
  Name = 
  4 active torsions:
  status: ('A' for Active; 'I' for Inactive)
    1  A    between atoms: C_2  and  CA_21
    2  A    between atoms: C_6  and  C_15
    3  A    between atoms: C_6  and  C_23
    4  A    between atoms: C_15  and  CA_21
                            x       y       z     vdW  Elec       q    Type
                         _______ _______ _______ _____ _____    ______ ____

>  <TORSDO>
F 4

$$$$
=
 OpenBabel11052417253D

 25 28  0  0  1  0  0  0  0  0999 V2000
  185.8680  177.5830  143.8520 C   0  0  0  0  0  0  0  0  0  0  0  0
  186.6880  176.9170  142.9190 C   0  0  0  0  0  0  0  0  0  0  0  0
  184.5050  178.5170  142.0550 C   0  0  0  0  0  3  0  0  0  0  0  0
  185.9680  177.5870  145.2550 C   0  0  0  0  0  0  0  0  0  0  0  0
  185.7900  177.8650  148.0070 C   0  0  0  0  0  3  0  0  0  0  0  0
  185.3170  177.8630  141.1200 C   0  0  0  0  0  3  0  0  0  0  0  0
  184.9820  178.3600  145.8560 C   0  0  0  0  0  0  0  0  0  0  0  0
  184.8890  178.4990  147.2020 N   0  0  0  0  0  0  0  0  0  0  0  0
  187.2440  176.3660  140.5560 C   0  0  0  0  0  0  0  0  0  0  0  0
  187.1420  176.6060  139.3250 O   0  0  0  0  0  0  0  0  0  0  0  0
  187.9090  176.1420  143.3450 C   0  0  0  0  0  2  0  0  0  0  0  0
  186.8080  177.0690  147.4500 C   0  0  0  0  0  3  0  0  0  0  0  0
  184.7970  178.3620  143.4060 C   0  0  0  0  0  0  0  0  0  0  0  0
  183.9700  179.0550  144.7050 S   0  0  0  0  0  0  0  0  0  0  0  0
  188.2020  175.4130  141.0200 N   0  0  0  0  0  2  0  0  0  0  0  0
  186.9000  176.9270  146.0580 C   0  0  0  0  0  3  0  0  0  0  0  0
  188.1700  174.9590  142.4070 C   0  0  1  0  0  3  0  0  0  0  0  0
  186.4010  177.0690  141.5410 C   0  0  0  0  0  0  0  0  0  0  0  0
  189.4830  174.2820  142.7530 C   0  0  0  0  0  2  0  0  0  0  0  0
  190.1290  174.9610  143.9480 C   0  0  0  0  0  2  0  0  0  0  0  0
  189.9320  174.1360  145.1740 C   0  0  0  0  0  0  0  0  0  0  0  0
  189.8080  172.8540  145.0610 N   0  0  0  0  0  2  0  0  0  0  0  0
  189.7930  174.7790  146.4890 C   0  0  0  0  0  0  0  0  0  0  0  0
  190.4860  175.9500  146.7710 O   0  0  0  0  0  0  0  0  0  0  0  0
  189.0480  174.2740  147.3690 O   0  0  0  0  0  1  0  0  0  0  0  0
  1  4  1  0  0  0  0
  2 11  1  0  0  0  0
  2  1  1  0  0  0  0
  3 13  1  0  0  0  0
  4  7  2  0  0  0  0
  4 16  1  0  0  0  0
  6 18  1  0  0  0  0
  6  3  2  0  0  0  0
  7  8  1  0  0  0  0
  8  5  2  0  0  0  0
  9 15  1  0  0  0  0
  9 18  1  0  0  0  0
 10  9  2  0  0  0  0
 12  5  1  0  0  0  0
 13  1  2  0  0  0  0
 13 14  1  0  0  0  0
 14  7  1  0  0  0  0
 15 17  1  0  0  0  0
 16 12  2  0  0  0  0
 17 19  1  1  0  0  0
 17 11  1  0  0  0  0
 18  2  2  0  0  0  0
 19 20  1  0  0  0  0
 20 21  1  0  0  0  0
 21 23  1  0  0  0  0
 22 21  2  0  0  0  0
 23 24  2  0  0  0  0
 23 25  1  0  0  0  0
M  END
>  <MODEL>
4

>  <REMARK>
 VINA RESULT:      -7.2      2.440      3.226
  Name = 
  4 active torsions:
  status: ('A' for Active; 'I' for Inactive)
    1  A    between atoms: C_2  and  CA_21
    2  A    between atoms: C_6  and  C_15
    3  A    between atoms: C_6  and  C_23
    4  A    between atoms: C_15  and  CA_21
                            x       y       z     vdW  Elec       q    Type
                         _______ _______ _______ _____ _____    ______ ____

>  <TORSDO>
F 4

$$$$
=
 OpenBabel11052417253D

 25 28  0  0  1  0  0  0  0  0999 V2000
  185.6450  177.8990  143.6640 C   0  0  0  0  0  0  0  0  0  0  0  0
  186.3660  177.6810  144.8540 C   0  0  0  0  0  0  0  0  0  0  0  0
  183.7440  178.7710  144.9230 C   0  0  0  0  0  3  0  0  0  0  0  0
  186.0430  177.6370  142.3400 C   0  0  0  0  0  0  0  0  0  0  0  0
  186.4180  177.2930  139.6160 C   0  0  0  0  0  3  0  0  0  0  0  0
  184.4510  178.5550  146.1120 C   0  0  0  0  0  3  0  0  0  0  0  0
  185.0670  177.9790  141.4130 C   0  0  0  0  0  0  0  0  0  0  0  0
  185.2450  177.8130  140.0790 N   0  0  0  0  0  0  0  0  0  0  0  0
  186.5030  177.8040  147.3360 C   0  0  0  0  0  0  0  0  0  0  0  0
  185.9420  177.9160  148.4570 O   0  0  0  0  0  0  0  0  0  0  0  0
  187.7190  177.0160  144.8520 C   0  0  0  0  0  2  0  0  0  0  0  0
  187.4410  176.9320  140.5120 C   0  0  0  0  0  3  0  0  0  0  0  0
  184.3570  178.4390  143.7190 C   0  0  0  0  0  0  0  0  0  0  0  0
  183.7000  178.6030  142.1720 S   0  0  0  0  0  0  0  0  0  0  0  0
  187.8850  177.4470  147.2620 N   0  0  0  0  0  2  0  0  0  0  0  0
  187.2530  177.1050  141.8910 C   0  0  0  0  0  3  0  0  0  0  0  0
  188.5970  177.5410  145.9920 C   0  0  1  0  0  3  0  0  0  0  0  0
  185.7520  178.0140  146.0850 C   0  0  0  0  0  0  0  0  0  0  0  0
  189.8930  176.7560  146.0740 C   0  0  0  0  0  2  0  0  0  0  0  0
  190.3390  176.3260  144.6880 C   0  0  0  0  0  2  0  0  0  0  0  0
  191.4620  177.1880  144.2210 C   0  0  0  0  0  0  0  0  0  0  0  0
  191.1970  178.2810  143.5830 N   0  0  0  0  0  2  0  0  0  0  0  0
  192.8560  176.7590  144.4060 C   0  0  0  0  0  0  0  0  0  0  0  0
  193.4360  176.7910  145.6680 O   0  0  0  0  0  1  0  0  0  0  0  0
  193.5350  176.3610  143.4230 O   0  0  0  0  0  0  0  0  0  0  0  0
  1 13  1  0  0  0  0
  1  2  2  0  0  0  0
  2 18  1  0  0  0  0
  3  6  1  0  0  0  0
  4  1  1  0  0  0  0
  5  8  2  0  0  0  0
  5 12  1  0  0  0  0
  7 14  1  0  0  0  0
  7  4  2  0  0  0  0
  8  7  1  0  0  0  0
  9 10  2  0  0  0  0
 11  2  1  0  0  0  0
 11 17  1  0  0  0  0
 12 16  2  0  0  0  0
 13  3  2  0  0  0  0
 14 13  1  0  0  0  0
 15  9  1  0  0  0  0
 16  4  1  0  0  0  0
 17 19  1  1  0  0  0
 17 15  1  0  0  0  0
 18  6  2  0  0  0  0
 18  9  1  0  0  0  0
 20 19  1  0  0  0  0
 21 23  1  0  0  0  0
 21 20  1  0  0  0  0
 22 21  2  0  0  0  0
 23 24  1  0  0  0  0
 25 23  2  0  0  0  0
M  END
>  <MODEL>
5

>  <REMARK>
 VINA RESULT:      -7.1      2.824      4.500
  Name = 
  4 active torsions:
  status: ('A' for Active; 'I' for Inactive)
    1  A    between atoms: C_2  and  CA_21
    2  A    between atoms: C_6  and  C_15
    3  A    between atoms: C_6  and  C_23
    4  A    between atoms: C_15  and  CA_21
                            x       y       z     vdW  Elec       q    Type
                         _______ _______ _______ _____ _____    ______ ____

>  <TORSDO>
F 4

$$$$
=
 OpenBabel11052417253D

 25 28  0  0  1  0  0  0  0  0999 V2000
  185.6510  177.9280  143.6690 C   0  0  0  0  0  0  0  0  0  0  0  0
  186.3720  177.6990  144.8580 C   0  0  0  0  0  0  0  0  0  0  0  0
  183.7550  178.8030  144.9340 C   0  0  0  0  0  3  0  0  0  0  0  0
  186.0480  177.6720  142.3440 C   0  0  0  0  0  0  0  0  0  0  0  0
  186.4210  177.3430  139.6180 C   0  0  0  0  0  3  0  0  0  0  0  0
  184.4610  178.5750  146.1220 C   0  0  0  0  0  3  0  0  0  0  0  0
  185.0730  178.0240  141.4190 C   0  0  0  0  0  0  0  0  0  0  0  0
  185.2500  177.8660  140.0840 N   0  0  0  0  0  0  0  0  0  0  0  0
  186.5090  177.8070  147.3410 C   0  0  0  0  0  0  0  0  0  0  0  0
  185.9490  177.9150  148.4630 O   0  0  0  0  0  0  0  0  0  0  0  0
  187.7210  177.0270  144.8520 C   0  0  0  0  0  2  0  0  0  0  0  0
  187.4420  176.9710  140.5120 C   0  0  0  0  0  3  0  0  0  0  0  0
  184.3660  178.4750  143.7280 C   0  0  0  0  0  0  0  0  0  0  0  0
  183.7100  178.6510  142.1820 S   0  0  0  0  0  0  0  0  0  0  0  0
  187.8900  177.4440  147.2650 N   0  0  0  0  0  2  0  0  0  0  0  0
  187.2550  177.1370  141.8920 C   0  0  0  0  0  3  0  0  0  0  0  0
  188.6020  177.5410  145.9950 C   0  0  1  0  0  3  0  0  0  0  0  0
  185.7590  178.0280  146.0920 C   0  0  0  0  0  0  0  0  0  0  0  0
  189.8940  176.7490  146.0720 C   0  0  0  0  0  2  0  0  0  0  0  0
  189.6000  175.2860  146.3530 C   0  0  0  0  0  2  0  0  0  0  0  0
  190.4210  174.4180  145.4590 C   0  0  0  0  0  0  0  0  0  0  0  0
  191.7100  174.4570  145.5500 N   0  0  0  0  0  2  0  0  0  0  0  0
  189.7760  173.5940  144.4270 C   0  0  0  0  0  0  0  0  0  0  0  0
  189.6890  172.2160  144.5870 O   0  0  0  0  0  1  0  0  0  0  0  0
  189.3000  174.1270  143.3910 O   0  0  0  0  0  0  0  0  0  0  0  0
  1 13  1  0  0  0  0
  1  2  2  0  0  0  0
  2 18  1  0  0  0  0
  3  6  1  0  0  0  0
  4  1  1  0  0  0  0
  5  8  2  0  0  0  0
  5 12  1  0  0  0  0
  7 14  1  0  0  0  0
  7  4  2  0  0  0  0
  8  7  1  0  0  0  0
  9 10  2  0  0  0  0
 11  2  1  0  0  0  0
 11 17  1  0  0  0  0
 12 16  2  0  0  0  0
 13  3  2  0  0  0  0
 14 13  1  0  0  0  0
 15  9  1  0  0  0  0
 16  4  1  0  0  0  0
 17 19  1  1  0  0  0
 17 15  1  0  0  0  0
 18  6  2  0  0  0  0
 18  9  1  0  0  0  0
 19 20  1  0  0  0  0
 21 22  2  0  0  0  0
 21 20  1  0  0  0  0
 23 24  1  0  0  0  0
 23 21  1  0  0  0  0
 25 23  2  0  0  0  0
M  END
>  <MODEL>
6

>  <REMARK>
 VINA RESULT:      -7.1      2.710      4.859
  Name = 
  4 active torsions:
  status: ('A' for Active; 'I' for Inactive)
    1  A    between atoms: C_2  and  CA_21
    2  A    between atoms: C_6  and  C_15
    3  A    between atoms: C_6  and  C_23
    4  A    between atoms: C_15  and  CA_21
                            x       y       z     vdW  Elec       q    Type
                         _______ _______ _______ _____ _____    ______ ____

>  <TORSDO>
F 4

$$$$
=
 OpenBabel11052417253D

 25 28  0  0  1  0  0  0  0  0999 V2000
  186.7520  177.3140  143.1990 C   0  0  0  0  0  0  0  0  0  0  0  0
  186.8190  177.2640  144.6050 C   0  0  0  0  0  0  0  0  0  0  0  0
  185.4550  179.3810  143.2900 C   0  0  0  0  0  3  0  0  0  0  0  0
  187.2900  176.4090  142.2660 C   0  0  0  0  0  0  0  0  0  0  0  0
  188.1750  174.9090  140.1100 C   0  0  0  0  0  3  0  0  0  0  0  0
  185.5130  179.3380  144.6880 C   0  0  0  0  0  3  0  0  0  0  0  0
  187.0260  176.7780  140.9530 C   0  0  0  0  0  0  0  0  0  0  0  0
  187.4570  176.0490  139.8940 N   0  0  0  0  0  0  0  0  0  0  0  0
  186.2620  178.2560  146.8190 C   0  0  0  0  0  0  0  0  0  0  0  0
  185.5740  179.0400  147.5240 O   0  0  0  0  0  0  0  0  0  0  0  0
  187.4510  176.1030  145.3300 C   0  0  0  0  0  2  0  0  0  0  0  0
  188.4720  174.4910  141.4200 C   0  0  0  0  0  3  0  0  0  0  0  0
  186.0790  178.3660  142.5710 C   0  0  0  0  0  0  0  0  0  0  0  0
  186.1350  178.2060  140.8910 S   0  0  0  0  0  0  0  0  0  0  0  0
  187.1190  177.3000  147.4460 N   0  0  0  0  0  2  0  0  0  0  0  0
  188.0250  175.2480  142.5130 C   0  0  0  0  0  3  0  0  0  0  0  0
  188.0860  176.5520  146.6490 C   0  0  1  0  0  3  0  0  0  0  0  0
  186.1860  178.2910  145.3470 C   0  0  0  0  0  0  0  0  0  0  0  0
  188.5810  175.3550  147.4390 C   0  0  0  0  0  2  0  0  0  0  0  0
  189.6460  174.6080  146.6550 C   0  0  0  0  0  2  0  0  0  0  0  0
  190.9670  175.2840  146.8150 C   0  0  0  0  0  0  0  0  0  0  0  0
  191.5170  175.3290  147.9830 N   0  0  0  0  0  2  0  0  0  0  0  0
  191.5940  175.9680  145.6740 C   0  0  0  0  0  0  0  0  0  0  0  0
  190.9270  176.0530  144.4580 O   0  0  0  0  0  0  0  0  0  0  0  0
  192.7390  176.4780  145.7890 O   0  0  0  0  0  1  0  0  0  0  0  0
  1  2  2  0  0  0  0
  2 11  1  0  0  0  0
  2 18  1  0  0  0  0
  3  6  1  0  0  0  0
  4 16  1  0  0  0  0
  4  1  1  0  0  0  0
  5 12  1  0  0  0  0
  6 18  2  0  0  0  0
  7  4  2  0  0  0  0
  8  5  2  0  0  0  0
  8  7  1  0  0  0  0
  9 15  1  0  0  0  0
  9 10  2  0  0  0  0
 11 17  1  0  0  0  0
 12 16  2  0  0  0  0
 13  1  1  0  0  0  0
 13  3  2  0  0  0  0
 14  7  1  0  0  0  0
 14 13  1  0  0  0  0
 17 19  1  1  0  0  0
 17 15  1  0  0  0  0
 18  9  1  0  0  0  0
 20 21  1  0  0  0  0
 20 19  1  0  0  0  0
 21 22  2  0  0  0  0
 23 25  1  0  0  0  0
 23 21  1  0  0  0  0
 24 23  2  0  0  0  0
M  END
>  <MODEL>
7

>  <REMARK>
 VINA RESULT:      -7.1      2.623      4.520
  Name = 
  4 active torsions:
  status: ('A' for Active; 'I' for Inactive)
    1  A    between atoms: C_2  and  CA_21
    2  A    between atoms: C_6  and  C_15
    3  A    between atoms: C_6  and  C_23
    4  A    between atoms: C_15  and  CA_21
                            x       y       z     vdW  Elec       q    Type
                         _______ _______ _______ _____ _____    ______ ____

>  <TORSDO>
F 4

$$$$
=
 OpenBabel11052417253D

 25 28  0  0  1  0  0  0  0  0999 V2000
  186.6840  176.9780  144.2160 C   0  0  0  0  0  0  0  0  0  0  0  0
  187.8050  176.2200  144.6080 C   0  0  0  0  0  0  0  0  0  0  0  0
  186.0200  177.2830  146.5450 C   0  0  0  0  0  3  0  0  0  0  0  0
  186.2700  177.3170  142.9150 C   0  0  0  0  0  0  0  0  0  0  0  0
  185.1120  178.2080  140.5600 C   0  0  0  0  0  3  0  0  0  0  0  0
  187.1280  176.5270  146.9450 C   0  0  0  0  0  3  0  0  0  0  0  0
  185.1100  178.0810  142.9070 C   0  0  0  0  0  0  0  0  0  0  0  0
  184.5390  178.5200  141.7580 N   0  0  0  0  0  0  0  0  0  0  0  0
  189.1940  175.2150  146.4120 C   0  0  0  0  0  0  0  0  0  0  0  0
  189.3310  174.8410  147.6060 O   0  0  0  0  0  0  0  0  0  0  0  0
  188.7120  175.5640  143.5990 C   0  0  0  0  0  2  0  0  0  0  0  0
  186.2890  177.4390  140.5110 C   0  0  0  0  0  3  0  0  0  0  0  0
  185.8200  177.4960  145.1850 C   0  0  0  0  0  0  0  0  0  0  0  0
  184.5580  178.3630  144.4720 S   0  0  0  0  0  0  0  0  0  0  0  0
  190.1800  174.8670  145.4380 N   0  0  0  0  0  2  0  0  0  0  0  0
  186.8770  176.9870  141.7010 C   0  0  0  0  0  3  0  0  0  0  0  0
  190.1520  175.4850  144.1160 C   0  0  1  0  0  3  0  0  0  0  0  0
  188.0170  175.9960  145.9900 C   0  0  0  0  0  0  0  0  0  0  0  0
  191.0200  174.6870  143.1610 C   0  0  0  0  0  2  0  0  0  0  0  0
  190.3150  174.5100  141.8280 C   0  0  0  0  0  2  0  0  0  0  0  0
  190.3760  173.0820  141.4020 C   0  0  0  0  0  0  0  0  0  0  0  0
  190.8910  172.7850  140.2540 N   0  0  0  0  0  2  0  0  0  0  0  0
  189.7770  172.0310  142.2380 C   0  0  0  0  0  0  0  0  0  0  0  0
  188.4830  172.1760  142.7230 O   0  0  0  0  0  1  0  0  0  0  0  0
  190.4320  170.9940  142.5230 O   0  0  0  0  0  0  0  0  0  0  0  0
  1  2  2  0  0  0  0
  1 13  1  0  0  0  0
  2 18  1  0  0  0  0
  3  6  1  0  0  0  0
  4  1  1  0  0  0  0
  5  8  1  0  0  0  0
  7  4  1  0  0  0  0
  7 14  1  0  0  0  0
  8  7  2  0  0  0  0
  9 10  2  0  0  0  0
 11 17  1  0  0  0  0
 11  2  1  0  0  0  0
 12  5  2  0  0  0  0
 12 16  1  0  0  0  0
 13  3  2  0  0  0  0
 14 13  1  0  0  0  0
 15  9  1  0  0  0  0
 16  4  2  0  0  0  0
 17 19  1  6  0  0  0
 17 15  1  0  0  0  0
 18  9  1  0  0  0  0
 18  6  2  0  0  0  0
 20 19  1  0  0  0  0
 21 20  1  0  0  0  0
 21 23  1  0  0  0  0
 22 21  2  0  0  0  0
 23 25  2  0  0  0  0
 23 24  1  0  0  0  0
M  END
>  <MODEL>
8

>  <REMARK>
 VINA RESULT:      -7.0      2.636      4.928
  Name = 
  4 active torsions:
  status: ('A' for Active; 'I' for Inactive)
    1  A    between atoms: C_2  and  CA_21
    2  A    between atoms: C_6  and  C_15
    3  A    between atoms: C_6  and  C_23
    4  A    between atoms: C_15  and  CA_21
                            x       y       z     vdW  Elec       q    Type
                         _______ _______ _______ _____ _____    ______ ____

>  <TORSDO>
F 4

$$$$
=
 OpenBabel11052417253D

 25 28  0  0  1  0  0  0  0  0999 V2000
  186.4840  177.9220  144.7840 C   0  0  0  0  0  0  0  0  0  0  0  0
  187.8320  177.5540  144.9670 C   0  0  0  0  0  0  0  0  0  0  0  0
  186.2030  178.2550  147.1860 C   0  0  0  0  0  3  0  0  0  0  0  0
  185.7560  178.0000  143.5830 C   0  0  0  0  0  0  0  0  0  0  0  0
  183.9700  178.2910  141.4840 C   0  0  0  0  0  3  0  0  0  0  0  0
  187.5400  177.8860  147.3780 C   0  0  0  0  0  3  0  0  0  0  0  0
  184.4400  178.4000  143.7840 C   0  0  0  0  0  0  0  0  0  0  0  0
  183.5620  178.5450  142.7610 N   0  0  0  0  0  0  0  0  0  0  0  0
  189.7660  177.1660  146.4850 C   0  0  0  0  0  0  0  0  0  0  0  0
  190.2260  176.9650  147.6390 O   0  0  0  0  0  0  0  0  0  0  0  0
  188.6900  177.0850  143.8190 C   0  0  0  0  0  2  0  0  0  0  0  0
  185.2920  177.8840  141.2240 C   0  0  0  0  0  3  0  0  0  0  0  0
  185.7010  178.2670  145.8880 C   0  0  0  0  0  0  0  0  0  0  0  0
  184.1300  178.6670  145.4170 S   0  0  0  0  0  0  0  0  0  0  0  0
  190.6120  177.0150  145.3430 N   0  0  0  0  0  2  0  0  0  0  0  0
  186.1970  177.7360  142.2850 C   0  0  0  0  0  3  0  0  0  0  0  0
  190.1580  177.4670  144.0310 C   0  0  1  0  0  3  0  0  0  0  0  0
  188.3530  177.5360  146.2830 C   0  0  0  0  0  0  0  0  0  0  0  0
  191.0310  176.8570  142.9510 C   0  0  0  0  0  2  0  0  0  0  0  0
  191.5790  175.5160  143.4090 C   0  0  0  0  0  2  0  0  0  0  0  0
  190.7700  174.4070  142.8260 C   0  0  0  0  0  0  0  0  0  0  0  0
  190.6990  174.2840  141.5410 N   0  0  0  0  0  2  0  0  0  0  0  0
  189.9920  173.5160  143.6990 C   0  0  0  0  0  0  0  0  0  0  0  0
  189.3190  172.4250  143.1630 O   0  0  0  0  0  0  0  0  0  0  0  0
  189.9270  173.7350  144.9370 O   0  0  0  0  0  1  0  0  0  0  0  0
  1  2  2  0  0  0  0
  1 13  1  0  0  0  0
  2 18  1  0  0  0  0
  3  6  1  0  0  0  0
  4  7  1  0  0  0  0
  4  1  1  0  0  0  0
  5  8  1  0  0  0  0
  7 14  1  0  0  0  0
  8  7  2  0  0  0  0
  9 10  2  0  0  0  0
 11 17  1  0  0  0  0
 11  2  1  0  0  0  0
 12  5  2  0  0  0  0
 12 16  1  0  0  0  0
 13  3  2  0  0  0  0
 14 13  1  0  0  0  0
 15  9  1  0  0  0  0
 16  4  2  0  0  0  0
 17 19  1  6  0  0  0
 17 15  1  0  0  0  0
 18  9  1  0  0  0  0
 18  6  2  0  0  0  0
 19 20  1  0  0  0  0
 21 20  1  0  0  0  0
 21 23  1  0  0  0  0
 22 21  2  0  0  0  0
 23 25  1  0  0  0  0
 24 23  2  0  0  0  0
M  END
>  <MODEL>
9

>  <REMARK>
 VINA RESULT:      -7.0      2.510      4.439
  Name = 
  4 active torsions:
  status: ('A' for Active; 'I' for Inactive)
    1  A    between atoms: C_2  and  CA_21
    2  A    between atoms: C_6  and  C_15
    3  A    between atoms: C_6  and  C_23
    4  A    between atoms: C_15  and  CA_21
                            x       y       z     vdW  Elec       q    Type
                         _______ _______ _______ _____ _____    ______ ____

>  <TORSDO>
F 4

$$$$
