=
 OpenBabel11052417093D

 30 32  0  0  1  0  0  0  0  0999 V2000
  191.5810  175.7860  143.9280 C   0  0  1  0  0  3  0  0  0  0  0  0
  189.7120  174.0120  144.1080 C   0  0  2  0  0  3  0  0  0  0  0  0
  190.8680  176.5110  142.8850 N   0  0  0  0  0  2  0  0  0  0  0  0
  187.2090  176.7060  143.7600 C   0  0  0  0  0  3  0  0  0  0  0  0
  188.5420  176.2760  143.7920 C   0  0  0  0  0  0  0  0  0  0  0  0
  189.0600  177.8740  142.0350 C   0  0  0  0  0  3  0  0  0  0  0  0
  189.4860  176.8800  142.9220 C   0  0  0  0  0  0  0  0  0  0  0  0
  188.8630  175.1400  144.7250 C   0  0  2  0  0  3  0  0  0  0  0  0
  186.8030  177.7110  142.8810 C   0  0  0  0  0  3  0  0  0  0  0  0
  187.7280  178.2920  142.0150 C   0  0  0  0  0  3  0  0  0  0  0  0
  191.2140  174.2950  143.9520 C   0  0  2  0  0  3  0  0  0  0  0  0
  193.9050  176.3340  144.8600 C   0  0  0  0  0  0  0  0  0  0  0  0
  195.2730  176.5220  144.6380 C   0  0  0  0  0  3  0  0  0  0  0  0
  193.3010  176.5230  146.5010 Cl  0  0  0  0  0  0  0  0  0  0  0  0
  193.6070  175.8650  142.4970 C   0  0  0  0  0  3  0  0  0  0  0  0
  195.4920  175.9210  141.0410 F   0  0  0  0  0  0  0  0  0  0  0  0
  193.0600  176.0010  143.7770 C   0  0  0  0  0  0  0  0  0  0  0  0
  195.8070  176.3840  143.3550 C   0  0  0  0  0  3  0  0  0  0  0  0
  194.9750  176.0550  142.2850 C   0  0  0  0  0  0  0  0  0  0  0  0
  191.9400  173.6220  145.0070 N   0  0  0  0  0  0  0  0  0  0  0  0
  193.2350  172.2940  143.4080 C   0  0  0  0  0  1  0  0  0  0  0  0
  192.8390  172.7250  144.7870 C   0  0  0  0  0  3  0  0  0  0  0  0
  188.9930  174.6140  147.3050 O   0  0  0  0  0  0  0  0  0  0  0  0
  189.4520  175.7030  146.3450 S   0  0  2  0  0  0  0  0  0  0  0  0
  188.4140  177.1210  146.7670 C   0  0  0  0  0  2  0  0  0  0  0  0
  187.0500  176.6660  147.2480 C   0  0  0  0  0  1  0  0  0  0  0  0
  189.1320  173.4770  142.8030 C   0  0  0  0  0  2  0  0  0  0  0  0
  190.2320  171.7340  141.5910 O   0  0  0  0  0  1  0  0  0  0  0  0
  190.2340  173.1110  141.8230 C   0  0  1  0  0  3  0  0  0  0  0  0
  189.9990  173.8360  140.5160 C   0  0  0  0  0  1  0  0  0  0  0  0
  1 17  1  6  0  0  0
  1 11  1  0  0  0  0
  2 27  1  6  0  0  0
  2  8  1  0  0  0  0
  3  7  1  0  0  0  0
  3  1  1  0  0  0  0
  4  5  1  0  0  0  0
  5  8  1  0  0  0  0
  6  7  1  0  0  0  0
  7  5  2  0  0  0  0
  8 24  1  1  0  0  0
  9  4  2  0  0  0  0
 10  6  2  0  0  0  0
 10  9  1  0  0  0  0
 11  2  1  0  0  0  0
 11 20  1  1  0  0  0
 12 14  1  0  0  0  0
 13 12  1  0  0  0  0
 15 17  1  0  0  0  0
 16 19  1  0  0  0  0
 17 12  2  0  0  0  0
 18 13  2  0  0  0  0
 19 15  2  0  0  0  0
 19 18  1  0  0  0  0
 21 22  1  0  0  0  0
 22 20  2  0  0  0  0
 24 25  1  0  0  0  0
 24 23  2  1  0  0  0
 25 26  1  0  0  0  0
 28 29  1  0  0  0  0
 29 30  1  6  0  0  0
 29 27  1  0  0  0  0
M  END
>  <MODEL>
1

>  <REMARK>
 VINA RESULT:      -6.3      0.000      0.000
  Name = 
  6 active torsions:
  status: ('A' for Active; 'I' for Inactive)
    1  A    between atoms: C_1  and  C_22
    2  A    between atoms: C_4  and  C_25
    3  A    between atoms: C_7  and  S_30
    4  A    between atoms: N_10  and  C_23
    5  A    between atoms: C_11  and  C_25
    6  A    between atoms: C_13  and  S_30
                            x       y       z     vdW  Elec       q    Type
                         _______ _______ _______ _____ _____    ______ ____

>  <TORSDO>
F 6

$$$$
=
 OpenBabel11052417093D

 30 32  0  0  1  0  0  0  0  0999 V2000
  190.5070  174.1450  143.5250 C   0  0  1  0  0  3  0  0  0  0  0  0
  191.2280  176.6200  143.3690 C   0  0  2  0  0  3  0  0  0  0  0  0
  190.1280  174.2860  144.9240 N   0  0  0  0  0  2  0  0  0  0  0  0
  188.2900  177.5380  145.4110 C   0  0  0  0  0  3  0  0  0  0  0  0
  189.0980  176.5690  144.8020 C   0  0  0  0  0  0  0  0  0  0  0  0
  188.7530  175.1270  146.7280 C   0  0  0  0  0  3  0  0  0  0  0  0
  189.3230  175.3370  145.4680 C   0  0  0  0  0  0  0  0  0  0  0  0
  189.7260  176.9430  143.4870 C   0  0  2  0  0  3  0  0  0  0  0  0
  187.7150  177.3070  146.6610 C   0  0  0  0  0  3  0  0  0  0  0  0
  187.9510  176.1030  147.3220 C   0  0  0  0  0  3  0  0  0  0  0  0
  191.5930  175.1500  143.1150 C   0  0  2  0  0  3  0  0  0  0  0  0
  190.3470  171.9440  142.2210 C   0  0  0  0  0  0  0  0  0  0  0  0
  190.7800  170.6280  142.0300 C   0  0  0  0  0  3  0  0  0  0  0  0
  189.0950  172.5640  141.1530 Cl  0  0  0  0  0  0  0  0  0  0  0  0
  191.9110  172.1700  144.0640 C   0  0  0  0  0  3  0  0  0  0  0  0
  193.2980  170.3280  144.6610 F   0  0  0  0  0  0  0  0  0  0  0  0
  190.9180  172.7270  143.2500 C   0  0  0  0  0  0  0  0  0  0  0  0
  191.7710  170.0840  142.8490 C   0  0  0  0  0  3  0  0  0  0  0  0
  192.3360  170.8540  143.8660 C   0  0  0  0  0  0  0  0  0  0  0  0
  191.9280  174.9740  141.7180 N   0  0  0  0  0  0  0  0  0  0  0  0
  194.2200  174.2910  142.2480 C   0  0  0  0  0  1  0  0  0  0  0  0
  193.0920  174.5990  141.3110 C   0  0  0  0  0  3  0  0  0  0  0  0
  188.2790  177.7100  141.4210 O   0  0  0  0  0  0  0  0  0  0  0  0
  188.7440  176.4080  142.0590 S   0  0  2  0  0  0  0  0  0  0  0  0
  187.2330  175.7000  142.7530 C   0  0  0  0  0  2  0  0  0  0  0  0
  186.0800  176.6790  142.6440 C   0  0  0  0  0  1  0  0  0  0  0  0
  192.0490  177.1810  144.5260 C   0  0  0  0  0  2  0  0  0  0  0  0
  194.3840  176.7280  144.7670 O   0  0  0  0  0  1  0  0  0  0  0  0
  193.1120  176.1920  144.9730 C   0  0  1  0  0  3  0  0  0  0  0  0
  192.9290  175.8960  146.4460 C   0  0  0  0  0  1  0  0  0  0  0  0
  1 17  1  1  0  0  0
  1  3  1  0  0  0  0
  2  8  1  0  0  0  0
  2 27  1  1  0  0  0
  3  7  1  0  0  0  0
  4  9  1  0  0  0  0
  5  4  2  0  0  0  0
  5  7  1  0  0  0  0
  6 10  1  0  0  0  0
  7  6  2  0  0  0  0
  8 24  1  6  0  0  0
  8  5  1  0  0  0  0
  9 10  2  0  0  0  0
 11 20  1  6  0  0  0
 11  2  1  0  0  0  0
 11  1  1  0  0  0  0
 12 17  1  0  0  0  0
 13 12  2  0  0  0  0
 13 18  1  0  0  0  0
 14 12  1  0  0  0  0
 17 15  2  0  0  0  0
 18 19  2  0  0  0  0
 19 15  1  0  0  0  0
 19 16  1  0  0  0  0
 22 20  2  0  0  0  0
 22 21  1  0  0  0  0
 24 23  2  6  0  0  0
 24 25  1  0  0  0  0
 26 25  1  0  0  0  0
 27 29  1  0  0  0  0
 28 29  1  0  0  0  0
 29 30  1  1  0  0  0
M  END
>  <MODEL>
2

>  <REMARK>
 VINA RESULT:      -6.1      3.028      5.019
  Name = 
  6 active torsions:
  status: ('A' for Active; 'I' for Inactive)
    1  A    between atoms: C_1  and  C_22
    2  A    between atoms: C_4  and  C_25
    3  A    between atoms: C_7  and  S_30
    4  A    between atoms: N_10  and  C_23
    5  A    between atoms: C_11  and  C_25
    6  A    between atoms: C_13  and  S_30
                            x       y       z     vdW  Elec       q    Type
                         _______ _______ _______ _____ _____    ______ ____

>  <TORSDO>
F 6

$$$$
=
 OpenBabel11052417093D

 30 32  0  0  1  0  0  0  0  0999 V2000
  188.5020  176.2710  144.6480 C   0  0  1  0  0  3  0  0  0  0  0  0
  188.8810  175.9450  142.1140 C   0  0  2  0  0  3  0  0  0  0  0  0
  188.6500  174.8460  144.9100 N   0  0  0  0  0  2  0  0  0  0  0  0
  191.5240  173.4840  142.8920 C   0  0  0  0  0  3  0  0  0  0  0  0
  190.5170  174.3650  143.3070 C   0  0  0  0  0  0  0  0  0  0  0  0
  189.9010  172.7800  145.0450 C   0  0  0  0  0  3  0  0  0  0  0  0
  189.6990  174.0110  144.4110 C   0  0  0  0  0  0  0  0  0  0  0  0
  190.3380  175.6170  142.4940 C   0  0  2  0  0  3  0  0  0  0  0  0
  191.7230  172.2670  143.5450 C   0  0  0  0  0  3  0  0  0  0  0  0
  190.9080  171.9130  144.6190 C   0  0  0  0  0  3  0  0  0  0  0  0
  188.0060  176.5500  143.2220 C   0  0  2  0  0  3  0  0  0  0  0  0
  188.1050  177.5260  146.8480 C   0  0  0  0  0  0  0  0  0  0  0  0
  187.2100  178.0750  147.7720 C   0  0  0  0  0  3  0  0  0  0  0  0
  189.8260  177.6600  147.1860 Cl  0  0  0  0  0  0  0  0  0  0  0  0
  186.2290  176.8180  145.4800 C   0  0  0  0  0  3  0  0  0  0  0  0
  184.0070  177.2940  146.1970 F   0  0  0  0  0  0  0  0  0  0  0  0
  187.6110  176.8900  145.6870 C   0  0  0  0  0  0  0  0  0  0  0  0
  185.8330  177.9970  147.5540 C   0  0  0  0  0  3  0  0  0  0  0  0
  185.3420  177.3690  146.4090 C   0  0  0  0  0  0  0  0  0  0  0  0
  187.8840  177.9760  143.0100 N   0  0  0  0  0  0  0  0  0  0  0  0
  185.7420  177.7230  141.8490 C   0  0  0  0  0  1  0  0  0  0  0  0
  186.8880  178.5170  142.3960 C   0  0  0  0  0  3  0  0  0  0  0  0
  192.4700  177.1490  142.2480 O   0  0  0  0  0  0  0  0  0  0  0  0
  191.2590  177.0300  143.1630 S   0  0  2  0  0  0  0  0  0  0  0  0
  191.9520  176.4520  144.7290 C   0  0  0  0  0  2  0  0  0  0  0  0
  193.4580  176.3070  144.6300 C   0  0  0  0  0  1  0  0  0  0  0  0
  188.1640  174.7750  141.4480 C   0  0  0  0  0  2  0  0  0  0  0  0
  189.1700  172.8840  140.3870 O   0  0  0  0  0  1  0  0  0  0  0  0
  188.9520  174.2560  140.2570 C   0  0  1  0  0  3  0  0  0  0  0  0
  188.1680  174.5180  138.9900 C   0  0  0  0  0  1  0  0  0  0  0  0
  1  3  1  0  0  0  0
  1 17  1  1  0  0  0
  2 27  1  1  0  0  0
  2  8  1  0  0  0  0
  2 11  1  0  0  0  0
  4  5  2  0  0  0  0
  4  9  1  0  0  0  0
  5  7  1  0  0  0  0
  7  3  1  0  0  0  0
  7  6  2  0  0  0  0
  8 24  1  1  0  0  0
  8  5  1  0  0  0  0
  9 10  2  0  0  0  0
 10  6  1  0  0  0  0
 11 20  1  6  0  0  0
 11  1  1  0  0  0  0
 12 14  1  0  0  0  0
 12 13  1  0  0  0  0
 15 17  1  0  0  0  0
 15 19  2  0  0  0  0
 16 19  1  0  0  0  0
 17 12  2  0  0  0  0
 18 13  2  0  0  0  0
 19 18  1  0  0  0  0
 21 22  1  0  0  0  0
 22 20  2  0  0  0  0
 24 23  2  6  0  0  0
 24 25  1  0  0  0  0
 26 25  1  0  0  0  0
 29 30  1  6  0  0  0
 29 28  1  0  0  0  0
 29 27  1  0  0  0  0
M  END
>  <MODEL>
3

>  <REMARK>
 VINA RESULT:      -5.8      3.228      6.366
  Name = 
  6 active torsions:
  status: ('A' for Active; 'I' for Inactive)
    1  A    between atoms: C_1  and  C_22
    2  A    between atoms: C_4  and  C_25
    3  A    between atoms: C_7  and  S_30
    4  A    between atoms: N_10  and  C_23
    5  A    between atoms: C_11  and  C_25
    6  A    between atoms: C_13  and  S_30
                            x       y       z     vdW  Elec       q    Type
                         _______ _______ _______ _____ _____    ______ ____

>  <TORSDO>
F 6

$$$$
=
 OpenBabel11052417093D

 30 32  0  0  1  0  0  0  0  0999 V2000
  188.3090  176.9390  144.4180 C   0  0  1  0  0  3  0  0  0  0  0  0
  189.5730  176.4040  146.6060 C   0  0  2  0  0  3  0  0  0  0  0  0
  189.4850  177.5620  143.8260 N   0  0  0  0  0  2  0  0  0  0  0  0
  192.5320  175.4860  144.5950 C   0  0  0  0  0  3  0  0  0  0  0  0
  191.2200  175.9690  144.6850 C   0  0  0  0  0  0  0  0  0  0  0  0
  191.7180  177.5410  142.8980 C   0  0  0  0  0  3  0  0  0  0  0  0
  190.8040  177.0060  143.8120 C   0  0  0  0  0  0  0  0  0  0  0  0
  190.3550  175.3780  145.7640 C   0  0  2  0  0  3  0  0  0  0  0  0
  193.4280  176.0170  143.6660 C   0  0  0  0  0  3  0  0  0  0  0  0
  193.0220  177.0490  142.8210 C   0  0  0  0  0  3  0  0  0  0  0  0
  188.3250  177.0140  145.9520 C   0  0  2  0  0  3  0  0  0  0  0  0
  186.2820  176.9060  142.8500 C   0  0  0  0  0  0  0  0  0  0  0  0
  185.1370  177.5390  142.3540 C   0  0  0  0  0  3  0  0  0  0  0  0
  186.6910  175.3200  142.2090 Cl  0  0  0  0  0  0  0  0  0  0  0  0
  186.6800  178.8090  144.3040 C   0  0  0  0  0  3  0  0  0  0  0  0
  185.1750  180.6550  144.2610 F   0  0  0  0  0  0  0  0  0  0  0  0
  187.0640  177.5470  143.8370 C   0  0  0  0  0  0  0  0  0  0  0  0
  184.7640  178.7980  142.8270 C   0  0  0  0  0  3  0  0  0  0  0  0
  185.5350  179.4330  143.8020 C   0  0  0  0  0  0  0  0  0  0  0  0
  187.1420  176.3770  146.4920 N   0  0  0  0  0  0  0  0  0  0  0  0
  186.6210  178.3100  147.9040 C   0  0  0  0  0  1  0  0  0  0  0  0
  186.3750  176.9340  147.3640 C   0  0  0  0  0  3  0  0  0  0  0  0
  189.6840  172.8560  146.1420 O   0  0  0  0  0  0  0  0  0  0  0  0
  189.3490  173.9870  145.1780 S   0  0  2  0  0  0  0  0  0  0  0  0
  190.1050  173.4690  143.6210 C   0  0  0  0  0  2  0  0  0  0  0  0
  190.9820  172.2490  143.8270 C   0  0  0  0  0  1  0  0  0  0  0  0
  190.4630  177.5010  147.1820 C   0  0  0  0  0  2  0  0  0  0  0  0
  192.6780  176.7890  147.7290 O   0  0  0  0  0  1  0  0  0  0  0  0
  191.3930  176.9480  148.2480 C   0  0  1  0  0  3  0  0  0  0  0  0
  191.4430  177.9120  149.4140 C   0  0  0  0  0  1  0  0  0  0  0  0
  1 17  1  6  0  0  0
  1 11  1  0  0  0  0
  2 27  1  6  0  0  0
  3  1  1  0  0  0  0
  4  5  1  0  0  0  0
  5  8  1  0  0  0  0
  6  7  1  0  0  0  0
  7  3  1  0  0  0  0
  7  5  2  0  0  0  0
  8 24  1  6  0  0  0
  8  2  1  0  0  0  0
  9  4  2  0  0  0  0
 10  6  2  0  0  0  0
 10  9  1  0  0  0  0
 11 20  1  1  0  0  0
 11  2  1  0  0  0  0
 12 17  1  0  0  0  0
 13 18  1  0  0  0  0
 13 12  2  0  0  0  0
 14 12  1  0  0  0  0
 17 15  2  0  0  0  0
 18 19  2  0  0  0  0
 19 16  1  0  0  0  0
 19 15  1  0  0  0  0
 20 22  2  0  0  0  0
 22 21  1  0  0  0  0
 24 23  2  1  0  0  0
 25 26  1  0  0  0  0
 25 24  1  0  0  0  0
 27 29  1  0  0  0  0
 28 29  1  0  0  0  0
 29 30  1  1  0  0  0
M  END
>  <MODEL>
4

>  <REMARK>
 VINA RESULT:      -5.8      3.358      6.890
  Name = 
  6 active torsions:
  status: ('A' for Active; 'I' for Inactive)
    1  A    between atoms: C_1  and  C_22
    2  A    between atoms: C_4  and  C_25
    3  A    between atoms: C_7  and  S_30
    4  A    between atoms: N_10  and  C_23
    5  A    between atoms: C_11  and  C_25
    6  A    between atoms: C_13  and  S_30
                            x       y       z     vdW  Elec       q    Type
                         _______ _______ _______ _____ _____    ______ ____

>  <TORSDO>
F 6

$$$$
=
 OpenBabel11052417093D

 30 32  0  0  1  0  0  0  0  0999 V2000
  192.0790  173.3600  144.2260 C   0  0  1  0  0  3  0  0  0  0  0  0
  192.1200  175.8150  143.4270 C   0  0  2  0  0  3  0  0  0  0  0  0
  191.4770  173.7270  145.5000 N   0  0  0  0  0  2  0  0  0  0  0  0
  188.7800  176.2940  144.9290 C   0  0  0  0  0  3  0  0  0  0  0  0
  189.8980  175.4900  144.6720 C   0  0  0  0  0  0  0  0  0  0  0  0
  189.6800  174.5410  146.9000 C   0  0  0  0  0  3  0  0  0  0  0  0
  190.3480  174.5900  145.6710 C   0  0  0  0  0  0  0  0  0  0  0  0
  190.5860  175.6930  143.3500 C   0  0  2  0  0  3  0  0  0  0  0  0
  188.1130  176.2220  146.1530 C   0  0  0  0  0  3  0  0  0  0  0  0
  188.5660  175.3480  147.1410 C   0  0  0  0  0  3  0  0  0  0  0  0
  192.9010  174.5080  143.6210 C   0  0  2  0  0  3  0  0  0  0  0  0
  192.6390  170.9230  143.6600 C   0  0  0  0  0  0  0  0  0  0  0  0
  193.4400  169.7960  143.8720 C   0  0  0  0  0  3  0  0  0  0  0  0
  191.3420  170.8050  142.4790 Cl  0  0  0  0  0  0  0  0  0  0  0  0
  193.9420  172.1330  145.3130 C   0  0  0  0  0  3  0  0  0  0  0  0
  195.7490  171.0390  146.4160 F   0  0  0  0  0  0  0  0  0  0  0  0
  192.8920  172.1080  144.3890 C   0  0  0  0  0  0  0  0  0  0  0  0
  194.4840  169.8330  144.7970 C   0  0  0  0  0  3  0  0  0  0  0  0
  194.7350  171.0020  145.5180 C   0  0  0  0  0  0  0  0  0  0  0  0
  193.4700  174.0960  142.3560 N   0  0  0  0  0  0  0  0  0  0  0  0
  195.7600  174.3830  143.1760 C   0  0  0  0  0  1  0  0  0  0  0  0
  194.7380  174.0400  142.1350 C   0  0  0  0  0  3  0  0  0  0  0  0
  189.0310  175.3830  141.2440 O   0  0  0  0  0  0  0  0  0  0  0  0
  190.0030  174.5490  142.0680 S   0  0  2  0  0  0  0  0  0  0  0  0
  188.9400  173.3670  142.9280 C   0  0  0  0  0  2  0  0  0  0  0  0
  187.8380  172.8680  142.0130 C   0  0  0  0  0  1  0  0  0  0  0  0
  192.5820  176.8670  144.4310 C   0  0  0  0  0  2  0  0  0  0  0  0
  194.8820  177.1660  145.0130 O   0  0  0  0  0  1  0  0  0  0  0  0
  193.7630  176.3650  145.2450 C   0  0  1  0  0  3  0  0  0  0  0  0
  193.4100  176.4160  146.7160 C   0  0  0  0  0  1  0  0  0  0  0  0
  1 17  1  1  0  0  0
  1  3  1  0  0  0  0
  2 11  1  0  0  0  0
  2 27  1  1  0  0  0
  3  7  1  0  0  0  0
  4  9  1  0  0  0  0
  5  4  2  0  0  0  0
  5  7  1  0  0  0  0
  6 10  1  0  0  0  0
  7  6  2  0  0  0  0
  8 24  1  6  0  0  0
  8  2  1  0  0  0  0
  8  5  1  0  0  0  0
  9 10  2  0  0  0  0
 11 20  1  6  0  0  0
 11  1  1  0  0  0  0
 12 13  2  0  0  0  0
 12 17  1  0  0  0  0
 13 18  1  0  0  0  0
 14 12  1  0  0  0  0
 15 19  1  0  0  0  0
 17 15  2  0  0  0  0
 18 19  2  0  0  0  0
 19 16  1  0  0  0  0
 22 20  2  0  0  0  0
 22 21  1  0  0  0  0
 24 23  2  6  0  0  0
 24 25  1  0  0  0  0
 26 25  1  0  0  0  0
 27 29  1  0  0  0  0
 28 29  1  0  0  0  0
 29 30  1  1  0  0  0
M  END
>  <MODEL>
5

>  <REMARK>
 VINA RESULT:      -5.7      2.990      5.146
  Name = 
  6 active torsions:
  status: ('A' for Active; 'I' for Inactive)
    1  A    between atoms: C_1  and  C_22
    2  A    between atoms: C_4  and  C_25
    3  A    between atoms: C_7  and  S_30
    4  A    between atoms: N_10  and  C_23
    5  A    between atoms: C_11  and  C_25
    6  A    between atoms: C_13  and  S_30
                            x       y       z     vdW  Elec       q    Type
                         _______ _______ _______ _____ _____    ______ ____

>  <TORSDO>
F 6

$$$$
=
 OpenBabel11052417093D

 30 32  0  0  1  0  0  0  0  0999 V2000
  192.2840  175.1450  143.1780 C   0  0  1  0  0  3  0  0  0  0  0  0
  190.6210  173.5240  142.0480 C   0  0  2  0  0  3  0  0  0  0  0  0
  191.5160  176.3100  142.7620 N   0  0  0  0  0  2  0  0  0  0  0  0
  187.8420  175.6390  143.2500 C   0  0  0  0  0  3  0  0  0  0  0  0
  189.2130  175.3850  143.1190 C   0  0  0  0  0  0  0  0  0  0  0  0
  189.5850  177.7660  142.8020 C   0  0  0  0  0  3  0  0  0  0  0  0
  190.1010  176.4700  142.9040 C   0  0  0  0  0  0  0  0  0  0  0  0
  189.6400  173.9430  143.1590 C   0  0  2  0  0  3  0  0  0  0  0  0
  187.3440  176.9400  143.1630 C   0  0  0  0  0  3  0  0  0  0  0  0
  188.2150  178.0030  142.9340 C   0  0  0  0  0  3  0  0  0  0  0  0
  192.0850  173.9520  142.2320 C   0  0  2  0  0  3  0  0  0  0  0  0
  194.4550  175.3520  144.5260 C   0  0  0  0  0  0  0  0  0  0  0  0
  195.8020  175.7250  144.5820 C   0  0  0  0  0  3  0  0  0  0  0  0
  193.7200  174.6890  145.9800 Cl  0  0  0  0  0  0  0  0  0  0  0  0
  194.3790  176.0490  142.2010 C   0  0  0  0  0  3  0  0  0  0  0  0
  196.3390  176.9340  141.1760 F   0  0  0  0  0  0  0  0  0  0  0  0
  193.7330  175.5150  143.3220 C   0  0  0  0  0  0  0  0  0  0  0  0
  196.4360  176.2570  143.4570 C   0  0  0  0  0  3  0  0  0  0  0  0
  195.7250  176.4190  142.2680 C   0  0  0  0  0  0  0  0  0  0  0  0
  192.8610  172.8200  142.6910 N   0  0  0  0  0  0  0  0  0  0  0  0
  193.7300  172.3750  140.4450 C   0  0  0  0  0  1  0  0  0  0  0  0
  193.5940  172.1020  141.9120 C   0  0  0  0  0  3  0  0  0  0  0  0
  189.3820  172.0870  145.0140 O   0  0  0  0  0  0  0  0  0  0  0  0
  190.1310  173.3980  144.8180 S   0  0  2  0  0  0  0  0  0  0  0  0
  189.3160  174.5380  145.9590 C   0  0  0  0  0  2  0  0  0  0  0  0
  190.3310  175.4350  146.6410 C   0  0  0  0  0  1  0  0  0  0  0  0
  190.1300  173.8920  140.6520 C   0  0  0  0  0  2  0  0  0  0  0  0
  190.0660  171.5030  140.5880 O   0  0  0  0  0  1  0  0  0  0  0  0
  189.7580  172.6520  139.8570 C   0  0  1  0  0  3  0  0  0  0  0  0
  188.2730  172.6740  139.5660 C   0  0  0  0  0  1  0  0  0  0  0  0
  1 17  1  6  0  0  0
  2 27  1  6  0  0  0
  2 11  1  0  0  0  0
  2  8  1  0  0  0  0
  3  7  1  0  0  0  0
  3  1  1  0  0  0  0
  5  8  1  0  0  0  0
  5  4  2  0  0  0  0
  6  7  2  0  0  0  0
  6 10  1  0  0  0  0
  7  5  1  0  0  0  0
  8 24  1  1  0  0  0
  9  4  1  0  0  0  0
 10  9  2  0  0  0  0
 11 20  1  1  0  0  0
 11  1  1  0  0  0  0
 12 13  1  0  0  0  0
 12 14  1  0  0  0  0
 15 19  2  0  0  0  0
 15 17  1  0  0  0  0
 16 19  1  0  0  0  0
 17 12  2  0  0  0  0
 18 13  2  0  0  0  0
 19 18  1  0  0  0  0
 21 22  1  0  0  0  0
 22 20  2  0  0  0  0
 24 23  2  1  0  0  0
 24 25  1  0  0  0  0
 25 26  1  0  0  0  0
 29 30  1  1  0  0  0
 29 28  1  0  0  0  0
 29 27  1  0  0  0  0
M  END
>  <MODEL>
6

>  <REMARK>
 VINA RESULT:      -5.7      1.639      1.961
  Name = 
  6 active torsions:
  status: ('A' for Active; 'I' for Inactive)
    1  A    between atoms: C_1  and  C_22
    2  A    between atoms: C_4  and  C_25
    3  A    between atoms: C_7  and  S_30
    4  A    between atoms: N_10  and  C_23
    5  A    between atoms: C_11  and  C_25
    6  A    between atoms: C_13  and  S_30
                            x       y       z     vdW  Elec       q    Type
                         _______ _______ _______ _____ _____    ______ ____

>  <TORSDO>
F 6

$$$$
=
 OpenBabel11052417093D

 30 32  0  0  1  0  0  0  0  0999 V2000
  191.8780  174.7260  144.3610 C   0  0  1  0  0  3  0  0  0  0  0  0
  194.3830  174.6620  143.7360 C   0  0  2  0  0  3  0  0  0  0  0  0
  191.4720  174.7280  142.9620 N   0  0  0  0  0  2  0  0  0  0  0  0
  193.5820  172.2740  141.0340 C   0  0  0  0  0  3  0  0  0  0  0  0
  193.1770  173.1150  142.0780 C   0  0  0  0  0  0  0  0  0  0  0  0
  191.2220  173.7330  140.7720 C   0  0  0  0  0  3  0  0  0  0  0  0
  191.9690  173.8480  141.9490 C   0  0  0  0  0  0  0  0  0  0  0  0
  194.1050  173.2240  143.2570 C   0  0  2  0  0  3  0  0  0  0  0  0
  192.8170  172.1570  139.8730 C   0  0  0  0  0  3  0  0  0  0  0  0
  191.6390  172.8900  139.7400 C   0  0  0  0  0  3  0  0  0  0  0  0
  193.2750  175.3330  144.5600 C   0  0  2  0  0  3  0  0  0  0  0  0
  190.5300  176.7930  145.0570 C   0  0  0  0  0  0  0  0  0  0  0  0
  189.5510  177.3680  145.8730 C   0  0  0  0  0  3  0  0  0  0  0  0
  191.3390  177.8250  143.8850 Cl  0  0  0  0  0  0  0  0  0  0  0  0
  190.1550  174.6550  146.1460 C   0  0  0  0  0  3  0  0  0  0  0  0
  188.5250  174.4890  147.8760 F   0  0  0  0  0  0  0  0  0  0  0  0
  190.8380  175.4200  145.1930 C   0  0  0  0  0  0  0  0  0  0  0  0
  188.8760  176.5950  146.8210 C   0  0  0  0  0  3  0  0  0  0  0  0
  189.1790  175.2390  146.9570 C   0  0  0  0  0  0  0  0  0  0  0  0
  193.6340  175.3010  145.9610 N   0  0  0  0  0  0  0  0  0  0  0  0
  194.5800  177.5590  145.8750 C   0  0  0  0  0  1  0  0  0  0  0  0
  194.2200  176.2780  146.5630 C   0  0  0  0  0  3  0  0  0  0  0  0
  194.8080  172.2590  145.6070 O   0  0  0  0  0  0  0  0  0  0  0  0
  193.6880  172.0710  144.5930 S   0  0  2  0  0  0  0  0  0  0  0  0
  193.9850  170.4230  143.9160 C   0  0  0  0  0  2  0  0  0  0  0  0
  192.6760  169.7160  143.6220 C   0  0  0  0  0  1  0  0  0  0  0  0
  194.8440  175.5840  142.6110 C   0  0  0  0  0  2  0  0  0  0  0  0
  196.7840  175.4830  144.0040 O   0  0  0  0  0  1  0  0  0  0  0  0
  196.2700  176.0550  142.8390 C   0  0  1  0  0  3  0  0  0  0  0  0
  197.1250  175.6390  141.6620 C   0  0  0  0  0  1  0  0  0  0  0  0
  1 11  1  0  0  0  0
  1 17  1  1  0  0  0
  2 27  1  6  0  0  0
  2 11  1  0  0  0  0
  3  1  1  0  0  0  0
  4  5  1  0  0  0  0
  5  8  1  0  0  0  0
  6  7  1  0  0  0  0
  7  5  2  0  0  0  0
  7  3  1  0  0  0  0
  8  2  1  0  0  0  0
  8 24  1  1  0  0  0
  9  4  2  0  0  0  0
 10  9  1  0  0  0  0
 10  6  2  0  0  0  0
 11 20  1  1  0  0  0
 12 17  2  0  0  0  0
 12 13  1  0  0  0  0
 13 18  2  0  0  0  0
 14 12  1  0  0  0  0
 15 19  2  0  0  0  0
 17 15  1  0  0  0  0
 18 19  1  0  0  0  0
 19 16  1  0  0  0  0
 20 22  2  0  0  0  0
 21 22  1  0  0  0  0
 24 23  2  1  0  0  0
 25 24  1  0  0  0  0
 26 25  1  0  0  0  0
 27 29  1  0  0  0  0
 29 30  1  6  0  0  0
 29 28  1  0  0  0  0
M  END
>  <MODEL>
7

>  <REMARK>
 VINA RESULT:      -5.7      3.386      6.205
  Name = 
  6 active torsions:
  status: ('A' for Active; 'I' for Inactive)
    1  A    between atoms: C_1  and  C_22
    2  A    between atoms: C_4  and  C_25
    3  A    between atoms: C_7  and  S_30
    4  A    between atoms: N_10  and  C_23
    5  A    between atoms: C_11  and  C_25
    6  A    between atoms: C_13  and  S_30
                            x       y       z     vdW  Elec       q    Type
                         _______ _______ _______ _____ _____    ______ ____

>  <TORSDO>
F 6

$$$$
=
 OpenBabel11052417093D

 30 32  0  0  1  0  0  0  0  0999 V2000
  193.1350  174.3940  144.8670 C   0  0  1  0  0  3  0  0  0  0  0  0
  193.7240  174.2510  142.3560 C   0  0  2  0  0  3  0  0  0  0  0  0
  193.0570  172.9440  144.9870 N   0  0  0  0  0  2  0  0  0  0  0  0
  195.9090  171.3660  143.0980 C   0  0  0  0  0  3  0  0  0  0  0  0
  194.9960  172.3440  143.5140 C   0  0  0  0  0  0  0  0  0  0  0  0
  193.9920  170.7130  145.0130 C   0  0  0  0  0  3  0  0  0  0  0  0
  194.0280  172.0140  144.4970 C   0  0  0  0  0  0  0  0  0  0  0  0
  195.0760  173.6790  142.8260 C   0  0  2  0  0  3  0  0  0  0  0  0
  195.8710  170.0780  143.6340 C   0  0  0  0  0  3  0  0  0  0  0  0
  194.9090  169.7500  144.5880 C   0  0  0  0  0  3  0  0  0  0  0  0
  192.8320  174.8730  143.4390 C   0  0  2  0  0  3  0  0  0  0  0  0
  192.6480  176.1060  146.7100 C   0  0  0  0  0  0  0  0  0  0  0  0
  191.7510  176.6510  147.6360 C   0  0  0  0  0  3  0  0  0  0  0  0
  194.2650  176.7910  146.6260 Cl  0  0  0  0  0  0  0  0  0  0  0  0
  190.9330  174.5410  146.0010 C   0  0  0  0  0  3  0  0  0  0  0  0
  188.7870  174.6010  147.0350 F   0  0  0  0  0  0  0  0  0  0  0  0
  192.2350  175.0380  145.8820 C   0  0  0  0  0  0  0  0  0  0  0  0
  190.4540  176.1460  147.7460 C   0  0  0  0  0  3  0  0  0  0  0  0
  190.0450  175.0910  146.9290 C   0  0  0  0  0  0  0  0  0  0  0  0
  192.9290  176.3150  143.3700 N   0  0  0  0  0  0  0  0  0  0  0  0
  190.5320  176.5580  142.9280 C   0  0  0  0  0  1  0  0  0  0  0  0
  191.9200  177.0820  143.1380 C   0  0  0  0  0  3  0  0  0  0  0  0
  196.9800  175.4930  142.6370 O   0  0  0  0  0  0  0  0  0  0  0  0
  196.1080  174.8730  143.7210 S   0  0  2  0  0  0  0  0  0  0  0  0
  197.2620  173.8770  144.6910 C   0  0  0  0  0  2  0  0  0  0  0  0
  196.8170  173.7910  146.1380 C   0  0  0  0  0  1  0  0  0  0  0  0
  192.9260  173.2660  141.5080 C   0  0  0  0  0  2  0  0  0  0  0  0
  190.7240  173.7880  140.7370 O   0  0  0  0  0  1  0  0  0  0  0  0
  191.4450  173.3320  141.8420 C   0  0  1  0  0  3  0  0  0  0  0  0
  190.9580  171.9490  142.2180 C   0  0  0  0  0  1  0  0  0  0  0  0
  1  3  1  0  0  0  0
  1 17  1  1  0  0  0
  2 27  1  1  0  0  0
  2  8  1  0  0  0  0
  2 11  1  0  0  0  0
  4  5  2  0  0  0  0
  4  9  1  0  0  0  0
  5  7  1  0  0  0  0
  7  3  1  0  0  0  0
  7  6  2  0  0  0  0
  8  5  1  0  0  0  0
  8 24  1  1  0  0  0
  9 10  2  0  0  0  0
 10  6  1  0  0  0  0
 11 20  1  1  0  0  0
 11  1  1  0  0  0  0
 12 13  1  0  0  0  0
 13 18  2  0  0  0  0
 14 12  1  0  0  0  0
 15 19  2  0  0  0  0
 17 15  1  0  0  0  0
 17 12  2  0  0  0  0
 19 16  1  0  0  0  0
 19 18  1  0  0  0  0
 21 22  1  0  0  0  0
 22 20  2  0  0  0  0
 24 23  2  6  0  0  0
 24 25  1  0  0  0  0
 25 26  1  0  0  0  0
 27 29  1  0  0  0  0
 28 29  1  0  0  0  0
 29 30  1  6  0  0  0
M  END
>  <MODEL>
8

>  <REMARK>
 VINA RESULT:      -5.7      3.337      6.626
  Name = 
  6 active torsions:
  status: ('A' for Active; 'I' for Inactive)
    1  A    between atoms: C_1  and  C_22
    2  A    between atoms: C_4  and  C_25
    3  A    between atoms: C_7  and  S_30
    4  A    between atoms: N_10  and  C_23
    5  A    between atoms: C_11  and  C_25
    6  A    between atoms: C_13  and  S_30
                            x       y       z     vdW  Elec       q    Type
                         _______ _______ _______ _____ _____    ______ ____

>  <TORSDO>
F 6

$$$$
=
 OpenBabel11052417093D

 30 32  0  0  1  0  0  0  0  0999 V2000
  192.3500  174.7930  144.2390 C   0  0  1  0  0  3  0  0  0  0  0  0
  192.8690  173.4830  142.0750 C   0  0  2  0  0  3  0  0  0  0  0  0
  193.1710  173.8980  145.0430 N   0  0  0  0  0  2  0  0  0  0  0  0
  196.3670  173.1260  143.2060 C   0  0  0  0  0  3  0  0  0  0  0  0
  195.0540  173.5620  143.4220 C   0  0  0  0  0  0  0  0  0  0  0  0
  195.2690  172.9300  145.7600 C   0  0  0  0  0  3  0  0  0  0  0  0
  194.5000  173.4740  144.7250 C   0  0  0  0  0  0  0  0  0  0  0  0
  194.2960  174.0460  142.2160 C   0  0  2  0  0  3  0  0  0  0  0  0
  197.1280  172.6010  144.2520 C   0  0  0  0  0  3  0  0  0  0  0  0
  196.5760  172.4990  145.5290 C   0  0  0  0  0  3  0  0  0  0  0  0
  191.7980  174.1020  142.9840 C   0  0  2  0  0  3  0  0  0  0  0  0
  190.8930  176.7460  145.0350 C   0  0  0  0  0  0  0  0  0  0  0  0
  189.8670  177.2200  145.8600 C   0  0  0  0  0  3  0  0  0  0  0  0
  191.6840  177.8920  143.9610 Cl  0  0  0  0  0  0  0  0  0  0  0  0
  190.5870  174.5240  145.9640 C   0  0  0  0  0  3  0  0  0  0  0  0
  188.9210  174.1670  147.6300 F   0  0  0  0  0  0  0  0  0  0  0  0
  191.2580  175.3820  145.0860 C   0  0  0  0  0  0  0  0  0  0  0  0
  189.2040  176.3540  146.7320 C   0  0  0  0  0  3  0  0  0  0  0  0
  189.5640  175.0070  146.7840 C   0  0  0  0  0  0  0  0  0  0  0  0
  190.9980  175.0330  142.2170 N   0  0  0  0  0  0  0  0  0  0  0  0
  188.9400  173.7730  142.6430 C   0  0  0  0  0  1  0  0  0  0  0  0
  189.7270  174.9010  142.0480 C   0  0  0  0  0  3  0  0  0  0  0  0
  195.2690  176.0080  140.7470 O   0  0  0  0  0  0  0  0  0  0  0  0
  194.4040  175.8430  141.9900 S   0  0  2  0  0  0  0  0  0  0  0  0
  195.4570  176.4340  143.3340 C   0  0  0  0  0  2  0  0  0  0  0  0
  196.8390  176.7870  142.8200 C   0  0  0  0  0  1  0  0  0  0  0  0
  192.8210  171.9610  142.1540 C   0  0  0  0  0  2  0  0  0  0  0  0
  190.7420  170.7990  142.3540 O   0  0  0  0  0  1  0  0  0  0  0  0
  191.7100  171.4950  143.0790 C   0  0  1  0  0  3  0  0  0  0  0  0
  192.2930  170.5820  144.1370 C   0  0  0  0  0  1  0  0  0  0  0  0
  1  3  1  0  0  0  0
  1 17  1  1  0  0  0
  2 27  1  1  0  0  0
  2  8  1  0  0  0  0
  2 11  1  0  0  0  0
  4  5  2  0  0  0  0
  4  9  1  0  0  0  0
  5  7  1  0  0  0  0
  7  3  1  0  0  0  0
  7  6  2  0  0  0  0
  8 24  1  1  0  0  0
  8  5  1  0  0  0  0
  9 10  2  0  0  0  0
 10  6  1  0  0  0  0
 11 20  1  6  0  0  0
 11  1  1  0  0  0  0
 12 17  2  0  0  0  0
 12 13  1  0  0  0  0
 13 18  2  0  0  0  0
 14 12  1  0  0  0  0
 15 19  2  0  0  0  0
 17 15  1  0  0  0  0
 18 19  1  0  0  0  0
 19 16  1  0  0  0  0
 22 20  2  0  0  0  0
 22 21  1  0  0  0  0
 24 23  2  6  0  0  0
 24 25  1  0  0  0  0
 26 25  1  0  0  0  0
 27 29  1  0  0  0  0
 28 29  1  0  0  0  0
 29 30  1  1  0  0  0
M  END
>  <MODEL>
9

>  <REMARK>
 VINA RESULT:      -5.6      3.159      6.535
  Name = 
  6 active torsions:
  status: ('A' for Active; 'I' for Inactive)
    1  A    between atoms: C_1  and  C_22
    2  A    between atoms: C_4  and  C_25
    3  A    between atoms: C_7  and  S_30
    4  A    between atoms: N_10  and  C_23
    5  A    between atoms: C_11  and  C_25
    6  A    between atoms: C_13  and  S_30
                            x       y       z     vdW  Elec       q    Type
                         _______ _______ _______ _____ _____    ______ ____

>  <TORSDO>
F 6

$$$$
