=
 OpenBabel11052420153D

 34 39  0  0  1  0  0  0  0  0999 V2000
  193.6620  173.6860  144.7620 C   0  0  0  0  0  0  0  0  0  0  0  0
  197.2280  172.4910  144.5020 C   0  0  0  0  0  3  0  0  0  0  0  0
  196.3250  174.5940  145.1950 N   0  0  0  0  0  0  0  0  0  0  0  0
  191.7610  174.7310  143.4680 C   0  0  2  0  0  3  0  0  0  0  0  0
  192.2710  173.4880  144.2400 C   0  0  0  0  0  2  0  0  0  0  0  0
  193.0780  176.0590  145.2500 C   0  0  1  0  0  3  0  0  0  0  0  0
  193.9700  177.2310  145.4150 N   0  0  0  0  0  0  0  0  0  0  0  0
  192.3700  176.0990  143.8910 C   0  0  0  0  0  2  0  0  0  0  0  0
  195.2850  175.3150  145.4770 C   0  0  0  0  0  0  0  0  0  0  0  0
  193.9590  174.8690  145.2830 C   0  0  0  0  0  0  0  0  0  0  0  0
  195.2800  176.7190  145.5660 N   0  0  0  0  0  0  0  0  0  0  0  0
  197.1070  171.0670  144.0420 C   0  0  0  0  0  2  0  0  0  0  0  0
  196.5880  170.1120  145.1300 C   0  0  2  0  0  3  0  0  0  0  0  0
  195.6480  170.7580  146.1730 C   0  0  0  0  0  2  0  0  0  0  0  0
  196.1510  173.2230  144.7900 C   0  0  0  0  0  0  0  0  0  0  0  0
  194.4290  171.4500  145.5560 C   0  0  0  0  0  2  0  0  0  0  0  0
  194.7410  172.6340  144.6220 C   0  0  1  0  0  3  0  0  0  0  0  0
  188.1870  176.1400  143.0040 C   0  0  0  0  0  2  0  0  0  0  0  0
  189.3890  175.2700  145.7530 C   0  0  0  0  0  2  0  0  0  0  0  0
  185.7660  177.6030  145.5050 C   0  0  0  0  0  0  0  0  0  0  0  0
  186.4330  177.2660  144.3220 C   0  0  0  0  0  3  0  0  0  0  0  0
  187.6050  176.5030  144.3430 C   0  0  0  0  0  0  0  0  0  0  0  0
  190.2310  174.7470  143.4160 C   0  0  1  0  0  3  0  0  0  0  0  0
  187.4380  176.3860  146.7670 C   0  0  0  0  0  3  0  0  0  0  0  0
  188.1060  176.0360  145.5890 C   0  0  0  0  0  0  0  0  0  0  0  0
  186.2760  177.1580  146.7280 C   0  0  0  0  0  3  0  0  0  0  0  0
  189.5790  174.1940  144.6930 C   0  0  0  0  0  2  0  0  0  0  0  0
  189.7070  176.1220  143.0000 C   0  0  0  0  0  2  0  0  0  0  0  0
  184.5380  178.4120  145.4560 C   0  0  0  0  0  0  0  0  0  0  0  0
  183.8860  178.6480  146.5080 O   0  0  0  0  0  1  0  0  0  0  0  0
  184.0860  178.9270  144.2460 O   0  0  0  0  0  0  0  0  0  0  0  0
  197.7110  169.3960  145.7440 N   0  0  0  0  0  0  0  0  0  0  0  0
  197.3790  169.0500  147.0130 O   0  0  0  0  0  1  0  0  0  0  0  0
  197.9410  168.1660  145.0020 C   0  0  0  0  0  1  0  0  0  0  0  0
  1 10  2  0  0  0  0
  2 15  2  0  0  0  0
  3  9  2  0  0  0  0
  4  8  1  1  0  0  0
  4  5  1  0  0  0  0
  5  1  1  0  0  0  0
  6  8  1  6  0  0  0
  6 10  1  0  0  0  0
  6  7  1  0  0  0  0
  7 11  2  0  0  0  0
  9 11  1  0  0  0  0
 10  9  1  0  0  0  0
 12  2  1  0  0  0  0
 12 13  1  0  0  0  0
 13 32  1  1  0  0  0
 13 14  1  0  0  0  0
 15  3  1  0  0  0  0
 16 14  1  0  0  0  0
 17  1  1  0  0  0  0
 17 15  1  0  0  0  0
 17 16  1  1  0  0  0
 18 22  1  0  0  0  0
 20 26  1  0  0  0  0
 21 22  1  0  0  0  0
 21 20  2  0  0  0  0
 22 25  2  0  0  0  0
 23 28  1  1  0  0  0
 23  4  1  0  0  0  0
 23 27  1  0  0  0  0
 25 19  1  0  0  0  0
 25 24  1  0  0  0  0
 26 24  2  0  0  0  0
 27 19  1  0  0  0  0
 28 18  1  0  0  0  0
 29 20  1  0  0  0  0
 29 30  1  0  0  0  0
 31 29  2  0  0  0  0
 32 33  1  0  0  0  0
 34 32  1  0  0  0  0
M  END
>  <MODEL>
1

>  <REMARK>
 VINA RESULT:      -8.5      0.000      0.000
  Name = 
  3 active torsions:
  status: ('A' for Active; 'I' for Inactive)
    1  A    between atoms: N_3  and  C_25
    2  A    between atoms: C_7  and  C_11
    3  A    between atoms: C_8  and  C_18
                            x       y       z     vdW  Elec       q    Type
                         _______ _______ _______ _____ _____    ______ ____

>  <TORSDO>
F 3

$$$$
=
 OpenBabel11052420153D

 34 39  0  0  1  0  0  0  0  0999 V2000
  191.5020  175.3600  144.1980 C   0  0  0  0  0  0  0  0  0  0  0  0
  194.6990  173.6750  145.2720 C   0  0  0  0  0  3  0  0  0  0  0  0
  192.6240  172.7620  144.5090 N   0  0  0  0  0  0  0  0  0  0  0  0
  189.3180  176.3160  145.0340 C   0  0  2  0  0  3  0  0  0  0  0  0
  190.6730  176.6010  144.3380 C   0  0  0  0  0  2  0  0  0  0  0  0
  189.4100  174.0870  143.7310 C   0  0  1  0  0  3  0  0  0  0  0  0
  189.1420  172.6360  143.8720 N   0  0  0  0  0  0  0  0  0  0  0  0
  188.7510  174.8770  144.8670 C   0  0  0  0  0  2  0  0  0  0  0  0
  191.4390  172.9590  144.0210 C   0  0  0  0  0  0  0  0  0  0  0  0
  190.8780  174.2430  143.8450 C   0  0  0  0  0  0  0  0  0  0  0  0
  190.4010  172.0100  144.0240 N   0  0  0  0  0  0  0  0  0  0  0  0
  195.6240  174.8130  145.5940 C   0  0  0  0  0  2  0  0  0  0  0  0
  196.1280  175.5660  144.3500 C   0  0  2  0  0  3  0  0  0  0  0  0
  195.1570  175.5660  143.1480 C   0  0  0  0  0  2  0  0  0  0  0  0
  193.4820  173.8900  144.7680 C   0  0  0  0  0  0  0  0  0  0  0  0
  193.7670  176.1150  143.4810 C   0  0  0  0  0  2  0  0  0  0  0  0
  192.9760  175.3230  144.5370 C   0  0  1  0  0  3  0  0  0  0  0  0
  185.8670  178.0230  144.6510 C   0  0  0  0  0  2  0  0  0  0  0  0
  187.6670  177.1430  142.2550 C   0  0  0  0  0  2  0  0  0  0  0  0
  183.5250  178.2220  141.6970 C   0  0  0  0  0  0  0  0  0  0  0  0
  184.0550  178.2310  142.9920 C   0  0  0  0  0  3  0  0  0  0  0  0
  185.3940  177.9000  143.2290 C   0  0  0  0  0  0  0  0  0  0  0  0
  188.2970  177.4060  144.7000 C   0  0  1  0  0  3  0  0  0  0  0  0
  185.6930  177.5650  140.8380 C   0  0  0  0  0  3  0  0  0  0  0  0
  186.2350  177.5820  142.1280 C   0  0  0  0  0  0  0  0  0  0  0  0
  184.3530  177.8860  140.6210 C   0  0  0  0  0  3  0  0  0  0  0  0
  188.4510  177.9590  143.2750 C   0  0  0  0  0  2  0  0  0  0  0  0
  186.8760  176.9540  145.0380 C   0  0  0  0  0  2  0  0  0  0  0  0
  182.1120  178.5670  141.4750 C   0  0  0  0  0  0  0  0  0  0  0  0
  181.4550  179.1740  142.3620 O   0  0  0  0  0  1  0  0  0  0  0  0
  181.4870  178.2260  140.2800 O   0  0  0  0  0  0  0  0  0  0  0  0
  197.4730  175.1000  143.9950 N   0  0  0  0  0  0  0  0  0  0  0  0
  197.9410  174.2960  144.9820 O   0  0  0  0  0  1  0  0  0  0  0  0
  197.3840  174.2980  142.7850 C   0  0  0  0  0  1  0  0  0  0  0  0
  1  5  1  0  0  0  0
  1 17  1  0  0  0  0
  2 12  1  0  0  0  0
  3 15  1  0  0  0  0
  4  5  1  6  0  0  0
  6 10  1  0  0  0  0
  6  7  1  0  0  0  0
  6  8  1  1  0  0  0
  7 11  2  0  0  0  0
  8  4  1  0  0  0  0
  9 11  1  0  0  0  0
  9  3  2  0  0  0  0
 10  9  1  0  0  0  0
 10  1  2  0  0  0  0
 13 32  1  6  0  0  0
 13 12  1  0  0  0  0
 14 16  1  0  0  0  0
 14 13  1  0  0  0  0
 15  2  2  0  0  0  0
 17 16  1  6  0  0  0
 17 15  1  0  0  0  0
 18 28  1  0  0  0  0
 19 27  1  0  0  0  0
 20 21  1  0  0  0  0
 21 22  2  0  0  0  0
 22 18  1  0  0  0  0
 23 27  1  6  0  0  0
 23  4  1  0  0  0  0
 23 28  1  0  0  0  0
 24 25  2  0  0  0  0
 25 19  1  0  0  0  0
 25 22  1  0  0  0  0
 26 24  1  0  0  0  0
 26 20  2  0  0  0  0
 29 20  1  0  0  0  0
 29 30  1  0  0  0  0
 31 29  2  0  0  0  0
 32 33  1  0  0  0  0
 34 32  1  0  0  0  0
M  END
>  <MODEL>
2

>  <REMARK>
 VINA RESULT:      -8.2      2.939      4.649
  Name = 
  3 active torsions:
  status: ('A' for Active; 'I' for Inactive)
    1  A    between atoms: N_3  and  C_25
    2  A    between atoms: C_7  and  C_11
    3  A    between atoms: C_8  and  C_18
                            x       y       z     vdW  Elec       q    Type
                         _______ _______ _______ _____ _____    ______ ____

>  <TORSDO>
F 3

$$$$
=
 OpenBabel11052420153D

 34 39  0  0  1  0  0  0  0  0999 V2000
  192.6990  175.7010  143.5830 C   0  0  0  0  0  0  0  0  0  0  0  0
  196.2470  176.6760  142.7570 C   0  0  0  0  0  3  0  0  0  0  0  0
  195.1500  176.3770  144.8620 N   0  0  0  0  0  0  0  0  0  0  0  0
  190.3640  176.6000  143.9280 C   0  0  2  0  0  3  0  0  0  0  0  0
  191.2890  175.6960  143.0750 C   0  0  0  0  0  2  0  0  0  0  0  0
  191.8000  175.7640  145.9060 C   0  0  1  0  0  3  0  0  0  0  0  0
  192.4550  176.2220  147.1550 N   0  0  0  0  0  0  0  0  0  0  0  0
  190.7780  176.7950  145.4160 C   0  0  0  0  0  2  0  0  0  0  0  0
  194.0940  176.0130  145.5200 C   0  0  0  0  0  0  0  0  0  0  0  0
  192.8780  175.6580  144.8960 C   0  0  0  0  0  0  0  0  0  0  0  0
  193.8340  176.3360  146.8650 N   0  0  0  0  0  0  0  0  0  0  0  0
  196.2970  176.6460  141.2570 C   0  0  0  0  0  2  0  0  0  0  0  0
  196.2710  175.2250  140.6700 C   0  0  2  0  0  3  0  0  0  0  0  0
  195.5180  174.1790  141.5210 C   0  0  0  0  0  2  0  0  0  0  0  0
  195.1550  176.2970  143.4240 C   0  0  0  0  0  0  0  0  0  0  0  0
  194.0700  174.5690  141.8340 C   0  0  0  0  0  2  0  0  0  0  0  0
  193.8940  175.8530  142.6660 C   0  0  1  0  0  3  0  0  0  0  0  0
  186.8660  176.3090  142.3000 C   0  0  0  0  0  2  0  0  0  0  0  0
  187.4710  177.9650  144.8780 C   0  0  0  0  0  2  0  0  0  0  0  0
  183.7680  178.4270  142.7090 C   0  0  0  0  0  0  0  0  0  0  0  0
  184.7320  177.5410  142.2160 C   0  0  0  0  0  3  0  0  0  0  0  0
  185.9450  177.3440  142.8840 C   0  0  0  0  0  0  0  0  0  0  0  0
  188.9000  176.1880  143.7620 C   0  0  1  0  0  3  0  0  0  0  0  0
  185.2190  178.9270  144.5840 C   0  0  0  0  0  3  0  0  0  0  0  0
  186.1840  178.0350  144.1040 C   0  0  0  0  0  0  0  0  0  0  0  0
  184.0200  179.1190  143.8980 C   0  0  0  0  0  3  0  0  0  0  0  0
  188.0300  176.5510  144.9760 C   0  0  0  0  0  2  0  0  0  0  0  0
  188.3350  176.6780  142.4280 C   0  0  0  0  0  2  0  0  0  0  0  0
  182.5020  178.6210  141.9840 C   0  0  0  0  0  0  0  0  0  0  0  0
  181.4910  179.0850  142.5750 O   0  0  0  0  0  1  0  0  0  0  0  0
  182.4110  178.2960  140.6350 O   0  0  0  0  0  0  0  0  0  0  0  0
  197.6320  174.8030  140.3240 N   0  0  0  0  0  0  0  0  0  0  0  0
  197.9410  173.6810  141.0210 O   0  0  0  0  0  1  0  0  0  0  0  0
  197.6690  174.4600  138.9100 C   0  0  0  0  0  1  0  0  0  0  0  0
  1 10  2  0  0  0  0
  2 15  2  0  0  0  0
  3  9  2  0  0  0  0
  4  5  1  1  0  0  0
  4  8  1  0  0  0  0
  5  1  1  0  0  0  0
  6  8  1  6  0  0  0
  6  7  1  0  0  0  0
  9 11  1  0  0  0  0
 10  9  1  0  0  0  0
 10  6  1  0  0  0  0
 11  7  2  0  0  0  0
 12  2  1  0  0  0  0
 13 32  1  1  0  0  0
 13 12  1  0  0  0  0
 13 14  1  0  0  0  0
 14 16  1  0  0  0  0
 15  3  1  0  0  0  0
 17 16  1  1  0  0  0
 17 15  1  0  0  0  0
 17  1  1  0  0  0  0
 18 28  1  0  0  0  0
 18 22  1  0  0  0  0
 19 27  1  0  0  0  0
 20 26  1  0  0  0  0
 21 20  2  0  0  0  0
 21 22  1  0  0  0  0
 22 25  2  0  0  0  0
 23 28  1  6  0  0  0
 23  4  1  0  0  0  0
 23 27  1  0  0  0  0
 25 24  1  0  0  0  0
 25 19  1  0  0  0  0
 26 24  2  0  0  0  0
 29 30  1  0  0  0  0
 29 20  1  0  0  0  0
 31 29  2  0  0  0  0
 32 33  1  0  0  0  0
 34 32  1  0  0  0  0
M  END
>  <MODEL>
3

>  <REMARK>
 VINA RESULT:      -8.2      3.382      4.133
  Name = 
  3 active torsions:
  status: ('A' for Active; 'I' for Inactive)
    1  A    between atoms: N_3  and  C_25
    2  A    between atoms: C_7  and  C_11
    3  A    between atoms: C_8  and  C_18
                            x       y       z     vdW  Elec       q    Type
                         _______ _______ _______ _____ _____    ______ ____

>  <TORSDO>
F 3

$$$$
=
 OpenBabel11052420153D

 34 39  0  0  1  0  0  0  0  0999 V2000
  188.8740  175.2410  143.8160 C   0  0  0  0  0  0  0  0  0  0  0  0
  191.7790  172.9600  143.0600 C   0  0  0  0  0  3  0  0  0  0  0  0
  190.9270  173.7790  145.1400 N   0  0  0  0  0  0  0  0  0  0  0  0
  188.1810  177.6610  144.0300 C   0  0  2  0  0  3  0  0  0  0  0  0
  188.0030  176.3270  143.2620 C   0  0  0  0  0  2  0  0  0  0  0  0
  188.4340  176.1360  146.1000 C   0  0  1  0  0  3  0  0  0  0  0  0
  189.2240  175.9690  147.3430 N   0  0  0  0  0  0  0  0  0  0  0  0
  188.6220  177.5410  145.5180 C   0  0  0  0  0  2  0  0  0  0  0  0
  190.0130  174.4390  145.7800 C   0  0  0  0  0  0  0  0  0  0  0  0
  188.9790  175.1530  145.1360 C   0  0  0  0  0  0  0  0  0  0  0  0
  190.1440  174.9230  147.0950 N   0  0  0  0  0  0  0  0  0  0  0  0
  191.7500  172.8100  141.5670 C   0  0  0  0  0  2  0  0  0  0  0  0
  190.5900  171.9370  141.0590 C   0  0  2  0  0  3  0  0  0  0  0  0
  189.3220  171.9550  141.9420 C   0  0  0  0  0  2  0  0  0  0  0  0
  190.8320  173.6400  143.7090 C   0  0  0  0  0  0  0  0  0  0  0  0
  188.7620  173.3600  142.1820 C   0  0  0  0  0  2  0  0  0  0  0  0
  189.6960  174.3270  142.9340 C   0  0  1  0  0  3  0  0  0  0  0  0
  184.4880  178.8070  144.1720 C   0  0  0  0  0  2  0  0  0  0  0  0
  186.0020  178.0790  141.5390 C   0  0  0  0  0  2  0  0  0  0  0  0
  181.7060  178.4930  141.6390 C   0  0  0  0  0  0  0  0  0  0  0  0
  182.4270  178.6520  142.8280 C   0  0  0  0  0  3  0  0  0  0  0  0
  183.8210  178.5390  142.8520 C   0  0  0  0  0  0  0  0  0  0  0  0
  186.9620  178.5650  143.8380 C   0  0  1  0  0  3  0  0  0  0  0  0
  183.7870  178.1240  140.4540 C   0  0  0  0  0  3  0  0  0  0  0  0
  184.5170  178.2920  141.6360 C   0  0  0  0  0  0  0  0  0  0  0  0
  182.3960  178.2280  140.4520 C   0  0  0  0  0  3  0  0  0  0  0  0
  186.8000  179.0570  142.3910 C   0  0  0  0  0  2  0  0  0  0  0  0
  185.7000  177.9240  144.4180 C   0  0  0  0  0  2  0  0  0  0  0  0
  180.2390  178.6100  141.6430 C   0  0  0  0  0  0  0  0  0  0  0  0
  179.6820  179.6720  141.2580 O   0  0  0  0  0  0  0  0  0  0  0  0
  179.4530  177.5450  142.0710 O   0  0  0  0  0  1  0  0  0  0  0  0
  191.0710  170.5780  140.7840 N   0  0  0  0  0  0  0  0  0  0  0  0
  190.4820  169.7140  141.6470 O   0  0  0  0  0  1  0  0  0  0  0  0
  190.6600  170.2010  139.4410 C   0  0  0  0  0  1  0  0  0  0  0  0
  1 10  2  0  0  0  0
  2 15  2  0  0  0  0
  3  9  2  0  0  0  0
  4  5  1  1  0  0  0
  4  8  1  0  0  0  0
  5  1  1  0  0  0  0
  6  8  1  6  0  0  0
  6  7  1  0  0  0  0
  9 11  1  0  0  0  0
 10  9  1  0  0  0  0
 10  6  1  0  0  0  0
 11  7  2  0  0  0  0
 12  2  1  0  0  0  0
 13 32  1  1  0  0  0
 13 12  1  0  0  0  0
 13 14  1  0  0  0  0
 14 16  1  0  0  0  0
 15  3  1  0  0  0  0
 17 16  1  1  0  0  0
 17 15  1  0  0  0  0
 17  1  1  0  0  0  0
 18 28  1  0  0  0  0
 19 25  1  0  0  0  0
 19 27  1  0  0  0  0
 20 29  1  0  0  0  0
 20 21  1  0  0  0  0
 21 22  2  0  0  0  0
 22 18  1  0  0  0  0
 23 27  1  6  0  0  0
 23  4  1  0  0  0  0
 23 28  1  0  0  0  0
 24 25  2  0  0  0  0
 25 22  1  0  0  0  0
 26 24  1  0  0  0  0
 26 20  2  0  0  0  0
 29 31  1  0  0  0  0
 30 29  2  0  0  0  0
 32 33  1  0  0  0  0
 34 32  1  0  0  0  0
M  END
>  <MODEL>
4

>  <REMARK>
 VINA RESULT:      -8.0      4.273      6.078
  Name = 
  3 active torsions:
  status: ('A' for Active; 'I' for Inactive)
    1  A    between atoms: N_3  and  C_25
    2  A    between atoms: C_7  and  C_11
    3  A    between atoms: C_8  and  C_18
                            x       y       z     vdW  Elec       q    Type
                         _______ _______ _______ _____ _____    ______ ____

>  <TORSDO>
F 3

$$$$
=
 OpenBabel11052420153D

 34 39  0  0  1  0  0  0  0  0999 V2000
  193.2210  173.7910  145.1960 C   0  0  0  0  0  0  0  0  0  0  0  0
  196.8790  172.9930  144.7620 C   0  0  0  0  0  3  0  0  0  0  0  0
  195.7890  174.7650  145.9420 N   0  0  0  0  0  0  0  0  0  0  0  0
  191.2530  174.9810  144.1500 C   0  0  2  0  0  3  0  0  0  0  0  0
  191.8590  173.6250  144.5920 C   0  0  0  0  0  2  0  0  0  0  0  0
  192.4270  175.9010  146.2590 C   0  0  1  0  0  3  0  0  0  0  0  0
  193.2130  177.0580  146.7520 N   0  0  0  0  0  0  0  0  0  0  0  0
  191.7370  176.2370  144.9320 C   0  0  0  0  0  2  0  0  0  0  0  0
  194.6870  175.3020  146.3630 C   0  0  0  0  0  0  0  0  0  0  0  0
  193.4070  174.8180  146.0150 C   0  0  0  0  0  0  0  0  0  0  0  0
  194.5600  176.6300  146.8110 N   0  0  0  0  0  0  0  0  0  0  0  0
  196.8870  171.7330  143.9470 C   0  0  0  0  0  2  0  0  0  0  0  0
  196.4380  170.4900  144.7330 C   0  0  2  0  0  3  0  0  0  0  0  0
  195.4330  170.7650  145.8740 C   0  0  0  0  0  2  0  0  0  0  0  0
  195.7390  173.5370  145.1920 C   0  0  0  0  0  0  0  0  0  0  0  0
  194.1670  171.4940  145.4140 C   0  0  0  0  0  2  0  0  0  0  0  0
  194.3880  172.9010  144.8280 C   0  0  1  0  0  3  0  0  0  0  0  0
  187.7280  175.1860  142.5680 C   0  0  0  0  0  2  0  0  0  0  0  0
  188.7740  177.1210  144.7850 C   0  0  0  0  0  2  0  0  0  0  0  0
  185.2000  177.9890  142.5260 C   0  0  0  0  0  0  0  0  0  0  0  0
  185.9230  176.8300  142.2240 C   0  0  0  0  0  3  0  0  0  0  0  0
  187.0820  176.4950  142.9310 C   0  0  0  0  0  0  0  0  0  0  0  0
  189.7290  174.8880  144.0500 C   0  0  1  0  0  3  0  0  0  0  0  0
  186.7870  178.4950  144.2850 C   0  0  0  0  0  3  0  0  0  0  0  0
  187.5110  177.3330  143.9980 C   0  0  0  0  0  0  0  0  0  0  0  0
  185.6390  178.8200  143.5620 C   0  0  0  0  0  3  0  0  0  0  0  0
  189.0040  175.6640  145.1610 C   0  0  0  0  0  2  0  0  0  0  0  0
  189.2450  175.2300  142.6400 C   0  0  0  0  0  2  0  0  0  0  0  0
  183.9870  178.3240  141.7620 C   0  0  0  0  0  0  0  0  0  0  0  0
  182.8600  178.3380  142.3260 O   0  0  0  0  0  1  0  0  0  0  0  0
  184.0740  178.6300  140.4080 O   0  0  0  0  0  0  0  0  0  0  0  0
  197.6110  169.7310  145.1810 N   0  0  0  0  0  0  0  0  0  0  0  0
  197.4590  169.4070  146.4890 O   0  0  0  0  0  1  0  0  0  0  0  0
  197.6780  168.4880  144.4280 C   0  0  0  0  0  1  0  0  0  0  0  0
  1 10  2  0  0  0  0
  2 15  2  0  0  0  0
  3  9  2  0  0  0  0
  4  5  1  1  0  0  0
  4  8  1  0  0  0  0
  5  1  1  0  0  0  0
  6  8  1  6  0  0  0
  6  7  1  0  0  0  0
  7 11  2  0  0  0  0
  9 11  1  0  0  0  0
 10  6  1  0  0  0  0
 10  9  1  0  0  0  0
 12 13  1  0  0  0  0
 12  2  1  0  0  0  0
 13 32  1  1  0  0  0
 13 14  1  0  0  0  0
 15  3  1  0  0  0  0
 16 14  1  0  0  0  0
 17 15  1  0  0  0  0
 17  1  1  0  0  0  0
 17 16  1  1  0  0  0
 18 28  1  0  0  0  0
 18 22  1  0  0  0  0
 19 27  1  0  0  0  0
 20 26  1  0  0  0  0
 21 20  2  0  0  0  0
 21 22  1  0  0  0  0
 22 25  2  0  0  0  0
 23 28  1  6  0  0  0
 23  4  1  0  0  0  0
 23 27  1  0  0  0  0
 25 24  1  0  0  0  0
 25 19  1  0  0  0  0
 26 24  2  0  0  0  0
 29 30  1  0  0  0  0
 29 20  1  0  0  0  0
 31 29  2  0  0  0  0
 32 33  1  0  0  0  0
 34 32  1  0  0  0  0
M  END
>  <MODEL>
5

>  <REMARK>
 VINA RESULT:      -8.0      1.461      1.867
  Name = 
  3 active torsions:
  status: ('A' for Active; 'I' for Inactive)
    1  A    between atoms: N_3  and  C_25
    2  A    between atoms: C_7  and  C_11
    3  A    between atoms: C_8  and  C_18
                            x       y       z     vdW  Elec       q    Type
                         _______ _______ _______ _____ _____    ______ ____

>  <TORSDO>
F 3

$$$$
=
 OpenBabel11052420153D

 34 39  0  0  1  0  0  0  0  0999 V2000
  189.3990  176.3150  143.6810 C   0  0  0  0  0  0  0  0  0  0  0  0
  186.2900  178.2950  142.8880 C   0  0  0  0  0  3  0  0  0  0  0  0
  187.1980  176.3270  141.8760 N   0  0  0  0  0  0  0  0  0  0  0  0
  191.8810  176.1510  143.2430 C   0  0  2  0  0  3  0  0  0  0  0  0
  190.7660  176.3880  144.2920 C   0  0  0  0  0  2  0  0  0  0  0  0
  190.2130  174.4610  142.2270 C   0  0  1  0  0  3  0  0  0  0  0  0
  189.6760  173.9780  140.9330 N   0  0  0  0  0  0  0  0  0  0  0  0
  191.4960  175.2720  142.0180 C   0  0  0  0  0  2  0  0  0  0  0  0
  188.0910  175.3870  141.8850 C   0  0  0  0  0  0  0  0  0  0  0  0
  189.1770  175.3610  142.7870 C   0  0  0  0  0  0  0  0  0  0  0  0
  188.3920  174.5540  140.7920 N   0  0  0  0  0  0  0  0  0  0  0  0
  186.2770  179.3880  143.9170 C   0  0  0  0  0  2  0  0  0  0  0  0
  185.9230  178.8960  145.3300 C   0  0  2  0  0  3  0  0  0  0  0  0
  186.3290  177.4370  145.6360 C   0  0  0  0  0  2  0  0  0  0  0  0
  187.2130  177.3320  142.9080 C   0  0  0  0  0  0  0  0  0  0  0  0
  187.8180  177.1550  145.4170 C   0  0  0  0  0  2  0  0  0  0  0  0
  188.3220  177.3370  143.9730 C   0  0  1  0  0  3  0  0  0  0  0  0
  195.3160  174.4180  143.6560 C   0  0  0  0  0  2  0  0  0  0  0  0
  192.7000  173.5010  145.0960 C   0  0  0  0  0  2  0  0  0  0  0  0
  196.2110  170.9920  144.9660 C   0  0  0  0  0  0  0  0  0  0  0  0
  196.2410  172.2280  144.3110 C   0  0  0  0  0  3  0  0  0  0  0  0
  195.1360  173.0850  144.3290 C   0  0  0  0  0  0  0  0  0  0  0  0
  193.1770  175.6990  143.9210 C   0  0  1  0  0  3  0  0  0  0  0  0
  193.9500  171.4620  145.7000 C   0  0  0  0  0  3  0  0  0  0  0  0
  193.9750  172.7040  145.0570 C   0  0  0  0  0  0  0  0  0  0  0  0
  195.0570  170.6140  145.6610 C   0  0  0  0  0  3  0  0  0  0  0  0
  192.9380  174.9950  145.2660 C   0  0  0  0  0  2  0  0  0  0  0  0
  194.0590  174.9060  142.9560 C   0  0  0  0  0  2  0  0  0  0  0  0
  197.3840  170.1050  144.9250 C   0  0  0  0  0  0  0  0  0  0  0  0
  197.8940  169.6710  145.9930 O   0  0  0  0  0  1  0  0  0  0  0  0
  197.9410  169.7360  143.7060 O   0  0  0  0  0  0  0  0  0  0  0  0
  184.5080  179.1630  145.6120 N   0  0  0  0  0  0  0  0  0  0  0  0
  183.7720  178.8740  144.5100 O   0  0  0  0  0  1  0  0  0  0  0  0
  184.0680  178.2730  146.6760 C   0  0  0  0  0  1  0  0  0  0  0  0
  1 17  1  0  0  0  0
  1  5  1  0  0  0  0
  2 15  2  0  0  0  0
  2 12  1  0  0  0  0
  3  9  2  0  0  0  0
  3 15  1  0  0  0  0
  4  8  1  6  0  0  0
  4 23  1  0  0  0  0
  4  5  1  0  0  0  0
  6  8  1  6  0  0  0
  6 10  1  0  0  0  0
  7  6  1  0  0  0  0
  9 10  1  0  0  0  0
 10  1  2  0  0  0  0
 11  7  2  0  0  0  0
 11  9  1  0  0  0  0
 12 13  1  0  0  0  0
 13 32  1  6  0  0  0
 13 14  1  0  0  0  0
 15 17  1  0  0  0  0
 16 14  1  0  0  0  0
 17 16  1  1  0  0  0
 18 22  1  0  0  0  0
 19 27  1  0  0  0  0
 20 26  1  0  0  0  0
 21 22  1  0  0  0  0
 21 20  2  0  0  0  0
 22 25  2  0  0  0  0
 23 28  1  6  0  0  0
 23 27  1  0  0  0  0
 25 19  1  0  0  0  0
 25 24  1  0  0  0  0
 26 24  2  0  0  0  0
 28 18  1  0  0  0  0
 29 20  1  0  0  0  0
 29 30  1  0  0  0  0
 31 29  2  0  0  0  0
 32 34  1  0  0  0  0
 33 32  1  0  0  0  0
M  END
>  <MODEL>
6

>  <REMARK>
 VINA RESULT:      -7.8      3.128     10.314
  Name = 
  3 active torsions:
  status: ('A' for Active; 'I' for Inactive)
    1  A    between atoms: N_3  and  C_25
    2  A    between atoms: C_7  and  C_11
    3  A    between atoms: C_8  and  C_18
                            x       y       z     vdW  Elec       q    Type
                         _______ _______ _______ _____ _____    ______ ____

>  <TORSDO>
F 3

$$$$
=
 OpenBabel11052420153D

 34 39  0  0  1  0  0  0  0  0999 V2000
  193.6190  174.7210  142.9570 C   0  0  0  0  0  0  0  0  0  0  0  0
  196.6500  172.9590  141.5730 C   0  0  0  0  0  3  0  0  0  0  0  0
  194.5600  172.1030  142.3590 N   0  0  0  0  0  0  0  0  0  0  0  0
  192.5860  175.6530  145.0660 C   0  0  2  0  0  3  0  0  0  0  0  0
  193.1430  175.9610  143.6540 C   0  0  0  0  0  2  0  0  0  0  0  0
  191.6990  173.4920  143.9640 C   0  0  1  0  0  3  0  0  0  0  0  0
  191.5350  172.0370  144.2010 N   0  0  0  0  0  0  0  0  0  0  0  0
  191.9940  174.2280  145.2750 C   0  0  0  0  0  2  0  0  0  0  0  0
  193.3600  172.3330  142.7910 C   0  0  0  0  0  0  0  0  0  0  0  0
  192.8750  173.6290  143.0750 C   0  0  0  0  0  0  0  0  0  0  0  0
  192.5510  171.3940  143.4560 N   0  0  0  0  0  0  0  0  0  0  0  0
  197.5990  174.0720  141.2320 C   0  0  0  0  0  2  0  0  0  0  0  0
  197.1770  174.8820  139.9940 C   0  0  2  0  0  3  0  0  0  0  0  0
  195.6530  174.9490  139.7460 C   0  0  0  0  0  2  0  0  0  0  0  0
  195.4160  173.2090  142.0150 C   0  0  0  0  0  0  0  0  0  0  0  0
  194.8600  175.4930  140.9370 C   0  0  0  0  0  2  0  0  0  0  0  0
  194.9420  174.6560  142.2270 C   0  0  1  0  0  3  0  0  0  0  0  0
  189.6140  177.3290  146.8920 C   0  0  0  0  0  2  0  0  0  0  0  0
  189.8120  177.0010  143.7920 C   0  0  0  0  0  2  0  0  0  0  0  0
  186.1050  178.0840  145.7210 C   0  0  0  0  0  0  0  0  0  0  0  0
  187.2310  177.8370  146.5150 C   0  0  0  0  0  3  0  0  0  0  0  0
  188.4600  177.4930  145.9420 C   0  0  0  0  0  0  0  0  0  0  0  0
  191.6450  176.7660  145.5320 C   0  0  1  0  0  3  0  0  0  0  0  0
  187.4370  177.6650  143.7410 C   0  0  0  0  0  3  0  0  0  0  0  0
  188.5700  177.4270  144.5260 C   0  0  0  0  0  0  0  0  0  0  0  0
  186.2160  177.9960  144.3300 C   0  0  0  0  0  3  0  0  0  0  0  0
  191.0830  177.6050  144.3730 C   0  0  0  0  0  2  0  0  0  0  0  0
  190.5730  176.2250  146.4790 C   0  0  0  0  0  2  0  0  0  0  0  0
  184.8220  178.4380  146.3490 C   0  0  0  0  0  0  0  0  0  0  0  0
  184.7020  178.4350  147.6030 O   0  0  0  0  0  1  0  0  0  0  0  0
  183.7280  178.7800  145.5610 O   0  0  0  0  0  0  0  0  0  0  0  0
  197.9250  174.4230  138.8190 N   0  0  0  0  0  0  0  0  0  0  0  0
  197.3770  173.2680  138.3640 O   0  0  0  0  0  1  0  0  0  0  0  0
  197.7880  175.4150  137.7630 C   0  0  0  0  0  1  0  0  0  0  0  0
  1 10  2  0  0  0  0
  1  5  1  0  0  0  0
  2 15  2  0  0  0  0
  3  9  2  0  0  0  0
  4  5  1  6  0  0  0
  4  8  1  0  0  0  0
  4 23  1  0  0  0  0
  6  7  1  0  0  0  0
  6  8  1  1  0  0  0
  9 10  1  0  0  0  0
  9 11  1  0  0  0  0
 10  6  1  0  0  0  0
 11  7  2  0  0  0  0
 12  2  1  0  0  0  0
 13 32  1  6  0  0  0
 13 12  1  0  0  0  0
 14 13  1  0  0  0  0
 14 16  1  0  0  0  0
 15 17  1  0  0  0  0
 15  3  1  0  0  0  0
 17 16  1  6  0  0  0
 17  1  1  0  0  0  0
 19 27  1  0  0  0  0
 19 25  1  0  0  0  0
 20 29  1  0  0  0  0
 20 21  1  0  0  0  0
 22 21  2  0  0  0  0
 22 18  1  0  0  0  0
 23 27  1  6  0  0  0
 23 28  1  0  0  0  0
 24 26  1  0  0  0  0
 24 25  2  0  0  0  0
 25 22  1  0  0  0  0
 26 20  2  0  0  0  0
 28 18  1  0  0  0  0
 29 30  1  0  0  0  0
 31 29  2  0  0  0  0
 33 32  1  0  0  0  0
 34 32  1  0  0  0  0
M  END
>  <MODEL>
7

>  <REMARK>
 VINA RESULT:      -7.8      3.499      4.572
  Name = 
  3 active torsions:
  status: ('A' for Active; 'I' for Inactive)
    1  A    between atoms: N_3  and  C_25
    2  A    between atoms: C_7  and  C_11
    3  A    between atoms: C_8  and  C_18
                            x       y       z     vdW  Elec       q    Type
                         _______ _______ _______ _____ _____    ______ ____

>  <TORSDO>
F 3

$$$$
=
 OpenBabel11052420153D

 34 39  0  0  1  0  0  0  0  0999 V2000
  192.1870  173.4050  143.3460 C   0  0  0  0  0  0  0  0  0  0  0  0
  193.4220  171.0420  140.6810 C   0  0  0  0  0  3  0  0  0  0  0  0
  194.3470  171.6330  142.8060 N   0  0  0  0  0  0  0  0  0  0  0  0
  192.1900  175.8180  144.0950 C   0  0  2  0  0  3  0  0  0  0  0  0
  191.3430  174.6180  143.6020 C   0  0  0  0  0  2  0  0  0  0  0  0
  193.5580  174.0120  145.3370 C   0  0  1  0  0  3  0  0  0  0  0  0
  194.9470  173.6210  145.6750 N   0  0  0  0  0  0  0  0  0  0  0  0
  193.5020  175.4660  144.8550 C   0  0  0  0  0  2  0  0  0  0  0  0
  194.2240  172.2640  143.9310 C   0  0  0  0  0  0  0  0  0  0  0  0
  193.1480  173.1320  144.2180 C   0  0  0  0  0  0  0  0  0  0  0  0
  195.2840  172.5540  144.8100 N   0  0  0  0  0  0  0  0  0  0  0  0
  192.3630  171.0990  139.6190 C   0  0  0  0  0  2  0  0  0  0  0  0
  191.0570  170.3900  140.0150 C   0  0  2  0  0  3  0  0  0  0  0  0
  190.7510  170.3810  141.5300 C   0  0  0  0  0  2  0  0  0  0  0  0
  193.2840  171.6950  141.8360 C   0  0  0  0  0  0  0  0  0  0  0  0
  190.7190  171.7770  142.1580 C   0  0  0  0  0  2  0  0  0  0  0  0
  192.0420  172.5620  142.0980 C   0  0  1  0  0  3  0  0  0  0  0  0
  189.3500  177.1340  146.3700 C   0  0  0  0  0  2  0  0  0  0  0  0
  189.4540  177.5430  143.2750 C   0  0  0  0  0  2  0  0  0  0  0  0
  185.8540  178.2900  145.5370 C   0  0  0  0  0  0  0  0  0  0  0  0
  186.9860  177.8150  146.2090 C   0  0  0  0  0  3  0  0  0  0  0  0
  188.1820  177.5660  145.5270 C   0  0  0  0  0  0  0  0  0  0  0  0
  191.3160  176.8270  144.8440 C   0  0  1  0  0  3  0  0  0  0  0  0
  187.1140  178.2980  143.4670 C   0  0  0  0  0  3  0  0  0  0  0  0
  188.2540  177.8340  144.1320 C   0  0  0  0  0  0  0  0  0  0  0  0
  185.9260  178.5300  144.1610 C   0  0  0  0  0  3  0  0  0  0  0  0
  190.7680  177.9390  143.9370 C   0  0  0  0  0  2  0  0  0  0  0  0
  190.2440  176.1200  145.6740 C   0  0  0  0  0  2  0  0  0  0  0  0
  184.6050  178.5370  146.2750 C   0  0  0  0  0  0  0  0  0  0  0  0
  183.5840  178.9700  145.6770 O   0  0  0  0  0  0  0  0  0  0  0  0
  184.5410  178.2930  147.6430 O   0  0  0  0  0  1  0  0  0  0  0  0
  191.0160  169.0500  139.4200 N   0  0  0  0  0  0  0  0  0  0  0  0
  190.5540  168.1670  140.3400 O   0  0  0  0  0  1  0  0  0  0  0  0
  190.0710  169.0600  138.3130 C   0  0  0  0  0  1  0  0  0  0  0  0
  1  5  1  0  0  0  0
  1 10  2  0  0  0  0
  2 15  2  0  0  0  0
  3  9  2  0  0  0  0
  4  5  1  1  0  0  0
  4 23  1  0  0  0  0
  4  8  1  0  0  0  0
  6  8  1  6  0  0  0
  6  7  1  0  0  0  0
  9 10  1  0  0  0  0
  9 11  1  0  0  0  0
 10  6  1  0  0  0  0
 11  7  2  0  0  0  0
 12 13  1  0  0  0  0
 12  2  1  0  0  0  0
 13 32  1  1  0  0  0
 13 14  1  0  0  0  0
 14 16  1  0  0  0  0
 15 17  1  0  0  0  0
 15  3  1  0  0  0  0
 17 16  1  1  0  0  0
 17  1  1  0  0  0  0
 19 27  1  0  0  0  0
 19 25  1  0  0  0  0
 20 21  1  0  0  0  0
 20 29  1  0  0  0  0
 22 21  2  0  0  0  0
 22 18  1  0  0  0  0
 23 27  1  6  0  0  0
 23 28  1  0  0  0  0
 24 25  2  0  0  0  0
 24 26  1  0  0  0  0
 25 22  1  0  0  0  0
 26 20  2  0  0  0  0
 28 18  1  0  0  0  0
 29 31  1  0  0  0  0
 30 29  2  0  0  0  0
 32 33  1  0  0  0  0
 34 32  1  0  0  0  0
M  END
>  <MODEL>
8

>  <REMARK>
 VINA RESULT:      -7.7      3.494      4.563
  Name = 
  3 active torsions:
  status: ('A' for Active; 'I' for Inactive)
    1  A    between atoms: N_3  and  C_25
    2  A    between atoms: C_7  and  C_11
    3  A    between atoms: C_8  and  C_18
                            x       y       z     vdW  Elec       q    Type
                         _______ _______ _______ _____ _____    ______ ____

>  <TORSDO>
F 3

$$$$
=
 OpenBabel11052420153D

 34 39  0  0  1  0  0  0  0  0999 V2000
  193.8130  174.0080  142.7010 C   0  0  0  0  0  0  0  0  0  0  0  0
  197.3160  174.9450  141.6730 C   0  0  0  0  0  3  0  0  0  0  0  0
  196.5240  173.4590  143.3710 N   0  0  0  0  0  0  0  0  0  0  0  0
  191.8650  174.6830  144.1610 C   0  0  2  0  0  3  0  0  0  0  0  0
  192.3850  174.4650  142.7180 C   0  0  0  0  0  2  0  0  0  0  0  0
  193.3340  172.6350  144.7250 C   0  0  1  0  0  3  0  0  0  0  0  0
  194.2710  172.1110  145.7480 N   0  0  0  0  0  0  0  0  0  0  0  0
  192.5420  173.8280  145.2710 C   0  0  0  0  0  2  0  0  0  0  0  0
  195.5270  172.8570  143.9400 C   0  0  0  0  0  0  0  0  0  0  0  0
  194.1780  173.1080  143.6040 C   0  0  0  0  0  0  0  0  0  0  0  0
  195.5710  172.2540  145.2100 N   0  0  0  0  0  0  0  0  0  0  0  0
  197.1220  175.8900  140.5220 C   0  0  0  0  0  2  0  0  0  0  0  0
  196.6450  175.1990  139.2340 C   0  0  2  0  0  3  0  0  0  0  0  0
  195.7950  173.9270  139.4500 C   0  0  0  0  0  2  0  0  0  0  0  0
  196.2820  174.3300  142.2490 C   0  0  0  0  0  0  0  0  0  0  0  0
  194.5600  174.1550  140.3270 C   0  0  0  0  0  2  0  0  0  0  0  0
  194.8470  174.6040  141.7720 C   0  0  1  0  0  3  0  0  0  0  0  0
  188.1950  175.6930  143.4630 C   0  0  0  0  0  2  0  0  0  0  0  0
  189.5680  175.8850  146.2620 C   0  0  0  0  0  2  0  0  0  0  0  0
  185.8020  177.8330  145.4500 C   0  0  0  0  0  0  0  0  0  0  0  0
  186.4360  177.1340  144.4170 C   0  0  0  0  0  3  0  0  0  0  0  0
  187.6520  176.4750  144.6270 C   0  0  0  0  0  0  0  0  0  0  0  0
  190.3360  174.6170  144.2020 C   0  0  1  0  0  3  0  0  0  0  0  0
  187.5990  177.2020  146.9490 C   0  0  0  0  0  3  0  0  0  0  0  0
  188.2340  176.4920  145.9250 C   0  0  0  0  0  0  0  0  0  0  0  0
  186.3920  177.8630  146.7180 C   0  0  0  0  0  3  0  0  0  0  0  0
  189.7760  174.5150  145.6290 C   0  0  0  0  0  2  0  0  0  0  0  0
  189.7110  175.7380  143.3710 C   0  0  0  0  0  2  0  0  0  0  0  0
  184.5270  178.5230  145.2020 C   0  0  0  0  0  0  0  0  0  0  0  0
  183.6860  178.6660  146.1290 O   0  0  0  0  0  1  0  0  0  0  0  0
  184.2380  179.0280  143.9380 O   0  0  0  0  0  0  0  0  0  0  0  0
  197.7830  174.9760  138.3360 N   0  0  0  0  0  0  0  0  0  0  0  0
  197.9200  173.6450  138.1130 O   0  0  0  0  0  1  0  0  0  0  0  0
  197.4980  175.6050  137.0560 C   0  0  0  0  0  1  0  0  0  0  0  0
  1  5  1  0  0  0  0
  1 10  2  0  0  0  0
  2 15  2  0  0  0  0
  3  9  2  0  0  0  0
  4  5  1  6  0  0  0
  4 23  1  0  0  0  0
  4  8  1  0  0  0  0
  6  8  1  1  0  0  0
  6  7  1  0  0  0  0
  9 11  1  0  0  0  0
 10  9  1  0  0  0  0
 10  6  1  0  0  0  0
 11  7  2  0  0  0  0
 12  2  1  0  0  0  0
 13 32  1  6  0  0  0
 13 14  1  0  0  0  0
 13 12  1  0  0  0  0
 14 16  1  0  0  0  0
 15  3  1  0  0  0  0
 17 16  1  6  0  0  0
 17 15  1  0  0  0  0
 17  1  1  0  0  0  0
 18 22  1  0  0  0  0
 20 26  1  0  0  0  0
 21 22  1  0  0  0  0
 21 20  2  0  0  0  0
 22 25  2  0  0  0  0
 23 28  1  1  0  0  0
 23 27  1  0  0  0  0
 25 19  1  0  0  0  0
 25 24  1  0  0  0  0
 26 24  2  0  0  0  0
 27 19  1  0  0  0  0
 28 18  1  0  0  0  0
 29 20  1  0  0  0  0
 29 30  1  0  0  0  0
 31 29  2  0  0  0  0
 33 32  1  0  0  0  0
 34 32  1  0  0  0  0
M  END
>  <MODEL>
9

>  <REMARK>
 VINA RESULT:      -7.6      3.404      4.282
  Name = 
  3 active torsions:
  status: ('A' for Active; 'I' for Inactive)
    1  A    between atoms: N_3  and  C_25
    2  A    between atoms: C_7  and  C_11
    3  A    between atoms: C_8  and  C_18
                            x       y       z     vdW  Elec       q    Type
                         _______ _______ _______ _____ _____    ______ ____

>  <TORSDO>
F 3

$$$$
