=
 OpenBabel11052419033D

 32 38  0  0  1  0  0  0  0  0999 V2000
  189.5530  175.6040  145.1020 C   0  0  2  0  0  3  0  0  0  0  0  0
  187.3280  176.5580  144.3220 C   0  0  0  0  0  0  0  0  0  0  0  0
  189.9110  174.4170  145.9850 C   0  0  0  0  0  2  0  0  0  0  0  0
  188.1410  176.0680  145.3630 C   0  0  0  0  0  0  0  0  0  0  0  0
  186.1240  177.2330  144.6360 C   0  0  0  0  0  0  0  0  0  0  0  0
  186.6010  177.6080  139.5380 C   0  0  0  0  0  2  0  0  0  0  0  0
  187.6870  176.3500  142.9730 C   0  0  0  0  0  0  0  0  0  0  0  0
  184.9010  178.3030  141.2150 C   0  0  0  0  0  2  0  0  0  0  0  0
  185.7310  177.6230  142.2690 C   0  0  0  0  0  0  0  0  0  0  0  0
  187.6780  176.0990  146.6910 C   0  0  0  0  0  0  0  0  0  0  0  0
  185.3540  177.7770  143.6030 C   0  0  0  0  0  3  0  0  0  0  0  0
  186.4670  176.7290  146.9870 C   0  0  0  0  0  3  0  0  0  0  0  0
  188.3720  175.3220  147.7820 C   0  0  0  0  0  2  0  0  0  0  0  0
  188.8010  175.3920  142.6480 C   0  0  0  0  0  2  0  0  0  0  0  0
  189.9700  175.5560  143.6180 C   0  0  2  0  0  3  0  0  0  0  0  0
  186.9010  176.9020  141.9430 C   0  0  0  0  0  0  0  0  0  0  0  0
  185.7070  177.3270  145.9780 C   0  0  0  0  0  0  0  0  0  0  0  0
  189.8030  174.8880  147.4330 C   0  0  0  0  0  2  0  0  0  0  0  0
  185.1120  177.7000  139.8300 C   0  0  0  0  0  2  0  0  0  0  0  0
  187.2450  176.6160  140.5000 C   0  0  0  0  0  2  0  0  0  0  0  0
  193.7250  175.1610  142.5050 C   0  0  2  0  0  3  0  0  0  0  0  0
  194.1080  172.0470  141.3810 O   0  0  0  0  0  1  0  0  0  0  0  0
  192.8350  176.3800  142.2650 C   0  0  0  0  0  2  0  0  0  0  0  0
  191.8670  172.5990  141.9920 C   0  0  0  0  0  2  0  0  0  0  0  0
  191.1720  174.6540  143.3030 C   0  0  1  0  0  3  0  0  0  0  0  0
  193.5100  174.2520  141.4580 O   0  0  0  0  0  0  0  0  0  0  0  0
  190.9500  173.8200  142.0370 C   0  0  0  0  0  2  0  0  0  0  0  0
  192.5060  175.4400  143.4020 C   0  0  1  0  0  0  0  0  0  0  0  0
  192.8710  176.0090  144.7580 C   0  0  0  0  0  1  0  0  0  0  0  0
  193.3380  172.9970  142.0530 C   0  0  2  0  0  3  0  0  0  0  0  0
  184.4480  178.0350  146.3650 C   0  0  0  0  0  2  0  0  0  0  0  0
  184.5910  178.5900  147.6360 O   0  0  0  0  0  1  0  0  0  0  0  0
  1  4  1  0  0  0  0
  1  3  1  6  0  0  0
  2  5  1  0  0  0  0
  2  4  2  0  0  0  0
  3 18  1  0  0  0  0
  4 10  1  0  0  0  0
  5 17  2  0  0  0  0
  6 19  1  0  0  0  0
  6 20  1  0  0  0  0
  7  2  1  0  0  0  0
  8  9  1  0  0  0  0
  9 11  2  0  0  0  0
 10 12  2  0  0  0  0
 10 13  1  0  0  0  0
 11  5  1  0  0  0  0
 14  7  1  0  0  0  0
 15 14  1  6  0  0  0
 15  1  1  0  0  0  0
 16  9  1  0  0  0  0
 16  7  2  0  0  0  0
 17 31  1  0  0  0  0
 17 12  1  0  0  0  0
 18 13  1  0  0  0  0
 19  8  1  0  0  0  0
 20 16  1  0  0  0  0
 21 23  1  6  0  0  0
 21 28  1  0  0  0  0
 23 28  1  0  0  0  0
 24 27  1  0  0  0  0
 24 30  1  0  0  0  0
 25 27  1  6  0  0  0
 25 28  1  0  0  0  0
 25 15  1  0  0  0  0
 26 30  1  0  0  0  0
 26 21  1  0  0  0  0
 28 29  1  1  0  0  0
 30 22  1  6  0  0  0
 31 32  1  0  0  0  0
M  END
>  <MODEL>
1

>  <REMARK>
 VINA RESULT:      -8.7      0.000      0.000
  Name = 
  2 active torsions:
  status: ('A' for Active; 'I' for Inactive)
    1  A    between atoms: C_13  and  C_29
    2  A    between atoms: C_16  and  C_27
                            x       y       z     vdW  Elec       q    Type
                         _______ _______ _______ _____ _____    ______ ____

>  <TORSDO>
F 2

$$$$
=
 OpenBabel11052419033D

 32 38  0  0  1  0  0  0  0  0999 V2000
  191.1040  176.1140  145.1570 C   0  0  2  0  0  3  0  0  0  0  0  0
  189.3080  175.7350  143.3970 C   0  0  0  0  0  0  0  0  0  0  0  0
  191.1440  175.8650  146.6580 C   0  0  0  0  0  2  0  0  0  0  0  0
  189.6830  176.2270  144.6630 C   0  0  0  0  0  0  0  0  0  0  0  0
  188.0510  176.0940  142.8530 C   0  0  0  0  0  0  0  0  0  0  0  0
  190.4090  173.4150  139.1640 C   0  0  0  0  0  2  0  0  0  0  0  0
  190.1580  174.8620  142.6860 C   0  0  0  0  0  0  0  0  0  0  0  0
  188.1760  174.4780  139.4310 C   0  0  0  0  0  2  0  0  0  0  0  0
  188.5690  174.8400  140.8360 C   0  0  0  0  0  0  0  0  0  0  0  0
  188.7500  176.9270  145.4500 C   0  0  0  0  0  0  0  0  0  0  0  0
  187.7100  175.6600  141.5690 C   0  0  0  0  0  3  0  0  0  0  0  0
  187.4960  177.2400  144.9220 C   0  0  0  0  0  3  0  0  0  0  0  0
  189.0070  177.2030  146.9110 C   0  0  0  0  0  2  0  0  0  0  0  0
  191.3460  174.2600  143.3870 C   0  0  0  0  0  2  0  0  0  0  0  0
  192.0530  175.2940  144.2590 C   0  0  2  0  0  3  0  0  0  0  0  0
  189.8010  174.4300  141.3940 C   0  0  0  0  0  0  0  0  0  0  0  0
  187.1530  176.8640  143.6210 C   0  0  0  0  0  0  0  0  0  0  0  0
  190.4780  177.0640  147.3290 C   0  0  0  0  0  2  0  0  0  0  0  0
  188.9180  173.2470  138.9190 C   0  0  0  0  0  2  0  0  0  0  0  0
  190.6760  173.4370  140.6650 C   0  0  0  0  0  2  0  0  0  0  0  0
  195.9710  175.2910  144.6490 C   0  0  2  0  0  3  0  0  0  0  0  0
  196.8190  172.4370  146.1470 O   0  0  0  0  0  1  0  0  0  0  0  0
  195.1840  175.7720  143.4300 C   0  0  0  0  0  2  0  0  0  0  0  0
  194.4910  172.6310  145.6580 C   0  0  0  0  0  2  0  0  0  0  0  0
  193.3170  174.7640  144.9530 C   0  0  1  0  0  3  0  0  0  0  0  0
  196.1650  173.9070  144.5230 O   0  0  0  0  0  0  0  0  0  0  0  0
  193.5790  173.2910  144.6250 C   0  0  0  0  0  2  0  0  0  0  0  0
  194.5070  175.7450  144.7810 C   0  0  1  0  0  0  0  0  0  0  0  0
  194.3550  177.1250  145.3880 C   0  0  0  0  0  1  0  0  0  0  0  0
  195.8340  173.3470  145.7620 C   0  0  2  0  0  3  0  0  0  0  0  0
  185.8170  177.2760  143.0920 C   0  0  0  0  0  2  0  0  0  0  0  0
  185.8860  178.5790  142.6020 O   0  0  0  0  0  1  0  0  0  0  0  0
  1  3  1  1  0  0  0
  2  4  2  0  0  0  0
  3 18  1  0  0  0  0
  4  1  1  0  0  0  0
  4 10  1  0  0  0  0
  5  2  1  0  0  0  0
  5 17  2  0  0  0  0
  6 20  1  0  0  0  0
  7 14  1  0  0  0  0
  7  2  1  0  0  0  0
  8  9  1  0  0  0  0
  9 16  1  0  0  0  0
  9 11  2  0  0  0  0
 10 13  1  0  0  0  0
 11  5  1  0  0  0  0
 12 10  2  0  0  0  0
 13 18  1  0  0  0  0
 15 14  1  1  0  0  0
 15 25  1  0  0  0  0
 15  1  1  0  0  0  0
 16  7  2  0  0  0  0
 17 12  1  0  0  0  0
 19  6  1  0  0  0  0
 19  8  1  0  0  0  0
 20 16  1  0  0  0  0
 21 23  1  6  0  0  0
 21 28  1  0  0  0  0
 23 28  1  0  0  0  0
 24 30  1  0  0  0  0
 25 27  1  6  0  0  0
 26 21  1  0  0  0  0
 26 30  1  0  0  0  0
 27 24  1  0  0  0  0
 28 25  1  0  0  0  0
 28 29  1  1  0  0  0
 30 22  1  6  0  0  0
 31 17  1  0  0  0  0
 32 31  1  0  0  0  0
M  END
>  <MODEL>
2

>  <REMARK>
 VINA RESULT:      -8.3      2.464      3.586
  Name = 
  2 active torsions:
  status: ('A' for Active; 'I' for Inactive)
    1  A    between atoms: C_13  and  C_29
    2  A    between atoms: C_16  and  C_27
                            x       y       z     vdW  Elec       q    Type
                         _______ _______ _______ _____ _____    ______ ____

>  <TORSDO>
F 2

$$$$
=
 OpenBabel11052419033D

 32 38  0  0  1  0  0  0  0  0999 V2000
  191.7740  174.1150  144.0210 C   0  0  2  0  0  3  0  0  0  0  0  0
  190.0730  175.6950  145.0610 C   0  0  0  0  0  0  0  0  0  0  0  0
  192.4800  172.8720  144.5460 C   0  0  0  0  0  2  0  0  0  0  0  0
  191.2840  174.9800  145.1560 C   0  0  0  0  0  0  0  0  0  0  0  0
  189.7790  176.6990  146.0140 C   0  0  0  0  0  0  0  0  0  0  0  0
  185.9710  176.9310  142.5800 C   0  0  0  0  0  2  0  0  0  0  0  0
  189.1410  175.3930  144.0460 C   0  0  0  0  0  0  0  0  0  0  0  0
  186.5110  178.0980  144.7090 C   0  0  0  0  0  2  0  0  0  0  0  0
  187.7070  177.1970  144.8440 C   0  0  0  0  0  0  0  0  0  0  0  0
  192.1110  175.1450  146.2830 C   0  0  0  0  0  0  0  0  0  0  0  0
  188.6090  177.4520  145.8780 C   0  0  0  0  0  3  0  0  0  0  0  0
  191.7900  176.1070  147.2410 C   0  0  0  0  0  3  0  0  0  0  0  0
  193.2450  174.1910  146.5690 C   0  0  0  0  0  2  0  0  0  0  0  0
  189.3260  174.1460  143.2240 C   0  0  0  0  0  2  0  0  0  0  0  0
  190.7910  173.9490  142.8440 C   0  0  2  0  0  3  0  0  0  0  0  0
  187.9650  176.1590  143.9210 C   0  0  0  0  0  0  0  0  0  0  0  0
  190.6550  176.9100  147.0980 C   0  0  0  0  0  0  0  0  0  0  0  0
  193.6790  173.3490  145.3610 C   0  0  0  0  0  2  0  0  0  0  0  0
  185.3960  177.4640  143.8830 C   0  0  0  0  0  2  0  0  0  0  0  0
  186.9330  175.7880  142.8820 C   0  0  0  0  0  2  0  0  0  0  0  0
  190.8400  172.3150  139.2630 C   0  0  2  0  0  3  0  0  0  0  0  0
  190.6880  169.0110  139.6750 O   0  0  0  0  0  1  0  0  0  0  0  0
  190.0730  173.5710  139.6720 C   0  0  0  0  0  2  0  0  0  0  0  0
  190.5290  170.2590  141.7040 C   0  0  0  0  0  2  0  0  0  0  0  0
  191.0430  172.7290  141.9460 C   0  0  1  0  0  3  0  0  0  0  0  0
  190.0410  171.2000  139.5610 O   0  0  0  0  0  0  0  0  0  0  0  0
  190.0190  171.6150  142.1880 C   0  0  0  0  0  2  0  0  0  0  0  0
  191.2840  173.1540  140.4740 C   0  0  1  0  0  0  0  0  0  0  0  0
  192.4980  174.0190  140.1970 C   0  0  0  0  0  1  0  0  0  0  0  0
  190.8700  170.2830  140.2170 C   0  0  2  0  0  3  0  0  0  0  0  0
  190.3950  177.9610  148.1290 C   0  0  0  0  0  2  0  0  0  0  0  0
  191.3730  177.9010  149.1200 O   0  0  0  0  0  1  0  0  0  0  0  0
  1  3  1  1  0  0  0
  1  4  1  0  0  0  0
  2  4  2  0  0  0  0
  2  5  1  0  0  0  0
  3 18  1  0  0  0  0
  4 10  1  0  0  0  0
  5 17  2  0  0  0  0
  6 20  1  0  0  0  0
  6 19  1  0  0  0  0
  7  2  1  0  0  0  0
  8  9  1  0  0  0  0
  9 11  2  0  0  0  0
 10 13  1  0  0  0  0
 10 12  2  0  0  0  0
 11  5  1  0  0  0  0
 14  7  1  0  0  0  0
 15 14  1  1  0  0  0
 15  1  1  0  0  0  0
 16  7  2  0  0  0  0
 16  9  1  0  0  0  0
 17 12  1  0  0  0  0
 17 31  1  0  0  0  0
 18 13  1  0  0  0  0
 19  8  1  0  0  0  0
 20 16  1  0  0  0  0
 21 26  1  0  0  0  0
 21 23  1  6  0  0  0
 21 28  1  0  0  0  0
 23 28  1  0  0  0  0
 24 27  1  0  0  0  0
 25 27  1  6  0  0  0
 25 15  1  0  0  0  0
 26 30  1  0  0  0  0
 28 29  1  6  0  0  0
 28 25  1  0  0  0  0
 30 22  1  6  0  0  0
 30 24  1  0  0  0  0
 31 32  1  0  0  0  0
M  END
>  <MODEL>
3

>  <REMARK>
 VINA RESULT:      -7.9      2.503      4.068
  Name = 
  2 active torsions:
  status: ('A' for Active; 'I' for Inactive)
    1  A    between atoms: C_13  and  C_29
    2  A    between atoms: C_16  and  C_27
                            x       y       z     vdW  Elec       q    Type
                         _______ _______ _______ _____ _____    ______ ____

>  <TORSDO>
F 2

$$$$
=
 OpenBabel11052419033D

 32 38  0  0  1  0  0  0  0  0999 V2000
  189.5090  176.1680  145.8350 C   0  0  2  0  0  3  0  0  0  0  0  0
  190.6080  174.4560  144.3070 C   0  0  0  0  0  0  0  0  0  0  0  0
  189.9910  177.4920  146.4120 C   0  0  0  0  0  2  0  0  0  0  0  0
  190.6740  175.2930  145.4390 C   0  0  0  0  0  0  0  0  0  0  0  0
  191.5940  173.4580  144.1200 C   0  0  0  0  0  0  0  0  0  0  0  0
  188.1920  172.7310  140.3450 C   0  0  0  0  0  2  0  0  0  0  0  0
  189.5900  174.6290  143.3460 C   0  0  0  0  0  0  0  0  0  0  0  0
  190.3520  171.6920  141.0080 C   0  0  0  0  0  2  0  0  0  0  0  0
  190.4520  172.7150  142.1060 C   0  0  0  0  0  0  0  0  0  0  0  0
  191.8000  175.2490  146.2820 C   0  0  0  0  0  0  0  0  0  0  0  0
  191.4870  172.5850  143.0320 C   0  0  0  0  0  3  0  0  0  0  0  0
  192.7890  174.2890  146.0640 C   0  0  0  0  0  3  0  0  0  0  0  0
  192.0490  176.3220  147.3130 C   0  0  0  0  0  2  0  0  0  0  0  0
  188.7290  175.8620  143.4000 C   0  0  0  0  0  2  0  0  0  0  0  0
  188.3340  176.1960  144.8370 C   0  0  2  0  0  3  0  0  0  0  0  0
  189.4960  173.7440  142.2540 C   0  0  0  0  0  0  0  0  0  0  0  0
  192.6780  173.3710  145.0160 C   0  0  0  0  0  0  0  0  0  0  0  0
  190.8130  177.1660  147.6560 C   0  0  0  0  0  2  0  0  0  0  0  0
  189.5140  172.1830  139.8320 C   0  0  0  0  0  2  0  0  0  0  0  0
  188.4520  173.9750  141.1870 C   0  0  0  0  0  2  0  0  0  0  0  0
  184.9020  177.7360  145.9990 C   0  0  2  0  0  3  0  0  0  0  0  0
  184.4320  180.5410  144.2630 O   0  0  0  0  0  1  0  0  0  0  0  0
  185.1920  176.2550  145.7550 C   0  0  0  0  0  2  0  0  0  0  0  0
  186.3890  179.3230  143.6440 C   0  0  0  0  0  2  0  0  0  0  0  0
  187.3970  177.4070  144.9610 C   0  0  1  0  0  3  0  0  0  0  0  0
  184.5390  178.3160  144.7740 O   0  0  0  0  0  0  0  0  0  0  0  0
  186.8840  177.8790  143.5960 C   0  0  0  0  0  2  0  0  0  0  0  0
  186.3380  177.1880  146.0730 C   0  0  1  0  0  0  0  0  0  0  0  0
  186.8510  177.0260  147.4900 C   0  0  0  0  0  1  0  0  0  0  0  0
  185.2720  179.5030  144.6660 C   0  0  2  0  0  3  0  0  0  0  0  0
  193.7420  172.3320  144.8680 C   0  0  0  0  0  2  0  0  0  0  0  0
  194.7800  172.5890  145.7620 O   0  0  0  0  0  1  0  0  0  0  0  0
  1  3  1  6  0  0  0
  2  4  2  0  0  0  0
  3 18  1  0  0  0  0
  4  1  1  0  0  0  0
  4 10  1  0  0  0  0
  5  2  1  0  0  0  0
  5 17  2  0  0  0  0
  6 20  1  0  0  0  0
  7 14  1  0  0  0  0
  7  2  1  0  0  0  0
  8  9  1  0  0  0  0
  9 16  1  0  0  0  0
  9 11  2  0  0  0  0
 10 13  1  0  0  0  0
 11  5  1  0  0  0  0
 12 10  2  0  0  0  0
 13 18  1  0  0  0  0
 15 14  1  6  0  0  0
 15 25  1  0  0  0  0
 15  1  1  0  0  0  0
 16  7  2  0  0  0  0
 17 12  1  0  0  0  0
 19  6  1  0  0  0  0
 19  8  1  0  0  0  0
 20 16  1  0  0  0  0
 21 23  1  6  0  0  0
 21 28  1  0  0  0  0
 23 28  1  0  0  0  0
 24 30  1  0  0  0  0
 25 27  1  6  0  0  0
 25 28  1  0  0  0  0
 26 21  1  0  0  0  0
 27 24  1  0  0  0  0
 28 29  1  1  0  0  0
 30 22  1  6  0  0  0
 30 26  1  0  0  0  0
 31 17  1  0  0  0  0
 31 32  1  0  0  0  0
M  END
>  <MODEL>
4

>  <REMARK>
 VINA RESULT:      -7.7      2.341      7.041
  Name = 
  2 active torsions:
  status: ('A' for Active; 'I' for Inactive)
    1  A    between atoms: C_13  and  C_29
    2  A    between atoms: C_16  and  C_27
                            x       y       z     vdW  Elec       q    Type
                         _______ _______ _______ _____ _____    ______ ____

>  <TORSDO>
F 2

$$$$
=
 OpenBabel11052419033D

 32 38  0  0  1  0  0  0  0  0999 V2000
  188.4210  176.7590  142.2210 C   0  0  2  0  0  3  0  0  0  0  0  0
  188.1730  175.2860  140.1620 C   0  0  0  0  0  0  0  0  0  0  0  0
  187.4120  177.3230  143.2110 C   0  0  0  0  0  2  0  0  0  0  0  0
  187.7590  176.4040  140.9130 C   0  0  0  0  0  0  0  0  0  0  0  0
  187.7270  175.1380  138.8270 C   0  0  0  0  0  0  0  0  0  0  0  0
  191.0540  171.3010  139.5810 C   0  0  0  0  0  2  0  0  0  0  0  0
  188.9980  174.2990  140.7420 C   0  0  0  0  0  0  0  0  0  0  0  0
  189.5820  172.0300  137.7120 C   0  0  0  0  0  2  0  0  0  0  0  0
  189.0550  173.1120  138.6130 C   0  0  0  0  0  0  0  0  0  0  0  0
  186.7780  177.2720  140.3970 C   0  0  0  0  0  0  0  0  0  0  0  0
  188.1950  174.0630  138.0630 C   0  0  0  0  0  3  0  0  0  0  0  0
  186.3110  177.0930  139.0940 C   0  0  0  0  0  3  0  0  0  0  0  0
  186.0930  178.2900  141.2750 C   0  0  0  0  0  2  0  0  0  0  0  0
  189.2270  174.3130  142.2290 C   0  0  0  0  0  2  0  0  0  0  0  0
  189.4520  175.7350  142.7390 C   0  0  2  0  0  3  0  0  0  0  0  0
  189.4600  173.2210  139.9620 C   0  0  0  0  0  0  0  0  0  0  0  0
  186.8030  176.0590  138.2930 C   0  0  0  0  0  0  0  0  0  0  0  0
  186.8340  178.5910  142.5870 C   0  0  0  0  0  2  0  0  0  0  0  0
  190.1030  170.8270  138.4930 C   0  0  0  0  0  2  0  0  0  0  0  0
  190.2810  172.1270  140.6030 C   0  0  0  0  0  2  0  0  0  0  0  0
  192.0060  176.4190  145.6550 C   0  0  2  0  0  3  0  0  0  0  0  0
  190.8140  174.9360  148.3910 O   0  0  0  0  0  1  0  0  0  0  0  0
  192.3580  176.0750  144.2080 C   0  0  0  0  0  2  0  0  0  0  0  0
  189.5160  174.5530  146.4250 C   0  0  0  0  0  2  0  0  0  0  0  0
  189.7590  175.8170  144.2420 C   0  0  1  0  0  3  0  0  0  0  0  0
  191.8110  175.2180  146.3540 O   0  0  0  0  0  0  0  0  0  0  0  0
  189.7130  174.4410  144.9150 C   0  0  0  0  0  2  0  0  0  0  0  0
  191.0120  176.6900  144.5130 C   0  0  1  0  0  0  0  0  0  0  0  0
  190.9320  178.1510  144.1160 C   0  0  0  0  0  1  0  0  0  0  0  0
  190.6240  175.3710  147.0790 C   0  0  2  0  0  3  0  0  0  0  0  0
  186.3060  175.9520  136.8880 C   0  0  0  0  0  2  0  0  0  0  0  0
  187.0530  176.7880  136.0590 O   0  0  0  0  0  1  0  0  0  0  0  0
  1 15  1  0  0  0  0
  1  3  1  1  0  0  0
  2  7  1  0  0  0  0
  2  4  2  0  0  0  0
  4  1  1  0  0  0  0
  5  2  1  0  0  0  0
  6 20  1  0  0  0  0
  7 14  1  0  0  0  0
  8 19  1  0  0  0  0
  8  9  1  0  0  0  0
  9 16  1  0  0  0  0
 10  4  1  0  0  0  0
 10 13  1  0  0  0  0
 11  9  2  0  0  0  0
 11  5  1  0  0  0  0
 12 10  2  0  0  0  0
 13 18  1  0  0  0  0
 15 14  1  1  0  0  0
 15 25  1  0  0  0  0
 16 20  1  0  0  0  0
 16  7  2  0  0  0  0
 17  5  2  0  0  0  0
 17 12  1  0  0  0  0
 18  3  1  0  0  0  0
 19  6  1  0  0  0  0
 21 23  1  6  0  0  0
 21 26  1  0  0  0  0
 23 28  1  0  0  0  0
 24 30  1  0  0  0  0
 25 28  1  0  0  0  0
 25 27  1  6  0  0  0
 26 30  1  0  0  0  0
 27 24  1  0  0  0  0
 28 29  1  6  0  0  0
 28 21  1  0  0  0  0
 30 22  1  1  0  0  0
 31 17  1  0  0  0  0
 32 31  1  0  0  0  0
M  END
>  <MODEL>
5

>  <REMARK>
 VINA RESULT:      -7.6      3.071      6.135
  Name = 
  2 active torsions:
  status: ('A' for Active; 'I' for Inactive)
    1  A    between atoms: C_13  and  C_29
    2  A    between atoms: C_16  and  C_27
                            x       y       z     vdW  Elec       q    Type
                         _______ _______ _______ _____ _____    ______ ____

>  <TORSDO>
F 2

$$$$
=
 OpenBabel11052419033D

 32 38  0  0  1  0  0  0  0  0999 V2000
  188.2620  176.1120  144.4790 C   0  0  2  0  0  3  0  0  0  0  0  0
  190.5870  176.4490  145.4560 C   0  0  0  0  0  0  0  0  0  0  0  0
  187.0640  177.0390  144.3310 C   0  0  0  0  0  2  0  0  0  0  0  0
  189.1900  176.5940  145.5670 C   0  0  0  0  0  0  0  0  0  0  0  0
  191.4030  176.6550  146.5940 C   0  0  0  0  0  0  0  0  0  0  0  0
  194.5930  175.0390  142.9110 C   0  0  0  0  0  2  0  0  0  0  0  0
  191.1780  176.1350  144.2140 C   0  0  0  0  0  0  0  0  0  0  0  0
  194.8440  175.7900  145.2680 C   0  0  0  0  0  2  0  0  0  0  0  0
  193.3680  176.0800  145.2830 C   0  0  0  0  0  0  0  0  0  0  0  0
  188.6290  177.1040  146.7530 C   0  0  0  0  0  0  0  0  0  0  0  0
  192.7820  176.4440  146.4950 C   0  0  0  0  0  3  0  0  0  0  0  0
  189.4470  177.3460  147.8570 C   0  0  0  0  0  3  0  0  0  0  0  0
  187.1900  177.5560  146.8080 C   0  0  0  0  0  2  0  0  0  0  0  0
  190.3420  176.2030  142.9640 C   0  0  0  0  0  2  0  0  0  0  0  0
  188.9540  175.6100  143.1950 C   0  0  2  0  0  3  0  0  0  0  0  0
  192.5680  175.9270  144.1290 C   0  0  0  0  0  0  0  0  0  0  0  0
  190.8200  177.0910  147.8000 C   0  0  0  0  0  0  0  0  0  0  0  0
  186.3180  177.0220  145.6630 C   0  0  0  0  0  2  0  0  0  0  0  0
  195.4370  175.8680  143.8660 C   0  0  0  0  0  2  0  0  0  0  0  0
  193.2080  175.6640  142.7860 C   0  0  0  0  0  2  0  0  0  0  0  0
  188.1290  174.1210  139.6460 C   0  0  2  0  0  3  0  0  0  0  0  0
  186.2470  176.3570  138.0430 O   0  0  0  0  0  1  0  0  0  0  0  0
  189.4730  174.0420  140.3680 C   0  0  0  0  0  2  0  0  0  0  0  0
  187.0120  177.0780  140.1850 C   0  0  0  0  0  2  0  0  0  0  0  0
  188.0700  175.5860  141.9400 C   0  0  1  0  0  3  0  0  0  0  0  0
  188.0820  175.3370  138.9450 O   0  0  0  0  0  0  0  0  0  0  0  0
  188.2060  176.8700  141.1150 C   0  0  0  0  0  2  0  0  0  0  0  0
  188.2120  174.2430  141.1770 C   0  0  1  0  0  0  0  0  0  0  0  0
  187.7770  172.9870  141.9070 C   0  0  0  0  0  1  0  0  0  0  0  0
  186.8350  175.9070  139.2240 C   0  0  2  0  0  3  0  0  0  0  0  0
  191.6350  177.3170  149.0330 C   0  0  0  0  0  2  0  0  0  0  0  0
  191.2690  178.5250  149.6250 O   0  0  0  0  0  1  0  0  0  0  0  0
  1  3  1  6  0  0  0
  1  4  1  0  0  0  0
  2  4  2  0  0  0  0
  2  5  1  0  0  0  0
  3 18  1  0  0  0  0
  4 10  1  0  0  0  0
  5 17  2  0  0  0  0
  6 19  1  0  0  0  0
  7  2  1  0  0  0  0
  8  9  1  0  0  0  0
  9 11  2  0  0  0  0
 10 13  1  0  0  0  0
 10 12  2  0  0  0  0
 11  5  1  0  0  0  0
 14  7  1  0  0  0  0
 15 14  1  6  0  0  0
 15  1  1  0  0  0  0
 16  7  2  0  0  0  0
 16  9  1  0  0  0  0
 17 12  1  0  0  0  0
 17 31  1  0  0  0  0
 18 13  1  0  0  0  0
 19  8  1  0  0  0  0
 20  6  1  0  0  0  0
 20 16  1  0  0  0  0
 21 23  1  6  0  0  0
 21 28  1  0  0  0  0
 23 28  1  0  0  0  0
 24 27  1  0  0  0  0
 25 27  1  6  0  0  0
 25 15  1  0  0  0  0
 26 30  1  0  0  0  0
 26 21  1  0  0  0  0
 28 29  1  1  0  0  0
 28 25  1  0  0  0  0
 30 22  1  6  0  0  0
 30 24  1  0  0  0  0
 31 32  1  0  0  0  0
M  END
>  <MODEL>
6

>  <REMARK>
 VINA RESULT:      -7.2      2.735      6.117
  Name = 
  2 active torsions:
  status: ('A' for Active; 'I' for Inactive)
    1  A    between atoms: C_13  and  C_29
    2  A    between atoms: C_16  and  C_27
                            x       y       z     vdW  Elec       q    Type
                         _______ _______ _______ _____ _____    ______ ____

>  <TORSDO>
F 2

$$$$
=
 OpenBabel11052419033D

 32 38  0  0  1  0  0  0  0  0999 V2000
  192.9410  175.6600  144.3160 C   0  0  2  0  0  3  0  0  0  0  0  0
  193.2840  174.6760  141.9960 C   0  0  0  0  0  0  0  0  0  0  0  0
  193.2950  177.0090  144.9240 C   0  0  0  0  0  2  0  0  0  0  0  0
  193.7990  175.3660  143.1100 C   0  0  0  0  0  0  0  0  0  0  0  0
  194.1710  174.1790  141.0110 C   0  0  0  0  0  0  0  0  0  0  0  0
  189.5260  172.4790  139.6350 C   0  0  0  0  0  2  0  0  0  0  0  0
  191.8920  174.5080  141.8370 C   0  0  0  0  0  0  0  0  0  0  0  0
  191.8180  172.3430  138.6790 C   0  0  0  0  0  2  0  0  0  0  0  0
  192.2900  173.2190  139.8070 C   0  0  0  0  0  0  0  0  0  0  0  0
  195.1650  175.7040  143.1580 C   0  0  0  0  0  0  0  0  0  0  0  0
  193.6610  173.4360  139.9410 C   0  0  0  0  0  3  0  0  0  0  0  0
  196.0260  175.2470  142.1590 C   0  0  0  0  0  3  0  0  0  0  0  0
  195.6930  176.6920  144.1690 C   0  0  0  0  0  2  0  0  0  0  0  0
  190.9530  175.2810  142.7240 C   0  0  0  0  0  2  0  0  0  0  0  0
  191.4480  175.2990  144.1680 C   0  0  2  0  0  3  0  0  0  0  0  0
  191.3920  173.7600  140.7540 C   0  0  0  0  0  0  0  0  0  0  0  0
  195.5490  174.4570  141.1090 C   0  0  0  0  0  0  0  0  0  0  0  0
  194.7560  176.9340  145.3610 C   0  0  0  0  0  2  0  0  0  0  0  0
  190.3430  172.5570  138.3550 C   0  0  0  0  0  2  0  0  0  0  0  0
  189.9000  173.6440  140.5450 C   0  0  0  0  0  2  0  0  0  0  0  0
  189.0300  175.1710  147.2720 C   0  0  2  0  0  3  0  0  0  0  0  0
  187.0470  177.8430  147.0990 O   0  0  0  0  0  1  0  0  0  0  0  0
  189.4560  173.9840  146.4080 C   0  0  0  0  0  2  0  0  0  0  0  0
  188.5270  177.6020  145.2430 C   0  0  0  0  0  2  0  0  0  0  0  0
  190.5020  176.0160  145.1430 C   0  0  1  0  0  3  0  0  0  0  0  0
  187.9210  175.7770  146.6630 O   0  0  0  0  0  0  0  0  0  0  0  0
  189.2180  176.4910  144.4540 C   0  0  0  0  0  2  0  0  0  0  0  0
  190.3360  175.2120  146.4590 C   0  0  1  0  0  0  0  0  0  0  0  0
  191.5790  175.0080  147.3020 C   0  0  0  0  0  1  0  0  0  0  0  0
  188.1750  177.1530  146.6570 C   0  0  2  0  0  3  0  0  0  0  0  0
  196.5290  173.9510  140.1000 C   0  0  0  0  0  2  0  0  0  0  0  0
  197.1780  175.0260  139.4930 O   0  0  0  0  0  1  0  0  0  0  0  0
  1  3  1  6  0  0  0
  2  4  2  0  0  0  0
  3 18  1  0  0  0  0
  4 10  1  0  0  0  0
  4  1  1  0  0  0  0
  5 17  2  0  0  0  0
  5  2  1  0  0  0  0
  6 20  1  0  0  0  0
  7  2  1  0  0  0  0
  7 14  1  0  0  0  0
  8  9  1  0  0  0  0
  9 11  2  0  0  0  0
  9 16  1  0  0  0  0
 10 13  1  0  0  0  0
 11  5  1  0  0  0  0
 12 10  2  0  0  0  0
 13 18  1  0  0  0  0
 15 14  1  6  0  0  0
 15  1  1  0  0  0  0
 15 25  1  0  0  0  0
 16  7  2  0  0  0  0
 17 12  1  0  0  0  0
 19  8  1  0  0  0  0
 19  6  1  0  0  0  0
 20 16  1  0  0  0  0
 21 23  1  6  0  0  0
 23 28  1  0  0  0  0
 24 30  1  0  0  0  0
 25 27  1  6  0  0  0
 25 28  1  0  0  0  0
 26 21  1  0  0  0  0
 27 24  1  0  0  0  0
 28 21  1  0  0  0  0
 28 29  1  1  0  0  0
 30 26  1  0  0  0  0
 30 22  1  6  0  0  0
 31 17  1  0  0  0  0
 32 31  1  0  0  0  0
M  END
>  <MODEL>
7

>  <REMARK>
 VINA RESULT:      -7.2      2.880      7.697
  Name = 
  2 active torsions:
  status: ('A' for Active; 'I' for Inactive)
    1  A    between atoms: C_13  and  C_29
    2  A    between atoms: C_16  and  C_27
                            x       y       z     vdW  Elec       q    Type
                         _______ _______ _______ _____ _____    ______ ____

>  <TORSDO>
F 2

$$$$
=
 OpenBabel11052419033D

 32 38  0  0  1  0  0  0  0  0999 V2000
  187.7730  176.5450  141.5720 C   0  0  2  0  0  3  0  0  0  0  0  0
  188.7390  174.3480  140.7300 C   0  0  0  0  0  0  0  0  0  0  0  0
  186.3770  177.1490  141.5040 C   0  0  0  0  0  2  0  0  0  0  0  0
  187.9660  175.5020  140.4980 C   0  0  0  0  0  0  0  0  0  0  0  0
  189.1250  173.5350  139.6380 C   0  0  0  0  0  0  0  0  0  0  0  0
  191.4760  171.5130  143.7290 C   0  0  0  0  0  2  0  0  0  0  0  0
  189.1010  173.9800  142.0430 C   0  0  0  0  0  0  0  0  0  0  0  0
  191.3080  170.9350  141.3160 C   0  0  0  0  0  2  0  0  0  0  0  0
  190.3570  172.0880  141.1540 C   0  0  0  0  0  0  0  0  0  0  0  0
  187.4400  175.7500  139.2170 C   0  0  0  0  0  0  0  0  0  0  0  0
  189.9490  172.4280  139.8640 C   0  0  0  0  0  3  0  0  0  0  0  0
  187.7900  174.9180  138.1520 C   0  0  0  0  0  3  0  0  0  0  0  0
  186.3720  176.7930  138.9960 C   0  0  0  0  0  2  0  0  0  0  0  0
  188.4510  174.6770  143.2080 C   0  0  0  0  0  2  0  0  0  0  0  0
  188.3400  176.1790  142.9590 C   0  0  2  0  0  3  0  0  0  0  0  0
  189.9300  172.8610  142.2570 C   0  0  0  0  0  0  0  0  0  0  0  0
  188.6560  173.8370  138.3430 C   0  0  0  0  0  0  0  0  0  0  0  0
  186.2420  177.8130  140.1360 C   0  0  0  0  0  2  0  0  0  0  0  0
  191.3070  170.3750  142.7340 C   0  0  0  0  0  2  0  0  0  0  0  0
  190.2550  172.4250  143.6660 C   0  0  0  0  0  2  0  0  0  0  0  0
  188.4030  177.1500  146.7730 C   0  0  2  0  0  3  0  0  0  0  0  0
  185.3720  178.2920  147.5590 O   0  0  0  0  0  1  0  0  0  0  0  0
  189.0500  175.9170  146.1440 C   0  0  0  0  0  2  0  0  0  0  0  0
  185.5660  177.4940  145.3180 C   0  0  0  0  0  2  0  0  0  0  0  0
  187.7450  176.9640  144.1370 C   0  0  1  0  0  3  0  0  0  0  0  0
  187.0650  176.8390  147.0620 O   0  0  0  0  0  0  0  0  0  0  0  0
  186.3550  176.4520  144.5280 C   0  0  0  0  0  2  0  0  0  0  0  0
  188.7800  177.1290  145.2820 C   0  0  1  0  0  0  0  0  0  0  0  0
  190.0360  177.9160  144.9660 C   0  0  0  0  0  1  0  0  0  0  0  0
  186.2980  177.9110  146.5890 C   0  0  2  0  0  3  0  0  0  0  0  0
  189.0380  173.0160  137.1540 C   0  0  0  0  0  2  0  0  0  0  0  0
  189.5470  173.8430  136.1540 O   0  0  0  0  0  1  0  0  0  0  0  0
  1  3  1  1  0  0  0
  1 15  1  0  0  0  0
  2  7  1  0  0  0  0
  4  2  1  0  0  0  0
  4  1  1  0  0  0  0
  5 11  1  0  0  0  0
  5  2  2  0  0  0  0
  7 16  2  0  0  0  0
  7 14  1  0  0  0  0
  8 19  1  0  0  0  0
  9  8  1  0  0  0  0
  9 16  1  0  0  0  0
 10  4  2  0  0  0  0
 11  9  2  0  0  0  0
 12 17  2  0  0  0  0
 12 10  1  0  0  0  0
 13 10  1  0  0  0  0
 13 18  1  0  0  0  0
 15 14  1  1  0  0  0
 15 25  1  0  0  0  0
 16 20  1  0  0  0  0
 17  5  1  0  0  0  0
 18  3  1  0  0  0  0
 19  6  1  0  0  0  0
 20  6  1  0  0  0  0
 21 23  1  1  0  0  0
 21 26  1  0  0  0  0
 24 30  1  0  0  0  0
 25 27  1  1  0  0  0
 25 28  1  0  0  0  0
 27 24  1  0  0  0  0
 28 29  1  6  0  0  0
 28 23  1  0  0  0  0
 28 21  1  0  0  0  0
 30 26  1  0  0  0  0
 30 22  1  1  0  0  0
 31 17  1  0  0  0  0
 32 31  1  0  0  0  0
M  END
>  <MODEL>
8

>  <REMARK>
 VINA RESULT:      -7.1      2.592      7.638
  Name = 
  2 active torsions:
  status: ('A' for Active; 'I' for Inactive)
    1  A    between atoms: C_13  and  C_29
    2  A    between atoms: C_16  and  C_27
                            x       y       z     vdW  Elec       q    Type
                         _______ _______ _______ _____ _____    ______ ____

>  <TORSDO>
F 2

$$$$
=
 OpenBabel11052419033D

 32 38  0  0  1  0  0  0  0  0999 V2000
  189.5910  175.6910  144.4010 C   0  0  2  0  0  3  0  0  0  0  0  0
  187.2550  176.6960  144.3970 C   0  0  0  0  0  0  0  0  0  0  0  0
  190.1640  174.4200  145.0120 C   0  0  0  0  0  2  0  0  0  0  0  0
  188.3220  176.1070  145.1030 C   0  0  0  0  0  0  0  0  0  0  0  0
  186.2040  177.3190  145.1130 C   0  0  0  0  0  0  0  0  0  0  0  0
  185.2110  178.2480  140.1630 C   0  0  0  0  0  2  0  0  0  0  0  0
  187.2090  176.6400  142.9880 C   0  0  0  0  0  0  0  0  0  0  0  0
  184.0750  178.7370  142.3200 C   0  0  0  0  0  2  0  0  0  0  0  0
  185.1580  177.9570  143.0130 C   0  0  0  0  0  0  0  0  0  0  0  0
  188.2580  175.9890  146.5040 C   0  0  0  0  0  0  0  0  0  0  0  0
  185.1810  177.9620  144.4080 C   0  0  0  0  0  3  0  0  0  0  0  0
  187.1950  176.5680  147.1990 C   0  0  0  0  0  3  0  0  0  0  0  0
  189.2200  175.1070  147.2610 C   0  0  0  0  0  2  0  0  0  0  0  0
  188.1650  175.7360  142.2570 C   0  0  0  0  0  2  0  0  0  0  0  0
  189.5650  175.8090  142.8630 C   0  0  2  0  0  3  0  0  0  0  0  0
  186.1720  177.2900  142.2910 C   0  0  0  0  0  0  0  0  0  0  0  0
  186.1900  177.2620  146.5210 C   0  0  0  0  0  0  0  0  0  0  0  0
  190.4830  174.7300  146.4730 C   0  0  0  0  0  2  0  0  0  0  0  0
  183.8690  178.2900  140.8770 C   0  0  0  0  0  2  0  0  0  0  0  0
  186.0840  177.1660  140.7880 C   0  0  0  0  0  2  0  0  0  0  0  0
  190.6810  172.3510  141.3500 C   0  0  2  0  0  3  0  0  0  0  0  0
  194.0010  172.4150  141.0630 O   0  0  0  0  0  1  0  0  0  0  0  0
  189.6040  172.5670  142.4120 C   0  0  0  0  0  2  0  0  0  0  0  0
  193.0700  174.3540  142.0980 C   0  0  0  0  0  2  0  0  0  0  0  0
  190.6090  174.9600  142.1230 C   0  0  1  0  0  3  0  0  0  0  0  0
  191.9220  172.2600  141.9990 O   0  0  0  0  0  0  0  0  0  0  0  0
  191.8720  174.7390  142.9630 C   0  0  0  0  0  2  0  0  0  0  0  0
  189.9620  173.7040  141.4830 C   0  0  1  0  0  0  0  0  0  0  0  0
  188.9140  173.9390  140.4130 C   0  0  0  0  0  1  0  0  0  0  0  0
  192.8010  173.0880  141.2920 C   0  0  2  0  0  3  0  0  0  0  0  0
  185.1080  177.9090  147.3250 C   0  0  0  0  0  2  0  0  0  0  0  0
  185.4750  179.2150  147.6440 O   0  0  0  0  0  1  0  0  0  0  0  0
  1  3  1  6  0  0  0
  1  4  1  0  0  0  0
  2  4  2  0  0  0  0
  2  5  1  0  0  0  0
  3 18  1  0  0  0  0
  4 10  1  0  0  0  0
  5 17  2  0  0  0  0
  6 20  1  0  0  0  0
  6 19  1  0  0  0  0
  7  2  1  0  0  0  0
  8  9  1  0  0  0  0
  9 11  2  0  0  0  0
 10 12  2  0  0  0  0
 10 13  1  0  0  0  0
 11  5  1  0  0  0  0
 14  7  1  0  0  0  0
 15 14  1  6  0  0  0
 15  1  1  0  0  0  0
 16  7  2  0  0  0  0
 16  9  1  0  0  0  0
 17 12  1  0  0  0  0
 17 31  1  0  0  0  0
 18 13  1  0  0  0  0
 19  8  1  0  0  0  0
 20 16  1  0  0  0  0
 21 28  1  0  0  0  0
 21 26  1  0  0  0  0
 21 23  1  1  0  0  0
 24 27  1  0  0  0  0
 25 15  1  0  0  0  0
 25 27  1  1  0  0  0
 28 29  1  6  0  0  0
 28 25  1  0  0  0  0
 28 23  1  0  0  0  0
 30 22  1  1  0  0  0
 30 26  1  0  0  0  0
 30 24  1  0  0  0  0
 31 32  1  0  0  0  0
M  END
>  <MODEL>
9

>  <REMARK>
 VINA RESULT:      -7.1      1.101      2.050
  Name = 
  2 active torsions:
  status: ('A' for Active; 'I' for Inactive)
    1  A    between atoms: C_13  and  C_29
    2  A    between atoms: C_16  and  C_27
                            x       y       z     vdW  Elec       q    Type
                         _______ _______ _______ _____ _____    ______ ____

>  <TORSDO>
F 2

$$$$
