=
 OpenBabel11052418333D

 27 31  0  0  0  0  0  0  0  0999 V2000
  191.0300  174.9500  143.1580 C   0  0  0  0  0  3  0  0  0  0  0  0
  190.0390  176.3610  145.0380 C   0  0  0  0  0  0  0  0  0  0  0  0
  188.2040  176.2370  143.2630 C   0  0  0  0  0  3  0  0  0  0  0  0
  190.0700  176.8860  146.3210 C   0  0  0  0  0  3  0  0  0  0  0  0
  188.6330  174.4260  140.3190 C   0  0  0  0  0  0  0  0  0  0  0  0
  191.1330  175.6830  144.3890 N   0  0  0  0  0  0  0  0  0  0  0  0
  188.0910  177.2890  145.5190 N   0  0  0  0  0  0  0  0  0  0  0  0
  190.0110  174.8860  142.3000 C   0  0  0  0  0  0  0  0  0  0  0  0
  188.7730  176.6210  144.5560 C   0  0  0  0  0  0  0  0  0  0  0  0
  187.9930  175.2190  141.2000 N   0  0  0  0  0  0  0  0  0  0  0  0
  188.8720  177.4420  146.5770 N   0  0  0  0  0  0  0  0  0  0  0  0
  190.1500  173.9970  140.8780 S   0  0  0  0  0  0  0  0  0  0  0  0
  188.7400  175.4890  142.3050 C   0  0  0  0  0  0  0  0  0  0  0  0
  185.7730  177.2210  146.3510 C   0  0  0  0  0  3  0  0  0  0  0  0
  184.0770  178.7130  145.4830 C   0  0  0  0  0  3  0  0  0  0  0  0
  185.0190  179.2810  144.6240 C   0  0  0  0  0  3  0  0  0  0  0  0
  186.3380  178.8190  144.6290 C   0  0  0  0  0  3  0  0  0  0  0  0
  186.7320  177.7810  145.4900 C   0  0  0  0  0  0  0  0  0  0  0  0
  184.4540  177.6820  146.3480 C   0  0  0  0  0  3  0  0  0  0  0  0
  194.9810  175.6860  146.1380 C   0  0  0  0  0  3  0  0  0  0  0  0
  192.4380  175.6810  145.0040 C   0  0  0  0  0  0  0  0  0  0  0  0
  193.2540  176.8230  144.9710 C   0  0  0  0  0  3  0  0  0  0  0  0
  194.4920  176.8010  145.5340 N   0  0  0  0  0  0  0  0  0  0  0  0
  194.2120  174.5240  146.1880 C   0  0  0  0  0  3  0  0  0  0  0  0
  192.9410  174.5220  145.6170 C   0  0  0  0  0  3  0  0  0  0  0  0
  188.2360  172.5610  138.9370 O   0  0  0  0  0  1  0  0  0  0  0  0
  188.0200  173.9330  139.0570 C   0  0  0  0  0  2  0  0  0  0  0  0
  1  6  1  0  0  0  0
  2  4  1  0  0  0  0
  3  9  1  0  0  0  0
  4 11  2  0  0  0  0
  5 12  1  0  0  0  0
  5 10  2  0  0  0  0
  6 21  1  0  0  0  0
  6  2  1  0  0  0  0
  7 11  1  0  0  0  0
  8 13  1  0  0  0  0
  8  1  2  0  0  0  0
  9  2  2  0  0  0  0
  9  7  1  0  0  0  0
 10 13  1  0  0  0  0
 12  8  1  0  0  0  0
 13  3  2  0  0  0  0
 15 19  2  0  0  0  0
 16 17  2  0  0  0  0
 16 15  1  0  0  0  0
 17 18  1  0  0  0  0
 18  7  1  0  0  0  0
 18 14  2  0  0  0  0
 19 14  1  0  0  0  0
 20 24  1  0  0  0  0
 21 25  1  0  0  0  0
 22 21  2  0  0  0  0
 22 23  1  0  0  0  0
 23 20  2  0  0  0  0
 25 24  2  0  0  0  0
 26 27  1  0  0  0  0
 27  5  1  0  0  0  0
M  END
>  <MODEL>
1

>  <REMARK>
 VINA RESULT:      -7.7      0.000      0.000
  Name = 
  3 active torsions:
  status: ('A' for Active; 'I' for Inactive)
    1  A    between atoms: C_9  and  N_15
    2  A    between atoms: C_13  and  C_22
    3  A    between atoms: C_14  and  N_17
                            x       y       z     vdW  Elec       q    Type
                         _______ _______ _______ _____ _____    ______ ____

>  <TORSDO>
F 3

$$$$
=
 OpenBabel11052418333D

 27 31  0  0  0  0  0  0  0  0999 V2000
  187.5080  176.3070  142.9770 C   0  0  0  0  0  3  0  0  0  0  0  0
  188.9850  176.6900  145.0210 C   0  0  0  0  0  0  0  0  0  0  0  0
  190.3760  175.2150  143.4630 C   0  0  0  0  0  3  0  0  0  0  0  0
  189.2730  177.3200  146.2220 C   0  0  0  0  0  3  0  0  0  0  0  0
  189.1830  174.2240  140.3440 C   0  0  0  0  0  0  0  0  0  0  0  0
  187.7290  176.7720  144.3180 N   0  0  0  0  0  0  0  0  0  0  0  0
  191.0550  176.2180  145.6410 N   0  0  0  0  0  0  0  0  0  0  0  0
  188.3080  175.5810  142.1950 C   0  0  0  0  0  0  0  0  0  0  0  0
  190.1320  176.0070  144.6700 C   0  0  0  0  0  0  0  0  0  0  0  0
  190.0570  174.2960  141.3680 N   0  0  0  0  0  0  0  0  0  0  0  0
  190.5360  177.0080  146.5680 N   0  0  0  0  0  0  0  0  0  0  0  0
  187.7970  175.1030  140.6650 S   0  0  0  0  0  0  0  0  0  0  0  0
  189.5900  175.0430  142.4060 C   0  0  0  0  0  0  0  0  0  0  0  0
  193.4800  176.6200  145.7960 C   0  0  0  0  0  3  0  0  0  0  0  0
  195.0560  174.7880  145.9160 C   0  0  0  0  0  3  0  0  0  0  0  0
  194.0010  173.8780  145.8530 C   0  0  0  0  0  3  0  0  0  0  0  0
  192.6850  174.3390  145.7620 C   0  0  0  0  0  3  0  0  0  0  0  0
  192.4060  175.7160  145.7290 C   0  0  0  0  0  0  0  0  0  0  0  0
  194.7970  176.1600  145.8880 C   0  0  0  0  0  3  0  0  0  0  0  0
  184.3650  178.5500  146.1580 C   0  0  0  0  0  3  0  0  0  0  0  0
  186.5930  177.3920  144.9550 C   0  0  0  0  0  0  0  0  0  0  0  0
  185.7920  176.6760  145.8590 C   0  0  0  0  0  3  0  0  0  0  0  0
  184.7100  177.2650  146.4350 N   0  0  0  0  0  0  0  0  0  0  0  0
  185.1240  179.3000  145.2590 C   0  0  0  0  0  3  0  0  0  0  0  0
  186.2370  178.7160  144.6560 C   0  0  0  0  0  3  0  0  0  0  0  0
  188.2690  173.1840  138.4390 O   0  0  0  0  0  1  0  0  0  0  0  0
  189.4680  173.5200  139.0660 C   0  0  0  0  0  2  0  0  0  0  0  0
  1  6  1  0  0  0  0
  2  4  1  0  0  0  0
  3  9  1  0  0  0  0
  4 11  2  0  0  0  0
  5 12  1  0  0  0  0
  5 10  2  0  0  0  0
  6 21  1  0  0  0  0
  6  2  1  0  0  0  0
  7 18  1  0  0  0  0
  7 11  1  0  0  0  0
  8 13  1  0  0  0  0
  8  1  2  0  0  0  0
  9  2  2  0  0  0  0
  9  7  1  0  0  0  0
 10 13  1  0  0  0  0
 12  8  1  0  0  0  0
 13  3  2  0  0  0  0
 14 19  1  0  0  0  0
 16 15  1  0  0  0  0
 17 16  2  0  0  0  0
 18 17  1  0  0  0  0
 18 14  2  0  0  0  0
 19 15  2  0  0  0  0
 20 23  1  0  0  0  0
 21 22  1  0  0  0  0
 22 23  2  0  0  0  0
 24 20  2  0  0  0  0
 25 21  2  0  0  0  0
 25 24  1  0  0  0  0
 26 27  1  0  0  0  0
 27  5  1  0  0  0  0
M  END
>  <MODEL>
2

>  <REMARK>
 VINA RESULT:      -7.4      1.251      6.283
  Name = 
  3 active torsions:
  status: ('A' for Active; 'I' for Inactive)
    1  A    between atoms: C_9  and  N_15
    2  A    between atoms: C_13  and  C_22
    3  A    between atoms: C_14  and  N_17
                            x       y       z     vdW  Elec       q    Type
                         _______ _______ _______ _____ _____    ______ ____

>  <TORSDO>
F 3

$$$$
=
 OpenBabel11052418333D

 27 31  0  0  0  0  0  0  0  0999 V2000
  190.8840  175.0430  142.3360 C   0  0  0  0  0  3  0  0  0  0  0  0
  188.3930  175.4430  142.7090 C   0  0  0  0  0  0  0  0  0  0  0  0
  189.5450  176.5060  144.7280 C   0  0  0  0  0  3  0  0  0  0  0  0
  187.0740  175.4240  142.2830 C   0  0  0  0  0  3  0  0  0  0  0  0
  193.0130  176.5170  145.0520 C   0  0  0  0  0  0  0  0  0  0  0  0
  189.5000  174.8340  142.0140 N   0  0  0  0  0  0  0  0  0  0  0  0
  187.1200  176.5260  144.1560 N   0  0  0  0  0  0  0  0  0  0  0  0
  191.4200  175.6620  143.3890 C   0  0  0  0  0  0  0  0  0  0  0  0
  188.3970  176.1540  143.8900 C   0  0  0  0  0  0  0  0  0  0  0  0
  191.7370  176.7630  145.4090 N   0  0  0  0  0  0  0  0  0  0  0  0
  186.3310  176.0890  143.1870 N   0  0  0  0  0  0  0  0  0  0  0  0
  193.0900  175.7280  143.5790 S   0  0  0  0  0  0  0  0  0  0  0  0
  190.8370  176.2950  144.5020 C   0  0  0  0  0  0  0  0  0  0  0  0
  186.1420  178.5930  145.0730 C   0  0  0  0  0  3  0  0  0  0  0  0
  185.6000  178.7960  147.4230 C   0  0  0  0  0  3  0  0  0  0  0  0
  186.0610  177.4970  147.6400 C   0  0  0  0  0  3  0  0  0  0  0  0
  186.5620  176.7460  146.5730 C   0  0  0  0  0  3  0  0  0  0  0  0
  186.6120  177.2840  145.2760 C   0  0  0  0  0  0  0  0  0  0  0  0
  185.6400  179.3450  146.1390 C   0  0  0  0  0  3  0  0  0  0  0  0
  188.8220  172.3110  138.6920 C   0  0  0  0  0  3  0  0  0  0  0  0
  189.2490  173.9740  140.8840 C   0  0  0  0  0  0  0  0  0  0  0  0
  189.7270  172.6540  140.8600 C   0  0  0  0  0  3  0  0  0  0  0  0
  189.5030  171.8600  139.7790 N   0  0  0  0  0  0  0  0  0  0  0  0
  188.3360  173.6180  138.6640 C   0  0  0  0  0  3  0  0  0  0  0  0
  188.5540  174.4500  139.7610 C   0  0  0  0  0  3  0  0  0  0  0  0
  194.7850  175.8810  146.4660 O   0  0  0  0  0  1  0  0  0  0  0  0
  194.1910  176.9730  145.8370 C   0  0  0  0  0  2  0  0  0  0  0  0
  1  8  2  0  0  0  0
  2  9  2  0  0  0  0
  4  2  1  0  0  0  0
  4 11  2  0  0  0  0
  5 10  2  0  0  0  0
  5 27  1  0  0  0  0
  6  1  1  0  0  0  0
  6  2  1  0  0  0  0
  7 18  1  0  0  0  0
  8 12  1  0  0  0  0
  8 13  1  0  0  0  0
  9  7  1  0  0  0  0
  9  3  1  0  0  0  0
 11  7  1  0  0  0  0
 12  5  1  0  0  0  0
 13  3  2  0  0  0  0
 13 10  1  0  0  0  0
 14 18  2  0  0  0  0
 14 19  1  0  0  0  0
 15 16  1  0  0  0  0
 17 16  2  0  0  0  0
 18 17  1  0  0  0  0
 19 15  2  0  0  0  0
 20 23  1  0  0  0  0
 21  6  1  0  0  0  0
 22 21  1  0  0  0  0
 23 22  2  0  0  0  0
 24 20  2  0  0  0  0
 24 25  1  0  0  0  0
 25 21  2  0  0  0  0
 27 26  1  0  0  0  0
M  END
>  <MODEL>
3

>  <REMARK>
 VINA RESULT:      -7.3      2.645      5.564
  Name = 
  3 active torsions:
  status: ('A' for Active; 'I' for Inactive)
    1  A    between atoms: C_9  and  N_15
    2  A    between atoms: C_13  and  C_22
    3  A    between atoms: C_14  and  N_17
                            x       y       z     vdW  Elec       q    Type
                         _______ _______ _______ _____ _____    ______ ____

>  <TORSDO>
F 3

$$$$
=
 OpenBabel11052418333D

 27 31  0  0  0  0  0  0  0  0999 V2000
  190.9870  174.8280  142.7350 C   0  0  0  0  0  3  0  0  0  0  0  0
  188.4870  175.3160  142.8730 C   0  0  0  0  0  0  0  0  0  0  0  0
  189.4950  176.4230  144.9460 C   0  0  0  0  0  3  0  0  0  0  0  0
  187.2100  175.3200  142.3340 C   0  0  0  0  0  3  0  0  0  0  0  0
  192.9200  176.3430  145.5730 C   0  0  0  0  0  0  0  0  0  0  0  0
  189.6300  174.6480  142.3010 N   0  0  0  0  0  0  0  0  0  0  0  0
  187.1300  176.4930  144.1620 N   0  0  0  0  0  0  0  0  0  0  0  0
  191.4490  175.4720  143.8080 C   0  0  0  0  0  0  0  0  0  0  0  0
  188.4120  176.0730  144.0240 C   0  0  0  0  0  0  0  0  0  0  0  0
  191.6270  176.6410  145.8070 N   0  0  0  0  0  0  0  0  0  0  0  0
  186.4140  176.0420  143.1440 N   0  0  0  0  0  0  0  0  0  0  0  0
  193.0980  175.4950  144.1420 S   0  0  0  0  0  0  0  0  0  0  0  0
  190.7930  176.1640  144.8420 C   0  0  0  0  0  0  0  0  0  0  0  0
  186.4260  176.7870  146.5040 C   0  0  0  0  0  3  0  0  0  0  0  0
  185.4460  178.8620  147.2750 C   0  0  0  0  0  3  0  0  0  0  0  0
  185.5680  179.3940  145.9910 C   0  0  0  0  0  3  0  0  0  0  0  0
  186.1190  178.6230  144.9640 C   0  0  0  0  0  3  0  0  0  0  0  0
  186.5520  177.3090  145.2050 C   0  0  0  0  0  0  0  0  0  0  0  0
  185.8760  177.5580  147.5330 C   0  0  0  0  0  3  0  0  0  0  0  0
  189.1590  172.0210  139.0240 C   0  0  0  0  0  3  0  0  0  0  0  0
  189.4490  173.7520  141.1850 C   0  0  0  0  0  0  0  0  0  0  0  0
  189.9340  172.4360  141.2300 C   0  0  0  0  0  3  0  0  0  0  0  0
  189.7780  171.6080  140.1620 N   0  0  0  0  0  0  0  0  0  0  0  0
  188.6690  173.3230  138.9280 C   0  0  0  0  0  3  0  0  0  0  0  0
  188.8180  174.1890  140.0100 C   0  0  0  0  0  3  0  0  0  0  0  0
  194.8040  177.7430  145.7630 O   0  0  0  0  0  1  0  0  0  0  0  0
  194.0400  176.7940  146.4400 C   0  0  0  0  0  2  0  0  0  0  0  0
  1  8  2  0  0  0  0
  2  9  2  0  0  0  0
  4  2  1  0  0  0  0
  4 11  2  0  0  0  0
  5 10  2  0  0  0  0
  5 27  1  0  0  0  0
  6  1  1  0  0  0  0
  6  2  1  0  0  0  0
  7 18  1  0  0  0  0
  8 12  1  0  0  0  0
  8 13  1  0  0  0  0
  9  7  1  0  0  0  0
  9  3  1  0  0  0  0
 11  7  1  0  0  0  0
 12  5  1  0  0  0  0
 13  3  2  0  0  0  0
 13 10  1  0  0  0  0
 14 19  1  0  0  0  0
 15 19  2  0  0  0  0
 16 15  1  0  0  0  0
 17 18  1  0  0  0  0
 17 16  2  0  0  0  0
 18 14  2  0  0  0  0
 20 23  1  0  0  0  0
 21 22  1  0  0  0  0
 21  6  1  0  0  0  0
 23 22  2  0  0  0  0
 24 20  2  0  0  0  0
 24 25  1  0  0  0  0
 25 21  2  0  0  0  0
 26 27  1  0  0  0  0
M  END
>  <MODEL>
4

>  <REMARK>
 VINA RESULT:      -7.3      2.749      5.453
  Name = 
  3 active torsions:
  status: ('A' for Active; 'I' for Inactive)
    1  A    between atoms: C_9  and  N_15
    2  A    between atoms: C_13  and  C_22
    3  A    between atoms: C_14  and  N_17
                            x       y       z     vdW  Elec       q    Type
                         _______ _______ _______ _____ _____    ______ ____

>  <TORSDO>
F 3

$$$$
=
 OpenBabel11052418333D

 27 31  0  0  0  0  0  0  0  0999 V2000
  190.9830  175.0040  144.5730 C   0  0  0  0  0  3  0  0  0  0  0  0
  188.6870  175.3210  143.5080 C   0  0  0  0  0  0  0  0  0  0  0  0
  188.6010  176.6620  145.6840 C   0  0  0  0  0  3  0  0  0  0  0  0
  187.8000  175.1900  142.4520 C   0  0  0  0  0  3  0  0  0  0  0  0
  191.3570  176.8790  147.8020 C   0  0  0  0  0  0  0  0  0  0  0  0
  189.9820  174.6930  143.5910 N   0  0  0  0  0  0  0  0  0  0  0  0
  186.8590  176.4990  143.9100 N   0  0  0  0  0  0  0  0  0  0  0  0
  190.8840  175.7640  145.6650 C   0  0  0  0  0  0  0  0  0  0  0  0
  188.0720  176.1620  144.4140 C   0  0  0  0  0  0  0  0  0  0  0  0
  190.0930  177.1010  147.3910 N   0  0  0  0  0  0  0  0  0  0  0  0
  186.7020  175.9160  142.7320 N   0  0  0  0  0  0  0  0  0  0  0  0
  192.1950  175.9320  146.7060 S   0  0  0  0  0  0  0  0  0  0  0  0
  189.8090  176.4890  146.2090 C   0  0  0  0  0  0  0  0  0  0  0  0
  185.3560  178.4430  143.7460 C   0  0  0  0  0  3  0  0  0  0  0  0
  183.8620  179.0380  145.5550 C   0  0  0  0  0  3  0  0  0  0  0  0
  184.3360  177.9580  146.2990 C   0  0  0  0  0  3  0  0  0  0  0  0
  185.3210  177.1210  145.7670 C   0  0  0  0  0  3  0  0  0  0  0  0
  185.8450  177.3530  144.4850 C   0  0  0  0  0  0  0  0  0  0  0  0
  184.3710  179.2810  144.2770 C   0  0  0  0  0  3  0  0  0  0  0  0
  191.0460  171.8050  140.6950 C   0  0  0  0  0  3  0  0  0  0  0  0
  190.3570  173.6980  142.6160 C   0  0  0  0  0  0  0  0  0  0  0  0
  191.0330  174.0590  141.4400 C   0  0  0  0  0  3  0  0  0  0  0  0
  191.3610  173.1150  140.5170 N   0  0  0  0  0  0  0  0  0  0  0  0
  190.3660  171.3980  141.8430 C   0  0  0  0  0  3  0  0  0  0  0  0
  190.0190  172.3490  142.8020 C   0  0  0  0  0  3  0  0  0  0  0  0
  191.0460  178.3960  149.5760 O   0  0  0  0  0  1  0  0  0  0  0  0
  191.9420  177.4780  149.0310 C   0  0  0  0  0  2  0  0  0  0  0  0
  1  8  2  0  0  0  0
  2  6  1  0  0  0  0
  2  9  2  0  0  0  0
  3 13  2  0  0  0  0
  4 11  2  0  0  0  0
  4  2  1  0  0  0  0
  5 27  1  0  0  0  0
  6  1  1  0  0  0  0
  7  9  1  0  0  0  0
  7 18  1  0  0  0  0
  8 13  1  0  0  0  0
  8 12  1  0  0  0  0
  9  3  1  0  0  0  0
 10  5  2  0  0  0  0
 11  7  1  0  0  0  0
 12  5  1  0  0  0  0
 13 10  1  0  0  0  0
 14 19  2  0  0  0  0
 14 18  1  0  0  0  0
 15 16  2  0  0  0  0
 17 16  1  0  0  0  0
 18 17  2  0  0  0  0
 19 15  1  0  0  0  0
 20 24  1  0  0  0  0
 21 25  1  0  0  0  0
 21  6  1  0  0  0  0
 22 21  2  0  0  0  0
 23 20  2  0  0  0  0
 23 22  1  0  0  0  0
 24 25  2  0  0  0  0
 27 26  1  0  0  0  0
M  END
>  <MODEL>
5

>  <REMARK>
 VINA RESULT:      -7.1      3.398      5.365
  Name = 
  3 active torsions:
  status: ('A' for Active; 'I' for Inactive)
    1  A    between atoms: C_9  and  N_15
    2  A    between atoms: C_13  and  C_22
    3  A    between atoms: C_14  and  N_17
                            x       y       z     vdW  Elec       q    Type
                         _______ _______ _______ _____ _____    ______ ____

>  <TORSDO>
F 3

$$$$
=
 OpenBabel11052418333D

 27 31  0  0  0  0  0  0  0  0999 V2000
  188.1930  174.9180  141.0890 C   0  0  0  0  0  3  0  0  0  0  0  0
  189.0830  176.5320  142.8530 C   0  0  0  0  0  0  0  0  0  0  0  0
  190.7550  174.5980  142.8180 C   0  0  0  0  0  3  0  0  0  0  0  0
  189.0710  177.7500  143.5130 C   0  0  0  0  0  3  0  0  0  0  0  0
  190.3960  171.9150  140.6270 C   0  0  0  0  0  0  0  0  0  0  0  0
  188.0700  176.0720  141.9350 N   0  0  0  0  0  0  0  0  0  0  0  0
  190.8770  176.7120  144.1330 N   0  0  0  0  0  0  0  0  0  0  0  0
  189.1320  173.9700  141.0890 C   0  0  0  0  0  0  0  0  0  0  0  0
  190.2400  175.8970  143.2550 C   0  0  0  0  0  0  0  0  0  0  0  0
  190.9620  172.6400  141.6110 N   0  0  0  0  0  0  0  0  0  0  0  0
  190.1740  177.8230  144.2810 N   0  0  0  0  0  0  0  0  0  0  0  0
  189.0270  172.6680  140.0290 S   0  0  0  0  0  0  0  0  0  0  0  0
  190.2760  173.7830  141.8850 C   0  0  0  0  0  0  0  0  0  0  0  0
  193.3350  176.5470  144.1200 C   0  0  0  0  0  3  0  0  0  0  0  0
  194.5780  176.0880  146.1440 C   0  0  0  0  0  3  0  0  0  0  0  0
  193.3840  176.0340  146.8640 C   0  0  0  0  0  3  0  0  0  0  0  0
  192.1650  176.2370  146.2100 C   0  0  0  0  0  3  0  0  0  0  0  0
  192.1230  176.4930  144.8300 C   0  0  0  0  0  0  0  0  0  0  0  0
  194.5550  176.3450  144.7710 C   0  0  0  0  0  3  0  0  0  0  0  0
  184.5020  178.2990  141.5240 C   0  0  0  0  0  3  0  0  0  0  0  0
  186.8420  176.8150  141.7960 C   0  0  0  0  0  0  0  0  0  0  0  0
  186.5630  177.5380  140.6250 C   0  0  0  0  0  3  0  0  0  0  0  0
  185.4110  178.2530  140.5150 N   0  0  0  0  0  0  0  0  0  0  0  0
  184.7380  177.6050  142.7110 C   0  0  0  0  0  3  0  0  0  0  0  0
  185.9120  176.8660  142.8460 C   0  0  0  0  0  3  0  0  0  0  0  0
  190.8290  169.6370  141.0360 O   0  0  0  0  0  1  0  0  0  0  0  0
  190.9750  170.6540  140.0940 C   0  0  0  0  0  2  0  0  0  0  0  0
  1  8  2  0  0  0  0
  1  6  1  0  0  0  0
  2  9  2  0  0  0  0
  2  4  1  0  0  0  0
  3  9  1  0  0  0  0
  4 11  2  0  0  0  0
  5 10  2  0  0  0  0
  6  2  1  0  0  0  0
  7 11  1  0  0  0  0
  7 18  1  0  0  0  0
  8 13  1  0  0  0  0
  9  7  1  0  0  0  0
 10 13  1  0  0  0  0
 12  5  1  0  0  0  0
 12  8  1  0  0  0  0
 13  3  2  0  0  0  0
 14 19  2  0  0  0  0
 14 18  1  0  0  0  0
 15 16  2  0  0  0  0
 17 16  1  0  0  0  0
 18 17  2  0  0  0  0
 19 15  1  0  0  0  0
 20 24  1  0  0  0  0
 21  6  1  0  0  0  0
 21 25  1  0  0  0  0
 22 21  2  0  0  0  0
 23 22  1  0  0  0  0
 23 20  2  0  0  0  0
 24 25  2  0  0  0  0
 27  5  1  0  0  0  0
 27 26  1  0  0  0  0
M  END
>  <MODEL>
6

>  <REMARK>
 VINA RESULT:      -6.9      2.352      6.460
  Name = 
  3 active torsions:
  status: ('A' for Active; 'I' for Inactive)
    1  A    between atoms: C_9  and  N_15
    2  A    between atoms: C_13  and  C_22
    3  A    between atoms: C_14  and  N_17
                            x       y       z     vdW  Elec       q    Type
                         _______ _______ _______ _____ _____    ______ ____

>  <TORSDO>
F 3

$$$$
=
 OpenBabel11052418333D

 27 31  0  0  0  0  0  0  0  0999 V2000
  192.4490  173.8860  142.7150 C   0  0  0  0  0  3  0  0  0  0  0  0
  191.7100  175.2180  144.7620 C   0  0  0  0  0  0  0  0  0  0  0  0
  189.7070  175.2740  143.1740 C   0  0  0  0  0  3  0  0  0  0  0  0
  191.8890  175.6610  146.0620 C   0  0  0  0  0  3  0  0  0  0  0  0
  189.7660  173.6300  140.1040 C   0  0  0  0  0  0  0  0  0  0  0  0
  192.7040  174.5370  143.9700 N   0  0  0  0  0  0  0  0  0  0  0  0
  189.8610  176.1910  145.4860 N   0  0  0  0  0  0  0  0  0  0  0  0
  191.3490  173.9140  141.9610 C   0  0  0  0  0  0  0  0  0  0  0  0
  190.4160  175.5560  144.4230 C   0  0  0  0  0  0  0  0  0  0  0  0
  189.2510  174.3930  141.0880 N   0  0  0  0  0  0  0  0  0  0  0  0
  190.7470  176.2480  146.4680 N   0  0  0  0  0  0  0  0  0  0  0  0
  191.3100  173.1090  140.4840 S   0  0  0  0  0  0  0  0  0  0  0  0
  190.1140  174.5650  142.1270 C   0  0  0  0  0  0  0  0  0  0  0  0
  188.0880  177.7190  144.7200 C   0  0  0  0  0  3  0  0  0  0  0  0
  185.9420  177.8200  145.8330 C   0  0  0  0  0  3  0  0  0  0  0  0
  186.3650  176.8420  146.7340 C   0  0  0  0  0  3  0  0  0  0  0  0
  187.6510  176.3040  146.6270 C   0  0  0  0  0  3  0  0  0  0  0  0
  188.5300  176.7360  145.6210 C   0  0  0  0  0  0  0  0  0  0  0  0
  186.8030  178.2590  144.8240 C   0  0  0  0  0  3  0  0  0  0  0  0
  196.6990  174.2680  145.3220 C   0  0  0  0  0  3  0  0  0  0  0  0
  194.0610  174.4470  144.4500 C   0  0  0  0  0  0  0  0  0  0  0  0
  195.0120  175.4250  144.1180 C   0  0  0  0  0  3  0  0  0  0  0  0
  196.2940  175.3170  144.5590 N   0  0  0  0  0  0  0  0  0  0  0  0
  195.7940  173.2660  145.6710 C   0  0  0  0  0  3  0  0  0  0  0  0
  194.4740  173.3560  145.2300 C   0  0  0  0  0  3  0  0  0  0  0  0
  187.8820  172.5080  139.2460 O   0  0  0  0  0  1  0  0  0  0  0  0
  189.0120  173.2390  138.8830 C   0  0  0  0  0  2  0  0  0  0  0  0
  1  6  1  0  0  0  0
  2  4  1  0  0  0  0
  3  9  1  0  0  0  0
  4 11  2  0  0  0  0
  5 12  1  0  0  0  0
  5 10  2  0  0  0  0
  6 21  1  0  0  0  0
  6  2  1  0  0  0  0
  7 18  1  0  0  0  0
  7 11  1  0  0  0  0
  8 13  1  0  0  0  0
  8  1  2  0  0  0  0
  9  2  2  0  0  0  0
  9  7  1  0  0  0  0
 10 13  1  0  0  0  0
 12  8  1  0  0  0  0
 13  3  2  0  0  0  0
 14 19  2  0  0  0  0
 14 18  1  0  0  0  0
 15 16  2  0  0  0  0
 17 16  1  0  0  0  0
 18 17  2  0  0  0  0
 19 15  1  0  0  0  0
 20 24  1  0  0  0  0
 21 25  1  0  0  0  0
 22 21  2  0  0  0  0
 22 23  1  0  0  0  0
 23 20  2  0  0  0  0
 25 24  2  0  0  0  0
 27 26  1  0  0  0  0
 27  5  1  0  0  0  0
M  END
>  <MODEL>
7

>  <REMARK>
 VINA RESULT:      -6.7      1.556      2.164
  Name = 
  3 active torsions:
  status: ('A' for Active; 'I' for Inactive)
    1  A    between atoms: C_9  and  N_15
    2  A    between atoms: C_13  and  C_22
    3  A    between atoms: C_14  and  N_17
                            x       y       z     vdW  Elec       q    Type
                         _______ _______ _______ _____ _____    ______ ____

>  <TORSDO>
F 3

$$$$
=
 OpenBabel11052418333D

 27 31  0  0  0  0  0  0  0  0999 V2000
  188.8930  176.8930  145.7790 C   0  0  0  0  0  3  0  0  0  0  0  0
  187.8420  175.9330  143.6620 C   0  0  0  0  0  0  0  0  0  0  0  0
  190.3100  175.2760  143.5360 C   0  0  0  0  0  3  0  0  0  0  0  0
  186.7450  175.6170  142.8760 C   0  0  0  0  0  3  0  0  0  0  0  0
  192.5500  176.1050  146.0710 C   0  0  0  0  0  0  0  0  0  0  0  0
  187.8070  176.7510  144.8490 N   0  0  0  0  0  0  0  0  0  0  0  0
  188.4710  174.6520  141.9740 N   0  0  0  0  0  0  0  0  0  0  0  0
  190.1540  176.4730  145.6720 C   0  0  0  0  0  0  0  0  0  0  0  0
  188.9200  175.3030  143.0760 C   0  0  0  0  0  0  0  0  0  0  0  0
  192.1530  175.5810  144.8950 N   0  0  0  0  0  0  0  0  0  0  0  0
  187.1660  174.8400  141.8600 N   0  0  0  0  0  0  0  0  0  0  0  0
  191.2710  176.8150  146.8830 S   0  0  0  0  0  0  0  0  0  0  0  0
  190.8270  175.7760  144.6530 C   0  0  0  0  0  0  0  0  0  0  0  0
  189.0980  174.1140  139.6530 C   0  0  0  0  0  3  0  0  0  0  0  0
  190.6570  172.3330  139.1480 C   0  0  0  0  0  3  0  0  0  0  0  0
  190.7870  172.0630  140.5110 C   0  0  0  0  0  3  0  0  0  0  0  0
  190.0720  172.8190  141.4440 C   0  0  0  0  0  3  0  0  0  0  0  0
  189.2160  173.8520  141.0280 C   0  0  0  0  0  0  0  0  0  0  0  0
  189.8130  173.3600  138.7180 C   0  0  0  0  0  3  0  0  0  0  0  0
  184.2460  178.8120  145.8140 C   0  0  0  0  0  3  0  0  0  0  0  0
  186.6030  177.4690  145.1870 C   0  0  0  0  0  0  0  0  0  0  0  0
  185.6730  176.9360  146.0940 C   0  0  0  0  0  3  0  0  0  0  0  0
  184.5310  177.6130  146.3860 N   0  0  0  0  0  0  0  0  0  0  0  0
  185.1330  179.3790  144.9000 C   0  0  0  0  0  3  0  0  0  0  0  0
  186.3110  178.7030  144.5840 C   0  0  0  0  0  3  0  0  0  0  0  0
  194.5480  177.2320  146.6000 O   0  0  0  0  0  1  0  0  0  0  0  0
  193.9320  175.9810  146.6030 C   0  0  0  0  0  2  0  0  0  0  0  0
  2  6  1  0  0  0  0
  3 13  2  0  0  0  0
  4  2  1  0  0  0  0
  5 27  1  0  0  0  0
  5 12  1  0  0  0  0
  6 21  1  0  0  0  0
  6  1  1  0  0  0  0
  7  9  1  0  0  0  0
  8  1  2  0  0  0  0
  8 12  1  0  0  0  0
  9  3  1  0  0  0  0
  9  2  2  0  0  0  0
 10  5  2  0  0  0  0
 11  7  1  0  0  0  0
 11  4  2  0  0  0  0
 13 10  1  0  0  0  0
 13  8  1  0  0  0  0
 14 18  1  0  0  0  0
 15 16  2  0  0  0  0
 16 17  1  0  0  0  0
 18 17  2  0  0  0  0
 18  7  1  0  0  0  0
 19 15  1  0  0  0  0
 19 14  2  0  0  0  0
 20 23  1  0  0  0  0
 21 22  1  0  0  0  0
 22 23  2  0  0  0  0
 24 20  2  0  0  0  0
 25 24  1  0  0  0  0
 25 21  2  0  0  0  0
 26 27  1  0  0  0  0
M  END
>  <MODEL>
8

>  <REMARK>
 VINA RESULT:      -6.7      2.887      7.401
  Name = 
  3 active torsions:
  status: ('A' for Active; 'I' for Inactive)
    1  A    between atoms: C_9  and  N_15
    2  A    between atoms: C_13  and  C_22
    3  A    between atoms: C_14  and  N_17
                            x       y       z     vdW  Elec       q    Type
                         _______ _______ _______ _____ _____    ______ ____

>  <TORSDO>
F 3

$$$$
=
 OpenBabel11052418333D

 27 31  0  0  0  0  0  0  0  0999 V2000
  190.1680  174.3210  143.3840 C   0  0  0  0  0  3  0  0  0  0  0  0
  188.6400  176.2690  143.9980 C   0  0  0  0  0  0  0  0  0  0  0  0
  187.8220  175.4790  141.7080 C   0  0  0  0  0  3  0  0  0  0  0  0
  188.1560  177.2090  144.8940 C   0  0  0  0  0  3  0  0  0  0  0  0
  189.2860  172.7680  140.0840 C   0  0  0  0  0  0  0  0  0  0  0  0
  189.8010  175.4400  144.2070 N   0  0  0  0  0  0  0  0  0  0  0  0
  186.8420  177.2480  143.1640 N   0  0  0  0  0  0  0  0  0  0  0  0
  189.6560  173.9310  142.2160 C   0  0  0  0  0  0  0  0  0  0  0  0
  187.7860  176.3070  142.9150 C   0  0  0  0  0  0  0  0  0  0  0  0
  188.4350  173.8000  140.2450 N   0  0  0  0  0  0  0  0  0  0  0  0
  187.0660  177.7840  144.3530 N   0  0  0  0  0  0  0  0  0  0  0  0
  190.3020  172.6070  141.4030 S   0  0  0  0  0  0  0  0  0  0  0  0
  188.6250  174.4600  141.4210 C   0  0  0  0  0  0  0  0  0  0  0  0
  184.4640  177.8410  142.9120 C   0  0  0  0  0  3  0  0  0  0  0  0
  183.5420  178.4700  140.7640 C   0  0  0  0  0  3  0  0  0  0  0  0
  184.7960  178.2960  140.1770 C   0  0  0  0  0  3  0  0  0  0  0  0
  185.8840  177.8940  140.9580 C   0  0  0  0  0  3  0  0  0  0  0  0
  185.7320  177.6590  142.3340 C   0  0  0  0  0  0  0  0  0  0  0  0
  183.3760  178.2430  142.1330 C   0  0  0  0  0  3  0  0  0  0  0  0
  192.3770  176.1460  147.4820 C   0  0  0  0  0  3  0  0  0  0  0  0
  190.6650  175.6920  145.3340 C   0  0  0  0  0  0  0  0  0  0  0  0
  191.8500  176.4310  145.1850 C   0  0  0  0  0  3  0  0  0  0  0  0
  192.6680  176.6420  146.2510 N   0  0  0  0  0  0  0  0  0  0  0  0
  191.2170  175.3980  147.6790 C   0  0  0  0  0  3  0  0  0  0  0  0
  190.3630  175.1680  146.6000 C   0  0  0  0  0  3  0  0  0  0  0  0
  190.2770  170.9080  139.0340 O   0  0  0  0  0  1  0  0  0  0  0  0
  189.2550  171.8480  138.9170 C   0  0  0  0  0  2  0  0  0  0  0  0
  1  6  1  0  0  0  0
  2  6  1  0  0  0  0
  2  4  1  0  0  0  0
  3  9  1  0  0  0  0
  5 10  2  0  0  0  0
  5 12  1  0  0  0  0
  6 21  1  0  0  0  0
  7 11  1  0  0  0  0
  8  1  2  0  0  0  0
  9  7  1  0  0  0  0
  9  2  2  0  0  0  0
 10 13  1  0  0  0  0
 11  4  2  0  0  0  0
 12  8  1  0  0  0  0
 13  3  2  0  0  0  0
 13  8  1  0  0  0  0
 15 19  1  0  0  0  0
 16 15  2  0  0  0  0
 16 17  1  0  0  0  0
 17 18  2  0  0  0  0
 18 14  1  0  0  0  0
 18  7  1  0  0  0  0
 19 14  2  0  0  0  0
 20 24  1  0  0  0  0
 21 25  1  0  0  0  0
 22 21  2  0  0  0  0
 22 23  1  0  0  0  0
 23 20  2  0  0  0  0
 25 24  2  0  0  0  0
 27 26  1  0  0  0  0
 27  5  1  0  0  0  0
M  END
>  <MODEL>
9

>  <REMARK>
 VINA RESULT:      -6.6      2.229      2.713
  Name = 
  3 active torsions:
  status: ('A' for Active; 'I' for Inactive)
    1  A    between atoms: C_9  and  N_15
    2  A    between atoms: C_13  and  C_22
    3  A    between atoms: C_14  and  N_17
                            x       y       z     vdW  Elec       q    Type
                         _______ _______ _______ _____ _____    ______ ____

>  <TORSDO>
F 3

$$$$
