=
 OpenBabel11052418583D

 34 37  0  0  1  0  0  0  0  0999 V2000
  186.8260  176.8570  144.3260 C   0  0  0  0  0  0  0  0  0  0  0  0
  188.5090  176.2080  145.9700 C   0  0  0  0  0  0  0  0  0  0  0  0
  188.4190  175.0740  143.7840 C   0  0  0  0  0  0  0  0  0  0  0  0
  190.5250  173.8960  143.4140 C   0  0  0  0  0  0  0  0  0  0  0  0
  186.9210  177.9720  146.4730 C   0  0  0  0  0  3  0  0  0  0  0  0
  188.0080  177.1770  146.8440 C   0  0  0  0  0  3  0  0  0  0  0  0
  189.7820  174.0660  145.6980 C   0  0  0  0  0  2  0  0  0  0  0  0
  187.9230  176.0410  144.6920 C   0  0  0  0  0  0  0  0  0  0  0  0
  191.4970  173.6050  142.5970 C   0  0  0  0  0  3  0  0  0  0  0  0
  186.3330  177.8120  145.2170 C   0  0  0  0  0  3  0  0  0  0  0  0
  187.8000  174.9360  142.5150 C   0  0  0  0  0  0  0  0  0  0  0  0
  186.2350  176.7130  143.0730 C   0  0  0  0  0  3  0  0  0  0  0  0
  189.7310  175.4330  146.3770 C   0  0  0  0  0  2  0  0  0  0  0  0
  189.5570  174.2230  144.2270 C   0  0  0  0  0  0  0  0  0  0  0  0
  186.7160  175.7590  142.1780 C   0  0  0  0  0  3  0  0  0  0  0  0
  187.4310  172.7450  141.6710 O   0  0  0  0  0  1  0  0  0  0  0  0
  188.2310  173.8830  141.5370 C   0  0  1  0  0  3  0  0  0  0  0  0
  189.7400  172.9020  139.3270 O   0  0  0  0  0  1  0  0  0  0  0  0
  188.7740  174.3320  137.8220 O   0  0  0  0  0  0  0  0  0  0  0  0
  188.1510  174.3890  140.1750 N   0  0  0  0  0  2  0  0  0  0  0  0
  188.9210  173.8330  139.1080 C   0  0  0  0  0  0  0  0  0  0  0  0
  192.6570  174.5400  142.4800 C   0  0  0  0  0  2  0  0  0  0  0  0
  192.7790  175.4760  143.6880 C   0  0  1  0  0  3  0  0  0  0  0  0
  193.7650  173.0520  145.2470 O   0  0  0  0  0  1  0  0  0  0  0  0
  194.1260  175.3230  144.4330 C   0  0  2  0  0  3  0  0  0  0  0  0
  194.0530  174.3600  145.6340 C   0  0  1  0  0  3  0  0  0  0  0  0
  192.9900  176.3650  146.8090 C   0  0  0  0  0  2  0  0  0  0  0  0
  194.2960  177.0270  146.3780 C   0  0  0  0  0  2  0  0  0  0  0  0
  194.6450  176.6940  144.9170 C   0  0  0  0  0  2  0  0  0  0  0  0
  193.0790  174.8350  146.7200 C   0  0  0  0  0  2  0  0  0  0  0  0
  192.5190  176.9280  143.2740 C   0  0  0  0  0  2  0  0  0  0  0  0
  191.1350  177.3970  143.6920 C   0  0  0  0  0  3  0  0  0  0  0  0
  191.2690  178.6760  144.4910 C   0  0  0  0  0  1  0  0  0  0  0  0
  190.2740  177.6700  142.4740 C   0  0  0  0  0  1  0  0  0  0  0  0
  1  8  1  0  0  0  0
  1 10  2  0  0  0  0
  2 13  1  0  0  0  0
  2  6  1  0  0  0  0
  3 14  1  0  0  0  0
  3  8  1  0  0  0  0
  4 14  2  0  0  0  0
  5  6  2  0  0  0  0
  7 13  1  0  0  0  0
  8  2  2  0  0  0  0
  9  4  2  0  0  0  0
 10  5  1  0  0  0  0
 11  3  2  0  0  0  0
 12  1  1  0  0  0  0
 14  7  1  0  0  0  0
 15 11  1  0  0  0  0
 15 12  2  0  0  0  0
 17 16  1  6  0  0  0
 17 11  1  0  0  0  0
 19 21  2  0  0  0  0
 20 17  1  0  0  0  0
 21 18  1  0  0  0  0
 21 20  1  0  0  0  0
 22  9  1  0  0  0  0
 23 22  1  6  0  0  0
 25 23  1  1  0  0  0
 25 29  1  0  0  0  0
 25 26  1  0  0  0  0
 26 24  1  6  0  0  0
 26 30  1  0  0  0  0
 28 27  1  0  0  0  0
 29 28  1  0  0  0  0
 30 27  1  0  0  0  0
 31 23  1  0  0  0  0
 31 32  1  0  0  0  0
 32 33  1  0  0  0  0
 34 32  1  0  0  0  0
M  END
>  <MODEL>
1

>  <REMARK>
 VINA RESULT:      -6.8      0.000      0.000
  Name = 
  7 active torsions:
  status: ('A' for Active; 'I' for Inactive)
    1  A    between atoms: C_3  and  C_13
    2  A    between atoms: C_3  and  C_17
    3  A    between atoms: C_3  and  C_29
    4  A    between atoms: C_7  and  C_17
    5  A    between atoms: C_18  and  C_29
    6  A    between atoms: C_21  and  C_28
    7  A    between atoms: N_23  and  C_28
                            x       y       z     vdW  Elec       q    Type
                         _______ _______ _______ _____ _____    ______ ____

>  <TORSDO>
F 7

$$$$
=
 OpenBabel11052418583D

 34 37  0  0  1  0  0  0  0  0999 V2000
  186.1680  178.0860  146.3600 C   0  0  0  0  0  0  0  0  0  0  0  0
  185.3320  178.3520  144.0830 C   0  0  0  0  0  0  0  0  0  0  0  0
  187.6610  177.6420  144.4660 C   0  0  0  0  0  0  0  0  0  0  0  0
  188.5480  176.6840  142.4040 C   0  0  0  0  0  0  0  0  0  0  0  0
  183.8800  178.7800  145.9780 C   0  0  0  0  0  3  0  0  0  0  0  0
  184.0860  178.7170  144.5980 C   0  0  0  0  0  3  0  0  0  0  0  0
  186.9290  178.4480  142.1530 C   0  0  0  0  0  2  0  0  0  0  0  0
  186.3910  178.0260  144.9640 C   0  0  0  0  0  0  0  0  0  0  0  0
  189.2210  175.7250  141.8340 C   0  0  0  0  0  3  0  0  0  0  0  0
  184.9190  178.4640  146.8560 C   0  0  0  0  0  3  0  0  0  0  0  0
  188.6960  177.3280  145.3840 C   0  0  0  0  0  0  0  0  0  0  0  0
  187.1940  177.7670  147.2460 C   0  0  0  0  0  3  0  0  0  0  0  0
  185.4850  178.2180  142.5930 C   0  0  0  0  0  2  0  0  0  0  0  0
  187.8520  177.6200  142.9900 C   0  0  0  0  0  0  0  0  0  0  0  0
  188.4470  177.3950  146.7620 C   0  0  0  0  0  3  0  0  0  0  0  0
  190.7710  178.1460  144.5600 O   0  0  0  0  0  1  0  0  0  0  0  0
  190.0820  176.9850  144.9220 C   0  0  1  0  0  3  0  0  0  0  0  0
  192.2190  175.1470  144.4930 O   0  0  0  0  0  0  0  0  0  0  0  0
  192.5690  174.7800  146.7260 O   0  0  0  0  0  1  0  0  0  0  0  0
  190.8090  176.2820  145.9700 N   0  0  0  0  0  2  0  0  0  0  0  0
  191.8870  175.3910  145.6830 C   0  0  0  0  0  0  0  0  0  0  0  0
  188.5120  174.4700  141.4410 C   0  0  0  0  0  2  0  0  0  0  0  0
  189.4810  173.3430  141.0640 C   0  0  1  0  0  3  0  0  0  0  0  0
  188.1290  173.3290  138.3350 O   0  0  0  0  0  1  0  0  0  0  0  0
  190.1480  173.5600  139.6850 C   0  0  2  0  0  3  0  0  0  0  0  0
  189.4190  172.8380  138.5350 C   0  0  1  0  0  3  0  0  0  0  0  0
  190.6460  170.7830  139.4300 C   0  0  0  0  0  2  0  0  0  0  0  0
  191.8590  171.6790  139.1880 C   0  0  0  0  0  2  0  0  0  0  0  0
  191.6230  173.1060  139.7100 C   0  0  0  0  0  2  0  0  0  0  0  0
  189.4020  171.3130  138.7050 C   0  0  0  0  0  2  0  0  0  0  0  0
  190.5200  173.1310  142.1710 C   0  0  0  0  0  2  0  0  0  0  0  0
  190.1850  171.9280  143.0380 C   0  0  0  0  0  3  0  0  0  0  0  0
  191.3830  171.0040  143.0810 C   0  0  0  0  0  1  0  0  0  0  0  0
  189.8530  172.3660  144.4520 C   0  0  0  0  0  1  0  0  0  0  0  0
  1 10  1  0  0  0  0
  1 12  1  0  0  0  0
  2  6  2  0  0  0  0
  2  8  1  0  0  0  0
  3  8  1  0  0  0  0
  3 11  2  0  0  0  0
  4 14  2  0  0  0  0
  5 10  2  0  0  0  0
  6  5  1  0  0  0  0
  7 13  1  0  0  0  0
  7 14  1  0  0  0  0
  8  1  2  0  0  0  0
  9  4  2  0  0  0  0
 11 15  1  0  0  0  0
 13  2  1  0  0  0  0
 14  3  1  0  0  0  0
 15 12  2  0  0  0  0
 17 16  1  1  0  0  0
 17 11  1  0  0  0  0
 17 20  1  0  0  0  0
 18 21  2  0  0  0  0
 21 20  1  0  0  0  0
 21 19  1  0  0  0  0
 22  9  1  0  0  0  0
 23 22  1  1  0  0  0
 23 31  1  0  0  0  0
 25 29  1  0  0  0  0
 25 23  1  1  0  0  0
 26 24  1  1  0  0  0
 26 30  1  0  0  0  0
 26 25  1  0  0  0  0
 28 27  1  0  0  0  0
 28 29  1  0  0  0  0
 30 27  1  0  0  0  0
 31 32  1  0  0  0  0
 32 33  1  0  0  0  0
 32 34  1  0  0  0  0
M  END
>  <MODEL>
2

>  <REMARK>
 VINA RESULT:      -6.5      2.464      6.079
  Name = 
  7 active torsions:
  status: ('A' for Active; 'I' for Inactive)
    1  A    between atoms: C_3  and  C_13
    2  A    between atoms: C_3  and  C_17
    3  A    between atoms: C_3  and  C_29
    4  A    between atoms: C_7  and  C_17
    5  A    between atoms: C_18  and  C_29
    6  A    between atoms: C_21  and  C_28
    7  A    between atoms: N_23  and  C_28
                            x       y       z     vdW  Elec       q    Type
                         _______ _______ _______ _____ _____    ______ ____

>  <TORSDO>
F 7

$$$$
=
 OpenBabel11052418583D

 34 37  0  0  1  0  0  0  0  0999 V2000
  185.9050  177.6240  144.5300 C   0  0  0  0  0  0  0  0  0  0  0  0
  187.4620  177.2080  146.3620 C   0  0  0  0  0  0  0  0  0  0  0  0
  187.8320  176.1520  144.1660 C   0  0  0  0  0  0  0  0  0  0  0  0
  190.1360  175.3560  144.0460 C   0  0  0  0  0  0  0  0  0  0  0  0
  185.5480  178.6630  146.6870 C   0  0  0  0  0  3  0  0  0  0  0  0
  186.7020  178.0480  147.1800 C   0  0  0  0  0  3  0  0  0  0  0  0
  189.1040  175.3190  146.2210 C   0  0  0  0  0  2  0  0  0  0  0  0
  187.0720  176.9910  145.0180 C   0  0  0  0  0  0  0  0  0  0  0  0
  191.2350  175.2600  143.3530 C   0  0  0  0  0  3  0  0  0  0  0  0
  185.1520  178.4520  145.3650 C   0  0  0  0  0  3  0  0  0  0  0  0
  187.4030  175.9580  142.8280 C   0  0  0  0  0  0  0  0  0  0  0  0
  185.5030  177.4270  143.2110 C   0  0  0  0  0  3  0  0  0  0  0  0
  188.7400  176.6330  146.9080 C   0  0  0  0  0  2  0  0  0  0  0  0
  189.0360  175.4880  144.7370 C   0  0  0  0  0  0  0  0  0  0  0  0
  186.2440  176.5990  142.3690 C   0  0  0  0  0  3  0  0  0  0  0  0
  187.7840  173.7010  142.1850 O   0  0  0  0  0  1  0  0  0  0  0  0
  188.1220  175.0260  141.8970 C   0  0  1  0  0  3  0  0  0  0  0  0
  189.0200  173.5550  139.6250 O   0  0  0  0  0  1  0  0  0  0  0  0
  187.8780  174.8570  138.1270 O   0  0  0  0  0  0  0  0  0  0  0  0
  187.7920  175.3340  140.5130 N   0  0  0  0  0  2  0  0  0  0  0  0
  188.2580  174.5380  139.4230 C   0  0  0  0  0  0  0  0  0  0  0  0
  192.2250  176.3790  143.3960 C   0  0  0  0  0  2  0  0  0  0  0  0
  193.5860  175.9360  143.9460 C   0  0  1  0  0  3  0  0  0  0  0  0
  193.7980  174.4740  141.2820 O   0  0  0  0  0  1  0  0  0  0  0  0
  194.7210  176.0480  142.9010 C   0  0  2  0  0  3  0  0  0  0  0  0
  194.9120  174.7660  142.0670 C   0  0  1  0  0  3  0  0  0  0  0  0
  196.1480  173.9440  144.1470 C   0  0  0  0  0  2  0  0  0  0  0  0
  196.9640  175.2080  143.8900 C   0  0  0  0  0  2  0  0  0  0  0  0
  196.0590  176.4130  143.5800 C   0  0  0  0  0  2  0  0  0  0  0  0
  195.3110  173.5550  142.9210 C   0  0  0  0  0  2  0  0  0  0  0  0
  193.9210  176.6950  145.2340 C   0  0  0  0  0  2  0  0  0  0  0  0
  193.6030  175.8740  146.4740 C   0  0  0  0  0  3  0  0  0  0  0  0
  192.3760  176.4530  147.1460 C   0  0  0  0  0  1  0  0  0  0  0  0
  193.3200  174.4320  146.0990 C   0  0  0  0  0  1  0  0  0  0  0  0
  1  8  1  0  0  0  0
  1 10  2  0  0  0  0
  2 13  1  0  0  0  0
  2  6  1  0  0  0  0
  3 14  1  0  0  0  0
  3  8  1  0  0  0  0
  4 14  2  0  0  0  0
  5  6  2  0  0  0  0
  7 13  1  0  0  0  0
  8  2  2  0  0  0  0
  9 22  1  0  0  0  0
  9  4  2  0  0  0  0
 10  5  1  0  0  0  0
 11  3  2  0  0  0  0
 12  1  1  0  0  0  0
 14  7  1  0  0  0  0
 15 11  1  0  0  0  0
 15 12  2  0  0  0  0
 17 16  1  1  0  0  0
 17 11  1  0  0  0  0
 19 21  2  0  0  0  0
 20 17  1  0  0  0  0
 21 18  1  0  0  0  0
 21 20  1  0  0  0  0
 23 22  1  6  0  0  0
 23 31  1  0  0  0  0
 25 29  1  0  0  0  0
 25 23  1  1  0  0  0
 26 24  1  1  0  0  0
 26 25  1  0  0  0  0
 26 30  1  0  0  0  0
 28 27  1  0  0  0  0
 29 28  1  0  0  0  0
 30 27  1  0  0  0  0
 31 32  1  0  0  0  0
 32 33  1  0  0  0  0
 34 32  1  0  0  0  0
M  END
>  <MODEL>
3

>  <REMARK>
 VINA RESULT:      -6.5      1.509      2.486
  Name = 
  7 active torsions:
  status: ('A' for Active; 'I' for Inactive)
    1  A    between atoms: C_3  and  C_13
    2  A    between atoms: C_3  and  C_17
    3  A    between atoms: C_3  and  C_29
    4  A    between atoms: C_7  and  C_17
    5  A    between atoms: C_18  and  C_29
    6  A    between atoms: C_21  and  C_28
    7  A    between atoms: N_23  and  C_28
                            x       y       z     vdW  Elec       q    Type
                         _______ _______ _______ _____ _____    ______ ____

>  <TORSDO>
F 7

$$$$
=
 OpenBabel11052418583D

 34 37  0  0  1  0  0  0  0  0999 V2000
  189.8750  175.9210  146.7770 C   0  0  0  0  0  0  0  0  0  0  0  0
  189.1770  176.9930  144.6980 C   0  0  0  0  0  0  0  0  0  0  0  0
  191.5630  176.5370  145.1090 C   0  0  0  0  0  0  0  0  0  0  0  0
  192.7740  176.6730  142.9930 C   0  0  0  0  0  0  0  0  0  0  0  0
  187.5310  176.3670  146.3670 C   0  0  0  0  0  3  0  0  0  0  0  0
  187.8480  176.9210  145.1240 C   0  0  0  0  0  3  0  0  0  0  0  0
  190.8650  178.1220  143.2290 C   0  0  0  0  0  2  0  0  0  0  0  0
  190.2100  176.4850  145.5230 C   0  0  0  0  0  0  0  0  0  0  0  0
  193.6610  176.1510  142.1960 C   0  0  0  0  0  3  0  0  0  0  0  0
  188.5420  175.8690  147.1900 C   0  0  0  0  0  3  0  0  0  0  0  0
  192.5680  176.0210  145.9680 C   0  0  0  0  0  0  0  0  0  0  0  0
  190.8740  175.4140  147.6040 C   0  0  0  0  0  3  0  0  0  0  0  0
  189.4640  177.5190  143.3200 C   0  0  0  0  0  2  0  0  0  0  0  0
  191.8660  177.1640  143.7930 C   0  0  0  0  0  0  0  0  0  0  0  0
  192.2080  175.4670  147.2040 C   0  0  0  0  0  3  0  0  0  0  0  0
  194.5560  177.3210  146.0750 O   0  0  0  0  0  1  0  0  0  0  0  0
  194.0250  176.1110  145.6210 C   0  0  1  0  0  3  0  0  0  0  0  0
  196.4680  175.0400  144.6130 O   0  0  0  0  0  0  0  0  0  0  0  0
  196.6650  173.4850  146.2830 O   0  0  0  0  0  1  0  0  0  0  0  0
  194.7580  174.9970  146.2040 N   0  0  0  0  0  2  0  0  0  0  0  0
  195.9910  174.5260  145.6600 C   0  0  0  0  0  0  0  0  0  0  0  0
  193.2430  175.0880  141.2330 C   0  0  0  0  0  2  0  0  0  0  0  0
  192.6800  173.8480  141.9370 C   0  0  1  0  0  3  0  0  0  0  0  0
  195.6110  173.0240  142.0130 O   0  0  0  0  0  1  0  0  0  0  0  0
  193.5070  173.4350  143.1770 C   0  0  2  0  0  3  0  0  0  0  0  0
  194.6500  172.4550  142.8490 C   0  0  1  0  0  3  0  0  0  0  0  0
  192.7730  170.7220  142.8270 C   0  0  0  0  0  2  0  0  0  0  0  0
  192.5530  171.2700  144.2350 C   0  0  0  0  0  2  0  0  0  0  0  0
  192.6000  172.8080  144.2580 C   0  0  0  0  0  2  0  0  0  0  0  0
  194.1470  171.1240  142.2760 C   0  0  0  0  0  2  0  0  0  0  0  0
  191.2000  174.0470  142.2800 C   0  0  0  0  0  2  0  0  0  0  0  0
  190.3050  173.8410  141.0690 C   0  0  0  0  0  3  0  0  0  0  0  0
  190.0720  172.3580  140.8760 C   0  0  0  0  0  1  0  0  0  0  0  0
  188.9660  174.5240  141.2730 C   0  0  0  0  0  1  0  0  0  0  0  0
  1 10  1  0  0  0  0
  1 12  1  0  0  0  0
  2  6  2  0  0  0  0
  2  8  1  0  0  0  0
  3  8  1  0  0  0  0
  3 11  2  0  0  0  0
  4 14  2  0  0  0  0
  5 10  2  0  0  0  0
  6  5  1  0  0  0  0
  7 13  1  0  0  0  0
  7 14  1  0  0  0  0
  8  1  2  0  0  0  0
  9  4  2  0  0  0  0
 11 15  1  0  0  0  0
 13  2  1  0  0  0  0
 14  3  1  0  0  0  0
 15 12  2  0  0  0  0
 17 11  1  0  0  0  0
 17 16  1  1  0  0  0
 17 20  1  0  0  0  0
 18 21  2  0  0  0  0
 21 20  1  0  0  0  0
 21 19  1  0  0  0  0
 22  9  1  0  0  0  0
 23 22  1  1  0  0  0
 23 31  1  0  0  0  0
 25 23  1  6  0  0  0
 25 29  1  0  0  0  0
 26 24  1  6  0  0  0
 26 25  1  0  0  0  0
 27 28  1  0  0  0  0
 28 29  1  0  0  0  0
 30 27  1  0  0  0  0
 30 26  1  0  0  0  0
 32 34  1  0  0  0  0
 32 31  1  0  0  0  0
 33 32  1  0  0  0  0
M  END
>  <MODEL>
4

>  <REMARK>
 VINA RESULT:      -6.3      3.139      5.640
  Name = 
  7 active torsions:
  status: ('A' for Active; 'I' for Inactive)
    1  A    between atoms: C_3  and  C_13
    2  A    between atoms: C_3  and  C_17
    3  A    between atoms: C_3  and  C_29
    4  A    between atoms: C_7  and  C_17
    5  A    between atoms: C_18  and  C_29
    6  A    between atoms: C_21  and  C_28
    7  A    between atoms: N_23  and  C_28
                            x       y       z     vdW  Elec       q    Type
                         _______ _______ _______ _____ _____    ______ ____

>  <TORSDO>
F 7

$$$$
=
 OpenBabel11052418583D

 34 37  0  0  1  0  0  0  0  0999 V2000
  189.9390  175.8990  146.8310 C   0  0  0  0  0  0  0  0  0  0  0  0
  189.1350  176.8990  144.7560 C   0  0  0  0  0  0  0  0  0  0  0  0
  191.5320  176.4030  145.0370 C   0  0  0  0  0  0  0  0  0  0  0  0
  192.6100  176.4230  142.8460 C   0  0  0  0  0  0  0  0  0  0  0  0
  187.5840  176.3840  146.5490 C   0  0  0  0  0  3  0  0  0  0  0  0
  187.8340  176.8770  145.2660 C   0  0  0  0  0  3  0  0  0  0  0  0
  190.7510  177.9250  143.1380 C   0  0  0  0  0  2  0  0  0  0  0  0
  190.2070  176.4020  145.5360 C   0  0  0  0  0  0  0  0  0  0  0  0
  193.4340  175.8470  142.0180 C   0  0  0  0  0  3  0  0  0  0  0  0
  188.6350  175.8950  147.3280 C   0  0  0  0  0  3  0  0  0  0  0  0
  192.5780  175.9000  145.8530 C   0  0  0  0  0  0  0  0  0  0  0  0
  190.9770  175.4020  147.6160 C   0  0  0  0  0  3  0  0  0  0  0  0
  189.3470  177.3610  143.3410 C   0  0  0  0  0  2  0  0  0  0  0  0
  191.7650  176.9680  143.6790 C   0  0  0  0  0  0  0  0  0  0  0  0
  192.2840  175.4060  147.1330 C   0  0  0  0  0  3  0  0  0  0  0  0
  194.5320  177.2260  145.5810 O   0  0  0  0  0  1  0  0  0  0  0  0
  194.0110  175.9400  145.4130 C   0  0  1  0  0  3  0  0  0  0  0  0
  196.5670  174.9420  144.6360 O   0  0  0  0  0  0  0  0  0  0  0  0
  196.8160  173.6540  146.5130 O   0  0  0  0  0  1  0  0  0  0  0  0
  194.8040  174.9800  146.1680 N   0  0  0  0  0  2  0  0  0  0  0  0
  196.0900  174.5410  145.7300 C   0  0  0  0  0  0  0  0  0  0  0  0
  192.9330  174.7550  141.1300 C   0  0  0  0  0  2  0  0  0  0  0  0
  192.3210  173.5920  141.9190 C   0  0  1  0  0  3  0  0  0  0  0  0
  189.7560  175.0990  141.2620 O   0  0  0  0  0  1  0  0  0  0  0  0
  191.0420  173.0250  141.2580 C   0  0  2  0  0  3  0  0  0  0  0  0
  189.7580  173.7670  141.6780 C   0  0  1  0  0  3  0  0  0  0  0  0
  189.9720  172.3450  143.7910 C   0  0  0  0  0  2  0  0  0  0  0  0
  189.9570  171.2160  142.7630 C   0  0  0  0  0  2  0  0  0  0  0  0
  190.8810  171.5220  141.5720 C   0  0  0  0  0  2  0  0  0  0  0  0
  189.4770  173.6650  143.1830 C   0  0  0  0  0  2  0  0  0  0  0  0
  193.3660  172.4990  142.1660 C   0  0  0  0  0  2  0  0  0  0  0  0
  194.0600  172.6720  143.5070 C   0  0  0  0  0  3  0  0  0  0  0  0
  193.0660  172.3970  144.6150 C   0  0  0  0  0  1  0  0  0  0  0  0
  195.2190  171.7020  143.6370 C   0  0  0  0  0  1  0  0  0  0  0  0
  1 10  1  0  0  0  0
  1 12  1  0  0  0  0
  2  6  2  0  0  0  0
  2  8  1  0  0  0  0
  3  8  1  0  0  0  0
  3 11  2  0  0  0  0
  4 14  2  0  0  0  0
  5 10  2  0  0  0  0
  6  5  1  0  0  0  0
  7 13  1  0  0  0  0
  7 14  1  0  0  0  0
  8  1  2  0  0  0  0
  9  4  2  0  0  0  0
 11 15  1  0  0  0  0
 13  2  1  0  0  0  0
 14  3  1  0  0  0  0
 15 12  2  0  0  0  0
 17 16  1  1  0  0  0
 17 11  1  0  0  0  0
 17 20  1  0  0  0  0
 18 21  2  0  0  0  0
 21 20  1  0  0  0  0
 21 19  1  0  0  0  0
 22  9  1  0  0  0  0
 23 22  1  6  0  0  0
 23 31  1  0  0  0  0
 25 29  1  0  0  0  0
 25 26  1  0  0  0  0
 25 23  1  1  0  0  0
 26 24  1  1  0  0  0
 26 30  1  0  0  0  0
 28 27  1  0  0  0  0
 29 28  1  0  0  0  0
 30 27  1  0  0  0  0
 31 32  1  0  0  0  0
 32 34  1  0  0  0  0
 32 33  1  0  0  0  0
M  END
>  <MODEL>
5

>  <REMARK>
 VINA RESULT:      -6.3      2.507      6.028
  Name = 
  7 active torsions:
  status: ('A' for Active; 'I' for Inactive)
    1  A    between atoms: C_3  and  C_13
    2  A    between atoms: C_3  and  C_17
    3  A    between atoms: C_3  and  C_29
    4  A    between atoms: C_7  and  C_17
    5  A    between atoms: C_18  and  C_29
    6  A    between atoms: C_21  and  C_28
    7  A    between atoms: N_23  and  C_28
                            x       y       z     vdW  Elec       q    Type
                         _______ _______ _______ _____ _____    ______ ____

>  <TORSDO>
F 7

$$$$
=
 OpenBabel11052418583D

 34 37  0  0  1  0  0  0  0  0999 V2000
  189.4740  173.5510  141.4570 C   0  0  0  0  0  0  0  0  0  0  0  0
  191.8850  173.4480  141.0930 C   0  0  0  0  0  0  0  0  0  0  0  0
  190.9150  175.2930  142.4070 C   0  0  0  0  0  0  0  0  0  0  0  0
  192.6890  176.3740  143.6890 C   0  0  0  0  0  0  0  0  0  0  0  0
  190.4320  171.7380  140.1710 C   0  0  0  0  0  3  0  0  0  0  0  0
  191.7100  172.2680  140.3650 C   0  0  0  0  0  3  0  0  0  0  0  0
  193.3210  175.4490  141.5570 C   0  0  0  0  0  2  0  0  0  0  0  0
  190.7630  174.1020  141.6550 C   0  0  0  0  0  0  0  0  0  0  0  0
  193.0810  176.8680  144.8280 C   0  0  0  0  0  3  0  0  0  0  0  0
  189.3180  172.3780  140.7170 C   0  0  0  0  0  3  0  0  0  0  0  0
  189.7630  175.9200  142.9490 C   0  0  0  0  0  0  0  0  0  0  0  0
  188.3550  174.1770  142.0020 C   0  0  0  0  0  3  0  0  0  0  0  0
  193.2840  173.9370  141.3470 C   0  0  0  0  0  2  0  0  0  0  0  0
  192.2880  175.8460  142.5640 C   0  0  0  0  0  0  0  0  0  0  0  0
  188.4990  175.3510  142.7380 C   0  0  0  0  0  3  0  0  0  0  0  0
  189.8420  178.2910  142.7940 O   0  0  0  0  0  1  0  0  0  0  0  0
  189.8490  177.2200  143.6920 C   0  0  1  0  0  3  0  0  0  0  0  0
  190.0680  177.1210  146.5330 O   0  0  0  0  0  0  0  0  0  0  0  0
  187.8330  177.4790  146.8810 O   0  0  0  0  0  1  0  0  0  0  0  0
  188.7390  177.3480  144.6260 N   0  0  0  0  0  2  0  0  0  0  0  0
  188.9250  177.3120  146.0410 C   0  0  0  0  0  0  0  0  0  0  0  0
  193.6760  175.9580  145.8530 C   0  0  0  0  0  2  0  0  0  0  0  0
  194.3970  174.7590  145.2260 C   0  0  1  0  0  3  0  0  0  0  0  0
  196.4070  176.6160  143.8880 O   0  0  0  0  0  1  0  0  0  0  0  0
  195.9280  174.7980  145.4420 C   0  0  2  0  0  3  0  0  0  0  0  0
  196.7060  175.2920  144.2080 C   0  0  1  0  0  3  0  0  0  0  0  0
  196.3220  172.9090  143.3690 C   0  0  0  0  0  2  0  0  0  0  0  0
  197.0170  172.5720  144.6860 C   0  0  0  0  0  2  0  0  0  0  0  0
  196.4600  173.4070  145.8510 C   0  0  0  0  0  2  0  0  0  0  0  0
  196.5260  174.3810  142.9870 C   0  0  0  0  0  2  0  0  0  0  0  0
  193.7850  173.4430  145.7180 C   0  0  0  0  0  2  0  0  0  0  0  0
  192.8900  172.8060  144.6670 C   0  0  0  0  0  3  0  0  0  0  0  0
  193.1700  171.3190  144.6180 C   0  0  0  0  0  1  0  0  0  0  0  0
  191.4280  173.0180  145.0120 C   0  0  0  0  0  1  0  0  0  0  0  0
  1  8  2  0  0  0  0
  1 12  1  0  0  0  0
  2 13  1  0  0  0  0
  2  8  1  0  0  0  0
  3 14  1  0  0  0  0
  3 11  2  0  0  0  0
  4  9  2  0  0  0  0
  5  6  1  0  0  0  0
  5 10  2  0  0  0  0
  6  2  2  0  0  0  0
  7 14  1  0  0  0  0
  8  3  1  0  0  0  0
  9 22  1  0  0  0  0
 10  1  1  0  0  0  0
 11 17  1  0  0  0  0
 12 15  2  0  0  0  0
 13  7  1  0  0  0  0
 14  4  2  0  0  0  0
 15 11  1  0  0  0  0
 17 16  1  6  0  0  0
 17 20  1  0  0  0  0
 20 21  1  0  0  0  0
 21 18  2  0  0  0  0
 21 19  1  0  0  0  0
 23 31  1  1  0  0  0
 23 22  1  0  0  0  0
 25 23  1  6  0  0  0
 25 29  1  0  0  0  0
 26 24  1  6  0  0  0
 26 25  1  0  0  0  0
 27 28  1  0  0  0  0
 28 29  1  0  0  0  0
 30 27  1  0  0  0  0
 30 26  1  0  0  0  0
 32 34  1  0  0  0  0
 32 31  1  0  0  0  0
 33 32  1  0  0  0  0
M  END
>  <MODEL>
6

>  <REMARK>
 VINA RESULT:      -6.2      2.906      5.594
  Name = 
  7 active torsions:
  status: ('A' for Active; 'I' for Inactive)
    1  A    between atoms: C_3  and  C_13
    2  A    between atoms: C_3  and  C_17
    3  A    between atoms: C_3  and  C_29
    4  A    between atoms: C_7  and  C_17
    5  A    between atoms: C_18  and  C_29
    6  A    between atoms: C_21  and  C_28
    7  A    between atoms: N_23  and  C_28
                            x       y       z     vdW  Elec       q    Type
                         _______ _______ _______ _____ _____    ______ ____

>  <TORSDO>
F 7

$$$$
=
 OpenBabel11052418583D

 34 37  0  0  1  0  0  0  0  0999 V2000
  194.7870  172.2950  144.8550 C   0  0  0  0  0  0  0  0  0  0  0  0
  195.8490  174.4920  144.8000 C   0  0  0  0  0  0  0  0  0  0  0  0
  193.7990  174.0810  143.4950 C   0  0  0  0  0  0  0  0  0  0  0  0
  192.8160  176.2240  142.8640 C   0  0  0  0  0  0  0  0  0  0  0  0
  196.7990  172.7050  146.1380 C   0  0  0  0  0  3  0  0  0  0  0  0
  196.8280  174.0250  145.6820 C   0  0  0  0  0  3  0  0  0  0  0  0
  195.2170  176.1580  143.0380 C   0  0  0  0  0  2  0  0  0  0  0  0
  194.8090  173.6280  144.3800 C   0  0  0  0  0  0  0  0  0  0  0  0
  191.7450  176.9570  142.7610 C   0  0  0  0  0  3  0  0  0  0  0  0
  195.7800  171.8430  145.7260 C   0  0  0  0  0  3  0  0  0  0  0  0
  192.7780  173.1810  143.0960 C   0  0  0  0  0  0  0  0  0  0  0  0
  193.7730  171.4270  144.4570 C   0  0  0  0  0  3  0  0  0  0  0  0
  195.8710  175.9410  144.4000 C   0  0  0  0  0  2  0  0  0  0  0  0
  193.8820  175.4830  143.0040 C   0  0  0  0  0  0  0  0  0  0  0  0
  192.7800  171.8660  143.5830 C   0  0  0  0  0  3  0  0  0  0  0  0
  192.0650  173.1260  140.8280 O   0  0  0  0  0  1  0  0  0  0  0  0
  191.7220  173.5760  142.1060 C   0  0  1  0  0  3  0  0  0  0  0  0
  189.1920  174.5390  141.2090 O   0  0  0  0  0  0  0  0  0  0  0  0
  187.9990  172.9610  142.3630 O   0  0  0  0  0  1  0  0  0  0  0  0
  190.4290  173.0300  142.4950 N   0  0  0  0  0  2  0  0  0  0  0  0
  189.1990  173.5490  141.9870 C   0  0  0  0  0  0  0  0  0  0  0  0
  191.2780  177.7380  143.9460 C   0  0  0  0  0  2  0  0  0  0  0  0
  190.0970  177.0700  144.6610 C   0  0  1  0  0  3  0  0  0  0  0  0
  192.6990  176.4440  146.1160 O   0  0  0  0  0  1  0  0  0  0  0  0
  190.3120  176.9450  146.1880 C   0  0  2  0  0  3  0  0  0  0  0  0
  191.4600  175.9890  146.5660 C   0  0  1  0  0  3  0  0  0  0  0  0
  189.7180  174.1770  146.0980 C   0  0  0  0  0  2  0  0  0  0  0  0
  188.9410  174.9680  147.1480 C   0  0  0  0  0  2  0  0  0  0  0  0
  189.0170  176.4820  146.8890 C   0  0  0  0  0  2  0  0  0  0  0  0
  191.2080  174.5470  146.1070 C   0  0  0  0  0  2  0  0  0  0  0  0
  188.7860  177.7900  144.3270 C   0  0  0  0  0  2  0  0  0  0  0  0
  187.9360  176.9930  143.3510 C   0  0  0  0  0  3  0  0  0  0  0  0
  186.5630  176.7820  143.9530 C   0  0  0  0  0  1  0  0  0  0  0  0
  187.7850  177.7420  142.0410 C   0  0  0  0  0  1  0  0  0  0  0  0
  1 10  2  0  0  0  0
  2  6  1  0  0  0  0
  3  8  1  0  0  0  0
  4 14  2  0  0  0  0
  6  5  2  0  0  0  0
  7 13  1  0  0  0  0
  8  2  2  0  0  0  0
  8  1  1  0  0  0  0
  9  4  2  0  0  0  0
  9 22  1  0  0  0  0
 10  5  1  0  0  0  0
 11  3  2  0  0  0  0
 11 15  1  0  0  0  0
 12  1  1  0  0  0  0
 13  2  1  0  0  0  0
 14  7  1  0  0  0  0
 14  3  1  0  0  0  0
 15 12  2  0  0  0  0
 17 16  1  6  0  0  0
 17 20  1  0  0  0  0
 17 11  1  0  0  0  0
 18 21  2  0  0  0  0
 21 19  1  0  0  0  0
 21 20  1  0  0  0  0
 23 22  1  1  0  0  0
 25 23  1  6  0  0  0
 25 26  1  0  0  0  0
 25 29  1  0  0  0  0
 26 24  1  6  0  0  0
 27 30  1  0  0  0  0
 27 28  1  0  0  0  0
 29 28  1  0  0  0  0
 30 26  1  0  0  0  0
 31 23  1  0  0  0  0
 32 33  1  0  0  0  0
 32 31  1  0  0  0  0
 34 32  1  0  0  0  0
M  END
>  <MODEL>
7

>  <REMARK>
 VINA RESULT:      -6.1      1.996      5.850
  Name = 
  7 active torsions:
  status: ('A' for Active; 'I' for Inactive)
    1  A    between atoms: C_3  and  C_13
    2  A    between atoms: C_3  and  C_17
    3  A    between atoms: C_3  and  C_29
    4  A    between atoms: C_7  and  C_17
    5  A    between atoms: C_18  and  C_29
    6  A    between atoms: C_21  and  C_28
    7  A    between atoms: N_23  and  C_28
                            x       y       z     vdW  Elec       q    Type
                         _______ _______ _______ _____ _____    ______ ____

>  <TORSDO>
F 7

$$$$
=
 OpenBabel11052418583D

 34 37  0  0  1  0  0  0  0  0999 V2000
  187.4670  176.9110  143.9790 C   0  0  0  0  0  0  0  0  0  0  0  0
  188.2090  176.3650  146.2390 C   0  0  0  0  0  0  0  0  0  0  0  0
  188.9960  175.0260  144.3260 C   0  0  0  0  0  0  0  0  0  0  0  0
  190.9550  173.7400  145.0090 C   0  0  0  0  0  0  0  0  0  0  0  0
  186.7000  178.2270  145.8610 C   0  0  0  0  0  3  0  0  0  0  0  0
  187.4520  177.4330  146.7290 C   0  0  0  0  0  3  0  0  0  0  0  0
  189.3050  174.1620  146.7110 C   0  0  0  0  0  2  0  0  0  0  0  0
  188.2290  176.0950  144.8490 C   0  0  0  0  0  0  0  0  0  0  0  0
  192.1610  173.3350  144.7280 C   0  0  0  0  0  3  0  0  0  0  0  0
  186.7090  177.9670  144.4890 C   0  0  0  0  0  3  0  0  0  0  0  0
  188.9840  174.7870  142.9270 C   0  0  0  0  0  0  0  0  0  0  0  0
  187.4730  176.6660  142.6070 C   0  0  0  0  0  3  0  0  0  0  0  0
  189.0670  175.5890  147.1980 C   0  0  0  0  0  2  0  0  0  0  0  0
  189.7580  174.1810  145.2860 C   0  0  0  0  0  0  0  0  0  0  0  0
  188.2220  175.6120  142.0880 C   0  0  0  0  0  3  0  0  0  0  0  0
  188.8670  172.5230  142.2110 O   0  0  0  0  0  1  0  0  0  0  0  0
  189.7160  173.6280  142.3190 C   0  0  1  0  0  3  0  0  0  0  0  0
  192.1070  172.5950  141.1580 O   0  0  0  0  0  1  0  0  0  0  0  0
  191.8550  173.7590  139.2030 O   0  0  0  0  0  0  0  0  0  0  0  0
  190.2360  173.9850  141.0060 N   0  0  0  0  0  2  0  0  0  0  0  0
  191.4310  173.4090  140.4770 C   0  0  0  0  0  0  0  0  0  0  0  0
  193.3230  174.2100  145.0690 C   0  0  0  0  0  2  0  0  0  0  0  0
  193.6870  175.1720  143.9320 C   0  0  1  0  0  3  0  0  0  0  0  0
  196.1580  173.4300  144.2990 O   0  0  0  0  0  1  0  0  0  0  0  0
  194.5350  174.5010  142.8260 C   0  0  2  0  0  3  0  0  0  0  0  0
  196.0110  174.3050  143.2240 C   0  0  1  0  0  3  0  0  0  0  0  0
  196.1970  176.7870  142.6410 C   0  0  0  0  0  2  0  0  0  0  0  0
  195.6420  176.2860  141.3100 C   0  0  0  0  0  2  0  0  0  0  0  0
  194.4690  175.3120  141.5140 C   0  0  0  0  0  2  0  0  0  0  0  0
  196.7350  175.6310  143.4960 C   0  0  0  0  0  2  0  0  0  0  0  0
  192.4280  175.8330  143.3610 C   0  0  0  0  0  2  0  0  0  0  0  0
  192.2210  177.2320  143.9190 C   0  0  0  0  0  3  0  0  0  0  0  0
  191.1140  177.9130  143.1430 C   0  0  0  0  0  1  0  0  0  0  0  0
  191.8250  177.1690  145.3820 C   0  0  0  0  0  1  0  0  0  0  0  0
  1 10  2  0  0  0  0
  1  8  1  0  0  0  0
  2  6  1  0  0  0  0
  2 13  1  0  0  0  0
  3  8  1  0  0  0  0
  3 14  1  0  0  0  0
  4 14  2  0  0  0  0
  5  6  2  0  0  0  0
  7 13  1  0  0  0  0
  8  2  2  0  0  0  0
  9  4  2  0  0  0  0
  9 22  1  0  0  0  0
 10  5  1  0  0  0  0
 11  3  2  0  0  0  0
 12  1  1  0  0  0  0
 14  7  1  0  0  0  0
 15 12  2  0  0  0  0
 15 11  1  0  0  0  0
 17 16  1  6  0  0  0
 17 11  1  0  0  0  0
 19 21  2  0  0  0  0
 20 17  1  0  0  0  0
 21 20  1  0  0  0  0
 21 18  1  0  0  0  0
 23 31  1  6  0  0  0
 23 22  1  0  0  0  0
 25 26  1  0  0  0  0
 25 23  1  1  0  0  0
 26 30  1  0  0  0  0
 26 24  1  1  0  0  0
 27 30  1  0  0  0  0
 28 29  1  0  0  0  0
 28 27  1  0  0  0  0
 29 25  1  0  0  0  0
 31 32  1  0  0  0  0
 32 34  1  0  0  0  0
 33 32  1  0  0  0  0
M  END
>  <MODEL>
8

>  <REMARK>
 VINA RESULT:      -6.1      1.711      2.410
  Name = 
  7 active torsions:
  status: ('A' for Active; 'I' for Inactive)
    1  A    between atoms: C_3  and  C_13
    2  A    between atoms: C_3  and  C_17
    3  A    between atoms: C_3  and  C_29
    4  A    between atoms: C_7  and  C_17
    5  A    between atoms: C_18  and  C_29
    6  A    between atoms: C_21  and  C_28
    7  A    between atoms: N_23  and  C_28
                            x       y       z     vdW  Elec       q    Type
                         _______ _______ _______ _____ _____    ______ ____

>  <TORSDO>
F 7

$$$$
=
 OpenBabel11052418583D

 34 37  0  0  1  0  0  0  0  0999 V2000
  191.2760  173.5320  140.4150 C   0  0  0  0  0  0  0  0  0  0  0  0
  189.8770  173.3890  142.4090 C   0  0  0  0  0  0  0  0  0  0  0  0
  192.3170  173.6520  142.6310 C   0  0  0  0  0  0  0  0  0  0  0  0
  192.8340  174.3890  144.9010 C   0  0  0  0  0  0  0  0  0  0  0  0
  188.8780  173.2770  140.2020 C   0  0  0  0  0  3  0  0  0  0  0  0
  188.7490  173.2750  141.5930 C   0  0  0  0  0  3  0  0  0  0  0  0
  190.9130  172.9580  144.6510 C   0  0  0  0  0  2  0  0  0  0  0  0
  191.1600  173.5250  141.8250 C   0  0  0  0  0  0  0  0  0  0  0  0
  193.5080  175.1930  145.6720 C   0  0  0  0  0  3  0  0  0  0  0  0
  190.1380  173.4060  139.6150 C   0  0  0  0  0  3  0  0  0  0  0  0
  193.5840  173.7820  142.0050 C   0  0  0  0  0  0  0  0  0  0  0  0
  192.5270  173.6670  139.8170 C   0  0  0  0  0  3  0  0  0  0  0  0
  189.6850  173.4650  143.8980 C   0  0  0  0  0  2  0  0  0  0  0  0
  192.1440  173.6120  144.1090 C   0  0  0  0  0  0  0  0  0  0  0  0
  193.6700  173.7880  140.6050 C   0  0  0  0  0  3  0  0  0  0  0  0
  195.6830  172.7710  142.4760 O   0  0  0  0  0  1  0  0  0  0  0  0
  194.8540  173.8480  142.8000 C   0  0  1  0  0  3  0  0  0  0  0  0
  196.8140  175.0160  144.5110 O   0  0  0  0  0  1  0  0  0  0  0  0
  197.1960  176.8000  143.1270 O   0  0  0  0  0  0  0  0  0  0  0  0
  195.5480  175.1030  142.5490 N   0  0  0  0  0  2  0  0  0  0  0  0
  196.5390  175.6180  143.4400 C   0  0  0  0  0  0  0  0  0  0  0  0
  192.9620  176.5520  145.9650 C   0  0  0  0  0  2  0  0  0  0  0  0
  191.4340  176.6080  145.8490 C   0  0  1  0  0  3  0  0  0  0  0  0
  191.4070  174.9170  148.3830 O   0  0  0  0  0  1  0  0  0  0  0  0
  190.7410  176.9400  147.1920 C   0  0  2  0  0  3  0  0  0  0  0  0
  190.3150  175.6890  147.9840 C   0  0  1  0  0  3  0  0  0  0  0  0
  188.3600  175.6660  146.3390 C   0  0  0  0  0  2  0  0  0  0  0  0
  188.1720  177.0770  146.8880 C   0  0  0  0  0  2  0  0  0  0  0  0
  189.5060  177.8380  146.9660 C   0  0  0  0  0  2  0  0  0  0  0  0
  189.2860  174.8320  147.2360 C   0  0  0  0  0  2  0  0  0  0  0  0
  191.0120  177.5740  144.7370 C   0  0  0  0  0  2  0  0  0  0  0  0
  190.8110  176.8570  143.4110 C   0  0  0  0  0  3  0  0  0  0  0  0
  189.5400  177.3640  142.7650 C   0  0  0  0  0  1  0  0  0  0  0  0
  191.9760  177.1270  142.4780 C   0  0  0  0  0  1  0  0  0  0  0  0
  1  8  1  0  0  0  0
  2 13  1  0  0  0  0
  3 14  1  0  0  0  0
  4  9  2  0  0  0  0
  5  6  1  0  0  0  0
  6  2  2  0  0  0  0
  8  2  1  0  0  0  0
  8  3  2  0  0  0  0
  9 22  1  0  0  0  0
 10  5  2  0  0  0  0
 10  1  1  0  0  0  0
 11  3  1  0  0  0  0
 11 17  1  0  0  0  0
 12  1  2  0  0  0  0
 12 15  1  0  0  0  0
 13  7  1  0  0  0  0
 14  7  1  0  0  0  0
 14  4  2  0  0  0  0
 15 11  2  0  0  0  0
 17 16  1  6  0  0  0
 19 21  2  0  0  0  0
 20 17  1  0  0  0  0
 20 21  1  0  0  0  0
 21 18  1  0  0  0  0
 23 31  1  6  0  0  0
 23 22  1  0  0  0  0
 25 23  1  6  0  0  0
 25 26  1  0  0  0  0
 26 24  1  6  0  0  0
 27 28  1  0  0  0  0
 27 30  1  0  0  0  0
 28 29  1  0  0  0  0
 29 25  1  0  0  0  0
 30 26  1  0  0  0  0
 32 31  1  0  0  0  0
 33 32  1  0  0  0  0
 34 32  1  0  0  0  0
M  END
>  <MODEL>
9

>  <REMARK>
 VINA RESULT:      -6.0      3.133      5.765
  Name = 
  7 active torsions:
  status: ('A' for Active; 'I' for Inactive)
    1  A    between atoms: C_3  and  C_13
    2  A    between atoms: C_3  and  C_17
    3  A    between atoms: C_3  and  C_29
    4  A    between atoms: C_7  and  C_17
    5  A    between atoms: C_18  and  C_29
    6  A    between atoms: C_21  and  C_28
    7  A    between atoms: N_23  and  C_28
                            x       y       z     vdW  Elec       q    Type
                         _______ _______ _______ _____ _____    ______ ____

>  <TORSDO>
F 7

$$$$
