=
 OpenBabel11052417143D

 30 33  0  0  1  0  0  0  0  0999 V2000
  187.0800  177.6470  143.9280 C   0  0  0  0  0  3  0  0  0  0  0  0
  185.2930  178.8130  145.1000 C   0  0  0  0  0  0  0  0  0  0  0  0
  188.0920  175.5430  147.4360 C   0  0  0  0  0  3  0  0  0  0  0  0
  188.1310  176.7290  143.9000 C   0  0  0  0  0  0  0  0  0  0  0  0
  189.1420  174.6240  147.4210 C   0  0  0  0  0  3  0  0  0  0  0  0
  184.5680  179.0390  146.2730 C   0  0  0  0  0  3  0  0  0  0  0  0
  184.9420  179.5300  143.9200 N   0  0  0  0  0  1  0  0  0  0  0  0
  187.7420  176.2540  146.2730 C   0  0  0  0  0  0  0  0  0  0  0  0
  184.8890  178.3520  147.4430 C   0  0  0  0  0  3  0  0  0  0  0  0
  186.3510  177.8840  145.0960 C   0  0  0  0  0  0  0  0  0  0  0  0
  188.4720  176.0250  145.0760 C   0  0  0  0  0  0  0  0  0  0  0  0
  189.8580  174.4000  146.2450 C   0  0  0  0  0  3  0  0  0  0  0  0
  189.5250  175.0960  145.0830 C   0  0  0  0  0  3  0  0  0  0  0  0
  185.9380  177.4310  147.4500 C   0  0  0  0  0  3  0  0  0  0  0  0
  186.6810  177.1840  146.2820 C   0  0  0  0  0  0  0  0  0  0  0  0
  188.8550  176.5510  142.5900 C   0  0  1  0  0  3  0  0  0  0  0  0
  187.5320  176.8470  140.6080 O   0  0  0  0  0  1  0  0  0  0  0  0
  187.9700  175.8920  141.5290 C   0  0  1  0  0  3  0  0  0  0  0  0
  188.3910  174.3990  139.5660 N   0  0  0  0  0  0  0  0  0  0  0  0
  189.9410  173.8730  141.4560 S   0  0  0  0  0  0  0  0  0  0  0  0
  188.7050  174.8060  140.8110 C   0  0  0  0  0  0  0  0  0  0  0  0
  189.1640  173.3560  139.1570 C   0  0  0  0  0  3  0  0  0  0  0  0
  190.1050  172.9080  140.0850 C   0  0  0  0  0  3  0  0  0  0  0  0
  189.3470  177.7780  142.1310 O   0  0  0  0  0  0  0  0  0  0  0  0
  190.3860  178.1040  143.0080 C   0  0  0  0  0  2  0  0  0  0  0  0
  191.5260  177.1130  142.8540 C   0  0  0  0  0  2  0  0  0  0  0  0
  192.3660  177.0800  144.1190 C   0  0  0  0  0  2  0  0  0  0  0  0
  193.3370  174.9350  144.9290 O   0  0  0  0  0  1  0  0  0  0  0  0
  193.3750  175.9920  144.0300 C   0  0  0  0  0  0  0  0  0  0  0  0
  194.2420  176.0110  143.1190 O   0  0  0  0  0  0  0  0  0  0  0  0
  1 10  1  0  0  0  0
  2  6  1  0  0  0  0
  4  1  2  0  0  0  0
  4 11  1  0  0  0  0
  5  3  1  0  0  0  0
  6  9  2  0  0  0  0
  7  2  1  0  0  0  0
  8 15  1  0  0  0  0
  8  3  2  0  0  0  0
  9 14  1  0  0  0  0
 10  2  2  0  0  0  0
 10 15  1  0  0  0  0
 11 13  2  0  0  0  0
 11  8  1  0  0  0  0
 12  5  2  0  0  0  0
 13 12  1  0  0  0  0
 15 14  2  0  0  0  0
 16 24  1  6  0  0  0
 16  4  1  0  0  0  0
 18 17  1  6  0  0  0
 18 16  1  0  0  0  0
 19 21  2  0  0  0  0
 21 20  1  0  0  0  0
 21 18  1  0  0  0  0
 22 19  1  0  0  0  0
 22 23  2  0  0  0  0
 23 20  1  0  0  0  0
 24 25  1  0  0  0  0
 26 25  1  0  0  0  0
 26 27  1  0  0  0  0
 29 27  1  0  0  0  0
 29 28  1  0  0  0  0
 30 29  2  0  0  0  0
M  END
>  <MODEL>
1

>  <REMARK>
 VINA RESULT:      -7.4      0.000      0.000
  Name = 
  8 active torsions:
  status: ('A' for Active; 'I' for Inactive)
    1  A    between atoms: C_4  and  C_13
    2  A    between atoms: C_7  and  C_15
    3  A    between atoms: C_7  and  C_16
    4  A    between atoms: C_8  and  C_12
    5  A    between atoms: C_8  and  C_13
    6  A    between atoms: C_13  and  O_27
    7  A    between atoms: C_16  and  C_30
    8  A    between atoms: O_27  and  C_30
                            x       y       z     vdW  Elec       q    Type
                         _______ _______ _______ _____ _____    ______ ____

>  <TORSDO>
F 8

$$$$
=
 OpenBabel11052417143D

 30 33  0  0  1  0  0  0  0  0999 V2000
  187.6620  176.6590  146.0700 C   0  0  0  0  0  3  0  0  0  0  0  0
  185.6990  177.8550  146.8720 C   0  0  0  0  0  0  0  0  0  0  0  0
  186.3680  177.0820  142.0830 C   0  0  0  0  0  3  0  0  0  0  0  0
  188.4370  176.1320  145.0360 C   0  0  0  0  0  0  0  0  0  0  0  0
  187.1330  176.5570  141.0400 C   0  0  0  0  0  3  0  0  0  0  0  0
  184.5040  178.5260  146.6020 C   0  0  0  0  0  3  0  0  0  0  0  0
  186.1260  177.7180  148.2240 N   0  0  0  0  0  1  0  0  0  0  0  0
  186.7860  176.9490  143.4190 C   0  0  0  0  0  0  0  0  0  0  0  0
  184.0590  178.6750  145.2890 C   0  0  0  0  0  3  0  0  0  0  0  0
  186.4630  177.3280  145.8130 C   0  0  0  0  0  0  0  0  0  0  0  0
  188.0030  176.2710  143.6990 C   0  0  0  0  0  0  0  0  0  0  0  0
  188.3280  175.8920  141.3160 C   0  0  0  0  0  3  0  0  0  0  0  0
  188.7580  175.7510  142.6360 C   0  0  0  0  0  3  0  0  0  0  0  0
  184.8090  178.1550  144.2320 C   0  0  0  0  0  3  0  0  0  0  0  0
  186.0160  177.4780  144.4770 C   0  0  0  0  0  0  0  0  0  0  0  0
  189.7110  175.4240  145.4230 C   0  0  1  0  0  3  0  0  0  0  0  0
  190.3810  175.3760  147.7280 O   0  0  0  0  0  1  0  0  0  0  0  0
  190.4430  176.1400  146.5610 C   0  0  1  0  0  3  0  0  0  0  0  0
  192.8660  176.4280  147.1150 N   0  0  0  0  0  0  0  0  0  0  0  0
  192.4460  176.7730  144.6750 S   0  0  0  0  0  0  0  0  0  0  0  0
  191.8730  176.3960  146.2060 C   0  0  0  0  0  0  0  0  0  0  0  0
  194.0660  176.7410  146.5540 C   0  0  0  0  0  3  0  0  0  0  0  0
  194.0420  176.9750  145.1790 C   0  0  0  0  0  3  0  0  0  0  0  0
  189.4480  174.0930  145.7650 O   0  0  0  0  0  0  0  0  0  0  0  0
  190.2800  173.3340  144.9360 C   0  0  0  0  0  2  0  0  0  0  0  0
  189.5860  172.0410  144.5450 C   0  0  0  0  0  2  0  0  0  0  0  0
  188.9410  172.1860  143.1790 C   0  0  0  0  0  2  0  0  0  0  0  0
  190.1940  172.5780  141.0630 O   0  0  0  0  0  0  0  0  0  0  0  0
  189.8830  171.7360  142.1210 C   0  0  0  0  0  0  0  0  0  0  0  0
  190.4260  170.6040  142.2040 O   0  0  0  0  0  1  0  0  0  0  0  0
  2  7  1  0  0  0  0
  3  8  1  0  0  0  0
  4 16  1  0  0  0  0
  4  1  2  0  0  0  0
  5 12  1  0  0  0  0
  5  3  2  0  0  0  0
  6  2  1  0  0  0  0
  8 11  2  0  0  0  0
  8 15  1  0  0  0  0
  9  6  2  0  0  0  0
 10  1  1  0  0  0  0
 10  2  2  0  0  0  0
 11  4  1  0  0  0  0
 12 13  2  0  0  0  0
 13 11  1  0  0  0  0
 14 15  2  0  0  0  0
 14  9  1  0  0  0  0
 15 10  1  0  0  0  0
 16 24  1  1  0  0  0
 16 18  1  0  0  0  0
 18 17  1  1  0  0  0
 20 23  1  0  0  0  0
 20 21  1  0  0  0  0
 21 18  1  0  0  0  0
 21 19  2  0  0  0  0
 22 19  1  0  0  0  0
 23 22  2  0  0  0  0
 25 24  1  0  0  0  0
 26 25  1  0  0  0  0
 27 26  1  0  0  0  0
 28 29  2  0  0  0  0
 29 30  1  0  0  0  0
 29 27  1  0  0  0  0
M  END
>  <MODEL>
2

>  <REMARK>
 VINA RESULT:      -7.3      3.112      5.220
  Name = 
  8 active torsions:
  status: ('A' for Active; 'I' for Inactive)
    1  A    between atoms: C_4  and  C_13
    2  A    between atoms: C_7  and  C_15
    3  A    between atoms: C_7  and  C_16
    4  A    between atoms: C_8  and  C_12
    5  A    between atoms: C_8  and  C_13
    6  A    between atoms: C_13  and  O_27
    7  A    between atoms: C_16  and  C_30
    8  A    between atoms: O_27  and  C_30
                            x       y       z     vdW  Elec       q    Type
                         _______ _______ _______ _____ _____    ______ ____

>  <TORSDO>
F 8

$$$$
=
 OpenBabel11052417143D

 30 33  0  0  1  0  0  0  0  0999 V2000
  187.6740  177.0520  142.2300 C   0  0  0  0  0  3  0  0  0  0  0  0
  185.8670  177.7560  140.7590 C   0  0  0  0  0  0  0  0  0  0  0  0
  185.1660  177.4320  145.5950 C   0  0  0  0  0  3  0  0  0  0  0  0
  188.1770  176.7590  143.4990 C   0  0  0  0  0  0  0  0  0  0  0  0
  185.6580  177.1430  146.8690 C   0  0  0  0  0  3  0  0  0  0  0  0
  184.5430  178.1680  140.5900 C   0  0  0  0  0  3  0  0  0  0  0  0
  186.7060  177.6320  139.6140 N   0  0  0  0  0  1  0  0  0  0  0  0
  185.9910  177.3110  144.4620 C   0  0  0  0  0  0  0  0  0  0  0  0
  183.6980  178.3000  141.6920 C   0  0  0  0  0  3  0  0  0  0  0  0
  186.3530  177.4690  142.0490 C   0  0  0  0  0  0  0  0  0  0  0  0
  187.3370  176.8880  144.6280 C   0  0  0  0  0  0  0  0  0  0  0  0
  186.9800  176.7290  147.0310 C   0  0  0  0  0  3  0  0  0  0  0  0
  187.8120  176.6030  145.9180 C   0  0  0  0  0  3  0  0  0  0  0  0
  184.1720  178.0180  142.9750 C   0  0  0  0  0  3  0  0  0  0  0  0
  185.4990  177.6000  143.1720 C   0  0  0  0  0  0  0  0  0  0  0  0
  189.6170  176.3230  143.5850 C   0  0  1  0  0  3  0  0  0  0  0  0
  191.2290  175.3850  142.0720 O   0  0  0  0  0  1  0  0  0  0  0  0
  189.9410  175.2110  142.5830 C   0  0  1  0  0  3  0  0  0  0  0  0
  189.5090  172.7470  142.5390 N   0  0  0  0  0  0  0  0  0  0  0  0
  189.9990  173.5400  144.8580 S   0  0  0  0  0  0  0  0  0  0  0  0
  189.8340  173.8620  143.2200 C   0  0  0  0  0  0  0  0  0  0  0  0
  189.4140  171.6580  143.3510 C   0  0  0  0  0  3  0  0  0  0  0  0
  189.6560  171.8980  144.7040 C   0  0  0  0  0  3  0  0  0  0  0  0
  190.4720  177.4150  143.4040 O   0  0  0  0  0  0  0  0  0  0  0  0
  191.0800  177.6100  144.6480 C   0  0  0  0  0  2  0  0  0  0  0  0
  192.5260  177.1500  144.5980 C   0  0  0  0  0  2  0  0  0  0  0  0
  192.7640  176.0580  145.6250 C   0  0  0  0  0  2  0  0  0  0  0  0
  195.0430  175.2990  146.2840 O   0  0  0  0  0  0  0  0  0  0  0  0
  194.0630  176.2810  146.3130 C   0  0  0  0  0  0  0  0  0  0  0  0
  194.2860  177.3750  146.8920 O   0  0  0  0  0  1  0  0  0  0  0  0
  1  4  1  0  0  0  0
  2 10  1  0  0  0  0
  3  5  2  0  0  0  0
  4 16  1  0  0  0  0
  4 11  2  0  0  0  0
  5 12  1  0  0  0  0
  6  2  2  0  0  0  0
  6  9  1  0  0  0  0
  7  2  1  0  0  0  0
  8 11  1  0  0  0  0
  8  3  1  0  0  0  0
  9 14  2  0  0  0  0
 10  1  2  0  0  0  0
 10 15  1  0  0  0  0
 11 13  1  0  0  0  0
 13 12  2  0  0  0  0
 14 15  1  0  0  0  0
 15  8  2  0  0  0  0
 16 24  1  6  0  0  0
 18 17  1  1  0  0  0
 18 21  1  0  0  0  0
 18 16  1  0  0  0  0
 19 21  2  0  0  0  0
 19 22  1  0  0  0  0
 21 20  1  0  0  0  0
 22 23  2  0  0  0  0
 23 20  1  0  0  0  0
 24 25  1  0  0  0  0
 26 25  1  0  0  0  0
 26 27  1  0  0  0  0
 27 29  1  0  0  0  0
 28 29  2  0  0  0  0
 29 30  1  0  0  0  0
M  END
>  <MODEL>
3

>  <REMARK>
 VINA RESULT:      -7.1      2.378      3.496
  Name = 
  8 active torsions:
  status: ('A' for Active; 'I' for Inactive)
    1  A    between atoms: C_4  and  C_13
    2  A    between atoms: C_7  and  C_15
    3  A    between atoms: C_7  and  C_16
    4  A    between atoms: C_8  and  C_12
    5  A    between atoms: C_8  and  C_13
    6  A    between atoms: C_13  and  O_27
    7  A    between atoms: C_16  and  C_30
    8  A    between atoms: O_27  and  C_30
                            x       y       z     vdW  Elec       q    Type
                         _______ _______ _______ _____ _____    ______ ____

>  <TORSDO>
F 8

$$$$
=
 OpenBabel11052417143D

 30 33  0  0  1  0  0  0  0  0999 V2000
  187.5120  176.9260  142.6270 C   0  0  0  0  0  3  0  0  0  0  0  0
  185.9170  177.6610  140.9420 C   0  0  0  0  0  0  0  0  0  0  0  0
  184.7390  177.7380  145.6940 C   0  0  0  0  0  3  0  0  0  0  0  0
  187.8660  176.6860  143.9550 C   0  0  0  0  0  0  0  0  0  0  0  0
  185.0820  177.5040  147.0270 C   0  0  0  0  0  3  0  0  0  0  0  0
  184.6540  178.1610  140.6150 C   0  0  0  0  0  3  0  0  0  0  0  0
  186.8460  177.3910  139.8960 N   0  0  0  0  0  1  0  0  0  0  0  0
  185.6530  177.4730  144.6590 C   0  0  0  0  0  0  0  0  0  0  0  0
  183.7230  178.4360  141.6170 C   0  0  0  0  0  3  0  0  0  0  0  0
  186.2540  177.4300  142.2890 C   0  0  0  0  0  0  0  0  0  0  0  0
  186.9380  176.9600  144.9850 C   0  0  0  0  0  0  0  0  0  0  0  0
  186.3430  177.0010  147.3460 C   0  0  0  0  0  3  0  0  0  0  0  0
  187.2630  176.7320  146.3310 C   0  0  0  0  0  3  0  0  0  0  0  0
  184.0490  178.2120  142.9560 C   0  0  0  0  0  3  0  0  0  0  0  0
  185.3120  177.7070  143.3100 C   0  0  0  0  0  0  0  0  0  0  0  0
  189.2500  176.1470  144.2120 C   0  0  1  0  0  3  0  0  0  0  0  0
  190.9480  176.0380  142.5180 O   0  0  0  0  0  1  0  0  0  0  0  0
  189.8070  175.3940  143.0010 C   0  0  1  0  0  3  0  0  0  0  0  0
  189.7650  173.3950  144.5060 N   0  0  0  0  0  0  0  0  0  0  0  0
  191.0980  172.9470  142.4390 S   0  0  0  0  0  0  0  0  0  0  0  0
  190.1420  173.9790  143.3520 C   0  0  0  0  0  0  0  0  0  0  0  0
  190.2440  172.1260  144.6190 C   0  0  0  0  0  3  0  0  0  0  0  0
  191.0240  171.6830  143.5510 C   0  0  0  0  0  3  0  0  0  0  0  0
  190.1150  177.1780  144.5940 O   0  0  0  0  0  0  0  0  0  0  0  0
  190.6100  176.7930  145.8440 C   0  0  0  0  0  2  0  0  0  0  0  0
  192.0940  176.4850  145.7430 C   0  0  0  0  0  2  0  0  0  0  0  0
  192.3820  175.1060  146.3100 C   0  0  0  0  0  2  0  0  0  0  0  0
  193.6050  173.0330  145.6680 O   0  0  0  0  0  1  0  0  0  0  0  0
  193.2370  174.3380  145.3670 C   0  0  0  0  0  0  0  0  0  0  0  0
  193.5990  174.8580  144.2810 O   0  0  0  0  0  0  0  0  0  0  0  0
  1  4  1  0  0  0  0
  2 10  1  0  0  0  0
  3  5  2  0  0  0  0
  4 16  1  0  0  0  0
  4 11  2  0  0  0  0
  5 12  1  0  0  0  0
  6  2  2  0  0  0  0
  6  9  1  0  0  0  0
  7  2  1  0  0  0  0
  8 11  1  0  0  0  0
  8  3  1  0  0  0  0
  9 14  2  0  0  0  0
 10  1  2  0  0  0  0
 10 15  1  0  0  0  0
 11 13  1  0  0  0  0
 13 12  2  0  0  0  0
 14 15  1  0  0  0  0
 15  8  2  0  0  0  0
 16 24  1  6  0  0  0
 18 17  1  1  0  0  0
 18 21  1  0  0  0  0
 18 16  1  0  0  0  0
 19 22  1  0  0  0  0
 20 21  1  0  0  0  0
 20 23  1  0  0  0  0
 21 19  2  0  0  0  0
 23 22  2  0  0  0  0
 24 25  1  0  0  0  0
 26 25  1  0  0  0  0
 26 27  1  0  0  0  0
 29 28  1  0  0  0  0
 29 27  1  0  0  0  0
 30 29  2  0  0  0  0
M  END
>  <MODEL>
4

>  <REMARK>
 VINA RESULT:      -7.1      2.378      3.654
  Name = 
  8 active torsions:
  status: ('A' for Active; 'I' for Inactive)
    1  A    between atoms: C_4  and  C_13
    2  A    between atoms: C_7  and  C_15
    3  A    between atoms: C_7  and  C_16
    4  A    between atoms: C_8  and  C_12
    5  A    between atoms: C_8  and  C_13
    6  A    between atoms: C_13  and  O_27
    7  A    between atoms: C_16  and  C_30
    8  A    between atoms: O_27  and  C_30
                            x       y       z     vdW  Elec       q    Type
                         _______ _______ _______ _____ _____    ______ ____

>  <TORSDO>
F 8

$$$$
=
 OpenBabel11052417143D

 30 33  0  0  1  0  0  0  0  0999 V2000
  187.0200  177.6370  142.7640 C   0  0  0  0  0  3  0  0  0  0  0  0
  185.4260  177.9160  140.9450 C   0  0  0  0  0  0  0  0  0  0  0  0
  184.0660  178.6560  145.5910 C   0  0  0  0  0  3  0  0  0  0  0  0
  187.3450  177.6580  144.1210 C   0  0  0  0  0  0  0  0  0  0  0  0
  184.3800  178.6820  146.9510 C   0  0  0  0  0  3  0  0  0  0  0  0
  184.1340  178.2220  140.5120 C   0  0  0  0  0  3  0  0  0  0  0  0
  186.4170  177.5730  139.9800 N   0  0  0  0  0  1  0  0  0  0  0  0
  185.0410  178.3190  144.6350 C   0  0  0  0  0  0  0  0  0  0  0  0
  183.1440  178.5620  141.4330 C   0  0  0  0  0  3  0  0  0  0  0  0
  185.7330  177.9460  142.3190 C   0  0  0  0  0  0  0  0  0  0  0  0
  186.3560  178.0020  145.0700 C   0  0  0  0  0  0  0  0  0  0  0  0
  185.6710  178.3710  147.3770 C   0  0  0  0  0  3  0  0  0  0  0  0
  186.6500  178.0340  146.4420 C   0  0  0  0  0  3  0  0  0  0  0  0
  183.4380  178.5970  142.7980 C   0  0  0  0  0  3  0  0  0  0  0  0
  184.7300  178.2900  143.2590 C   0  0  0  0  0  0  0  0  0  0  0  0
  188.7650  177.3140  144.4940 C   0  0  1  0  0  3  0  0  0  0  0  0
  189.1140  174.9550  144.2180 O   0  0  0  0  0  1  0  0  0  0  0  0
  188.8640  175.9440  145.1710 C   0  0  1  0  0  3  0  0  0  0  0  0
  190.7290  174.8580  146.4380 N   0  0  0  0  0  0  0  0  0  0  0  0
  190.2900  177.1720  147.2760 S   0  0  0  0  0  0  0  0  0  0  0  0
  189.9460  175.9290  146.2030 C   0  0  0  0  0  0  0  0  0  0  0  0
  191.5950  175.0710  147.4660 C   0  0  0  0  0  3  0  0  0  0  0  0
  191.5060  176.3230  148.0760 C   0  0  0  0  0  3  0  0  0  0  0  0
  189.5950  177.3710  143.3700 O   0  0  0  0  0  0  0  0  0  0  0  0
  190.5860  178.3020  143.6970 C   0  0  0  0  0  2  0  0  0  0  0  0
  191.9140  177.8830  143.0910 C   0  0  0  0  0  2  0  0  0  0  0  0
  192.2310  176.4470  143.4660 C   0  0  0  0  0  2  0  0  0  0  0  0
  194.5090  175.5580  143.9390 O   0  0  0  0  0  0  0  0  0  0  0  0
  193.4630  176.3990  144.2960 C   0  0  0  0  0  0  0  0  0  0  0  0
  193.5730  177.1460  145.3020 O   0  0  0  0  0  1  0  0  0  0  0  0
  1  4  1  0  0  0  0
  2 10  1  0  0  0  0
  3  5  2  0  0  0  0
  4 16  1  0  0  0  0
  4 11  2  0  0  0  0
  5 12  1  0  0  0  0
  6  2  2  0  0  0  0
  6  9  1  0  0  0  0
  7  2  1  0  0  0  0
  8 11  1  0  0  0  0
  8  3  1  0  0  0  0
  9 14  2  0  0  0  0
 10  1  2  0  0  0  0
 10 15  1  0  0  0  0
 11 13  1  0  0  0  0
 13 12  2  0  0  0  0
 14 15  1  0  0  0  0
 15  8  2  0  0  0  0
 16 24  1  6  0  0  0
 16 18  1  0  0  0  0
 18 17  1  6  0  0  0
 18 21  1  0  0  0  0
 19 22  1  0  0  0  0
 20 23  1  0  0  0  0
 21 19  2  0  0  0  0
 21 20  1  0  0  0  0
 22 23  2  0  0  0  0
 24 25  1  0  0  0  0
 26 27  1  0  0  0  0
 26 25  1  0  0  0  0
 27 29  1  0  0  0  0
 28 29  2  0  0  0  0
 29 30  1  0  0  0  0
M  END
>  <MODEL>
5

>  <REMARK>
 VINA RESULT:      -7.0      2.730      4.647
  Name = 
  8 active torsions:
  status: ('A' for Active; 'I' for Inactive)
    1  A    between atoms: C_4  and  C_13
    2  A    between atoms: C_7  and  C_15
    3  A    between atoms: C_7  and  C_16
    4  A    between atoms: C_8  and  C_12
    5  A    between atoms: C_8  and  C_13
    6  A    between atoms: C_13  and  O_27
    7  A    between atoms: C_16  and  C_30
    8  A    between atoms: O_27  and  C_30
                            x       y       z     vdW  Elec       q    Type
                         _______ _______ _______ _____ _____    ______ ____

>  <TORSDO>
F 8

$$$$
=
 OpenBabel11052417143D

 30 33  0  0  1  0  0  0  0  0999 V2000
  187.3660  176.6900  144.6620 C   0  0  0  0  0  3  0  0  0  0  0  0
  185.9380  177.4910  146.4640 C   0  0  0  0  0  0  0  0  0  0  0  0
  184.7830  178.3690  141.7860 C   0  0  0  0  0  3  0  0  0  0  0  0
  187.6690  176.5590  143.3060 C   0  0  0  0  0  0  0  0  0  0  0  0
  185.0750  178.2430  140.4270 C   0  0  0  0  0  3  0  0  0  0  0  0
  184.7940  178.1750  146.8800 C   0  0  0  0  0  3  0  0  0  0  0  0
  186.8040  176.9270  147.4450 N   0  0  0  0  0  1  0  0  0  0  0  0
  185.6350  177.8140  142.7580 C   0  0  0  0  0  0  0  0  0  0  0  0
  183.9270  178.7370  145.9430 C   0  0  0  0  0  3  0  0  0  0  0  0
  186.2220  177.3680  145.0900 C   0  0  0  0  0  0  0  0  0  0  0  0
  186.8020  177.1200  142.3410 C   0  0  0  0  0  0  0  0  0  0  0  0
  186.2210  177.5620  140.0180 C   0  0  0  0  0  3  0  0  0  0  0  0
  187.0770  177.0050  140.9690 C   0  0  0  0  0  3  0  0  0  0  0  0
  184.2000  178.6200  144.5790 C   0  0  0  0  0  3  0  0  0  0  0  0
  185.3460  177.9380  144.1340 C   0  0  0  0  0  0  0  0  0  0  0  0
  188.9240  175.8040  142.9510 C   0  0  1  0  0  3  0  0  0  0  0  0
  189.8250  178.0230  143.1220 O   0  0  0  0  0  1  0  0  0  0  0  0
  190.1770  176.6720  143.0970 C   0  0  1  0  0  3  0  0  0  0  0  0
  190.6530  176.8670  145.5460 N   0  0  0  0  0  0  0  0  0  0  0  0
  192.2660  175.3180  144.4290 S   0  0  0  0  0  0  0  0  0  0  0  0
  190.9290  176.3280  144.3430 C   0  0  0  0  0  0  0  0  0  0  0  0
  191.5170  176.4420  146.5090 C   0  0  0  0  0  3  0  0  0  0  0  0
  192.5070  175.5590  146.0790 C   0  0  0  0  0  3  0  0  0  0  0  0
  189.0340  174.6430  143.7240 O   0  0  0  0  0  0  0  0  0  0  0  0
  189.2380  173.6110  142.8030 C   0  0  0  0  0  2  0  0  0  0  0  0
  188.0620  173.5280  141.8450 C   0  0  0  0  0  2  0  0  0  0  0  0
  188.4480  172.7340  140.6100 C   0  0  0  0  0  2  0  0  0  0  0  0
  188.1920  174.4430  138.8170 O   0  0  0  0  0  0  0  0  0  0  0  0
  189.0260  173.6410  139.5830 C   0  0  0  0  0  0  0  0  0  0  0  0
  190.2730  173.7070  139.4340 O   0  0  0  0  0  1  0  0  0  0  0  0
  1 10  1  0  0  0  0
  2  6  1  0  0  0  0
  2  7  1  0  0  0  0
  3  8  1  0  0  0  0
  4  1  2  0  0  0  0
  5  3  2  0  0  0  0
  8 15  1  0  0  0  0
  9  6  2  0  0  0  0
 10  2  2  0  0  0  0
 11  8  2  0  0  0  0
 11  4  1  0  0  0  0
 12  5  1  0  0  0  0
 12 13  2  0  0  0  0
 13 11  1  0  0  0  0
 14  9  1  0  0  0  0
 15 14  2  0  0  0  0
 15 10  1  0  0  0  0
 16 18  1  0  0  0  0
 16  4  1  0  0  0  0
 16 24  1  1  0  0  0
 18 17  1  1  0  0  0
 18 21  1  0  0  0  0
 19 22  1  0  0  0  0
 20 23  1  0  0  0  0
 21 20  1  0  0  0  0
 21 19  2  0  0  0  0
 23 22  2  0  0  0  0
 25 24  1  0  0  0  0
 26 25  1  0  0  0  0
 27 26  1  0  0  0  0
 28 29  2  0  0  0  0
 29 27  1  0  0  0  0
 30 29  1  0  0  0  0
M  END
>  <MODEL>
6

>  <REMARK>
 VINA RESULT:      -6.9      2.595      5.078
  Name = 
  8 active torsions:
  status: ('A' for Active; 'I' for Inactive)
    1  A    between atoms: C_4  and  C_13
    2  A    between atoms: C_7  and  C_15
    3  A    between atoms: C_7  and  C_16
    4  A    between atoms: C_8  and  C_12
    5  A    between atoms: C_8  and  C_13
    6  A    between atoms: C_13  and  O_27
    7  A    between atoms: C_16  and  C_30
    8  A    between atoms: O_27  and  C_30
                            x       y       z     vdW  Elec       q    Type
                         _______ _______ _______ _____ _____    ______ ____

>  <TORSDO>
F 8

$$$$
=
 OpenBabel11052417143D

 30 33  0  0  1  0  0  0  0  0999 V2000
  187.6820  176.7080  143.4540 C   0  0  0  0  0  3  0  0  0  0  0  0
  186.4120  177.2350  141.4440 C   0  0  0  0  0  0  0  0  0  0  0  0
  184.6200  178.2930  145.8770 C   0  0  0  0  0  3  0  0  0  0  0  0
  187.8270  176.6960  144.8410 C   0  0  0  0  0  0  0  0  0  0  0  0
  184.7550  178.2870  147.2660 C   0  0  0  0  0  3  0  0  0  0  0  0
  185.2640  177.7610  140.8480 C   0  0  0  0  0  3  0  0  0  0  0  0
  187.4420  176.7030  140.6140 N   0  0  0  0  0  1  0  0  0  0  0  0
  185.6330  177.7690  145.0540 C   0  0  0  0  0  0  0  0  0  0  0  0
  184.2400  178.2900  141.6340 C   0  0  0  0  0  3  0  0  0  0  0  0
  186.5390  177.2360  142.8460 C   0  0  0  0  0  0  0  0  0  0  0  0
  186.8020  177.2290  145.6550 C   0  0  0  0  0  0  0  0  0  0  0  0
  185.9030  177.7570  147.8550 C   0  0  0  0  0  3  0  0  0  0  0  0
  186.9180  177.2330  147.0540 C   0  0  0  0  0  3  0  0  0  0  0  0
  184.3580  178.2960  143.0250 C   0  0  0  0  0  3  0  0  0  0  0  0
  185.5030  177.7710  143.6490 C   0  0  0  0  0  0  0  0  0  0  0  0
  189.1010  176.1090  145.3950 C   0  0  1  0  0  3  0  0  0  0  0  0
  190.2420  177.3810  147.0810 O   0  0  0  0  0  1  0  0  0  0  0  0
  190.1440  177.1870  145.7010 C   0  0  1  0  0  3  0  0  0  0  0  0
  192.5190  176.4330  145.9250 N   0  0  0  0  0  0  0  0  0  0  0  0
  191.9360  176.9000  143.5390 S   0  0  0  0  0  0  0  0  0  0  0  0
  191.4840  176.8140  145.1520 C   0  0  0  0  0  0  0  0  0  0  0  0
  193.6470  176.2070  145.1970 C   0  0  0  0  0  3  0  0  0  0  0  0
  193.5250  176.4160  143.8230 C   0  0  0  0  0  3  0  0  0  0  0  0
  188.8330  175.3420  146.5330 O   0  0  0  0  0  0  0  0  0  0  0  0
  189.5470  174.1540  146.3480 C   0  0  0  0  0  2  0  0  0  0  0  0
  189.6440  173.8310  144.8670 C   0  0  0  0  0  2  0  0  0  0  0  0
  189.6930  172.3280  144.6600 C   0  0  0  0  0  2  0  0  0  0  0  0
  188.2360  172.2890  142.6400 O   0  0  0  0  0  1  0  0  0  0  0  0
  189.4610  172.0040  143.2280 C   0  0  0  0  0  0  0  0  0  0  0  0
  190.3880  171.5040  142.5390 O   0  0  0  0  0  0  0  0  0  0  0  0
  1  4  1  0  0  0  0
  2 10  1  0  0  0  0
  3  5  2  0  0  0  0
  4 16  1  0  0  0  0
  4 11  2  0  0  0  0
  5 12  1  0  0  0  0
  6  2  2  0  0  0  0
  6  9  1  0  0  0  0
  7  2  1  0  0  0  0
  8 11  1  0  0  0  0
  8  3  1  0  0  0  0
  9 14  2  0  0  0  0
 10  1  2  0  0  0  0
 10 15  1  0  0  0  0
 11 13  1  0  0  0  0
 13 12  2  0  0  0  0
 14 15  1  0  0  0  0
 15  8  2  0  0  0  0
 16 18  1  0  0  0  0
 16 24  1  1  0  0  0
 18 17  1  1  0  0  0
 20 23  1  0  0  0  0
 20 21  1  0  0  0  0
 21 18  1  0  0  0  0
 21 19  2  0  0  0  0
 22 19  1  0  0  0  0
 23 22  2  0  0  0  0
 25 24  1  0  0  0  0
 26 25  1  0  0  0  0
 27 26  1  0  0  0  0
 28 29  1  0  0  0  0
 29 27  1  0  0  0  0
 30 29  2  0  0  0  0
M  END
>  <MODEL>
7

>  <REMARK>
 VINA RESULT:      -6.8      2.899      5.035
  Name = 
  8 active torsions:
  status: ('A' for Active; 'I' for Inactive)
    1  A    between atoms: C_4  and  C_13
    2  A    between atoms: C_7  and  C_15
    3  A    between atoms: C_7  and  C_16
    4  A    between atoms: C_8  and  C_12
    5  A    between atoms: C_8  and  C_13
    6  A    between atoms: C_13  and  O_27
    7  A    between atoms: C_16  and  C_30
    8  A    between atoms: O_27  and  C_30
                            x       y       z     vdW  Elec       q    Type
                         _______ _______ _______ _____ _____    ______ ____

>  <TORSDO>
F 8

$$$$
=
 OpenBabel11052417143D

 30 33  0  0  1  0  0  0  0  0999 V2000
  188.3600  175.9230  142.2480 C   0  0  0  0  0  3  0  0  0  0  0  0
  186.9230  177.8780  142.0610 C   0  0  0  0  0  0  0  0  0  0  0  0
  188.1800  176.1160  146.4540 C   0  0  0  0  0  3  0  0  0  0  0  0
  189.0470  174.9770  143.0100 C   0  0  0  0  0  0  0  0  0  0  0  0
  188.8640  175.1760  147.2260 C   0  0  0  0  0  3  0  0  0  0  0  0
  186.1720  178.8850  142.6740 C   0  0  0  0  0  3  0  0  0  0  0  0
  186.9770  177.8230  140.6380 N   0  0  0  0  0  1  0  0  0  0  0  0
  188.2310  176.0650  145.0490 C   0  0  0  0  0  0  0  0  0  0  0  0
  186.1010  178.9650  144.0640 C   0  0  0  0  0  3  0  0  0  0  0  0
  187.6110  176.9360  142.8500 C   0  0  0  0  0  0  0  0  0  0  0  0
  188.9890  175.0420  144.4200 C   0  0  0  0  0  0  0  0  0  0  0  0
  189.6090  174.1720  146.6080 C   0  0  0  0  0  3  0  0  0  0  0  0
  189.6700  174.1060  145.2160 C   0  0  0  0  0  3  0  0  0  0  0  0
  186.7810  178.0350  144.8550 C   0  0  0  0  0  3  0  0  0  0  0  0
  187.5410  177.0120  144.2630 C   0  0  0  0  0  0  0  0  0  0  0  0
  189.8310  173.9280  142.2620 C   0  0  1  0  0  3  0  0  0  0  0  0
  187.6010  173.0720  142.0220 O   0  0  0  0  0  1  0  0  0  0  0  0
  188.9180  172.8980  141.5910 C   0  0  1  0  0  3  0  0  0  0  0  0
  188.2510  173.9070  139.4010 N   0  0  0  0  0  0  0  0  0  0  0  0
  189.8540  172.0160  139.0780 S   0  0  0  0  0  0  0  0  0  0  0  0
  188.9770  173.0140  140.1020 C   0  0  0  0  0  0  0  0  0  0  0  0
  188.4310  173.7740  138.0580 C   0  0  0  0  0  3  0  0  0  0  0  0
  189.3030  172.7570  137.6690 C   0  0  0  0  0  3  0  0  0  0  0  0
  190.6770  174.5260  141.3220 O   0  0  0  0  0  0  0  0  0  0  0  0
  191.9540  174.4600  141.8860 C   0  0  0  0  0  2  0  0  0  0  0  0
  192.3770  175.8320  142.3800 C   0  0  0  0  0  2  0  0  0  0  0  0
  192.7510  175.7690  143.8500 C   0  0  0  0  0  2  0  0  0  0  0  0
  191.2560  177.7590  143.9350 O   0  0  0  0  0  0  0  0  0  0  0  0
  191.9980  176.7990  144.6110 C   0  0  0  0  0  0  0  0  0  0  0  0
  192.0030  176.7810  145.8680 O   0  0  0  0  0  1  0  0  0  0  0  0
  1 10  2  0  0  0  0
  1  4  1  0  0  0  0
  2  6  2  0  0  0  0
  2 10  1  0  0  0  0
  3  5  2  0  0  0  0
  4 11  2  0  0  0  0
  6  9  1  0  0  0  0
  7  2  1  0  0  0  0
  8  3  1  0  0  0  0
  9 14  2  0  0  0  0
 10 15  1  0  0  0  0
 11  8  1  0  0  0  0
 11 13  1  0  0  0  0
 12  5  1  0  0  0  0
 13 12  2  0  0  0  0
 15 14  1  0  0  0  0
 15  8  2  0  0  0  0
 16 24  1  6  0  0  0
 16  4  1  0  0  0  0
 18 17  1  1  0  0  0
 18 16  1  0  0  0  0
 19 21  2  0  0  0  0
 20 21  1  0  0  0  0
 21 18  1  0  0  0  0
 22 19  1  0  0  0  0
 23 22  2  0  0  0  0
 23 20  1  0  0  0  0
 24 25  1  0  0  0  0
 25 26  1  0  0  0  0
 26 27  1  0  0  0  0
 27 29  1  0  0  0  0
 28 29  2  0  0  0  0
 29 30  1  0  0  0  0
M  END
>  <MODEL>
8

>  <REMARK>
 VINA RESULT:      -6.7      2.001      2.694
  Name = 
  8 active torsions:
  status: ('A' for Active; 'I' for Inactive)
    1  A    between atoms: C_4  and  C_13
    2  A    between atoms: C_7  and  C_15
    3  A    between atoms: C_7  and  C_16
    4  A    between atoms: C_8  and  C_12
    5  A    between atoms: C_8  and  C_13
    6  A    between atoms: C_13  and  O_27
    7  A    between atoms: C_16  and  C_30
    8  A    between atoms: O_27  and  C_30
                            x       y       z     vdW  Elec       q    Type
                         _______ _______ _______ _____ _____    ______ ____

>  <TORSDO>
F 8

$$$$
=
 OpenBabel11052417143D

 30 33  0  0  1  0  0  0  0  0999 V2000
  188.1440  176.4850  142.7230 C   0  0  0  0  0  3  0  0  0  0  0  0
  186.4250  178.2070  142.6330 C   0  0  0  0  0  0  0  0  0  0  0  0
  187.7790  176.2530  146.9140 C   0  0  0  0  0  3  0  0  0  0  0  0
  188.9420  175.5880  143.4340 C   0  0  0  0  0  0  0  0  0  0  0  0
  188.5730  175.3600  147.6370 C   0  0  0  0  0  3  0  0  0  0  0  0
  185.5030  179.0240  143.2910 C   0  0  0  0  0  3  0  0  0  0  0  0
  186.5400  178.2940  141.2150 N   0  0  0  0  0  1  0  0  0  0  0  0
  187.8890  176.3430  145.5150 C   0  0  0  0  0  0  0  0  0  0  0  0
  185.3690  178.9610  144.6780 C   0  0  0  0  0  3  0  0  0  0  0  0
  187.2220  177.3110  143.3710 C   0  0  0  0  0  0  0  0  0  0  0  0
  188.8220  175.5110  144.8400 C   0  0  0  0  0  0  0  0  0  0  0  0
  189.4880  174.5440  146.9730 C   0  0  0  0  0  3  0  0  0  0  0  0
  189.6110  174.6200  145.5850 C   0  0  0  0  0  3  0  0  0  0  0  0
  186.1560  178.0770  145.4180 C   0  0  0  0  0  3  0  0  0  0  0  0
  187.0890  177.2420  144.7800 C   0  0  0  0  0  0  0  0  0  0  0  0
  189.9090  174.7470  142.6390 C   0  0  1  0  0  3  0  0  0  0  0  0
  189.2200  174.4750  140.3550 O   0  0  0  0  0  1  0  0  0  0  0  0
  189.1930  173.8660  141.6120 C   0  0  1  0  0  3  0  0  0  0  0  0
  189.9210  171.8150  140.3780 N   0  0  0  0  0  0  0  0  0  0  0  0
  190.4170  171.6280  142.8220 S   0  0  0  0  0  0  0  0  0  0  0  0
  189.8260  172.5140  141.5260 C   0  0  0  0  0  0  0  0  0  0  0  0
  190.4800  170.5880  140.5710 C   0  0  0  0  0  3  0  0  0  0  0  0
  190.8320  170.2890  141.8870 C   0  0  0  0  0  3  0  0  0  0  0  0
  190.8650  175.5560  142.0160 O   0  0  0  0  0  0  0  0  0  0  0  0
  192.0190  175.4210  142.7950 C   0  0  0  0  0  2  0  0  0  0  0  0
  192.3300  176.7320  143.4940 C   0  0  0  0  0  2  0  0  0  0  0  0
  192.7220  176.4750  144.9390 C   0  0  0  0  0  2  0  0  0  0  0  0
  194.5660  177.5190  146.2470 O   0  0  0  0  0  1  0  0  0  0  0  0
  194.1610  176.7890  145.1380 C   0  0  0  0  0  0  0  0  0  0  0  0
  195.0170  176.3630  144.3210 O   0  0  0  0  0  0  0  0  0  0  0  0
  1 10  2  0  0  0  0
  1  4  1  0  0  0  0
  2  6  2  0  0  0  0
  2 10  1  0  0  0  0
  3  5  2  0  0  0  0
  4 11  2  0  0  0  0
  6  9  1  0  0  0  0
  7  2  1  0  0  0  0
  8  3  1  0  0  0  0
  9 14  2  0  0  0  0
 10 15  1  0  0  0  0
 11  8  1  0  0  0  0
 11 13  1  0  0  0  0
 12  5  1  0  0  0  0
 13 12  2  0  0  0  0
 15 14  1  0  0  0  0
 15  8  2  0  0  0  0
 16 24  1  6  0  0  0
 16  4  1  0  0  0  0
 18 17  1  6  0  0  0
 18 16  1  0  0  0  0
 19 22  1  0  0  0  0
 19 21  2  0  0  0  0
 21 18  1  0  0  0  0
 21 20  1  0  0  0  0
 22 23  2  0  0  0  0
 23 20  1  0  0  0  0
 24 25  1  0  0  0  0
 25 26  1  0  0  0  0
 26 27  1  0  0  0  0
 27 29  1  0  0  0  0
 29 28  1  0  0  0  0
 30 29  2  0  0  0  0
M  END
>  <MODEL>
9

>  <REMARK>
 VINA RESULT:      -6.7      1.830      2.286
  Name = 
  8 active torsions:
  status: ('A' for Active; 'I' for Inactive)
    1  A    between atoms: C_4  and  C_13
    2  A    between atoms: C_7  and  C_15
    3  A    between atoms: C_7  and  C_16
    4  A    between atoms: C_8  and  C_12
    5  A    between atoms: C_8  and  C_13
    6  A    between atoms: C_13  and  O_27
    7  A    between atoms: C_16  and  C_30
    8  A    between atoms: O_27  and  C_30
                            x       y       z     vdW  Elec       q    Type
                         _______ _______ _______ _____ _____    ______ ____

>  <TORSDO>
F 8

$$$$
