=
 OpenBabel11052420213D

 34 36  0  0  1  0  0  0  0  0999 V2000
  190.1280  176.6290  144.0840 N   0  0  0  0  0  2  0  0  0  0  0  0
  191.4180  178.5640  143.8560 O   0  0  0  0  0  0  0  0  0  0  0  0
  191.3730  177.3370  144.1450 C   0  0  0  0  0  0  0  0  0  0  0  0
  193.4060  176.4810  142.3410 O   0  0  0  0  0  1  0  0  0  0  0  0
  195.9180  174.2520  145.9850 C   0  0  0  0  0  2  0  0  0  0  0  0
  193.8660  175.5840  146.4070 C   0  0  0  0  0  3  0  0  0  0  0  0
  193.5570  176.2040  143.6970 C   0  0  0  0  0  0  0  0  0  0  0  0
  192.7760  176.3580  146.0050 C   0  0  0  0  0  0  0  0  0  0  0  0
  192.5940  176.6520  144.6290 C   0  0  0  0  0  0  0  0  0  0  0  0
  197.0940  174.1790  145.0120 C   0  0  0  0  0  2  0  0  0  0  0  0
  196.6110  173.9070  143.5890 C   0  0  2  0  0  3  0  0  0  0  0  0
  194.8140  175.1400  145.4890 C   0  0  0  0  0  0  0  0  0  0  0  0
  195.7110  175.0470  143.1130 C   0  0  0  0  0  2  0  0  0  0  0  0
  194.6620  175.4480  144.1220 C   0  0  0  0  0  0  0  0  0  0  0  0
  191.9140  176.8140  147.0080 O   0  0  0  0  0  0  0  0  0  0  0  0
  191.0210  175.9560  147.7030 C   0  0  0  0  0  1  0  0  0  0  0  0
  195.9020  172.6380  143.5100 N   0  0  0  0  0  2  0  0  0  0  0  0
  196.8880  171.5820  143.6790 C   0  0  0  0  0  2  0  0  0  0  0  0
  196.8170  170.6080  145.9690 C   0  0  0  0  0  1  0  0  0  0  0  0
  196.3180  170.4730  144.5440 C   0  0  0  0  0  2  0  0  0  0  0  0
  188.0220  177.9150  145.5340 F   0  0  0  0  0  0  0  0  0  0  0  0
  187.6660  177.4530  141.4270 C   0  0  0  0  0  3  0  0  0  0  0  0
  186.7370  178.1810  143.5500 C   0  0  0  0  0  0  0  0  0  0  0  0
  188.9220  177.0950  143.4650 C   0  0  0  0  0  0  0  0  0  0  0  0
  186.6080  178.0130  142.1470 C   0  0  0  0  0  0  0  0  0  0  0  0
  188.8160  177.0100  142.0770 C   0  0  0  0  0  3  0  0  0  0  0  0
  187.8840  177.6980  144.2010 C   0  0  0  0  0  0  0  0  0  0  0  0
  185.3910  178.3290  141.3820 C   0  0  0  0  0  3  0  0  0  0  0  0
  185.1890  177.8830  140.2220 O   0  0  0  0  0  0  0  0  0  0  0  0
  185.7620  178.8760  144.3350 N   0  0  0  0  0  2  0  0  0  0  0  0
  184.5560  178.2360  144.8360 C   0  0  0  0  0  2  0  0  0  0  0  0
  185.0050  176.5500  146.4540 O   0  0  0  0  0  0  0  0  0  0  0  0
  184.7820  177.7680  146.2290 C   0  0  0  0  0  0  0  0  0  0  0  0
  184.7100  178.6670  147.2840 O   0  0  0  0  0  1  0  0  0  0  0  0
  1  3  1  0  0  0  0
  2  3  2  0  0  0  0
  3  9  1  0  0  0  0
  4  7  1  0  0  0  0
  7 14  2  0  0  0  0
  7  9  1  0  0  0  0
  8  6  1  0  0  0  0
  8 15  1  0  0  0  0
  9  8  2  0  0  0  0
 10  5  1  0  0  0  0
 11 17  1  1  0  0  0
 11 10  1  0  0  0  0
 12  5  1  0  0  0  0
 12  6  2  0  0  0  0
 13 11  1  0  0  0  0
 13 14  1  0  0  0  0
 14 12  1  0  0  0  0
 15 16  1  0  0  0  0
 17 18  1  0  0  0  0
 18 20  1  0  0  0  0
 20 19  1  0  0  0  0
 22 26  2  0  0  0  0
 22 25  1  0  0  0  0
 23 27  1  0  0  0  0
 23 30  1  0  0  0  0
 24  1  1  0  0  0  0
 24 27  2  0  0  0  0
 25 23  2  0  0  0  0
 26 24  1  0  0  0  0
 27 21  1  0  0  0  0
 28 25  1  0  0  0  0
 29 28  2  0  0  0  0
 30 31  1  0  0  0  0
 31 33  1  0  0  0  0
 33 32  2  0  0  0  0
 33 34  1  0  0  0  0
M  END
>  <MODEL>
1

>  <REMARK>
 VINA RESULT:      -7.0      0.000      0.000
  Name = 
  10 active torsions:
  status: ('A' for Active; 'I' for Inactive)
    1  A    between atoms: C_7  and  N_14
    2  A    between atoms: C_7  and  C_15
    3  A    between atoms: N_8  and  C_18
    4  A    between atoms: O_12  and  C_19
    5  A    between atoms: C_13  and  C_24
    6  A    between atoms: N_14  and  C_16
    7  A    between atoms: C_17  and  C_20
    8  A    between atoms: C_24  and  N_25
    9  A    between atoms: N_25  and  C_27
   10  A    between atoms: C_26  and  C_28
                            x       y       z     vdW  Elec       q    Type
                         _______ _______ _______ _____ _____    ______ ____

>  <TORSDO>
F 10

$$$$
=
 OpenBabel11052420213D

 34 36  0  0  1  0  0  0  0  0999 V2000
  189.6090  175.7610  145.8340 N   0  0  0  0  0  2  0  0  0  0  0  0
  190.7950  176.6670  144.0350 O   0  0  0  0  0  0  0  0  0  0  0  0
  190.7150  175.7740  144.9220 C   0  0  0  0  0  0  0  0  0  0  0  0
  193.3180  176.5670  145.7720 O   0  0  0  0  0  1  0  0  0  0  0  0
  195.1130  172.0040  145.0520 C   0  0  0  0  0  2  0  0  0  0  0  0
  192.7070  172.5470  144.7620 C   0  0  0  0  0  3  0  0  0  0  0  0
  193.0980  175.2290  145.4510 C   0  0  0  0  0  0  0  0  0  0  0  0
  191.6170  173.4190  144.7520 C   0  0  0  0  0  0  0  0  0  0  0  0
  191.8110  174.7880  145.0700 C   0  0  0  0  0  0  0  0  0  0  0  0
  196.3300  172.4490  145.8610 C   0  0  0  0  0  2  0  0  0  0  0  0
  196.6820  173.9060  145.5620 C   0  0  2  0  0  3  0  0  0  0  0  0
  193.9760  172.9820  145.1360 C   0  0  0  0  0  0  0  0  0  0  0  0
  195.5250  174.8190  145.9630 C   0  0  0  0  0  2  0  0  0  0  0  0
  194.1790  174.3330  145.4820 C   0  0  0  0  0  0  0  0  0  0  0  0
  190.3700  172.8750  144.4280 O   0  0  0  0  0  0  0  0  0  0  0  0
  189.8830  172.8070  143.0960 C   0  0  0  0  0  1  0  0  0  0  0  0
  197.0060  174.0880  144.1540 N   0  0  0  0  0  2  0  0  0  0  0  0
  196.8520  175.5030  143.8560 C   0  0  0  0  0  2  0  0  0  0  0  0
  195.1020  175.1010  142.1310 C   0  0  0  0  0  1  0  0  0  0  0  0
  196.4750  175.6880  142.3980 C   0  0  0  0  0  2  0  0  0  0  0  0
  187.8880  175.5760  143.5540 F   0  0  0  0  0  0  0  0  0  0  0  0
  186.8190  178.0540  146.7050 C   0  0  0  0  0  3  0  0  0  0  0  0
  186.3800  177.1620  144.4890 C   0  0  0  0  0  0  0  0  0  0  0  0
  188.3990  176.5180  145.7020 C   0  0  0  0  0  0  0  0  0  0  0  0
  186.0190  178.0180  145.5600 C   0  0  0  0  0  0  0  0  0  0  0  0
  187.9900  177.3020  146.7810 C   0  0  0  0  0  3  0  0  0  0  0  0
  187.5810  176.4350  144.5590 C   0  0  0  0  0  0  0  0  0  0  0  0
  184.8760  178.9450  145.5320 C   0  0  0  0  0  3  0  0  0  0  0  0
  183.7710  178.6680  146.0680 O   0  0  0  0  0  0  0  0  0  0  0  0
  185.5390  176.9590  143.3470 N   0  0  0  0  0  2  0  0  0  0  0  0
  185.6880  177.7210  142.1170 C   0  0  0  0  0  2  0  0  0  0  0  0
  183.3930  178.2510  142.4510 O   0  0  0  0  0  1  0  0  0  0  0  0
  184.3520  178.1670  141.6420 C   0  0  0  0  0  0  0  0  0  0  0  0
  184.1530  178.4510  140.2970 O   0  0  0  0  0  0  0  0  0  0  0  0
  2  3  2  0  0  0  0
  3  9  1  0  0  0  0
  3  1  1  0  0  0  0
  5 12  1  0  0  0  0
  5 10  1  0  0  0  0
  6 12  1  0  0  0  0
  7 14  1  0  0  0  0
  7  4  1  0  0  0  0
  8  6  2  0  0  0  0
  8  9  1  0  0  0  0
  9  7  2  0  0  0  0
 11 17  1  6  0  0  0
 11 10  1  0  0  0  0
 11 13  1  0  0  0  0
 12 14  2  0  0  0  0
 14 13  1  0  0  0  0
 15  8  1  0  0  0  0
 16 15  1  0  0  0  0
 18 17  1  0  0  0  0
 19 20  1  0  0  0  0
 20 18  1  0  0  0  0
 21 27  1  0  0  0  0
 22 26  1  0  0  0  0
 23 27  2  0  0  0  0
 23 25  1  0  0  0  0
 24  1  1  0  0  0  0
 24 26  2  0  0  0  0
 25 22  2  0  0  0  0
 27 24  1  0  0  0  0
 28 25  1  0  0  0  0
 28 29  2  0  0  0  0
 30 23  1  0  0  0  0
 31 30  1  0  0  0  0
 33 31  1  0  0  0  0
 33 32  1  0  0  0  0
 34 33  2  0  0  0  0
M  END
>  <MODEL>
2

>  <REMARK>
 VINA RESULT:      -6.7      2.185      3.747
  Name = 
  10 active torsions:
  status: ('A' for Active; 'I' for Inactive)
    1  A    between atoms: C_7  and  N_14
    2  A    between atoms: C_7  and  C_15
    3  A    between atoms: N_8  and  C_18
    4  A    between atoms: O_12  and  C_19
    5  A    between atoms: C_13  and  C_24
    6  A    between atoms: N_14  and  C_16
    7  A    between atoms: C_17  and  C_20
    8  A    between atoms: C_24  and  N_25
    9  A    between atoms: N_25  and  C_27
   10  A    between atoms: C_26  and  C_28
                            x       y       z     vdW  Elec       q    Type
                         _______ _______ _______ _____ _____    ______ ____

>  <TORSDO>
F 10

$$$$
=
 OpenBabel11052420213D

 34 36  0  0  1  0  0  0  0  0999 V2000
  189.1640  177.2100  143.4350 N   0  0  0  0  0  2  0  0  0  0  0  0
  188.8640  174.9550  143.9710 O   0  0  0  0  0  0  0  0  0  0  0  0
  189.6170  175.9660  143.9850 C   0  0  0  0  0  0  0  0  0  0  0  0
  191.8150  175.5420  142.2210 O   0  0  0  0  0  1  0  0  0  0  0  0
  194.9610  175.0140  146.0130 C   0  0  0  0  0  2  0  0  0  0  0  0
  192.5740  175.6170  146.3390 C   0  0  0  0  0  3  0  0  0  0  0  0
  192.0580  175.5870  143.5910 C   0  0  0  0  0  0  0  0  0  0  0  0
  191.2810  175.8850  145.8860 C   0  0  0  0  0  0  0  0  0  0  0  0
  191.0030  175.8420  144.4950 C   0  0  0  0  0  0  0  0  0  0  0  0
  196.0840  175.1710  144.9900 C   0  0  0  0  0  2  0  0  0  0  0  0
  195.7200  174.4950  143.6700 C   0  0  2  0  0  3  0  0  0  0  0  0
  193.6140  175.3650  145.4490 C   0  0  0  0  0  0  0  0  0  0  0  0
  194.4780  175.1500  143.0690 C   0  0  0  0  0  2  0  0  0  0  0  0
  193.3590  175.3460  144.0630 C   0  0  0  0  0  0  0  0  0  0  0  0
  190.3180  176.1940  146.8520 O   0  0  0  0  0  0  0  0  0  0  0  0
  189.8850  177.5210  147.1100 C   0  0  0  0  0  1  0  0  0  0  0  0
  195.4980  173.0680  143.8560 N   0  0  0  0  0  2  0  0  0  0  0  0
  196.7920  172.4620  144.1320 C   0  0  0  0  0  2  0  0  0  0  0  0
  195.2570  171.2570  145.6780 C   0  0  0  0  0  1  0  0  0  0  0  0
  196.7040  171.5930  145.3720 C   0  0  0  0  0  2  0  0  0  0  0  0
  187.3880  178.6220  145.1800 F   0  0  0  0  0  0  0  0  0  0  0  0
  186.0730  177.5330  141.4000 C   0  0  0  0  0  3  0  0  0  0  0  0
  185.6400  178.5390  143.5680 C   0  0  0  0  0  0  0  0  0  0  0  0
  187.8120  177.5340  143.0840 C   0  0  0  0  0  0  0  0  0  0  0  0
  185.1860  178.1570  142.2800 C   0  0  0  0  0  0  0  0  0  0  0  0
  187.3770  177.2360  141.7920 C   0  0  0  0  0  3  0  0  0  0  0  0
  186.9450  178.2030  143.9680 C   0  0  0  0  0  0  0  0  0  0  0  0
  183.7980  178.3100  141.8110 C   0  0  0  0  0  3  0  0  0  0  0  0
  183.5000  178.3390  140.5890 O   0  0  0  0  0  0  0  0  0  0  0  0
  184.8390  179.3090  144.4710 N   0  0  0  0  0  2  0  0  0  0  0  0
  183.8840  178.7020  145.3860 C   0  0  0  0  0  2  0  0  0  0  0  0
  184.7450  176.7720  146.4790 O   0  0  0  0  0  0  0  0  0  0  0  0
  184.6130  178.0230  146.4890 C   0  0  0  0  0  0  0  0  0  0  0  0
  185.1150  178.7650  147.5500 O   0  0  0  0  0  1  0  0  0  0  0  0
  1  3  1  0  0  0  0
  2  3  2  0  0  0  0
  3  9  1  0  0  0  0
  4  7  1  0  0  0  0
  7 14  2  0  0  0  0
  7  9  1  0  0  0  0
  8  6  1  0  0  0  0
  8 15  1  0  0  0  0
  9  8  2  0  0  0  0
 10  5  1  0  0  0  0
 11 17  1  1  0  0  0
 11 10  1  0  0  0  0
 12  5  1  0  0  0  0
 12  6  2  0  0  0  0
 13 11  1  0  0  0  0
 13 14  1  0  0  0  0
 14 12  1  0  0  0  0
 15 16  1  0  0  0  0
 17 18  1  0  0  0  0
 18 20  1  0  0  0  0
 20 19  1  0  0  0  0
 22 26  2  0  0  0  0
 22 25  1  0  0  0  0
 23 27  1  0  0  0  0
 23 30  1  0  0  0  0
 24  1  1  0  0  0  0
 24 27  2  0  0  0  0
 25 23  2  0  0  0  0
 26 24  1  0  0  0  0
 27 21  1  0  0  0  0
 28 25  1  0  0  0  0
 29 28  2  0  0  0  0
 30 31  1  0  0  0  0
 31 33  1  0  0  0  0
 32 33  2  0  0  0  0
 33 34  1  0  0  0  0
M  END
>  <MODEL>
3

>  <REMARK>
 VINA RESULT:      -6.7      1.416      1.562
  Name = 
  10 active torsions:
  status: ('A' for Active; 'I' for Inactive)
    1  A    between atoms: C_7  and  N_14
    2  A    between atoms: C_7  and  C_15
    3  A    between atoms: N_8  and  C_18
    4  A    between atoms: O_12  and  C_19
    5  A    between atoms: C_13  and  C_24
    6  A    between atoms: N_14  and  C_16
    7  A    between atoms: C_17  and  C_20
    8  A    between atoms: C_24  and  N_25
    9  A    between atoms: N_25  and  C_27
   10  A    between atoms: C_26  and  C_28
                            x       y       z     vdW  Elec       q    Type
                         _______ _______ _______ _____ _____    ______ ____

>  <TORSDO>
F 10

$$$$
=
 OpenBabel11052420213D

 34 36  0  0  1  0  0  0  0  0999 V2000
  192.2630  175.6930  143.7670 N   0  0  0  0  0  2  0  0  0  0  0  0
  192.0240  178.0180  143.8080 O   0  0  0  0  0  0  0  0  0  0  0  0
  191.5830  176.8910  144.1640 C   0  0  0  0  0  0  0  0  0  0  0  0
  189.0590  176.9340  142.8390 O   0  0  0  0  0  1  0  0  0  0  0  0
  186.6200  177.0310  147.1510 C   0  0  0  0  0  2  0  0  0  0  0  0
  189.0910  176.8150  147.0260 C   0  0  0  0  0  3  0  0  0  0  0  0
  189.0820  176.8760  144.2300 C   0  0  0  0  0  0  0  0  0  0  0  0
  190.3040  176.7450  146.3390 C   0  0  0  0  0  0  0  0  0  0  0  0
  190.3120  176.8060  144.9220 C   0  0  0  0  0  0  0  0  0  0  0  0
  185.3670  176.6820  146.3510 C   0  0  0  0  0  2  0  0  0  0  0  0
  185.3710  177.3830  144.9930 C   0  0  2  0  0  3  0  0  0  0  0  0
  187.8780  176.8860  146.3440 C   0  0  0  0  0  0  0  0  0  0  0  0
  186.5700  176.9190  144.1670 C   0  0  0  0  0  2  0  0  0  0  0  0
  187.8690  176.9190  144.9350 C   0  0  0  0  0  0  0  0  0  0  0  0
  191.4640  176.6080  147.1080 O   0  0  0  0  0  0  0  0  0  0  0  0
  191.9910  175.3450  147.4880 C   0  0  0  0  0  1  0  0  0  0  0  0
  185.3960  178.8300  145.1520 N   0  0  0  0  0  2  0  0  0  0  0  0
  184.9730  179.4100  143.8870 C   0  0  0  0  0  2  0  0  0  0  0  0
  183.7950  178.2760  142.0090 C   0  0  0  0  0  1  0  0  0  0  0  0
  183.6710  178.7760  143.4360 C   0  0  0  0  0  2  0  0  0  0  0  0
  194.5950  175.0980  145.3170 F   0  0  0  0  0  0  0  0  0  0  0  0
  194.9730  175.6710  141.2260 C   0  0  0  0  0  3  0  0  0  0  0  0
  195.9860  175.2470  143.3930 C   0  0  0  0  0  0  0  0  0  0  0  0
  193.5800  175.6180  143.2060 C   0  0  0  0  0  0  0  0  0  0  0  0
  196.1180  175.4540  141.9960 C   0  0  0  0  0  0  0  0  0  0  0  0
  193.7150  175.7400  141.8220 C   0  0  0  0  0  3  0  0  0  0  0  0
  194.7190  175.3540  143.9900 C   0  0  0  0  0  0  0  0  0  0  0  0
  197.4060  175.5260  141.2860 C   0  0  0  0  0  3  0  0  0  0  0  0
  197.4900  175.8490  140.0720 O   0  0  0  0  0  0  0  0  0  0  0  0
  197.0910  174.8750  144.2250 N   0  0  0  0  0  2  0  0  0  0  0  0
  197.5530  173.5020  144.3470 C   0  0  0  0  0  2  0  0  0  0  0  0
  197.0680  173.6990  146.6680 O   0  0  0  0  0  1  0  0  0  0  0  0
  197.1300  172.9480  145.6610 C   0  0  0  0  0  0  0  0  0  0  0  0
  196.8420  171.5960  145.7840 O   0  0  0  0  0  0  0  0  0  0  0  0
  1  3  1  0  0  0  0
  2  3  2  0  0  0  0
  3  9  1  0  0  0  0
  4  7  1  0  0  0  0
  7  9  2  0  0  0  0
  7 14  1  0  0  0  0
  8  6  2  0  0  0  0
  8 15  1  0  0  0  0
  9  8  1  0  0  0  0
 10  5  1  0  0  0  0
 11 17  1  1  0  0  0
 11 10  1  0  0  0  0
 12  6  1  0  0  0  0
 12  5  1  0  0  0  0
 13 14  1  0  0  0  0
 13 11  1  0  0  0  0
 14 12  2  0  0  0  0
 15 16  1  0  0  0  0
 18 17  1  0  0  0  0
 19 20  1  0  0  0  0
 20 18  1  0  0  0  0
 22 26  2  0  0  0  0
 22 25  1  0  0  0  0
 23 27  1  0  0  0  0
 23 30  1  0  0  0  0
 24  1  1  0  0  0  0
 24 27  2  0  0  0  0
 25 23  2  0  0  0  0
 26 24  1  0  0  0  0
 27 21  1  0  0  0  0
 28 25  1  0  0  0  0
 29 28  2  0  0  0  0
 30 31  1  0  0  0  0
 31 33  1  0  0  0  0
 33 34  2  0  0  0  0
 33 32  1  0  0  0  0
M  END
>  <MODEL>
4

>  <REMARK>
 VINA RESULT:      -6.7      2.644      9.483
  Name = 
  10 active torsions:
  status: ('A' for Active; 'I' for Inactive)
    1  A    between atoms: C_7  and  N_14
    2  A    between atoms: C_7  and  C_15
    3  A    between atoms: N_8  and  C_18
    4  A    between atoms: O_12  and  C_19
    5  A    between atoms: C_13  and  C_24
    6  A    between atoms: N_14  and  C_16
    7  A    between atoms: C_17  and  C_20
    8  A    between atoms: C_24  and  N_25
    9  A    between atoms: N_25  and  C_27
   10  A    between atoms: C_26  and  C_28
                            x       y       z     vdW  Elec       q    Type
                         _______ _______ _______ _____ _____    ______ ____

>  <TORSDO>
F 10

$$$$
=
 OpenBabel11052420213D

 34 36  0  0  1  0  0  0  0  0999 V2000
  191.7460  176.0530  143.9330 N   0  0  0  0  0  2  0  0  0  0  0  0
  190.3960  174.3960  144.8770 O   0  0  0  0  0  0  0  0  0  0  0  0
  190.4850  175.3970  144.1160 C   0  0  0  0  0  0  0  0  0  0  0  0
  189.2140  177.7460  145.1100 O   0  0  0  0  0  1  0  0  0  0  0  0
  185.4620  177.2610  141.9090 C   0  0  0  0  0  2  0  0  0  0  0  0
  187.4320  175.7480  141.8880 C   0  0  0  0  0  3  0  0  0  0  0  0
  188.6400  177.0840  144.0280 C   0  0  0  0  0  0  0  0  0  0  0  0
  188.6580  175.2910  142.3710 C   0  0  0  0  0  0  0  0  0  0  0  0
  189.2650  175.9430  143.4760 C   0  0  0  0  0  0  0  0  0  0  0  0
  185.0870  178.6980  142.2650 C   0  0  0  0  0  2  0  0  0  0  0  0
  185.3310  178.9770  143.7470 C   0  0  2  0  0  3  0  0  0  0  0  0
  186.8150  176.8720  142.4330 C   0  0  0  0  0  0  0  0  0  0  0  0
  186.8140  178.8110  144.0750 C   0  0  0  0  0  2  0  0  0  0  0  0
  187.4190  177.5470  143.5120 C   0  0  0  0  0  0  0  0  0  0  0  0
  189.2330  174.1960  141.7170 O   0  0  0  0  0  0  0  0  0  0  0  0
  188.8590  173.8010  140.4050 C   0  0  0  0  0  1  0  0  0  0  0  0
  184.5270  178.0970  144.5840 N   0  0  0  0  0  2  0  0  0  0  0  0
  184.1540  178.8530  145.7690 C   0  0  0  0  0  2  0  0  0  0  0  0
  185.3710  176.8630  146.6410 C   0  0  0  0  0  1  0  0  0  0  0  0
  184.6830  178.1630  147.0130 C   0  0  0  0  0  2  0  0  0  0  0  0
  193.6600  175.0270  142.0690 F   0  0  0  0  0  0  0  0  0  0  0  0
  194.6310  175.1670  146.0990 C   0  0  0  0  0  3  0  0  0  0  0  0
  195.2050  174.5630  143.8170 C   0  0  0  0  0  0  0  0  0  0  0  0
  193.0270  175.5420  144.3250 C   0  0  0  0  0  0  0  0  0  0  0  0
  195.5340  174.5990  145.1960 C   0  0  0  0  0  0  0  0  0  0  0  0
  193.3960  175.6460  145.6670 C   0  0  0  0  0  3  0  0  0  0  0  0
  193.9430  175.0130  143.3960 C   0  0  0  0  0  0  0  0  0  0  0  0
  196.7540  174.0100  145.7740 C   0  0  0  0  0  3  0  0  0  0  0  0
  196.7580  172.8810  146.3300 O   0  0  0  0  0  0  0  0  0  0  0  0
  196.1330  174.1320  142.8150 N   0  0  0  0  0  2  0  0  0  0  0  0
  197.2860  174.9250  142.4200 C   0  0  0  0  0  2  0  0  0  0  0  0
  197.2200  177.1450  143.2770 O   0  0  0  0  0  1  0  0  0  0  0  0
  196.9030  176.3600  142.3460 C   0  0  0  0  0  0  0  0  0  0  0  0
  196.1600  176.8250  141.2690 O   0  0  0  0  0  0  0  0  0  0  0  0
  1  3  1  0  0  0  0
  1 24  1  0  0  0  0
  3  2  2  0  0  0  0
  5 10  1  0  0  0  0
  5 12  1  0  0  0  0
  6  8  2  0  0  0  0
  6 12  1  0  0  0  0
  7  4  1  0  0  0  0
  8  9  1  0  0  0  0
  9  7  2  0  0  0  0
  9  3  1  0  0  0  0
 10 11  1  0  0  0  0
 11 13  1  0  0  0  0
 11 17  1  1  0  0  0
 12 14  2  0  0  0  0
 14  7  1  0  0  0  0
 14 13  1  0  0  0  0
 15  8  1  0  0  0  0
 16 15  1  0  0  0  0
 17 18  1  0  0  0  0
 18 20  1  0  0  0  0
 19 20  1  0  0  0  0
 21 27  1  0  0  0  0
 23 25  1  0  0  0  0
 24 26  2  0  0  0  0
 25 28  1  0  0  0  0
 25 22  2  0  0  0  0
 26 22  1  0  0  0  0
 27 23  2  0  0  0  0
 27 24  1  0  0  0  0
 28 29  2  0  0  0  0
 30 23  1  0  0  0  0
 31 30  1  0  0  0  0
 33 31  1  0  0  0  0
 33 32  1  0  0  0  0
 34 33  2  0  0  0  0
M  END
>  <MODEL>
5

>  <REMARK>
 VINA RESULT:      -6.6      2.656      9.868
  Name = 
  10 active torsions:
  status: ('A' for Active; 'I' for Inactive)
    1  A    between atoms: C_7  and  N_14
    2  A    between atoms: C_7  and  C_15
    3  A    between atoms: N_8  and  C_18
    4  A    between atoms: O_12  and  C_19
    5  A    between atoms: C_13  and  C_24
    6  A    between atoms: N_14  and  C_16
    7  A    between atoms: C_17  and  C_20
    8  A    between atoms: C_24  and  N_25
    9  A    between atoms: N_25  and  C_27
   10  A    between atoms: C_26  and  C_28
                            x       y       z     vdW  Elec       q    Type
                         _______ _______ _______ _____ _____    ______ ____

>  <TORSDO>
F 10

$$$$
=
 OpenBabel11052420213D

 34 36  0  0  1  0  0  0  0  0999 V2000
  189.9050  177.2480  145.1390 N   0  0  0  0  0  2  0  0  0  0  0  0
  189.6740  174.9690  144.6770 O   0  0  0  0  0  0  0  0  0  0  0  0
  190.4340  175.9240  144.9940 C   0  0  0  0  0  0  0  0  0  0  0  0
  192.1530  175.8720  142.7210 O   0  0  0  0  0  1  0  0  0  0  0  0
  196.0370  174.5350  145.4930 C   0  0  0  0  0  2  0  0  0  0  0  0
  193.8210  175.0680  146.4790 C   0  0  0  0  0  3  0  0  0  0  0  0
  192.7000  175.6240  143.9770 C   0  0  0  0  0  0  0  0  0  0  0  0
  192.4760  175.4330  146.4010 C   0  0  0  0  0  0  0  0  0  0  0  0
  191.8900  175.6870  145.1340 C   0  0  0  0  0  0  0  0  0  0  0  0
  196.9090  174.9000  144.2930 C   0  0  0  0  0  2  0  0  0  0  0  0
  196.2220  174.5210  142.9820 C   0  0  2  0  0  3  0  0  0  0  0  0
  194.6190  175.0050  145.3390 C   0  0  0  0  0  0  0  0  0  0  0  0
  194.9130  175.2950  142.8320 C   0  0  0  0  0  2  0  0  0  0  0  0
  194.0590  175.2820  144.0760 C   0  0  0  0  0  0  0  0  0  0  0  0
  191.7730  175.5350  147.6060 O   0  0  0  0  0  0  0  0  0  0  0  0
  191.5650  176.7710  148.2720 C   0  0  0  0  0  1  0  0  0  0  0  0
  195.9710  173.0880  142.9180 N   0  0  0  0  0  2  0  0  0  0  0  0
  194.9630  172.8720  141.8910 C   0  0  0  0  0  2  0  0  0  0  0  0
  192.5240  172.3780  141.9340 C   0  0  0  0  0  1  0  0  0  0  0  0
  193.8930  171.9280  142.4060 C   0  0  0  0  0  2  0  0  0  0  0  0
  188.3440  178.0000  142.8610 F   0  0  0  0  0  0  0  0  0  0  0  0
  186.5260  177.7880  146.5830 C   0  0  0  0  0  3  0  0  0  0  0  0
  186.4050  178.2870  144.2090 C   0  0  0  0  0  0  0  0  0  0  0  0
  188.5180  177.5980  145.2200 C   0  0  0  0  0  0  0  0  0  0  0  0
  185.7850  178.2260  145.4830 C   0  0  0  0  0  0  0  0  0  0  0  0
  187.8750  177.4650  146.4520 C   0  0  0  0  0  3  0  0  0  0  0  0
  187.7740  177.9940  144.0930 C   0  0  0  0  0  0  0  0  0  0  0  0
  184.4050  178.6630  145.7550 C   0  0  0  0  0  3  0  0  0  0  0  0
  183.7740  178.2990  146.7820 O   0  0  0  0  0  0  0  0  0  0  0  0
  185.6780  178.5840  143.0110 N   0  0  0  0  0  2  0  0  0  0  0  0
  185.1530  177.5490  142.1350 C   0  0  0  0  0  2  0  0  0  0  0  0
  184.4590  178.6550  140.1450 O   0  0  0  0  0  1  0  0  0  0  0  0
  185.3360  177.9560  140.7170 C   0  0  0  0  0  0  0  0  0  0  0  0
  186.4550  177.5340  140.0120 O   0  0  0  0  0  0  0  0  0  0  0  0
  1 24  1  0  0  0  0
  2  3  2  0  0  0  0
  3  9  1  0  0  0  0
  3  1  1  0  0  0  0
  4  7  1  0  0  0  0
  7 14  2  0  0  0  0
  7  9  1  0  0  0  0
  8  6  1  0  0  0  0
  8 15  1  0  0  0  0
  9  8  2  0  0  0  0
 10  5  1  0  0  0  0
 11 17  1  1  0  0  0
 11 10  1  0  0  0  0
 12  5  1  0  0  0  0
 12  6  2  0  0  0  0
 13 11  1  0  0  0  0
 13 14  1  0  0  0  0
 14 12  1  0  0  0  0
 15 16  1  0  0  0  0
 18 20  1  0  0  0  0
 18 17  1  0  0  0  0
 19 20  1  0  0  0  0
 21 27  1  0  0  0  0
 23 25  1  0  0  0  0
 24 26  2  0  0  0  0
 25 28  1  0  0  0  0
 25 22  2  0  0  0  0
 26 22  1  0  0  0  0
 27 23  2  0  0  0  0
 27 24  1  0  0  0  0
 28 29  2  0  0  0  0
 30 23  1  0  0  0  0
 31 30  1  0  0  0  0
 32 33  1  0  0  0  0
 33 31  1  0  0  0  0
 34 33  2  0  0  0  0
M  END
>  <MODEL>
6

>  <REMARK>
 VINA RESULT:      -6.5      1.730      3.316
  Name = 
  10 active torsions:
  status: ('A' for Active; 'I' for Inactive)
    1  A    between atoms: C_7  and  N_14
    2  A    between atoms: C_7  and  C_15
    3  A    between atoms: N_8  and  C_18
    4  A    between atoms: O_12  and  C_19
    5  A    between atoms: C_13  and  C_24
    6  A    between atoms: N_14  and  C_16
    7  A    between atoms: C_17  and  C_20
    8  A    between atoms: C_24  and  N_25
    9  A    between atoms: N_25  and  C_27
   10  A    between atoms: C_26  and  C_28
                            x       y       z     vdW  Elec       q    Type
                         _______ _______ _______ _____ _____    ______ ____

>  <TORSDO>
F 10

$$$$
=
 OpenBabel11052420213D

 34 36  0  0  1  0  0  0  0  0999 V2000
  191.6350  175.7840  144.1420 N   0  0  0  0  0  2  0  0  0  0  0  0
  190.1850  174.8050  145.6920 O   0  0  0  0  0  0  0  0  0  0  0  0
  190.3240  175.4520  144.6180 C   0  0  0  0  0  0  0  0  0  0  0  0
  189.0540  177.9010  145.3350 O   0  0  0  0  0  1  0  0  0  0  0  0
  185.3770  177.1210  142.1060 C   0  0  0  0  0  2  0  0  0  0  0  0
  187.3300  175.5980  142.2910 C   0  0  0  0  0  3  0  0  0  0  0  0
  188.5000  177.1360  144.3120 C   0  0  0  0  0  0  0  0  0  0  0  0
  188.5390  175.1830  142.8490 C   0  0  0  0  0  0  0  0  0  0  0  0
  189.1260  175.9390  143.8960 C   0  0  0  0  0  0  0  0  0  0  0  0
  185.0080  178.5910  142.3040 C   0  0  0  0  0  2  0  0  0  0  0  0
  185.2200  179.0180  143.7550 C   0  0  2  0  0  3  0  0  0  0  0  0
  186.7120  176.7770  142.7010 C   0  0  0  0  0  0  0  0  0  0  0  0
  186.6930  178.8740  144.1360 C   0  0  0  0  0  2  0  0  0  0  0  0
  187.2970  177.5540  143.7210 C   0  0  0  0  0  0  0  0  0  0  0  0
  189.1180  174.0220  142.3240 O   0  0  0  0  0  0  0  0  0  0  0  0
  190.0080  174.0380  141.2180 C   0  0  0  0  0  1  0  0  0  0  0  0
  184.3860  178.2350  144.6580 N   0  0  0  0  0  2  0  0  0  0  0  0
  184.8370  178.5150  146.0120 C   0  0  0  0  0  2  0  0  0  0  0  0
  186.2620  176.9510  147.3250 C   0  0  0  0  0  1  0  0  0  0  0  0
  184.8570  177.2350  146.8260 C   0  0  0  0  0  2  0  0  0  0  0  0
  192.4480  173.0880  143.6290 F   0  0  0  0  0  0  0  0  0  0  0  0
  194.9770  175.5980  145.7530 C   0  0  0  0  0  3  0  0  0  0  0  0
  194.4770  173.4080  144.8280 C   0  0  0  0  0  0  0  0  0  0  0  0
  192.8690  175.2330  144.6180 C   0  0  0  0  0  0  0  0  0  0  0  0
  195.3380  174.2620  145.5650 C   0  0  0  0  0  0  0  0  0  0  0  0
  193.7610  176.0830  145.2730 C   0  0  0  0  0  3  0  0  0  0  0  0
  193.2380  173.8950  144.3810 C   0  0  0  0  0  0  0  0  0  0  0  0
  196.5810  173.8220  146.2200 C   0  0  0  0  0  3  0  0  0  0  0  0
  197.6010  173.4780  145.5670 O   0  0  0  0  0  0  0  0  0  0  0  0
  194.8420  172.0710  144.4690 N   0  0  0  0  0  2  0  0  0  0  0  0
  194.4630  170.9130  145.2650 C   0  0  0  0  0  2  0  0  0  0  0  0
  195.7570  168.9810  144.7610 O   0  0  0  0  0  0  0  0  0  0  0  0
  195.6430  170.0280  145.4490 C   0  0  0  0  0  0  0  0  0  0  0  0
  196.5990  170.3350  146.4080 O   0  0  0  0  0  1  0  0  0  0  0  0
  1  3  1  0  0  0  0
  1 24  1  0  0  0  0
  3  2  2  0  0  0  0
  5 10  1  0  0  0  0
  5 12  1  0  0  0  0
  6 12  2  0  0  0  0
  6  8  1  0  0  0  0
  7  4  1  0  0  0  0
  8  9  2  0  0  0  0
  9  7  1  0  0  0  0
  9  3  1  0  0  0  0
 10 11  1  0  0  0  0
 11 13  1  0  0  0  0
 11 17  1  1  0  0  0
 12 14  1  0  0  0  0
 14 13  1  0  0  0  0
 14  7  2  0  0  0  0
 15  8  1  0  0  0  0
 16 15  1  0  0  0  0
 17 18  1  0  0  0  0
 18 20  1  0  0  0  0
 20 19  1  0  0  0  0
 21 27  1  0  0  0  0
 23 25  2  0  0  0  0
 24 26  1  0  0  0  0
 25 22  1  0  0  0  0
 25 28  1  0  0  0  0
 26 22  2  0  0  0  0
 27 24  2  0  0  0  0
 27 23  1  0  0  0  0
 29 28  2  0  0  0  0
 30 23  1  0  0  0  0
 30 31  1  0  0  0  0
 31 33  1  0  0  0  0
 32 33  2  0  0  0  0
 33 34  1  0  0  0  0
M  END
>  <MODEL>
7

>  <REMARK>
 VINA RESULT:      -6.4      3.085      9.837
  Name = 
  10 active torsions:
  status: ('A' for Active; 'I' for Inactive)
    1  A    between atoms: C_7  and  N_14
    2  A    between atoms: C_7  and  C_15
    3  A    between atoms: N_8  and  C_18
    4  A    between atoms: O_12  and  C_19
    5  A    between atoms: C_13  and  C_24
    6  A    between atoms: N_14  and  C_16
    7  A    between atoms: C_17  and  C_20
    8  A    between atoms: C_24  and  N_25
    9  A    between atoms: N_25  and  C_27
   10  A    between atoms: C_26  and  C_28
                            x       y       z     vdW  Elec       q    Type
                         _______ _______ _______ _____ _____    ______ ____

>  <TORSDO>
F 10

$$$$
=
 OpenBabel11052420213D

 34 36  0  0  1  0  0  0  0  0999 V2000
  189.7670  175.2440  144.5550 N   0  0  0  0  0  2  0  0  0  0  0  0
  191.2260  176.0470  142.9150 O   0  0  0  0  0  0  0  0  0  0  0  0
  191.0270  175.2480  143.8710 C   0  0  0  0  0  0  0  0  0  0  0  0
  193.4160  176.3390  144.9790 O   0  0  0  0  0  1  0  0  0  0  0  0
  195.5150  171.8580  145.2610 C   0  0  0  0  0  2  0  0  0  0  0  0
  193.1660  172.1820  144.5230 C   0  0  0  0  0  3  0  0  0  0  0  0
  193.3150  174.9570  144.8390 C   0  0  0  0  0  0  0  0  0  0  0  0
  192.0540  172.9640  144.2100 C   0  0  0  0  0  0  0  0  0  0  0  0
  192.1290  174.3750  144.3370 C   0  0  0  0  0  0  0  0  0  0  0  0
  196.5620  172.5020  146.1690 C   0  0  0  0  0  2  0  0  0  0  0  0
  196.8900  173.9200  145.7060 C   0  0  2  0  0  3  0  0  0  0  0  0
  194.3360  172.7550  145.0160 C   0  0  0  0  0  0  0  0  0  0  0  0
  195.6410  174.7980  145.7770 C   0  0  0  0  0  2  0  0  0  0  0  0
  194.4160  174.1530  145.1750 C   0  0  0  0  0  0  0  0  0  0  0  0
  190.9020  172.2920  143.7860 O   0  0  0  0  0  0  0  0  0  0  0  0
  190.9240  171.2830  142.7870 C   0  0  0  0  0  1  0  0  0  0  0  0
  197.4300  173.9180  144.3540 N   0  0  0  0  0  2  0  0  0  0  0  0
  197.3360  175.2790  143.8490 C   0  0  0  0  0  2  0  0  0  0  0  0
  196.3910  173.8640  142.0320 C   0  0  0  0  0  1  0  0  0  0  0  0
  196.7980  175.2700  142.4300 C   0  0  0  0  0  2  0  0  0  0  0  0
  188.5690  177.4520  145.9260 F   0  0  0  0  0  0  0  0  0  0  0  0
  186.8420  176.0660  142.4180 C   0  0  0  0  0  3  0  0  0  0  0  0
  186.8160  177.5750  144.3210 C   0  0  0  0  0  0  0  0  0  0  0  0
  188.5640  175.8830  144.1100 C   0  0  0  0  0  0  0  0  0  0  0  0
  186.2180  177.0940  143.1280 C   0  0  0  0  0  0  0  0  0  0  0  0
  188.0100  175.4740  142.8970 C   0  0  0  0  0  3  0  0  0  0  0  0
  187.9730  176.9480  144.8160 C   0  0  0  0  0  0  0  0  0  0  0  0
  184.9240  177.5610  142.6030 C   0  0  0  0  0  3  0  0  0  0  0  0
  184.8250  178.5720  141.8590 O   0  0  0  0  0  0  0  0  0  0  0  0
  186.3200  178.7180  145.0260 N   0  0  0  0  0  2  0  0  0  0  0  0
  185.2590  178.6300  146.0170 C   0  0  0  0  0  2  0  0  0  0  0  0
  185.9910  177.5170  147.9900 O   0  0  0  0  0  0  0  0  0  0  0  0
  185.8520  178.6100  147.3810 C   0  0  0  0  0  0  0  0  0  0  0  0
  186.2160  179.7990  147.9970 O   0  0  0  0  0  1  0  0  0  0  0  0
  2  3  2  0  0  0  0
  3  9  1  0  0  0  0
  3  1  1  0  0  0  0
  5 10  1  0  0  0  0
  6 12  1  0  0  0  0
  7  4  1  0  0  0  0
  7 14  1  0  0  0  0
  8  9  1  0  0  0  0
  8  6  2  0  0  0  0
  9  7  2  0  0  0  0
 11 17  1  6  0  0  0
 11 13  1  0  0  0  0
 11 10  1  0  0  0  0
 12 14  2  0  0  0  0
 12  5  1  0  0  0  0
 14 13  1  0  0  0  0
 15  8  1  0  0  0  0
 16 15  1  0  0  0  0
 18 17  1  0  0  0  0
 19 20  1  0  0  0  0
 20 18  1  0  0  0  0
 22 26  2  0  0  0  0
 22 25  1  0  0  0  0
 23 27  1  0  0  0  0
 23 30  1  0  0  0  0
 24  1  1  0  0  0  0
 24 27  2  0  0  0  0
 25 23  2  0  0  0  0
 26 24  1  0  0  0  0
 27 21  1  0  0  0  0
 28 25  1  0  0  0  0
 29 28  2  0  0  0  0
 30 31  1  0  0  0  0
 31 33  1  0  0  0  0
 33 32  2  0  0  0  0
 33 34  1  0  0  0  0
M  END
>  <MODEL>
8

>  <REMARK>
 VINA RESULT:      -6.3      2.219      2.850
  Name = 
  10 active torsions:
  status: ('A' for Active; 'I' for Inactive)
    1  A    between atoms: C_7  and  N_14
    2  A    between atoms: C_7  and  C_15
    3  A    between atoms: N_8  and  C_18
    4  A    between atoms: O_12  and  C_19
    5  A    between atoms: C_13  and  C_24
    6  A    between atoms: N_14  and  C_16
    7  A    between atoms: C_17  and  C_20
    8  A    between atoms: C_24  and  N_25
    9  A    between atoms: N_25  and  C_27
   10  A    between atoms: C_26  and  C_28
                            x       y       z     vdW  Elec       q    Type
                         _______ _______ _______ _____ _____    ______ ____

>  <TORSDO>
F 10

$$$$
=
 OpenBabel11052420213D

 34 36  0  0  1  0  0  0  0  0999 V2000
  188.9660  175.7550  142.1460 N   0  0  0  0  0  2  0  0  0  0  0  0
  188.2350  173.5350  142.1690 O   0  0  0  0  0  0  0  0  0  0  0  0
  189.1940  174.3470  142.2840 C   0  0  0  0  0  0  0  0  0  0  0  0
  190.4090  174.3020  144.8620 O   0  0  0  0  0  1  0  0  0  0  0  0
  194.7280  172.7760  142.9710 C   0  0  0  0  0  2  0  0  0  0  0  0
  192.6890  173.0460  141.5800 C   0  0  0  0  0  3  0  0  0  0  0  0
  191.1520  173.8700  143.7660 C   0  0  0  0  0  0  0  0  0  0  0  0
  191.3500  173.3850  141.3820 C   0  0  0  0  0  0  0  0  0  0  0  0
  190.5690  173.8330  142.4790 C   0  0  0  0  0  0  0  0  0  0  0  0
  195.1390  172.4420  144.4040 C   0  0  0  0  0  2  0  0  0  0  0  0
  194.5920  173.4780  145.3850 C   0  0  2  0  0  3  0  0  0  0  0  0
  193.2640  173.0840  142.8480 C   0  0  0  0  0  0  0  0  0  0  0  0
  193.0640  173.4800  145.3500 C   0  0  0  0  0  2  0  0  0  0  0  0
  192.4940  173.5000  143.9520 C   0  0  0  0  0  0  0  0  0  0  0  0
  190.8440  173.2510  140.0840 O   0  0  0  0  0  0  0  0  0  0  0  0
  190.3550  172.0200  139.5720 C   0  0  0  0  0  1  0  0  0  0  0  0
  195.1060  174.8070  145.0840 N   0  0  0  0  0  2  0  0  0  0  0  0
  194.7630  175.6660  146.2060 C   0  0  0  0  0  2  0  0  0  0  0  0
  193.1380  177.0420  144.9150 C   0  0  0  0  0  1  0  0  0  0  0  0
  194.4310  177.0610  145.7090 C   0  0  0  0  0  2  0  0  0  0  0  0
  187.4750  176.2840  144.5310 F   0  0  0  0  0  0  0  0  0  0  0  0
  185.9650  177.5400  140.8780 C   0  0  0  0  0  3  0  0  0  0  0  0
  185.7280  177.3110  143.2850 C   0  0  0  0  0  0  0  0  0  0  0  0
  187.6890  176.4070  142.1450 C   0  0  0  0  0  0  0  0  0  0  0  0
  185.2050  177.7310  142.0350 C   0  0  0  0  0  0  0  0  0  0  0  0
  187.1990  176.8960  140.9330 C   0  0  0  0  0  3  0  0  0  0  0  0
  186.9570  176.6310  143.3260 C   0  0  0  0  0  0  0  0  0  0  0  0
  183.8630  178.3060  141.8480 C   0  0  0  0  0  3  0  0  0  0  0  0
  183.2690  178.2850  140.7380 O   0  0  0  0  0  0  0  0  0  0  0  0
  185.0790  177.6010  144.5280 N   0  0  0  0  0  2  0  0  0  0  0  0
  185.3620  178.8010  145.3000 C   0  0  0  0  0  2  0  0  0  0  0  0
  185.7470  177.2130  147.0300 O   0  0  0  0  0  0  0  0  0  0  0  0
  185.7070  178.4260  146.6960 C   0  0  0  0  0  0  0  0  0  0  0  0
  185.9450  179.4140  147.6420 O   0  0  0  0  0  1  0  0  0  0  0  0
  1  3  1  0  0  0  0
  2  3  2  0  0  0  0
  3  9  1  0  0  0  0
  5 10  1  0  0  0  0
  6 12  1  0  0  0  0
  7 14  1  0  0  0  0
  7  4  1  0  0  0  0
  8  6  2  0  0  0  0
  8  9  1  0  0  0  0
  9  7  2  0  0  0  0
 10 11  1  0  0  0  0
 11 17  1  6  0  0  0
 12  5  1  0  0  0  0
 12 14  2  0  0  0  0
 13 11  1  0  0  0  0
 14 13  1  0  0  0  0
 15  8  1  0  0  0  0
 16 15  1  0  0  0  0
 17 18  1  0  0  0  0
 19 20  1  0  0  0  0
 20 18  1  0  0  0  0
 22 26  2  0  0  0  0
 22 25  1  0  0  0  0
 23 27  1  0  0  0  0
 23 30  1  0  0  0  0
 24  1  1  0  0  0  0
 24 27  2  0  0  0  0
 25 23  2  0  0  0  0
 26 24  1  0  0  0  0
 27 21  1  0  0  0  0
 28 25  1  0  0  0  0
 29 28  2  0  0  0  0
 30 31  1  0  0  0  0
 31 33  1  0  0  0  0
 33 32  2  0  0  0  0
 33 34  1  0  0  0  0
M  END
>  <MODEL>
9

>  <REMARK>
 VINA RESULT:      -6.3      2.694      4.047
  Name = 
  10 active torsions:
  status: ('A' for Active; 'I' for Inactive)
    1  A    between atoms: C_7  and  N_14
    2  A    between atoms: C_7  and  C_15
    3  A    between atoms: N_8  and  C_18
    4  A    between atoms: O_12  and  C_19
    5  A    between atoms: C_13  and  C_24
    6  A    between atoms: N_14  and  C_16
    7  A    between atoms: C_17  and  C_20
    8  A    between atoms: C_24  and  N_25
    9  A    between atoms: N_25  and  C_27
   10  A    between atoms: C_26  and  C_28
                            x       y       z     vdW  Elec       q    Type
                         _______ _______ _______ _____ _____    ______ ____

>  <TORSDO>
F 10

$$$$
