=
 OpenBabel11052419003D

 34 37  0  0  1  0  0  0  0  0999 V2000
  189.0170  174.8440  142.7180 C   0  0  2  0  0  3  0  0  0  0  0  0
  190.6730  172.9390  143.0210 C   0  0  1  0  0  3  0  0  0  0  0  0
  190.7580  174.9430  144.5870 C   0  0  1  0  0  3  0  0  0  0  0  0
  188.6800  172.9660  141.5160 C   0  0  0  0  0  2  0  0  0  0  0  0
  190.0790  172.3920  141.7210 C   0  0  0  0  0  2  0  0  0  0  0  0
  189.6510  172.8750  145.3780 C   0  0  0  0  0  3  0  0  0  0  0  0
  190.4480  174.4660  143.1550 C   0  0  2  0  0  3  0  0  0  0  0  0
  188.7610  174.3640  141.4210 O   0  0  0  0  0  0  0  0  0  0  0  0
  190.2160  172.0910  144.2230 C   0  0  0  0  0  2  0  0  0  0  0  0
  189.9340  174.1710  145.5860 C   0  0  0  0  0  0  0  0  0  0  0  0
  192.8800  176.2170  144.9970 N   0  0  0  0  0  0  0  0  0  0  0  0
  194.8250  177.4540  145.4070 O   0  0  0  0  0  0  0  0  0  0  0  0
  194.9270  175.1980  146.1610 C   0  0  0  0  0  2  0  0  0  0  0  0
  195.9180  174.3180  143.9960 C   0  0  0  0  0  1  0  0  0  0  0  0
  192.2540  174.8900  144.9520 C   0  0  2  0  0  3  0  0  0  0  0  0
  194.2210  176.3510  145.5010 C   0  0  0  0  0  0  0  0  0  0  0  0
  193.7940  173.2840  144.9160 C   0  0  0  0  0  2  0  0  0  0  0  0
  195.1150  173.9830  145.2470 C   0  0  2  0  0  3  0  0  0  0  0  0
  192.9860  174.0700  144.0830 O   0  0  0  0  0  0  0  0  0  0  0  0
  192.2240  177.3890  144.4210 C   0  0  0  0  0  1  0  0  0  0  0  0
  188.8350  176.3290  142.7380 C   0  0  0  0  0  3  0  0  0  0  0  0
  188.4200  176.9140  141.7520 O   0  0  0  0  0  0  0  0  0  0  0  0
  189.2730  174.9010  146.7170 C   0  0  0  0  0  2  0  0  0  0  0  0
  188.7290  176.2670  146.2960 C   0  0  2  0  0  3  0  0  0  0  0  0
  189.5700  177.3510  146.9380 C   0  0  0  0  0  1  0  0  0  0  0  0
  187.2820  176.4510  146.7270 C   0  0  0  0  0  2  0  0  0  0  0  0
  186.4050  176.8540  145.5540 C   0  0  0  0  0  2  0  0  0  0  0  0
  185.2500  178.7370  147.5850 C   0  0  0  0  0  1  0  0  0  0  0  0
  186.4010  178.3680  145.3400 C   0  0  2  0  0  3  0  0  0  0  0  0
  185.2640  179.0660  146.1040 C   0  0  1  0  0  3  0  0  0  0  0  0
  183.9110  179.1920  144.1250 O   0  0  0  0  0  0  0  0  0  0  0  0
  184.8090  178.3820  143.4000 C   0  0  0  0  0  2  0  0  0  0  0  0
  186.2510  178.6580  143.8440 C   0  0  0  0  0  2  0  0  0  0  0  0
  183.9210  178.7320  145.4540 C   0  0  0  0  0  2  0  0  0  0  0  0
  1 21  1  6  0  0  0
  1  7  1  0  0  0  0
  2  5  1  6  0  0  0
  2  7  1  0  0  0  0
  2  9  1  0  0  0  0
  3 15  1  0  0  0  0
  3 10  1  1  0  0  0
  4  5  1  0  0  0  0
  6 10  2  0  0  0  0
  7  3  1  0  0  0  0
  8  4  1  0  0  0  0
  8  1  1  0  0  0  0
  9  6  1  0  0  0  0
 10 23  1  0  0  0  0
 11 16  1  0  0  0  0
 12 16  2  0  0  0  0
 14 18  1  0  0  0  0
 15 11  1  0  0  0  0
 16 13  1  0  0  0  0
 17 18  1  0  0  0  0
 18 13  1  0  0  0  0
 19 17  1  0  0  0  0
 19 15  1  0  0  0  0
 20 11  1  0  0  0  0
 22 21  2  0  0  0  0
 24 23  1  0  0  0  0
 24 26  1  0  0  0  0
 24 25  1  0  0  0  0
 27 26  1  0  0  0  0
 29 27  1  0  0  0  0
 29 30  1  0  0  0  0
 30 28  1  0  0  0  0
 31 34  1  0  0  0  0
 32 33  1  0  0  0  0
 32 31  1  0  0  0  0
 33 29  1  0  0  0  0
 34 30  1  0  0  0  0
M  END
>  <MODEL>
1

>  <REMARK>
 VINA RESULT:      -8.4      0.000      0.000
  Name = 
  7 active torsions:
  status: ('A' for Active; 'I' for Inactive)
    1  A    between atoms: C_1  and  C_24
    2  A    between atoms: C_3  and  C_13
    3  A    between atoms: C_3  and  C_17
    4  A    between atoms: C_4  and  C_21
    5  A    between atoms: C_5  and  C_18
    6  A    between atoms: C_5  and  C_31
    7  A    between atoms: C_17  and  C_18
                            x       y       z     vdW  Elec       q    Type
                         _______ _______ _______ _____ _____    ______ ____

>  <TORSDO>
F 7

$$$$
=
 OpenBabel11052419003D

 34 37  0  0  1  0  0  0  0  0999 V2000
  189.2630  174.5810  143.1840 C   0  0  2  0  0  3  0  0  0  0  0  0
  188.0590  176.6230  142.2660 C   0  0  1  0  0  3  0  0  0  0  0  0
  188.7370  176.5570  144.7180 C   0  0  1  0  0  3  0  0  0  0  0  0
  188.9850  174.7130  140.9500 C   0  0  0  0  0  2  0  0  0  0  0  0
  187.9110  175.7970  140.9870 C   0  0  0  0  0  2  0  0  0  0  0  0
  190.1540  177.8310  143.1380 C   0  0  0  0  0  3  0  0  0  0  0  0
  188.2750  175.7230  143.5080 C   0  0  2  0  0  3  0  0  0  0  0  0
  188.8250  173.8640  142.0560 O   0  0  0  0  0  0  0  0  0  0  0  0
  189.0960  177.7450  142.0680 C   0  0  0  0  0  2  0  0  0  0  0  0
  189.9810  177.3360  144.3730 C   0  0  0  0  0  0  0  0  0  0  0  0
  187.2490  177.1350  146.6550 N   0  0  0  0  0  0  0  0  0  0  0  0
  185.9100  177.6570  148.5020 O   0  0  0  0  0  0  0  0  0  0  0  0
  186.0230  179.3780  146.8630 C   0  0  0  0  0  2  0  0  0  0  0  0
  183.9850  178.5640  145.5890 C   0  0  0  0  0  1  0  0  0  0  0  0
  187.6470  177.4880  145.2860 C   0  0  2  0  0  3  0  0  0  0  0  0
  186.3800  178.0150  147.3880 C   0  0  0  0  0  0  0  0  0  0  0  0
  186.1820  178.8870  144.3660 C   0  0  0  0  0  2  0  0  0  0  0  0
  185.2880  179.3510  145.5190 C   0  0  2  0  0  3  0  0  0  0  0  0
  186.5050  177.5280  144.4750 O   0  0  0  0  0  0  0  0  0  0  0  0
  187.6080  175.8480  147.2440 C   0  0  0  0  0  1  0  0  0  0  0  0
  189.3840  173.6460  144.3450 C   0  0  0  0  0  3  0  0  0  0  0  0
  190.3790  172.9540  144.4810 O   0  0  0  0  0  0  0  0  0  0  0  0
  191.1100  177.3950  145.3600 C   0  0  0  0  0  2  0  0  0  0  0  0
  191.0080  176.3120  146.4350 C   0  0  2  0  0  3  0  0  0  0  0  0
  191.0160  176.9710  147.7990 C   0  0  0  0  0  1  0  0  0  0  0  0
  192.1690  175.3340  146.3570 C   0  0  0  0  0  2  0  0  0  0  0  0
  193.2490  175.8350  145.4120 C   0  0  0  0  0  2  0  0  0  0  0  0
  196.0080  174.6560  145.3790 C   0  0  0  0  0  1  0  0  0  0  0  0
  193.6570  174.7650  144.3980 C   0  0  2  0  0  3  0  0  0  0  0  0
  195.1690  174.7680  144.1190 C   0  0  1  0  0  3  0  0  0  0  0  0
  194.8690  176.0050  142.0840 O   0  0  0  0  0  0  0  0  0  0  0  0
  193.5040  176.2250  142.3620 C   0  0  0  0  0  2  0  0  0  0  0  0
  192.9060  175.0120  143.0860 C   0  0  0  0  0  2  0  0  0  0  0  0
  195.5470  176.0130  143.3160 C   0  0  0  0  0  2  0  0  0  0  0  0
  1  7  1  0  0  0  0
  1 21  1  1  0  0  0
  2  5  1  6  0  0  0
  2  7  1  0  0  0  0
  3 10  1  6  0  0  0
  3 15  1  0  0  0  0
  4  5  1  0  0  0  0
  4  8  1  0  0  0  0
  6 10  2  0  0  0  0
  7  3  1  0  0  0  0
  8  1  1  0  0  0  0
  9  2  1  0  0  0  0
  9  6  1  0  0  0  0
 10 23  1  0  0  0  0
 11 20  1  0  0  0  0
 11 16  1  0  0  0  0
 13 16  1  0  0  0  0
 15 11  1  0  0  0  0
 16 12  2  0  0  0  0
 17 19  1  0  0  0  0
 17 18  1  0  0  0  0
 18 14  1  0  0  0  0
 18 13  1  0  0  0  0
 19 15  1  0  0  0  0
 21 22  2  0  0  0  0
 23 24  1  0  0  0  0
 24 25  1  0  0  0  0
 26 24  1  0  0  0  0
 27 26  1  0  0  0  0
 29 27  1  0  0  0  0
 30 29  1  0  0  0  0
 30 28  1  0  0  0  0
 31 32  1  0  0  0  0
 31 34  1  0  0  0  0
 32 33  1  0  0  0  0
 33 29  1  0  0  0  0
 34 30  1  0  0  0  0
M  END
>  <MODEL>
2

>  <REMARK>
 VINA RESULT:      -8.2      2.128      7.258
  Name = 
  7 active torsions:
  status: ('A' for Active; 'I' for Inactive)
    1  A    between atoms: C_1  and  C_24
    2  A    between atoms: C_3  and  C_13
    3  A    between atoms: C_3  and  C_17
    4  A    between atoms: C_4  and  C_21
    5  A    between atoms: C_5  and  C_18
    6  A    between atoms: C_5  and  C_31
    7  A    between atoms: C_17  and  C_18
                            x       y       z     vdW  Elec       q    Type
                         _______ _______ _______ _____ _____    ______ ____

>  <TORSDO>
F 7

$$$$
=
 OpenBabel11052419003D

 34 37  0  0  1  0  0  0  0  0999 V2000
  189.6560  174.2570  145.3410 C   0  0  2  0  0  3  0  0  0  0  0  0
  191.4300  175.9620  145.9810 C   0  0  1  0  0  3  0  0  0  0  0  0
  191.0940  175.3520  143.5330 C   0  0  1  0  0  3  0  0  0  0  0  0
  189.6790  174.9900  147.4740 C   0  0  0  0  0  2  0  0  0  0  0  0
  191.0840  175.5840  147.4230 C   0  0  0  0  0  2  0  0  0  0  0  0
  190.0930  177.4550  144.3720 C   0  0  0  0  0  3  0  0  0  0  0  0
  191.0410  174.8400  144.9860 C   0  0  2  0  0  3  0  0  0  0  0  0
  189.6370  173.8320  146.6820 O   0  0  0  0  0  0  0  0  0  0  0  0
  190.8910  177.3660  145.6470 C   0  0  0  0  0  2  0  0  0  0  0  0
  190.2150  176.5670  143.3730 C   0  0  0  0  0  0  0  0  0  0  0  0
  192.7700  175.0940  141.6840 N   0  0  0  0  0  0  0  0  0  0  0  0
  194.2850  174.8600  139.9140 O   0  0  0  0  0  0  0  0  0  0  0  0
  194.9230  176.4810  141.5360 C   0  0  0  0  0  2  0  0  0  0  0  0
  196.2660  174.8400  142.9300 C   0  0  0  0  0  1  0  0  0  0  0  0
  192.5210  175.6370  143.0250 C   0  0  2  0  0  3  0  0  0  0  0  0
  193.9880  175.4340  140.9970 C   0  0  0  0  0  0  0  0  0  0  0  0
  194.4280  176.2040  144.0220 C   0  0  0  0  0  2  0  0  0  0  0  0
  195.4910  176.1520  142.9200 C   0  0  2  0  0  3  0  0  0  0  0  0
  193.5050  175.1570  143.9010 O   0  0  0  0  0  0  0  0  0  0  0  0
  191.8730  174.1120  141.0810 C   0  0  0  0  0  1  0  0  0  0  0  0
  189.3300  173.0990  144.4530 C   0  0  0  0  0  3  0  0  0  0  0  0
  189.5480  171.9570  144.8220 O   0  0  0  0  0  0  0  0  0  0  0  0
  189.3310  176.6810  142.1670 C   0  0  0  0  0  2  0  0  0  0  0  0
  188.0940  175.7870  142.2570 C   0  0  2  0  0  3  0  0  0  0  0  0
  188.1750  174.7250  141.1800 C   0  0  0  0  0  1  0  0  0  0  0  0
  186.8130  176.5820  142.0660 C   0  0  0  0  0  2  0  0  0  0  0  0
  186.0500  176.7200  143.3720 C   0  0  0  0  0  2  0  0  0  0  0  0
  186.9200  176.7240  146.2440 C   0  0  0  0  0  1  0  0  0  0  0  0
  186.4060  178.0140  144.1050 C   0  0  2  0  0  3  0  0  0  0  0  0
  186.1950  177.9050  145.6240 C   0  0  1  0  0  3  0  0  0  0  0  0
  184.0850  179.0410  145.4890 O   0  0  0  0  0  0  0  0  0  0  0  0
  184.1010  179.0060  144.0790 C   0  0  0  0  0  2  0  0  0  0  0  0
  185.5360  179.1500  143.5590 C   0  0  0  0  0  2  0  0  0  0  0  0
  184.7000  177.8600  145.9390 C   0  0  0  0  0  2  0  0  0  0  0  0
  1 21  1  6  0  0  0
  1  8  1  0  0  0  0
  2  9  1  6  0  0  0
  2  5  1  0  0  0  0
  3 10  1  1  0  0  0
  3  7  1  0  0  0  0
  5  4  1  0  0  0  0
  6  9  1  0  0  0  0
  7  1  1  0  0  0  0
  7  2  1  0  0  0  0
  8  4  1  0  0  0  0
 10  6  2  0  0  0  0
 11 15  1  0  0  0  0
 12 16  2  0  0  0  0
 13 18  1  0  0  0  0
 15  3  1  0  0  0  0
 15 19  1  0  0  0  0
 16 13  1  0  0  0  0
 16 11  1  0  0  0  0
 18 14  1  0  0  0  0
 18 17  1  0  0  0  0
 19 17  1  0  0  0  0
 20 11  1  0  0  0  0
 21 22  2  0  0  0  0
 23 24  1  0  0  0  0
 23 10  1  0  0  0  0
 25 24  1  0  0  0  0
 26 24  1  0  0  0  0
 26 27  1  0  0  0  0
 27 29  1  0  0  0  0
 29 30  1  0  0  0  0
 30 34  1  0  0  0  0
 30 28  1  0  0  0  0
 31 34  1  0  0  0  0
 32 31  1  0  0  0  0
 33 32  1  0  0  0  0
 33 29  1  0  0  0  0
M  END
>  <MODEL>
3

>  <REMARK>
 VINA RESULT:      -8.1      2.132      3.939
  Name = 
  7 active torsions:
  status: ('A' for Active; 'I' for Inactive)
    1  A    between atoms: C_1  and  C_24
    2  A    between atoms: C_3  and  C_13
    3  A    between atoms: C_3  and  C_17
    4  A    between atoms: C_4  and  C_21
    5  A    between atoms: C_5  and  C_18
    6  A    between atoms: C_5  and  C_31
    7  A    between atoms: C_17  and  C_18
                            x       y       z     vdW  Elec       q    Type
                         _______ _______ _______ _____ _____    ______ ____

>  <TORSDO>
F 7

$$$$
=
 OpenBabel11052419003D

 34 37  0  0  1  0  0  0  0  0999 V2000
  191.7220  176.6720  144.7570 C   0  0  2  0  0  3  0  0  0  0  0  0
  190.4740  176.1650  146.9130 C   0  0  1  0  0  3  0  0  0  0  0  0
  189.1960  176.2860  144.7160 C   0  0  1  0  0  3  0  0  0  0  0  0
  192.9510  176.2580  146.6030 C   0  0  0  0  0  2  0  0  0  0  0  0
  191.8110  176.4520  147.6000 C   0  0  0  0  0  2  0  0  0  0  0  0
  189.7800  174.0570  145.6180 C   0  0  0  0  0  3  0  0  0  0  0  0
  190.3900  176.8370  145.5190 C   0  0  2  0  0  3  0  0  0  0  0  0
  192.7910  177.1550  145.5350 O   0  0  0  0  0  0  0  0  0  0  0  0
  190.1630  174.6570  146.9460 C   0  0  0  0  0  2  0  0  0  0  0  0
  189.2860  174.7860  144.6040 C   0  0  0  0  0  0  0  0  0  0  0  0
  186.9610  177.3280  144.2510 N   0  0  0  0  0  0  0  0  0  0  0  0
  184.8760  178.2720  143.7580 O   0  0  0  0  0  0  0  0  0  0  0  0
  184.9570  177.1200  145.8400 C   0  0  0  0  0  2  0  0  0  0  0  0
  185.5980  179.1810  147.1750 C   0  0  0  0  0  1  0  0  0  0  0  0
  187.8220  176.7140  145.2690 C   0  0  2  0  0  3  0  0  0  0  0  0
  185.5850  177.6110  144.5650 C   0  0  0  0  0  0  0  0  0  0  0  0
  187.0360  177.0970  147.3150 C   0  0  0  0  0  2  0  0  0  0  0  0
  185.6260  177.6590  147.1080 C   0  0  2  0  0  3  0  0  0  0  0  0
  187.9350  177.5880  146.3590 O   0  0  0  0  0  0  0  0  0  0  0  0
  187.4980  177.7800  142.9700 C   0  0  0  0  0  1  0  0  0  0  0  0
  191.6820  177.4180  143.4610 C   0  0  0  0  0  3  0  0  0  0  0  0
  191.3820  178.6000  143.4370 O   0  0  0  0  0  0  0  0  0  0  0  0
  188.9990  174.1260  143.2880 C   0  0  0  0  0  2  0  0  0  0  0  0
  190.2660  173.8580  142.4760 C   0  0  2  0  0  3  0  0  0  0  0  0
  189.9570  174.0420  141.0050 C   0  0  0  0  0  1  0  0  0  0  0  0
  190.7830  172.4450  142.6950 C   0  0  0  0  0  2  0  0  0  0  0  0
  192.3000  172.4200  142.7770 C   0  0  0  0  0  2  0  0  0  0  0  0
  193.7940  174.8040  141.7320 C   0  0  0  0  0  1  0  0  0  0  0  0
  192.8380  173.5060  143.7090 C   0  0  2  0  0  3  0  0  0  0  0  0
  194.0530  174.2380  143.1170 C   0  0  1  0  0  3  0  0  0  0  0  0
  195.5770  172.9280  144.4300 O   0  0  0  0  0  0  0  0  0  0  0  0
  194.5420  172.0760  144.8690 C   0  0  0  0  0  2  0  0  0  0  0  0
  193.2390  172.8650  145.0400 C   0  0  0  0  0  2  0  0  0  0  0  0
  195.2670  173.3090  143.1130 C   0  0  0  0  0  2  0  0  0  0  0  0
  1 21  1  6  0  0  0
  1  7  1  0  0  0  0
  1  8  1  0  0  0  0
  2  9  1  6  0  0  0
  2  5  1  0  0  0  0
  3 10  1  1  0  0  0
  3 15  1  0  0  0  0
  3  7  1  0  0  0  0
  4  5  1  0  0  0  0
  6  9  1  0  0  0  0
  7  2  1  0  0  0  0
  8  4  1  0  0  0  0
 10  6  2  0  0  0  0
 11 16  1  0  0  0  0
 11 15  1  0  0  0  0
 12 16  2  0  0  0  0
 13 18  1  0  0  0  0
 15 19  1  0  0  0  0
 16 13  1  0  0  0  0
 18 14  1  0  0  0  0
 18 17  1  0  0  0  0
 19 17  1  0  0  0  0
 20 11  1  0  0  0  0
 22 21  2  0  0  0  0
 23 10  1  0  0  0  0
 24 26  1  0  0  0  0
 24 23  1  0  0  0  0
 25 24  1  0  0  0  0
 26 27  1  0  0  0  0
 27 29  1  0  0  0  0
 28 30  1  0  0  0  0
 29 33  1  0  0  0  0
 30 29  1  0  0  0  0
 31 32  1  0  0  0  0
 32 33  1  0  0  0  0
 34 30  1  0  0  0  0
 34 31  1  0  0  0  0
M  END
>  <MODEL>
4

>  <REMARK>
 VINA RESULT:      -8.0      2.107      7.705
  Name = 
  7 active torsions:
  status: ('A' for Active; 'I' for Inactive)
    1  A    between atoms: C_1  and  C_24
    2  A    between atoms: C_3  and  C_13
    3  A    between atoms: C_3  and  C_17
    4  A    between atoms: C_4  and  C_21
    5  A    between atoms: C_5  and  C_18
    6  A    between atoms: C_5  and  C_31
    7  A    between atoms: C_17  and  C_18
                            x       y       z     vdW  Elec       q    Type
                         _______ _______ _______ _____ _____    ______ ____

>  <TORSDO>
F 7

$$$$
=
 OpenBabel11052419003D

 34 37  0  0  1  0  0  0  0  0999 V2000
  190.5910  175.3420  146.2990 C   0  0  2  0  0  3  0  0  0  0  0  0
  192.8510  175.3190  145.1350 C   0  0  1  0  0  3  0  0  0  0  0  0
  190.7950  174.4520  143.9110 C   0  0  1  0  0  3  0  0  0  0  0  0
  192.2970  176.4180  147.3090 C   0  0  0  0  0  2  0  0  0  0  0  0
  193.4060  175.7610  146.4910 C   0  0  0  0  0  2  0  0  0  0  0  0
  191.5930  176.7390  143.4010 C   0  0  0  0  0  3  0  0  0  0  0  0
  191.4860  174.6030  145.2810 C   0  0  2  0  0  3  0  0  0  0  0  0
  191.2670  175.4890  147.5240 O   0  0  0  0  0  0  0  0  0  0  0  0
  192.8870  176.4870  144.1310 C   0  0  0  0  0  2  0  0  0  0  0  0
  190.6480  175.7980  143.2480 C   0  0  0  0  0  0  0  0  0  0  0  0
  190.5430  172.6230  142.2130 N   0  0  0  0  0  0  0  0  0  0  0  0
  190.2540  170.9460  140.6040 O   0  0  0  0  0  0  0  0  0  0  0  0
  192.4560  171.8480  140.6890 C   0  0  0  0  0  2  0  0  0  0  0  0
  193.3020  170.1320  142.3560 C   0  0  0  0  0  1  0  0  0  0  0  0
  191.4910  173.4490  142.9700 C   0  0  2  0  0  3  0  0  0  0  0  0
  191.0300  171.7700  141.1610 C   0  0  0  0  0  0  0  0  0  0  0  0
  193.5460  172.6030  142.8660 C   0  0  0  0  0  2  0  0  0  0  0  0
  193.4860  171.5290  141.7760 C   0  0  2  0  0  3  0  0  0  0  0  0
  192.3850  172.6110  143.6500 O   0  0  0  0  0  0  0  0  0  0  0  0
  189.1330  172.5440  142.5870 C   0  0  0  0  0  1  0  0  0  0  0  0
  189.3190  174.5890  146.5270 C   0  0  0  0  0  3  0  0  0  0  0  0
  188.8200  174.5390  147.6380 O   0  0  0  0  0  0  0  0  0  0  0  0
  189.3550  176.1490  142.5730 C   0  0  0  0  0  2  0  0  0  0  0  0
  188.1700  176.1520  143.5400 C   0  0  2  0  0  3  0  0  0  0  0  0
  186.9000  175.8750  142.7620 C   0  0  0  0  0  1  0  0  0  0  0  0
  188.0280  177.4910  144.2470 C   0  0  0  0  0  2  0  0  0  0  0  0
  186.8580  177.4810  145.2150 C   0  0  0  0  0  2  0  0  0  0  0  0
  186.1560  178.3090  148.0130 C   0  0  0  0  0  1  0  0  0  0  0  0
  186.3760  178.8950  145.5410 C   0  0  2  0  0  3  0  0  0  0  0  0
  185.4960  178.9400  146.8000 C   0  0  1  0  0  3  0  0  0  0  0  0
  183.4880  178.9970  145.4860 O   0  0  0  0  0  0  0  0  0  0  0  0
  184.2020  178.7550  144.2950 C   0  0  0  0  0  2  0  0  0  0  0  0
  185.5760  179.4340  144.3510 C   0  0  0  0  0  2  0  0  0  0  0  0
  184.1420  178.2910  146.5110 C   0  0  0  0  0  2  0  0  0  0  0  0
  1 21  1  1  0  0  0
  1  8  1  0  0  0  0
  2  9  1  6  0  0  0
  2  7  1  0  0  0  0
  2  5  1  0  0  0  0
  3 10  1  6  0  0  0
  3  7  1  0  0  0  0
  4  8  1  0  0  0  0
  5  4  1  0  0  0  0
  6  9  1  0  0  0  0
  7  1  1  0  0  0  0
 10  6  2  0  0  0  0
 11 20  1  0  0  0  0
 11 15  1  0  0  0  0
 12 16  2  0  0  0  0
 13 16  1  0  0  0  0
 13 18  1  0  0  0  0
 15 19  1  0  0  0  0
 15  3  1  0  0  0  0
 16 11  1  0  0  0  0
 17 19  1  0  0  0  0
 18 14  1  0  0  0  0
 18 17  1  0  0  0  0
 21 22  2  0  0  0  0
 23 10  1  0  0  0  0
 23 24  1  0  0  0  0
 24 26  1  0  0  0  0
 25 24  1  0  0  0  0
 26 27  1  0  0  0  0
 27 29  1  0  0  0  0
 29 30  1  0  0  0  0
 30 28  1  0  0  0  0
 31 34  1  0  0  0  0
 32 33  1  0  0  0  0
 32 31  1  0  0  0  0
 33 29  1  0  0  0  0
 34 30  1  0  0  0  0
M  END
>  <MODEL>
5

>  <REMARK>
 VINA RESULT:      -7.9      2.234      4.469
  Name = 
  7 active torsions:
  status: ('A' for Active; 'I' for Inactive)
    1  A    between atoms: C_1  and  C_24
    2  A    between atoms: C_3  and  C_13
    3  A    between atoms: C_3  and  C_17
    4  A    between atoms: C_4  and  C_21
    5  A    between atoms: C_5  and  C_18
    6  A    between atoms: C_5  and  C_31
    7  A    between atoms: C_17  and  C_18
                            x       y       z     vdW  Elec       q    Type
                         _______ _______ _______ _____ _____    ______ ____

>  <TORSDO>
F 7

$$$$
=
 OpenBabel11052419003D

 34 37  0  0  1  0  0  0  0  0999 V2000
  191.9320  176.3810  145.1150 C   0  0  2  0  0  3  0  0  0  0  0  0
  190.0090  176.0190  146.7390 C   0  0  1  0  0  3  0  0  0  0  0  0
  189.5340  176.2000  144.2460 C   0  0  1  0  0  3  0  0  0  0  0  0
  192.4500  175.9040  147.2580 C   0  0  0  0  0  2  0  0  0  0  0  0
  191.0680  176.2100  147.8280 C   0  0  0  0  0  2  0  0  0  0  0  0
  189.6040  173.9490  145.2710 C   0  0  0  0  0  3  0  0  0  0  0  0
  190.4420  176.6680  145.4000 C   0  0  2  0  0  3  0  0  0  0  0  0
  192.7230  176.7900  146.2040 O   0  0  0  0  0  0  0  0  0  0  0  0
  189.5810  174.5420  146.6560 C   0  0  0  0  0  2  0  0  0  0  0  0
  189.5310  174.6950  144.1580 C   0  0  0  0  0  0  0  0  0  0  0  0
  187.7000  177.4890  143.1180 N   0  0  0  0  0  0  0  0  0  0  0  0
  186.0080  178.6660  142.0080 O   0  0  0  0  0  0  0  0  0  0  0  0
  185.2580  177.4320  143.9010 C   0  0  0  0  0  2  0  0  0  0  0  0
  185.5660  179.3620  145.5210 C   0  0  0  0  0  1  0  0  0  0  0  0
  188.0960  176.7490  144.3230 C   0  0  2  0  0  3  0  0  0  0  0  0
  186.3320  177.9030  142.9590 C   0  0  0  0  0  0  0  0  0  0  0  0
  186.6800  177.1350  145.9960 C   0  0  0  0  0  2  0  0  0  0  0  0
  185.4850  177.8490  145.3570 C   0  0  2  0  0  3  0  0  0  0  0  0
  187.8950  177.5640  145.4450 O   0  0  0  0  0  0  0  0  0  0  0  0
  188.6880  177.9300  142.1360 C   0  0  0  0  0  1  0  0  0  0  0  0
  192.3790  177.1010  143.8830 C   0  0  0  0  0  3  0  0  0  0  0  0
  192.8940  176.4900  142.9620 O   0  0  0  0  0  0  0  0  0  0  0  0
  189.6360  174.0360  142.8150 C   0  0  0  0  0  2  0  0  0  0  0  0
  188.3170  174.0640  142.0420 C   0  0  2  0  0  3  0  0  0  0  0  0
  187.7330  172.6660  142.0130 C   0  0  0  0  0  1  0  0  0  0  0  0
  188.5160  174.5410  140.6120 C   0  0  0  0  0  2  0  0  0  0  0  0
  188.7180  173.3720  139.6640 C   0  0  0  0  0  2  0  0  0  0  0  0
  189.2680  174.1660  136.8230 C   0  0  0  0  0  1  0  0  0  0  0  0
  190.1310  173.3500  139.0800 C   0  0  2  0  0  3  0  0  0  0  0  0
  190.1320  173.1550  137.5550 C   0  0  1  0  0  3  0  0  0  0  0  0
  190.6290  170.8170  137.7790 O   0  0  0  0  0  0  0  0  0  0  0  0
  190.4470  170.8630  139.1760 C   0  0  0  0  0  2  0  0  0  0  0  0
  190.9210  172.2120  139.7310 C   0  0  0  0  0  2  0  0  0  0  0  0
  189.7150  171.7250  137.2140 C   0  0  0  0  0  2  0  0  0  0  0  0
  1 21  1  6  0  0  0
  1  7  1  0  0  0  0
  1  8  1  0  0  0  0
  2  9  1  6  0  0  0
  2  5  1  0  0  0  0
  3 10  1  1  0  0  0
  3 15  1  0  0  0  0
  3  7  1  0  0  0  0
  4  5  1  0  0  0  0
  6  9  1  0  0  0  0
  7  2  1  0  0  0  0
  8  4  1  0  0  0  0
 10  6  2  0  0  0  0
 11 15  1  0  0  0  0
 12 16  2  0  0  0  0
 13 18  1  0  0  0  0
 15 19  1  0  0  0  0
 16 11  1  0  0  0  0
 16 13  1  0  0  0  0
 18 14  1  0  0  0  0
 18 17  1  0  0  0  0
 19 17  1  0  0  0  0
 20 11  1  0  0  0  0
 22 21  2  0  0  0  0
 23 10  1  0  0  0  0
 24 23  1  0  0  0  0
 25 24  1  0  0  0  0
 26 24  1  0  0  0  0
 27 26  1  0  0  0  0
 28 30  1  0  0  0  0
 29 27  1  0  0  0  0
 29 33  1  0  0  0  0
 30 29  1  0  0  0  0
 31 32  1  0  0  0  0
 32 33  1  0  0  0  0
 34 30  1  0  0  0  0
 34 31  1  0  0  0  0
M  END
>  <MODEL>
6

>  <REMARK>
 VINA RESULT:      -7.7      2.578      7.638
  Name = 
  7 active torsions:
  status: ('A' for Active; 'I' for Inactive)
    1  A    between atoms: C_1  and  C_24
    2  A    between atoms: C_3  and  C_13
    3  A    between atoms: C_3  and  C_17
    4  A    between atoms: C_4  and  C_21
    5  A    between atoms: C_5  and  C_18
    6  A    between atoms: C_5  and  C_31
    7  A    between atoms: C_17  and  C_18
                            x       y       z     vdW  Elec       q    Type
                         _______ _______ _______ _____ _____    ______ ____

>  <TORSDO>
F 7

$$$$
=
 OpenBabel11052419003D

 34 37  0  0  1  0  0  0  0  0999 V2000
  189.4860  176.0780  142.9660 C   0  0  2  0  0  3  0  0  0  0  0  0
  190.2360  173.7500  142.2730 C   0  0  1  0  0  3  0  0  0  0  0  0
  191.6150  175.0690  143.9570 C   0  0  1  0  0  3  0  0  0  0  0  0
  188.0570  174.8440  141.7320 C   0  0  0  0  0  2  0  0  0  0  0  0
  189.0920  173.8260  141.2600 C   0  0  0  0  0  2  0  0  0  0  0  0
  190.0850  173.3170  144.8020 C   0  0  0  0  0  3  0  0  0  0  0  0
  190.7010  175.1580  142.7190 C   0  0  2  0  0  3  0  0  0  0  0  0
  188.6600  176.1080  141.8270 O   0  0  0  0  0  0  0  0  0  0  0  0
  189.8850  172.7730  143.4120 C   0  0  0  0  0  2  0  0  0  0  0  0
  190.9150  174.3360  145.0730 C   0  0  0  0  0  0  0  0  0  0  0  0
  194.0980  175.1730  144.3050 N   0  0  0  0  0  0  0  0  0  0  0  0
  196.4040  175.2910  144.6900 O   0  0  0  0  0  0  0  0  0  0  0  0
  195.6700  173.2100  143.7980 C   0  0  0  0  0  2  0  0  0  0  0  0
  196.0180  173.9040  141.3820 C   0  0  0  0  0  1  0  0  0  0  0  0
  192.9940  174.4430  143.6690 C   0  0  2  0  0  3  0  0  0  0  0  0
  195.4230  174.6120  144.2840 C   0  0  0  0  0  0  0  0  0  0  0  0
  193.7550  173.0330  142.1250 C   0  0  0  0  0  2  0  0  0  0  0  0
  195.2710  172.9810  142.3370 C   0  0  2  0  0  3  0  0  0  0  0  0
  193.2530  174.3300  142.2960 O   0  0  0  0  0  0  0  0  0  0  0  0
  193.9110  176.5180  144.8440 C   0  0  0  0  0  1  0  0  0  0  0  0
  189.9350  177.4690  143.2840 C   0  0  0  0  0  3  0  0  0  0  0  0
  190.9360  177.9290  142.7630 O   0  0  0  0  0  0  0  0  0  0  0  0
  191.0030  174.8690  146.4720 C   0  0  0  0  0  2  0  0  0  0  0  0
  190.2370  176.1810  146.6500 C   0  0  2  0  0  3  0  0  0  0  0  0
  190.8220  176.9360  147.8270 C   0  0  0  0  0  1  0  0  0  0  0  0
  188.7600  175.9360  146.9110 C   0  0  0  0  0  2  0  0  0  0  0  0
  187.9030  177.0240  146.2860 C   0  0  0  0  0  2  0  0  0  0  0  0
  185.9460  176.7950  144.0230 C   0  0  0  0  0  1  0  0  0  0  0  0
  186.4120  176.7850  146.5300 C   0  0  2  0  0  3  0  0  0  0  0  0
  185.5370  177.3230  145.3860 C   0  0  1  0  0  3  0  0  0  0  0  0
  185.0050  179.3090  146.6250 O   0  0  0  0  0  0  0  0  0  0  0  0
  185.9410  178.9910  147.6300 C   0  0  0  0  0  2  0  0  0  0  0  0
  186.0060  177.4730  147.8360 C   0  0  0  0  0  2  0  0  0  0  0  0
  185.5370  178.8510  145.4060 C   0  0  0  0  0  2  0  0  0  0  0  0
  1 21  1  6  0  0  0
  2  5  1  6  0  0  0
  2  7  1  0  0  0  0
  2  9  1  0  0  0  0
  3 10  1  1  0  0  0
  4  8  1  0  0  0  0
  5  4  1  0  0  0  0
  6 10  2  0  0  0  0
  7  1  1  0  0  0  0
  7  3  1  0  0  0  0
  8  1  1  0  0  0  0
  9  6  1  0  0  0  0
 10 23  1  0  0  0  0
 11 20  1  0  0  0  0
 13 16  1  0  0  0  0
 14 18  1  0  0  0  0
 15  3  1  0  0  0  0
 15 11  1  0  0  0  0
 16 11  1  0  0  0  0
 16 12  2  0  0  0  0
 17 19  1  0  0  0  0
 17 18  1  0  0  0  0
 18 13  1  0  0  0  0
 19 15  1  0  0  0  0
 22 21  2  0  0  0  0
 23 24  1  0  0  0  0
 24 26  1  0  0  0  0
 24 25  1  0  0  0  0
 27 29  1  0  0  0  0
 27 26  1  0  0  0  0
 28 30  1  0  0  0  0
 29 33  1  0  0  0  0
 30 34  1  0  0  0  0
 30 29  1  0  0  0  0
 31 32  1  0  0  0  0
 32 33  1  0  0  0  0
 34 31  1  0  0  0  0
M  END
>  <MODEL>
7

>  <REMARK>
 VINA RESULT:      -7.5      1.561      2.271
  Name = 
  7 active torsions:
  status: ('A' for Active; 'I' for Inactive)
    1  A    between atoms: C_1  and  C_24
    2  A    between atoms: C_3  and  C_13
    3  A    between atoms: C_3  and  C_17
    4  A    between atoms: C_4  and  C_21
    5  A    between atoms: C_5  and  C_18
    6  A    between atoms: C_5  and  C_31
    7  A    between atoms: C_17  and  C_18
                            x       y       z     vdW  Elec       q    Type
                         _______ _______ _______ _____ _____    ______ ____

>  <TORSDO>
F 7

$$$$
=
 OpenBabel11052419003D

 34 37  0  0  1  0  0  0  0  0999 V2000
  190.8760  172.9250  141.2760 C   0  0  2  0  0  3  0  0  0  0  0  0
  191.4770  172.3170  143.6700 C   0  0  1  0  0  3  0  0  0  0  0  0
  191.7550  174.7180  142.8730 C   0  0  1  0  0  3  0  0  0  0  0  0
  190.3010  170.8710  142.0070 C   0  0  0  0  0  2  0  0  0  0  0  0
  191.2160  170.8750  143.2300 C   0  0  0  0  0  2  0  0  0  0  0  0
  189.7530  174.1440  144.2100 C   0  0  0  0  0  3  0  0  0  0  0  0
  191.8110  173.2320  142.4660 C   0  0  2  0  0  3  0  0  0  0  0  0
  190.9290  171.5560  140.9560 O   0  0  0  0  0  0  0  0  0  0  0  0
  190.3460  172.8130  144.5910 C   0  0  0  0  0  2  0  0  0  0  0  0
  190.4090  175.0480  143.4660 C   0  0  0  0  0  0  0  0  0  0  0  0
  194.0080  175.7950  143.1190 N   0  0  0  0  0  0  0  0  0  0  0  0
  196.0940  176.8420  143.3010 O   0  0  0  0  0  0  0  0  0  0  0  0
  194.9470  176.5860  145.3710 C   0  0  0  0  0  2  0  0  0  0  0  0
  196.0050  174.3410  145.9000 C   0  0  0  0  0  1  0  0  0  0  0  0
  192.8920  175.1470  143.8200 C   0  0  2  0  0  3  0  0  0  0  0  0
  195.0590  176.4160  143.8810 C   0  0  0  0  0  0  0  0  0  0  0  0
  193.4800  174.5660  145.8870 C   0  0  0  0  0  2  0  0  0  0  0  0
  194.8190  175.2670  146.1380 C   0  0  2  0  0  3  0  0  0  0  0  0
  193.3890  174.0770  144.5760 O   0  0  0  0  0  0  0  0  0  0  0  0
  194.1460  175.7120  141.6670 C   0  0  0  0  0  1  0  0  0  0  0  0
  191.2710  173.7270  140.0770 C   0  0  0  0  0  3  0  0  0  0  0  0
  191.9420  173.2240  139.1910 O   0  0  0  0  0  0  0  0  0  0  0  0
  189.7200  176.3200  143.0660 C   0  0  0  0  0  2  0  0  0  0  0  0
  188.2570  176.1000  142.6830 C   0  0  2  0  0  3  0  0  0  0  0  0
  188.1910  175.5970  141.2560 C   0  0  0  0  0  1  0  0  0  0  0  0
  187.4520  177.3860  142.7860 C   0  0  0  0  0  2  0  0  0  0  0  0
  186.4000  177.2910  143.8780 C   0  0  0  0  0  2  0  0  0  0  0  0
  187.6720  176.4430  146.4600 C   0  0  0  0  0  1  0  0  0  0  0  0
  186.6650  178.2840  145.0110 C   0  0  2  0  0  3  0  0  0  0  0  0
  186.6980  177.6050  146.3900 C   0  0  1  0  0  3  0  0  0  0  0  0
  184.4460  178.2890  146.8640 O   0  0  0  0  0  0  0  0  0  0  0  0
  184.2600  178.7590  145.5480 C   0  0  0  0  0  2  0  0  0  0  0  0
  185.5660  179.3510  145.0040 C   0  0  0  0  0  2  0  0  0  0  0  0
  185.2880  177.1660  146.7860 C   0  0  0  0  0  2  0  0  0  0  0  0
  1 21  1  6  0  0  0
  1  7  1  0  0  0  0
  2  5  1  6  0  0  0
  2  9  1  0  0  0  0
  3 10  1  1  0  0  0
  3 15  1  0  0  0  0
  4  5  1  0  0  0  0
  6  9  1  0  0  0  0
  7  3  1  0  0  0  0
  7  2  1  0  0  0  0
  8  1  1  0  0  0  0
  8  4  1  0  0  0  0
 10  6  2  0  0  0  0
 11 15  1  0  0  0  0
 11 16  1  0  0  0  0
 12 16  2  0  0  0  0
 13 18  1  0  0  0  0
 14 18  1  0  0  0  0
 15 19  1  0  0  0  0
 16 13  1  0  0  0  0
 17 18  1  0  0  0  0
 19 17  1  0  0  0  0
 20 11  1  0  0  0  0
 22 21  2  0  0  0  0
 23 10  1  0  0  0  0
 24 26  1  0  0  0  0
 24 23  1  0  0  0  0
 25 24  1  0  0  0  0
 26 27  1  0  0  0  0
 27 29  1  0  0  0  0
 29 30  1  0  0  0  0
 30 28  1  0  0  0  0
 30 34  1  0  0  0  0
 32 31  1  0  0  0  0
 33 29  1  0  0  0  0
 33 32  1  0  0  0  0
 34 31  1  0  0  0  0
M  END
>  <MODEL>
8

>  <REMARK>
 VINA RESULT:      -7.4      1.879      2.832
  Name = 
  7 active torsions:
  status: ('A' for Active; 'I' for Inactive)
    1  A    between atoms: C_1  and  C_24
    2  A    between atoms: C_3  and  C_13
    3  A    between atoms: C_3  and  C_17
    4  A    between atoms: C_4  and  C_21
    5  A    between atoms: C_5  and  C_18
    6  A    between atoms: C_5  and  C_31
    7  A    between atoms: C_17  and  C_18
                            x       y       z     vdW  Elec       q    Type
                         _______ _______ _______ _____ _____    ______ ____

>  <TORSDO>
F 7

$$$$
=
 OpenBabel11052419003D

 34 37  0  0  1  0  0  0  0  0999 V2000
  190.6140  172.7730  141.3910 C   0  0  2  0  0  3  0  0  0  0  0  0
  192.1460  171.5650  143.0210 C   0  0  1  0  0  3  0  0  0  0  0  0
  191.5590  174.0090  143.4190 C   0  0  1  0  0  3  0  0  0  0  0  0
  190.8280  170.5390  141.1630 C   0  0  0  0  0  2  0  0  0  0  0  0
  192.0870  170.4120  142.0160 C   0  0  0  0  0  2  0  0  0  0  0  0
  190.3500  172.2810  144.7140 C   0  0  0  0  0  3  0  0  0  0  0  0
  191.8100  172.9230  142.3550 C   0  0  2  0  0  3  0  0  0  0  0  0
  190.8660  171.7520  140.4570 O   0  0  0  0  0  0  0  0  0  0  0  0
  191.3310  171.2230  144.2830 C   0  0  0  0  0  2  0  0  0  0  0  0
  190.4720  173.5720  144.3670 C   0  0  0  0  0  0  0  0  0  0  0  0
  192.9170  175.8810  144.3940 N   0  0  0  0  0  0  0  0  0  0  0  0
  194.1280  177.6570  145.3200 O   0  0  0  0  0  0  0  0  0  0  0  0
  194.7970  175.5100  146.0990 C   0  0  0  0  0  2  0  0  0  0  0  0
  196.5730  175.2040  144.3120 C   0  0  0  0  0  1  0  0  0  0  0  0
  192.8250  174.4290  144.1910 C   0  0  2  0  0  3  0  0  0  0  0  0
  193.9410  176.4120  145.2530 C   0  0  0  0  0  0  0  0  0  0  0  0
  194.7750  173.4420  144.6090 C   0  0  0  0  0  2  0  0  0  0  0  0
  195.6320  174.5120  145.2910 C   0  0  2  0  0  3  0  0  0  0  0  0
  194.0000  173.9810  143.5730 O   0  0  0  0  0  0  0  0  0  0  0  0
  192.0760  176.8090  143.6420 C   0  0  0  0  0  1  0  0  0  0  0  0
  190.3620  174.0550  140.6620 C   0  0  0  0  0  3  0  0  0  0  0  0
  189.2250  174.4730  140.5210 O   0  0  0  0  0  0  0  0  0  0  0  0
  189.4120  174.5530  144.7740 C   0  0  0  0  0  2  0  0  0  0  0  0
  189.7950  175.3480  146.0230 C   0  0  2  0  0  3  0  0  0  0  0  0
  189.2920  174.6130  147.2480 C   0  0  0  0  0  1  0  0  0  0  0  0
  189.1900  176.7420  146.0060 C   0  0  0  0  0  2  0  0  0  0  0  0
  187.8250  176.7430  145.3400 C   0  0  0  0  0  2  0  0  0  0  0  0
  185.9730  179.0570  145.8100 C   0  0  0  0  0  1  0  0  0  0  0  0
  187.6850  177.8820  144.3290 C   0  0  2  0  0  3  0  0  0  0  0  0
  186.3150  178.5750  144.4120 C   0  0  1  0  0  3  0  0  0  0  0  0
  185.4940  177.3430  142.5230 O   0  0  0  0  0  0  0  0  0  0  0  0
  186.6390  176.5200  142.5000 C   0  0  0  0  0  2  0  0  0  0  0  0
  187.8780  177.3220  142.9180 C   0  0  0  0  0  2  0  0  0  0  0  0
  185.2300  177.6450  143.8700 C   0  0  0  0  0  2  0  0  0  0  0  0
  1 21  1  6  0  0  0
  1  7  1  0  0  0  0
  2  5  1  6  0  0  0
  2  9  1  0  0  0  0
  3 15  1  0  0  0  0
  3 10  1  1  0  0  0
  4  5  1  0  0  0  0
  7  2  1  0  0  0  0
  7  3  1  0  0  0  0
  8  4  1  0  0  0  0
  8  1  1  0  0  0  0
  9  6  1  0  0  0  0
 10  6  2  0  0  0  0
 10 23  1  0  0  0  0
 11 16  1  0  0  0  0
 14 18  1  0  0  0  0
 15 11  1  0  0  0  0
 16 12  2  0  0  0  0
 16 13  1  0  0  0  0
 17 18  1  0  0  0  0
 18 13  1  0  0  0  0
 19 15  1  0  0  0  0
 19 17  1  0  0  0  0
 20 11  1  0  0  0  0
 22 21  2  0  0  0  0
 23 24  1  0  0  0  0
 24 25  1  0  0  0  0
 26 24  1  0  0  0  0
 27 26  1  0  0  0  0
 29 30  1  0  0  0  0
 29 27  1  0  0  0  0
 30 28  1  0  0  0  0
 31 34  1  0  0  0  0
 32 31  1  0  0  0  0
 32 33  1  0  0  0  0
 33 29  1  0  0  0  0
 34 30  1  0  0  0  0
M  END
>  <MODEL>
9

>  <REMARK>
 VINA RESULT:      -7.3      1.475      2.043
  Name = 
  7 active torsions:
  status: ('A' for Active; 'I' for Inactive)
    1  A    between atoms: C_1  and  C_24
    2  A    between atoms: C_3  and  C_13
    3  A    between atoms: C_3  and  C_17
    4  A    between atoms: C_4  and  C_21
    5  A    between atoms: C_5  and  C_18
    6  A    between atoms: C_5  and  C_31
    7  A    between atoms: C_17  and  C_18
                            x       y       z     vdW  Elec       q    Type
                         _______ _______ _______ _____ _____    ______ ____

>  <TORSDO>
F 7

$$$$
