=
 OpenBabel11052417273D

 25 28  0  0  1  0  0  0  0  0999 V2000
  185.8360  177.4430  143.7450 C   0  0  0  0  0  0  0  0  0  0  0  0
  186.6720  176.7960  142.8360 C   0  0  0  0  0  0  0  0  0  0  0  0
  184.5570  178.4370  141.9660 C   0  0  0  0  0  3  0  0  0  0  0  0
  185.7920  177.4770  145.1180 C   0  0  0  0  0  0  0  0  0  0  0  0
  185.1810  177.9540  147.7730 C   0  0  0  0  0  3  0  0  0  0  0  0
  185.3730  177.8090  141.0670 N   0  0  0  0  0  0  0  0  0  0  0  0
  184.7320  178.2990  145.4430 C   0  0  1  0  0  3  0  0  0  0  0  0
  184.4010  178.5580  146.7710 C   0  0  0  0  0  3  0  0  0  0  0  0
  187.2340  176.3740  140.5150 C   0  0  0  0  0  0  0  0  0  0  0  0
  187.0110  176.5600  139.1210 N   0  0  0  0  0  1  0  0  0  0  0  0
  187.7300  175.9770  143.2310 C   0  0  0  0  0  3  0  0  0  0  0  0
  186.2650  177.1140  147.4340 C   0  0  0  0  0  3  0  0  0  0  0  0
  184.7990  178.2470  143.3240 C   0  0  0  0  0  0  0  0  0  0  0  0
  184.1020  178.7870  144.3500 N   0  0  0  0  0  0  0  0  0  0  0  0
  188.2590  175.5820  140.9330 N   0  0  0  0  0  0  0  0  0  0  0  0
  186.5850  176.8660  146.0880 C   0  0  0  0  0  3  0  0  0  0  0  0
  188.5170  175.3660  142.2520 C   0  0  0  0  0  0  0  0  0  0  0  0
  186.4110  177.0040  141.4590 C   0  0  0  0  0  0  0  0  0  0  0  0
  189.6690  174.5130  142.6550 C   0  0  0  0  0  2  0  0  0  0  0  0
  190.2730  175.0390  143.8770 N   0  0  0  0  0  0  0  0  0  0  0  0
  191.6030  175.5250  143.5220 C   0  0  0  0  0  1  0  0  0  0  0  0
  189.5840  174.4300  146.1580 C   0  0  0  0  0  1  0  0  0  0  0  0
  190.3650  173.9980  144.9250 C   0  0  0  0  0  0  0  0  0  0  0  0
  191.6990  173.8350  145.3080 O   0  0  0  0  0  1  0  0  0  0  0  0
  189.8250  172.6460  144.4580 C   0  0  0  0  0  1  0  0  0  0  0  0
  1  4  2  0  0  0  0
  2 11  1  0  0  0  0
  2  1  1  0  0  0  0
  3 13  1  0  0  0  0
  4  7  1  0  0  0  0
  4 16  1  0  0  0  0
  6 18  1  0  0  0  0
  6  3  2  0  0  0  0
  7  8  1  6  0  0  0
  8  5  2  0  0  0  0
  9 15  2  0  0  0  0
  9 18  1  0  0  0  0
 10  9  1  0  0  0  0
 12  5  1  0  0  0  0
 13  1  1  0  0  0  0
 13 14  2  0  0  0  0
 14  7  1  0  0  0  0
 15 17  1  0  0  0  0
 16 12  2  0  0  0  0
 17 19  1  0  0  0  0
 17 11  2  0  0  0  0
 18  2  2  0  0  0  0
 19 20  1  0  0  0  0
 20 23  1  0  0  0  0
 21 20  1  0  0  0  0
 23 24  1  0  0  0  0
 23 22  1  0  0  0  0
 25 23  1  0  0  0  0
M  END
>  <MODEL>
1

>  <REMARK>
 VINA RESULT:      -7.5      0.000      0.000
  Name = 
  3 active torsions:
  status: ('A' for Active; 'I' for Inactive)
    1  A    between atoms: C_6  and  N_15
    2  A    between atoms: C_6  and  C_23
    3  A    between atoms: C_7  and  N_15
                            x       y       z     vdW  Elec       q    Type
                         _______ _______ _______ _____ _____    ______ ____

>  <TORSDO>
F 3

$$$$
=
 OpenBabel11052417273D

 25 28  0  0  1  0  0  0  0  0999 V2000
  186.9250  176.7200  144.3530 C   0  0  0  0  0  0  0  0  0  0  0  0
  188.0810  175.9870  144.0860 C   0  0  0  0  0  0  0  0  0  0  0  0
  186.2890  176.6910  142.0340 C   0  0  0  0  0  3  0  0  0  0  0  0
  186.3920  177.2400  145.5070 C   0  0  0  0  0  0  0  0  0  0  0  0
  184.8360  178.5030  147.4140 C   0  0  0  0  0  3  0  0  0  0  0  0
  187.4210  175.9750  141.7610 N   0  0  0  0  0  0  0  0  0  0  0  0
  185.2220  177.8690  145.1340 C   0  0  1  0  0  3  0  0  0  0  0  0
  184.4170  178.5140  146.0710 C   0  0  0  0  0  3  0  0  0  0  0  0
  189.4680  174.8850  142.4300 C   0  0  0  0  0  0  0  0  0  0  0  0
  189.7430  174.4970  141.0870 N   0  0  0  0  0  1  0  0  0  0  0  0
  188.9930  175.6220  145.0780 C   0  0  0  0  0  3  0  0  0  0  0  0
  186.0340  177.8580  147.7900 C   0  0  0  0  0  3  0  0  0  0  0  0
  186.0450  177.0660  143.3510 C   0  0  0  0  0  0  0  0  0  0  0  0
  184.9850  177.7750  143.8050 N   0  0  0  0  0  0  0  0  0  0  0  0
  190.3380  174.5450  143.4200 N   0  0  0  0  0  0  0  0  0  0  0  0
  186.8330  177.2140  146.8290 C   0  0  0  0  0  3  0  0  0  0  0  0
  190.1250  174.8860  144.7210 C   0  0  0  0  0  0  0  0  0  0  0  0
  188.3130  175.6170  142.7390 C   0  0  0  0  0  0  0  0  0  0  0  0
  191.1230  174.5140  145.7610 C   0  0  0  0  0  2  0  0  0  0  0  0
  192.4740  174.7920  145.2750 N   0  0  0  0  0  0  0  0  0  0  0  0
  193.2900  173.6220  145.5890 C   0  0  0  0  0  1  0  0  0  0  0  0
  192.2310  176.3630  147.1500 C   0  0  0  0  0  1  0  0  0  0  0  0
  193.0390  176.0020  145.9110 C   0  0  0  0  0  0  0  0  0  0  0  0
  192.9550  177.0800  145.0260 O   0  0  0  0  0  1  0  0  0  0  0  0
  194.5000  175.8220  146.3220 C   0  0  0  0  0  1  0  0  0  0  0  0
  1  4  2  0  0  0  0
  2  1  1  0  0  0  0
  2 11  1  0  0  0  0
  3 13  1  0  0  0  0
  4 16  1  0  0  0  0
  5 12  1  0  0  0  0
  6  3  2  0  0  0  0
  6 18  1  0  0  0  0
  7  4  1  0  0  0  0
  7  8  1  6  0  0  0
  8  5  2  0  0  0  0
  9 18  1  0  0  0  0
  9 15  2  0  0  0  0
 10  9  1  0  0  0  0
 13 14  2  0  0  0  0
 13  1  1  0  0  0  0
 14  7  1  0  0  0  0
 15 17  1  0  0  0  0
 16 12  2  0  0  0  0
 17 11  2  0  0  0  0
 17 19  1  0  0  0  0
 18  2  2  0  0  0  0
 20 21  1  0  0  0  0
 20 19  1  0  0  0  0
 20 23  1  0  0  0  0
 23 25  1  0  0  0  0
 23 22  1  0  0  0  0
 24 23  1  0  0  0  0
M  END
>  <MODEL>
2

>  <REMARK>
 VINA RESULT:      -7.4      1.842      2.751
  Name = 
  3 active torsions:
  status: ('A' for Active; 'I' for Inactive)
    1  A    between atoms: C_6  and  N_15
    2  A    between atoms: C_6  and  C_23
    3  A    between atoms: C_7  and  N_15
                            x       y       z     vdW  Elec       q    Type
                         _______ _______ _______ _____ _____    ______ ____

>  <TORSDO>
F 3

$$$$
=
 OpenBabel11052417273D

 25 28  0  0  1  0  0  0  0  0999 V2000
  185.8170  177.9860  143.6710 C   0  0  0  0  0  0  0  0  0  0  0  0
  186.6230  177.8130  144.7960 C   0  0  2  0  0  3  0  0  0  0  0  0
  183.9930  178.7880  145.0190 C   0  0  0  0  0  3  0  0  0  0  0  0
  186.0220  177.7690  142.3310 C   0  0  0  0  0  0  0  0  0  0  0  0
  185.7990  177.5540  139.5810 C   0  0  0  0  0  3  0  0  0  0  0  0
  184.7740  178.6200  146.1270 N   0  0  0  0  0  0  0  0  0  0  0  0
  184.8450  178.1280  141.7050 C   0  0  0  0  0  0  0  0  0  0  0  0
  184.7030  178.0310  140.3220 C   0  0  0  0  0  3  0  0  0  0  0  0
  186.8370  177.9810  147.2050 C   0  0  0  0  0  0  0  0  0  0  0  0
  186.3070  178.2980  148.4890 N   0  0  0  0  0  1  0  0  0  0  0  0
  187.9310  177.3310  144.7240 C   0  0  0  0  0  3  0  0  0  0  0  0
  187.0000  177.1870  140.2270 C   0  0  0  0  0  3  0  0  0  0  0  0
  184.5290  178.4630  143.7760 C   0  0  0  0  0  0  0  0  0  0  0  0
  183.9070  178.5610  142.5780 N   0  0  0  0  0  0  0  0  0  0  0  0
  188.1090  177.5060  147.1020 N   0  0  0  0  0  0  0  0  0  0  0  0
  187.1240  177.2920  141.6240 C   0  0  0  0  0  3  0  0  0  0  0  0
  188.6680  177.1900  145.9020 C   0  0  0  0  0  0  0  0  0  0  0  0
  186.0590  178.1470  146.0520 C   0  0  0  0  0  0  0  0  0  0  0  0
  190.0540  176.6480  145.8470 C   0  0  0  0  0  2  0  0  0  0  0  0
  190.3780  176.2500  144.4780 N   0  0  0  0  0  0  0  0  0  0  0  0
  190.6080  174.8080  144.4950 C   0  0  0  0  0  1  0  0  0  0  0  0
  192.1640  176.2160  142.7890 C   0  0  0  0  0  1  0  0  0  0  0  0
  191.5770  176.9600  143.9800 C   0  0  0  0  0  0  0  0  0  0  0  0
  192.5530  176.9900  144.9790 O   0  0  0  0  0  1  0  0  0  0  0  0
  191.2730  178.3960  143.5520 C   0  0  0  0  0  1  0  0  0  0  0  0
  1 13  1  0  0  0  0
  1  2  1  0  0  0  0
  2 11  1  1  0  0  0
  2 18  1  0  0  0  0
  3  6  1  0  0  0  0
  4  1  2  0  0  0  0
  5 12  1  0  0  0  0
  5  8  2  0  0  0  0
  7  4  1  0  0  0  0
  7 14  2  0  0  0  0
  8  7  1  0  0  0  0
  9 10  1  0  0  0  0
 11 17  2  0  0  0  0
 12 16  2  0  0  0  0
 13  3  2  0  0  0  0
 14 13  1  0  0  0  0
 15  9  2  0  0  0  0
 16  4  1  0  0  0  0
 17 15  1  0  0  0  0
 18  6  2  0  0  0  0
 18  9  1  0  0  0  0
 19 17  1  0  0  0  0
 20 21  1  0  0  0  0
 20 19  1  0  0  0  0
 22 23  1  0  0  0  0
 23 20  1  0  0  0  0
 23 24  1  0  0  0  0
 25 23  1  0  0  0  0
M  END
>  <MODEL>
3

>  <REMARK>
 VINA RESULT:      -7.1      2.051      4.782
  Name = 
  3 active torsions:
  status: ('A' for Active; 'I' for Inactive)
    1  A    between atoms: C_6  and  N_15
    2  A    between atoms: C_6  and  C_23
    3  A    between atoms: C_7  and  N_15
                            x       y       z     vdW  Elec       q    Type
                         _______ _______ _______ _____ _____    ______ ____

>  <TORSDO>
F 3

$$$$
=
 OpenBabel11052417273D

 25 28  0  0  1  0  0  0  0  0999 V2000
  187.1420  176.8730  144.0600 C   0  0  0  0  0  0  0  0  0  0  0  0
  188.1300  175.9470  143.7280 C   0  0  0  0  0  0  0  0  0  0  0  0
  186.4180  177.0240  141.7710 C   0  0  0  0  0  3  0  0  0  0  0  0
  186.7620  177.4510  145.2460 C   0  0  0  0  0  0  0  0  0  0  0  0
  185.5460  178.9280  147.2450 C   0  0  0  0  0  3  0  0  0  0  0  0
  187.3850  176.1190  141.4340 N   0  0  0  0  0  0  0  0  0  0  0  0
  185.7140  178.2960  144.9380 C   0  0  1  0  0  3  0  0  0  0  0  0
  185.0820  179.0520  145.9220 C   0  0  0  0  0  3  0  0  0  0  0  0
  189.2200  174.6530  141.9910 C   0  0  0  0  0  0  0  0  0  0  0  0
  189.3640  174.2560  140.6300 N   0  0  0  0  0  1  0  0  0  0  0  0
  188.9980  175.3930  144.6700 C   0  0  0  0  0  3  0  0  0  0  0  0
  186.6180  178.0640  147.5540 C   0  0  0  0  0  3  0  0  0  0  0  0
  186.3010  177.4020  143.1060 C   0  0  0  0  0  0  0  0  0  0  0  0
  185.4110  178.2820  143.6190 N   0  0  0  0  0  0  0  0  0  0  0  0
  190.0520  174.1320  142.9340 N   0  0  0  0  0  0  0  0  0  0  0  0
  187.2440  177.3090  146.5470 C   0  0  0  0  0  3  0  0  0  0  0  0
  189.9580  174.4710  144.2490 C   0  0  0  0  0  0  0  0  0  0  0  0
  188.2350  175.5760  142.3640 C   0  0  0  0  0  0  0  0  0  0  0  0
  190.9120  173.8940  145.2360 C   0  0  0  0  0  2  0  0  0  0  0  0
  192.2800  174.2740  144.8870 N   0  0  0  0  0  0  0  0  0  0  0  0
  193.0860  173.0580  144.9320 C   0  0  0  0  0  1  0  0  0  0  0  0
  192.7740  176.6640  145.1820 C   0  0  0  0  0  1  0  0  0  0  0  0
  192.8150  175.2860  145.8250 C   0  0  0  0  0  0  0  0  0  0  0  0
  194.1510  174.9960  146.1140 O   0  0  0  0  0  1  0  0  0  0  0  0
  192.0340  175.3390  147.1380 C   0  0  0  0  0  1  0  0  0  0  0  0
  1  4  2  0  0  0  0
  2  1  1  0  0  0  0
  2 11  1  0  0  0  0
  3 13  1  0  0  0  0
  4 16  1  0  0  0  0
  5 12  1  0  0  0  0
  6  3  2  0  0  0  0
  6 18  1  0  0  0  0
  7  4  1  0  0  0  0
  7  8  1  6  0  0  0
  8  5  2  0  0  0  0
  9 18  1  0  0  0  0
  9 15  2  0  0  0  0
 10  9  1  0  0  0  0
 13 14  2  0  0  0  0
 13  1  1  0  0  0  0
 14  7  1  0  0  0  0
 15 17  1  0  0  0  0
 16 12  2  0  0  0  0
 17 11  2  0  0  0  0
 17 19  1  0  0  0  0
 18  2  2  0  0  0  0
 20 21  1  0  0  0  0
 20 19  1  0  0  0  0
 20 23  1  0  0  0  0
 22 23  1  0  0  0  0
 23 24  1  0  0  0  0
 23 25  1  0  0  0  0
M  END
>  <MODEL>
4

>  <REMARK>
 VINA RESULT:      -7.1      1.610      2.496
  Name = 
  3 active torsions:
  status: ('A' for Active; 'I' for Inactive)
    1  A    between atoms: C_6  and  N_15
    2  A    between atoms: C_6  and  C_23
    3  A    between atoms: C_7  and  N_15
                            x       y       z     vdW  Elec       q    Type
                         _______ _______ _______ _____ _____    ______ ____

>  <TORSDO>
F 3

$$$$
=
 OpenBabel11052417273D

 25 28  0  0  1  0  0  0  0  0999 V2000
  185.7470  177.5510  143.9000 C   0  0  0  0  0  0  0  0  0  0  0  0
  186.4730  177.0340  142.8280 C   0  0  0  0  0  0  0  0  0  0  0  0
  184.2050  178.6460  142.4130 C   0  0  0  0  0  3  0  0  0  0  0  0
  185.8890  177.4530  145.2620 C   0  0  0  0  0  0  0  0  0  0  0  0
  185.6290  177.6470  148.0100 C   0  0  0  0  0  3  0  0  0  0  0  0
  184.9120  178.1460  141.3560 N   0  0  0  0  0  0  0  0  0  0  0  0
  184.8560  178.1890  145.8060 C   0  0  1  0  0  3  0  0  0  0  0  0
  184.6990  178.3050  147.1850 C   0  0  0  0  0  3  0  0  0  0  0  0
  186.7280  176.8600  140.4230 C   0  0  0  0  0  0  0  0  0  0  0  0
  186.3120  177.1660  139.0960 N   0  0  0  0  0  1  0  0  0  0  0  0
  187.6030  176.2310  142.9960 C   0  0  0  0  0  3  0  0  0  0  0  0
  186.6850  176.8960  147.4490 C   0  0  0  0  0  3  0  0  0  0  0  0
  184.6350  178.3410  143.7010 C   0  0  0  0  0  0  0  0  0  0  0  0
  184.0660  178.7480  144.8600 N   0  0  0  0  0  0  0  0  0  0  0  0
  187.8280  176.0810  140.6200 N   0  0  0  0  0  0  0  0  0  0  0  0
  186.8270  176.7910  146.0540 C   0  0  0  0  0  3  0  0  0  0  0  0
  188.2700  175.7540  141.8650 C   0  0  0  0  0  0  0  0  0  0  0  0
  186.0210  177.3570  141.5260 C   0  0  0  0  0  0  0  0  0  0  0  0
  189.4950  174.9230  142.0250 C   0  0  0  0  0  2  0  0  0  0  0  0
  189.1300  173.5090  142.1010 N   0  0  0  0  0  0  0  0  0  0  0  0
  189.6670  172.9970  143.3590 C   0  0  0  0  0  1  0  0  0  0  0  0
  190.8150  173.5270  140.3110 C   0  0  0  0  0  1  0  0  0  0  0  0
  189.6780  172.7480  140.9560 C   0  0  0  0  0  0  0  0  0  0  0  0
  188.6850  172.5760  139.9900 O   0  0  0  0  0  1  0  0  0  0  0  0
  190.2040  171.3720  141.3650 C   0  0  0  0  0  1  0  0  0  0  0  0
  1  4  2  0  0  0  0
  2 11  1  0  0  0  0
  2  1  1  0  0  0  0
  3 13  1  0  0  0  0
  4  7  1  0  0  0  0
  4 16  1  0  0  0  0
  6 18  1  0  0  0  0
  6  3  2  0  0  0  0
  7  8  1  6  0  0  0
  8  5  2  0  0  0  0
  9 15  2  0  0  0  0
  9 18  1  0  0  0  0
 10  9  1  0  0  0  0
 12  5  1  0  0  0  0
 13  1  1  0  0  0  0
 13 14  2  0  0  0  0
 14  7  1  0  0  0  0
 15 17  1  0  0  0  0
 16 12  2  0  0  0  0
 17 19  1  0  0  0  0
 17 11  2  0  0  0  0
 18  2  2  0  0  0  0
 19 20  1  0  0  0  0
 20 21  1  0  0  0  0
 22 23  1  0  0  0  0
 23 25  1  0  0  0  0
 23 20  1  0  0  0  0
 24 23  1  0  0  0  0
M  END
>  <MODEL>
5

>  <REMARK>
 VINA RESULT:      -6.9      1.762      2.257
  Name = 
  3 active torsions:
  status: ('A' for Active; 'I' for Inactive)
    1  A    between atoms: C_6  and  N_15
    2  A    between atoms: C_6  and  C_23
    3  A    between atoms: C_7  and  N_15
                            x       y       z     vdW  Elec       q    Type
                         _______ _______ _______ _____ _____    ______ ____

>  <TORSDO>
F 3

$$$$
=
 OpenBabel11052417273D

 25 28  0  0  1  0  0  0  0  0999 V2000
  189.8680  175.8630  143.9690 C   0  0  0  0  0  0  0  0  0  0  0  0
  188.7920  176.4970  143.3500 C   0  0  0  0  0  0  0  0  0  0  0  0
  190.3420  174.5840  141.9880 C   0  0  0  0  0  3  0  0  0  0  0  0
  190.4140  175.9570  145.2260 C   0  0  0  0  0  0  0  0  0  0  0  0
  191.9350  175.6810  147.5200 C   0  0  0  0  0  3  0  0  0  0  0  0
  189.2880  175.1980  141.3730 N   0  0  0  0  0  0  0  0  0  0  0  0
  191.4720  175.0710  145.2480 C   0  0  2  0  0  3  0  0  0  0  0  0
  192.2560  174.9110  146.3880 C   0  0  0  0  0  3  0  0  0  0  0  0
  187.4370  176.7470  141.3550 C   0  0  0  0  0  0  0  0  0  0  0  0
  187.1180  176.4070  140.0080 N   0  0  0  0  0  1  0  0  0  0  0  0
  188.0010  177.4500  143.9940 C   0  0  0  0  0  3  0  0  0  0  0  0
  190.8510  176.5850  147.4930 C   0  0  0  0  0  3  0  0  0  0  0  0
  190.6300  174.9250  143.3060 C   0  0  0  0  0  0  0  0  0  0  0  0
  191.6260  174.4220  144.0710 N   0  0  0  0  0  0  0  0  0  0  0  0
  186.6830  177.6710  142.0110 N   0  0  0  0  0  0  0  0  0  0  0  0
  190.0710  176.7330  146.3320 C   0  0  0  0  0  3  0  0  0  0  0  0
  186.9440  178.0370  143.2960 C   0  0  0  0  0  0  0  0  0  0  0  0
  188.5140  176.1340  142.0090 C   0  0  0  0  0  0  0  0  0  0  0  0
  186.0700  179.0320  143.9780 C   0  0  0  0  0  2  0  0  0  0  0  0
  184.8690  178.3740  144.4870 N   0  0  0  0  0  0  0  0  0  0  0  0
  183.7230  179.1240  143.9810 C   0  0  0  0  0  1  0  0  0  0  0  0
  185.1240  176.9290  146.4600 C   0  0  0  0  0  1  0  0  0  0  0  0
  184.8560  178.3430  145.9660 C   0  0  0  0  0  0  0  0  0  0  0  0
  183.5930  178.7190  146.4310 O   0  0  0  0  0  1  0  0  0  0  0  0
  185.8980  179.2770  146.5820 C   0  0  0  0  0  1  0  0  0  0  0  0
  1  4  2  0  0  0  0
  2  1  1  0  0  0  0
  2 11  1  0  0  0  0
  3 13  1  0  0  0  0
  4  7  1  0  0  0  0
  4 16  1  0  0  0  0
  6  3  2  0  0  0  0
  6 18  1  0  0  0  0
  7  8  1  6  0  0  0
  8  5  2  0  0  0  0
  9 18  1  0  0  0  0
  9 15  2  0  0  0  0
 10  9  1  0  0  0  0
 12  5  1  0  0  0  0
 13  1  1  0  0  0  0
 13 14  2  0  0  0  0
 14  7  1  0  0  0  0
 15 17  1  0  0  0  0
 16 12  2  0  0  0  0
 17 19  1  0  0  0  0
 17 11  2  0  0  0  0
 18  2  2  0  0  0  0
 19 20  1  0  0  0  0
 20 23  1  0  0  0  0
 21 20  1  0  0  0  0
 23 24  1  0  0  0  0
 23 22  1  0  0  0  0
 23 25  1  0  0  0  0
M  END
>  <MODEL>
6

>  <REMARK>
 VINA RESULT:      -6.9      2.511      5.883
  Name = 
  3 active torsions:
  status: ('A' for Active; 'I' for Inactive)
    1  A    between atoms: C_6  and  N_15
    2  A    between atoms: C_6  and  C_23
    3  A    between atoms: C_7  and  N_15
                            x       y       z     vdW  Elec       q    Type
                         _______ _______ _______ _____ _____    ______ ____

>  <TORSDO>
F 3

$$$$
=
 OpenBabel11052417273D

 25 28  0  0  1  0  0  0  0  0999 V2000
  186.7520  176.8740  144.3620 C   0  0  0  0  0  0  0  0  0  0  0  0
  187.9820  176.2570  144.5870 C   0  0  2  0  0  3  0  0  0  0  0  0
  186.2740  176.9300  146.7190 C   0  0  0  0  0  3  0  0  0  0  0  0
  186.1000  177.2750  143.2220 C   0  0  0  0  0  0  0  0  0  0  0  0
  184.3150  178.2800  141.3630 C   0  0  0  0  0  3  0  0  0  0  0  0
  187.4770  176.3240  146.9500 N   0  0  0  0  0  0  0  0  0  0  0  0
  184.9060  177.8260  143.6420 C   0  0  0  0  0  0  0  0  0  0  0  0
  183.9870  178.3390  142.7300 C   0  0  0  0  0  3  0  0  0  0  0  0
  189.5570  175.3590  146.1970 C   0  0  0  0  0  0  0  0  0  0  0  0
  189.9450  175.0600  147.5350 N   0  0  0  0  0  1  0  0  0  0  0  0
  188.8540  175.9070  143.5550 C   0  0  0  0  0  3  0  0  0  0  0  0
  185.5370  177.7150  140.9390 C   0  0  0  0  0  3  0  0  0  0  0  0
  185.9130  177.2050  145.4030 C   0  0  0  0  0  0  0  0  0  0  0  0
  184.7680  177.7940  144.9870 N   0  0  0  0  0  0  0  0  0  0  0  0
  190.3850  175.0290  145.1680 N   0  0  0  0  0  0  0  0  0  0  0  0
  186.4520  177.2010  141.8750 C   0  0  0  0  0  3  0  0  0  0  0  0
  190.0680  175.2930  143.8710 C   0  0  0  0  0  0  0  0  0  0  0  0
  188.3310  175.9830  145.9320 C   0  0  0  0  0  0  0  0  0  0  0  0
  190.9970  174.8860  142.7800 C   0  0  0  0  0  2  0  0  0  0  0  0
  191.1760  173.4350  142.7970 N   0  0  0  0  0  0  0  0  0  0  0  0
  192.5920  173.1770  142.5520 C   0  0  0  0  0  1  0  0  0  0  0  0
  189.0760  172.2210  142.3960 C   0  0  0  0  0  1  0  0  0  0  0  0
  190.3440  172.7770  141.7650 C   0  0  0  0  0  0  0  0  0  0  0  0
  191.0460  171.7010  141.2140 O   0  0  0  0  0  1  0  0  0  0  0  0
  189.9470  173.7280  140.6360 C   0  0  0  0  0  1  0  0  0  0  0  0
  1  2  1  0  0  0  0
  1 13  1  0  0  0  0
  2 11  1  6  0  0  0
  2 18  1  0  0  0  0
  3  6  1  0  0  0  0
  4  7  1  0  0  0  0
  4  1  2  0  0  0  0
  5  8  2  0  0  0  0
  7 14  2  0  0  0  0
  8  7  1  0  0  0  0
  9 10  1  0  0  0  0
 11 17  2  0  0  0  0
 12  5  1  0  0  0  0
 12 16  2  0  0  0  0
 13  3  2  0  0  0  0
 14 13  1  0  0  0  0
 15  9  2  0  0  0  0
 16  4  1  0  0  0  0
 17 15  1  0  0  0  0
 18  9  1  0  0  0  0
 18  6  2  0  0  0  0
 19 20  1  0  0  0  0
 19 17  1  0  0  0  0
 21 20  1  0  0  0  0
 23 22  1  0  0  0  0
 23 20  1  0  0  0  0
 24 23  1  0  0  0  0
 25 23  1  0  0  0  0
M  END
>  <MODEL>
7

>  <REMARK>
 VINA RESULT:      -6.6      2.298      4.324
  Name = 
  3 active torsions:
  status: ('A' for Active; 'I' for Inactive)
    1  A    between atoms: C_6  and  N_15
    2  A    between atoms: C_6  and  C_23
    3  A    between atoms: C_7  and  N_15
                            x       y       z     vdW  Elec       q    Type
                         _______ _______ _______ _____ _____    ______ ____

>  <TORSDO>
F 3

$$$$
=
 OpenBabel11052417273D

 25 28  0  0  1  0  0  0  0  0999 V2000
  187.1520  177.6820  144.1830 C   0  0  0  0  0  0  0  0  0  0  0  0
  188.4730  177.4040  144.5300 C   0  0  2  0  0  3  0  0  0  0  0  0
  186.5010  177.8150  146.4950 C   0  0  0  0  0  3  0  0  0  0  0  0
  186.5090  177.8170  142.9770 C   0  0  0  0  0  0  0  0  0  0  0  0
  184.6780  178.2000  140.9390 C   0  0  0  0  0  3  0  0  0  0  0  0
  187.7930  177.5410  146.8460 N   0  0  0  0  0  0  0  0  0  0  0  0
  185.1900  178.0930  143.2790 C   0  0  0  0  0  0  0  0  0  0  0  0
  184.2450  178.2900  142.2740 C   0  0  0  0  0  3  0  0  0  0  0  0
  190.0930  177.0530  146.3000 C   0  0  0  0  0  0  0  0  0  0  0  0
  190.4410  176.9680  147.6790 N   0  0  0  0  0  1  0  0  0  0  0  0
  189.4770  177.1940  143.5840 C   0  0  0  0  0  3  0  0  0  0  0  0
  186.0270  177.9170  140.6360 C   0  0  0  0  0  3  0  0  0  0  0  0
  186.1830  177.8840  145.1420 C   0  0  0  0  0  0  0  0  0  0  0  0
  184.9640  178.1400  144.6120 N   0  0  0  0  0  0  0  0  0  0  0  0
  191.0490  176.8510  145.3520 N   0  0  0  0  0  0  0  0  0  0  0  0
  186.9660  177.7200  141.6640 C   0  0  0  0  0  3  0  0  0  0  0  0
  190.7750  176.9220  144.0210 C   0  0  0  0  0  0  0  0  0  0  0  0
  188.7760  177.3360  145.9120 C   0  0  0  0  0  0  0  0  0  0  0  0
  191.8520  176.6650  143.0250 C   0  0  0  0  0  2  0  0  0  0  0  0
  192.7570  175.6330  143.5270 N   0  0  0  0  0  0  0  0  0  0  0  0
  194.1120  176.0410  143.1660 C   0  0  0  0  0  1  0  0  0  0  0  0
  191.6780  173.4660  143.9570 C   0  0  0  0  0  1  0  0  0  0  0  0
  192.4430  174.3090  142.9460 C   0  0  0  0  0  0  0  0  0  0  0  0
  193.6290  173.6340  142.6480 O   0  0  0  0  0  1  0  0  0  0  0  0
  191.6080  174.4110  141.6700 C   0  0  0  0  0  1  0  0  0  0  0  0
  1  2  1  0  0  0  0
  1 13  1  0  0  0  0
  2 11  1  6  0  0  0
  2 18  1  0  0  0  0
  3  6  1  0  0  0  0
  4  7  1  0  0  0  0
  4  1  2  0  0  0  0
  5  8  2  0  0  0  0
  7 14  2  0  0  0  0
  8  7  1  0  0  0  0
  9 10  1  0  0  0  0
 11 17  2  0  0  0  0
 12  5  1  0  0  0  0
 12 16  2  0  0  0  0
 13  3  2  0  0  0  0
 14 13  1  0  0  0  0
 15  9  2  0  0  0  0
 16  4  1  0  0  0  0
 17 15  1  0  0  0  0
 18  9  1  0  0  0  0
 18  6  2  0  0  0  0
 19 20  1  0  0  0  0
 19 17  1  0  0  0  0
 21 20  1  0  0  0  0
 23 20  1  0  0  0  0
 23 22  1  0  0  0  0
 24 23  1  0  0  0  0
 25 23  1  0  0  0  0
M  END
>  <MODEL>
8

>  <REMARK>
 VINA RESULT:      -6.6      2.417      4.415
  Name = 
  3 active torsions:
  status: ('A' for Active; 'I' for Inactive)
    1  A    between atoms: C_6  and  N_15
    2  A    between atoms: C_6  and  C_23
    3  A    between atoms: C_7  and  N_15
                            x       y       z     vdW  Elec       q    Type
                         _______ _______ _______ _____ _____    ______ ____

>  <TORSDO>
F 3

$$$$
=
 OpenBabel11052417273D

 25 28  0  0  1  0  0  0  0  0999 V2000
  187.0370  176.9180  143.9710 C   0  0  0  0  0  0  0  0  0  0  0  0
  187.9680  175.9550  143.5830 C   0  0  0  0  0  0  0  0  0  0  0  0
  186.3070  177.2230  141.6990 C   0  0  0  0  0  3  0  0  0  0  0  0
  186.6980  177.4570  145.1870 C   0  0  0  0  0  0  0  0  0  0  0  0
  185.5830  178.9010  147.2670 C   0  0  0  0  0  3  0  0  0  0  0  0
  187.2180  176.2820  141.3090 N   0  0  0  0  0  0  0  0  0  0  0  0
  185.6990  178.3750  144.9310 C   0  0  1  0  0  3  0  0  0  0  0  0
  185.1190  179.1160  145.9570 C   0  0  0  0  0  3  0  0  0  0  0  0
  188.9690  174.6880  141.7750 C   0  0  0  0  0  0  0  0  0  0  0  0
  189.0810  174.3520  140.3950 N   0  0  0  0  0  1  0  0  0  0  0  0
  188.8080  175.3060  144.4890 C   0  0  0  0  0  3  0  0  0  0  0  0
  186.6060  177.9620  147.5240 C   0  0  0  0  0  3  0  0  0  0  0  0
  186.2220  177.5410  143.0510 C   0  0  0  0  0  0  0  0  0  0  0  0
  185.3870  178.4440  143.6160 N   0  0  0  0  0  0  0  0  0  0  0  0
  189.7760  174.0730  142.6840 N   0  0  0  0  0  0  0  0  0  0  0  0
  187.1800  177.2230  146.4740 C   0  0  0  0  0  3  0  0  0  0  0  0
  189.7100  174.3520  144.0140 C   0  0  0  0  0  0  0  0  0  0  0  0
  188.0410  175.6470  142.2030 C   0  0  0  0  0  0  0  0  0  0  0  0
  190.6360  173.6730  144.9630 C   0  0  0  0  0  2  0  0  0  0  0  0
  191.8700  173.3010  144.2730 N   0  0  0  0  0  0  0  0  0  0  0  0
  191.9540  171.8430  144.3040 C   0  0  0  0  0  1  0  0  0  0  0  0
  193.9510  172.8070  145.4850 C   0  0  0  0  0  1  0  0  0  0  0  0
  193.0550  173.9020  144.9240 C   0  0  0  0  0  0  0  0  0  0  0  0
  192.6460  174.7010  145.9950 O   0  0  0  0  0  1  0  0  0  0  0  0
  193.8800  174.7580  143.9640 C   0  0  0  0  0  1  0  0  0  0  0  0
  1  4  2  0  0  0  0
  2  1  1  0  0  0  0
  2 11  1  0  0  0  0
  3 13  1  0  0  0  0
  4 16  1  0  0  0  0
  5 12  1  0  0  0  0
  6  3  2  0  0  0  0
  6 18  1  0  0  0  0
  7  4  1  0  0  0  0
  7  8  1  6  0  0  0
  8  5  2  0  0  0  0
  9 18  1  0  0  0  0
  9 15  2  0  0  0  0
 10  9  1  0  0  0  0
 13 14  2  0  0  0  0
 13  1  1  0  0  0  0
 14  7  1  0  0  0  0
 15 17  1  0  0  0  0
 16 12  2  0  0  0  0
 17 11  2  0  0  0  0
 17 19  1  0  0  0  0
 18  2  2  0  0  0  0
 20 21  1  0  0  0  0
 20 23  1  0  0  0  0
 20 19  1  0  0  0  0
 23 22  1  0  0  0  0
 23 24  1  0  0  0  0
 25 23  1  0  0  0  0
M  END
>  <MODEL>
9

>  <REMARK>
 VINA RESULT:      -6.5      1.591      2.414
  Name = 
  3 active torsions:
  status: ('A' for Active; 'I' for Inactive)
    1  A    between atoms: C_6  and  N_15
    2  A    between atoms: C_6  and  C_23
    3  A    between atoms: C_7  and  N_15
                            x       y       z     vdW  Elec       q    Type
                         _______ _______ _______ _____ _____    ______ ____

>  <TORSDO>
F 3

$$$$
