=
 OpenBabel11052420523D

 43 47  0  0  1  0  0  0  0  0999 V2000
  190.0120  172.9130  140.5750 N   0  0  0  0  0  2  0  0  0  0  0  0
  190.6800  173.9430  141.2110 C   0  0  1  0  0  3  0  0  0  0  0  0
  188.5190  172.9360  140.6220 C   0  0  0  0  0  2  0  0  0  0  0  0
  190.1600  174.7630  142.0680 C   0  0  0  0  0  2  0  0  0  0  0  0
  188.7670  174.9320  141.9820 C   0  0  1  0  0  3  0  0  0  0  0  0
  187.9980  173.7030  141.8070 N   0  0  0  0  0  2  0  0  0  0  0  0
  190.7030  175.6220  146.6420 C   0  0  0  0  0  0  0  0  0  0  0  0
  188.0800  177.2760  142.5240 N   0  0  0  0  0  0  0  0  0  0  0  0
  189.8900  176.8670  144.7110 C   0  0  0  0  0  0  0  0  0  0  0  0
  190.1110  174.4870  146.0900 C   0  0  0  0  0  3  0  0  0  0  0  0
  191.4090  175.4970  147.9640 C   0  0  0  0  0  1  0  0  0  0  0  0
  189.0660  175.7980  144.3020 C   0  0  0  0  0  0  0  0  0  0  0  0
  190.6320  176.8280  145.9290 C   0  0  0  0  0  3  0  0  0  0  0  0
  189.2930  174.5710  144.9970 C   0  0  0  0  0  3  0  0  0  0  0  0
  188.2550  175.8920  143.0840 C   0  0  2  0  0  3  0  0  0  0  0  0
  189.4380  177.8800  142.4250 C   0  0  0  0  0  2  0  0  0  0  0  0
  190.1940  177.9630  143.7530 C   0  0  0  0  0  2  0  0  0  0  0  0
  187.6180  177.4040  141.1360 C   0  0  0  0  0  2  0  0  0  0  0  0
  185.8800  177.9850  140.9790 S   0  0  0  0  0  0  0  0  0  0  0  0
  185.8890  179.5930  143.2580 C   0  0  0  0  0  3  0  0  0  0  0  0
  185.2940  178.6620  145.4190 C   0  0  0  0  0  0  0  0  0  0  0  0
  185.0730  177.3060  143.4110 C   0  0  0  0  0  3  0  0  0  0  0  0
  185.6610  179.7730  144.6180 C   0  0  0  0  0  3  0  0  0  0  0  0
  185.6120  178.3200  142.6970 C   0  0  0  0  0  0  0  0  0  0  0  0
  184.9620  177.4510  144.7990 C   0  0  0  0  0  3  0  0  0  0  0  0
  185.2640  178.6100  147.9830 N   0  0  0  0  0  0  0  0  0  0  0  0
  185.1940  178.6840  146.8200 C   0  0  0  0  0  0  0  0  0  0  0  0
  192.2100  173.9280  141.1940 C   0  0  0  0  0  2  0  0  0  0  0  0
  192.7580  172.8970  141.9270 O   0  0  0  0  0  0  0  0  0  0  0  0
  194.1430  172.7400  141.7040 C   0  0  0  0  0  2  0  0  0  0  0  0
  194.7790  173.0710  143.0220 C   0  0  0  0  0  2  0  0  0  0  0  0
  193.8700  173.1550  144.1090 N   0  0  0  0  0  0  0  0  0  0  0  0
  193.9530  174.5270  144.6900 C   0  0  0  0  0  0  0  0  0  0  0  0
  194.6760  175.9430  146.4740 C   0  0  0  0  0  3  0  0  0  0  0  0
  193.7080  176.8950  144.4950 C   0  0  0  0  0  3  0  0  0  0  0  0
  194.3920  177.0380  145.7000 C   0  0  0  0  0  3  0  0  0  0  0  0
  193.5130  175.6040  143.9500 C   0  0  0  0  0  3  0  0  0  0  0  0
  194.4360  174.6530  145.9560 C   0  0  0  0  0  3  0  0  0  0  0  0
  194.0680  172.1210  145.1200 C   0  0  0  0  0  2  0  0  0  0  0  0
  193.7650  170.6500  144.7320 C   0  0  0  0  0  2  0  0  0  0  0  0
  194.5130  169.5690  145.4950 C   0  0  0  0  0  2  0  0  0  0  0  0
  196.7100  169.3350  146.7590 C   0  0  0  0  0  1  0  0  0  0  0  0
  195.6050  170.2590  146.2410 C   0  0  0  0  0  2  0  0  0  0  0  0
  1  3  1  0  0  0  0
  1  2  1  0  0  0  0
  2 28  1  1  0  0  0
  2  4  1  0  0  0  0
  3  6  1  0  0  0  0
  5  4  1  1  0  0  0
  5 15  1  0  0  0  0
  6  5  1  0  0  0  0
  7 11  1  0  0  0  0
  8 15  1  0  0  0  0
  9 13  1  0  0  0  0
 10  7  1  0  0  0  0
 12  9  2  0  0  0  0
 12 14  1  0  0  0  0
 13  7  2  0  0  0  0
 14 10  2  0  0  0  0
 15 12  1  1  0  0  0
 16  8  1  0  0  0  0
 16 17  1  0  0  0  0
 17  9  1  0  0  0  0
 18  8  1  0  0  0  0
 19 18  1  0  0  0  0
 19 24  1  0  0  0  0
 20 23  1  0  0  0  0
 21 27  1  0  0  0  0
 22 25  2  0  0  0  0
 23 21  2  0  0  0  0
 24 20  2  0  0  0  0
 24 22  1  0  0  0  0
 25 21  1  0  0  0  0
 27 26  3  0  0  0  0
 28 29  1  0  0  0  0
 30 29  1  0  0  0  0
 30 31  1  0  0  0  0
 31 32  1  0  0  0  0
 32 33  1  0  0  0  0
 32 39  1  0  0  0  0
 33 38  1  0  0  0  0
 35 36  2  0  0  0  0
 36 34  1  0  0  0  0
 37 35  1  0  0  0  0
 37 33  2  0  0  0  0
 38 34  2  0  0  0  0
 40 39  1  0  0  0  0
 40 41  1  0  0  0  0
 41 43  1  0  0  0  0
 43 42  1  0  0  0  0
M  END
>  <MODEL>
1

>  <REMARK>
 VINA RESULT:      -7.1      0.000      0.000
  Name = 
  15 active torsions:
  status: ('A' for Active; 'I' for Inactive)
    1  A    between atoms: S_1  and  C_34
    2  A    between atoms: S_1  and  C_35
    3  A    between atoms: C_3  and  C_4
    4  A    between atoms: C_3  and  O_12
    5  A    between atoms: C_4  and  N_14
    6  A    between atoms: C_6  and  C_17
    7  A    between atoms: N_8  and  C_34
    8  A    between atoms: C_10  and  C_22
    9  A    between atoms: C_10  and  C_41
   10  A    between atoms: C_11  and  N_14
   11  A    between atoms: O_12  and  C_17
   12  A    between atoms: N_14  and  C_41
   13  A    between atoms: C_19  and  C_37
   14  A    between atoms: C_22  and  C_42
   15  A    between atoms: C_27  and  C_30
                            x       y       z     vdW  Elec       q    Type
                         _______ _______ _______ _____ _____    ______ ____

>  <TORSDO>
F 15

$$$$
=
 OpenBabel11052420523D

 43 47  0  0  1  0  0  0  0  0999 V2000
  190.2690  172.8130  140.8200 N   0  0  0  0  0  2  0  0  0  0  0  0
  190.9250  173.6100  141.7400 C   0  0  1  0  0  3  0  0  0  0  0  0
  188.8510  173.1610  140.5030 C   0  0  0  0  0  2  0  0  0  0  0  0
  190.3600  174.4460  142.5510 C   0  0  0  0  0  2  0  0  0  0  0  0
  189.1000  174.9260  142.1520 C   0  0  1  0  0  3  0  0  0  0  0  0
  188.1860  173.9170  141.6210 N   0  0  0  0  0  2  0  0  0  0  0  0
  190.6890  175.5950  146.9450 C   0  0  0  0  0  0  0  0  0  0  0  0
  188.3600  177.2620  142.6580 N   0  0  0  0  0  0  0  0  0  0  0  0
  190.0100  176.8480  144.9690 C   0  0  0  0  0  0  0  0  0  0  0  0
  190.1460  174.4600  146.3440 C   0  0  0  0  0  3  0  0  0  0  0  0
  191.2980  175.4650  148.3140 C   0  0  0  0  0  1  0  0  0  0  0  0
  189.2250  175.7770  144.4940 C   0  0  0  0  0  0  0  0  0  0  0  0
  190.6610  176.8060  146.2360 C   0  0  0  0  0  3  0  0  0  0  0  0
  189.4080  174.5470  145.1950 C   0  0  0  0  0  3  0  0  0  0  0  0
  188.5040  175.8750  143.2200 C   0  0  2  0  0  3  0  0  0  0  0  0
  189.7170  177.8750  142.6620 C   0  0  0  0  0  2  0  0  0  0  0  0
  190.3750  177.9530  144.0420 C   0  0  0  0  0  2  0  0  0  0  0  0
  187.9990  177.3960  141.2410 C   0  0  0  0  0  2  0  0  0  0  0  0
  186.2270  177.8020  140.9580 S   0  0  0  0  0  0  0  0  0  0  0  0
  185.9380  179.4730  143.1730 C   0  0  0  0  0  3  0  0  0  0  0  0
  185.2990  178.5560  145.3270 C   0  0  0  0  0  0  0  0  0  0  0  0
  185.3380  177.1230  143.3610 C   0  0  0  0  0  3  0  0  0  0  0  0
  185.6070  179.6720  144.5090 C   0  0  0  0  0  3  0  0  0  0  0  0
  185.8210  178.1620  142.6440 C   0  0  0  0  0  0  0  0  0  0  0  0
  185.1250  177.2990  144.7340 C   0  0  0  0  0  3  0  0  0  0  0  0
  185.1280  178.6680  147.8840 N   0  0  0  0  0  0  0  0  0  0  0  0
  185.1090  178.6110  146.7180 C   0  0  0  0  0  0  0  0  0  0  0  0
  192.3710  173.2590  142.0960 C   0  0  0  0  0  2  0  0  0  0  0  0
  193.2960  173.7860  141.2200 O   0  0  0  0  0  0  0  0  0  0  0  0
  194.5520  174.0170  141.8210 C   0  0  0  0  0  2  0  0  0  0  0  0
  194.5830  173.0930  143.0030 C   0  0  0  0  0  2  0  0  0  0  0  0
  195.8110  173.0900  143.7140 N   0  0  0  0  0  0  0  0  0  0  0  0
  195.7850  171.9690  144.6980 C   0  0  0  0  0  0  0  0  0  0  0  0
  194.5350  170.2600  145.8070 C   0  0  0  0  0  3  0  0  0  0  0  0
  196.9080  170.4200  146.1290 C   0  0  0  0  0  3  0  0  0  0  0  0
  195.7080  169.7300  146.2790 C   0  0  0  0  0  3  0  0  0  0  0  0
  196.9620  171.5530  145.2840 C   0  0  0  0  0  3  0  0  0  0  0  0
  194.5780  171.4200  145.0060 C   0  0  0  0  0  3  0  0  0  0  0  0
  196.1250  174.3660  144.3480 C   0  0  0  0  0  2  0  0  0  0  0  0
  195.5750  174.6300  145.7740 C   0  0  0  0  0  2  0  0  0  0  0  0
  194.1830  175.2300  145.8750 C   0  0  0  0  0  2  0  0  0  0  0  0
  194.6500  177.7210  145.6340 C   0  0  0  0  0  1  0  0  0  0  0  0
  194.3390  176.5450  146.5620 C   0  0  0  0  0  2  0  0  0  0  0  0
  1  2  1  0  0  0  0
  2 28  1  1  0  0  0
  2  4  1  0  0  0  0
  3  1  1  0  0  0  0
  3  6  1  0  0  0  0
  5  4  1  1  0  0  0
  5 15  1  0  0  0  0
  6  5  1  0  0  0  0
  7 11  1  0  0  0  0
  8 16  1  0  0  0  0
  8 15  1  0  0  0  0
  9 13  1  0  0  0  0
 10  7  1  0  0  0  0
 12  9  2  0  0  0  0
 12 14  1  0  0  0  0
 13  7  2  0  0  0  0
 14 10  2  0  0  0  0
 15 12  1  1  0  0  0
 16 17  1  0  0  0  0
 17  9  1  0  0  0  0
 18  8  1  0  0  0  0
 19 18  1  0  0  0  0
 19 24  1  0  0  0  0
 20 23  1  0  0  0  0
 21 27  1  0  0  0  0
 22 25  2  0  0  0  0
 23 21  2  0  0  0  0
 24 20  2  0  0  0  0
 24 22  1  0  0  0  0
 25 21  1  0  0  0  0
 27 26  3  0  0  0  0
 29 30  1  0  0  0  0
 29 28  1  0  0  0  0
 30 31  1  0  0  0  0
 31 32  1  0  0  0  0
 32 39  1  0  0  0  0
 32 33  1  0  0  0  0
 33 38  2  0  0  0  0
 33 37  1  0  0  0  0
 34 36  2  0  0  0  0
 35 36  1  0  0  0  0
 37 35  2  0  0  0  0
 38 34  1  0  0  0  0
 39 40  1  0  0  0  0
 40 41  1  0  0  0  0
 41 43  1  0  0  0  0
 42 43  1  0  0  0  0
M  END
>  <MODEL>
2

>  <REMARK>
 VINA RESULT:      -6.8      0.837      2.995
  Name = 
  15 active torsions:
  status: ('A' for Active; 'I' for Inactive)
    1  A    between atoms: S_1  and  C_34
    2  A    between atoms: S_1  and  C_35
    3  A    between atoms: C_3  and  C_4
    4  A    between atoms: C_3  and  O_12
    5  A    between atoms: C_4  and  N_14
    6  A    between atoms: C_6  and  C_17
    7  A    between atoms: N_8  and  C_34
    8  A    between atoms: C_10  and  C_22
    9  A    between atoms: C_10  and  C_41
   10  A    between atoms: C_11  and  N_14
   11  A    between atoms: O_12  and  C_17
   12  A    between atoms: N_14  and  C_41
   13  A    between atoms: C_19  and  C_37
   14  A    between atoms: C_22  and  C_42
   15  A    between atoms: C_27  and  C_30
                            x       y       z     vdW  Elec       q    Type
                         _______ _______ _______ _____ _____    ______ ____

>  <TORSDO>
F 15

$$$$
=
 OpenBabel11052420523D

 43 47  0  0  1  0  0  0  0  0999 V2000
  189.5140  174.2730  146.6160 N   0  0  0  0  0  2  0  0  0  0  0  0
  190.2770  174.1410  145.4700 C   0  0  1  0  0  3  0  0  0  0  0  0
  189.5540  175.5950  147.3120 C   0  0  0  0  0  2  0  0  0  0  0  0
  191.2240  174.9410  145.0980 C   0  0  0  0  0  2  0  0  0  0  0  0
  191.1500  176.2510  145.6040 C   0  0  1  0  0  3  0  0  0  0  0  0
  190.8200  176.3540  147.0240 N   0  0  0  0  0  2  0  0  0  0  0  0
  195.9760  174.7260  145.0350 C   0  0  0  0  0  0  0  0  0  0  0  0
  192.0200  177.8150  143.8560 N   0  0  0  0  0  0  0  0  0  0  0  0
  194.2250  175.9790  143.8940 C   0  0  0  0  0  0  0  0  0  0  0  0
  195.2090  174.8170  146.1950 C   0  0  0  0  0  3  0  0  0  0  0  0
  197.3030  174.0210  145.1010 C   0  0  0  0  0  1  0  0  0  0  0  0
  193.5950  176.3090  145.1120 C   0  0  0  0  0  0  0  0  0  0  0  0
  195.4660  175.2780  143.8500 C   0  0  0  0  0  3  0  0  0  0  0  0
  194.0940  175.6070  146.2510 C   0  0  0  0  0  3  0  0  0  0  0  0
  192.3580  177.0970  145.1330 C   0  0  2  0  0  3  0  0  0  0  0  0
  192.1100  176.8130  142.7580 C   0  0  0  0  0  2  0  0  0  0  0  0
  193.4800  176.1450  142.6180 C   0  0  0  0  0  2  0  0  0  0  0  0
  190.6450  178.2970  143.6800 C   0  0  0  0  0  2  0  0  0  0  0  0
  189.6640  177.3270  142.4640 S   0  0  0  0  0  0  0  0  0  0  0  0
  187.0720  178.3540  142.4180 C   0  0  0  0  0  3  0  0  0  0  0  0
  185.6830  178.2720  144.4070 C   0  0  0  0  0  0  0  0  0  0  0  0
  187.8570  177.1810  144.3990 C   0  0  0  0  0  3  0  0  0  0  0  0
  185.8480  178.5930  143.0360 C   0  0  0  0  0  3  0  0  0  0  0  0
  188.0700  177.6690  143.1560 C   0  0  0  0  0  0  0  0  0  0  0  0
  186.6750  177.5300  145.0610 C   0  0  0  0  0  3  0  0  0  0  0  0
  183.7270  178.8550  145.9610 N   0  0  0  0  0  0  0  0  0  0  0  0
  184.5580  178.6100  145.1780 C   0  0  0  0  0  0  0  0  0  0  0  0
  190.2690  172.7890  144.7520 C   0  0  0  0  0  2  0  0  0  0  0  0
  189.5510  172.7970  143.5750 O   0  0  0  0  0  0  0  0  0  0  0  0
  190.3460  172.5120  142.4450 C   0  0  0  0  0  2  0  0  0  0  0  0
  191.1740  171.3280  142.8510 C   0  0  0  0  0  2  0  0  0  0  0  0
  192.5360  171.4030  142.4610 N   0  0  0  0  0  0  0  0  0  0  0  0
  193.3790  170.9140  143.5920 C   0  0  0  0  0  0  0  0  0  0  0  0
  194.4060  171.3530  145.7050 C   0  0  0  0  0  3  0  0  0  0  0  0
  194.4900  169.1490  144.7580 C   0  0  0  0  0  3  0  0  0  0  0  0
  194.6850  170.0170  145.8300 C   0  0  0  0  0  3  0  0  0  0  0  0
  193.7830  169.5960  143.6170 C   0  0  0  0  0  3  0  0  0  0  0  0
  193.7470  171.8130  144.5450 C   0  0  0  0  0  3  0  0  0  0  0  0
  192.9450  172.7290  142.0090 C   0  0  0  0  0  2  0  0  0  0  0  0
  193.9110  172.8240  140.7990 C   0  0  0  0  0  2  0  0  0  0  0  0
  195.0720  171.8440  140.7660 C   0  0  0  0  0  2  0  0  0  0  0  0
  196.9130  171.4060  142.4690 C   0  0  0  0  0  1  0  0  0  0  0  0
  196.1400  172.4260  141.6290 C   0  0  0  0  0  2  0  0  0  0  0  0
  1  3  1  0  0  0  0
  2 28  1  1  0  0  0
  2  1  1  0  0  0  0
  4  2  1  0  0  0  0
  5  4  1  1  0  0  0
  5  6  1  0  0  0  0
  6  3  1  0  0  0  0
  7 11  1  0  0  0  0
  7 10  1  0  0  0  0
  8 15  1  0  0  0  0
  9 12  2  0  0  0  0
 10 14  2  0  0  0  0
 12 14  1  0  0  0  0
 13  9  1  0  0  0  0
 13  7  2  0  0  0  0
 15 12  1  6  0  0  0
 15  5  1  0  0  0  0
 16  8  1  0  0  0  0
 17 16  1  0  0  0  0
 17  9  1  0  0  0  0
 18  8  1  0  0  0  0
 19 24  1  0  0  0  0
 19 18  1  0  0  0  0
 20 23  2  0  0  0  0
 20 24  1  0  0  0  0
 21 25  2  0  0  0  0
 21 27  1  0  0  0  0
 22 25  1  0  0  0  0
 23 21  1  0  0  0  0
 24 22  2  0  0  0  0
 27 26  3  0  0  0  0
 29 28  1  0  0  0  0
 30 31  1  0  0  0  0
 30 29  1  0  0  0  0
 32 31  1  0  0  0  0
 32 33  1  0  0  0  0
 33 37  2  0  0  0  0
 33 38  1  0  0  0  0
 34 36  1  0  0  0  0
 35 36  2  0  0  0  0
 37 35  1  0  0  0  0
 38 34  2  0  0  0  0
 39 32  1  0  0  0  0
 40 39  1  0  0  0  0
 41 40  1  0  0  0  0
 41 43  1  0  0  0  0
 43 42  1  0  0  0  0
M  END
>  <MODEL>
3

>  <REMARK>
 VINA RESULT:      -6.7      2.173      4.544
  Name = 
  15 active torsions:
  status: ('A' for Active; 'I' for Inactive)
    1  A    between atoms: S_1  and  C_34
    2  A    between atoms: S_1  and  C_35
    3  A    between atoms: C_3  and  C_4
    4  A    between atoms: C_3  and  O_12
    5  A    between atoms: C_4  and  N_14
    6  A    between atoms: C_6  and  C_17
    7  A    between atoms: N_8  and  C_34
    8  A    between atoms: C_10  and  C_22
    9  A    between atoms: C_10  and  C_41
   10  A    between atoms: C_11  and  N_14
   11  A    between atoms: O_12  and  C_17
   12  A    between atoms: N_14  and  C_41
   13  A    between atoms: C_19  and  C_37
   14  A    between atoms: C_22  and  C_42
   15  A    between atoms: C_27  and  C_30
                            x       y       z     vdW  Elec       q    Type
                         _______ _______ _______ _____ _____    ______ ____

>  <TORSDO>
F 15

$$$$
=
 OpenBabel11052420523D

 43 47  0  0  1  0  0  0  0  0999 V2000
  188.1190  173.2560  142.3420 N   0  0  0  0  0  2  0  0  0  0  0  0
  188.9030  174.3340  141.9740 C   0  0  1  0  0  3  0  0  0  0  0  0
  188.7750  172.1760  143.1400 C   0  0  0  0  0  2  0  0  0  0  0  0
  190.1970  174.3730  142.0110 C   0  0  0  0  0  2  0  0  0  0  0  0
  190.8080  173.4840  142.9120 C   0  0  1  0  0  3  0  0  0  0  0  0
  190.2630  172.1280  142.9210 N   0  0  0  0  0  2  0  0  0  0  0  0
  193.8840  176.3590  145.7790 C   0  0  0  0  0  0  0  0  0  0  0  0
  192.9620  172.2120  142.8580 N   0  0  0  0  0  0  0  0  0  0  0  0
  193.6520  174.0940  144.9100 C   0  0  0  0  0  0  0  0  0  0  0  0
  192.9070  176.7500  144.8650 C   0  0  0  0  0  3  0  0  0  0  0  0
  194.4950  177.4030  146.6730 C   0  0  0  0  0  1  0  0  0  0  0  0
  192.8820  174.5360  143.8140 C   0  0  0  0  0  0  0  0  0  0  0  0
  194.2410  175.0030  145.8380 C   0  0  0  0  0  3  0  0  0  0  0  0
  192.4550  175.8970  143.8960 C   0  0  0  0  0  3  0  0  0  0  0  0
  192.3510  173.5850  142.8320 C   0  0  2  0  0  3  0  0  0  0  0  0
  192.9210  171.7450  144.2720 C   0  0  0  0  0  2  0  0  0  0  0  0
  193.6620  172.6490  145.2600 C   0  0  0  0  0  2  0  0  0  0  0  0
  192.2390  171.1250  142.1860 C   0  0  0  0  0  2  0  0  0  0  0  0
  192.8030  170.8080  140.4640 S   0  0  0  0  0  0  0  0  0  0  0  0
  190.1990  171.3240  139.6090 C   0  0  0  0  0  3  0  0  0  0  0  0
  189.7220  173.2600  138.2250 C   0  0  0  0  0  0  0  0  0  0  0  0
  191.9540  172.9420  139.1400 C   0  0  0  0  0  3  0  0  0  0  0  0
  189.2740  172.1240  138.9440 C   0  0  0  0  0  3  0  0  0  0  0  0
  191.5480  171.7590  139.6520 C   0  0  0  0  0  0  0  0  0  0  0  0
  191.0510  173.6810  138.3670 C   0  0  0  0  0  3  0  0  0  0  0  0
  188.1940  174.7860  136.8410 N   0  0  0  0  0  0  0  0  0  0  0  0
  188.9140  174.0470  137.3870 C   0  0  0  0  0  0  0  0  0  0  0  0
  188.2580  175.4410  141.1380 C   0  0  0  0  0  2  0  0  0  0  0  0
  188.4860  176.7070  141.6330 O   0  0  0  0  0  0  0  0  0  0  0  0
  187.5550  177.0860  142.6230 C   0  0  0  0  0  2  0  0  0  0  0  0
  188.3940  177.5720  143.7680 C   0  0  0  0  0  2  0  0  0  0  0  0
  187.8820  177.2460  145.0510 N   0  0  0  0  0  0  0  0  0  0  0  0
  188.9620  176.5820  145.8360 C   0  0  0  0  0  0  0  0  0  0  0  0
  190.6180  176.7310  147.5530 C   0  0  0  0  0  3  0  0  0  0  0  0
  190.1590  174.6230  146.5010 C   0  0  0  0  0  3  0  0  0  0  0  0
  190.7650  175.3690  147.5090 C   0  0  0  0  0  3  0  0  0  0  0  0
  189.1990  175.2350  145.6600 C   0  0  0  0  0  3  0  0  0  0  0  0
  189.7000  177.3530  146.6810 C   0  0  0  0  0  3  0  0  0  0  0  0
  186.6640  176.4430  145.0090 C   0  0  0  0  0  2  0  0  0  0  0  0
  185.4300  176.9430  145.8030 C   0  0  0  0  0  2  0  0  0  0  0  0
  185.4510  178.3880  146.2720 C   0  0  0  0  0  2  0  0  0  0  0  0
  184.1390  178.8580  144.1420 C   0  0  0  0  0  1  0  0  0  0  0  0
  184.2660  179.0500  145.6550 C   0  0  0  0  0  2  0  0  0  0  0  0
  1  3  1  0  0  0  0
  2 28  1  6  0  0  0
  2  4  1  0  0  0  0
  2  1  1  0  0  0  0
  5  4  1  6  0  0  0
  5  6  1  0  0  0  0
  6  3  1  0  0  0  0
  7 13  1  0  0  0  0
  7 11  1  0  0  0  0
  8 16  1  0  0  0  0
  9 17  1  0  0  0  0
  9 13  2  0  0  0  0
 10  7  2  0  0  0  0
 12 14  2  0  0  0  0
 12  9  1  0  0  0  0
 14 10  1  0  0  0  0
 15  8  1  0  0  0  0
 15  5  1  0  0  0  0
 15 12  1  1  0  0  0
 16 17  1  0  0  0  0
 18  8  1  0  0  0  0
 19 18  1  0  0  0  0
 20 24  1  0  0  0  0
 21 25  2  0  0  0  0
 21 23  1  0  0  0  0
 22 24  2  0  0  0  0
 23 20  2  0  0  0  0
 24 19  1  0  0  0  0
 25 22  1  0  0  0  0
 26 27  3  0  0  0  0
 27 21  1  0  0  0  0
 28 29  1  0  0  0  0
 29 30  1  0  0  0  0
 30 31  1  0  0  0  0
 31 32  1  0  0  0  0
 32 33  1  0  0  0  0
 33 38  1  0  0  0  0
 35 36  2  0  0  0  0
 36 34  1  0  0  0  0
 37 33  2  0  0  0  0
 37 35  1  0  0  0  0
 38 34  2  0  0  0  0
 39 32  1  0  0  0  0
 39 40  1  0  0  0  0
 40 41  1  0  0  0  0
 42 43  1  0  0  0  0
 43 41  1  0  0  0  0
M  END
>  <MODEL>
4

>  <REMARK>
 VINA RESULT:      -6.7      2.519      7.608
  Name = 
  15 active torsions:
  status: ('A' for Active; 'I' for Inactive)
    1  A    between atoms: S_1  and  C_34
    2  A    between atoms: S_1  and  C_35
    3  A    between atoms: C_3  and  C_4
    4  A    between atoms: C_3  and  O_12
    5  A    between atoms: C_4  and  N_14
    6  A    between atoms: C_6  and  C_17
    7  A    between atoms: N_8  and  C_34
    8  A    between atoms: C_10  and  C_22
    9  A    between atoms: C_10  and  C_41
   10  A    between atoms: C_11  and  N_14
   11  A    between atoms: O_12  and  C_17
   12  A    between atoms: N_14  and  C_41
   13  A    between atoms: C_19  and  C_37
   14  A    between atoms: C_22  and  C_42
   15  A    between atoms: C_27  and  C_30
                            x       y       z     vdW  Elec       q    Type
                         _______ _______ _______ _____ _____    ______ ____

>  <TORSDO>
F 15

$$$$
=
 OpenBabel11052420523D

 43 47  0  0  1  0  0  0  0  0999 V2000
  190.2570  173.0370  140.5360 N   0  0  0  0  0  2  0  0  0  0  0  0
  190.8940  174.0470  141.2330 C   0  0  1  0  0  3  0  0  0  0  0  0
  188.7620  173.0500  140.5320 C   0  0  0  0  0  2  0  0  0  0  0  0
  190.3380  174.8320  142.1010 C   0  0  0  0  0  2  0  0  0  0  0  0
  188.9480  174.9960  141.9720 C   0  0  1  0  0  3  0  0  0  0  0  0
  188.1940  173.7690  141.7250 N   0  0  0  0  0  2  0  0  0  0  0  0
  190.7280  175.5390  146.7130 C   0  0  0  0  0  0  0  0  0  0  0  0
  188.2180  177.3120  142.5730 N   0  0  0  0  0  0  0  0  0  0  0  0
  189.9630  176.8430  144.8020 C   0  0  0  0  0  0  0  0  0  0  0  0
  190.1670  174.4190  146.1030 C   0  0  0  0  0  3  0  0  0  0  0  0
  191.3930  175.3740  148.0520 C   0  0  0  0  0  1  0  0  0  0  0  0
  189.1640  175.7810  144.3300 C   0  0  0  0  0  0  0  0  0  0  0  0
  190.6660  176.7690  146.0410 C   0  0  0  0  0  3  0  0  0  0  0  0
  189.3820  174.5330  144.9890 C   0  0  0  0  0  3  0  0  0  0  0  0
  188.3910  175.9110  143.0900 C   0  0  2  0  0  3  0  0  0  0  0  0
  189.5720  177.9330  142.5390 C   0  0  0  0  0  2  0  0  0  0  0  0
  190.2850  177.9750  143.8930 C   0  0  0  0  0  2  0  0  0  0  0  0
  187.7990  177.4840  141.1770 C   0  0  0  0  0  2  0  0  0  0  0  0
  186.0240  177.9240  140.9800 S   0  0  0  0  0  0  0  0  0  0  0  0
  185.8680  179.5640  143.2300 C   0  0  0  0  0  3  0  0  0  0  0  0
  185.3050  178.6260  145.3960 C   0  0  0  0  0  0  0  0  0  0  0  0
  185.2260  177.2250  143.4090 C   0  0  0  0  0  3  0  0  0  0  0  0
  185.6010  179.7490  144.5830 C   0  0  0  0  0  3  0  0  0  0  0  0
  185.7000  178.2650  142.6870 C   0  0  0  0  0  0  0  0  0  0  0  0
  185.0780  177.3830  144.7920 C   0  0  0  0  0  3  0  0  0  0  0  0
  185.2130  178.5840  147.9590 N   0  0  0  0  0  0  0  0  0  0  0  0
  185.1770  178.6630  146.7950 C   0  0  0  0  0  0  0  0  0  0  0  0
  192.4240  174.0420  141.2690 C   0  0  0  0  0  2  0  0  0  0  0  0
  192.9680  172.7770  141.3330 O   0  0  0  0  0  0  0  0  0  0  0  0
  194.1300  172.7180  142.1310 C   0  0  0  0  0  2  0  0  0  0  0  0
  194.7040  174.1040  142.0690 C   0  0  0  0  0  2  0  0  0  0  0  0
  195.8400  174.3060  142.8950 N   0  0  0  0  0  0  0  0  0  0  0  0
  195.4100  175.0420  144.1190 C   0  0  0  0  0  0  0  0  0  0  0  0
  194.3540  176.9600  145.0770 C   0  0  0  0  0  3  0  0  0  0  0  0
  195.0410  175.1360  146.4780 C   0  0  0  0  0  3  0  0  0  0  0  0
  194.3470  176.3290  146.2950 C   0  0  0  0  0  3  0  0  0  0  0  0
  195.5580  174.4480  145.3550 C   0  0  0  0  0  3  0  0  0  0  0  0
  194.9150  176.3010  143.9640 C   0  0  0  0  0  3  0  0  0  0  0  0
  196.9470  174.9730  142.2170 C   0  0  0  0  0  2  0  0  0  0  0  0
  197.2960  174.5280  140.7730 C   0  0  0  0  0  2  0  0  0  0  0  0
  197.5990  175.6270  139.7680 C   0  0  0  0  0  2  0  0  0  0  0  0
  195.4620  174.9580  138.5550 C   0  0  0  0  0  1  0  0  0  0  0  0
  196.9710  175.2070  138.4810 C   0  0  0  0  0  2  0  0  0  0  0  0
  1  2  1  0  0  0  0
  2 28  1  1  0  0  0
  2  4  1  0  0  0  0
  3  1  1  0  0  0  0
  3  6  1  0  0  0  0
  5  4  1  1  0  0  0
  5 15  1  0  0  0  0
  6  5  1  0  0  0  0
  7 11  1  0  0  0  0
  8 15  1  0  0  0  0
  9 13  1  0  0  0  0
 10  7  1  0  0  0  0
 12  9  2  0  0  0  0
 12 14  1  0  0  0  0
 13  7  2  0  0  0  0
 14 10  2  0  0  0  0
 15 12  1  1  0  0  0
 16  8  1  0  0  0  0
 16 17  1  0  0  0  0
 17  9  1  0  0  0  0
 18  8  1  0  0  0  0
 19 18  1  0  0  0  0
 19 24  1  0  0  0  0
 20 23  1  0  0  0  0
 21 27  1  0  0  0  0
 22 25  2  0  0  0  0
 23 21  2  0  0  0  0
 24 20  2  0  0  0  0
 24 22  1  0  0  0  0
 25 21  1  0  0  0  0
 27 26  3  0  0  0  0
 28 29  1  0  0  0  0
 29 30  1  0  0  0  0
 31 30  1  0  0  0  0
 31 32  1  0  0  0  0
 32 33  1  0  0  0  0
 33 37  1  0  0  0  0
 34 36  2  0  0  0  0
 36 35  1  0  0  0  0
 37 35  2  0  0  0  0
 38 33  2  0  0  0  0
 38 34  1  0  0  0  0
 39 32  1  0  0  0  0
 40 39  1  0  0  0  0
 41 40  1  0  0  0  0
 43 42  1  0  0  0  0
 43 41  1  0  0  0  0
M  END
>  <MODEL>
5

>  <REMARK>
 VINA RESULT:      -6.7      1.566      2.949
  Name = 
  15 active torsions:
  status: ('A' for Active; 'I' for Inactive)
    1  A    between atoms: S_1  and  C_34
    2  A    between atoms: S_1  and  C_35
    3  A    between atoms: C_3  and  C_4
    4  A    between atoms: C_3  and  O_12
    5  A    between atoms: C_4  and  N_14
    6  A    between atoms: C_6  and  C_17
    7  A    between atoms: N_8  and  C_34
    8  A    between atoms: C_10  and  C_22
    9  A    between atoms: C_10  and  C_41
   10  A    between atoms: C_11  and  N_14
   11  A    between atoms: O_12  and  C_17
   12  A    between atoms: N_14  and  C_41
   13  A    between atoms: C_19  and  C_37
   14  A    between atoms: C_22  and  C_42
   15  A    between atoms: C_27  and  C_30
                            x       y       z     vdW  Elec       q    Type
                         _______ _______ _______ _____ _____    ______ ____

>  <TORSDO>
F 15

$$$$
=
 OpenBabel11052420523D

 43 47  0  0  1  0  0  0  0  0999 V2000
  194.1990  175.9900  145.0170 N   0  0  0  0  0  2  0  0  0  0  0  0
  193.5920  174.8210  145.4390 C   0  0  1  0  0  3  0  0  0  0  0  0
  194.9350  175.9450  143.7180 C   0  0  0  0  0  2  0  0  0  0  0  0
  193.8260  173.6370  144.9680 C   0  0  0  0  0  2  0  0  0  0  0  0
  194.3400  173.5920  143.6610 C   0  0  1  0  0  3  0  0  0  0  0  0
  195.3990  174.5560  143.3720 N   0  0  0  0  0  2  0  0  0  0  0  0
  196.1800  169.8040  146.5260 C   0  0  0  0  0  0  0  0  0  0  0  0
  193.4220  171.5540  142.5370 N   0  0  0  0  0  0  0  0  0  0  0  0
  194.4200  170.2940  144.9140 C   0  0  0  0  0  0  0  0  0  0  0  0
  196.7910  170.9960  146.1380 C   0  0  0  0  0  3  0  0  0  0  0  0
  196.8520  168.9560  147.5700 C   0  0  0  0  0  1  0  0  0  0  0  0
  195.1700  171.3370  144.3320 C   0  0  0  0  0  0  0  0  0  0  0  0
  194.9530  169.4590  145.9390 C   0  0  0  0  0  3  0  0  0  0  0  0
  196.3390  171.7100  145.0630 C   0  0  0  0  0  3  0  0  0  0  0  0
  194.6250  172.1330  143.2270 C   0  0  2  0  0  3  0  0  0  0  0  0
  192.4410  171.1990  143.6000 C   0  0  0  0  0  2  0  0  0  0  0  0
  192.9620  170.2000  144.6370 C   0  0  0  0  0  2  0  0  0  0  0  0
  192.6120  172.4470  141.6990 C   0  0  0  0  0  2  0  0  0  0  0  0
  191.3020  171.5840  140.7390 S   0  0  0  0  0  0  0  0  0  0  0  0
  189.7280  173.8350  140.2580 C   0  0  0  0  0  3  0  0  0  0  0  0
  188.0210  174.5020  141.8490 C   0  0  0  0  0  0  0  0  0  0  0  0
  189.2370  172.4210  142.1750 C   0  0  0  0  0  3  0  0  0  0  0  0
  188.6870  174.6880  140.6120 C   0  0  0  0  0  3  0  0  0  0  0  0
  189.9930  172.7220  141.0950 C   0  0  0  0  0  0  0  0  0  0  0  0
  188.2740  173.3450  142.5960 C   0  0  0  0  0  3  0  0  0  0  0  0
  186.3160  176.0410  142.9920 N   0  0  0  0  0  0  0  0  0  0  0  0
  187.0720  175.3870  142.3880 C   0  0  0  0  0  0  0  0  0  0  0  0
  192.8510  174.8370  146.7780 C   0  0  0  0  0  2  0  0  0  0  0  0
  192.2330  176.0390  147.0490 O   0  0  0  0  0  0  0  0  0  0  0  0
  190.9590  175.8820  147.6360 C   0  0  0  0  0  2  0  0  0  0  0  0
  190.2210  174.9680  146.7020 C   0  0  0  0  0  2  0  0  0  0  0  0
  189.2350  175.6110  145.9110 N   0  0  0  0  0  0  0  0  0  0  0  0
  189.9090  176.2560  144.7460 C   0  0  0  0  0  0  0  0  0  0  0  0
  190.5100  178.2630  143.5960 C   0  0  0  0  0  3  0  0  0  0  0  0
  191.3350  176.1420  142.8330 C   0  0  0  0  0  3  0  0  0  0  0  0
  191.3520  177.5340  142.7960 C   0  0  0  0  0  3  0  0  0  0  0  0
  190.6240  175.4790  143.8600 C   0  0  0  0  0  3  0  0  0  0  0  0
  189.7590  177.6000  144.5890 C   0  0  0  0  0  3  0  0  0  0  0  0
  188.4090  176.5570  146.6550 C   0  0  0  0  0  3  0  0  0  0  0  0
  186.8680  176.4180  146.5580 C   0  0  0  0  0  3  0  0  0  0  0  0
  186.0350  177.4900  147.2400 C   0  0  0  0  0  2  0  0  0  0  0  0
  184.4690  178.8450  145.7580 C   0  0  0  0  0  1  0  0  0  0  0  0
  184.7330  177.5400  146.5130 C   0  0  0  0  0  2  0  0  0  0  0  0
  1  2  1  0  0  0  0
  2 28  1  1  0  0  0
  3  1  1  0  0  0  0
  4  2  1  0  0  0  0
  5  4  1  1  0  0  0
  6  5  1  0  0  0  0
  6  3  1  0  0  0  0
  7 11  1  0  0  0  0
  8 15  1  0  0  0  0
  8 16  1  0  0  0  0
  9 13  1  0  0  0  0
 10  7  1  0  0  0  0
 12  9  2  0  0  0  0
 12 14  1  0  0  0  0
 13  7  2  0  0  0  0
 14 10  2  0  0  0  0
 15  5  1  0  0  0  0
 15 12  1  1  0  0  0
 16 17  1  0  0  0  0
 17  9  1  0  0  0  0
 18  8  1  0  0  0  0
 19 24  1  0  0  0  0
 19 18  1  0  0  0  0
 20 23  2  0  0  0  0
 20 24  1  0  0  0  0
 21 27  1  0  0  0  0
 21 25  2  0  0  0  0
 22 25  1  0  0  0  0
 23 21  1  0  0  0  0
 24 22  2  0  0  0  0
 27 26  3  0  0  0  0
 28 29  1  0  0  0  0
 29 30  1  0  0  0  0
 31 30  1  0  0  0  0
 32 39  1  0  0  0  0
 32 31  1  0  0  0  0
 33 32  1  0  0  0  0
 34 38  2  0  0  0  0
 35 37  1  0  0  0  0
 36 35  2  0  0  0  0
 36 34  1  0  0  0  0
 37 33  2  0  0  0  0
 38 33  1  0  0  0  0
 40 39  2  0  0  0  0
 40 41  1  0  0  0  0
 42 43  1  0  0  0  0
 43 41  1  0  0  0  0
M  END
>  <MODEL>
6

>  <REMARK>
 VINA RESULT:      -6.6      2.480      7.463
  Name = 
  15 active torsions:
  status: ('A' for Active; 'I' for Inactive)
    1  A    between atoms: S_1  and  C_34
    2  A    between atoms: S_1  and  C_35
    3  A    between atoms: C_3  and  C_4
    4  A    between atoms: C_3  and  O_12
    5  A    between atoms: C_4  and  N_14
    6  A    between atoms: C_6  and  C_17
    7  A    between atoms: N_8  and  C_34
    8  A    between atoms: C_10  and  C_22
    9  A    between atoms: C_10  and  C_41
   10  A    between atoms: C_11  and  N_14
   11  A    between atoms: O_12  and  C_17
   12  A    between atoms: N_14  and  C_41
   13  A    between atoms: C_19  and  C_37
   14  A    between atoms: C_22  and  C_42
   15  A    between atoms: C_27  and  C_30
                            x       y       z     vdW  Elec       q    Type
                         _______ _______ _______ _____ _____    ______ ____

>  <TORSDO>
F 15

$$$$
=
 OpenBabel11052420523D

 43 47  0  0  1  0  0  0  0  0999 V2000
  189.6230  174.0540  146.5310 N   0  0  0  0  0  2  0  0  0  0  0  0
  190.4000  173.9850  145.3900 C   0  0  1  0  0  3  0  0  0  0  0  0
  189.5980  175.3570  147.2620 C   0  0  0  0  0  2  0  0  0  0  0  0
  191.3140  174.8360  145.0470 C   0  0  0  0  0  2  0  0  0  0  0  0
  191.1780  176.1270  145.5860 C   0  0  1  0  0  3  0  0  0  0  0  0
  190.8320  176.1790  147.0050 N   0  0  0  0  0  2  0  0  0  0  0  0
  196.0620  174.8210  144.9740 C   0  0  0  0  0  0  0  0  0  0  0  0
  191.9850  177.7870  143.8970 N   0  0  0  0  0  0  0  0  0  0  0  0
  194.2630  176.0420  143.8750 C   0  0  0  0  0  0  0  0  0  0  0  0
  195.2910  174.8400  146.1350 C   0  0  0  0  0  3  0  0  0  0  0  0
  197.4170  174.1690  145.0180 C   0  0  0  0  0  1  0  0  0  0  0  0
  193.6180  176.3030  145.1020 C   0  0  0  0  0  0  0  0  0  0  0  0
  195.5310  175.3930  143.8080 C   0  0  0  0  0  3  0  0  0  0  0  0
  194.1450  175.5810  146.2170 C   0  0  0  0  0  3  0  0  0  0  0  0
  192.3500  177.0390  145.1490 C   0  0  2  0  0  3  0  0  0  0  0  0
  192.1160  176.8290  142.7640 C   0  0  0  0  0  2  0  0  0  0  0  0
  193.5120  176.2220  142.6040 C   0  0  0  0  0  2  0  0  0  0  0  0
  190.5910  178.2190  143.7350 C   0  0  0  0  0  2  0  0  0  0  0  0
  189.6120  177.1650  142.5890 S   0  0  0  0  0  0  0  0  0  0  0  0
  186.8260  177.1770  142.7190 C   0  0  0  0  0  3  0  0  0  0  0  0
  185.6960  177.8250  144.7670 C   0  0  0  0  0  0  0  0  0  0  0  0
  188.1190  177.6120  144.7330 C   0  0  0  0  0  3  0  0  0  0  0  0
  185.6440  177.3510  143.4320 C   0  0  0  0  0  3  0  0  0  0  0  0
  188.0530  177.3530  143.4080 C   0  0  0  0  0  0  0  0  0  0  0  0
  186.9340  177.9080  145.4160 C   0  0  0  0  0  3  0  0  0  0  0  0
  183.7070  178.6630  146.1530 N   0  0  0  0  0  0  0  0  0  0  0  0
  184.5750  178.1920  145.5300 C   0  0  0  0  0  0  0  0  0  0  0  0
  190.4580  172.6540  144.6370 C   0  0  0  0  0  2  0  0  0  0  0  0
  189.2910  172.3500  143.9680 O   0  0  0  0  0  0  0  0  0  0  0  0
  189.0310  173.2240  142.8910 C   0  0  0  0  0  2  0  0  0  0  0  0
  189.3880  172.4340  141.6660 C   0  0  0  0  0  2  0  0  0  0  0  0
  190.4820  172.9570  140.9290 N   0  0  0  0  0  0  0  0  0  0  0  0
  189.9820  173.4130  139.5990 C   0  0  0  0  0  0  0  0  0  0  0  0
  190.4020  173.7490  137.2710 C   0  0  0  0  0  3  0  0  0  0  0  0
  188.2030  174.1060  138.1630 C   0  0  0  0  0  3  0  0  0  0  0  0
  189.0630  173.9700  137.0760 C   0  0  0  0  0  3  0  0  0  0  0  0
  188.6610  173.7830  139.4620 C   0  0  0  0  0  3  0  0  0  0  0  0
  190.8730  173.4770  138.5720 C   0  0  0  0  0  3  0  0  0  0  0  0
  191.6010  172.0290  140.8020 C   0  0  0  0  0  2  0  0  0  0  0  0
  192.4980  171.7900  142.0440 C   0  0  0  0  0  2  0  0  0  0  0  0
  193.8270  172.5260  142.0870 C   0  0  0  0  0  2  0  0  0  0  0  0
  193.8970  171.8390  144.5380 C   0  0  0  0  0  1  0  0  0  0  0  0
  194.6180  171.9050  143.1890 C   0  0  0  0  0  2  0  0  0  0  0  0
  1  3  1  0  0  0  0
  2 28  1  1  0  0  0
  2  1  1  0  0  0  0
  4  2  1  0  0  0  0
  5  4  1  1  0  0  0
  5  6  1  0  0  0  0
  6  3  1  0  0  0  0
  7 11  1  0  0  0  0
  7 10  1  0  0  0  0
  8 15  1  0  0  0  0
  9 12  2  0  0  0  0
 10 14  2  0  0  0  0
 12 14  1  0  0  0  0
 13  9  1  0  0  0  0
 13  7  2  0  0  0  0
 15 12  1  6  0  0  0
 15  5  1  0  0  0  0
 16  8  1  0  0  0  0
 17 16  1  0  0  0  0
 17  9  1  0  0  0  0
 18  8  1  0  0  0  0
 19 24  1  0  0  0  0
 19 18  1  0  0  0  0
 20 24  2  0  0  0  0
 20 23  1  0  0  0  0
 21 25  1  0  0  0  0
 21 27  1  0  0  0  0
 22 25  2  0  0  0  0
 23 21  2  0  0  0  0
 24 22  1  0  0  0  0
 27 26  3  0  0  0  0
 29 28  1  0  0  0  0
 30 29  1  0  0  0  0
 31 30  1  0  0  0  0
 32 31  1  0  0  0  0
 33 32  1  0  0  0  0
 34 38  1  0  0  0  0
 35 37  2  0  0  0  0
 36 34  2  0  0  0  0
 36 35  1  0  0  0  0
 37 33  1  0  0  0  0
 38 33  2  0  0  0  0
 39 32  1  0  0  0  0
 39 40  1  0  0  0  0
 40 41  1  0  0  0  0
 41 43  1  0  0  0  0
 43 42  1  0  0  0  0
M  END
>  <MODEL>
7

>  <REMARK>
 VINA RESULT:      -6.6      2.308      5.246
  Name = 
  15 active torsions:
  status: ('A' for Active; 'I' for Inactive)
    1  A    between atoms: S_1  and  C_34
    2  A    between atoms: S_1  and  C_35
    3  A    between atoms: C_3  and  C_4
    4  A    between atoms: C_3  and  O_12
    5  A    between atoms: C_4  and  N_14
    6  A    between atoms: C_6  and  C_17
    7  A    between atoms: N_8  and  C_34
    8  A    between atoms: C_10  and  C_22
    9  A    between atoms: C_10  and  C_41
   10  A    between atoms: C_11  and  N_14
   11  A    between atoms: O_12  and  C_17
   12  A    between atoms: N_14  and  C_41
   13  A    between atoms: C_19  and  C_37
   14  A    between atoms: C_22  and  C_42
   15  A    between atoms: C_27  and  C_30
                            x       y       z     vdW  Elec       q    Type
                         _______ _______ _______ _____ _____    ______ ____

>  <TORSDO>
F 15

$$$$
=
 OpenBabel11052420523D

 43 47  0  0  1  0  0  0  0  0999 V2000
  188.9890  173.1600  143.0080 N   0  0  0  0  0  2  0  0  0  0  0  0
  189.5460  173.8410  141.9420 C   0  0  1  0  0  3  0  0  0  0  0  0
  189.8200  172.0940  143.6460 C   0  0  0  0  0  2  0  0  0  0  0  0
  190.5890  173.4690  141.2710 C   0  0  0  0  0  2  0  0  0  0  0  0
  191.4760  172.6140  141.9480 C   0  0  1  0  0  3  0  0  0  0  0  0
  190.8480  171.5320  142.7020 N   0  0  0  0  0  2  0  0  0  0  0  0
  191.7900  173.0860  136.8860 C   0  0  0  0  0  0  0  0  0  0  0  0
  193.9440  172.7630  141.5600 N   0  0  0  0  0  0  0  0  0  0  0  0
  193.0720  173.4780  138.9220 C   0  0  0  0  0  0  0  0  0  0  0  0
  190.9230  172.3060  137.6490 C   0  0  0  0  0  3  0  0  0  0  0  0
  191.5250  173.2300  135.4130 C   0  0  0  0  0  1  0  0  0  0  0  0
  192.3670  172.4780  139.6220 C   0  0  0  0  0  0  0  0  0  0  0  0
  192.8630  173.7200  137.5320 C   0  0  0  0  0  3  0  0  0  0  0  0
  191.2140  171.9750  138.9440 C   0  0  0  0  0  3  0  0  0  0  0  0
  192.6540  172.1980  141.0330 C   0  0  2  0  0  3  0  0  0  0  0  0
  193.9710  174.2040  141.1850 C   0  0  0  0  0  2  0  0  0  0  0  0
  193.8780  174.4710  139.6810 C   0  0  0  0  0  2  0  0  0  0  0  0
  194.1120  172.8520  143.0160 C   0  0  0  0  0  2  0  0  0  0  0  0
  195.2670  174.1790  143.5530 S   0  0  0  0  0  0  0  0  0  0  0  0
  193.2080  174.0280  145.4280 C   0  0  0  0  0  3  0  0  0  0  0  0
  192.7370  175.9090  146.8890 C   0  0  0  0  0  0  0  0  0  0  0  0
  194.6690  175.9730  145.4110 C   0  0  0  0  0  3  0  0  0  0  0  0
  192.4780  174.5770  146.4780 C   0  0  0  0  0  3  0  0  0  0  0  0
  194.2840  174.7840  144.8970 C   0  0  0  0  0  0  0  0  0  0  0  0
  193.8590  176.5760  146.3800 C   0  0  0  0  0  3  0  0  0  0  0  0
  191.1850  177.1750  148.4910 N   0  0  0  0  0  0  0  0  0  0  0  0
  191.9660  176.6240  147.8200 C   0  0  0  0  0  0  0  0  0  0  0  0
  188.7050  174.9230  141.2600 C   0  0  0  0  0  2  0  0  0  0  0  0
  187.5470  175.2300  141.9420 O   0  0  0  0  0  0  0  0  0  0  0  0
  187.0730  176.5290  141.6620 C   0  0  0  0  0  2  0  0  0  0  0  0
  187.3900  177.3230  142.8950 C   0  0  0  0  0  2  0  0  0  0  0  0
  187.1660  176.6300  144.1130 N   0  0  0  0  0  0  0  0  0  0  0  0
  186.1400  177.3750  144.9000 C   0  0  0  0  0  0  0  0  0  0  0  0
  184.7020  179.2730  145.0890 C   0  0  0  0  0  3  0  0  0  0  0  0
  184.5790  177.5020  146.7040 C   0  0  0  0  0  3  0  0  0  0  0  0
  184.0640  178.6670  146.1410 C   0  0  0  0  0  3  0  0  0  0  0  0
  185.6240  176.8110  146.0470 C   0  0  0  0  0  3  0  0  0  0  0  0
  185.7790  178.6120  144.4630 C   0  0  0  0  0  3  0  0  0  0  0  0
  188.3810  176.3930  144.8850 C   0  0  0  0  0  2  0  0  0  0  0  0
  189.2120  177.6220  145.3380 C   0  0  0  0  0  2  0  0  0  0  0  0
  190.5380  177.8550  144.6350 C   0  0  0  0  0  2  0  0  0  0  0  0
  191.8550  176.7380  142.7640 C   0  0  0  0  0  1  0  0  0  0  0  0
  190.8650  176.5860  143.9210 C   0  0  0  0  0  2  0  0  0  0  0  0
  1  3  1  0  0  0  0
  2 28  1  6  0  0  0
  2  1  1  0  0  0  0
  4  2  1  0  0  0  0
  5  4  1  6  0  0  0
  5  6  1  0  0  0  0
  6  3  1  0  0  0  0
  7 13  2  0  0  0  0
  7 10  1  0  0  0  0
  8 18  1  0  0  0  0
  9 12  2  0  0  0  0
  9 17  1  0  0  0  0
 10 14  2  0  0  0  0
 11  7  1  0  0  0  0
 13  9  1  0  0  0  0
 14 12  1  0  0  0  0
 15 12  1  6  0  0  0
 15  8  1  0  0  0  0
 15  5  1  0  0  0  0
 16  8  1  0  0  0  0
 17 16  1  0  0  0  0
 18 19  1  0  0  0  0
 19 24  1  0  0  0  0
 20 23  1  0  0  0  0
 21 27  1  0  0  0  0
 22 25  2  0  0  0  0
 23 21  2  0  0  0  0
 24 22  1  0  0  0  0
 24 20  2  0  0  0  0
 25 21  1  0  0  0  0
 27 26  3  0  0  0  0
 28 29  1  0  0  0  0
 30 29  1  0  0  0  0
 30 31  1  0  0  0  0
 31 32  1  0  0  0  0
 32 39  1  0  0  0  0
 32 33  1  0  0  0  0
 33 37  1  0  0  0  0
 34 36  2  0  0  0  0
 36 35  1  0  0  0  0
 37 35  2  0  0  0  0
 38 33  2  0  0  0  0
 38 34  1  0  0  0  0
 39 40  1  0  0  0  0
 41 40  1  0  0  0  0
 42 43  1  0  0  0  0
 43 41  1  0  0  0  0
M  END
>  <MODEL>
8

>  <REMARK>
 VINA RESULT:      -6.5      2.905      7.939
  Name = 
  15 active torsions:
  status: ('A' for Active; 'I' for Inactive)
    1  A    between atoms: S_1  and  C_34
    2  A    between atoms: S_1  and  C_35
    3  A    between atoms: C_3  and  C_4
    4  A    between atoms: C_3  and  O_12
    5  A    between atoms: C_4  and  N_14
    6  A    between atoms: C_6  and  C_17
    7  A    between atoms: N_8  and  C_34
    8  A    between atoms: C_10  and  C_22
    9  A    between atoms: C_10  and  C_41
   10  A    between atoms: C_11  and  N_14
   11  A    between atoms: O_12  and  C_17
   12  A    between atoms: N_14  and  C_41
   13  A    between atoms: C_19  and  C_37
   14  A    between atoms: C_22  and  C_42
   15  A    between atoms: C_27  and  C_30
                            x       y       z     vdW  Elec       q    Type
                         _______ _______ _______ _____ _____    ______ ____

>  <TORSDO>
F 15

$$$$
=
 OpenBabel11052420523D

 43 47  0  0  1  0  0  0  0  0999 V2000
  190.8360  174.4720  143.8840 N   0  0  0  0  0  2  0  0  0  0  0  0
  191.6490  175.2420  143.0720 C   0  0  1  0  0  3  0  0  0  0  0  0
  191.1270  173.0080  143.9480 C   0  0  0  0  0  2  0  0  0  0  0  0
  192.4510  174.7900  142.1620 C   0  0  0  0  0  2  0  0  0  0  0  0
  192.8810  173.4630  142.3320 C   0  0  1  0  0  3  0  0  0  0  0  0
  191.8410  172.5130  142.7190 N   0  0  0  0  0  2  0  0  0  0  0  0
  192.2710  174.4670  137.3760 C   0  0  0  0  0  0  0  0  0  0  0  0
  195.2240  173.3660  141.4570 N   0  0  0  0  0  0  0  0  0  0  0  0
  193.9640  174.4730  139.1290 C   0  0  0  0  0  0  0  0  0  0  0  0
  191.4690  173.7110  138.2300 C   0  0  0  0  0  3  0  0  0  0  0  0
  191.7480  174.8070  136.0080 C   0  0  0  0  0  1  0  0  0  0  0  0
  193.2780  173.4890  139.8700 C   0  0  0  0  0  0  0  0  0  0  0  0
  193.5250  174.8940  137.8390 C   0  0  0  0  0  3  0  0  0  0  0  0
  191.9580  173.2040  139.4030 C   0  0  0  0  0  3  0  0  0  0  0  0
  193.7910  173.0190  141.1610 C   0  0  2  0  0  3  0  0  0  0  0  0
  195.3760  174.8270  141.2130 C   0  0  0  0  0  2  0  0  0  0  0  0
  195.0300  175.2720  139.7900 C   0  0  0  0  0  2  0  0  0  0  0  0
  195.6810  173.2680  142.8490 C   0  0  0  0  0  2  0  0  0  0  0  0
  196.4090  174.8240  143.5060 S   0  0  0  0  0  0  0  0  0  0  0  0
  194.4880  174.0980  145.3930 C   0  0  0  0  0  3  0  0  0  0  0  0
  193.1220  175.7920  146.4670 C   0  0  0  0  0  0  0  0  0  0  0  0
  194.9350  176.4550  144.9880 C   0  0  0  0  0  3  0  0  0  0  0  0
  193.5110  174.4360  146.3230 C   0  0  0  0  0  3  0  0  0  0  0  0
  195.1570  175.1490  144.7160 C   0  0  0  0  0  0  0  0  0  0  0  0
  193.8690  176.7900  145.8300 C   0  0  0  0  0  3  0  0  0  0  0  0
  191.1170  176.7230  147.7690 N   0  0  0  0  0  0  0  0  0  0  0  0
  192.0430  176.2360  147.2500 C   0  0  0  0  0  0  0  0  0  0  0  0
  191.3560  176.7410  142.9730 C   0  0  0  0  0  2  0  0  0  0  0  0
  190.8530  177.2800  144.1380 O   0  0  0  0  0  0  0  0  0  0  0  0
  189.8180  178.2120  143.9090 C   0  0  0  0  0  2  0  0  0  0  0  0
  188.5640  177.4950  144.3150 C   0  0  0  0  0  2  0  0  0  0  0  0
  187.4010  177.9040  143.6130 N   0  0  0  0  0  0  0  0  0  0  0  0
  186.2540  177.9210  144.5670 C   0  0  0  0  0  0  0  0  0  0  0  0
  185.1360  176.9190  146.4260 C   0  0  0  0  0  3  0  0  0  0  0  0
  184.3600  179.0080  145.5360 C   0  0  0  0  0  3  0  0  0  0  0  0
  184.3390  178.0300  146.5270 C   0  0  0  0  0  3  0  0  0  0  0  0
  185.3690  178.9780  144.5450 C   0  0  0  0  0  3  0  0  0  0  0  0
  186.1100  176.8600  145.4080 C   0  0  0  0  0  3  0  0  0  0  0  0
  187.1150  177.0980  142.4310 C   0  0  0  0  0  2  0  0  0  0  0  0
  187.8060  175.7160  142.3020 C   0  0  0  0  0  2  0  0  0  0  0  0
  188.1920  175.2650  140.9030 C   0  0  0  0  0  2  0  0  0  0  0  0
  187.8730  172.9230  141.8480 C   0  0  0  0  0  1  0  0  0  0  0  0
  188.7460  173.8870  141.0410 C   0  0  0  0  0  2  0  0  0  0  0  0
  1  3  1  0  0  0  0
  2 28  1  6  0  0  0
  2  1  1  0  0  0  0
  4  2  1  0  0  0  0
  5  4  1  6  0  0  0
  5  6  1  0  0  0  0
  6  3  1  0  0  0  0
  7 13  2  0  0  0  0
  7 10  1  0  0  0  0
  8 18  1  0  0  0  0
  9 17  1  0  0  0  0
  9 12  2  0  0  0  0
 10 14  2  0  0  0  0
 11  7  1  0  0  0  0
 13  9  1  0  0  0  0
 14 12  1  0  0  0  0
 15 12  1  6  0  0  0
 15  8  1  0  0  0  0
 15  5  1  0  0  0  0
 16  8  1  0  0  0  0
 17 16  1  0  0  0  0
 18 19  1  0  0  0  0
 19 24  1  0  0  0  0
 20 23  1  0  0  0  0
 21 27  1  0  0  0  0
 22 25  2  0  0  0  0
 23 21  2  0  0  0  0
 24 22  1  0  0  0  0
 24 20  2  0  0  0  0
 25 21  1  0  0  0  0
 27 26  3  0  0  0  0
 28 29  1  0  0  0  0
 30 29  1  0  0  0  0
 30 31  1  0  0  0  0
 32 31  1  0  0  0  0
 32 33  1  0  0  0  0
 33 38  1  0  0  0  0
 34 36  1  0  0  0  0
 35 36  2  0  0  0  0
 37 33  2  0  0  0  0
 37 35  1  0  0  0  0
 38 34  2  0  0  0  0
 39 32  1  0  0  0  0
 40 39  1  0  0  0  0
 41 43  1  0  0  0  0
 41 40  1  0  0  0  0
 43 42  1  0  0  0  0
M  END
>  <MODEL>
9

>  <REMARK>
 VINA RESULT:      -6.5      2.903      8.109
  Name = 
  15 active torsions:
  status: ('A' for Active; 'I' for Inactive)
    1  A    between atoms: S_1  and  C_34
    2  A    between atoms: S_1  and  C_35
    3  A    between atoms: C_3  and  C_4
    4  A    between atoms: C_3  and  O_12
    5  A    between atoms: C_4  and  N_14
    6  A    between atoms: C_6  and  C_17
    7  A    between atoms: N_8  and  C_34
    8  A    between atoms: C_10  and  C_22
    9  A    between atoms: C_10  and  C_41
   10  A    between atoms: C_11  and  N_14
   11  A    between atoms: O_12  and  C_17
   12  A    between atoms: N_14  and  C_41
   13  A    between atoms: C_19  and  C_37
   14  A    between atoms: C_22  and  C_42
   15  A    between atoms: C_27  and  C_30
                            x       y       z     vdW  Elec       q    Type
                         _______ _______ _______ _____ _____    ______ ____

>  <TORSDO>
F 15

$$$$
