=
 OpenBabel11052417493D

 31 35  0  0  1  0  0  0  0  0999 V2000
  184.9370  178.4790  146.8720 C   0  0  0  0  0  0  0  0  0  0  0  0
  187.1720  176.9440  144.1480 C   0  0  2  0  0  3  0  0  0  0  0  0
  186.5230  177.4180  142.8580 C   0  0  0  0  0  0  0  0  0  0  0  0
  190.9220  175.3900  147.4700 O   0  0  0  0  0  0  0  0  0  0  0  0
  191.4220  175.4400  146.3140 C   0  0  0  0  0  0  0  0  0  0  0  0
  184.5360  177.8610  141.5240 C   0  0  0  0  0  0  0  0  0  0  0  0
  186.6600  177.5050  145.4620 C   0  0  0  0  0  0  0  0  0  0  0  0
  185.7430  178.2920  147.9970 C   0  0  0  0  0  3  0  0  0  0  0  0
  185.1280  177.5280  142.7450 C   0  0  0  0  0  3  0  0  0  0  0  0
  189.3490  176.5630  145.3190 C   0  0  0  0  0  0  0  0  0  0  0  0
  183.7100  179.0370  147.0040 F   0  0  0  0  0  0  0  0  0  0  0  0
  188.8090  177.3990  141.7510 C   0  0  0  0  0  2  0  0  0  0  0  0
  183.1580  177.9930  141.4370 O   0  0  0  0  0  1  0  0  0  0  0  0
  188.7720  176.7270  146.4760 N   0  0  0  0  0  0  0  0  0  0  0  0
  188.6950  177.1260  144.0840 C   0  0  1  0  0  3  0  0  0  0  0  0
  190.6650  175.9980  145.2290 N   0  0  0  0  0  2  0  0  0  0  0  0
  185.3870  178.0740  145.6130 C   0  0  0  0  0  3  0  0  0  0  0  0
  185.3290  178.0550  140.3920 C   0  0  0  0  0  3  0  0  0  0  0  0
  187.4680  177.3170  146.6050 C   0  0  0  0  0  0  0  0  0  0  0  0
  187.0060  177.7090  147.8640 C   0  0  0  0  0  3  0  0  0  0  0  0
  189.2110  176.5300  142.8560 N   0  0  0  0  0  2  0  0  0  0  0  0
  187.3130  177.5580  141.6930 C   0  0  0  0  0  0  0  0  0  0  0  0
  186.7150  177.9020  140.4760 C   0  0  0  0  0  3  0  0  0  0  0  0
  195.3220  173.8070  145.5240 C   0  0  0  0  0  0  0  0  0  0  0  0
  192.9150  173.6150  145.5570 C   0  0  0  0  0  3  0  0  0  0  0  0
  193.9550  177.0690  146.8170 C   0  0  0  0  0  1  0  0  0  0  0  0
  196.5690  173.2580  145.2600 O   0  0  0  0  0  1  0  0  0  0  0  0
  194.1680  173.0600  145.2910 C   0  0  0  0  0  3  0  0  0  0  0  0
  193.9720  175.6730  146.2890 C   0  0  0  0  0  0  0  0  0  0  0  0
  192.7900  174.9220  146.0560 C   0  0  0  0  0  0  0  0  0  0  0  0
  195.2230  175.1070  146.0200 C   0  0  0  0  0  3  0  0  0  0  0  0
  1 11  1  0  0  0  0
  1  8  1  0  0  0  0
  2  3  1  6  0  0  0
  2  7  1  0  0  0  0
  5  4  2  0  0  0  0
  6  9  2  0  0  0  0
  7 17  1  0  0  0  0
  7 19  2  0  0  0  0
  9  3  1  0  0  0  0
 10 14  2  0  0  0  0
 12 21  1  0  0  0  0
 13  6  1  0  0  0  0
 14 19  1  0  0  0  0
 15 21  1  6  0  0  0
 15  2  1  0  0  0  0
 15 10  1  0  0  0  0
 16 10  1  0  0  0  0
 16  5  1  0  0  0  0
 17  1  2  0  0  0  0
 18 23  2  0  0  0  0
 18  6  1  0  0  0  0
 19 20  1  0  0  0  0
 20  8  2  0  0  0  0
 22 12  1  0  0  0  0
 22  3  2  0  0  0  0
 23 22  1  0  0  0  0
 24 31  1  0  0  0  0
 25 30  2  0  0  0  0
 27 24  1  0  0  0  0
 28 24  2  0  0  0  0
 28 25  1  0  0  0  0
 29 26  1  0  0  0  0
 30 29  1  0  0  0  0
 30  5  1  0  0  0  0
 31 29  2  0  0  0  0
M  END
>  <MODEL>
1

>  <REMARK>
 VINA RESULT:      -9.9      0.000      0.000
  Name = 
  1 active torsions:
  status: ('A' for Active; 'I' for Inactive)
    1  A    between atoms: C_9  and  C_22
                            x       y       z     vdW  Elec       q    Type
                         _______ _______ _______ _____ _____    ______ ____

>  <TORSDO>
F 1

$$$$
=
 OpenBabel11052417493D

 31 35  0  0  1  0  0  0  0  0999 V2000
  184.4830  178.5470  146.6400 C   0  0  0  0  0  0  0  0  0  0  0  0
  186.8440  177.0920  143.9800 C   0  0  2  0  0  3  0  0  0  0  0  0
  186.2130  177.5400  142.6720 C   0  0  0  0  0  0  0  0  0  0  0  0
  190.5600  175.6830  147.4030 O   0  0  0  0  0  0  0  0  0  0  0  0
  191.0890  175.7490  146.2610 C   0  0  0  0  0  0  0  0  0  0  0  0
  184.2470  177.9070  141.2840 C   0  0  0  0  0  0  0  0  0  0  0  0
  186.2780  177.6360  145.2780 C   0  0  0  0  0  0  0  0  0  0  0  0
  185.2660  178.3920  147.7860 C   0  0  0  0  0  3  0  0  0  0  0  0
  184.8190  177.5990  142.5210 C   0  0  0  0  0  3  0  0  0  0  0  0
  189.0030  176.7930  145.2080 C   0  0  0  0  0  0  0  0  0  0  0  0
  183.2340  179.0600  146.7380 F   0  0  0  0  0  0  0  0  0  0  0  0
  188.5270  177.6040  141.6250 C   0  0  0  0  0  2  0  0  0  0  0  0
  182.8680  177.9880  141.1600 O   0  0  0  0  0  1  0  0  0  0  0  0
  188.3890  176.9380  146.3490 N   0  0  0  0  0  0  0  0  0  0  0  0
  188.3620  177.3300  143.9550 C   0  0  1  0  0  3  0  0  0  0  0  0
  190.3400  176.2770  145.1540 N   0  0  0  0  0  2  0  0  0  0  0  0
  184.9810  178.1580  145.3940 C   0  0  0  0  0  3  0  0  0  0  0  0
  185.0630  178.1290  140.1730 C   0  0  0  0  0  3  0  0  0  0  0  0
  187.0620  177.4800  146.4420 C   0  0  0  0  0  0  0  0  0  0  0  0
  186.5520  177.8560  147.6880 C   0  0  0  0  0  3  0  0  0  0  0  0
  188.9310  176.7510  142.7430 N   0  0  0  0  0  2  0  0  0  0  0  0
  187.0280  177.7070  141.5270 C   0  0  0  0  0  0  0  0  0  0  0  0
  186.4500  178.0260  140.2940 C   0  0  0  0  0  3  0  0  0  0  0  0
  195.1710  174.5210  145.6900 C   0  0  0  0  0  0  0  0  0  0  0  0
  193.5290  176.0970  146.4990 C   0  0  0  0  0  3  0  0  0  0  0  0
  191.7740  173.1200  144.8680 C   0  0  0  0  0  1  0  0  0  0  0  0
  196.4960  174.1470  145.5180 O   0  0  0  0  0  1  0  0  0  0  0  0
  194.8630  175.7220  146.3270 C   0  0  0  0  0  3  0  0  0  0  0  0
  192.8070  174.0610  145.3930 C   0  0  0  0  0  0  0  0  0  0  0  0
  192.4810  175.2810  146.0410 C   0  0  0  0  0  0  0  0  0  0  0  0
  194.1470  173.6960  145.2260 C   0  0  0  0  0  3  0  0  0  0  0  0
  1 11  1  0  0  0  0
  1  8  1  0  0  0  0
  2  3  1  6  0  0  0
  2  7  1  0  0  0  0
  5  4  2  0  0  0  0
  6  9  2  0  0  0  0
  7 17  1  0  0  0  0
  7 19  2  0  0  0  0
  9  3  1  0  0  0  0
 10 14  2  0  0  0  0
 12 21  1  0  0  0  0
 13  6  1  0  0  0  0
 14 19  1  0  0  0  0
 15 21  1  6  0  0  0
 15  2  1  0  0  0  0
 15 10  1  0  0  0  0
 16 10  1  0  0  0  0
 16  5  1  0  0  0  0
 17  1  2  0  0  0  0
 18 23  2  0  0  0  0
 18  6  1  0  0  0  0
 19 20  1  0  0  0  0
 20  8  2  0  0  0  0
 22 12  1  0  0  0  0
 22  3  2  0  0  0  0
 23 22  1  0  0  0  0
 24 28  1  0  0  0  0
 26 29  1  0  0  0  0
 27 24  1  0  0  0  0
 28 25  2  0  0  0  0
 29 30  2  0  0  0  0
 30  5  1  0  0  0  0
 30 25  1  0  0  0  0
 31 29  1  0  0  0  0
 31 24  2  0  0  0  0
M  END
>  <MODEL>
2

>  <REMARK>
 VINA RESULT:      -9.8      0.555      1.329
  Name = 
  1 active torsions:
  status: ('A' for Active; 'I' for Inactive)
    1  A    between atoms: C_9  and  C_22
                            x       y       z     vdW  Elec       q    Type
                         _______ _______ _______ _____ _____    ______ ____

>  <TORSDO>
F 1

$$$$
=
 OpenBabel11052417493D

 31 35  0  0  1  0  0  0  0  0999 V2000
  190.7130  176.7970  147.0650 C   0  0  0  0  0  0  0  0  0  0  0  0
  188.4920  176.3340  143.9630 C   0  0  2  0  0  3  0  0  0  0  0  0
  187.5130  177.4920  144.0590 C   0  0  0  0  0  0  0  0  0  0  0  0
  191.5140  172.6330  141.7980 O   0  0  0  0  0  0  0  0  0  0  0  0
  190.7930  173.1270  140.8900 C   0  0  0  0  0  0  0  0  0  0  0  0
  186.0480  178.9240  145.3740 C   0  0  0  0  0  0  0  0  0  0  0  0
  189.6540  176.2860  144.9380 C   0  0  0  0  0  0  0  0  0  0  0  0
  191.7630  175.9290  146.7570 C   0  0  0  0  0  3  0  0  0  0  0  0
  187.0280  177.9310  145.3010 C   0  0  0  0  0  3  0  0  0  0  0  0
  189.9220  174.9930  142.4090 C   0  0  0  0  0  0  0  0  0  0  0  0
  190.7100  177.4640  148.2440 F   0  0  0  0  0  0  0  0  0  0  0  0
  187.3760  177.5330  141.5240 C   0  0  0  0  0  2  0  0  0  0  0  0
  185.5990  179.3650  146.6100 O   0  0  0  0  0  1  0  0  0  0  0  0
  190.7310  174.6970  143.3880 N   0  0  0  0  0  0  0  0  0  0  0  0
  189.0320  176.2020  142.5310 C   0  0  1  0  0  3  0  0  0  0  0  0
  189.9840  174.2810  141.1650 N   0  0  0  0  0  2  0  0  0  0  0  0
  189.6560  176.9640  146.1660 C   0  0  0  0  0  3  0  0  0  0  0  0
  185.5170  179.4680  144.2030 C   0  0  0  0  0  3  0  0  0  0  0  0
  190.7180  175.4090  144.6360 C   0  0  0  0  0  0  0  0  0  0  0  0
  191.7640  175.2340  145.5460 C   0  0  0  0  0  3  0  0  0  0  0  0
  187.9210  176.1770  141.5860 N   0  0  0  0  0  2  0  0  0  0  0  0
  186.9260  178.0070  142.8800 C   0  0  0  0  0  0  0  0  0  0  0  0
  185.9530  179.0090  142.9590 C   0  0  0  0  0  3  0  0  0  0  0  0
  190.5960  171.2910  137.0050 C   0  0  0  0  0  0  0  0  0  0  0  0
  189.8170  171.5180  139.2800 C   0  0  0  0  0  3  0  0  0  0  0  0
  192.6800  173.9670  138.6420 C   0  0  0  0  0  1  0  0  0  0  0  0
  190.5130  170.6840  135.7610 O   0  0  0  0  0  1  0  0  0  0  0  0
  189.7320  170.9050  138.0290 C   0  0  0  0  0  3  0  0  0  0  0  0
  191.6400  172.9090  138.4840 C   0  0  0  0  0  0  0  0  0  0  0  0
  190.7640  172.5240  139.5320 C   0  0  0  0  0  0  0  0  0  0  0  0
  191.5450  172.2890  137.2330 C   0  0  0  0  0  3  0  0  0  0  0  0
  1 11  1  0  0  0  0
  2  3  1  6  0  0  0
  2  7  1  0  0  0  0
  3  9  1  0  0  0  0
  5 16  1  0  0  0  0
  5  4  2  0  0  0  0
  6 13  1  0  0  0  0
  7 17  1  0  0  0  0
  8  1  1  0  0  0  0
  9  6  2  0  0  0  0
 10 15  1  0  0  0  0
 10 14  2  0  0  0  0
 12 21  1  0  0  0  0
 12 22  1  0  0  0  0
 14 19  1  0  0  0  0
 15 21  1  6  0  0  0
 15  2  1  0  0  0  0
 16 10  1  0  0  0  0
 17  1  2  0  0  0  0
 18  6  1  0  0  0  0
 19  7  2  0  0  0  0
 19 20  1  0  0  0  0
 20  8  2  0  0  0  0
 22 23  1  0  0  0  0
 22  3  2  0  0  0  0
 23 18  2  0  0  0  0
 24 31  2  0  0  0  0
 24 28  1  0  0  0  0
 25 30  1  0  0  0  0
 27 24  1  0  0  0  0
 28 25  2  0  0  0  0
 29 26  1  0  0  0  0
 29 30  2  0  0  0  0
 30  5  1  0  0  0  0
 31 29  1  0  0  0  0
M  END
>  <MODEL>
3

>  <REMARK>
 VINA RESULT:      -8.7      4.582      5.985
  Name = 
  1 active torsions:
  status: ('A' for Active; 'I' for Inactive)
    1  A    between atoms: C_9  and  C_22
                            x       y       z     vdW  Elec       q    Type
                         _______ _______ _______ _____ _____    ______ ____

>  <TORSDO>
F 1

$$$$
=
 OpenBabel11052417493D

 31 35  0  0  1  0  0  0  0  0999 V2000
  186.1550  177.1930  141.0780 C   0  0  0  0  0  0  0  0  0  0  0  0
  187.9360  177.0590  144.4810 C   0  0  2  0  0  3  0  0  0  0  0  0
  186.8070  177.2880  145.4730 C   0  0  0  0  0  0  0  0  0  0  0  0
  192.4780  175.2970  142.5400 O   0  0  0  0  0  0  0  0  0  0  0  0
  192.4560  175.0370  143.7730 C   0  0  0  0  0  0  0  0  0  0  0  0
  184.7790  178.4550  146.1440 C   0  0  0  0  0  0  0  0  0  0  0  0
  187.5830  176.8680  143.0170 C   0  0  0  0  0  0  0  0  0  0  0  0
  187.1490  176.6660  140.2500 C   0  0  0  0  0  3  0  0  0  0  0  0
  185.7540  178.1690  145.1840 C   0  0  0  0  0  3  0  0  0  0  0  0
  190.0050  175.7350  144.0120 C   0  0  0  0  0  0  0  0  0  0  0  0
  184.9820  177.6100  140.5450 F   0  0  0  0  0  0  0  0  0  0  0  0
  188.0570  175.8570  147.1590 C   0  0  0  0  0  2  0  0  0  0  0  0
  183.7300  179.3070  145.8320 O   0  0  0  0  0  1  0  0  0  0  0  0
  189.8310  175.8920  142.7290 N   0  0  0  0  0  0  0  0  0  0  0  0
  188.8290  175.8970  144.9390 C   0  0  1  0  0  3  0  0  0  0  0  0
  191.2550  175.2580  144.5290 N   0  0  0  0  0  2  0  0  0  0  0  0
  186.3760  177.3070  142.4530 C   0  0  0  0  0  3  0  0  0  0  0  0
  184.8640  177.8880  147.4160 C   0  0  0  0  0  3  0  0  0  0  0  0
  188.5830  176.3390  142.1740 C   0  0  0  0  0  0  0  0  0  0  0  0
  188.3630  176.2420  140.7970 C   0  0  0  0  0  3  0  0  0  0  0  0
  189.2330  176.1020  146.3250 N   0  0  0  0  0  2  0  0  0  0  0  0
  186.9170  176.7660  146.7840 C   0  0  0  0  0  0  0  0  0  0  0  0
  185.9330  177.0480  147.7360 C   0  0  0  0  0  3  0  0  0  0  0  0
  195.9120  173.3640  145.7120 C   0  0  0  0  0  0  0  0  0  0  0  0
  193.9260  173.1310  144.3560 C   0  0  0  0  0  3  0  0  0  0  0  0
  194.3710  176.7850  145.3850 C   0  0  0  0  0  1  0  0  0  0  0  0
  197.0200  172.8010  146.3270 O   0  0  0  0  0  1  0  0  0  0  0  0
  195.0400  172.5620  144.9750 C   0  0  0  0  0  3  0  0  0  0  0  0
  194.5550  175.3140  145.2110 C   0  0  0  0  0  0  0  0  0  0  0  0
  193.6620  174.5070  144.4590 C   0  0  0  0  0  0  0  0  0  0  0  0
  195.6690  174.7330  145.8270 C   0  0  0  0  0  3  0  0  0  0  0  0
  1 17  1  0  0  0  0
  2  7  1  6  0  0  0
  2 15  1  0  0  0  0
  2  3  1  0  0  0  0
  3 22  1  0  0  0  0
  4  5  2  0  0  0  0
  5 30  1  0  0  0  0
  5 16  1  0  0  0  0
  6 18  2  0  0  0  0
  8 20  1  0  0  0  0
  8  1  2  0  0  0  0
  9  3  2  0  0  0  0
  9  6  1  0  0  0  0
 10 16  1  0  0  0  0
 11  1  1  0  0  0  0
 13  6  1  0  0  0  0
 14 10  2  0  0  0  0
 15 10  1  6  0  0  0
 15 21  1  0  0  0  0
 17  7  2  0  0  0  0
 18 23  1  0  0  0  0
 19 14  1  0  0  0  0
 19  7  1  0  0  0  0
 20 19  2  0  0  0  0
 21 12  1  0  0  0  0
 22 12  1  0  0  0  0
 22 23  2  0  0  0  0
 24 31  1  0  0  0  0
 24 27  1  0  0  0  0
 25 30  2  0  0  0  0
 25 28  1  0  0  0  0
 28 24  2  0  0  0  0
 29 26  1  0  0  0  0
 29 31  2  0  0  0  0
 30 29  1  0  0  0  0
M  END
>  <MODEL>
4

>  <REMARK>
 VINA RESULT:      -8.4      2.087      4.189
  Name = 
  1 active torsions:
  status: ('A' for Active; 'I' for Inactive)
    1  A    between atoms: C_9  and  C_22
                            x       y       z     vdW  Elec       q    Type
                         _______ _______ _______ _____ _____    ______ ____

>  <TORSDO>
F 1

$$$$
=
 OpenBabel11052417493D

 31 35  0  0  1  0  0  0  0  0999 V2000
  186.0010  178.8270  143.9620 C   0  0  0  0  0  0  0  0  0  0  0  0
  188.9120  176.3500  143.5700 C   0  0  2  0  0  3  0  0  0  0  0  0
  189.4390  176.2040  144.9880 C   0  0  0  0  0  0  0  0  0  0  0  0
  187.7590  175.0850  138.6120 O   0  0  0  0  0  0  0  0  0  0  0  0
  188.4840  174.1710  139.0880 C   0  0  0  0  0  0  0  0  0  0  0  0
  190.0480  177.1800  147.1330 C   0  0  0  0  0  0  0  0  0  0  0  0
  187.6280  177.1280  143.3530 C   0  0  0  0  0  0  0  0  0  0  0  0
  185.3680  178.6730  142.7260 C   0  0  0  0  0  3  0  0  0  0  0  0
  189.4650  177.2970  145.8690 C   0  0  0  0  0  3  0  0  0  0  0  0
  188.3630  175.1240  141.4600 C   0  0  0  0  0  0  0  0  0  0  0  0
  185.5260  179.7250  144.8580 F   0  0  0  0  0  0  0  0  0  0  0  0
  190.1420  173.8260  144.4380 C   0  0  0  0  0  2  0  0  0  0  0  0
  190.0400  178.2630  148.0010 O   0  0  0  0  0  1  0  0  0  0  0  0
  187.4800  176.0310  141.1470 N   0  0  0  0  0  0  0  0  0  0  0  0
  188.7860  174.9750  142.8980 C   0  0  1  0  0  3  0  0  0  0  0  0
  188.8130  174.1720  140.4860 N   0  0  0  0  0  2  0  0  0  0  0  0
  187.1330  178.0690  144.2680 C   0  0  0  0  0  3  0  0  0  0  0  0
  190.6430  175.9790  147.5200 C   0  0  0  0  0  3  0  0  0  0  0  0
  186.9850  176.9810  142.1050 C   0  0  0  0  0  0  0  0  0  0  0  0
  185.8610  177.7540  141.7970 C   0  0  0  0  0  3  0  0  0  0  0  0
  190.0390  174.2410  143.0390 N   0  0  0  0  0  2  0  0  0  0  0  0
  190.0970  175.0100  145.3670 C   0  0  0  0  0  0  0  0  0  0  0  0
  190.6690  174.8970  146.6370 C   0  0  0  0  0  3  0  0  0  0  0  0
  190.0040  170.9430  136.6850 C   0  0  0  0  0  0  0  0  0  0  0  0
  189.1980  171.8180  138.7870 C   0  0  0  0  0  3  0  0  0  0  0  0
  189.1720  174.5760  136.1410 C   0  0  0  0  0  1  0  0  0  0  0  0
  190.4920  169.8860  135.9310 O   0  0  0  0  0  1  0  0  0  0  0  0
  189.6890  170.7530  138.0300 C   0  0  0  0  0  3  0  0  0  0  0  0
  189.3340  173.2710  136.8470 C   0  0  0  0  0  0  0  0  0  0  0  0
  189.0100  173.0890  138.2170 C   0  0  0  0  0  0  0  0  0  0  0  0
  189.8260  172.1960  136.0980 C   0  0  0  0  0  3  0  0  0  0  0  0
  1 17  1  0  0  0  0
  1 11  1  0  0  0  0
  2  7  1  1  0  0  0
  2  3  1  0  0  0  0
  3 22  2  0  0  0  0
  3  9  1  0  0  0  0
  4  5  2  0  0  0  0
  5 16  1  0  0  0  0
  6 18  1  0  0  0  0
  6 13  1  0  0  0  0
  7 17  2  0  0  0  0
  8  1  2  0  0  0  0
  9  6  2  0  0  0  0
 12 22  1  0  0  0  0
 14 10  2  0  0  0  0
 14 19  1  0  0  0  0
 15 10  1  6  0  0  0
 15 21  1  0  0  0  0
 15  2  1  0  0  0  0
 16 10  1  0  0  0  0
 19  7  1  0  0  0  0
 20 19  2  0  0  0  0
 20  8  1  0  0  0  0
 21 12  1  0  0  0  0
 22 23  1  0  0  0  0
 23 18  2  0  0  0  0
 24 28  1  0  0  0  0
 26 29  1  0  0  0  0
 27 24  1  0  0  0  0
 28 25  2  0  0  0  0
 29 30  2  0  0  0  0
 30 25  1  0  0  0  0
 30  5  1  0  0  0  0
 31 24  2  0  0  0  0
 31 29  1  0  0  0  0
M  END
>  <MODEL>
5

>  <REMARK>
 VINA RESULT:      -8.3      4.430      7.222
  Name = 
  1 active torsions:
  status: ('A' for Active; 'I' for Inactive)
    1  A    between atoms: C_9  and  C_22
                            x       y       z     vdW  Elec       q    Type
                         _______ _______ _______ _____ _____    ______ ____

>  <TORSDO>
F 1

$$$$
=
 OpenBabel11052417493D

 31 35  0  0  1  0  0  0  0  0999 V2000
  195.0940  174.0930  145.4260 C   0  0  0  0  0  0  0  0  0  0  0  0
  191.8710  173.5650  143.4010 C   0  0  2  0  0  3  0  0  0  0  0  0
  192.0170  172.1460  142.8780 C   0  0  0  0  0  0  0  0  0  0  0  0
  189.5520  177.9510  145.1030 O   0  0  0  0  0  0  0  0  0  0  0  0
  188.6550  177.1840  144.6610 C   0  0  0  0  0  0  0  0  0  0  0  0
  193.3760  170.3740  141.9090 C   0  0  0  0  0  0  0  0  0  0  0  0
  192.8890  174.0730  144.4050 C   0  0  0  0  0  0  0  0  0  0  0  0
  194.7640  175.2520  146.1310 C   0  0  0  0  0  3  0  0  0  0  0  0
  193.2670  171.6410  142.4890 C   0  0  0  0  0  3  0  0  0  0  0  0
  190.2790  175.2250  144.3850 C   0  0  0  0  0  0  0  0  0  0  0  0
  196.3210  173.5380  145.5720 F   0  0  0  0  0  0  0  0  0  0  0  0
  189.4890  171.9090  142.9370 C   0  0  0  0  0  2  0  0  0  0  0  0
  194.6230  169.8790  141.5560 O   0  0  0  0  0  1  0  0  0  0  0  0
  191.2650  175.8430  144.9730 N   0  0  0  0  0  0  0  0  0  0  0  0
  190.4580  173.7910  143.9600 C   0  0  1  0  0  3  0  0  0  0  0  0
  188.9860  175.8380  144.2830 N   0  0  0  0  0  2  0  0  0  0  0  0
  194.1670  173.5140  144.5570 C   0  0  0  0  0  3  0  0  0  0  0  0
  192.2310  169.6100  141.6800 C   0  0  0  0  0  3  0  0  0  0  0  0
  192.5640  175.2470  145.1200 C   0  0  0  0  0  0  0  0  0  0  0  0
  193.5020  175.8300  145.9760 C   0  0  0  0  0  3  0  0  0  0  0  0
  189.4670  173.3710  142.9760 N   0  0  0  0  0  2  0  0  0  0  0  0
  190.8580  171.3890  142.5870 C   0  0  0  0  0  0  0  0  0  0  0  0
  190.9740  170.1180  142.0160 C   0  0  0  0  0  3  0  0  0  0  0  0
  184.6330  178.6060  144.1140 C   0  0  0  0  0  0  0  0  0  0  0  0
  186.8940  178.2990  143.3240 C   0  0  0  0  0  3  0  0  0  0  0  0
  186.5370  176.8250  146.8310 C   0  0  0  0  0  1  0  0  0  0  0  0
  183.3420  179.0730  143.9130 O   0  0  0  0  0  1  0  0  0  0  0  0
  185.5960  178.7700  143.1200 C   0  0  0  0  0  3  0  0  0  0  0  0
  186.2650  177.4930  145.5250 C   0  0  0  0  0  0  0  0  0  0  0  0
  187.2540  177.6560  144.5200 C   0  0  0  0  0  0  0  0  0  0  0  0
  184.9670  177.9690  145.3100 C   0  0  0  0  0  3  0  0  0  0  0  0
  1 11  1  0  0  0  0
  1  8  1  0  0  0  0
  2  3  1  1  0  0  0
  2 15  1  0  0  0  0
  2  7  1  0  0  0  0
  5  4  2  0  0  0  0
  6  9  1  0  0  0  0
  7 17  1  0  0  0  0
  7 19  2  0  0  0  0
  9  3  2  0  0  0  0
 10 14  2  0  0  0  0
 12 21  1  0  0  0  0
 13  6  1  0  0  0  0
 14 19  1  0  0  0  0
 15 21  1  6  0  0  0
 15 10  1  0  0  0  0
 16 10  1  0  0  0  0
 16  5  1  0  0  0  0
 17  1  2  0  0  0  0
 18  6  2  0  0  0  0
 18 23  1  0  0  0  0
 19 20  1  0  0  0  0
 20  8  2  0  0  0  0
 22  3  1  0  0  0  0
 22 12  1  0  0  0  0
 23 22  2  0  0  0  0
 24 31  1  0  0  0  0
 25 30  2  0  0  0  0
 27 24  1  0  0  0  0
 28 25  1  0  0  0  0
 28 24  2  0  0  0  0
 29 26  1  0  0  0  0
 30  5  1  0  0  0  0
 30 29  1  0  0  0  0
 31 29  2  0  0  0  0
M  END
>  <MODEL>
6

>  <REMARK>
 VINA RESULT:      -8.2      3.690      8.646
  Name = 
  1 active torsions:
  status: ('A' for Active; 'I' for Inactive)
    1  A    between atoms: C_9  and  C_22
                            x       y       z     vdW  Elec       q    Type
                         _______ _______ _______ _____ _____    ______ ____

>  <TORSDO>
F 1

$$$$
=
 OpenBabel11052417493D

 31 35  0  0  1  0  0  0  0  0999 V2000
  193.1110  172.6730  140.3520 C   0  0  0  0  0  0  0  0  0  0  0  0
  192.2410  174.2200  143.7610 C   0  0  2  0  0  3  0  0  0  0  0  0
  193.5930  174.3350  144.4460 C   0  0  0  0  0  0  0  0  0  0  0  0
  187.2750  175.3340  142.4910 O   0  0  0  0  0  0  0  0  0  0  0  0
  187.5950  176.0520  143.4760 C   0  0  0  0  0  0  0  0  0  0  0  0
  195.7790  173.4120  144.9880 C   0  0  0  0  0  0  0  0  0  0  0  0
  192.2040  173.8070  142.3010 C   0  0  0  0  0  0  0  0  0  0  0  0
  191.9170  172.8910  139.6620 C   0  0  0  0  0  3  0  0  0  0  0  0
  194.5810  173.3540  144.2710 C   0  0  0  0  0  3  0  0  0  0  0  0
  190.0580  175.3690  143.3460 C   0  0  0  0  0  0  0  0  0  0  0  0
  194.1320  172.0180  139.7490 F   0  0  0  0  0  0  0  0  0  0  0  0
  192.7400  176.3760  145.6940 C   0  0  0  0  0  2  0  0  0  0  0  0
  196.7570  172.4490  144.7810 O   0  0  0  0  0  1  0  0  0  0  0  0
  189.9110  174.7150  142.2280 N   0  0  0  0  0  0  0  0  0  0  0  0
  191.4360  175.5170  143.9360 C   0  0  1  0  0  3  0  0  0  0  0  0
  188.9570  176.0780  143.9320 N   0  0  0  0  0  2  0  0  0  0  0  0
  193.2500  173.1170  141.6700 C   0  0  0  0  0  3  0  0  0  0  0  0
  195.9890  174.4330  145.9150 C   0  0  0  0  0  3  0  0  0  0  0  0
  190.9990  174.0190  141.5980 C   0  0  0  0  0  0  0  0  0  0  0  0
  190.8600  173.5600  140.2850 C   0  0  0  0  0  3  0  0  0  0  0  0
  191.4050  175.8900  145.3450 N   0  0  0  0  0  2  0  0  0  0  0  0
  193.7910  175.3310  145.4310 C   0  0  0  0  0  0  0  0  0  0  0  0
  194.9960  175.3900  146.1380 C   0  0  0  0  0  3  0  0  0  0  0  0
  184.6430  178.3250  145.6250 C   0  0  0  0  0  0  0  0  0  0  0  0
  186.1070  176.4160  145.4230 C   0  0  0  0  0  3  0  0  0  0  0  0
  186.4810  178.6650  142.3560 C   0  0  0  0  0  1  0  0  0  0  0  0
  183.6910  179.0410  146.3380 O   0  0  0  0  0  1  0  0  0  0  0  0
  185.1500  177.1340  146.1410 C   0  0  0  0  0  3  0  0  0  0  0  0
  186.0530  178.0880  143.6640 C   0  0  0  0  0  0  0  0  0  0  0  0
  186.5760  176.8730  144.1800 C   0  0  0  0  0  0  0  0  0  0  0  0
  185.0940  178.7990  144.3930 C   0  0  0  0  0  3  0  0  0  0  0  0
  1 17  1  0  0  0  0
  2  7  1  6  0  0  0
  2 15  1  0  0  0  0
  2  3  1  0  0  0  0
  3 22  1  0  0  0  0
  4  5  2  0  0  0  0
  5 16  1  0  0  0  0
  5 30  1  0  0  0  0
  6 18  2  0  0  0  0
  8 20  1  0  0  0  0
  8  1  2  0  0  0  0
  9  3  2  0  0  0  0
  9  6  1  0  0  0  0
 10 16  1  0  0  0  0
 11  1  1  0  0  0  0
 13  6  1  0  0  0  0
 14 10  2  0  0  0  0
 15 10  1  1  0  0  0
 15 21  1  0  0  0  0
 17  7  2  0  0  0  0
 18 23  1  0  0  0  0
 19 14  1  0  0  0  0
 19  7  1  0  0  0  0
 20 19  2  0  0  0  0
 21 12  1  0  0  0  0
 22 12  1  0  0  0  0
 22 23  2  0  0  0  0
 24 28  1  0  0  0  0
 24 27  1  0  0  0  0
 25 28  2  0  0  0  0
 26 29  1  0  0  0  0
 29 30  2  0  0  0  0
 29 31  1  0  0  0  0
 30 25  1  0  0  0  0
 31 24  2  0  0  0  0
M  END
>  <MODEL>
7

>  <REMARK>
 VINA RESULT:      -8.1      3.701      9.253
  Name = 
  1 active torsions:
  status: ('A' for Active; 'I' for Inactive)
    1  A    between atoms: C_9  and  C_22
                            x       y       z     vdW  Elec       q    Type
                         _______ _______ _______ _____ _____    ______ ____

>  <TORSDO>
F 1

$$$$
=
 OpenBabel11052417493D

 31 35  0  0  1  0  0  0  0  0999 V2000
  187.8640  175.4740  140.6100 C   0  0  0  0  0  0  0  0  0  0  0  0
  189.4970  175.4450  144.0890 C   0  0  2  0  0  3  0  0  0  0  0  0
  188.4750  176.1590  144.9590 C   0  0  0  0  0  0  0  0  0  0  0  0
  193.3450  172.1430  142.7490 O   0  0  0  0  0  0  0  0  0  0  0  0
  193.2360  172.1240  144.0050 C   0  0  0  0  0  0  0  0  0  0  0  0
  186.8700  177.9570  145.3000 C   0  0  0  0  0  0  0  0  0  0  0  0
  189.1170  175.1050  142.6600 C   0  0  0  0  0  0  0  0  0  0  0  0
  188.6680  174.5470  139.9450 C   0  0  0  0  0  3  0  0  0  0  0  0
  187.7270  177.2390  144.4630 C   0  0  0  0  0  3  0  0  0  0  0  0
  191.0940  173.5230  143.9740 C   0  0  0  0  0  0  0  0  0  0  0  0
  186.8690  176.1070  139.9450 F   0  0  0  0  0  0  0  0  0  0  0  0
  189.2370  174.7550  146.9330 C   0  0  0  0  0  2  0  0  0  0  0  0
  186.1170  179.0030  144.7870 O   0  0  0  0  0  1  0  0  0  0  0  0
  190.9850  173.4930  142.6760 N   0  0  0  0  0  0  0  0  0  0  0  0
  190.0070  174.1770  144.7880 C   0  0  1  0  0  3  0  0  0  0  0  0
  192.1450  172.8090  144.6390 N   0  0  0  0  0  2  0  0  0  0  0  0
  188.0960  175.7630  141.9570 C   0  0  0  0  0  3  0  0  0  0  0  0
  186.7740  177.6250  146.6520 C   0  0  0  0  0  3  0  0  0  0  0  0
  189.9270  174.1710  141.9790 C   0  0  0  0  0  0  0  0  0  0  0  0
  189.7010  173.8980  140.6270 C   0  0  0  0  0  3  0  0  0  0  0  0
  190.4410  174.5020  146.1420 N   0  0  0  0  0  2  0  0  0  0  0  0
  188.4160  175.8700  146.3430 C   0  0  0  0  0  0  0  0  0  0  0  0
  187.5480  176.5860  147.1730 C   0  0  0  0  0  3  0  0  0  0  0  0
  196.0230  169.9120  146.4210 C   0  0  0  0  0  0  0  0  0  0  0  0
  193.9790  170.0530  145.1430 C   0  0  0  0  0  3  0  0  0  0  0  0
  195.7720  173.4270  145.0950 C   0  0  0  0  0  1  0  0  0  0  0  0
  196.9070  169.1770  147.1980 O   0  0  0  0  0  1  0  0  0  0  0  0
  194.8670  169.3120  145.9240 C   0  0  0  0  0  3  0  0  0  0  0  0
  195.4090  172.0030  145.3530 C   0  0  0  0  0  0  0  0  0  0  0  0
  194.2290  171.4030  144.8420 C   0  0  0  0  0  0  0  0  0  0  0  0
  196.2920  171.2510  146.1360 C   0  0  0  0  0  3  0  0  0  0  0  0
  1 17  1  0  0  0  0
  2  7  1  6  0  0  0
  2 15  1  0  0  0  0
  2  3  1  0  0  0  0
  3 22  1  0  0  0  0
  4  5  2  0  0  0  0
  5 16  1  0  0  0  0
  5 30  1  0  0  0  0
  6 18  2  0  0  0  0
  8  1  2  0  0  0  0
  8 20  1  0  0  0  0
  9  3  2  0  0  0  0
  9  6  1  0  0  0  0
 10 16  1  0  0  0  0
 11  1  1  0  0  0  0
 13  6  1  0  0  0  0
 14 10  2  0  0  0  0
 15 10  1  6  0  0  0
 15 21  1  0  0  0  0
 17  7  2  0  0  0  0
 18 23  1  0  0  0  0
 19  7  1  0  0  0  0
 19 14  1  0  0  0  0
 20 19  2  0  0  0  0
 21 12  1  0  0  0  0
 22 12  1  0  0  0  0
 22 23  2  0  0  0  0
 24 27  1  0  0  0  0
 25 28  1  0  0  0  0
 26 29  1  0  0  0  0
 28 24  2  0  0  0  0
 29 31  2  0  0  0  0
 30 25  2  0  0  0  0
 30 29  1  0  0  0  0
 31 24  1  0  0  0  0
M  END
>  <MODEL>
8

>  <REMARK>
 VINA RESULT:      -8.0      3.104      5.274
  Name = 
  1 active torsions:
  status: ('A' for Active; 'I' for Inactive)
    1  A    between atoms: C_9  and  C_22
                            x       y       z     vdW  Elec       q    Type
                         _______ _______ _______ _____ _____    ______ ____

>  <TORSDO>
F 1

$$$$
=
 OpenBabel11052417493D

 31 35  0  0  1  0  0  0  0  0999 V2000
  192.8550  170.3840  141.9250 C   0  0  0  0  0  0  0  0  0  0  0  0
  192.5650  173.3580  144.3410 C   0  0  2  0  0  3  0  0  0  0  0  0
  193.9750  173.5000  144.8900 C   0  0  0  0  0  0  0  0  0  0  0  0
  187.7470  174.7290  142.7870 O   0  0  0  0  0  0  0  0  0  0  0  0
  188.2680  175.7230  143.3590 C   0  0  0  0  0  0  0  0  0  0  0  0
  196.0250  172.5060  145.7460 C   0  0  0  0  0  0  0  0  0  0  0  0
  192.3270  172.3810  143.2050 C   0  0  0  0  0  0  0  0  0  0  0  0
  191.6520  170.5060  141.2270 C   0  0  0  0  0  3  0  0  0  0  0  0
  194.7730  172.3730  145.1420 C   0  0  0  0  0  3  0  0  0  0  0  0
  190.5660  174.6060  143.5020 C   0  0  0  0  0  0  0  0  0  0  0  0
  193.6960  169.3580  141.6510 F   0  0  0  0  0  0  0  0  0  0  0  0
  193.5810  175.9960  145.1440 C   0  0  0  0  0  2  0  0  0  0  0  0
  196.8120  171.3830  145.9620 O   0  0  0  0  0  1  0  0  0  0  0  0
  190.2120  173.5800  142.7790 N   0  0  0  0  0  0  0  0  0  0  0  0
  191.9990  174.7320  143.9500 C   0  0  1  0  0  3  0  0  0  0  0  0
  189.6530  175.6870  143.7390 N   0  0  0  0  0  2  0  0  0  0  0  0
  193.1850  171.3090  142.9190 C   0  0  0  0  0  3  0  0  0  0  0  0
  196.4830  173.7650  146.1370 C   0  0  0  0  0  3  0  0  0  0  0  0
  191.1110  172.4960  142.4960 C   0  0  0  0  0  0  0  0  0  0  0  0
  190.7800  171.5590  141.5140 C   0  0  0  0  0  3  0  0  0  0  0  0
  192.1590  175.6650  145.0590 N   0  0  0  0  0  2  0  0  0  0  0  0
  194.4220  174.7640  145.3440 C   0  0  0  0  0  0  0  0  0  0  0  0
  195.6810  174.8910  145.9380 C   0  0  0  0  0  3  0  0  0  0  0  0
  185.9410  179.2720  144.0620 C   0  0  0  0  0  0  0  0  0  0  0  0
  187.0870  177.7530  142.5730 C   0  0  0  0  0  3  0  0  0  0  0  0
  187.4050  176.5220  146.1770 C   0  0  0  0  0  1  0  0  0  0  0  0
  185.1900  180.4210  144.2620 O   0  0  0  0  0  1  0  0  0  0  0  0
  186.3320  178.9100  142.7730 C   0  0  0  0  0  3  0  0  0  0  0  0
  187.0610  177.3150  144.9610 C   0  0  0  0  0  0  0  0  0  0  0  0
  187.4640  176.9370  143.6530 C   0  0  0  0  0  0  0  0  0  0  0  0
  186.3040  178.4760  145.1490 C   0  0  0  0  0  3  0  0  0  0  0  0
  1 17  1  0  0  0  0
  2  7  1  6  0  0  0
  2  3  1  0  0  0  0
  3  9  2  0  0  0  0
  3 22  1  0  0  0  0
  4  5  2  0  0  0  0
  5 30  1  0  0  0  0
  5 16  1  0  0  0  0
  6 13  1  0  0  0  0
  6 18  2  0  0  0  0
  8 20  1  0  0  0  0
  8  1  2  0  0  0  0
  9  6  1  0  0  0  0
 10 16  1  0  0  0  0
 11  1  1  0  0  0  0
 12 22  1  0  0  0  0
 14 10  2  0  0  0  0
 15 10  1  1  0  0  0
 15  2  1  0  0  0  0
 15 21  1  0  0  0  0
 17  7  2  0  0  0  0
 19 14  1  0  0  0  0
 19  7  1  0  0  0  0
 20 19  2  0  0  0  0
 21 12  1  0  0  0  0
 22 23  2  0  0  0  0
 23 18  1  0  0  0  0
 24 27  1  0  0  0  0
 24 31  1  0  0  0  0
 25 28  1  0  0  0  0
 25 30  2  0  0  0  0
 28 24  2  0  0  0  0
 29 31  2  0  0  0  0
 29 26  1  0  0  0  0
 30 29  1  0  0  0  0
M  END
>  <MODEL>
9

>  <REMARK>
 VINA RESULT:      -7.9      3.731      9.372
  Name = 
  1 active torsions:
  status: ('A' for Active; 'I' for Inactive)
    1  A    between atoms: C_9  and  C_22
                            x       y       z     vdW  Elec       q    Type
                         _______ _______ _______ _____ _____    ______ ____

>  <TORSDO>
F 1

$$$$
