=
 OpenBabel11052418203D

 27 30  0  0  1  0  0  0  0  0999 V2000
  188.8190  177.6660  147.4560 O   0  0  0  0  0  1  0  0  0  0  0  0
  188.5380  176.5780  143.9380 N   0  0  0  0  0  2  0  0  0  0  0  0
  190.8250  175.7620  143.8050 N   0  0  0  0  0  2  0  0  0  0  0  0
  188.1550  176.7130  145.3390 C   0  0  1  0  0  3  0  0  0  0  0  0
  189.2160  177.5030  146.1270 C   0  0  2  0  0  3  0  0  0  0  0  0
  189.3990  175.4050  143.8510 C   0  0  2  0  0  3  0  0  0  0  0  0
  192.6710  177.1230  144.6390 C   0  0  0  0  0  1  0  0  0  0  0  0
  190.6180  176.8760  146.0670 C   0  0  2  0  0  3  0  0  0  0  0  0
  191.1670  176.9290  144.6290 C   0  0  2  0  0  3  0  0  0  0  0  0
  188.3360  172.9430  140.4810 C   0  0  0  0  0  3  0  0  0  0  0  0
  187.8470  174.8870  139.2020 F   0  0  0  0  0  0  0  0  0  0  0  0
  189.5150  172.5610  143.9520 O   0  0  0  0  0  1  0  0  0  0  0  0
  188.6010  175.1470  141.4560 C   0  0  0  0  0  0  0  0  0  0  0  0
  188.5170  176.5300  141.3280 O   0  0  0  0  0  1  0  0  0  0  0  0
  189.0280  174.5630  142.6660 C   0  0  0  0  0  0  0  0  0  0  0  0
  188.2580  174.3330  140.3690 C   0  0  0  0  0  0  0  0  0  0  0  0
  188.7560  172.3610  141.6780 C   0  0  0  0  0  3  0  0  0  0  0  0
  189.1010  173.1640  142.7690 C   0  0  0  0  0  0  0  0  0  0  0  0
  184.2950  178.5850  145.5770 C   0  0  0  0  0  3  0  0  0  0  0  0
  186.8060  177.3540  145.4330 C   0  0  0  0  0  0  0  0  0  0  0  0
  185.8220  176.8510  146.2970 C   0  0  0  0  0  3  0  0  0  0  0  0
  184.5690  177.4660  146.3680 C   0  0  0  0  0  3  0  0  0  0  0  0
  185.2730  179.0890  144.7150 C   0  0  0  0  0  3  0  0  0  0  0  0
  186.5270  178.4750  144.6430 C   0  0  0  0  0  3  0  0  0  0  0  0
  191.2500  175.5900  148.1100 C   0  0  0  0  0  2  0  0  0  0  0  0
  192.1300  175.1060  146.9800 C   0  0  0  0  0  2  0  0  0  0  0  0
  190.6860  175.4830  146.7050 C   0  0  0  0  0  3  0  0  0  0  0  0
  2  4  1  0  0  0  0
  3  6  1  0  0  0  0
  3  9  1  0  0  0  0
  4 20  1  6  0  0  0
  4  5  1  0  0  0  0
  5  1  1  1  0  0  0
  6 15  1  6  0  0  0
  6  2  1  0  0  0  0
  8  5  1  0  0  0  0
  8 27  1  6  0  0  0
  9  7  1  1  0  0  0
  9  8  1  0  0  0  0
 10 17  1  0  0  0  0
 11 16  1  0  0  0  0
 13 15  2  0  0  0  0
 14 13  1  0  0  0  0
 15 18  1  0  0  0  0
 16 10  2  0  0  0  0
 16 13  1  0  0  0  0
 17 18  2  0  0  0  0
 18 12  1  0  0  0  0
 19 22  1  0  0  0  0
 20 21  1  0  0  0  0
 21 22  2  0  0  0  0
 23 19  2  0  0  0  0
 24 23  1  0  0  0  0
 24 20  2  0  0  0  0
 26 25  1  0  0  0  0
 27 26  1  0  0  0  0
 27 25  1  0  0  0  0
M  END
>  <MODEL>
1

>  <REMARK>
 VINA RESULT:      -8.1      0.000      0.000
  Name = 
  3 active torsions:
  status: ('A' for Active; 'I' for Inactive)
    1  A    between atoms: C_9  and  C_15
    2  A    between atoms: C_14  and  C_19
    3  A    between atoms: C_22  and  C_24
                            x       y       z     vdW  Elec       q    Type
                         _______ _______ _______ _____ _____    ______ ____

>  <TORSDO>
F 3

$$$$
=
 OpenBabel11052418203D

 27 30  0  0  1  0  0  0  0  0999 V2000
  191.8890  173.8250  143.3410 O   0  0  0  0  0  1  0  0  0  0  0  0
  189.7560  176.7100  144.2200 N   0  0  0  0  0  2  0  0  0  0  0  0
  187.8680  175.9700  142.8770 N   0  0  0  0  0  2  0  0  0  0  0  0
  190.6570  175.5840  144.4450 C   0  0  1  0  0  3  0  0  0  0  0  0
  190.9900  174.8720  143.1220 C   0  0  2  0  0  3  0  0  0  0  0  0
  188.4020  176.1690  144.2330 C   0  0  2  0  0  3  0  0  0  0  0  0
  188.2100  175.2110  140.5830 C   0  0  0  0  0  1  0  0  0  0  0  0
  189.7500  174.3560  142.3740 C   0  0  2  0  0  3  0  0  0  0  0  0
  188.8800  175.5360  141.9030 C   0  0  2  0  0  3  0  0  0  0  0  0
  185.7980  178.6690  146.5820 C   0  0  0  0  0  3  0  0  0  0  0  0
  185.3260  179.9960  144.6650 F   0  0  0  0  0  0  0  0  0  0  0  0
  187.9580  175.7140  147.0090 O   0  0  0  0  0  1  0  0  0  0  0  0
  186.8170  178.1400  144.4470 C   0  0  0  0  0  0  0  0  0  0  0  0
  186.9840  178.4280  143.0960 O   0  0  0  0  0  1  0  0  0  0  0  0
  187.4880  177.0490  145.0350 C   0  0  0  0  0  0  0  0  0  0  0  0
  185.9740  178.9450  145.2240 C   0  0  0  0  0  0  0  0  0  0  0  0
  186.4620  177.5910  147.1690 C   0  0  0  0  0  3  0  0  0  0  0  0
  187.3060  176.7810  146.4020 C   0  0  0  0  0  0  0  0  0  0  0  0
  194.1870  176.9400  146.4860 C   0  0  0  0  0  3  0  0  0  0  0  0
  191.8930  176.0610  145.1420 C   0  0  0  0  0  0  0  0  0  0  0  0
  192.9280  176.6900  144.4340 C   0  0  0  0  0  3  0  0  0  0  0  0
  194.0730  177.1270  145.1050 C   0  0  0  0  0  3  0  0  0  0  0  0
  193.1580  176.3140  147.1940 C   0  0  0  0  0  3  0  0  0  0  0  0
  192.0120  175.8760  146.5240 C   0  0  0  0  0  3  0  0  0  0  0  0
  189.3730  171.9060  142.6620 C   0  0  0  0  0  2  0  0  0  0  0  0
  188.0640  172.5170  142.2140 C   0  0  0  0  0  2  0  0  0  0  0  0
  188.9750  173.2860  143.1520 C   0  0  0  0  0  3  0  0  0  0  0  0
  2  6  1  0  0  0  0
  2  4  1  0  0  0  0
  3  6  1  0  0  0  0
  4 20  1  6  0  0  0
  5  1  1  1  0  0  0
  5  4  1  0  0  0  0
  6 15  1  1  0  0  0
  8  5  1  0  0  0  0
  8 27  1  1  0  0  0
  9  7  1  6  0  0  0
  9  8  1  0  0  0  0
  9  3  1  0  0  0  0
 10 17  1  0  0  0  0
 11 16  1  0  0  0  0
 13 15  2  0  0  0  0
 13 16  1  0  0  0  0
 14 13  1  0  0  0  0
 15 18  1  0  0  0  0
 16 10  2  0  0  0  0
 18 12  1  0  0  0  0
 18 17  2  0  0  0  0
 19 23  1  0  0  0  0
 20 24  1  0  0  0  0
 21 22  1  0  0  0  0
 21 20  2  0  0  0  0
 22 19  2  0  0  0  0
 24 23  2  0  0  0  0
 25 27  1  0  0  0  0
 26 25  1  0  0  0  0
 26 27  1  0  0  0  0
M  END
>  <MODEL>
2

>  <REMARK>
 VINA RESULT:      -7.7      2.115      6.112
  Name = 
  3 active torsions:
  status: ('A' for Active; 'I' for Inactive)
    1  A    between atoms: C_9  and  C_15
    2  A    between atoms: C_14  and  C_19
    3  A    between atoms: C_22  and  C_24
                            x       y       z     vdW  Elec       q    Type
                         _______ _______ _______ _____ _____    ______ ____

>  <TORSDO>
F 3

$$$$
=
 OpenBabel11052418203D

 27 30  0  0  1  0  0  0  0  0999 V2000
  192.1430  173.7210  143.5530 O   0  0  0  0  0  1  0  0  0  0  0  0
  189.9340  176.6110  144.1960 N   0  0  0  0  0  2  0  0  0  0  0  0
  188.1000  175.7560  142.8470 N   0  0  0  0  0  2  0  0  0  0  0  0
  190.8480  175.5190  144.5140 C   0  0  1  0  0  3  0  0  0  0  0  0
  191.2330  174.7360  143.2460 C   0  0  2  0  0  3  0  0  0  0  0  0
  188.5900  176.0460  144.2030 C   0  0  2  0  0  3  0  0  0  0  0  0
  188.5230  174.8680  140.6130 C   0  0  0  0  0  1  0  0  0  0  0  0
  190.0250  174.1510  142.4960 C   0  0  2  0  0  3  0  0  0  0  0  0
  189.1470  175.2840  141.9300 C   0  0  2  0  0  3  0  0  0  0  0  0
  185.8430  178.6750  146.2250 C   0  0  0  0  0  3  0  0  0  0  0  0
  186.1200  177.4350  148.2350 F   0  0  0  0  0  0  0  0  0  0  0  0
  187.3330  178.2350  142.8840 O   0  0  0  0  0  1  0  0  0  0  0  0
  187.3230  176.7560  146.2840 C   0  0  0  0  0  0  0  0  0  0  0  0
  187.8950  175.7070  146.9980 O   0  0  0  0  0  1  0  0  0  0  0  0
  187.6380  176.9540  144.9240 C   0  0  0  0  0  0  0  0  0  0  0  0
  186.4280  177.6190  146.9280 C   0  0  0  0  0  0  0  0  0  0  0  0
  186.1510  178.8740  144.8780 C   0  0  0  0  0  3  0  0  0  0  0  0
  187.0440  178.0180  144.2260 C   0  0  0  0  0  0  0  0  0  0  0  0
  194.3270  177.0890  146.4890 C   0  0  0  0  0  3  0  0  0  0  0  0
  192.0540  176.0610  145.2160 C   0  0  0  0  0  0  0  0  0  0  0  0
  192.2020  175.9350  146.6050 C   0  0  0  0  0  3  0  0  0  0  0  0
  193.3370  176.4490  147.2390 C   0  0  0  0  0  3  0  0  0  0  0  0
  194.1820  177.2160  145.1040 C   0  0  0  0  0  3  0  0  0  0  0  0
  193.0480  176.7030  144.4690 C   0  0  0  0  0  3  0  0  0  0  0  0
  189.6480  171.7160  142.8860 C   0  0  0  0  0  2  0  0  0  0  0  0
  188.3410  172.3050  142.4060 C   0  0  0  0  0  2  0  0  0  0  0  0
  189.2460  173.1150  143.3150 C   0  0  0  0  0  3  0  0  0  0  0  0
  2  6  1  0  0  0  0
  2  4  1  0  0  0  0
  3  6  1  0  0  0  0
  4 20  1  6  0  0  0
  5  1  1  1  0  0  0
  5  4  1  0  0  0  0
  6 15  1  6  0  0  0
  8  5  1  0  0  0  0
  8 27  1  1  0  0  0
  9  7  1  6  0  0  0
  9  8  1  0  0  0  0
  9  3  1  0  0  0  0
 10 16  1  0  0  0  0
 12 18  1  0  0  0  0
 13 16  2  0  0  0  0
 13 14  1  0  0  0  0
 15 13  1  0  0  0  0
 16 11  1  0  0  0  0
 17 10  2  0  0  0  0
 18 17  1  0  0  0  0
 18 15  2  0  0  0  0
 19 22  1  0  0  0  0
 20 21  1  0  0  0  0
 21 22  2  0  0  0  0
 23 19  2  0  0  0  0
 24 23  1  0  0  0  0
 24 20  2  0  0  0  0
 25 27  1  0  0  0  0
 26 25  1  0  0  0  0
 26 27  1  0  0  0  0
M  END
>  <MODEL>
3

>  <REMARK>
 VINA RESULT:      -7.5      2.356      6.284
  Name = 
  3 active torsions:
  status: ('A' for Active; 'I' for Inactive)
    1  A    between atoms: C_9  and  C_15
    2  A    between atoms: C_14  and  C_19
    3  A    between atoms: C_22  and  C_24
                            x       y       z     vdW  Elec       q    Type
                         _______ _______ _______ _____ _____    ______ ____

>  <TORSDO>
F 3

$$$$
=
 OpenBabel11052418203D

 27 30  0  0  1  0  0  0  0  0999 V2000
  188.9830  177.5400  147.3590 O   0  0  0  0  0  1  0  0  0  0  0  0
  188.7860  176.5540  143.8050 N   0  0  0  0  0  2  0  0  0  0  0  0
  191.0820  175.7600  143.6980 N   0  0  0  0  0  2  0  0  0  0  0  0
  188.3720  176.6440  145.2010 C   0  0  1  0  0  3  0  0  0  0  0  0
  189.4090  177.4190  146.0340 C   0  0  2  0  0  3  0  0  0  0  0  0
  189.6590  175.3900  143.7030 C   0  0  2  0  0  3  0  0  0  0  0  0
  192.8980  177.1100  144.6110 C   0  0  0  0  0  1  0  0  0  0  0  0
  190.8180  176.8050  145.9860 C   0  0  2  0  0  3  0  0  0  0  0  0
  191.3970  176.9050  144.5630 C   0  0  2  0  0  3  0  0  0  0  0  0
  188.6720  173.1130  140.1830 C   0  0  0  0  0  3  0  0  0  0  0  0
  189.6480  171.1730  141.1520 F   0  0  0  0  0  0  0  0  0  0  0  0
  188.3210  176.5480  141.4700 O   0  0  0  0  0  1  0  0  0  0  0  0
  189.6550  173.2140  142.3970 C   0  0  0  0  0  0  0  0  0  0  0  0
  190.3110  172.5760  143.4450 O   0  0  0  0  0  1  0  0  0  0  0  0
  189.3200  174.5800  142.4860 C   0  0  0  0  0  0  0  0  0  0  0  0
  189.3280  172.4870  141.2450 C   0  0  0  0  0  0  0  0  0  0  0  0
  188.3400  174.4660  140.2660 C   0  0  0  0  0  3  0  0  0  0  0  0
  188.6610  175.2010  141.4110 C   0  0  0  0  0  0  0  0  0  0  0  0
  184.4920  178.4770  145.4090 C   0  0  0  0  0  3  0  0  0  0  0  0
  187.0160  177.2720  145.2840 C   0  0  0  0  0  0  0  0  0  0  0  0
  186.0370  176.7710  146.1560 C   0  0  0  0  0  3  0  0  0  0  0  0
  184.7780  177.3730  146.2160 C   0  0  0  0  0  3  0  0  0  0  0  0
  185.4640  178.9790  144.5400 C   0  0  0  0  0  3  0  0  0  0  0  0
  186.7250  178.3780  144.4770 C   0  0  0  0  0  3  0  0  0  0  0  0
  191.3550  175.4700  148.0250 C   0  0  0  0  0  2  0  0  0  0  0  0
  192.3180  175.0460  146.9390 C   0  0  0  0  0  2  0  0  0  0  0  0
  190.8840  175.3940  146.5850 C   0  0  0  0  0  3  0  0  0  0  0  0
  2  4  1  0  0  0  0
  3  6  1  0  0  0  0
  3  9  1  0  0  0  0
  4 20  1  6  0  0  0
  4  5  1  0  0  0  0
  5  1  1  1  0  0  0
  6 15  1  6  0  0  0
  6  2  1  0  0  0  0
  8  5  1  0  0  0  0
  8 27  1  6  0  0  0
  9  7  1  1  0  0  0
  9  8  1  0  0  0  0
 10 17  2  0  0  0  0
 10 16  1  0  0  0  0
 11 16  1  0  0  0  0
 13 15  1  0  0  0  0
 13 14  1  0  0  0  0
 16 13  2  0  0  0  0
 17 18  1  0  0  0  0
 18 12  1  0  0  0  0
 18 15  2  0  0  0  0
 19 22  1  0  0  0  0
 20 21  1  0  0  0  0
 21 22  2  0  0  0  0
 23 19  2  0  0  0  0
 24 23  1  0  0  0  0
 24 20  2  0  0  0  0
 26 25  1  0  0  0  0
 27 26  1  0  0  0  0
 27 25  1  0  0  0  0
M  END
>  <MODEL>
4

>  <REMARK>
 VINA RESULT:      -7.5      0.949      1.856
  Name = 
  3 active torsions:
  status: ('A' for Active; 'I' for Inactive)
    1  A    between atoms: C_9  and  C_15
    2  A    between atoms: C_14  and  C_19
    3  A    between atoms: C_22  and  C_24
                            x       y       z     vdW  Elec       q    Type
                         _______ _______ _______ _____ _____    ______ ____

>  <TORSDO>
F 3

$$$$
=
 OpenBabel11052418203D

 27 30  0  0  1  0  0  0  0  0999 V2000
  185.3960  177.1650  142.8700 O   0  0  0  0  0  1  0  0  0  0  0  0
  188.4060  175.9910  144.6610 N   0  0  0  0  0  2  0  0  0  0  0  0
  189.3390  174.8370  142.7340 N   0  0  0  0  0  2  0  0  0  0  0  0
  187.3930  176.9390  144.2100 C   0  0  1  0  0  3  0  0  0  0  0  0
  186.3880  176.2620  143.2600 C   0  0  2  0  0  3  0  0  0  0  0  0
  189.4530  175.9850  143.6450 C   0  0  2  0  0  3  0  0  0  0  0  0
  187.9360  173.3730  141.3750 C   0  0  0  0  0  1  0  0  0  0  0  0
  187.0450  175.6320  142.0210 C   0  0  2  0  0  3  0  0  0  0  0  0
  187.9510  174.4570  142.4350 C   0  0  2  0  0  3  0  0  0  0  0  0
  193.3540  176.1310  145.4640 C   0  0  0  0  0  3  0  0  0  0  0  0
  192.9550  174.0340  146.5130 F   0  0  0  0  0  0  0  0  0  0  0  0
  191.2410  178.1620  143.2300 O   0  0  0  0  0  1  0  0  0  0  0  0
  191.2520  174.9720  145.1220 C   0  0  0  0  0  0  0  0  0  0  0  0
  190.4350  173.8750  145.3750 O   0  0  0  0  0  1  0  0  0  0  0  0
  190.8100  176.0180  144.2850 C   0  0  0  0  0  0  0  0  0  0  0  0
  192.5230  175.0350  145.7070 C   0  0  0  0  0  0  0  0  0  0  0  0
  192.9190  177.1680  144.6380 C   0  0  0  0  0  3  0  0  0  0  0  0
  191.6530  177.1160  144.0490 C   0  0  0  0  0  0  0  0  0  0  0  0
  185.4360  178.6400  147.6370 C   0  0  0  0  0  3  0  0  0  0  0  0
  186.7090  177.5450  145.3960 C   0  0  0  0  0  0  0  0  0  0  0  0
  186.2010  178.8520  145.3500 C   0  0  0  0  0  3  0  0  0  0  0  0
  185.5660  179.3970  146.4690 C   0  0  0  0  0  3  0  0  0  0  0  0
  185.9410  177.3380  147.6860 C   0  0  0  0  0  3  0  0  0  0  0  0
  186.5770  176.7910  146.5670 C   0  0  0  0  0  3  0  0  0  0  0  0
  186.6920  177.4590  140.3580 C   0  0  0  0  0  2  0  0  0  0  0  0
  187.4410  176.3480  139.6580 C   0  0  0  0  0  2  0  0  0  0  0  0
  187.7360  176.6580  141.1140 C   0  0  0  0  0  3  0  0  0  0  0  0
  3  6  1  0  0  0  0
  4  2  1  0  0  0  0
  4 20  1  1  0  0  0
  5  1  1  6  0  0  0
  5  4  1  0  0  0  0
  6 15  1  1  0  0  0
  6  2  1  0  0  0  0
  8 27  1  1  0  0  0
  8  9  1  0  0  0  0
  8  5  1  0  0  0  0
  9  7  1  6  0  0  0
  9  3  1  0  0  0  0
 10 16  1  0  0  0  0
 12 18  1  0  0  0  0
 13 14  1  0  0  0  0
 13 16  2  0  0  0  0
 15 13  1  0  0  0  0
 16 11  1  0  0  0  0
 17 10  2  0  0  0  0
 18 15  2  0  0  0  0
 18 17  1  0  0  0  0
 19 23  1  0  0  0  0
 20 24  1  0  0  0  0
 21 20  2  0  0  0  0
 21 22  1  0  0  0  0
 22 19  2  0  0  0  0
 24 23  2  0  0  0  0
 25 27  1  0  0  0  0
 26 25  1  0  0  0  0
 26 27  1  0  0  0  0
M  END
>  <MODEL>
5

>  <REMARK>
 VINA RESULT:      -7.2      2.515      5.254
  Name = 
  3 active torsions:
  status: ('A' for Active; 'I' for Inactive)
    1  A    between atoms: C_9  and  C_15
    2  A    between atoms: C_14  and  C_19
    3  A    between atoms: C_22  and  C_24
                            x       y       z     vdW  Elec       q    Type
                         _______ _______ _______ _____ _____    ______ ____

>  <TORSDO>
F 3

$$$$
=
 OpenBabel11052418203D

 27 30  0  0  1  0  0  0  0  0999 V2000
  186.5010  175.7930  142.2530 O   0  0  0  0  0  1  0  0  0  0  0  0
  189.0940  175.6490  144.8790 N   0  0  0  0  0  2  0  0  0  0  0  0
  190.4040  173.9310  143.7630 N   0  0  0  0  0  2  0  0  0  0  0  0
  188.1870  176.2640  143.9160 C   0  0  1  0  0  3  0  0  0  0  0  0
  187.4000  175.1940  143.1390 C   0  0  2  0  0  3  0  0  0  0  0  0
  190.3240  175.3450  144.1580 C   0  0  2  0  0  3  0  0  0  0  0  0
  189.3140  171.9460  142.8510 C   0  0  0  0  0  1  0  0  0  0  0  0
  188.2970  174.1970  142.3880 C   0  0  2  0  0  3  0  0  0  0  0  0
  189.1080  173.3500  143.3860 C   0  0  2  0  0  3  0  0  0  0  0  0
  193.7460  176.4340  146.5350 C   0  0  0  0  0  3  0  0  0  0  0  0
  194.8550  177.2370  144.5910 F   0  0  0  0  0  0  0  0  0  0  0  0
  190.4170  174.9160  146.9720 O   0  0  0  0  0  1  0  0  0  0  0  0
  192.6570  176.3220  144.3720 C   0  0  0  0  0  0  0  0  0  0  0  0
  192.6890  176.5630  143.0020 O   0  0  0  0  0  1  0  0  0  0  0  0
  191.5240  175.7340  144.9710 C   0  0  0  0  0  0  0  0  0  0  0  0
  193.7620  176.6700  145.1580 C   0  0  0  0  0  0  0  0  0  0  0  0
  192.6280  175.8490  147.1310 C   0  0  0  0  0  3  0  0  0  0  0  0
  191.5190  175.4990  146.3560 C   0  0  0  0  0  0  0  0  0  0  0  0
  185.5670  178.9720  145.9830 C   0  0  0  0  0  3  0  0  0  0  0  0
  187.2740  177.2170  144.6230 C   0  0  0  0  0  0  0  0  0  0  0  0
  186.7930  178.3690  143.9850 C   0  0  0  0  0  3  0  0  0  0  0  0
  185.9410  179.2450  144.6640 C   0  0  0  0  0  3  0  0  0  0  0  0
  186.0450  177.8250  146.6230 C   0  0  0  0  0  3  0  0  0  0  0  0
  186.8970  176.9480  145.9440 C   0  0  0  0  0  3  0  0  0  0  0  0
  188.5660  174.5400  139.9310 C   0  0  0  0  0  2  0  0  0  0  0  0
  189.7850  173.7890  140.4200 C   0  0  0  0  0  2  0  0  0  0  0  0
  189.1510  174.8540  141.2960 C   0  0  0  0  0  3  0  0  0  0  0  0
  3  6  1  0  0  0  0
  4 20  1  1  0  0  0
  4  2  1  0  0  0  0
  5  1  1  6  0  0  0
  5  4  1  0  0  0  0
  6  2  1  0  0  0  0
  6 15  1  1  0  0  0
  8 27  1  6  0  0  0
  8  5  1  0  0  0  0
  8  9  1  0  0  0  0
  9  7  1  6  0  0  0
  9  3  1  0  0  0  0
 10 17  1  0  0  0  0
 11 16  1  0  0  0  0
 13 15  2  0  0  0  0
 13 16  1  0  0  0  0
 14 13  1  0  0  0  0
 15 18  1  0  0  0  0
 16 10  2  0  0  0  0
 18 12  1  0  0  0  0
 18 17  2  0  0  0  0
 19 23  1  0  0  0  0
 20 24  1  0  0  0  0
 21 20  2  0  0  0  0
 21 22  1  0  0  0  0
 22 19  2  0  0  0  0
 24 23  2  0  0  0  0
 25 26  1  0  0  0  0
 25 27  1  0  0  0  0
 26 27  1  0  0  0  0
M  END
>  <MODEL>
6

>  <REMARK>
 VINA RESULT:      -7.0      2.382      5.134
  Name = 
  3 active torsions:
  status: ('A' for Active; 'I' for Inactive)
    1  A    between atoms: C_9  and  C_15
    2  A    between atoms: C_14  and  C_19
    3  A    between atoms: C_22  and  C_24
                            x       y       z     vdW  Elec       q    Type
                         _______ _______ _______ _____ _____    ______ ____

>  <TORSDO>
F 3

$$$$
=
 OpenBabel11052418203D

 27 30  0  0  1  0  0  0  0  0999 V2000
  193.2760  173.6990  144.3450 O   0  0  0  0  0  1  0  0  0  0  0  0
  189.7480  174.7510  144.6400 N   0  0  0  0  0  2  0  0  0  0  0  0
  190.1420  176.2170  146.5400 N   0  0  0  0  0  2  0  0  0  0  0  0
  191.0170  174.4700  143.9780 C   0  0  1  0  0  3  0  0  0  0  0  0
  192.0780  174.0110  144.9930 C   0  0  2  0  0  3  0  0  0  0  0  0
  189.8190  176.1300  145.1080 C   0  0  2  0  0  3  0  0  0  0  0  0
  191.4700  175.4470  148.4370 C   0  0  0  0  0  1  0  0  0  0  0  0
  192.3360  175.0300  146.1160 C   0  0  2  0  0  3  0  0  0  0  0  0
  191.0810  175.1830  146.9960 C   0  0  2  0  0  3  0  0  0  0  0  0
  186.1650  178.2240  144.2080 C   0  0  0  0  0  3  0  0  0  0  0  0
  185.1710  177.3660  146.1910 F   0  0  0  0  0  0  0  0  0  0  0  0
  189.5270  177.7430  142.7790 O   0  0  0  0  0  1  0  0  0  0  0  0
  187.4260  176.7630  145.6740 C   0  0  0  0  0  0  0  0  0  0  0  0
  187.4900  175.9940  146.8320 O   0  0  0  0  0  1  0  0  0  0  0  0
  188.5390  176.8560  144.8120 C   0  0  0  0  0  0  0  0  0  0  0  0
  186.2450  177.4490  145.3680 C   0  0  0  0  0  0  0  0  0  0  0  0
  187.2620  178.3180  143.3520 C   0  0  0  0  0  3  0  0  0  0  0  0
  188.4470  177.6370  143.6480 C   0  0  0  0  0  0  0  0  0  0  0  0
  190.3980  171.5180  140.9170 C   0  0  0  0  0  3  0  0  0  0  0  0
  190.8060  173.4520  142.9010 C   0  0  0  0  0  0  0  0  0  0  0  0
  191.1000  173.7430  141.5600 C   0  0  0  0  0  3  0  0  0  0  0  0
  190.8960  172.7780  140.5710 C   0  0  0  0  0  3  0  0  0  0  0  0
  190.1040  171.2240  142.2510 C   0  0  0  0  0  3  0  0  0  0  0  0
  190.3080  172.1890  143.2420 C   0  0  0  0  0  3  0  0  0  0  0  0
  194.4160  176.2830  145.5420 C   0  0  0  0  0  2  0  0  0  0  0  0
  193.7470  177.0140  146.6850 C   0  0  0  0  0  2  0  0  0  0  0  0
  192.9020  176.3610  145.6060 C   0  0  0  0  0  3  0  0  0  0  0  0
  2  6  1  0  0  0  0
  3  9  1  0  0  0  0
  4 20  1  6  0  0  0
  4  2  1  0  0  0  0
  4  5  1  0  0  0  0
  5  1  1  6  0  0  0
  5  8  1  0  0  0  0
  6 15  1  1  0  0  0
  6  3  1  0  0  0  0
  8 27  1  6  0  0  0
  8  9  1  0  0  0  0
  9  7  1  1  0  0  0
 10 16  1  0  0  0  0
 12 18  1  0  0  0  0
 13 14  1  0  0  0  0
 15 13  1  0  0  0  0
 16 13  2  0  0  0  0
 16 11  1  0  0  0  0
 17 18  1  0  0  0  0
 17 10  2  0  0  0  0
 18 15  2  0  0  0  0
 19 23  1  0  0  0  0
 20 24  1  0  0  0  0
 21 20  2  0  0  0  0
 22 19  2  0  0  0  0
 22 21  1  0  0  0  0
 23 24  2  0  0  0  0
 25 27  1  0  0  0  0
 25 26  1  0  0  0  0
 27 26  1  0  0  0  0
M  END
>  <MODEL>
7

>  <REMARK>
 VINA RESULT:      -6.9      2.403      5.811
  Name = 
  3 active torsions:
  status: ('A' for Active; 'I' for Inactive)
    1  A    between atoms: C_9  and  C_15
    2  A    between atoms: C_14  and  C_19
    3  A    between atoms: C_22  and  C_24
                            x       y       z     vdW  Elec       q    Type
                         _______ _______ _______ _____ _____    ______ ____

>  <TORSDO>
F 3

$$$$
=
 OpenBabel11052418203D

 27 30  0  0  1  0  0  0  0  0999 V2000
  188.1910  174.7300  140.0650 O   0  0  0  0  0  1  0  0  0  0  0  0
  189.3350  174.9820  143.5680 N   0  0  0  0  0  2  0  0  0  0  0  0
  190.9770  173.1990  143.3630 N   0  0  0  0  0  2  0  0  0  0  0  0
  188.9640  175.4500  142.2370 C   0  0  1  0  0  3  0  0  0  0  0  0
  188.5890  174.2690  141.3230 C   0  0  2  0  0  3  0  0  0  0  0  0
  190.7530  174.6450  143.5110 C   0  0  2  0  0  3  0  0  0  0  0  0
  190.3760  171.0850  142.3020 C   0  0  0  0  0  1  0  0  0  0  0  0
  189.7100  173.2290  141.1730 C   0  0  2  0  0  3  0  0  0  0  0  0
  189.9760  172.5310  142.5200 C   0  0  2  0  0  3  0  0  0  0  0  0
  192.8410  176.1770  146.9520 C   0  0  0  0  0  3  0  0  0  0  0  0
  191.2260  175.1830  148.3880 F   0  0  0  0  0  0  0  0  0  0  0  0
  193.1290  176.1980  143.2790 O   0  0  0  0  0  1  0  0  0  0  0  0
  190.9900  174.9160  146.0240 C   0  0  0  0  0  0  0  0  0  0  0  0
  189.8350  174.1660  146.2200 O   0  0  0  0  0  1  0  0  0  0  0  0
  191.4690  175.1680  144.7220 C   0  0  0  0  0  0  0  0  0  0  0  0
  191.6800  175.4210  147.1330 C   0  0  0  0  0  0  0  0  0  0  0  0
  193.3170  176.4310  145.6650 C   0  0  0  0  0  3  0  0  0  0  0  0
  192.6370  175.9310  144.5510 C   0  0  0  0  0  0  0  0  0  0  0  0
  185.7320  178.2620  142.5680 C   0  0  0  0  0  3  0  0  0  0  0  0
  187.8470  176.4400  142.3460 C   0  0  0  0  0  0  0  0  0  0  0  0
  187.9990  177.7580  141.8880 C   0  0  0  0  0  3  0  0  0  0  0  0
  186.9430  178.6660  142.0000 C   0  0  0  0  0  3  0  0  0  0  0  0
  185.5770  176.9500  143.0260 C   0  0  0  0  0  3  0  0  0  0  0  0
  186.6320  176.0400  142.9140 C   0  0  0  0  0  3  0  0  0  0  0  0
  190.9860  173.4160  139.0360 C   0  0  0  0  0  2  0  0  0  0  0  0
  191.8510  172.6550  140.0160 C   0  0  0  0  0  2  0  0  0  0  0  0
  190.9730  173.7900  140.5070 C   0  0  0  0  0  3  0  0  0  0  0  0
  3  6  1  0  0  0  0
  4 20  1  1  0  0  0
  4  2  1  0  0  0  0
  5  1  1  6  0  0  0
  5  4  1  0  0  0  0
  6  2  1  0  0  0  0
  6 15  1  1  0  0  0
  8 27  1  1  0  0  0
  8  5  1  0  0  0  0
  8  9  1  0  0  0  0
  9  7  1  6  0  0  0
  9  3  1  0  0  0  0
 10 16  1  0  0  0  0
 12 18  1  0  0  0  0
 13 14  1  0  0  0  0
 13 16  2  0  0  0  0
 15 13  1  0  0  0  0
 16 11  1  0  0  0  0
 17 10  2  0  0  0  0
 18 15  2  0  0  0  0
 18 17  1  0  0  0  0
 19 23  1  0  0  0  0
 20 24  1  0  0  0  0
 21 22  1  0  0  0  0
 21 20  2  0  0  0  0
 22 19  2  0  0  0  0
 24 23  2  0  0  0  0
 25 26  1  0  0  0  0
 25 27  1  0  0  0  0
 26 27  1  0  0  0  0
M  END
>  <MODEL>
8

>  <REMARK>
 VINA RESULT:      -6.9      2.916      5.789
  Name = 
  3 active torsions:
  status: ('A' for Active; 'I' for Inactive)
    1  A    between atoms: C_9  and  C_15
    2  A    between atoms: C_14  and  C_19
    3  A    between atoms: C_22  and  C_24
                            x       y       z     vdW  Elec       q    Type
                         _______ _______ _______ _____ _____    ______ ____

>  <TORSDO>
F 3

$$$$
=
 OpenBabel11052418203D

 27 30  0  0  1  0  0  0  0  0999 V2000
  193.2050  173.7330  144.2420 O   0  0  0  0  0  1  0  0  0  0  0  0
  189.6880  174.7740  144.6750 N   0  0  0  0  0  2  0  0  0  0  0  0
  190.1550  176.2630  146.5400 N   0  0  0  0  0  2  0  0  0  0  0  0
  190.9290  174.4900  143.9630 C   0  0  1  0  0  3  0  0  0  0  0  0
  192.0340  174.0470  144.9380 C   0  0  2  0  0  3  0  0  0  0  0  0
  189.7720  176.1590  145.1240 C   0  0  2  0  0  3  0  0  0  0  0  0
  191.5660  175.5200  148.3880 C   0  0  0  0  0  1  0  0  0  0  0  0
  192.3340  175.0790  146.0360 C   0  0  2  0  0  3  0  0  0  0  0  0
  191.1180  175.2380  146.9670 C   0  0  2  0  0  3  0  0  0  0  0  0
  186.0420  178.2050  144.4580 C   0  0  0  0  0  3  0  0  0  0  0  0
  186.8570  179.0390  142.3860 F   0  0  0  0  0  0  0  0  0  0  0  0
  187.6220  176.0420  146.9880 O   0  0  0  0  0  1  0  0  0  0  0  0
  188.2760  177.6410  143.7070 C   0  0  0  0  0  0  0  0  0  0  0  0
  189.2800  177.7480  142.7490 O   0  0  0  0  0  1  0  0  0  0  0  0
  188.4780  176.8760  144.8740 C   0  0  0  0  0  0  0  0  0  0  0  0
  187.0580  178.3010  143.5050 C   0  0  0  0  0  0  0  0  0  0  0  0
  186.2370  177.4500  145.6150 C   0  0  0  0  0  3  0  0  0  0  0  0
  187.4500  176.7860  145.8270 C   0  0  0  0  0  0  0  0  0  0  0  0
  190.2170  171.5610  140.9000 C   0  0  0  0  0  3  0  0  0  0  0  0
  190.6780  173.4590  142.9070 C   0  0  0  0  0  0  0  0  0  0  0  0
  190.2950  172.1520  143.2460 C   0  0  0  0  0  3  0  0  0  0  0  0
  190.0660  171.2060  142.2430 C   0  0  0  0  0  3  0  0  0  0  0  0
  190.5970  172.8620  140.5590 C   0  0  0  0  0  3  0  0  0  0  0  0
  190.8270  173.8100  141.5600 C   0  0  0  0  0  3  0  0  0  0  0  0
  194.3790  176.3220  145.3280 C   0  0  0  0  0  2  0  0  0  0  0  0
  193.7870  177.0590  146.5090 C   0  0  0  0  0  2  0  0  0  0  0  0
  192.8730  176.4070  145.4890 C   0  0  0  0  0  3  0  0  0  0  0  0
  2  6  1  0  0  0  0
  3  9  1  0  0  0  0
  4 20  1  6  0  0  0
  4  2  1  0  0  0  0
  4  5  1  0  0  0  0
  5  1  1  6  0  0  0
  5  8  1  0  0  0  0
  6 15  1  1  0  0  0
  6  3  1  0  0  0  0
  8 27  1  6  0  0  0
  8  9  1  0  0  0  0
  9  7  1  1  0  0  0
 10 17  1  0  0  0  0
 11 16  1  0  0  0  0
 13 15  2  0  0  0  0
 14 13  1  0  0  0  0
 15 18  1  0  0  0  0
 16 13  1  0  0  0  0
 16 10  2  0  0  0  0
 17 18  2  0  0  0  0
 18 12  1  0  0  0  0
 19 22  1  0  0  0  0
 20 21  1  0  0  0  0
 22 21  2  0  0  0  0
 23 19  2  0  0  0  0
 23 24  1  0  0  0  0
 24 20  2  0  0  0  0
 25 27  1  0  0  0  0
 25 26  1  0  0  0  0
 27 26  1  0  0  0  0
M  END
>  <MODEL>
9

>  <REMARK>
 VINA RESULT:      -6.8      2.053      5.456
  Name = 
  3 active torsions:
  status: ('A' for Active; 'I' for Inactive)
    1  A    between atoms: C_9  and  C_15
    2  A    between atoms: C_14  and  C_19
    3  A    between atoms: C_22  and  C_24
                            x       y       z     vdW  Elec       q    Type
                         _______ _______ _______ _____ _____    ______ ____

>  <TORSDO>
F 3

$$$$
