=
 OpenBabel11052417533D

 31 35  0  0  1  0  0  0  0  0999 V2000
  187.2650  177.6530  144.1740 C   0  0  0  0  0  0  0  0  0  0  0  0
  186.4500  177.3310  145.4080 C   0  0  2  0  0  3  0  0  0  0  0  0
  184.6850  178.3600  146.8140 C   0  0  0  0  0  0  0  0  0  0  0  0
  186.7120  177.8720  142.9750 C   0  0  0  0  0  0  0  0  0  0  0  0
  185.3240  177.9570  141.3400 C   0  0  0  0  0  0  0  0  0  0  0  0
  185.2350  178.2040  145.6030 C   0  0  0  0  0  3  0  0  0  0  0  0
  189.5500  177.6100  142.9520 C   0  0  0  0  0  0  0  0  0  0  0  0
  188.6130  177.1920  146.6450 C   0  0  0  0  0  3  0  0  0  0  0  0
  183.5510  179.0890  146.9450 F   0  0  0  0  0  0  0  0  0  0  0  0
  188.9120  177.8480  141.7950 C   0  0  0  0  0  3  0  0  0  0  0  0
  188.7530  177.5130  144.2140 C   0  0  0  0  0  0  0  0  0  0  0  0
  185.3300  177.8400  142.6380 N   0  0  0  0  0  0  0  0  0  0  0  0
  185.3390  177.8100  148.0220 C   0  0  0  0  0  3  0  0  0  0  0  0
  187.4960  178.0240  141.8200 N   0  0  0  0  0  0  0  0  0  0  0  0
  186.6230  178.0560  140.7360 N   0  0  0  0  0  2  0  0  0  0  0  0
  189.3630  177.2740  145.3810 C   0  0  0  0  0  3  0  0  0  0  0  0
  187.2810  177.2690  146.6740 C   0  0  0  0  0  0  0  0  0  0  0  0
  186.5770  177.3060  147.9650 C   0  0  0  0  0  3  0  0  0  0  0  0
  191.0970  175.1280  142.6290 O   0  0  0  0  0  0  0  0  0  0  0  0
  191.7090  176.2080  142.8410 C   0  0  0  0  0  0  0  0  0  0  0  0
  190.9770  177.4340  142.9990 N   0  0  0  0  0  2  0  0  0  0  0  0
  195.9510  176.3030  142.9460 C   0  0  0  0  0  0  0  0  0  0  0  0
  193.8960  176.2060  141.7670 N   0  0  0  0  0  0  0  0  0  0  0  0
  193.1340  176.3700  145.7300 Cl  0  0  0  0  0  0  0  0  0  0  0  0
  197.7000  176.3410  142.9510 Cl  0  0  0  0  0  0  0  0  0  0  0  0
  195.2530  176.2350  141.7450 C   0  0  0  0  0  3  0  0  0  0  0  0
  193.9060  176.3140  144.1500 C   0  0  0  0  0  0  0  0  0  0  0  0
  193.1870  176.2440  142.9300 C   0  0  0  0  0  0  0  0  0  0  0  0
  195.2640  176.3410  144.1160 N   0  0  0  0  0  0  0  0  0  0  0  0
  184.1100  177.9650  140.5740 C   0  0  0  0  0  0  0  0  0  0  0  0
  183.1320  177.9720  139.9570 N   0  0  0  0  0  0  0  0  0  0  0  0
  1 11  1  0  0  0  0
  1  2  1  0  0  0  0
  2  6  1  1  0  0  0
  2 17  1  0  0  0  0
  3  9  1  0  0  0  0
  3 13  1  0  0  0  0
  4  1  2  0  0  0  0
  5 12  2  0  0  0  0
  6  3  2  0  0  0  0
  7 21  1  0  0  0  0
  7 11  1  0  0  0  0
  8 17  2  0  0  0  0
 10 14  1  0  0  0  0
 10  7  2  0  0  0  0
 11 16  2  0  0  0  0
 12  4  1  0  0  0  0
 14  4  1  0  0  0  0
 15  5  1  0  0  0  0
 15 14  1  0  0  0  0
 16  8  1  0  0  0  0
 17 18  1  0  0  0  0
 18 13  2  0  0  0  0
 19 20  2  0  0  0  0
 20 28  1  0  0  0  0
 20 21  1  0  0  0  0
 22 25  1  0  0  0  0
 22 29  1  0  0  0  0
 23 28  2  0  0  0  0
 26 23  1  0  0  0  0
 26 22  2  0  0  0  0
 27 24  1  0  0  0  0
 28 27  1  0  0  0  0
 29 27  2  0  0  0  0
 30  5  1  0  0  0  0
 31 30  3  0  0  0  0
M  END
>  <MODEL>
1

>  <REMARK>
 VINA RESULT:      -8.7      0.000      0.000
  Name = 
  3 active torsions:
  status: ('A' for Active; 'I' for Inactive)
    1  A    between atoms: C_2  and  C_13
    2  A    between atoms: C_9  and  C_22
    3  A    between atoms: C_15  and  N_23
                            x       y       z     vdW  Elec       q    Type
                         _______ _______ _______ _____ _____    ______ ____

>  <TORSDO>
F 3

$$$$
=
 OpenBabel11052417533D

 31 35  0  0  0  0  0  0  0  0999 V2000
  187.9030  176.9270  144.8070 C   0  0  0  0  0  0  0  0  0  0  0  0
  186.8120  177.9460  145.0570 C   0  0  0  0  0  0  0  0  0  0  0  0
  185.0600  178.4470  146.7390 C   0  0  0  0  0  0  0  0  0  0  0  0
  188.9300  176.7420  145.6440 C   0  0  0  0  0  0  0  0  0  0  0  0
  190.3730  177.0030  147.2110 C   0  0  0  0  0  0  0  0  0  0  0  0
  186.2770  177.9590  146.4680 C   0  0  0  0  0  3  0  0  0  0  0  0
  189.1740  175.4050  143.1390 C   0  0  0  0  0  0  0  0  0  0  0  0
  185.7990  177.2050  142.9010 C   0  0  0  0  0  3  0  0  0  0  0  0
  184.6370  178.5140  148.0240 F   0  0  0  0  0  0  0  0  0  0  0  0
  190.1520  175.2610  144.0490 C   0  0  0  0  0  3  0  0  0  0  0  0
  187.9830  176.2420  143.4800 C   0  0  0  0  0  0  0  0  0  0  0  0
  189.1920  177.4300  146.8620 N   0  0  0  0  0  0  0  0  0  0  0  0
  184.1410  178.8440  145.6490 C   0  0  0  0  0  3  0  0  0  0  0  0
  190.0020  175.8960  145.3180 N   0  0  0  0  0  0  0  0  0  0  0  0
  190.9690  176.0630  146.3050 N   0  0  0  0  0  2  0  0  0  0  0  0
  186.9950  176.4040  142.5920 C   0  0  0  0  0  3  0  0  0  0  0  0
  185.6820  177.8730  144.0500 C   0  0  0  0  0  0  0  0  0  0  0  0
  184.4230  178.5600  144.3740 C   0  0  0  0  0  2  0  0  0  0  0  0
  188.1720  172.7660  142.3110 O   0  0  0  0  0  0  0  0  0  0  0  0
  188.7610  173.4900  141.4650 C   0  0  0  0  0  0  0  0  0  0  0  0
  189.2570  174.7830  141.8440 N   0  0  0  0  0  2  0  0  0  0  0  0
  189.2310  172.2900  137.4220 C   0  0  0  0  0  0  0  0  0  0  0  0
  188.3300  173.7260  139.0790 N   0  0  0  0  0  0  0  0  0  0  0  0
  190.6220  170.9240  140.8690 Cl  0  0  0  0  0  0  0  0  0  0  0  0
  189.4010  171.8250  135.7430 Cl  0  0  0  0  0  0  0  0  0  0  0  0
  188.4470  173.3850  137.7710 C   0  0  0  0  0  3  0  0  0  0  0  0
  189.7530  171.9180  139.7060 C   0  0  0  0  0  0  0  0  0  0  0  0
  188.9560  173.0310  140.0710 C   0  0  0  0  0  0  0  0  0  0  0  0
  189.8630  171.5840  138.3940 N   0  0  0  0  0  0  0  0  0  0  0  0
  191.0330  177.4580  148.4030 C   0  0  0  0  0  0  0  0  0  0  0  0
  191.5640  177.8240  149.3630 N   0  0  0  0  0  0  0  0  0  0  0  0
  1  2  1  0  0  0  0
  1  4  2  0  0  0  0
  2  6  2  0  0  0  0
  3  9  1  0  0  0  0
  4 12  1  0  0  0  0
  5 30  1  0  0  0  0
  6  3  1  0  0  0  0
  7 11  1  0  0  0  0
  7 10  2  0  0  0  0
  8 17  2  0  0  0  0
 10 14  1  0  0  0  0
 11  1  1  0  0  0  0
 12  5  2  0  0  0  0
 13  3  2  0  0  0  0
 14  4  1  0  0  0  0
 14 15  1  0  0  0  0
 15  5  1  0  0  0  0
 16  8  1  0  0  0  0
 16 11  2  0  0  0  0
 17 18  1  0  0  0  0
 17  2  1  0  0  0  0
 18 13  1  0  0  0  0
 20 21  1  0  0  0  0
 20 19  2  0  0  0  0
 21  7  1  0  0  0  0
 22 26  2  0  0  0  0
 22 29  1  0  0  0  0
 23 28  2  0  0  0  0
 25 22  1  0  0  0  0
 26 23  1  0  0  0  0
 27 28  1  0  0  0  0
 27 24  1  0  0  0  0
 28 20  1  0  0  0  0
 29 27  2  0  0  0  0
 30 31  3  0  0  0  0
M  END
>  <MODEL>
2

>  <REMARK>
 VINA RESULT:      -8.6      4.314      6.175
  Name = 
  3 active torsions:
  status: ('A' for Active; 'I' for Inactive)
    1  A    between atoms: C_2  and  C_13
    2  A    between atoms: C_9  and  C_22
    3  A    between atoms: C_15  and  N_23
                            x       y       z     vdW  Elec       q    Type
                         _______ _______ _______ _____ _____    ______ ____

>  <TORSDO>
F 3

$$$$
=
 OpenBabel11052417533D

 31 35  0  0  0  0  0  0  0  0999 V2000
  187.8770  176.8830  144.6190 C   0  0  0  0  0  0  0  0  0  0  0  0
  186.7970  177.9120  144.8770 C   0  0  0  0  0  0  0  0  0  0  0  0
  185.0450  178.4140  146.5580 C   0  0  0  0  0  0  0  0  0  0  0  0
  188.8990  176.6780  145.4580 C   0  0  0  0  0  0  0  0  0  0  0  0
  190.3400  176.9050  147.0330 C   0  0  0  0  0  0  0  0  0  0  0  0
  186.2570  177.9160  146.2860 C   0  0  0  0  0  3  0  0  0  0  0  0
  189.1380  175.3650  142.9390 C   0  0  0  0  0  0  0  0  0  0  0  0
  185.7830  177.2060  142.7090 C   0  0  0  0  0  3  0  0  0  0  0  0
  184.6190  178.4720  147.8420 F   0  0  0  0  0  0  0  0  0  0  0  0
  190.1110  175.2000  143.8500 C   0  0  0  0  0  3  0  0  0  0  0  0
  187.9550  176.2120  143.2850 C   0  0  0  0  0  0  0  0  0  0  0  0
  189.1650  177.3490  146.6840 N   0  0  0  0  0  0  0  0  0  0  0  0
  184.1350  178.8340  145.4700 C   0  0  0  0  0  3  0  0  0  0  0  0
  189.9630  175.8220  145.1260 N   0  0  0  0  0  0  0  0  0  0  0  0
  190.9280  175.9680  146.1180 N   0  0  0  0  0  2  0  0  0  0  0  0
  186.9720  176.3950  142.3960 C   0  0  0  0  0  3  0  0  0  0  0  0
  185.6700  177.8630  143.8650 C   0  0  0  0  0  0  0  0  0  0  0  0
  184.4180  178.5610  144.1920 C   0  0  0  0  0  2  0  0  0  0  0  0
  187.8750  172.8780  142.0030 O   0  0  0  0  0  0  0  0  0  0  0  0
  188.5930  173.5380  141.2060 C   0  0  0  0  0  0  0  0  0  0  0  0
  189.2180  174.7570  141.6380 N   0  0  0  0  0  2  0  0  0  0  0  0
  189.2870  172.1030  137.2720 C   0  0  0  0  0  0  0  0  0  0  0  0
  189.4800  171.9080  139.6270 N   0  0  0  0  0  0  0  0  0  0  0  0
  187.4870  175.3080  138.7470 Cl  0  0  0  0  0  0  0  0  0  0  0  0
  189.5910  171.4800  135.6660 Cl  0  0  0  0  0  0  0  0  0  0  0  0
  189.7280  171.4050  138.3920 C   0  0  0  0  0  3  0  0  0  0  0  0
  188.3640  173.7850  138.6690 C   0  0  0  0  0  0  0  0  0  0  0  0
  188.8100  173.0800  139.8140 C   0  0  0  0  0  0  0  0  0  0  0  0
  188.6180  173.2720  137.4360 N   0  0  0  0  0  0  0  0  0  0  0  0
  191.0000  177.3390  148.2320 C   0  0  0  0  0  0  0  0  0  0  0  0
  191.5330  177.6880  149.1970 N   0  0  0  0  0  0  0  0  0  0  0  0
  1  2  1  0  0  0  0
  1  4  2  0  0  0  0
  2  6  2  0  0  0  0
  3  9  1  0  0  0  0
  4 12  1  0  0  0  0
  5 30  1  0  0  0  0
  6  3  1  0  0  0  0
  7 11  1  0  0  0  0
  7 10  2  0  0  0  0
  8 17  2  0  0  0  0
 10 14  1  0  0  0  0
 11  1  1  0  0  0  0
 12  5  2  0  0  0  0
 13  3  2  0  0  0  0
 14  4  1  0  0  0  0
 14 15  1  0  0  0  0
 15  5  1  0  0  0  0
 16  8  1  0  0  0  0
 16 11  2  0  0  0  0
 17 18  1  0  0  0  0
 17  2  1  0  0  0  0
 18 13  1  0  0  0  0
 20 21  1  0  0  0  0
 20 19  2  0  0  0  0
 21  7  1  0  0  0  0
 22 29  2  0  0  0  0
 22 26  1  0  0  0  0
 23 28  1  0  0  0  0
 25 22  1  0  0  0  0
 26 23  2  0  0  0  0
 27 24  1  0  0  0  0
 27 28  2  0  0  0  0
 28 20  1  0  0  0  0
 29 27  1  0  0  0  0
 30 31  3  0  0  0  0
M  END
>  <MODEL>
3

>  <REMARK>
 VINA RESULT:      -8.5      4.461      6.281
  Name = 
  3 active torsions:
  status: ('A' for Active; 'I' for Inactive)
    1  A    between atoms: C_2  and  C_13
    2  A    between atoms: C_9  and  C_22
    3  A    between atoms: C_15  and  N_23
                            x       y       z     vdW  Elec       q    Type
                         _______ _______ _______ _____ _____    ______ ____

>  <TORSDO>
F 3

$$$$
=
 OpenBabel11052417533D

 31 35  0  0  1  0  0  0  0  0999 V2000
  187.3560  177.4830  144.1770 C   0  0  0  0  0  0  0  0  0  0  0  0
  186.5660  177.1430  145.4220 C   0  0  2  0  0  3  0  0  0  0  0  0
  184.8830  178.1800  146.9190 C   0  0  0  0  0  0  0  0  0  0  0  0
  186.7780  177.7700  143.0050 C   0  0  0  0  0  0  0  0  0  0  0  0
  185.3490  177.9720  141.4170 C   0  0  0  0  0  0  0  0  0  0  0  0
  185.3910  178.0530  145.6870 C   0  0  0  0  0  3  0  0  0  0  0  0
  189.6030  177.4030  142.8860 C   0  0  0  0  0  0  0  0  0  0  0  0
  188.7560  176.8740  146.5870 C   0  0  0  0  0  3  0  0  0  0  0  0
  183.7820  178.9460  147.1120 F   0  0  0  0  0  0  0  0  0  0  0  0
  188.9410  177.7110  141.7580 C   0  0  0  0  0  3  0  0  0  0  0  0
  188.8390  177.2860  144.1660 C   0  0  0  0  0  0  0  0  0  0  0  0
  185.3870  177.8040  142.7090 N   0  0  0  0  0  0  0  0  0  0  0  0
  185.5500  177.5580  148.0840 C   0  0  0  0  0  3  0  0  0  0  0  0
  187.5340  177.9390  141.8330 N   0  0  0  0  0  0  0  0  0  0  0  0
  186.6320  178.0460  140.7780 N   0  0  0  0  0  2  0  0  0  0  0  0
  189.4720  176.9780  145.3040 C   0  0  0  0  0  3  0  0  0  0  0  0
  187.4290  177.0000  146.6590 C   0  0  0  0  0  0  0  0  0  0  0  0
  186.7650  177.0120  147.9700 C   0  0  0  0  0  3  0  0  0  0  0  0
  191.0370  174.8430  142.6690 O   0  0  0  0  0  0  0  0  0  0  0  0
  191.6990  175.9090  142.7780 C   0  0  0  0  0  0  0  0  0  0  0  0
  191.0220  177.1720  142.8830 N   0  0  0  0  0  2  0  0  0  0  0  0
  195.9380  175.9150  142.9810 C   0  0  0  0  0  0  0  0  0  0  0  0
  193.8050  176.3700  143.9120 N   0  0  0  0  0  0  0  0  0  0  0  0
  193.3230  174.7530  140.2430 Cl  0  0  0  0  0  0  0  0  0  0  0  0
  197.6840  175.9330  143.1010 Cl  0  0  0  0  0  0  0  0  0  0  0  0
  195.1570  176.3940  144.0280 C   0  0  0  0  0  3  0  0  0  0  0  0
  193.9820  175.4030  141.7390 C   0  0  0  0  0  0  0  0  0  0  0  0
  193.1800  175.8900  142.8010 C   0  0  0  0  0  0  0  0  0  0  0  0
  195.3350  175.4330  141.8650 N   0  0  0  0  0  0  0  0  0  0  0  0
  184.1140  178.0560  140.6880 C   0  0  0  0  0  0  0  0  0  0  0  0
  183.1190  178.1240  140.1020 N   0  0  0  0  0  0  0  0  0  0  0  0
  1  2  1  0  0  0  0
  2  6  1  1  0  0  0
  2 17  1  0  0  0  0
  3  9  1  0  0  0  0
  3 13  1  0  0  0  0
  4  1  2  0  0  0  0
  5 12  2  0  0  0  0
  6  3  2  0  0  0  0
  7 11  1  0  0  0  0
  8 17  2  0  0  0  0
 10 14  1  0  0  0  0
 10  7  2  0  0  0  0
 11  1  1  0  0  0  0
 11 16  2  0  0  0  0
 12  4  1  0  0  0  0
 14  4  1  0  0  0  0
 15  5  1  0  0  0  0
 15 14  1  0  0  0  0
 16  8  1  0  0  0  0
 17 18  1  0  0  0  0
 18 13  2  0  0  0  0
 19 20  2  0  0  0  0
 20 28  1  0  0  0  0
 20 21  1  0  0  0  0
 21  7  1  0  0  0  0
 22 25  1  0  0  0  0
 22 26  1  0  0  0  0
 23 26  2  0  0  0  0
 24 27  1  0  0  0  0
 27 29  1  0  0  0  0
 27 28  2  0  0  0  0
 28 23  1  0  0  0  0
 29 22  2  0  0  0  0
 30  5  1  0  0  0  0
 31 30  3  0  0  0  0
M  END
>  <MODEL>
4

>  <REMARK>
 VINA RESULT:      -8.0      1.131      1.357
  Name = 
  3 active torsions:
  status: ('A' for Active; 'I' for Inactive)
    1  A    between atoms: C_2  and  C_13
    2  A    between atoms: C_9  and  C_22
    3  A    between atoms: C_15  and  N_23
                            x       y       z     vdW  Elec       q    Type
                         _______ _______ _______ _____ _____    ______ ____

>  <TORSDO>
F 3

$$$$
=
 OpenBabel11052417533D

 31 35  0  0  1  0  0  0  0  0999 V2000
  189.3930  175.8700  144.0230 C   0  0  0  0  0  0  0  0  0  0  0  0
  190.2780  176.3810  145.1400 C   0  0  2  0  0  3  0  0  0  0  0  0
  191.7370  175.4900  146.9360 C   0  0  0  0  0  0  0  0  0  0  0  0
  189.8560  175.1300  143.0100 C   0  0  0  0  0  0  0  0  0  0  0  0
  191.1550  174.1580  141.6050 C   0  0  0  0  0  0  0  0  0  0  0  0
  191.2310  175.3560  145.7040 C   0  0  0  0  0  3  0  0  0  0  0  0
  187.1800  176.0560  142.6870 C   0  0  0  0  0  0  0  0  0  0  0  0
  188.2380  177.4580  146.0930 C   0  0  0  0  0  3  0  0  0  0  0  0
  192.6470  174.5940  147.3860 F   0  0  0  0  0  0  0  0  0  0  0  0
  187.7220  175.2900  141.7250 C   0  0  0  0  0  3  0  0  0  0  0  0
  187.9910  176.3760  143.9020 C   0  0  0  0  0  0  0  0  0  0  0  0
  191.1950  174.7050  142.7870 N   0  0  0  0  0  0  0  0  0  0  0  0
  191.2600  176.5600  147.8400 C   0  0  0  0  0  3  0  0  0  0  0  0
  189.0450  174.7920  141.9140 N   0  0  0  0  0  0  0  0  0  0  0  0
  189.8670  174.1820  140.9710 N   0  0  0  0  0  2  0  0  0  0  0  0
  187.4760  177.1380  144.8740 C   0  0  0  0  0  3  0  0  0  0  0  0
  189.5060  177.0700  146.2470 C   0  0  0  0  0  0  0  0  0  0  0  0
  190.1930  177.3020  147.5270 C   0  0  0  0  0  3  0  0  0  0  0  0
  186.2950  178.4860  141.2830 O   0  0  0  0  0  0  0  0  0  0  0  0
  185.4400  177.7750  141.8740 C   0  0  0  0  0  0  0  0  0  0  0  0
  185.8460  176.5820  142.5640 N   0  0  0  0  0  2  0  0  0  0  0  0
  181.3220  178.7890  141.7280 C   0  0  0  0  0  0  0  0  0  0  0  0
  183.2980  177.9420  140.7270 N   0  0  0  0  0  0  0  0  0  0  0  0
  184.1060  179.0140  144.5360 Cl  0  0  0  0  0  0  0  0  0  0  0  0
  179.6230  179.1940  141.6300 Cl  0  0  0  0  0  0  0  0  0  0  0  0
  181.9790  178.2480  140.6280 C   0  0  0  0  0  3  0  0  0  0  0  0
  183.3290  178.6950  142.9900 C   0  0  0  0  0  0  0  0  0  0  0  0
  184.0060  178.1440  141.8730 C   0  0  0  0  0  0  0  0  0  0  0  0
  182.0090  178.9990  142.8790 N   0  0  0  0  0  0  0  0  0  0  0  0
  192.3180  173.5920  140.9790 C   0  0  0  0  0  0  0  0  0  0  0  0
  193.2540  173.1370  140.4750 N   0  0  0  0  0  0  0  0  0  0  0  0
  1  2  1  0  0  0  0
  2  6  1  1  0  0  0
  2 17  1  0  0  0  0
  3  9  1  0  0  0  0
  3 13  1  0  0  0  0
  4  1  2  0  0  0  0
  5 12  2  0  0  0  0
  6  3  2  0  0  0  0
  7 11  1  0  0  0  0
  8 17  2  0  0  0  0
 10 14  1  0  0  0  0
 10  7  2  0  0  0  0
 11  1  1  0  0  0  0
 11 16  2  0  0  0  0
 12  4  1  0  0  0  0
 14  4  1  0  0  0  0
 15  5  1  0  0  0  0
 15 14  1  0  0  0  0
 16  8  1  0  0  0  0
 17 18  1  0  0  0  0
 18 13  2  0  0  0  0
 19 20  2  0  0  0  0
 20 21  1  0  0  0  0
 21  7  1  0  0  0  0
 22 29  1  0  0  0  0
 23 28  2  0  0  0  0
 25 22  1  0  0  0  0
 26 23  1  0  0  0  0
 26 22  2  0  0  0  0
 27 24  1  0  0  0  0
 28 20  1  0  0  0  0
 28 27  1  0  0  0  0
 29 27  2  0  0  0  0
 30  5  1  0  0  0  0
 31 30  3  0  0  0  0
M  END
>  <MODEL>
5

>  <REMARK>
 VINA RESULT:      -7.8      4.414      8.254
  Name = 
  3 active torsions:
  status: ('A' for Active; 'I' for Inactive)
    1  A    between atoms: C_2  and  C_13
    2  A    between atoms: C_9  and  C_22
    3  A    between atoms: C_15  and  N_23
                            x       y       z     vdW  Elec       q    Type
                         _______ _______ _______ _____ _____    ______ ____

>  <TORSDO>
F 3

$$$$
=
 OpenBabel11052417533D

 31 35  0  0  1  0  0  0  0  0999 V2000
  188.6870  176.0390  144.5330 C   0  0  0  0  0  0  0  0  0  0  0  0
  189.4190  175.8440  145.8440 C   0  0  2  0  0  3  0  0  0  0  0  0
  190.4410  177.2100  147.6430 C   0  0  0  0  0  0  0  0  0  0  0  0
  187.5160  176.6800  144.4420 C   0  0  0  0  0  0  0  0  0  0  0  0
  185.6470  177.6170  144.9260 C   0  0  0  0  0  0  0  0  0  0  0  0
  189.4900  177.0770  146.7110 C   0  0  0  0  0  3  0  0  0  0  0  0
  188.3180  175.3150  142.0720 C   0  0  0  0  0  0  0  0  0  0  0  0
  191.1640  174.6230  144.5430 C   0  0  0  0  0  3  0  0  0  0  0  0
  190.4340  178.2930  148.4570 F   0  0  0  0  0  0  0  0  0  0  0  0
  187.1620  176.0010  142.0660 C   0  0  0  0  0  3  0  0  0  0  0  0
  189.1530  175.3100  143.3130 C   0  0  0  0  0  0  0  0  0  0  0  0
  186.7650  177.2670  145.4980 N   0  0  0  0  0  0  0  0  0  0  0  0
  191.5440  176.2280  147.7480 C   0  0  0  0  0  3  0  0  0  0  0  0
  186.7900  176.7190  143.2410 N   0  0  0  0  0  0  0  0  0  0  0  0
  185.5580  177.3000  143.5290 N   0  0  0  0  0  2  0  0  0  0  0  0
  190.3070  174.6340  143.3460 C   0  0  0  0  0  3  0  0  0  0  0  0
  190.7900  175.2200  145.6770 C   0  0  0  0  0  0  0  0  0  0  0  0
  191.7240  175.2930  146.8100 C   0  0  0  0  0  3  0  0  0  0  0  0
  187.5270  172.6120  141.2190 O   0  0  0  0  0  0  0  0  0  0  0  0
  188.3580  173.2550  140.5240 C   0  0  0  0  0  0  0  0  0  0  0  0
  188.7570  174.5780  140.9170 N   0  0  0  0  0  2  0  0  0  0  0  0
  190.0840  171.4730  137.0810 C   0  0  0  0  0  0  0  0  0  0  0  0
  189.6910  171.5420  139.4180 N   0  0  0  0  0  0  0  0  0  0  0  0
  187.8170  174.6650  137.6740 Cl  0  0  0  0  0  0  0  0  0  0  0  0
  190.8120  170.7100  135.6850 Cl  0  0  0  0  0  0  0  0  0  0  0  0
  190.2650  170.9320  138.3500 C   0  0  0  0  0  3  0  0  0  0  0  0
  188.7590  173.2150  137.9970 C   0  0  0  0  0  0  0  0  0  0  0  0
  188.9380  172.6710  139.2930 C   0  0  0  0  0  0  0  0  0  0  0  0
  189.3390  172.5970  136.9350 N   0  0  0  0  0  0  0  0  0  0  0  0
  184.5810  178.2530  145.6470 C   0  0  0  0  0  0  0  0  0  0  0  0
  183.7220  178.7650  146.2280 N   0  0  0  0  0  0  0  0  0  0  0  0
  1  2  1  0  0  0  0
  2  6  1  6  0  0  0
  3 13  1  0  0  0  0
  3  9  1  0  0  0  0
  4  1  2  0  0  0  0
  4 12  1  0  0  0  0
  5 12  2  0  0  0  0
  5 30  1  0  0  0  0
  6  3  2  0  0  0  0
  7 11  1  0  0  0  0
  8 17  2  0  0  0  0
 10  7  2  0  0  0  0
 10 14  1  0  0  0  0
 11 16  2  0  0  0  0
 11  1  1  0  0  0  0
 14 15  1  0  0  0  0
 14  4  1  0  0  0  0
 15  5  1  0  0  0  0
 16  8  1  0  0  0  0
 17  2  1  0  0  0  0
 17 18  1  0  0  0  0
 18 13  2  0  0  0  0
 20 21  1  0  0  0  0
 20 19  2  0  0  0  0
 21  7  1  0  0  0  0
 22 26  1  0  0  0  0
 24 27  1  0  0  0  0
 25 22  1  0  0  0  0
 26 23  2  0  0  0  0
 27 28  2  0  0  0  0
 28 23  1  0  0  0  0
 28 20  1  0  0  0  0
 29 22  2  0  0  0  0
 29 27  1  0  0  0  0
 30 31  3  0  0  0  0
M  END
>  <MODEL>
6

>  <REMARK>
 VINA RESULT:      -7.7      4.786      5.908
  Name = 
  3 active torsions:
  status: ('A' for Active; 'I' for Inactive)
    1  A    between atoms: C_2  and  C_13
    2  A    between atoms: C_9  and  C_22
    3  A    between atoms: C_15  and  N_23
                            x       y       z     vdW  Elec       q    Type
                         _______ _______ _______ _____ _____    ______ ____

>  <TORSDO>
F 3

$$$$
=
 OpenBabel11052417533D

 31 35  0  0  0  0  0  0  0  0999 V2000
  188.4240  176.4820  144.8220 C   0  0  0  0  0  0  0  0  0  0  0  0
  187.5220  177.6860  144.6540 C   0  0  0  0  0  0  0  0  0  0  0  0
  185.7190  178.8680  145.8790 C   0  0  0  0  0  0  0  0  0  0  0  0
  189.2990  176.3650  145.8280 C   0  0  0  0  0  0  0  0  0  0  0  0
  190.5810  176.7980  147.4930 C   0  0  0  0  0  0  0  0  0  0  0  0
  186.8450  178.1460  145.9220 C   0  0  0  0  0  3  0  0  0  0  0  0
  189.5650  174.4030  143.7770 C   0  0  0  0  0  0  0  0  0  0  0  0
  186.6340  176.5760  142.6030 C   0  0  0  0  0  3  0  0  0  0  0  0
  185.1760  179.3290  147.0310 F   0  0  0  0  0  0  0  0  0  0  0  0
  190.3910  174.3510  144.8350 C   0  0  0  0  0  3  0  0  0  0  0  0
  188.5210  175.4730  143.7230 C   0  0  0  0  0  0  0  0  0  0  0  0
  189.5470  177.2950  146.8750 N   0  0  0  0  0  0  0  0  0  0  0  0
  185.0180  179.1060  144.5970 C   0  0  0  0  0  3  0  0  0  0  0  0
  190.2230  175.3080  145.8800 N   0  0  0  0  0  0  0  0  0  0  0  0
  191.0870  175.5750  146.9370 N   0  0  0  0  0  2  0  0  0  0  0  0
  187.6860  175.5490  142.6800 C   0  0  0  0  0  3  0  0  0  0  0  0
  186.5180  177.5300  143.5300 C   0  0  0  0  0  0  0  0  0  0  0  0
  185.3820  178.4620  143.4840 C   0  0  0  0  0  2  0  0  0  0  0  0
  191.3810  174.4820  141.4630 O   0  0  0  0  0  0  0  0  0  0  0  0
  190.5690  173.5250  141.5720 C   0  0  0  0  0  0  0  0  0  0  0  0
  189.6730  173.4630  142.6940 N   0  0  0  0  0  2  0  0  0  0  0  0
  190.2890  170.5040  138.6050 C   0  0  0  0  0  0  0  0  0  0  0  0
  189.4900  172.4720  139.6580 N   0  0  0  0  0  0  0  0  0  0  0  0
  192.8380  171.2340  141.5470 Cl  0  0  0  0  0  0  0  0  0  0  0  0
  190.1420  169.2750  137.3680 Cl  0  0  0  0  0  0  0  0  0  0  0  0
  189.3550  171.5310  138.6900 C   0  0  0  0  0  3  0  0  0  0  0  0
  191.4620  171.3990  140.4630 C   0  0  0  0  0  0  0  0  0  0  0  0
  190.5150  172.4490  140.5560 C   0  0  0  0  0  0  0  0  0  0  0  0
  191.3170  170.4620  139.4900 N   0  0  0  0  0  0  0  0  0  0  0  0
  191.1780  177.4380  148.6320 C   0  0  0  0  0  0  0  0  0  0  0  0
  191.6590  177.9540  149.5480 N   0  0  0  0  0  0  0  0  0  0  0  0
  1  4  2  0  0  0  0
  2  1  1  0  0  0  0
  2  6  2  0  0  0  0
  3  6  1  0  0  0  0
  3  9  1  0  0  0  0
  4 14  1  0  0  0  0
  4 12  1  0  0  0  0
  5 30  1  0  0  0  0
  7 10  2  0  0  0  0
  8 16  1  0  0  0  0
  8 17  2  0  0  0  0
 10 14  1  0  0  0  0
 11  7  1  0  0  0  0
 11  1  1  0  0  0  0
 12  5  2  0  0  0  0
 13  3  2  0  0  0  0
 14 15  1  0  0  0  0
 15  5  1  0  0  0  0
 16 11  2  0  0  0  0
 17  2  1  0  0  0  0
 18 17  1  0  0  0  0
 18 13  1  0  0  0  0
 19 20  2  0  0  0  0
 20 21  1  0  0  0  0
 21  7  1  0  0  0  0
 22 26  2  0  0  0  0
 22 29  1  0  0  0  0
 23 28  2  0  0  0  0
 25 22  1  0  0  0  0
 26 23  1  0  0  0  0
 27 28  1  0  0  0  0
 27 24  1  0  0  0  0
 28 20  1  0  0  0  0
 29 27  2  0  0  0  0
 30 31  3  0  0  0  0
M  END
>  <MODEL>
7

>  <REMARK>
 VINA RESULT:      -7.7      4.337      6.145
  Name = 
  3 active torsions:
  status: ('A' for Active; 'I' for Inactive)
    1  A    between atoms: C_2  and  C_13
    2  A    between atoms: C_9  and  C_22
    3  A    between atoms: C_15  and  N_23
                            x       y       z     vdW  Elec       q    Type
                         _______ _______ _______ _____ _____    ______ ____

>  <TORSDO>
F 3

$$$$
=
 OpenBabel11052417533D

 31 35  0  0  1  0  0  0  0  0999 V2000
  186.6160  176.9560  143.8220 C   0  0  0  0  0  0  0  0  0  0  0  0
  186.0260  176.8340  145.2110 C   0  0  2  0  0  3  0  0  0  0  0  0
  184.9650  178.2700  146.9320 C   0  0  0  0  0  0  0  0  0  0  0  0
  185.9060  177.3620  142.7640 C   0  0  0  0  0  0  0  0  0  0  0  0
  184.2840  177.8920  141.4620 C   0  0  0  0  0  0  0  0  0  0  0  0
  185.1780  178.0070  145.6370 C   0  0  0  0  0  3  0  0  0  0  0  0
  188.4810  176.3110  142.1420 C   0  0  0  0  0  0  0  0  0  0  0  0
  188.2720  176.0470  145.9600 C   0  0  0  0  0  3  0  0  0  0  0  0
  184.1390  179.2840  147.2820 F   0  0  0  0  0  0  0  0  0  0  0  0
  187.7050  176.7600  141.1410 C   0  0  0  0  0  3  0  0  0  0  0  0
  187.9760  176.3990  143.5470 C   0  0  0  0  0  0  0  0  0  0  0  0
  184.5330  177.7340  142.7310 N   0  0  0  0  0  0  0  0  0  0  0  0
  185.6790  177.5150  147.9870 C   0  0  0  0  0  3  0  0  0  0  0  0
  186.4360  177.3270  141.4640 N   0  0  0  0  0  0  0  0  0  0  0  0
  185.3980  177.6420  140.5920 N   0  0  0  0  0  2  0  0  0  0  0  0
  188.7280  175.9580  144.5620 C   0  0  0  0  0  3  0  0  0  0  0  0
  187.0540  176.4960  146.2710 C   0  0  0  0  0  0  0  0  0  0  0  0
  186.6810  176.6850  147.6810 C   0  0  0  0  0  3  0  0  0  0  0  0
  189.1560  173.5070  141.5620 O   0  0  0  0  0  0  0  0  0  0  0  0
  190.0790  174.3620  141.6090 C   0  0  0  0  0  0  0  0  0  0  0  0
  189.7760  175.7380  141.8870 N   0  0  0  0  0  2  0  0  0  0  0  0
  194.0920  173.2380  140.8040 C   0  0  0  0  0  0  0  0  0  0  0  0
  191.8670  173.6680  140.1060 N   0  0  0  0  0  0  0  0  0  0  0  0
  192.1380  174.2740  144.0900 Cl  0  0  0  0  0  0  0  0  0  0  0  0
  195.7370  172.7700  140.4340 Cl  0  0  0  0  0  0  0  0  0  0  0  0
  193.1370  173.3030  139.7950 C   0  0  0  0  0  3  0  0  0  0  0  0
  192.4700  173.9070  142.4010 C   0  0  0  0  0  0  0  0  0  0  0  0
  191.4910  173.9750  141.3790 C   0  0  0  0  0  0  0  0  0  0  0  0
  193.7380  173.5400  142.0790 N   0  0  0  0  0  0  0  0  0  0  0  0
  182.9870  178.2700  140.9730 C   0  0  0  0  0  0  0  0  0  0  0  0
  181.9430  178.5740  140.5790 N   0  0  0  0  0  0  0  0  0  0  0  0
  1  2  1  0  0  0  0
  2  6  1  1  0  0  0
  2 17  1  0  0  0  0
  3  9  1  0  0  0  0
  3 13  1  0  0  0  0
  4  1  2  0  0  0  0
  5 12  2  0  0  0  0
  6  3  2  0  0  0  0
  7 11  1  0  0  0  0
  8 17  2  0  0  0  0
 10 14  1  0  0  0  0
 10  7  2  0  0  0  0
 11  1  1  0  0  0  0
 11 16  2  0  0  0  0
 12  4  1  0  0  0  0
 14  4  1  0  0  0  0
 15  5  1  0  0  0  0
 15 14  1  0  0  0  0
 16  8  1  0  0  0  0
 17 18  1  0  0  0  0
 18 13  2  0  0  0  0
 19 20  2  0  0  0  0
 20 21  1  0  0  0  0
 21  7  1  0  0  0  0
 22 29  1  0  0  0  0
 23 28  2  0  0  0  0
 25 22  1  0  0  0  0
 26 23  1  0  0  0  0
 26 22  2  0  0  0  0
 27 24  1  0  0  0  0
 28 20  1  0  0  0  0
 28 27  1  0  0  0  0
 29 27  2  0  0  0  0
 30  5  1  0  0  0  0
 31 30  3  0  0  0  0
M  END
>  <MODEL>
8

>  <REMARK>
 VINA RESULT:      -7.5      2.147      2.286
  Name = 
  3 active torsions:
  status: ('A' for Active; 'I' for Inactive)
    1  A    between atoms: C_2  and  C_13
    2  A    between atoms: C_9  and  C_22
    3  A    between atoms: C_15  and  N_23
                            x       y       z     vdW  Elec       q    Type
                         _______ _______ _______ _____ _____    ______ ____

>  <TORSDO>
F 3

$$$$
=
 OpenBabel11052417533D

 31 35  0  0  1  0  0  0  0  0999 V2000
  192.9020  172.8830  144.4660 C   0  0  0  0  0  0  0  0  0  0  0  0
  194.3600  173.2620  144.6150 C   0  0  2  0  0  3  0  0  0  0  0  0
  196.4900  172.2610  145.3960 C   0  0  0  0  0  0  0  0  0  0  0  0
  192.4880  171.8780  143.6860 C   0  0  0  0  0  0  0  0  0  0  0  0
  192.4140  170.3270  142.2050 C   0  0  0  0  0  0  0  0  0  0  0  0
  195.2940  172.0950  144.8180 C   0  0  0  0  0  3  0  0  0  0  0  0
  190.4050  173.5410  144.6970 C   0  0  0  0  0  0  0  0  0  0  0  0
  193.6020  175.0730  146.1560 C   0  0  0  0  0  3  0  0  0  0  0  0
  197.3370  171.2090  145.4960 F   0  0  0  0  0  0  0  0  0  0  0  0
  190.0800  172.4960  143.9180 C   0  0  0  0  0  3  0  0  0  0  0  0
  191.8450  173.7820  145.0250 C   0  0  0  0  0  0  0  0  0  0  0  0
  193.2870  171.0190  142.8810 N   0  0  0  0  0  0  0  0  0  0  0  0
  196.8700  173.5600  145.9940 C   0  0  0  0  0  3  0  0  0  0  0  0
  191.1240  171.6410  143.4530 N   0  0  0  0  0  0  0  0  0  0  0  0
  191.0430  170.6550  142.4740 N   0  0  0  0  0  2  0  0  0  0  0  0
  192.1970  174.8160  145.7970 C   0  0  0  0  0  3  0  0  0  0  0  0
  194.5970  174.3330  145.6610 C   0  0  0  0  0  0  0  0  0  0  0  0
  195.9720  174.5410  146.1380 C   0  0  0  0  0  3  0  0  0  0  0  0
  189.4020  176.0360  143.5030 O   0  0  0  0  0  0  0  0  0  0  0  0
  188.9310  175.6520  144.6060 C   0  0  0  0  0  0  0  0  0  0  0  0
  189.4020  174.4360  145.2080 N   0  0  0  0  0  2  0  0  0  0  0  0
  185.8390  177.8530  146.5060 C   0  0  0  0  0  0  0  0  0  0  0  0
  186.6260  176.4180  144.7900 N   0  0  0  0  0  0  0  0  0  0  0  0
  189.6920  177.3240  147.2570 Cl  0  0  0  0  0  0  0  0  0  0  0  0
  184.5400  178.7480  147.2620 Cl  0  0  0  0  0  0  0  0  0  0  0  0
  185.6020  177.1040  145.3580 C   0  0  0  0  0  3  0  0  0  0  0  0
  188.1210  177.2020  146.4740 C   0  0  0  0  0  0  0  0  0  0  0  0
  187.8870  176.4360  145.3050 C   0  0  0  0  0  0  0  0  0  0  0  0
  187.0890  177.8850  147.0350 N   0  0  0  0  0  0  0  0  0  0  0  0
  192.8000  169.3270  141.2490 C   0  0  0  0  0  0  0  0  0  0  0  0
  193.1110  168.5220  140.4790 N   0  0  0  0  0  0  0  0  0  0  0  0
  1  2  1  0  0  0  0
  1 11  1  0  0  0  0
  2  6  1  1  0  0  0
  2 17  1  0  0  0  0
  3  9  1  0  0  0  0
  3 13  1  0  0  0  0
  4  1  2  0  0  0  0
  5 15  1  0  0  0  0
  5 12  2  0  0  0  0
  6  3  2  0  0  0  0
  7 11  1  0  0  0  0
  7 21  1  0  0  0  0
 10  7  2  0  0  0  0
 11 16  2  0  0  0  0
 12  4  1  0  0  0  0
 13 18  2  0  0  0  0
 14  4  1  0  0  0  0
 14 10  1  0  0  0  0
 15 14  1  0  0  0  0
 16  8  1  0  0  0  0
 17 18  1  0  0  0  0
 17  8  2  0  0  0  0
 19 20  2  0  0  0  0
 20 21  1  0  0  0  0
 20 28  1  0  0  0  0
 22 29  1  0  0  0  0
 22 25  1  0  0  0  0
 23 28  2  0  0  0  0
 23 26  1  0  0  0  0
 26 22  2  0  0  0  0
 27 29  2  0  0  0  0
 27 24  1  0  0  0  0
 28 27  1  0  0  0  0
 30  5  1  0  0  0  0
 31 30  3  0  0  0  0
M  END
>  <MODEL>
9

>  <REMARK>
 VINA RESULT:      -7.0      5.186      9.143
  Name = 
  3 active torsions:
  status: ('A' for Active; 'I' for Inactive)
    1  A    between atoms: C_2  and  C_13
    2  A    between atoms: C_9  and  C_22
    3  A    between atoms: C_15  and  N_23
                            x       y       z     vdW  Elec       q    Type
                         _______ _______ _______ _____ _____    ______ ____

>  <TORSDO>
F 3

$$$$
