=
 OpenBabel11052417373D

 25 28  0  0  1  0  0  0  0  0999 V2000
  185.9520  177.2190  143.9400 C   0  0  0  0  0  0  0  0  0  0  0  0
  186.8210  176.6750  142.9880 C   0  0  0  0  0  0  0  0  0  0  0  0
  184.6760  178.3930  142.2650 C   0  0  0  0  0  3  0  0  0  0  0  0
  185.8700  176.9910  145.4090 C   0  0  2  0  0  3  0  0  0  0  0  0
  189.1410  175.9720  142.7430 N   0  0  0  0  0  0  0  0  0  0  0  0
  185.6210  178.4200  147.8980 C   0  0  0  0  0  3  0  0  0  0  0  0
  185.5350  177.8770  141.2840 C   0  0  0  0  0  3  0  0  0  0  0  0
  184.7150  177.9000  145.7380 C   0  0  0  0  0  0  0  0  0  0  0  0
  184.5380  178.3860  147.1100 C   0  0  0  0  0  3  0  0  0  0  0  0
  187.5230  176.5470  140.4960 C   0  0  2  0  0  3  0  0  0  0  0  0
  186.8930  176.6390  139.2530 O   0  0  0  0  0  1  0  0  0  0  0  0
  187.8880  175.7230  143.4500 C   0  0  0  0  0  2  0  0  0  0  0  0
  186.9570  178.0270  147.3760 C   0  0  0  0  0  3  0  0  0  0  0  0
  184.9010  178.0280  143.5860 C   0  0  0  0  0  0  0  0  0  0  0  0
  184.1680  178.4750  144.7140 N   0  0  0  0  0  0  0  0  0  0  0  0
  188.0220  175.1210  140.6860 C   0  0  0  0  0  2  0  0  0  0  0  0
  187.0900  177.4170  146.1860 C   0  0  0  0  0  3  0  0  0  0  0  0
  189.2560  175.0730  141.5900 C   0  0  0  0  0  2  0  0  0  0  0  0
  186.5960  176.9990  141.6130 C   0  0  0  0  0  0  0  0  0  0  0  0
  190.2790  175.7670  143.6460 C   0  0  0  0  0  2  0  0  0  0  0  0
  190.6310  178.2330  143.8970 C   0  0  0  0  0  1  0  0  0  0  0  0
  190.5000  176.9150  144.6370 C   0  0  2  0  0  3  0  0  0  0  0  0
  191.7270  176.6620  145.4460 C   0  0  0  0  0  0  0  0  0  0  0  0
  191.6190  176.2940  146.6440 O   0  0  0  0  0  1  0  0  0  0  0  0
  192.9880  176.8290  144.8870 O   0  0  0  0  0  0  0  0  0  0  0  0
  1  4  1  0  0  0  0
  2 12  1  0  0  0  0
  2  1  2  0  0  0  0
  3 14  2  0  0  0  0
  4  8  1  0  0  0  0
  4 17  1  1  0  0  0
  5 12  1  0  0  0  0
  5 20  1  0  0  0  0
  7 19  2  0  0  0  0
  7  3  1  0  0  0  0
  8  9  1  0  0  0  0
  9  6  2  0  0  0  0
 10 11  1  6  0  0  0
 10 16  1  0  0  0  0
 10 19  1  0  0  0  0
 13  6  1  0  0  0  0
 14  1  1  0  0  0  0
 14 15  1  0  0  0  0
 15  8  2  0  0  0  0
 16 18  1  0  0  0  0
 17 13  2  0  0  0  0
 18  5  1  0  0  0  0
 19  2  1  0  0  0  0
 20 22  1  0  0  0  0
 22 21  1  6  0  0  0
 22 23  1  0  0  0  0
 23 24  1  0  0  0  0
 25 23  2  0  0  0  0
M  END
>  <MODEL>
1

>  <REMARK>
 VINA RESULT:      -7.7      0.000      0.000
  Name = 
  3 active torsions:
  status: ('A' for Active; 'I' for Inactive)
    1  A    between atoms: C_2  and  C_25
    2  A    between atoms: N_6  and  C_15
    3  A    between atoms: C_15  and  C_25
                            x       y       z     vdW  Elec       q    Type
                         _______ _______ _______ _____ _____    ______ ____

>  <TORSDO>
F 3

$$$$
=
 OpenBabel11052417373D

 25 28  0  0  1  0  0  0  0  0999 V2000
  187.7210  177.2160  146.0030 C   0  0  0  0  0  0  0  0  0  0  0  0
  188.8270  177.0480  145.1630 C   0  0  0  0  0  0  0  0  0  0  0  0
  188.3050  175.2940  147.3360 C   0  0  0  0  0  3  0  0  0  0  0  0
  186.6930  178.2920  146.0380 C   0  0  2  0  0  3  0  0  0  0  0  0
  189.5020  177.4040  142.8490 N   0  0  0  0  0  0  0  0  0  0  0  0
  183.8440  178.6790  146.2130 C   0  0  0  0  0  3  0  0  0  0  0  0
  189.4170  175.0870  146.5070 C   0  0  0  0  0  3  0  0  0  0  0  0
  185.8520  177.7980  147.1850 C   0  0  0  0  0  0  0  0  0  0  0  0
  184.4650  178.2510  147.3210 C   0  0  0  0  0  3  0  0  0  0  0  0
  190.8960  175.6170  144.5390 C   0  0  2  0  0  3  0  0  0  0  0  0
  191.8110  174.8020  145.2090 O   0  0  0  0  0  1  0  0  0  0  0  0
  189.0640  178.0600  144.0780 C   0  0  0  0  0  2  0  0  0  0  0  0
  184.5270  178.6440  144.8920 C   0  0  0  0  0  3  0  0  0  0  0  0
  187.4850  176.3820  147.0680 C   0  0  0  0  0  0  0  0  0  0  0  0
  186.3020  176.7300  147.7670 N   0  0  0  0  0  0  0  0  0  0  0  0
  191.6260  176.8530  144.0290 C   0  0  0  0  0  2  0  0  0  0  0  0
  185.8450  178.4000  144.7950 C   0  0  0  0  0  3  0  0  0  0  0  0
  190.9660  177.4130  142.7660 C   0  0  0  0  0  2  0  0  0  0  0  0
  189.7140  175.9590  145.4320 C   0  0  0  0  0  0  0  0  0  0  0  0
  188.9370  178.0910  141.6820 C   0  0  0  0  0  2  0  0  0  0  0  0
  186.4490  178.1110  141.3970 C   0  0  0  0  0  1  0  0  0  0  0  0
  187.7320  177.3730  141.0620 C   0  0  2  0  0  3  0  0  0  0  0  0
  187.6590  175.9710  141.5650 C   0  0  0  0  0  0  0  0  0  0  0  0
  188.3940  175.0870  141.0560 O   0  0  0  0  0  0  0  0  0  0  0  0
  186.7860  175.6350  142.5930 O   0  0  0  0  0  1  0  0  0  0  0  0
  1  4  1  0  0  0  0
  1 14  1  0  0  0  0
  2 19  1  0  0  0  0
  2  1  2  0  0  0  0
  4 17  1  6  0  0  0
  4  8  1  0  0  0  0
  5 12  1  0  0  0  0
  6  9  2  0  0  0  0
  7  3  1  0  0  0  0
  8  9  1  0  0  0  0
  8 15  2  0  0  0  0
 10 11  1  1  0  0  0
 10 19  1  0  0  0  0
 12  2  1  0  0  0  0
 13  6  1  0  0  0  0
 14  3  2  0  0  0  0
 14 15  1  0  0  0  0
 16 10  1  0  0  0  0
 17 13  2  0  0  0  0
 18  5  1  0  0  0  0
 18 16  1  0  0  0  0
 19  7  2  0  0  0  0
 20  5  1  0  0  0  0
 22 21  1  1  0  0  0
 22 23  1  0  0  0  0
 22 20  1  0  0  0  0
 23 25  1  0  0  0  0
 24 23  2  0  0  0  0
M  END
>  <MODEL>
2

>  <REMARK>
 VINA RESULT:      -7.6      1.897      4.568
  Name = 
  3 active torsions:
  status: ('A' for Active; 'I' for Inactive)
    1  A    between atoms: C_2  and  C_25
    2  A    between atoms: N_6  and  C_15
    3  A    between atoms: C_15  and  C_25
                            x       y       z     vdW  Elec       q    Type
                         _______ _______ _______ _____ _____    ______ ____

>  <TORSDO>
F 3

$$$$
=
 OpenBabel11052417373D

 25 28  0  0  1  0  0  0  0  0999 V2000
  185.8440  177.2560  143.8430 C   0  0  0  0  0  0  0  0  0  0  0  0
  186.7290  176.6750  142.9270 C   0  0  0  0  0  0  0  0  0  0  0  0
  184.6830  178.4700  142.1140 C   0  0  0  0  0  3  0  0  0  0  0  0
  185.6940  177.0380  145.3080 C   0  0  2  0  0  3  0  0  0  0  0  0
  189.0290  175.8830  142.7790 N   0  0  0  0  0  0  0  0  0  0  0  0
  185.4000  178.4860  147.7810 C   0  0  0  0  0  3  0  0  0  0  0  0
  185.5600  177.9170  141.1700 C   0  0  0  0  0  3  0  0  0  0  0  0
  184.5630  177.9920  145.5880 C   0  0  0  0  0  0  0  0  0  0  0  0
  184.3500  178.4900  146.9490 C   0  0  0  0  0  3  0  0  0  0  0  0
  187.5260  176.5090  140.4670 C   0  0  2  0  0  3  0  0  0  0  0  0
  186.9500  176.6190  139.1990 O   0  0  0  0  0  1  0  0  0  0  0  0
  187.7390  175.6850  143.4350 C   0  0  0  0  0  2  0  0  0  0  0  0
  186.7410  178.0400  147.3140 C   0  0  0  0  0  3  0  0  0  0  0  0
  184.8400  178.1030  143.4440 C   0  0  0  0  0  0  0  0  0  0  0  0
  184.0800  178.5830  144.5400 N   0  0  0  0  0  0  0  0  0  0  0  0
  187.9610  175.0660  140.6810 C   0  0  0  0  0  2  0  0  0  0  0  0
  186.8980  177.4200  146.1320 C   0  0  0  0  0  3  0  0  0  0  0  0
  189.1550  174.9750  141.6340 C   0  0  0  0  0  2  0  0  0  0  0  0
  186.5720  177.0010  141.5440 C   0  0  0  0  0  0  0  0  0  0  0  0
  190.1200  175.6380  143.7270 C   0  0  0  0  0  2  0  0  0  0  0  0
  190.6790  176.7850  145.8820 C   0  0  0  0  0  1  0  0  0  0  0  0
  189.7210  175.8280  145.1950 C   0  0  2  0  0  3  0  0  0  0  0  0
  189.7250  174.5130  145.9000 C   0  0  0  0  0  0  0  0  0  0  0  0
  190.1520  173.4900  145.3070 O   0  0  0  0  0  0  0  0  0  0  0  0
  189.2620  174.4100  147.2060 O   0  0  0  0  0  1  0  0  0  0  0  0
  1  4  1  0  0  0  0
  2 12  1  0  0  0  0
  2  1  2  0  0  0  0
  3 14  2  0  0  0  0
  4  8  1  0  0  0  0
  4 17  1  1  0  0  0
  5 12  1  0  0  0  0
  5 20  1  0  0  0  0
  7 19  2  0  0  0  0
  7  3  1  0  0  0  0
  8  9  1  0  0  0  0
  9  6  2  0  0  0  0
 10 11  1  6  0  0  0
 10 16  1  0  0  0  0
 10 19  1  0  0  0  0
 13  6  1  0  0  0  0
 14  1  1  0  0  0  0
 14 15  1  0  0  0  0
 15  8  2  0  0  0  0
 16 18  1  0  0  0  0
 17 13  2  0  0  0  0
 18  5  1  0  0  0  0
 19  2  1  0  0  0  0
 20 22  1  0  0  0  0
 22 21  1  1  0  0  0
 22 23  1  0  0  0  0
 23 25  1  0  0  0  0
 24 23  2  0  0  0  0
M  END
>  <MODEL>
3

>  <REMARK>
 VINA RESULT:      -7.6      1.239      1.477
  Name = 
  3 active torsions:
  status: ('A' for Active; 'I' for Inactive)
    1  A    between atoms: C_2  and  C_25
    2  A    between atoms: N_6  and  C_15
    3  A    between atoms: C_15  and  C_25
                            x       y       z     vdW  Elec       q    Type
                         _______ _______ _______ _____ _____    ______ ____

>  <TORSDO>
F 3

$$$$
=
 OpenBabel11052417373D

 25 28  0  0  1  0  0  0  0  0999 V2000
  186.1530  176.9090  143.8100 C   0  0  0  0  0  0  0  0  0  0  0  0
  187.0930  176.1060  143.1560 C   0  0  0  0  0  0  0  0  0  0  0  0
  185.4350  177.9350  141.7500 C   0  0  0  0  0  3  0  0  0  0  0  0
  185.7490  176.9450  145.2430 C   0  0  2  0  0  3  0  0  0  0  0  0
  189.2740  175.0820  143.5250 N   0  0  0  0  0  0  0  0  0  0  0  0
  185.2480  178.7940  147.3940 C   0  0  0  0  0  3  0  0  0  0  0  0
  186.3750  177.1550  141.0620 C   0  0  0  0  0  3  0  0  0  0  0  0
  184.7120  178.0360  145.1820 C   0  0  0  0  0  0  0  0  0  0  0  0
  184.3490  178.7650  146.4000 C   0  0  0  0  0  3  0  0  0  0  0  0
  188.2410  175.4690  140.9210 C   0  0  2  0  0  3  0  0  0  0  0  0
  187.8900  175.4290  139.5700 O   0  0  0  0  0  1  0  0  0  0  0  0
  187.8830  175.1180  143.9680 C   0  0  0  0  0  2  0  0  0  0  0  0
  186.5800  178.1520  147.2370 C   0  0  0  0  0  3  0  0  0  0  0  0
  185.3350  177.7730  143.1260 C   0  0  0  0  0  0  0  0  0  0  0  0
  184.4760  178.4940  143.9930 N   0  0  0  0  0  0  0  0  0  0  0  0
  188.4590  174.0440  141.4110 C   0  0  0  0  0  2  0  0  0  0  0  0
  186.8450  177.3370  146.2010 C   0  0  0  0  0  3  0  0  0  0  0  0
  189.4680  173.9940  142.5610 C   0  0  0  0  0  2  0  0  0  0  0  0
  187.1970  176.2180  141.7340 C   0  0  0  0  0  0  0  0  0  0  0  0
  190.1650  174.8890  144.6740 C   0  0  0  0  0  2  0  0  0  0  0  0
  190.9400  176.9870  145.8010 C   0  0  0  0  0  1  0  0  0  0  0  0
  189.9130  175.8700  145.8260 C   0  0  2  0  0  3  0  0  0  0  0  0
  189.9750  175.1520  147.1310 C   0  0  0  0  0  0  0  0  0  0  0  0
  191.0570  175.1190  147.7730 O   0  0  0  0  0  1  0  0  0  0  0  0
  188.8490  174.5200  147.6450 O   0  0  0  0  0  0  0  0  0  0  0  0
  1  4  1  0  0  0  0
  2  1  1  0  0  0  0
  2 12  1  0  0  0  0
  3 14  1  0  0  0  0
  4 17  1  1  0  0  0
  5 12  1  0  0  0  0
  5 20  1  0  0  0  0
  7 19  1  0  0  0  0
  7  3  2  0  0  0  0
  8  4  1  0  0  0  0
  8  9  1  0  0  0  0
  9  6  2  0  0  0  0
 10 11  1  6  0  0  0
 10 16  1  0  0  0  0
 10 19  1  0  0  0  0
 13  6  1  0  0  0  0
 14  1  2  0  0  0  0
 14 15  1  0  0  0  0
 15  8  2  0  0  0  0
 16 18  1  0  0  0  0
 17 13  2  0  0  0  0
 18  5  1  0  0  0  0
 19  2  2  0  0  0  0
 20 22  1  0  0  0  0
 22 21  1  1  0  0  0
 22 23  1  0  0  0  0
 23 25  2  0  0  0  0
 23 24  1  0  0  0  0
M  END
>  <MODEL>
4

>  <REMARK>
 VINA RESULT:      -7.2      1.301      1.655
  Name = 
  3 active torsions:
  status: ('A' for Active; 'I' for Inactive)
    1  A    between atoms: C_2  and  C_25
    2  A    between atoms: N_6  and  C_15
    3  A    between atoms: C_15  and  C_25
                            x       y       z     vdW  Elec       q    Type
                         _______ _______ _______ _____ _____    ______ ____

>  <TORSDO>
F 3

$$$$
=
 OpenBabel11052417373D

 25 28  0  0  1  0  0  0  0  0999 V2000
  186.9720  177.2930  144.9300 C   0  0  0  0  0  0  0  0  0  0  0  0
  188.1930  176.6100  144.9280 C   0  0  0  0  0  0  0  0  0  0  0  0
  186.5620  176.7720  147.2480 C   0  0  0  0  0  3  0  0  0  0  0  0
  186.3220  178.1060  143.8650 C   0  0  2  0  0  3  0  0  0  0  0  0
  189.6250  175.3210  143.4350 N   0  0  0  0  0  0  0  0  0  0  0  0
  183.7810  178.4920  142.5640 C   0  0  0  0  0  3  0  0  0  0  0  0
  187.7740  176.0680  147.2790 C   0  0  0  0  0  3  0  0  0  0  0  0
  185.0640  178.5070  144.5910 C   0  0  0  0  0  0  0  0  0  0  0  0
  183.8850  178.9240  143.8280 C   0  0  0  0  0  3  0  0  0  0  0  0
  189.8770  175.1460  146.2460 C   0  0  2  0  0  3  0  0  0  0  0  0
  190.2780  174.9990  147.5750 O   0  0  0  0  0  1  0  0  0  0  0  0
  189.0250  176.6300  143.6760 C   0  0  0  0  0  2  0  0  0  0  0  0
  184.8040  177.5810  141.9830 C   0  0  0  0  0  3  0  0  0  0  0  0
  186.1980  177.3910  146.0590 C   0  0  0  0  0  0  0  0  0  0  0  0
  185.0000  178.1110  145.8240 N   0  0  0  0  0  0  0  0  0  0  0  0
  191.0390  175.7210  145.4470 C   0  0  0  0  0  2  0  0  0  0  0  0
  185.9660  177.3440  142.6130 C   0  0  0  0  0  3  0  0  0  0  0  0
  190.9850  175.2820  143.9820 C   0  0  0  0  0  2  0  0  0  0  0  0
  188.6180  175.9920  146.1450 C   0  0  0  0  0  0  0  0  0  0  0  0
  189.6620  175.0400  141.9960 C   0  0  0  0  0  2  0  0  0  0  0  0
  189.8020  173.3500  140.1530 C   0  0  0  0  0  1  0  0  0  0  0  0
  189.8380  173.5550  141.6570 C   0  0  2  0  0  3  0  0  0  0  0  0
  188.7600  172.7530  142.3050 C   0  0  0  0  0  0  0  0  0  0  0  0
  187.5840  172.8180  141.8640 O   0  0  0  0  0  0  0  0  0  0  0  0
  189.0460  171.9320  143.3900 O   0  0  0  0  0  1  0  0  0  0  0  0
  1 14  1  0  0  0  0
  2  1  2  0  0  0  0
  2 19  1  0  0  0  0
  3  7  1  0  0  0  0
  4 17  1  6  0  0  0
  4  8  1  0  0  0  0
  4  1  1  0  0  0  0
  5 12  1  0  0  0  0
  5 18  1  0  0  0  0
  6  9  2  0  0  0  0
  8 15  2  0  0  0  0
  9  8  1  0  0  0  0
 10 11  1  1  0  0  0
 12  2  1  0  0  0  0
 13  6  1  0  0  0  0
 13 17  2  0  0  0  0
 14  3  2  0  0  0  0
 15 14  1  0  0  0  0
 16 10  1  0  0  0  0
 18 16  1  0  0  0  0
 19 10  1  0  0  0  0
 19  7  2  0  0  0  0
 20  5  1  0  0  0  0
 22 21  1  6  0  0  0
 22 20  1  0  0  0  0
 22 23  1  0  0  0  0
 23 25  1  0  0  0  0
 24 23  2  0  0  0  0
M  END
>  <MODEL>
5

>  <REMARK>
 VINA RESULT:      -7.1      2.122      4.790
  Name = 
  3 active torsions:
  status: ('A' for Active; 'I' for Inactive)
    1  A    between atoms: C_2  and  C_25
    2  A    between atoms: N_6  and  C_15
    3  A    between atoms: C_15  and  C_25
                            x       y       z     vdW  Elec       q    Type
                         _______ _______ _______ _____ _____    ______ ____

>  <TORSDO>
F 3

$$$$
=
 OpenBabel11052417373D

 25 28  0  0  1  0  0  0  0  0999 V2000
  186.4460  178.0310  143.5170 C   0  0  0  0  0  0  0  0  0  0  0  0
  187.1280  177.8160  144.7200 C   0  0  0  0  0  0  0  0  0  0  0  0
  184.3390  178.3500  144.6450 C   0  0  0  0  0  3  0  0  0  0  0  0
  186.9590  178.1220  142.1220 C   0  0  2  0  0  3  0  0  0  0  0  0
  189.0180  176.5610  145.6120 N   0  0  0  0  0  0  0  0  0  0  0  0
  186.4210  177.1660  139.4590 C   0  0  0  0  0  3  0  0  0  0  0  0
  184.9880  178.1270  145.8680 C   0  0  0  0  0  3  0  0  0  0  0  0
  185.6620  178.3620  141.3950 C   0  0  0  0  0  0  0  0  0  0  0  0
  185.5630  178.0630  139.9640 C   0  0  0  0  0  3  0  0  0  0  0  0
  186.9870  177.5770  147.2970 C   0  0  2  0  0  3  0  0  0  0  0  0
  186.1950  178.0900  148.3260 O   0  0  0  0  0  1  0  0  0  0  0  0
  188.6160  177.6050  144.6730 C   0  0  0  0  0  2  0  0  0  0  0  0
  187.3980  176.4660  140.3370 C   0  0  0  0  0  3  0  0  0  0  0  0
  185.1030  178.3140  143.4860 C   0  0  0  0  0  0  0  0  0  0  0  0
  184.6230  178.4760  142.1620 N   0  0  0  0  0  0  0  0  0  0  0  0
  188.3990  178.1270  147.4480 C   0  0  0  0  0  2  0  0  0  0  0  0
  187.6100  176.8650  141.6020 C   0  0  0  0  0  3  0  0  0  0  0  0
  189.4420  177.1600  146.8810 C   0  0  0  0  0  2  0  0  0  0  0  0
  186.3800  177.8830  145.9360 C   0  0  0  0  0  0  0  0  0  0  0  0
  190.1170  175.7710  145.0460 C   0  0  0  0  0  2  0  0  0  0  0  0
  189.8500  173.3580  144.4320 C   0  0  0  0  0  1  0  0  0  0  0  0
  189.6770  174.7880  143.9540 C   0  0  2  0  0  3  0  0  0  0  0  0
  190.4770  175.0100  142.7160 C   0  0  0  0  0  0  0  0  0  0  0  0
  190.2800  174.2830  141.7080 O   0  0  0  0  0  0  0  0  0  0  0  0
  191.4370  176.0140  142.6640 O   0  0  0  0  0  1  0  0  0  0  0  0
  1  2  1  0  0  0  0
  2 19  2  0  0  0  0
  3  7  2  0  0  0  0
  4 17  1  6  0  0  0
  4  1  1  0  0  0  0
  5 18  1  0  0  0  0
  6  9  2  0  0  0  0
  6 13  1  0  0  0  0
  7 19  1  0  0  0  0
  8  4  1  0  0  0  0
  8 15  2  0  0  0  0
  9  8  1  0  0  0  0
 10 16  1  0  0  0  0
 10 11  1  1  0  0  0
 12  2  1  0  0  0  0
 12  5  1  0  0  0  0
 13 17  2  0  0  0  0
 14  1  2  0  0  0  0
 14  3  1  0  0  0  0
 15 14  1  0  0  0  0
 18 16  1  0  0  0  0
 19 10  1  0  0  0  0
 20  5  1  0  0  0  0
 22 21  1  1  0  0  0
 22 20  1  0  0  0  0
 23 22  1  0  0  0  0
 24 23  2  0  0  0  0
 25 23  1  0  0  0  0
M  END
>  <MODEL>
6

>  <REMARK>
 VINA RESULT:      -7.0      2.180      4.931
  Name = 
  3 active torsions:
  status: ('A' for Active; 'I' for Inactive)
    1  A    between atoms: C_2  and  C_25
    2  A    between atoms: N_6  and  C_15
    3  A    between atoms: C_15  and  C_25
                            x       y       z     vdW  Elec       q    Type
                         _______ _______ _______ _____ _____    ______ ____

>  <TORSDO>
F 3

$$$$
=
 OpenBabel11052417373D

 25 28  0  0  1  0  0  0  0  0999 V2000
  186.8350  177.4750  144.9980 C   0  0  0  0  0  0  0  0  0  0  0  0
  188.0890  176.8530  144.9980 C   0  0  0  0  0  0  0  0  0  0  0  0
  186.3740  176.7910  147.2630 C   0  0  0  0  0  3  0  0  0  0  0  0
  186.1810  178.3210  143.9620 C   0  0  2  0  0  3  0  0  0  0  0  0
  189.6320  175.7300  143.4830 N   0  0  0  0  0  0  0  0  0  0  0  0
  183.6690  178.6660  142.5950 C   0  0  0  0  0  3  0  0  0  0  0  0
  187.6190  176.1450  147.2950 C   0  0  0  0  0  3  0  0  0  0  0  0
  184.8810  178.6150  144.6640 C   0  0  0  0  0  0  0  0  0  0  0  0
  183.7090  179.0220  143.8860 C   0  0  0  0  0  3  0  0  0  0  0  0
  189.7990  175.3920  146.2850 C   0  0  2  0  0  3  0  0  0  0  0  0
  190.1620  175.1820  147.6170 O   0  0  0  0  0  1  0  0  0  0  0  0
  188.9590  176.9920  143.7810 C   0  0  0  0  0  2  0  0  0  0  0  0
  184.7550  177.8430  141.9970 C   0  0  0  0  0  3  0  0  0  0  0  0
  186.0200  177.4650  146.1020 C   0  0  0  0  0  0  0  0  0  0  0  0
  184.7960  178.1400  145.8670 N   0  0  0  0  0  0  0  0  0  0  0  0
  190.9570  176.0710  145.5650 C   0  0  0  0  0  2  0  0  0  0  0  0
  185.9060  177.6230  142.6540 C   0  0  0  0  0  3  0  0  0  0  0  0
  190.9740  175.7220  144.0750 C   0  0  0  0  0  2  0  0  0  0  0  0
  188.5030  176.1810  146.1900 C   0  0  0  0  0  0  0  0  0  0  0  0
  189.7310  175.5430  142.0310 C   0  0  0  0  0  2  0  0  0  0  0  0
  187.8170  173.9670  142.3860 C   0  0  0  0  0  1  0  0  0  0  0  0
  188.4860  174.9090  141.4010 C   0  0  2  0  0  3  0  0  0  0  0  0
  188.8610  174.1660  140.1640 C   0  0  0  0  0  0  0  0  0  0  0  0
  189.7910  173.3200  140.2030 O   0  0  0  0  0  1  0  0  0  0  0  0
  188.1910  174.3980  138.9680 O   0  0  0  0  0  0  0  0  0  0  0  0
  1 14  1  0  0  0  0
  2  1  2  0  0  0  0
  2 19  1  0  0  0  0
  3  7  1  0  0  0  0
  4 17  1  6  0  0  0
  4  8  1  0  0  0  0
  4  1  1  0  0  0  0
  5 12  1  0  0  0  0
  5 18  1  0  0  0  0
  6  9  2  0  0  0  0
  8 15  2  0  0  0  0
  9  8  1  0  0  0  0
 10 11  1  1  0  0  0
 12  2  1  0  0  0  0
 13  6  1  0  0  0  0
 13 17  2  0  0  0  0
 14  3  2  0  0  0  0
 15 14  1  0  0  0  0
 16 10  1  0  0  0  0
 18 16  1  0  0  0  0
 19 10  1  0  0  0  0
 19  7  2  0  0  0  0
 20  5  1  0  0  0  0
 22 20  1  0  0  0  0
 22 21  1  1  0  0  0
 23 24  1  0  0  0  0
 23 22  1  0  0  0  0
 25 23  2  0  0  0  0
M  END
>  <MODEL>
7

>  <REMARK>
 VINA RESULT:      -7.0      1.711      4.869
  Name = 
  3 active torsions:
  status: ('A' for Active; 'I' for Inactive)
    1  A    between atoms: C_2  and  C_25
    2  A    between atoms: N_6  and  C_15
    3  A    between atoms: C_15  and  C_25
                            x       y       z     vdW  Elec       q    Type
                         _______ _______ _______ _____ _____    ______ ____

>  <TORSDO>
F 3

$$$$
=
 OpenBabel11052417373D

 25 28  0  0  1  0  0  0  0  0999 V2000
  186.7020  176.6210  144.4100 C   0  0  0  0  0  0  0  0  0  0  0  0
  187.7920  175.9000  143.9110 C   0  0  0  0  0  0  0  0  0  0  0  0
  185.9280  177.1900  142.1990 C   0  0  0  0  0  3  0  0  0  0  0  0
  186.2270  176.8030  145.8100 C   0  0  2  0  0  3  0  0  0  0  0  0
  190.0900  175.3270  144.4860 N   0  0  0  0  0  0  0  0  0  0  0  0
  185.3260  178.8430  147.6330 C   0  0  0  0  0  3  0  0  0  0  0  0
  187.0160  176.4860  141.6630 C   0  0  0  0  0  3  0  0  0  0  0  0
  185.0310  177.6810  145.5550 C   0  0  0  0  0  0  0  0  0  0  0  0
  184.4940  178.5130  146.6360 C   0  0  0  0  0  3  0  0  0  0  0  0
  189.1370  175.1380  141.8300 C   0  0  2  0  0  3  0  0  0  0  0  0
  188.8640  174.8370  140.4950 O   0  0  0  0  0  1  0  0  0  0  0  0
  188.6920  175.1930  144.8860 C   0  0  0  0  0  2  0  0  0  0  0  0
  186.7520  178.4190  147.6100 C   0  0  0  0  0  3  0  0  0  0  0  0
  185.7890  177.2220  143.5800 C   0  0  0  0  0  0  0  0  0  0  0  0
  184.7820  177.9090  144.3030 N   0  0  0  0  0  0  0  0  0  0  0  0
  189.5600  173.8600  142.5420 C   0  0  0  0  0  2  0  0  0  0  0  0
  187.1960  177.5140  146.7200 C   0  0  0  0  0  3  0  0  0  0  0  0
  190.5060  174.1540  143.7090 C   0  0  0  0  0  2  0  0  0  0  0  0
  187.9460  175.8130  142.4920 C   0  0  0  0  0  0  0  0  0  0  0  0
  190.9430  175.4620  145.6720 C   0  0  0  0  0  2  0  0  0  0  0  0
  191.5980  177.5150  144.3960 C   0  0  0  0  0  1  0  0  0  0  0  0
  191.8870  176.6690  145.6230 C   0  0  2  0  0  3  0  0  0  0  0  0
  193.3050  176.2080  145.6000 C   0  0  0  0  0  0  0  0  0  0  0  0
  193.7870  175.6250  146.6040 O   0  0  0  0  0  1  0  0  0  0  0  0
  194.0970  176.4170  144.4770 O   0  0  0  0  0  0  0  0  0  0  0  0
  1  4  1  0  0  0  0
  2  1  1  0  0  0  0
  2 12  1  0  0  0  0
  3 14  1  0  0  0  0
  4 17  1  1  0  0  0
  5 12  1  0  0  0  0
  5 20  1  0  0  0  0
  7  3  2  0  0  0  0
  7 19  1  0  0  0  0
  8  4  1  0  0  0  0
  8  9  1  0  0  0  0
  9  6  2  0  0  0  0
 10 11  1  6  0  0  0
 10 19  1  0  0  0  0
 10 16  1  0  0  0  0
 13  6  1  0  0  0  0
 14 15  1  0  0  0  0
 14  1  2  0  0  0  0
 15  8  2  0  0  0  0
 16 18  1  0  0  0  0
 17 13  2  0  0  0  0
 18  5  1  0  0  0  0
 19  2  2  0  0  0  0
 22 21  1  6  0  0  0
 22 20  1  0  0  0  0
 23 22  1  0  0  0  0
 23 24  1  0  0  0  0
 25 23  2  0  0  0  0
M  END
>  <MODEL>
8

>  <REMARK>
 VINA RESULT:      -7.0      1.281      1.723
  Name = 
  3 active torsions:
  status: ('A' for Active; 'I' for Inactive)
    1  A    between atoms: C_2  and  C_25
    2  A    between atoms: N_6  and  C_15
    3  A    between atoms: C_15  and  C_25
                            x       y       z     vdW  Elec       q    Type
                         _______ _______ _______ _____ _____    ______ ____

>  <TORSDO>
F 3

$$$$
=
 OpenBabel11052417373D

 25 28  0  0  1  0  0  0  0  0999 V2000
  187.9270  177.3080  144.3900 C   0  0  0  0  0  0  0  0  0  0  0  0
  189.1530  176.7390  144.7500 C   0  0  0  0  0  0  0  0  0  0  0  0
  186.9130  176.7230  146.4980 C   0  0  0  0  0  3  0  0  0  0  0  0
  187.5410  178.0710  143.1710 C   0  0  2  0  0  3  0  0  0  0  0  0
  191.0650  175.6030  143.7530 N   0  0  0  0  0  0  0  0  0  0  0  0
  185.4610  178.2420  141.1860 C   0  0  0  0  0  3  0  0  0  0  0  0
  188.1230  176.1320  146.8880 C   0  0  0  0  0  3  0  0  0  0  0  0
  186.0970  178.3480  143.4970 C   0  0  0  0  0  0  0  0  0  0  0  0
  185.1560  178.6660  142.4200 C   0  0  0  0  0  3  0  0  0  0  0  0
  190.5100  175.4170  146.5200 C   0  0  2  0  0  3  0  0  0  0  0  0
  190.5210  175.2910  147.9100 O   0  0  0  0  0  1  0  0  0  0  0  0
  190.3060  176.8490  143.7920 C   0  0  0  0  0  2  0  0  0  0  0  0
  186.6860  177.4340  140.9380 C   0  0  0  0  0  3  0  0  0  0  0  0
  186.8540  177.3210  145.2460 C   0  0  0  0  0  0  0  0  0  0  0  0
  185.7150  177.9330  144.6640 N   0  0  0  0  0  0  0  0  0  0  0  0
  191.7960  176.1040  146.0820 C   0  0  0  0  0  2  0  0  0  0  0  0
  187.6330  177.2960  141.8810 C   0  0  0  0  0  3  0  0  0  0  0  0
  192.2070  175.6800  144.6700 C   0  0  0  0  0  2  0  0  0  0  0  0
  189.2620  176.1460  146.0470 C   0  0  0  0  0  0  0  0  0  0  0  0
  191.5420  175.3440  142.3900 C   0  0  0  0  0  2  0  0  0  0  0  0
  191.8250  173.7170  140.5080 C   0  0  0  0  0  1  0  0  0  0  0  0
  191.1630  173.9600  141.8520 C   0  0  2  0  0  3  0  0  0  0  0  0
  189.6820  173.8530  141.7150 C   0  0  0  0  0  0  0  0  0  0  0  0
  189.1140  174.3260  140.6970 O   0  0  0  0  0  0  0  0  0  0  0  0
  188.9240  173.2340  142.7020 O   0  0  0  0  0  1  0  0  0  0  0  0
  1  2  2  0  0  0  0
  1 14  1  0  0  0  0
  2 19  1  0  0  0  0
  3  7  1  0  0  0  0
  4 17  1  6  0  0  0
  4  8  1  0  0  0  0
  4  1  1  0  0  0  0
  5 12  1  0  0  0  0
  5 18  1  0  0  0  0
  6  9  2  0  0  0  0
  8 15  2  0  0  0  0
  9  8  1  0  0  0  0
 10 11  1  1  0  0  0
 12  2  1  0  0  0  0
 13  6  1  0  0  0  0
 13 17  2  0  0  0  0
 14  3  2  0  0  0  0
 15 14  1  0  0  0  0
 16 10  1  0  0  0  0
 18 16  1  0  0  0  0
 19 10  1  0  0  0  0
 19  7  2  0  0  0  0
 20  5  1  0  0  0  0
 22 21  1  6  0  0  0
 22 20  1  0  0  0  0
 23 22  1  0  0  0  0
 23 25  1  0  0  0  0
 24 23  2  0  0  0  0
M  END
>  <MODEL>
9

>  <REMARK>
 VINA RESULT:      -6.7      1.989      5.027
  Name = 
  3 active torsions:
  status: ('A' for Active; 'I' for Inactive)
    1  A    between atoms: C_2  and  C_25
    2  A    between atoms: N_6  and  C_15
    3  A    between atoms: C_15  and  C_25
                            x       y       z     vdW  Elec       q    Type
                         _______ _______ _______ _____ _____    ______ ____

>  <TORSDO>
F 3

$$$$
