=
 OpenBabel11052420043D

 37 40  0  0  1  0  0  0  0  0999 V2000
  188.7490  175.6520  144.9110 C   0  0  0  0  0  2  0  0  0  0  0  0
  189.0330  174.9230  141.6990 C   0  0  0  0  0  0  0  0  0  0  0  0
  192.2840  175.6910  146.0570 C   0  0  0  0  0  2  0  0  0  0  0  0
  188.9560  176.3540  143.5590 C   0  0  2  0  0  3  0  0  0  0  0  0
  191.1800  176.1010  145.4360 C   0  0  1  0  0  3  0  0  0  0  0  0
  188.1730  175.6850  142.5370 N   0  0  0  0  0  0  0  0  0  0  0  0
  189.6800  174.9240  147.0520 C   0  0  0  0  0  1  0  0  0  0  0  0
  191.4790  176.5960  144.0620 C   0  0  2  0  0  0  0  0  0  0  0  0
  192.8820  176.0800  143.7810 C   0  0  0  0  0  2  0  0  0  0  0  0
  189.7680  176.0260  146.0070 C   0  0  2  0  0  0  0  0  0  0  0  0
  191.5390  178.1160  144.0590 C   0  0  0  0  0  1  0  0  0  0  0  0
  188.6370  174.3490  140.6500 O   0  0  0  0  0  0  0  0  0  0  0  0
  190.3970  176.1510  143.0720 C   0  0  1  0  0  3  0  0  0  0  0  0
  193.4760  175.7960  145.1620 C   0  0  1  0  0  3  0  0  0  0  0  0
  190.4360  174.8740  142.1980 C   0  0  1  0  0  3  0  0  0  0  0  0
  194.2620  176.8770  145.5630 O   0  0  0  0  0  0  0  0  0  0  0  0
  194.1910  176.8700  146.8780 O   0  0  0  0  0  1  0  0  0  0  0  0
  188.1210  177.6680  146.9360 C   0  0  0  0  0  2  0  0  0  0  0  0
  189.3830  177.3100  146.6930 C   0  0  0  0  0  3  0  0  0  0  0  0
  190.5980  173.5530  142.9880 C   0  0  2  0  0  3  0  0  0  0  0  0
  191.9390  173.1880  143.1370 O   0  0  0  0  0  0  0  0  0  0  0  0
  193.4300  172.0920  144.6320 C   0  0  0  0  0  1  0  0  0  0  0  0
  192.0100  172.5500  144.3790 C   0  0  0  0  0  2  0  0  0  0  0  0
  189.8130  172.4010  142.3380 C   0  0  0  0  0  2  0  0  0  0  0  0
  190.7150  171.4210  141.5960 C   0  0  1  0  0  3  0  0  0  0  0  0
  190.4410  170.1180  142.0130 O   0  0  0  0  0  1  0  0  0  0  0  0
  191.2090  172.3600  139.3850 C   0  0  0  0  0  2  0  0  0  0  0  0
  190.4670  171.5440  140.1300 C   0  0  0  0  0  3  0  0  0  0  0  0
  186.7270  175.8120  142.3900 C   0  0  0  0  0  2  0  0  0  0  0  0
  186.3170  177.2650  142.1540 C   0  0  0  0  0  2  0  0  0  0  0  0
  185.6940  179.2810  143.5130 C   0  0  0  0  0  3  0  0  0  0  0  0
  185.7550  177.8880  143.3880 C   0  0  0  0  0  0  0  0  0  0  0  0
  185.3320  177.0740  144.4450 C   0  0  0  0  0  3  0  0  0  0  0  0
  184.4410  176.8590  146.6440 F   0  0  0  0  0  0  0  0  0  0  0  0
  184.7820  179.0410  145.7440 C   0  0  0  0  0  3  0  0  0  0  0  0
  184.8450  177.6490  145.6220 C   0  0  0  0  0  0  0  0  0  0  0  0
  185.2050  179.8560  144.6900 C   0  0  0  0  0  3  0  0  0  0  0  0
  1 10  1  0  0  0  0
  2 15  1  0  0  0  0
  2  6  1  0  0  0  0
  4  1  1  1  0  0  0
  5 10  1  0  0  0  0
  5  3  1  6  0  0  0
  6  4  1  0  0  0  0
  8 11  1  1  0  0  0
  8  5  1  0  0  0  0
  9  8  1  0  0  0  0
  9 14  1  0  0  0  0
 10 19  1  0  0  0  0
 10  7  1  1  0  0  0
 12  2  2  0  0  0  0
 13  4  1  0  0  0  0
 13  8  1  0  0  0  0
 14 16  1  0  0  0  0
 14  3  1  0  0  0  0
 15 20  1  0  0  0  0
 15 13  1  0  0  0  0
 16 17  1  0  0  0  0
 19 18  2  0  0  0  0
 20 21  1  0  0  0  0
 21 23  1  0  0  0  0
 23 22  1  0  0  0  0
 24 20  1  0  0  0  0
 25 26  1  0  0  0  0
 25 24  1  0  0  0  0
 27 28  2  0  0  0  0
 28 25  1  0  0  0  0
 29  6  1  0  0  0  0
 30 29  1  0  0  0  0
 30 32  1  0  0  0  0
 31 37  1  0  0  0  0
 32 31  2  0  0  0  0
 32 33  1  0  0  0  0
 33 36  2  0  0  0  0
 36 35  1  0  0  0  0
 36 34  1  0  0  0  0
 37 35  2  0  0  0  0
M  END
>  <MODEL>
1

>  <REMARK>
 VINA RESULT:      -7.3      0.000      0.000
  Name = 
  11 active torsions:
  status: ('A' for Active; 'I' for Inactive)
    1  A    between atoms: C_1  and  O_5
    2  A    between atoms: C_1  and  C_33
    3  A    between atoms: C_1  and  C_36
    4  A    between atoms: O_3  and  C_32
    5  A    between atoms: O_5  and  C_23
    6  A    between atoms: C_6  and  C_31
    7  A    between atoms: N_14  and  C_37
    8  A    between atoms: C_17  and  C_33
    9  A    between atoms: C_17  and  C_34
   10  A    between atoms: C_24  and  C_28
   11  A    between atoms: C_31  and  C_37
                            x       y       z     vdW  Elec       q    Type
                         _______ _______ _______ _____ _____    ______ ____

>  <TORSDO>
F 11

$$$$
=
 OpenBabel11052420043D

 37 40  0  0  1  0  0  0  0  0999 V2000
  188.5290  176.0240  144.9350 C   0  0  0  0  0  2  0  0  0  0  0  0
  188.3610  175.9310  141.6340 C   0  0  0  0  0  0  0  0  0  0  0  0
  192.1890  175.9290  145.5720 C   0  0  0  0  0  2  0  0  0  0  0  0
  188.5470  176.9770  143.7280 C   0  0  2  0  0  3  0  0  0  0  0  0
  191.0100  176.4230  145.1980 C   0  0  1  0  0  3  0  0  0  0  0  0
  187.6290  176.4980  142.7130 N   0  0  0  0  0  0  0  0  0  0  0  0
  189.7470  174.9230  146.7460 C   0  0  0  0  0  1  0  0  0  0  0  0
  191.1160  177.1790  143.9180 C   0  0  2  0  0  0  0  0  0  0  0  0
  192.4660  176.7610  143.3530 C   0  0  0  0  0  2  0  0  0  0  0  0
  189.6910  176.2060  145.9320 C   0  0  2  0  0  0  0  0  0  0  0  0
  191.1800  178.6720  144.2000 C   0  0  0  0  0  1  0  0  0  0  0  0
  187.8220  175.5590  140.5590 O   0  0  0  0  0  0  0  0  0  0  0  0
  189.9060  176.9060  143.0180 C   0  0  1  0  0  3  0  0  0  0  0  0
  193.2450  176.2320  144.5590 C   0  0  1  0  0  3  0  0  0  0  0  0
  189.8200  175.8210  141.9180 C   0  0  1  0  0  3  0  0  0  0  0  0
  194.0820  177.2350  145.0490 O   0  0  0  0  0  0  0  0  0  0  0  0
  194.3280  176.8830  146.2940 O   0  0  0  0  0  1  0  0  0  0  0  0
  190.2500  177.6930  147.8680 C   0  0  0  0  0  2  0  0  0  0  0  0
  189.4090  177.3250  146.9000 C   0  0  0  0  0  3  0  0  0  0  0  0
  190.0870  174.3780  142.4080 C   0  0  2  0  0  3  0  0  0  0  0  0
  191.3070  173.8800  141.9420 O   0  0  0  0  0  0  0  0  0  0  0  0
  192.2070  172.8560  139.9920 C   0  0  0  0  0  1  0  0  0  0  0  0
  191.1620  173.7960  140.5540 C   0  0  0  0  0  2  0  0  0  0  0  0
  188.9480  173.4230  142.0120 C   0  0  0  0  0  2  0  0  0  0  0  0
  188.9190  172.1590  142.8640 C   0  0  1  0  0  3  0  0  0  0  0  0
  189.6930  171.1660  142.2630 O   0  0  0  0  0  1  0  0  0  0  0  0
  190.5950  171.9150  144.6370 C   0  0  0  0  0  2  0  0  0  0  0  0
  189.4610  172.4700  144.2180 C   0  0  0  0  0  3  0  0  0  0  0  0
  186.1760  176.6150  142.7930 C   0  0  0  0  0  2  0  0  0  0  0  0
  185.7580  177.9740  143.3530 C   0  0  0  0  0  2  0  0  0  0  0  0
  185.1960  176.7930  145.4960 C   0  0  0  0  0  3  0  0  0  0  0  0
  185.6430  177.9460  144.8410 C   0  0  0  0  0  0  0  0  0  0  0  0
  185.9410  179.0970  145.5810 C   0  0  0  0  0  3  0  0  0  0  0  0
  186.0780  180.2100  147.6830 F   0  0  0  0  0  0  0  0  0  0  0  0
  185.3500  177.9400  147.6230 C   0  0  0  0  0  3  0  0  0  0  0  0
  185.7950  179.0940  146.9700 C   0  0  0  0  0  0  0  0  0  0  0  0
  185.0520  176.7900  146.8870 C   0  0  0  0  0  3  0  0  0  0  0  0
  1 10  1  0  0  0  0
  2 15  1  0  0  0  0
  2  6  1  0  0  0  0
  4  1  1  1  0  0  0
  5  3  1  6  0  0  0
  5 10  1  0  0  0  0
  6 29  1  0  0  0  0
  6  4  1  0  0  0  0
  8 11  1  1  0  0  0
  8  5  1  0  0  0  0
  9  8  1  0  0  0  0
  9 14  1  0  0  0  0
 10  7  1  1  0  0  0
 10 19  1  0  0  0  0
 12  2  2  0  0  0  0
 13  4  1  0  0  0  0
 13  8  1  0  0  0  0
 14 16  1  0  0  0  0
 14  3  1  0  0  0  0
 15 20  1  0  0  0  0
 15 13  1  0  0  0  0
 16 17  1  0  0  0  0
 19 18  2  0  0  0  0
 21 20  1  0  0  0  0
 22 23  1  0  0  0  0
 23 21  1  0  0  0  0
 24 20  1  0  0  0  0
 24 25  1  0  0  0  0
 25 28  1  0  0  0  0
 26 25  1  0  0  0  0
 28 27  2  0  0  0  0
 29 30  1  0  0  0  0
 30 32  1  0  0  0  0
 31 37  1  0  0  0  0
 32 31  2  0  0  0  0
 32 33  1  0  0  0  0
 33 36  2  0  0  0  0
 36 35  1  0  0  0  0
 36 34  1  0  0  0  0
 37 35  2  0  0  0  0
M  END
>  <MODEL>
2

>  <REMARK>
 VINA RESULT:      -6.9      1.323      2.189
  Name = 
  11 active torsions:
  status: ('A' for Active; 'I' for Inactive)
    1  A    between atoms: C_1  and  O_5
    2  A    between atoms: C_1  and  C_33
    3  A    between atoms: C_1  and  C_36
    4  A    between atoms: O_3  and  C_32
    5  A    between atoms: O_5  and  C_23
    6  A    between atoms: C_6  and  C_31
    7  A    between atoms: N_14  and  C_37
    8  A    between atoms: C_17  and  C_33
    9  A    between atoms: C_17  and  C_34
   10  A    between atoms: C_24  and  C_28
   11  A    between atoms: C_31  and  C_37
                            x       y       z     vdW  Elec       q    Type
                         _______ _______ _______ _____ _____    ______ ____

>  <TORSDO>
F 11

$$$$
=
 OpenBabel11052420043D

 37 40  0  0  1  0  0  0  0  0999 V2000
  191.3080  173.9580  144.4110 C   0  0  0  0  0  2  0  0  0  0  0  0
  191.3050  177.1740  143.6400 C   0  0  0  0  0  0  0  0  0  0  0  0
  188.6060  172.5970  142.2530 C   0  0  0  0  0  2  0  0  0  0  0  0
  191.9310  174.9250  143.3880 C   0  0  2  0  0  3  0  0  0  0  0  0
  189.7940  173.1060  142.5760 C   0  0  1  0  0  3  0  0  0  0  0  0
  192.2460  176.1840  144.0360 N   0  0  0  0  0  0  0  0  0  0  0  0
  189.7000  172.1820  144.8960 C   0  0  0  0  0  1  0  0  0  0  0  0
  190.2150  174.1630  141.6130 C   0  0  2  0  0  0  0  0  0  0  0  0
  188.9400  174.5010  140.8560 C   0  0  0  0  0  2  0  0  0  0  0  0
  190.6120  172.7230  143.8050 C   0  0  2  0  0  0  0  0  0  0  0  0
  191.2050  173.5880  140.6120 C   0  0  0  0  0  1  0  0  0  0  0  0
  191.4180  178.3900  143.9470 O   0  0  0  0  0  0  0  0  0  0  0  0
  190.8850  175.3320  142.3420 C   0  0  1  0  0  3  0  0  0  0  0  0
  188.0340  173.2850  141.0570 C   0  0  1  0  0  3  0  0  0  0  0  0
  190.1790  176.6160  142.8390 C   0  0  1  0  0  3  0  0  0  0  0  0
  188.1280  172.4440  139.9480 O   0  0  0  0  0  0  0  0  0  0  0  0
  188.0780  173.2540  138.9110 O   0  0  0  0  0  1  0  0  0  0  0  0
  192.7200  171.4280  144.1910 C   0  0  0  0  0  2  0  0  0  0  0  0
  191.6050  171.6370  143.4880 C   0  0  0  0  0  3  0  0  0  0  0  0
  188.9990  176.3720  143.8100 C   0  0  2  0  0  3  0  0  0  0  0  0
  187.7880  176.1950  143.1340 O   0  0  0  0  0  0  0  0  0  0  0  0
  186.6110  177.3670  141.4320 C   0  0  0  0  0  1  0  0  0  0  0  0
  187.4140  177.4730  142.7100 C   0  0  0  0  0  2  0  0  0  0  0  0
  188.8610  177.5100  144.8360 C   0  0  0  0  0  2  0  0  0  0  0  0
  188.8250  177.0030  146.2730 C   0  0  1  0  0  3  0  0  0  0  0  0
  187.7080  177.5220  146.9290 O   0  0  0  0  0  1  0  0  0  0  0  0
  189.0910  174.8140  147.3470 C   0  0  0  0  0  2  0  0  0  0  0  0
  188.7570  175.5130  146.2640 C   0  0  0  0  0  3  0  0  0  0  0  0
  193.3790  176.3890  144.9320 C   0  0  0  0  0  2  0  0  0  0  0  0
  194.7030  176.3600  144.1710 C   0  0  0  0  0  2  0  0  0  0  0  0
  195.4460  174.1370  143.2720 C   0  0  0  0  0  3  0  0  0  0  0  0
  195.4030  175.0510  144.3310 C   0  0  0  0  0  0  0  0  0  0  0  0
  195.9780  174.7180  145.5630 C   0  0  0  0  0  3  0  0  0  0  0  0
  197.1480  173.1560  146.9300 F   0  0  0  0  0  0  0  0  0  0  0  0
  196.6420  172.5660  144.6750 C   0  0  0  0  0  3  0  0  0  0  0  0
  196.5970  173.4780  145.7350 C   0  0  0  0  0  0  0  0  0  0  0  0
  196.0680  172.8960  143.4440 C   0  0  0  0  0  3  0  0  0  0  0  0
  2 12  2  0  0  0  0
  2  6  1  0  0  0  0
  4  6  1  0  0  0  0
  4  1  1  1  0  0  0
  5  3  1  1  0  0  0
  5 10  1  0  0  0  0
  6 29  1  0  0  0  0
  8 11  1  6  0  0  0
  8 13  1  0  0  0  0
  8  5  1  0  0  0  0
  9 14  1  0  0  0  0
  9  8  1  0  0  0  0
 10  1  1  0  0  0  0
 10  7  1  1  0  0  0
 13 15  1  0  0  0  0
 13  4  1  0  0  0  0
 14  3  1  0  0  0  0
 15  2  1  0  0  0  0
 15 20  1  0  0  0  0
 16 14  1  0  0  0  0
 17 16  1  0  0  0  0
 19 10  1  0  0  0  0
 19 18  2  0  0  0  0
 20 24  1  0  0  0  0
 21 20  1  0  0  0  0
 22 23  1  0  0  0  0
 23 21  1  0  0  0  0
 24 25  1  0  0  0  0
 25 26  1  0  0  0  0
 28 25  1  0  0  0  0
 28 27  2  0  0  0  0
 30 32  1  0  0  0  0
 30 29  1  0  0  0  0
 31 37  2  0  0  0  0
 31 32  1  0  0  0  0
 32 33  2  0  0  0  0
 33 36  1  0  0  0  0
 35 36  2  0  0  0  0
 36 34  1  0  0  0  0
 37 35  1  0  0  0  0
M  END
>  <MODEL>
3

>  <REMARK>
 VINA RESULT:      -6.8      3.186      7.800
  Name = 
  11 active torsions:
  status: ('A' for Active; 'I' for Inactive)
    1  A    between atoms: C_1  and  O_5
    2  A    between atoms: C_1  and  C_33
    3  A    between atoms: C_1  and  C_36
    4  A    between atoms: O_3  and  C_32
    5  A    between atoms: O_5  and  C_23
    6  A    between atoms: C_6  and  C_31
    7  A    between atoms: N_14  and  C_37
    8  A    between atoms: C_17  and  C_33
    9  A    between atoms: C_17  and  C_34
   10  A    between atoms: C_24  and  C_28
   11  A    between atoms: C_31  and  C_37
                            x       y       z     vdW  Elec       q    Type
                         _______ _______ _______ _____ _____    ______ ____

>  <TORSDO>
F 11

$$$$
=
 OpenBabel11052420043D

 37 40  0  0  1  0  0  0  0  0999 V2000
  189.2540  175.3440  143.8760 C   0  0  0  0  0  2  0  0  0  0  0  0
  190.9730  175.7800  146.6660 C   0  0  0  0  0  0  0  0  0  0  0  0
  191.0600  172.5430  142.2310 C   0  0  0  0  0  2  0  0  0  0  0  0
  189.3100  174.8150  145.3190 C   0  0  2  0  0  3  0  0  0  0  0  0
  190.2770  173.1640  143.1120 C   0  0  1  0  0  3  0  0  0  0  0  0
  189.6270  175.9030  146.2250 N   0  0  0  0  0  0  0  0  0  0  0  0
  189.6750  174.9720  141.4960 C   0  0  0  0  0  1  0  0  0  0  0  0
  190.5450  172.6980  144.5030 C   0  0  2  0  0  0  0  0  0  0  0  0
  191.8760  171.9680  144.3980 C   0  0  0  0  0  2  0  0  0  0  0  0
  189.2710  174.2610  142.7790 C   0  0  2  0  0  0  0  0  0  0  0  0
  189.4950  171.6800  144.9210 C   0  0  0  0  0  1  0  0  0  0  0  0
  191.4710  176.5120  147.5620 O   0  0  0  0  0  0  0  0  0  0  0  0
  190.5050  173.8700  145.4900 C   0  0  1  0  0  3  0  0  0  0  0  0
  192.0090  171.6140  142.9150 C   0  0  1  0  0  3  0  0  0  0  0  0
  191.7220  174.7070  145.9530 C   0  0  1  0  0  3  0  0  0  0  0  0
  191.5970  170.2970  142.7110 O   0  0  0  0  0  0  0  0  0  0  0  0
  192.7050  169.6410  142.4360 O   0  0  0  0  0  1  0  0  0  0  0  0
  187.6380  172.6990  141.7000 C   0  0  0  0  0  2  0  0  0  0  0  0
  187.8950  173.6940  142.5500 C   0  0  0  0  0  3  0  0  0  0  0  0
  192.5170  175.3810  144.8100 C   0  0  2  0  0  3  0  0  0  0  0  0
  193.7950  174.8340  144.6620 O   0  0  0  0  0  0  0  0  0  0  0  0
  195.8490  174.5410  145.8250 C   0  0  0  0  0  1  0  0  0  0  0  0
  194.4860  175.1980  145.8220 C   0  0  0  0  0  2  0  0  0  0  0  0
  192.6220  176.9030  145.0100 C   0  0  0  0  0  2  0  0  0  0  0  0
  192.2860  177.6860  143.7470 C   0  0  1  0  0  3  0  0  0  0  0  0
  192.2190  176.8180  142.6560 O   0  0  0  0  0  1  0  0  0  0  0  0
  190.0350  178.2950  142.9890 C   0  0  0  0  0  2  0  0  0  0  0  0
  190.9720  178.3690  143.9300 C   0  0  0  0  0  3  0  0  0  0  0  0
  188.6830  176.9380  146.6330 C   0  0  0  0  0  2  0  0  0  0  0  0
  187.2480  176.4150  146.6320 C   0  0  0  0  0  2  0  0  0  0  0  0
  185.0440  177.6160  146.6310 C   0  0  0  0  0  3  0  0  0  0  0  0
  186.2990  177.4080  146.0480 C   0  0  0  0  0  0  0  0  0  0  0  0
  186.6490  178.0980  144.8820 C   0  0  0  0  0  3  0  0  0  0  0  0
  186.0890  179.6600  143.1710 F   0  0  0  0  0  0  0  0  0  0  0  0
  184.4970  179.2060  144.8870 C   0  0  0  0  0  3  0  0  0  0  0  0
  185.7500  178.9970  144.3020 C   0  0  0  0  0  0  0  0  0  0  0  0
  184.1440  178.5170  146.0520 C   0  0  0  0  0  3  0  0  0  0  0  0
  2 12  2  0  0  0  0
  3 14  1  0  0  0  0
  4  1  1  6  0  0  0
  4 13  1  0  0  0  0
  4  6  1  0  0  0  0
  5  3  1  1  0  0  0
  5  8  1  0  0  0  0
  6 29  1  0  0  0  0
  6  2  1  0  0  0  0
  8 11  1  1  0  0  0
  8 13  1  0  0  0  0
  9  8  1  0  0  0  0
 10  7  1  6  0  0  0
 10  5  1  0  0  0  0
 10  1  1  0  0  0  0
 13 15  1  0  0  0  0
 14  9  1  0  0  0  0
 15  2  1  0  0  0  0
 16 14  1  0  0  0  0
 17 16  1  0  0  0  0
 18 19  2  0  0  0  0
 19 10  1  0  0  0  0
 20 24  1  0  0  0  0
 20 15  1  0  0  0  0
 21 20  1  0  0  0  0
 21 23  1  0  0  0  0
 23 22  1  0  0  0  0
 25 28  1  0  0  0  0
 25 24  1  0  0  0  0
 26 25  1  0  0  0  0
 27 28  2  0  0  0  0
 30 29  1  0  0  0  0
 32 31  2  0  0  0  0
 32 30  1  0  0  0  0
 33 32  1  0  0  0  0
 34 36  1  0  0  0  0
 35 37  2  0  0  0  0
 36 33  2  0  0  0  0
 36 35  1  0  0  0  0
 37 31  1  0  0  0  0
M  END
>  <MODEL>
4

>  <REMARK>
 VINA RESULT:      -6.7      2.002      5.032
  Name = 
  11 active torsions:
  status: ('A' for Active; 'I' for Inactive)
    1  A    between atoms: C_1  and  O_5
    2  A    between atoms: C_1  and  C_33
    3  A    between atoms: C_1  and  C_36
    4  A    between atoms: O_3  and  C_32
    5  A    between atoms: O_5  and  C_23
    6  A    between atoms: C_6  and  C_31
    7  A    between atoms: N_14  and  C_37
    8  A    between atoms: C_17  and  C_33
    9  A    between atoms: C_17  and  C_34
   10  A    between atoms: C_24  and  C_28
   11  A    between atoms: C_31  and  C_37
                            x       y       z     vdW  Elec       q    Type
                         _______ _______ _______ _____ _____    ______ ____

>  <TORSDO>
F 11

$$$$
=
 OpenBabel11052420043D

 37 40  0  0  1  0  0  0  0  0999 V2000
  192.1930  174.9290  144.5010 C   0  0  0  0  0  2  0  0  0  0  0  0
  190.2740  172.5680  143.2070 C   0  0  0  0  0  0  0  0  0  0  0  0
  189.7270  177.5050  145.5470 C   0  0  0  0  0  2  0  0  0  0  0  0
  191.3990  173.6850  144.9380 C   0  0  2  0  0  3  0  0  0  0  0  0
  190.4030  176.3580  145.5690 C   0  0  1  0  0  3  0  0  0  0  0  0
  191.5020  172.6590  143.9180 N   0  0  0  0  0  0  0  0  0  0  0  0
  192.3980  177.3650  144.4520 C   0  0  0  0  0  1  0  0  0  0  0  0
  189.5010  175.1980  145.8230 C   0  0  2  0  0  0  0  0  0  0  0  0
  188.1060  175.7550  145.5800 C   0  0  0  0  0  2  0  0  0  0  0  0
  191.8980  176.2100  145.3070 C   0  0  2  0  0  0  0  0  0  0  0  0
  189.5830  174.7880  147.2850 C   0  0  0  0  0  1  0  0  0  0  0  0
  190.0390  171.6700  142.3560 O   0  0  0  0  0  0  0  0  0  0  0  0
  189.8970  173.9970  144.9580 C   0  0  1  0  0  3  0  0  0  0  0  0
  188.2620  177.2700  145.7240 C   0  0  1  0  0  3  0  0  0  0  0  0
  189.3120  173.6470  143.5690 C   0  0  1  0  0  3  0  0  0  0  0  0
  187.8820  177.6580  147.0090 O   0  0  0  0  0  0  0  0  0  0  0  0
  186.7670  176.9960  147.2390 O   0  0  0  0  0  1  0  0  0  0  0  0
  194.0180  176.3220  146.6340 C   0  0  0  0  0  2  0  0  0  0  0  0
  192.6870  176.2430  146.5890 C   0  0  0  0  0  3  0  0  0  0  0  0
  189.4510  174.7640  142.5070 C   0  0  2  0  0  3  0  0  0  0  0  0
  188.3680  175.6480  142.5280 O   0  0  0  0  0  0  0  0  0  0  0  0
  187.7850  177.8970  142.0150 C   0  0  0  0  0  1  0  0  0  0  0  0
  188.9050  176.8920  142.1800 C   0  0  0  0  0  2  0  0  0  0  0  0
  189.6250  174.1860  141.0930 C   0  0  0  0  0  2  0  0  0  0  0  0
  188.2970  173.9810  140.3730 C   0  0  1  0  0  3  0  0  0  0  0  0
  188.1370  174.9570  139.3890 O   0  0  0  0  0  1  0  0  0  0  0  0
  189.0060  172.3780  138.6580 C   0  0  0  0  0  2  0  0  0  0  0  0
  188.2840  172.6270  139.7480 C   0  0  0  0  0  3  0  0  0  0  0  0
  192.6850  171.8350  143.6930 C   0  0  0  0  0  2  0  0  0  0  0  0
  193.2440  171.2920  145.0070 C   0  0  0  0  0  2  0  0  0  0  0  0
  195.6280  170.8260  145.6390 C   0  0  0  0  0  3  0  0  0  0  0  0
  194.6480  171.7420  145.2370 C   0  0  0  0  0  0  0  0  0  0  0  0
  194.9750  173.0950  145.0960 C   0  0  0  0  0  3  0  0  0  0  0  0
  196.5900  174.8430  145.2190 F   0  0  0  0  0  0  0  0  0  0  0  0
  197.2560  172.6160  145.7500 C   0  0  0  0  0  3  0  0  0  0  0  0
  196.2780  173.5320  145.3510 C   0  0  0  0  0  0  0  0  0  0  0  0
  196.9320  171.2640  145.8920 C   0  0  0  0  0  3  0  0  0  0  0  0
  1 10  1  0  0  0  0
  2 15  1  0  0  0  0
  2  6  1  0  0  0  0
  3 14  1  0  0  0  0
  4  1  1  6  0  0  0
  4 13  1  0  0  0  0
  5  3  1  6  0  0  0
  5  8  1  0  0  0  0
  6  4  1  0  0  0  0
  8 11  1  1  0  0  0
  9 14  1  0  0  0  0
  9  8  1  0  0  0  0
 10  7  1  6  0  0  0
 10  5  1  0  0  0  0
 10 19  1  0  0  0  0
 12  2  2  0  0  0  0
 13  8  1  0  0  0  0
 14 16  1  0  0  0  0
 15 13  1  0  0  0  0
 16 17  1  0  0  0  0
 19 18  2  0  0  0  0
 20 21  1  0  0  0  0
 20 15  1  0  0  0  0
 22 23  1  0  0  0  0
 23 21  1  0  0  0  0
 24 20  1  0  0  0  0
 25 24  1  0  0  0  0
 26 25  1  0  0  0  0
 27 28  2  0  0  0  0
 28 25  1  0  0  0  0
 29  6  1  0  0  0  0
 29 30  1  0  0  0  0
 30 32  1  0  0  0  0
 31 37  1  0  0  0  0
 32 31  2  0  0  0  0
 33 32  1  0  0  0  0
 33 36  2  0  0  0  0
 34 36  1  0  0  0  0
 35 37  2  0  0  0  0
 36 35  1  0  0  0  0
M  END
>  <MODEL>
5

>  <REMARK>
 VINA RESULT:      -6.4      3.240      6.997
  Name = 
  11 active torsions:
  status: ('A' for Active; 'I' for Inactive)
    1  A    between atoms: C_1  and  O_5
    2  A    between atoms: C_1  and  C_33
    3  A    between atoms: C_1  and  C_36
    4  A    between atoms: O_3  and  C_32
    5  A    between atoms: O_5  and  C_23
    6  A    between atoms: C_6  and  C_31
    7  A    between atoms: N_14  and  C_37
    8  A    between atoms: C_17  and  C_33
    9  A    between atoms: C_17  and  C_34
   10  A    between atoms: C_24  and  C_28
   11  A    between atoms: C_31  and  C_37
                            x       y       z     vdW  Elec       q    Type
                         _______ _______ _______ _____ _____    ______ ____

>  <TORSDO>
F 11

$$$$
=
 OpenBabel11052420043D

 37 40  0  0  1  0  0  0  0  0999 V2000
  191.4670  175.1670  142.8130 C   0  0  0  0  0  2  0  0  0  0  0  0
  192.6560  175.7480  145.8430 C   0  0  0  0  0  0  0  0  0  0  0  0
  192.6640  171.7190  142.1110 C   0  0  0  0  0  2  0  0  0  0  0  0
  191.0820  174.9620  144.2880 C   0  0  2  0  0  3  0  0  0  0  0  0
  191.9400  172.6890  142.6660 C   0  0  1  0  0  3  0  0  0  0  0  0
  191.5180  176.1040  145.0690 N   0  0  0  0  0  0  0  0  0  0  0  0
  192.2190  174.2000  140.6960 C   0  0  0  0  0  1  0  0  0  0  0  0
  191.7820  172.4800  144.1340 C   0  0  2  0  0  0  0  0  0  0  0  0
  192.8360  171.4370  144.4730 C   0  0  0  0  0  2  0  0  0  0  0  0
  191.3830  173.9040  141.9320 C   0  0  2  0  0  0  0  0  0  0  0  0
  190.4200  171.8690  144.4280 C   0  0  0  0  0  1  0  0  0  0  0  0
  193.1600  176.5070  146.7120 O   0  0  0  0  0  0  0  0  0  0  0  0
  191.8930  173.8080  144.8910 C   0  0  1  0  0  3  0  0  0  0  0  0
  193.1490  170.7520  143.1410 C   0  0  1  0  0  3  0  0  0  0  0  0
  193.1840  174.3950  145.5080 C   0  0  1  0  0  3  0  0  0  0  0  0
  192.4190  169.5670  143.0440 O   0  0  0  0  0  0  0  0  0  0  0  0
  192.7020  168.9110  144.1500 O   0  0  0  0  0  1  0  0  0  0  0  0
  189.0670  174.6310  141.3170 C   0  0  0  0  0  2  0  0  0  0  0  0
  189.9740  173.6630  141.4580 C   0  0  0  0  0  3  0  0  0  0  0  0
  194.3500  174.5890  144.5090 C   0  0  2  0  0  3  0  0  0  0  0  0
  195.1830  173.4690  144.4460 O   0  0  0  0  0  0  0  0  0  0  0  0
  197.0950  172.7490  145.6660 C   0  0  0  0  0  1  0  0  0  0  0  0
  195.6940  173.3190  145.7390 C   0  0  0  0  0  2  0  0  0  0  0  0
  195.1820  175.8390  144.8420 C   0  0  0  0  0  2  0  0  0  0  0  0
  195.8290  176.4600  143.6090 C   0  0  1  0  0  3  0  0  0  0  0  0
  197.1020  175.9220  143.4210 O   0  0  0  0  0  1  0  0  0  0  0  0
  195.4510  176.3710  141.1870 C   0  0  0  0  0  2  0  0  0  0  0  0
  194.9800  176.1740  142.4160 C   0  0  0  0  0  3  0  0  0  0  0  0
  190.8560  177.4050  145.0680 C   0  0  0  0  0  2  0  0  0  0  0  0
  189.7010  177.4430  146.0670 C   0  0  0  0  0  2  0  0  0  0  0  0
  188.2640  177.4330  144.0100 C   0  0  0  0  0  3  0  0  0  0  0  0
  188.3820  177.2600  145.3930 C   0  0  0  0  0  0  0  0  0  0  0  0
  187.2490  176.9600  146.1580 C   0  0  0  0  0  3  0  0  0  0  0  0
  184.9060  176.5450  146.2840 F   0  0  0  0  0  0  0  0  0  0  0  0
  185.8850  177.0010  144.1580 C   0  0  0  0  0  3  0  0  0  0  0  0
  186.0020  176.8300  145.5410 C   0  0  0  0  0  0  0  0  0  0  0  0
  187.0160  177.3010  143.3920 C   0  0  0  0  0  3  0  0  0  0  0  0
  2 12  2  0  0  0  0
  3 14  1  0  0  0  0
  4  1  1  6  0  0  0
  4 13  1  0  0  0  0
  4  6  1  0  0  0  0
  5  3  1  1  0  0  0
  5  8  1  0  0  0  0
  6  2  1  0  0  0  0
  8 11  1  1  0  0  0
  8  9  1  0  0  0  0
  8 13  1  0  0  0  0
 10  7  1  6  0  0  0
 10  5  1  0  0  0  0
 10  1  1  0  0  0  0
 13 15  1  0  0  0  0
 14  9  1  0  0  0  0
 15  2  1  0  0  0  0
 16 14  1  0  0  0  0
 16 17  1  0  0  0  0
 18 19  2  0  0  0  0
 19 10  1  0  0  0  0
 20 24  1  0  0  0  0
 20 15  1  0  0  0  0
 21 20  1  0  0  0  0
 21 23  1  0  0  0  0
 22 23  1  0  0  0  0
 25 24  1  0  0  0  0
 26 25  1  0  0  0  0
 27 28  2  0  0  0  0
 28 25  1  0  0  0  0
 29  6  1  0  0  0  0
 29 30  1  0  0  0  0
 31 32  1  0  0  0  0
 32 30  1  0  0  0  0
 32 33  2  0  0  0  0
 35 36  2  0  0  0  0
 36 33  1  0  0  0  0
 36 34  1  0  0  0  0
 37 31  2  0  0  0  0
 37 35  1  0  0  0  0
M  END
>  <MODEL>
6

>  <REMARK>
 VINA RESULT:      -6.3      2.119      5.305
  Name = 
  11 active torsions:
  status: ('A' for Active; 'I' for Inactive)
    1  A    between atoms: C_1  and  O_5
    2  A    between atoms: C_1  and  C_33
    3  A    between atoms: C_1  and  C_36
    4  A    between atoms: O_3  and  C_32
    5  A    between atoms: O_5  and  C_23
    6  A    between atoms: C_6  and  C_31
    7  A    between atoms: N_14  and  C_37
    8  A    between atoms: C_17  and  C_33
    9  A    between atoms: C_17  and  C_34
   10  A    between atoms: C_24  and  C_28
   11  A    between atoms: C_31  and  C_37
                            x       y       z     vdW  Elec       q    Type
                         _______ _______ _______ _____ _____    ______ ____

>  <TORSDO>
F 11

$$$$
=
 OpenBabel11052420043D

 37 40  0  0  1  0  0  0  0  0999 V2000
  192.6260  174.6320  144.5750 C   0  0  0  0  0  2  0  0  0  0  0  0
  190.6410  172.1680  143.6160 C   0  0  0  0  0  0  0  0  0  0  0  0
  190.2350  177.3990  145.2350 C   0  0  0  0  0  2  0  0  0  0  0  0
  191.7970  173.4850  145.1780 C   0  0  2  0  0  3  0  0  0  0  0  0
  190.8770  176.2470  145.4220 C   0  0  1  0  0  3  0  0  0  0  0  0
  191.8700  172.3230  144.3140 N   0  0  0  0  0  0  0  0  0  0  0  0
  192.9020  177.0300  144.1840 C   0  0  0  0  0  1  0  0  0  0  0  0
  189.9420  175.1610  145.8320 C   0  0  2  0  0  0  0  0  0  0  0  0
  188.5650  175.7180  145.5060 C   0  0  0  0  0  2  0  0  0  0  0  0
  192.3680  176.0220  145.1900 C   0  0  2  0  0  0  0  0  0  0  0  0
  190.0110  174.9590  147.3380 C   0  0  0  0  0  1  0  0  0  0  0  0
  190.3810  171.1660  142.8990 O   0  0  0  0  0  0  0  0  0  0  0  0
  190.3040  173.8390  145.1470 C   0  0  1  0  0  3  0  0  0  0  0  0
  188.7640  177.2330  145.4360 C   0  0  1  0  0  3  0  0  0  0  0  0
  189.7110  173.3140  143.8180 C   0  0  1  0  0  3  0  0  0  0  0  0
  188.3940  177.8090  146.6510 O   0  0  0  0  0  0  0  0  0  0  0  0
  187.2050  177.3050  146.9090 O   0  0  0  0  0  1  0  0  0  0  0  0
  194.4830  176.0870  146.5290 C   0  0  0  0  0  2  0  0  0  0  0  0
  193.1570  176.2120  146.4590 C   0  0  0  0  0  3  0  0  0  0  0  0
  189.8820  174.2660  142.6100 C   0  0  2  0  0  3  0  0  0  0  0  0
  189.0000  175.3490  142.6620 O   0  0  0  0  0  0  0  0  0  0  0  0
  186.6920  175.8540  142.3880 C   0  0  0  0  0  1  0  0  0  0  0  0
  187.8130  174.8830  142.0890 C   0  0  0  0  0  2  0  0  0  0  0  0
  189.7190  173.5240  141.2730 C   0  0  0  0  0  2  0  0  0  0  0  0
  191.0180  173.4510  140.4790 C   0  0  1  0  0  3  0  0  0  0  0  0
  190.7770  173.7910  139.1470 O   0  0  0  0  0  1  0  0  0  0  0  0
  193.2420  174.4790  140.5830 C   0  0  0  0  0  2  0  0  0  0  0  0
  192.0060  174.3990  141.0700 C   0  0  0  0  0  3  0  0  0  0  0  0
  193.0290  171.4420  144.2130 C   0  0  0  0  0  2  0  0  0  0  0  0
  194.0930  172.0260  143.2840 C   0  0  0  0  0  2  0  0  0  0  0  0
  195.6260  172.0610  145.2710 C   0  0  0  0  0  3  0  0  0  0  0  0
  195.2300  172.6170  144.0490 C   0  0  0  0  0  0  0  0  0  0  0  0
  195.8710  173.7620  143.5630 C   0  0  0  0  0  3  0  0  0  0  0  0
  197.5230  175.4590  143.8250 F   0  0  0  0  0  0  0  0  0  0  0  0
  197.3040  173.7900  145.5140 C   0  0  0  0  0  3  0  0  0  0  0  0
  196.9080  174.3480  144.2940 C   0  0  0  0  0  0  0  0  0  0  0  0
  196.6650  172.6470  146.0010 C   0  0  0  0  0  3  0  0  0  0  0  0
  1 10  1  0  0  0  0
  2 15  1  0  0  0  0
  2  6  1  0  0  0  0
  3 14  1  0  0  0  0
  4  1  1  6  0  0  0
  5  3  1  6  0  0  0
  5  8  1  0  0  0  0
  6  4  1  0  0  0  0
  8 11  1  1  0  0  0
  9  8  1  0  0  0  0
 10  7  1  6  0  0  0
 10  5  1  0  0  0  0
 10 19  1  0  0  0  0
 12  2  2  0  0  0  0
 13  4  1  0  0  0  0
 13  8  1  0  0  0  0
 14  9  1  0  0  0  0
 14 16  1  0  0  0  0
 15 13  1  0  0  0  0
 16 17  1  0  0  0  0
 19 18  2  0  0  0  0
 20 21  1  0  0  0  0
 20 15  1  0  0  0  0
 23 22  1  0  0  0  0
 23 21  1  0  0  0  0
 24 20  1  0  0  0  0
 25 28  1  0  0  0  0
 25 24  1  0  0  0  0
 26 25  1  0  0  0  0
 27 28  2  0  0  0  0
 29  6  1  0  0  0  0
 30 32  1  0  0  0  0
 30 29  1  0  0  0  0
 31 37  1  0  0  0  0
 32 31  2  0  0  0  0
 33 32  1  0  0  0  0
 33 36  2  0  0  0  0
 34 36  1  0  0  0  0
 35 37  2  0  0  0  0
 36 35  1  0  0  0  0
M  END
>  <MODEL>
7

>  <REMARK>
 VINA RESULT:      -6.2      3.374      6.942
  Name = 
  11 active torsions:
  status: ('A' for Active; 'I' for Inactive)
    1  A    between atoms: C_1  and  O_5
    2  A    between atoms: C_1  and  C_33
    3  A    between atoms: C_1  and  C_36
    4  A    between atoms: O_3  and  C_32
    5  A    between atoms: O_5  and  C_23
    6  A    between atoms: C_6  and  C_31
    7  A    between atoms: N_14  and  C_37
    8  A    between atoms: C_17  and  C_33
    9  A    between atoms: C_17  and  C_34
   10  A    between atoms: C_24  and  C_28
   11  A    between atoms: C_31  and  C_37
                            x       y       z     vdW  Elec       q    Type
                         _______ _______ _______ _____ _____    ______ ____

>  <TORSDO>
F 11

$$$$
=
 OpenBabel11052420043D

 37 40  0  0  1  0  0  0  0  0999 V2000
  190.7660  174.8560  141.7370 C   0  0  0  0  0  2  0  0  0  0  0  0
  189.4590  175.2030  144.7540 C   0  0  0  0  0  0  0  0  0  0  0  0
  193.1580  172.0500  142.2000 C   0  0  0  0  0  2  0  0  0  0  0  0
  189.6160  174.2980  142.5930 C   0  0  2  0  0  3  0  0  0  0  0  0
  191.9860  172.6690  142.0790 C   0  0  1  0  0  3  0  0  0  0  0  0
  189.0500  175.3610  143.4020 N   0  0  0  0  0  0  0  0  0  0  0  0
  192.9600  174.5190  140.7110 C   0  0  0  0  0  1  0  0  0  0  0  0
  191.0000  172.1720  143.0810 C   0  0  2  0  0  0  0  0  0  0  0  0
  191.8500  171.4170  144.0920 C   0  0  0  0  0  2  0  0  0  0  0  0
  191.6800  173.7930  141.0940 C   0  0  2  0  0  0  0  0  0  0  0  0
  190.0600  171.1680  142.4310 C   0  0  0  0  0  1  0  0  0  0  0  0
  189.0070  175.9070  145.6950 O   0  0  0  0  0  0  0  0  0  0  0  0
  190.1630  173.3250  143.6450 C   0  0  1  0  0  3  0  0  0  0  0  0
  193.1440  171.0880  143.3440 C   0  0  1  0  0  3  0  0  0  0  0  0
  190.4760  174.1280  144.9300 C   0  0  1  0  0  3  0  0  0  0  0  0
  193.0800  169.7840  142.8530 O   0  0  0  0  0  0  0  0  0  0  0  0
  193.6020  169.0440  143.8090 O   0  0  0  0  0  1  0  0  0  0  0  0
  189.7910  173.3730  139.5050 C   0  0  0  0  0  2  0  0  0  0  0  0
  191.0820  173.2590  139.8190 C   0  0  0  0  0  3  0  0  0  0  0  0
  191.8660  174.8080  144.9480 C   0  0  2  0  0  3  0  0  0  0  0  0
  192.8430  173.9960  145.5320 O   0  0  0  0  0  0  0  0  0  0  0  0
  195.1580  173.4620  145.4070 C   0  0  0  0  0  1  0  0  0  0  0  0
  194.0250  174.2970  144.8500 C   0  0  0  0  0  2  0  0  0  0  0  0
  191.8250  176.1690  145.6620 C   0  0  0  0  0  2  0  0  0  0  0  0
  192.3230  176.0940  147.1010 C   0  0  1  0  0  3  0  0  0  0  0  0
  193.4880  176.8500  147.2380 O   0  0  0  0  0  1  0  0  0  0  0  0
  191.5630  177.5440  148.9270 C   0  0  0  0  0  2  0  0  0  0  0  0
  191.2680  176.6240  148.0120 C   0  0  0  0  0  3  0  0  0  0  0  0
  188.1720  176.4090  142.8890 C   0  0  0  0  0  2  0  0  0  0  0  0
  186.7090  176.1200  143.2190 C   0  0  0  0  0  2  0  0  0  0  0  0
  185.5750  176.7520  145.3670 C   0  0  0  0  0  3  0  0  0  0  0  0
  186.1400  177.1400  144.1470 C   0  0  0  0  0  0  0  0  0  0  0  0
  186.1300  178.4890  143.7720 C   0  0  0  0  0  3  0  0  0  0  0  0
  185.5460  180.7500  144.2480 F   0  0  0  0  0  0  0  0  0  0  0  0
  184.9980  179.0570  145.8350 C   0  0  0  0  0  3  0  0  0  0  0  0
  185.5600  179.4470  144.6160 C   0  0  0  0  0  0  0  0  0  0  0  0
  185.0070  177.7110  146.2120 C   0  0  0  0  0  3  0  0  0  0  0  0
  2 15  1  0  0  0  0
  2 12  2  0  0  0  0
  3 14  1  0  0  0  0
  4  1  1  6  0  0  0
  4  6  1  0  0  0  0
  4 13  1  0  0  0  0
  5  3  1  1  0  0  0
  5  8  1  0  0  0  0
  6  2  1  0  0  0  0
  8 11  1  6  0  0  0
  8 13  1  0  0  0  0
  8  9  1  0  0  0  0
 10  7  1  6  0  0  0
 10  1  1  0  0  0  0
 10  5  1  0  0  0  0
 13 15  1  0  0  0  0
 14  9  1  0  0  0  0
 15 20  1  0  0  0  0
 16 14  1  0  0  0  0
 16 17  1  0  0  0  0
 18 19  2  0  0  0  0
 19 10  1  0  0  0  0
 20 21  1  0  0  0  0
 20 24  1  0  0  0  0
 23 22  1  0  0  0  0
 23 21  1  0  0  0  0
 24 25  1  0  0  0  0
 25 26  1  0  0  0  0
 25 28  1  0  0  0  0
 28 27  2  0  0  0  0
 29 30  1  0  0  0  0
 29  6  1  0  0  0  0
 30 32  1  0  0  0  0
 31 37  1  0  0  0  0
 32 31  2  0  0  0  0
 33 32  1  0  0  0  0
 33 36  2  0  0  0  0
 34 36  1  0  0  0  0
 35 37  2  0  0  0  0
 36 35  1  0  0  0  0
M  END
>  <MODEL>
8

>  <REMARK>
 VINA RESULT:      -5.9      2.008      5.355
  Name = 
  11 active torsions:
  status: ('A' for Active; 'I' for Inactive)
    1  A    between atoms: C_1  and  O_5
    2  A    between atoms: C_1  and  C_33
    3  A    between atoms: C_1  and  C_36
    4  A    between atoms: O_3  and  C_32
    5  A    between atoms: O_5  and  C_23
    6  A    between atoms: C_6  and  C_31
    7  A    between atoms: N_14  and  C_37
    8  A    between atoms: C_17  and  C_33
    9  A    between atoms: C_17  and  C_34
   10  A    between atoms: C_24  and  C_28
   11  A    between atoms: C_31  and  C_37
                            x       y       z     vdW  Elec       q    Type
                         _______ _______ _______ _____ _____    ______ ____

>  <TORSDO>
F 11

$$$$
=
 OpenBabel11052420043D

 37 40  0  0  1  0  0  0  0  0999 V2000
  191.1280  173.8820  143.1510 C   0  0  0  0  0  2  0  0  0  0  0  0
  193.5810  176.0610  142.7420 C   0  0  0  0  0  0  0  0  0  0  0  0
  188.7690  175.7130  145.3630 C   0  0  0  0  0  2  0  0  0  0  0  0
  191.5190  175.0570  142.2390 C   0  0  2  0  0  3  0  0  0  0  0  0
  189.4290  175.3950  144.2510 C   0  0  1  0  0  3  0  0  0  0  0  0
  192.9490  175.0300  141.9940 N   0  0  0  0  0  0  0  0  0  0  0  0
  189.7210  173.0140  144.9530 C   0  0  0  0  0  1  0  0  0  0  0  0
  189.9170  176.6110  143.5410 C   0  0  2  0  0  0  0  0  0  0  0  0
  189.7890  177.7200  144.5740 C   0  0  0  0  0  2  0  0  0  0  0  0
  189.7210  173.9760  143.7740 C   0  0  2  0  0  0  0  0  0  0  0  0
  188.9840  176.9490  142.3880 C   0  0  0  0  0  1  0  0  0  0  0  0
  194.8000  176.3520  142.6160 O   0  0  0  0  0  0  0  0  0  0  0  0
  191.3250  176.3880  142.9770 C   0  0  1  0  0  3  0  0  0  0  0  0
  188.7730  177.1900  145.5880 C   0  0  1  0  0  3  0  0  0  0  0  0
  192.6530  176.7460  143.6850 C   0  0  1  0  0  3  0  0  0  0  0  0
  187.5100  177.7070  145.2970 O   0  0  0  0  0  0  0  0  0  0  0  0
  186.6730  176.9220  145.9430 O   0  0  0  0  0  1  0  0  0  0  0  0
  188.8780  172.5390  141.9050 C   0  0  0  0  0  2  0  0  0  0  0  0
  188.6660  173.4910  142.8150 C   0  0  0  0  0  3  0  0  0  0  0  0
  192.8430  176.0920  145.0750 C   0  0  2  0  0  3  0  0  0  0  0  0
  192.1740  176.7910  146.0830 O   0  0  0  0  0  0  0  0  0  0  0  0
  191.1920  176.5020  148.2310 C   0  0  0  0  0  1  0  0  0  0  0  0
  191.9090  175.8400  147.0740 C   0  0  0  0  0  2  0  0  0  0  0  0
  194.3310  175.9490  145.4380 C   0  0  0  0  0  2  0  0  0  0  0  0
  194.7120  174.5200  145.8060 C   0  0  1  0  0  3  0  0  0  0  0  0
  193.9040  173.6210  145.1090 O   0  0  0  0  0  1  0  0  0  0  0  0
  196.8770  173.4150  146.1380 C   0  0  0  0  0  2  0  0  0  0  0  0
  196.1430  174.2900  145.4530 C   0  0  0  0  0  3  0  0  0  0  0  0
  193.6130  174.0970  141.0910 C   0  0  0  0  0  2  0  0  0  0  0  0
  192.8170  173.9070  139.8010 C   0  0  0  0  0  2  0  0  0  0  0  0
  192.6410  171.5040  140.5040 C   0  0  0  0  0  3  0  0  0  0  0  0
  192.1380  172.5780  139.7620 C   0  0  0  0  0  0  0  0  0  0  0  0
  191.0190  172.3950  138.9410 C   0  0  0  0  0  3  0  0  0  0  0  0
  189.3240  170.9680  138.0650 F   0  0  0  0  0  0  0  0  0  0  0  0
  190.9050  170.0710  139.6090 C   0  0  0  0  0  3  0  0  0  0  0  0
  190.4030  171.1430  138.8650 C   0  0  0  0  0  0  0  0  0  0  0  0
  192.0230  170.2510  140.4290 C   0  0  0  0  0  3  0  0  0  0  0  0
  1 10  1  0  0  0  0
  2 15  1  0  0  0  0
  3 14  1  0  0  0  0
  4 13  1  0  0  0  0
  4  1  1  1  0  0  0
  5  3  1  1  0  0  0
  6  4  1  0  0  0  0
  6  2  1  0  0  0  0
  8 11  1  6  0  0  0
  8  5  1  0  0  0  0
  8  9  1  0  0  0  0
  9 14  1  0  0  0  0
 10  5  1  0  0  0  0
 10  7  1  1  0  0  0
 12  2  2  0  0  0  0
 13  8  1  0  0  0  0
 13 15  1  0  0  0  0
 15 20  1  0  0  0  0
 16 14  1  0  0  0  0
 16 17  1  0  0  0  0
 18 19  2  0  0  0  0
 19 10  1  0  0  0  0
 20 24  1  0  0  0  0
 20 21  1  0  0  0  0
 21 23  1  0  0  0  0
 23 22  1  0  0  0  0
 24 25  1  0  0  0  0
 26 25  1  0  0  0  0
 28 25  1  0  0  0  0
 28 27  2  0  0  0  0
 29  6  1  0  0  0  0
 30 29  1  0  0  0  0
 32 30  1  0  0  0  0
 32 31  2  0  0  0  0
 33 32  1  0  0  0  0
 34 36  1  0  0  0  0
 35 37  2  0  0  0  0
 36 33  2  0  0  0  0
 36 35  1  0  0  0  0
 37 31  1  0  0  0  0
M  END
>  <MODEL>
9

>  <REMARK>
 VINA RESULT:      -5.9      3.289      6.811
  Name = 
  11 active torsions:
  status: ('A' for Active; 'I' for Inactive)
    1  A    between atoms: C_1  and  O_5
    2  A    between atoms: C_1  and  C_33
    3  A    between atoms: C_1  and  C_36
    4  A    between atoms: O_3  and  C_32
    5  A    between atoms: O_5  and  C_23
    6  A    between atoms: C_6  and  C_31
    7  A    between atoms: N_14  and  C_37
    8  A    between atoms: C_17  and  C_33
    9  A    between atoms: C_17  and  C_34
   10  A    between atoms: C_24  and  C_28
   11  A    between atoms: C_31  and  C_37
                            x       y       z     vdW  Elec       q    Type
                         _______ _______ _______ _____ _____    ______ ____

>  <TORSDO>
F 11

$$$$
