=
 OpenBabel11052418313D

 27 31  0  0  1  0  0  0  0  0999 V2000
  188.7020  177.3770  144.0860 N   0  0  0  0  0  0  0  0  0  0  0  0
  187.9200  177.5190  142.9040 C   0  0  0  0  0  0  0  0  0  0  0  0
  186.4380  177.8640  144.7010 C   0  0  2  0  0  3  0  0  0  0  0  0
  185.1670  177.7850  139.8670 C   0  0  0  0  0  3  0  0  0  0  0  0
  183.7530  178.1100  140.1290 C   0  0  0  0  0  3  0  0  0  0  0  0
  188.3210  177.2690  141.6550 C   0  0  0  0  0  3  0  0  0  0  0  0
  184.1360  178.0000  142.5950 C   0  0  0  0  0  3  0  0  0  0  0  0
  186.9220  177.9510  147.4910 C   0  0  2  0  0  3  0  0  0  0  0  0
  184.8030  179.9220  144.8910 C   0  0  0  0  0  1  0  0  0  0  0  0
  186.1530  176.8380  148.1730 C   0  0  0  0  0  1  0  0  0  0  0  0
  185.6030  177.9190  142.2680 C   0  0  0  0  0  0  0  0  0  0  0  0
  183.2820  178.2330  141.3750 C   0  0  0  0  0  3  0  0  0  0  0  0
  186.0430  177.6950  140.8660 C   0  0  2  0  0  3  0  0  0  0  0  0
  187.8920  177.9560  145.1540 C   0  0  1  0  0  3  0  0  0  0  0  0
  186.5540  177.9040  143.2120 C   0  0  0  0  0  0  0  0  0  0  0  0
  185.9420  178.9250  146.8270 C   0  0  0  0  0  3  0  0  0  0  0  0
  187.3910  177.3880  140.6070 O   0  0  0  0  0  0  0  0  0  0  0  0
  189.2630  177.5550  147.0750 O   0  0  0  0  0  1  0  0  0  0  0  0
  187.9940  177.3340  146.5430 C   0  0  1  0  0  3  0  0  0  0  0  0
  185.6990  178.8980  145.5010 C   0  0  0  0  0  0  0  0  0  0  0  0
  190.1620  177.3390  144.1020 C   0  0  0  0  0  2  0  0  0  0  0  0
  191.5680  173.3420  144.7780 C   0  0  0  0  0  3  0  0  0  0  0  0
  190.6520  175.9460  144.3190 C   0  0  0  0  0  0  0  0  0  0  0  0
  192.0220  175.7000  144.4610 C   0  0  0  0  0  3  0  0  0  0  0  0
  192.4800  174.3980  144.6890 C   0  0  0  0  0  3  0  0  0  0  0  0
  190.1980  173.5870  144.6420 C   0  0  0  0  0  3  0  0  0  0  0  0
  189.7400  174.8890  144.4140 C   0  0  0  0  0  3  0  0  0  0  0  0
  1 21  1  0  0  0  0
  2 15  1  0  0  0  0
  2  1  1  0  0  0  0
  3 15  1  6  0  0  0
  3 14  1  0  0  0  0
  3 20  1  0  0  0  0
  4  5  2  0  0  0  0
  5 12  1  0  0  0  0
  6  2  2  0  0  0  0
  8 10  1  6  0  0  0
  9 20  1  0  0  0  0
 11  7  1  0  0  0  0
 11 15  2  0  0  0  0
 12  7  2  0  0  0  0
 13  4  1  6  0  0  0
 13 11  1  0  0  0  0
 14  1  1  6  0  0  0
 14 19  1  0  0  0  0
 16  8  1  0  0  0  0
 17 13  1  0  0  0  0
 17  6  1  0  0  0  0
 19 18  1  1  0  0  0
 19  8  1  0  0  0  0
 20 16  2  0  0  0  0
 21 23  1  0  0  0  0
 23 27  2  0  0  0  0
 23 24  1  0  0  0  0
 24 25  2  0  0  0  0
 25 22  1  0  0  0  0
 26 22  2  0  0  0  0
 27 26  1  0  0  0  0
M  END
>  <MODEL>
1

>  <REMARK>
 VINA RESULT:      -7.9      0.000      0.000
  Name = 
  2 active torsions:
  status: ('A' for Active; 'I' for Inactive)
    1  A    between atoms: N_1  and  C_15
    2  A    between atoms: C_9  and  C_15
                            x       y       z     vdW  Elec       q    Type
                         _______ _______ _______ _____ _____    ______ ____

>  <TORSDO>
F 2

$$$$
=
 OpenBabel11052418313D

 27 31  0  0  1  0  0  0  0  0999 V2000
  188.2160  177.0830  142.8370 N   0  0  0  0  0  0  0  0  0  0  0  0
  189.4930  176.8420  143.4200 C   0  0  0  0  0  0  0  0  0  0  0  0
  188.0250  177.2310  145.2210 C   0  0  2  0  0  3  0  0  0  0  0  0
  192.9520  176.4740  145.6040 C   0  0  0  0  0  3  0  0  0  0  0  0
  192.9470  176.5190  147.0780 C   0  0  0  0  0  3  0  0  0  0  0  0
  190.6500  176.7140  142.7660 C   0  0  0  0  0  3  0  0  0  0  0  0
  190.5180  177.1030  147.0990 C   0  0  0  0  0  3  0  0  0  0  0  0
  185.2290  177.6800  145.2490 C   0  0  2  0  0  3  0  0  0  0  0  0
  187.8230  175.6560  147.3250 C   0  0  0  0  0  1  0  0  0  0  0  0
  184.9420  179.0540  145.8190 C   0  0  0  0  0  1  0  0  0  0  0  0
  190.5300  176.8000  145.6240 C   0  0  0  0  0  0  0  0  0  0  0  0
  191.8310  176.7820  147.7660 C   0  0  0  0  0  3  0  0  0  0  0  0
  191.8210  176.6040  144.9140 C   0  0  2  0  0  3  0  0  0  0  0  0
  187.2600  176.9430  143.9330 C   0  0  1  0  0  3  0  0  0  0  0  0
  189.4220  176.8310  144.8710 C   0  0  0  0  0  0  0  0  0  0  0  0
  185.9000  176.8070  146.3140 C   0  0  0  0  0  3  0  0  0  0  0  0
  191.8350  176.5570  143.5080 O   0  0  0  0  0  0  0  0  0  0  0  0
  185.1940  177.4740  142.8470 O   0  0  0  0  0  1  0  0  0  0  0  0
  186.0190  177.8280  143.9140 C   0  0  1  0  0  3  0  0  0  0  0  0
  187.2300  176.5820  146.3180 C   0  0  0  0  0  0  0  0  0  0  0  0
  187.8920  176.8190  141.4380 C   0  0  0  0  0  2  0  0  0  0  0  0
  188.2330  172.6270  140.5880 C   0  0  0  0  0  3  0  0  0  0  0  0
  187.9930  175.3600  141.1370 C   0  0  0  0  0  0  0  0  0  0  0  0
  188.3570  174.9330  139.8560 C   0  0  0  0  0  3  0  0  0  0  0  0
  188.4760  173.5660  139.5810 C   0  0  0  0  0  3  0  0  0  0  0  0
  187.8720  173.0530  141.8700 C   0  0  0  0  0  3  0  0  0  0  0  0
  187.7550  174.4190  142.1450 C   0  0  0  0  0  3  0  0  0  0  0  0
  1  2  1  0  0  0  0
  2 15  1  0  0  0  0
  3 15  1  6  0  0  0
  3 20  1  0  0  0  0
  4  5  2  0  0  0  0
  5 12  1  0  0  0  0
  6  2  2  0  0  0  0
  6 17  1  0  0  0  0
  7 12  2  0  0  0  0
  8 10  1  1  0  0  0
  8 16  1  0  0  0  0
 11  7  1  0  0  0  0
 13  4  1  1  0  0  0
 13 11  1  0  0  0  0
 14  1  1  6  0  0  0
 14  3  1  0  0  0  0
 15 11  2  0  0  0  0
 16 20  2  0  0  0  0
 17 13  1  0  0  0  0
 19 18  1  6  0  0  0
 19 14  1  0  0  0  0
 19  8  1  0  0  0  0
 20  9  1  0  0  0  0
 21  1  1  0  0  0  0
 22 26  1  0  0  0  0
 23 21  1  0  0  0  0
 23 27  1  0  0  0  0
 24 23  2  0  0  0  0
 25 24  1  0  0  0  0
 25 22  2  0  0  0  0
 26 27  2  0  0  0  0
M  END
>  <MODEL>
2

>  <REMARK>
 VINA RESULT:      -7.5      2.425      5.535
  Name = 
  2 active torsions:
  status: ('A' for Active; 'I' for Inactive)
    1  A    between atoms: N_1  and  C_15
    2  A    between atoms: C_9  and  C_15
                            x       y       z     vdW  Elec       q    Type
                         _______ _______ _______ _____ _____    ______ ____

>  <TORSDO>
F 2

$$$$
=
 OpenBabel11052418313D

 27 31  0  0  1  0  0  0  0  0999 V2000
  189.3640  176.5330  143.9840 N   0  0  0  0  0  0  0  0  0  0  0  0
  190.6480  176.3590  144.5740 C   0  0  0  0  0  0  0  0  0  0  0  0
  190.3720  174.5540  143.0860 C   0  0  2  0  0  3  0  0  0  0  0  0
  194.2850  175.2400  146.1210 C   0  0  0  0  0  3  0  0  0  0  0  0
  195.0090  174.0570  145.6210 C   0  0  0  0  0  3  0  0  0  0  0  0
  191.1610  177.0730  145.5790 C   0  0  0  0  0  3  0  0  0  0  0  0
  193.0730  173.4250  144.1730 C   0  0  0  0  0  2  0  0  0  0  0  0
  188.2650  173.9610  141.2880 C   0  0  2  0  0  3  0  0  0  0  0  0
  192.1540  173.8470  141.2770 C   0  0  0  0  0  1  0  0  0  0  0  0
  187.6260  172.6430  141.6740 C   0  0  0  0  0  1  0  0  0  0  0  0
  192.4920  174.7680  144.5290 C   0  0  0  0  0  0  0  0  0  0  0  0
  194.4690  173.2370  144.7120 C   0  0  0  0  0  3  0  0  0  0  0  0
  193.1020  175.5810  145.6120 C   0  0  0  0  0  0  0  0  0  0  0  0
  189.3550  175.6590  142.8150 C   0  0  1  0  0  3  0  0  0  0  0  0
  191.3470  175.2210  144.0010 C   0  0  0  0  0  0  0  0  0  0  0  0
  189.7280  173.7310  140.8950 C   0  0  0  0  0  3  0  0  0  0  0  0
  192.4200  176.7140  146.0930 O   0  0  0  0  0  0  0  0  0  0  0  0
  187.1270  175.9650  141.9950 O   0  0  0  0  0  1  0  0  0  0  0  0
  188.0360  175.0000  142.4270 C   0  0  1  0  0  3  0  0  0  0  0  0
  190.7440  174.0070  141.7380 C   0  0  0  0  0  0  0  0  0  0  0  0
  188.5730  177.7570  144.0900 C   0  0  0  0  0  2  0  0  0  0  0  0
  185.1920  177.2060  146.6720 C   0  0  0  0  0  3  0  0  0  0  0  0
  187.3930  177.5500  144.9790 C   0  0  0  0  0  0  0  0  0  0  0  0
  187.5330  176.8380  146.1750 C   0  0  0  0  0  3  0  0  0  0  0  0
  186.4330  176.6650  147.0210 C   0  0  0  0  0  3  0  0  0  0  0  0
  185.0500  177.9220  145.4790 C   0  0  0  0  0  3  0  0  0  0  0  0
  186.1510  178.0950  144.6340 C   0  0  0  0  0  3  0  0  0  0  0  0
  1 21  1  0  0  0  0
  1  2  1  0  0  0  0
  2  6  2  0  0  0  0
  3 20  1  6  0  0  0
  3 15  1  0  0  0  0
  5  4  1  0  0  0  0
  6 17  1  0  0  0  0
  7 11  1  0  0  0  0
  7 12  1  0  0  0  0
  8 10  1  1  0  0  0
  8 19  1  0  0  0  0
  9 20  1  0  0  0  0
 11 13  1  0  0  0  0
 12  5  2  0  0  0  0
 13 17  1  0  0  0  0
 13  4  2  0  0  0  0
 14  3  1  0  0  0  0
 14  1  1  1  0  0  0
 15 11  2  0  0  0  0
 15  2  1  0  0  0  0
 16  8  1  0  0  0  0
 16 20  2  0  0  0  0
 19 18  1  6  0  0  0
 19 14  1  0  0  0  0
 21 23  1  0  0  0  0
 22 25  1  0  0  0  0
 23 24  1  0  0  0  0
 24 25  2  0  0  0  0
 26 22  2  0  0  0  0
 27 23  2  0  0  0  0
 27 26  1  0  0  0  0
M  END
>  <MODEL>
3

>  <REMARK>
 VINA RESULT:      -7.4      2.328      7.465
  Name = 
  2 active torsions:
  status: ('A' for Active; 'I' for Inactive)
    1  A    between atoms: N_1  and  C_15
    2  A    between atoms: C_9  and  C_15
                            x       y       z     vdW  Elec       q    Type
                         _______ _______ _______ _____ _____    ______ ____

>  <TORSDO>
F 2

$$$$
=
 OpenBabel11052418313D

 27 31  0  0  1  0  0  0  0  0999 V2000
  190.7740  174.6010  145.9080 N   0  0  0  0  0  0  0  0  0  0  0  0
  190.7670  173.5020  145.0030 C   0  0  0  0  0  0  0  0  0  0  0  0
  192.9770  174.3180  145.0090 C   0  0  2  0  0  3  0  0  0  0  0  0
  191.2630  170.6060  142.1320 C   0  0  0  0  0  3  0  0  0  0  0  0
  192.5800  170.3260  141.5330 C   0  0  0  0  0  3  0  0  0  0  0  0
  189.6930  172.8270  144.5850 C   0  0  0  0  0  3  0  0  0  0  0  0
  193.5920  172.2700  142.7330 C   0  0  0  0  0  2  0  0  0  0  0  0
  194.1670  176.3870  146.5350 C   0  0  2  0  0  3  0  0  0  0  0  0
  195.1070  172.8040  145.3460 C   0  0  0  0  0  1  0  0  0  0  0  0
  194.6630  177.4770  145.6080 C   0  0  0  0  0  1  0  0  0  0  0  0
  192.2960  172.3520  143.4960 C   0  0  0  0  0  0  0  0  0  0  0  0
  193.6540  171.0690  141.8240 C   0  0  0  0  0  3  0  0  0  0  0  0
  191.1210  171.5550  143.0560 C   0  0  0  0  0  0  0  0  0  0  0  0
  192.1820  174.8530  146.1970 C   0  0  1  0  0  3  0  0  0  0  0  0
  192.0980  173.2250  144.4930 C   0  0  0  0  0  0  0  0  0  0  0  0
  194.9180  175.0830  146.2490 C   0  0  0  0  0  3  0  0  0  0  0  0
  189.8600  171.8140  143.6240 O   0  0  0  0  0  0  0  0  0  0  0  0
  192.0510  176.7700  147.6250 O   0  0  0  0  0  1  0  0  0  0  0  0
  192.6140  176.2950  146.4410 C   0  0  1  0  0  3  0  0  0  0  0  0
  194.3690  174.0870  145.5240 C   0  0  0  0  0  0  0  0  0  0  0  0
  189.6870  174.9050  146.8360 C   0  0  0  0  0  2  0  0  0  0  0  0
  187.0930  177.9020  145.1930 C   0  0  0  0  0  3  0  0  0  0  0  0
  188.7920  175.9600  146.2750 C   0  0  0  0  0  0  0  0  0  0  0  0
  189.1870  176.6860  145.1460 C   0  0  0  0  0  3  0  0  0  0  0  0
  188.3380  177.6570  144.6060 C   0  0  0  0  0  3  0  0  0  0  0  0
  186.6950  177.1740  146.3190 C   0  0  0  0  0  3  0  0  0  0  0  0
  187.5430  176.2020  146.8590 C   0  0  0  0  0  3  0  0  0  0  0  0
  1 21  1  0  0  0  0
  2  1  1  0  0  0  0
  3 15  1  1  0  0  0
  3 20  1  0  0  0  0
  3 14  1  0  0  0  0
  4 13  2  0  0  0  0
  5 12  2  0  0  0  0
  5  4  1  0  0  0  0
  6  2  2  0  0  0  0
  7 11  1  0  0  0  0
  8 10  1  6  0  0  0
  9 20  1  0  0  0  0
 11 15  2  0  0  0  0
 12  7  1  0  0  0  0
 13 11  1  0  0  0  0
 13 17  1  0  0  0  0
 14  1  1  6  0  0  0
 14 19  1  0  0  0  0
 15  2  1  0  0  0  0
 16  8  1  0  0  0  0
 17  6  1  0  0  0  0
 19  8  1  0  0  0  0
 19 18  1  1  0  0  0
 20 16  2  0  0  0  0
 22 26  1  0  0  0  0
 23 21  1  0  0  0  0
 23 27  1  0  0  0  0
 24 23  2  0  0  0  0
 25 24  1  0  0  0  0
 25 22  2  0  0  0  0
 26 27  2  0  0  0  0
M  END
>  <MODEL>
4

>  <REMARK>
 VINA RESULT:      -7.3      3.154      7.644
  Name = 
  2 active torsions:
  status: ('A' for Active; 'I' for Inactive)
    1  A    between atoms: N_1  and  C_15
    2  A    between atoms: C_9  and  C_15
                            x       y       z     vdW  Elec       q    Type
                         _______ _______ _______ _____ _____    ______ ____

>  <TORSDO>
F 2

$$$$
=
 OpenBabel11052418313D

 27 31  0  0  1  0  0  0  0  0999 V2000
  189.2150  176.8820  143.8490 N   0  0  0  0  0  0  0  0  0  0  0  0
  188.8330  176.1710  142.6760 C   0  0  0  0  0  0  0  0  0  0  0  0
  190.3200  174.7560  143.8320 C   0  0  2  0  0  3  0  0  0  0  0  0
  188.2750  173.7950  139.3720 C   0  0  0  0  0  3  0  0  0  0  0  0
  188.8820  172.4560  139.2690 C   0  0  0  0  0  3  0  0  0  0  0  0
  188.1100  176.6490  141.6610 C   0  0  0  0  0  3  0  0  0  0  0  0
  190.1540  172.8170  141.3890 C   0  0  0  0  0  3  0  0  0  0  0  0
  191.5910  175.0830  146.3420 C   0  0  2  0  0  3  0  0  0  0  0  0
  189.8220  172.2260  144.3800 C   0  0  0  0  0  1  0  0  0  0  0  0
  193.0930  175.1040  146.1490 C   0  0  0  0  0  1  0  0  0  0  0  0
  189.3200  174.0580  141.5650 C   0  0  0  0  0  0  0  0  0  0  0  0
  189.7230  171.9950  140.2010 C   0  0  0  0  0  3  0  0  0  0  0  0
  188.4750  174.5540  140.4480 C   0  0  2  0  0  3  0  0  0  0  0  0
  189.8120  175.8810  144.7290 C   0  0  1  0  0  3  0  0  0  0  0  0
  189.4030  174.8350  142.6540 C   0  0  0  0  0  0  0  0  0  0  0  0
  191.0330  173.7230  145.9090 C   0  0  0  0  0  3  0  0  0  0  0  0
  187.8890  175.8300  140.5390 O   0  0  0  0  0  0  0  0  0  0  0  0
  190.5000  177.2190  146.5910 O   0  0  0  0  0  1  0  0  0  0  0  0
  190.9610  176.3190  145.6310 C   0  0  1  0  0  3  0  0  0  0  0  0
  190.4250  173.5480  144.7180 C   0  0  0  0  0  0  0  0  0  0  0  0
  188.5490  178.0910  144.3280 C   0  0  0  0  0  2  0  0  0  0  0  0
  184.8950  177.1590  146.3750 C   0  0  0  0  0  3  0  0  0  0  0  0
  187.2770  177.7500  145.0310 C   0  0  0  0  0  0  0  0  0  0  0  0
  187.3140  177.0990  146.2690 C   0  0  0  0  0  3  0  0  0  0  0  0
  186.1240  176.8030  146.9400 C   0  0  0  0  0  3  0  0  0  0  0  0
  184.8570  177.8140  145.1400 C   0  0  0  0  0  3  0  0  0  0  0  0
  186.0470  178.1120  144.4690 C   0  0  0  0  0  3  0  0  0  0  0  0
  1 21  1  0  0  0  0
  2  1  1  0  0  0  0
  3 15  1  6  0  0  0
  3 20  1  0  0  0  0
  3 14  1  0  0  0  0
  5  4  2  0  0  0  0
  5 12  1  0  0  0  0
  6  2  2  0  0  0  0
  7 11  1  0  0  0  0
  8 10  1  6  0  0  0
  9 20  1  0  0  0  0
 11 15  2  0  0  0  0
 12  7  2  0  0  0  0
 13  4  1  1  0  0  0
 13 17  1  0  0  0  0
 13 11  1  0  0  0  0
 14  1  1  6  0  0  0
 14 19  1  0  0  0  0
 15  2  1  0  0  0  0
 16  8  1  0  0  0  0
 17  6  1  0  0  0  0
 19  8  1  0  0  0  0
 19 18  1  1  0  0  0
 20 16  2  0  0  0  0
 21 23  1  0  0  0  0
 22 25  1  0  0  0  0
 23 24  1  0  0  0  0
 24 25  2  0  0  0  0
 26 22  2  0  0  0  0
 27 23  2  0  0  0  0
 27 26  1  0  0  0  0
M  END
>  <MODEL>
5

>  <REMARK>
 VINA RESULT:      -7.3      2.227      5.620
  Name = 
  2 active torsions:
  status: ('A' for Active; 'I' for Inactive)
    1  A    between atoms: N_1  and  C_15
    2  A    between atoms: C_9  and  C_15
                            x       y       z     vdW  Elec       q    Type
                         _______ _______ _______ _____ _____    ______ ____

>  <TORSDO>
F 2

$$$$
=
 OpenBabel11052418313D

 27 31  0  0  1  0  0  0  0  0999 V2000
  189.4790  176.1530  143.9750 N   0  0  0  0  0  0  0  0  0  0  0  0
  188.1800  176.7260  144.0860 C   0  0  0  0  0  0  0  0  0  0  0  0
  189.0730  176.7270  146.2660 C   0  0  2  0  0  3  0  0  0  0  0  0
  184.4610  178.1990  145.0190 C   0  0  0  0  0  3  0  0  0  0  0  0
  184.1130  178.6120  146.3910 C   0  0  0  0  0  3  0  0  0  0  0  0
  187.2610  176.7960  143.1210 C   0  0  0  0  0  3  0  0  0  0  0  0
  186.2930  177.7520  147.2540 C   0  0  0  0  0  3  0  0  0  0  0  0
  191.6300  175.9480  147.2040 C   0  0  2  0  0  3  0  0  0  0  0  0
  189.1020  178.8350  147.8480 C   0  0  0  0  0  1  0  0  0  0  0  0
  191.4830  174.7930  148.1740 C   0  0  0  0  0  1  0  0  0  0  0  0
  186.6890  177.5830  145.8120 C   0  0  0  0  0  0  0  0  0  0  0  0
  184.9570  178.4310  147.4120 C   0  0  0  0  0  3  0  0  0  0  0  0
  185.6700  177.7160  144.7380 C   0  0  1  0  0  3  0  0  0  0  0  0
  190.1600  176.5000  145.2200 C   0  0  1  0  0  3  0  0  0  0  0  0
  187.9110  177.1770  145.4410 C   0  0  0  0  0  0  0  0  0  0  0  0
  190.9250  177.1870  147.7660 C   0  0  0  0  0  3  0  0  0  0  0  0
  185.9950  177.3270  143.4260 O   0  0  0  0  0  0  0  0  0  0  0  0
  192.2660  175.3940  144.9460 O   0  0  0  0  0  1  0  0  0  0  0  0
  191.1600  175.4980  145.7880 C   0  0  1  0  0  3  0  0  0  0  0  0
  189.7080  177.5730  147.3320 C   0  0  0  0  0  0  0  0  0  0  0  0
  190.1690  175.9270  142.7080 C   0  0  0  0  0  2  0  0  0  0  0  0
  190.0840  171.7720  141.6390 C   0  0  0  0  0  3  0  0  0  0  0  0
  190.1530  174.4780  142.3480 C   0  0  0  0  0  0  0  0  0  0  0  0
  189.2970  173.5990  143.0200 C   0  0  0  0  0  3  0  0  0  0  0  0
  189.2630  172.2460  142.6670 C   0  0  0  0  0  3  0  0  0  0  0  0
  190.9370  172.6500  140.9620 C   0  0  0  0  0  3  0  0  0  0  0  0
  190.9700  174.0030  141.3160 C   0  0  0  0  0  3  0  0  0  0  0  0
  1  2  1  0  0  0  0
  2 15  1  0  0  0  0
  3 15  1  6  0  0  0
  3 20  1  0  0  0  0
  4  5  2  0  0  0  0
  5 12  1  0  0  0  0
  6 17  1  0  0  0  0
  6  2  2  0  0  0  0
  7 12  2  0  0  0  0
  8 16  1  0  0  0  0
  8 10  1  1  0  0  0
 11  7  1  0  0  0  0
 13  4  1  1  0  0  0
 13 11  1  0  0  0  0
 14  1  1  6  0  0  0
 14 19  1  0  0  0  0
 14  3  1  0  0  0  0
 15 11  2  0  0  0  0
 17 13  1  0  0  0  0
 19 18  1  6  0  0  0
 19  8  1  0  0  0  0
 20 16  2  0  0  0  0
 20  9  1  0  0  0  0
 21  1  1  0  0  0  0
 22 25  1  0  0  0  0
 23 21  1  0  0  0  0
 23 24  1  0  0  0  0
 25 24  2  0  0  0  0
 26 27  1  0  0  0  0
 26 22  2  0  0  0  0
 27 23  2  0  0  0  0
M  END
>  <MODEL>
6

>  <REMARK>
 VINA RESULT:      -7.2      2.323      4.120
  Name = 
  2 active torsions:
  status: ('A' for Active; 'I' for Inactive)
    1  A    between atoms: N_1  and  C_15
    2  A    between atoms: C_9  and  C_15
                            x       y       z     vdW  Elec       q    Type
                         _______ _______ _______ _____ _____    ______ ____

>  <TORSDO>
F 2

$$$$
=
 OpenBabel11052418313D

 27 31  0  0  1  0  0  0  0  0999 V2000
  188.5690  176.7150  143.2160 N   0  0  0  0  0  0  0  0  0  0  0  0
  187.5720  177.0700  142.2630 C   0  0  0  0  0  0  0  0  0  0  0  0
  186.5920  177.4080  144.3780 C   0  0  2  0  0  3  0  0  0  0  0  0
  184.2780  177.9760  139.9820 C   0  0  0  0  0  3  0  0  0  0  0  0
  183.0190  178.4420  140.5900 C   0  0  0  0  0  3  0  0  0  0  0  0
  187.6450  176.9010  140.9400 C   0  0  0  0  0  3  0  0  0  0  0  0
  183.9210  178.0360  142.8840 C   0  0  0  0  0  3  0  0  0  0  0  0
  187.6920  177.1520  146.9750 C   0  0  2  0  0  3  0  0  0  0  0  0
  185.3490  179.6200  145.0900 C   0  0  0  0  0  1  0  0  0  0  0  0
  186.9450  176.0770  147.7380 C   0  0  0  0  0  1  0  0  0  0  0  0
  185.2530  177.8110  142.2180 C   0  0  0  0  0  0  0  0  0  0  0  0
  182.8600  178.4940  141.9170 C   0  0  0  0  0  3  0  0  0  0  0  0
  185.3330  177.6790  140.7400 C   0  0  2  0  0  3  0  0  0  0  0  0
  188.1080  177.2760  144.4820 C   0  0  1  0  0  3  0  0  0  0  0  0
  186.3780  177.5840  142.9090 C   0  0  0  0  0  0  0  0  0  0  0  0
  186.7370  178.3000  146.6300 C   0  0  0  0  0  3  0  0  0  0  0  0
  186.5320  177.2380  140.1500 O   0  0  0  0  0  0  0  0  0  0  0  0
  189.8020  176.5180  145.9960 O   0  0  0  0  0  1  0  0  0  0  0  0
  188.4270  176.5090  145.7610 C   0  0  1  0  0  3  0  0  0  0  0  0
  186.2030  178.4380  145.4000 C   0  0  0  0  0  0  0  0  0  0  0  0
  189.9760  176.4970  142.8870 C   0  0  0  0  0  2  0  0  0  0  0  0
  190.7970  172.3040  142.5020 C   0  0  0  0  0  3  0  0  0  0  0  0
  190.2720  175.0390  142.7680 C   0  0  0  0  0  0  0  0  0  0  0  0
  189.4490  174.1030  143.4030 C   0  0  0  0  0  3  0  0  0  0  0  0
  189.7120  172.7360  143.2710 C   0  0  0  0  0  3  0  0  0  0  0  0
  191.6180  173.2380  141.8620 C   0  0  0  0  0  3  0  0  0  0  0  0
  191.3540  174.6050  141.9940 C   0  0  0  0  0  3  0  0  0  0  0  0
  2 15  1  0  0  0  0
  2  1  1  0  0  0  0
  3 15  1  6  0  0  0
  3 14  1  0  0  0  0
  3 20  1  0  0  0  0
  4  5  2  0  0  0  0
  5 12  1  0  0  0  0
  6  2  2  0  0  0  0
  8 10  1  6  0  0  0
  9 20  1  0  0  0  0
 11  7  1  0  0  0  0
 11 15  2  0  0  0  0
 12  7  2  0  0  0  0
 13  4  1  6  0  0  0
 13 11  1  0  0  0  0
 14  1  1  6  0  0  0
 14 19  1  0  0  0  0
 16  8  1  0  0  0  0
 17 13  1  0  0  0  0
 17  6  1  0  0  0  0
 19 18  1  1  0  0  0
 19  8  1  0  0  0  0
 20 16  2  0  0  0  0
 21  1  1  0  0  0  0
 22 25  1  0  0  0  0
 23 21  1  0  0  0  0
 23 24  1  0  0  0  0
 25 24  2  0  0  0  0
 26 27  1  0  0  0  0
 26 22  2  0  0  0  0
 27 23  2  0  0  0  0
M  END
>  <MODEL>
7

>  <REMARK>
 VINA RESULT:      -7.0      1.334      1.622
  Name = 
  2 active torsions:
  status: ('A' for Active; 'I' for Inactive)
    1  A    between atoms: N_1  and  C_15
    2  A    between atoms: C_9  and  C_15
                            x       y       z     vdW  Elec       q    Type
                         _______ _______ _______ _____ _____    ______ ____

>  <TORSDO>
F 2

$$$$
=
 OpenBabel11052418313D

 27 31  0  0  1  0  0  0  0  0999 V2000
  190.4240  174.5050  144.9030 N   0  0  0  0  0  0  0  0  0  0  0  0
  190.4920  174.0780  143.5460 C   0  0  0  0  0  0  0  0  0  0  0  0
  188.7110  175.6160  143.6480 C   0  0  2  0  0  3  0  0  0  0  0  0
  190.0760  173.0220  139.5980 C   0  0  0  0  0  3  0  0  0  0  0  0
  189.0760  173.6630  138.7260 C   0  0  0  0  0  3  0  0  0  0  0  0
  191.2650  173.1030  143.0610 C   0  0  0  0  0  3  0  0  0  0  0  0
  188.1120  174.9090  140.6650 C   0  0  0  0  0  2  0  0  0  0  0  0
  187.7620  177.1870  145.8050 C   0  0  2  0  0  3  0  0  0  0  0  0
  188.4250  177.6530  142.0000 C   0  0  0  0  0  1  0  0  0  0  0  0
  186.3320  176.7990  146.1230 C   0  0  0  0  0  1  0  0  0  0  0  0
  189.3020  174.4190  141.4480 C   0  0  0  0  0  0  0  0  0  0  0  0
  188.1910  174.5450  139.2050 C   0  0  0  0  0  3  0  0  0  0  0  0
  190.1900  173.3720  140.8780 C   0  0  0  0  0  0  0  0  0  0  0  0
  189.5990  175.7100  144.8860 C   0  0  1  0  0  3  0  0  0  0  0  0
  189.5330  174.7860  142.7160 C   0  0  0  0  0  0  0  0  0  0  0  0
  187.8390  177.7580  144.3850 C   0  0  0  0  0  3  0  0  0  0  0  0
  191.1490  172.7570  141.7030 O   0  0  0  0  0  0  0  0  0  0  0  0
  189.4790  176.2500  147.2150 O   0  0  0  0  0  1  0  0  0  0  0  0
  188.7020  175.9770  146.0900 C   0  0  1  0  0  3  0  0  0  0  0  0
  188.2880  177.0250  143.3460 C   0  0  0  0  0  0  0  0  0  0  0  0
  191.4620  174.2460  145.8960 C   0  0  0  0  0  2  0  0  0  0  0  0
  194.5670  177.2030  145.7230 C   0  0  0  0  0  3  0  0  0  0  0  0
  192.5300  175.2870  145.8300 C   0  0  0  0  0  0  0  0  0  0  0  0
  192.7910  176.0950  146.9410 C   0  0  0  0  0  3  0  0  0  0  0  0
  193.8080  177.0540  146.8880 C   0  0  0  0  0  3  0  0  0  0  0  0
  194.3110  176.3920  144.6120 C   0  0  0  0  0  3  0  0  0  0  0  0
  193.2940  175.4330  144.6660 C   0  0  0  0  0  3  0  0  0  0  0  0
  1 21  1  0  0  0  0
  2  1  1  0  0  0  0
  3 15  1  6  0  0  0
  3 14  1  0  0  0  0
  4 13  2  0  0  0  0
  5 12  2  0  0  0  0
  5  4  1  0  0  0  0
  6  2  2  0  0  0  0
  7 11  1  0  0  0  0
  8 19  1  0  0  0  0
  8 10  1  6  0  0  0
  9 20  1  0  0  0  0
 11 15  2  0  0  0  0
 12  7  1  0  0  0  0
 13 11  1  0  0  0  0
 13 17  1  0  0  0  0
 14  1  1  1  0  0  0
 14 19  1  0  0  0  0
 15  2  1  0  0  0  0
 16  8  1  0  0  0  0
 17  6  1  0  0  0  0
 19 18  1  1  0  0  0
 20  3  1  0  0  0  0
 20 16  2  0  0  0  0
 22 25  1  0  0  0  0
 23 21  1  0  0  0  0
 23 24  1  0  0  0  0
 25 24  2  0  0  0  0
 26 27  1  0  0  0  0
 26 22  2  0  0  0  0
 27 23  2  0  0  0  0
M  END
>  <MODEL>
8

>  <REMARK>
 VINA RESULT:      -7.0      2.738      4.445
  Name = 
  2 active torsions:
  status: ('A' for Active; 'I' for Inactive)
    1  A    between atoms: N_1  and  C_15
    2  A    between atoms: C_9  and  C_15
                            x       y       z     vdW  Elec       q    Type
                         _______ _______ _______ _____ _____    ______ ____

>  <TORSDO>
F 2

$$$$
=
 OpenBabel11052418313D

 27 31  0  0  1  0  0  0  0  0999 V2000
  190.7050  177.2170  143.7990 N   0  0  0  0  0  0  0  0  0  0  0  0
  189.3610  177.5900  143.5130 C   0  0  0  0  0  0  0  0  0  0  0  0
  189.4130  177.0850  145.8130 C   0  0  2  0  0  3  0  0  0  0  0  0
  185.3310  178.3290  143.2080 C   0  0  0  0  0  3  0  0  0  0  0  0
  184.4480  178.3040  144.3880 C   0  0  0  0  0  3  0  0  0  0  0  0
  188.8440  177.8230  142.3040 C   0  0  0  0  0  3  0  0  0  0  0  0
  186.3160  177.4840  145.8300 C   0  0  0  0  0  3  0  0  0  0  0  0
  191.5820  176.3630  147.4870 C   0  0  2  0  0  3  0  0  0  0  0  0
  188.4490  178.6620  147.6920 C   0  0  0  0  0  1  0  0  0  0  0  0
  191.3470  174.9760  148.0490 C   0  0  0  0  0  1  0  0  0  0  0  0
  187.2170  177.7660  144.6570 C   0  0  0  0  0  0  0  0  0  0  0  0
  184.8990  177.9420  145.5930 C   0  0  0  0  0  3  0  0  0  0  0  0
  186.6340  178.0780  143.3260 C   0  0  2  0  0  3  0  0  0  0  0  0
  190.8200  177.2780  145.2540 C   0  0  1  0  0  3  0  0  0  0  0  0
  188.5480  177.6150  144.7170 C   0  0  0  0  0  0  0  0  0  0  0  0
  190.4840  177.3130  147.9790 C   0  0  0  0  0  3  0  0  0  0  0  0
  187.4710  178.1060  142.1960 O   0  0  0  0  0  0  0  0  0  0  0  0
  193.0680  176.5300  145.5960 O   0  0  0  0  0  1  0  0  0  0  0  0
  191.7410  176.2740  145.9390 C   0  0  1  0  0  3  0  0  0  0  0  0
  189.4440  177.6680  147.1970 C   0  0  0  0  0  0  0  0  0  0  0  0
  191.8250  177.4280  142.8870 C   0  0  0  0  0  2  0  0  0  0  0  0
  193.3930  173.6920  141.4740 C   0  0  0  0  0  3  0  0  0  0  0  0
  192.3740  176.1230  142.4130 C   0  0  0  0  0  0  0  0  0  0  0  0
  191.5250  175.0230  142.2520 C   0  0  0  0  0  3  0  0  0  0  0  0
  192.0350  173.8070  141.7840 C   0  0  0  0  0  3  0  0  0  0  0  0
  194.2430  174.7930  141.6300 C   0  0  0  0  0  3  0  0  0  0  0  0
  193.7330  176.0080  142.0970 C   0  0  0  0  0  3  0  0  0  0  0  0
  2  1  1  0  0  0  0
  2 15  1  0  0  0  0
  3 15  1  6  0  0  0
  3 20  1  0  0  0  0
  4  5  2  0  0  0  0
  5 12  1  0  0  0  0
  6  2  2  0  0  0  0
  8 16  1  0  0  0  0
  8 10  1  6  0  0  0
 11 15  2  0  0  0  0
 11  7  1  0  0  0  0
 12  7  2  0  0  0  0
 13  4  1  1  0  0  0
 13 11  1  0  0  0  0
 14  1  1  6  0  0  0
 14  3  1  0  0  0  0
 14 19  1  0  0  0  0
 17  6  1  0  0  0  0
 17 13  1  0  0  0  0
 19 18  1  1  0  0  0
 19  8  1  0  0  0  0
 20  9  1  0  0  0  0
 20 16  2  0  0  0  0
 21  1  1  0  0  0  0
 22 26  2  0  0  0  0
 22 25  1  0  0  0  0
 23 21  1  0  0  0  0
 24 23  1  0  0  0  0
 25 24  2  0  0  0  0
 26 27  1  0  0  0  0
 27 23  2  0  0  0  0
M  END
>  <MODEL>
9

>  <REMARK>
 VINA RESULT:      -7.0      2.237      3.655
  Name = 
  2 active torsions:
  status: ('A' for Active; 'I' for Inactive)
    1  A    between atoms: N_1  and  C_15
    2  A    between atoms: C_9  and  C_15
                            x       y       z     vdW  Elec       q    Type
                         _______ _______ _______ _____ _____    ______ ____

>  <TORSDO>
F 2

$$$$
