=
 OpenBabel11052418363D

 34 38  0  0  1  0  0  0  0  0999 V2000
  192.2360  174.4550  141.3370 C   0  0  1  0  0  3  0  0  0  0  0  0
  190.1290  173.3130  142.3170 C   0  0  1  0  0  3  0  0  0  0  0  0
  191.6560  174.7910  143.7580 C   0  0  0  0  0  0  0  0  0  0  0  0
  191.6860  176.3290  146.4000 C   0  0  0  0  0  3  0  0  0  0  0  0
  189.9710  172.8470  141.0240 F   0  0  0  0  0  0  0  0  0  0  0  0
  189.2090  174.7250  144.1070 C   0  0  0  0  0  2  0  0  0  0  0  0
  191.5490  173.8460  142.5770 C   0  0  2  0  0  3  0  0  0  0  0  0
  190.6890  176.3050  145.4990 C   0  0  0  0  0  0  0  0  0  0  0  0
  193.0220  175.3760  143.9950 C   0  0  1  0  0  3  0  0  0  0  0  0
  193.3610  175.4300  141.7420 C   0  0  0  0  0  2  0  0  0  0  0  0
  189.0760  174.3560  142.6370 C   0  0  0  0  0  2  0  0  0  0  0  0
  192.8850  175.4660  146.4380 C   0  0  0  0  0  3  0  0  0  0  0  0
  193.5090  174.9680  145.3630 C   0  0  0  0  0  0  0  0  0  0  0  0
  190.5780  175.2720  144.4180 C   0  0  0  0  0  0  0  0  0  0  0  0
  193.9370  175.0420  142.9680 O   0  0  0  0  0  0  0  0  0  0  0  0
  195.4310  171.7090  145.7040 C   0  0  0  0  0  0  0  0  0  0  0  0
  196.7140  172.1740  146.0010 C   0  0  0  0  0  3  0  0  0  0  0  0
  194.6190  174.0010  145.5640 C   0  0  0  0  0  0  0  0  0  0  0  0
  196.9550  173.5480  146.0870 C   0  0  0  0  0  3  0  0  0  0  0  0
  194.3900  172.6170  145.4910 C   0  0  0  0  0  3  0  0  0  0  0  0
  195.9130  174.4550  145.8730 C   0  0  0  0  0  3  0  0  0  0  0  0
  195.1940  170.3770  145.6250 F   0  0  0  0  0  0  0  0  0  0  0  0
  192.7770  173.9360  139.2500 C   0  0  0  0  0  1  0  0  0  0  0  0
  192.7710  173.4300  140.5530 O   0  0  0  0  0  0  0  0  0  0  0  0
  189.6620  177.2880  145.6700 N   0  0  0  0  0  2  0  0  0  0  0  0
  188.6670  177.2500  146.7300 C   0  0  0  0  0  2  0  0  0  0  0  0
  187.3140  176.8970  146.1430 C   0  0  0  0  0  2  0  0  0  0  0  0
  186.0220  176.3480  143.6600 O   0  0  0  0  0  1  0  0  0  0  0  0
  186.8300  178.0090  145.2240 C   0  0  1  0  0  3  0  0  0  0  0  0
  186.7020  177.5650  143.7530 C   0  0  2  0  0  3  0  0  0  0  0  0
  185.7380  179.8070  143.6450 O   0  0  0  0  0  0  0  0  0  0  0  0
  184.8430  179.4780  144.6790 C   0  0  0  0  0  2  0  0  0  0  0  0
  185.5310  178.6220  145.7520 C   0  0  0  0  0  2  0  0  0  0  0  0
  185.9540  178.6190  142.9190 C   0  0  0  0  0  2  0  0  0  0  0  0
  1 24  1  6  0  0  0
  1 10  1  0  0  0  0
  1  7  1  0  0  0  0
  2  5  1  6  0  0  0
  2  7  1  0  0  0  0
  2 11  1  0  0  0  0
  3  9  1  0  0  0  0
  3 14  2  0  0  0  0
  4 12  1  0  0  0  0
  6 14  1  0  0  0  0
  7  3  1  1  0  0  0
  8 25  1  0  0  0  0
  8  4  2  0  0  0  0
  9 15  1  6  0  0  0
  9 13  1  0  0  0  0
 10 15  1  0  0  0  0
 11  6  1  0  0  0  0
 13 18  1  0  0  0  0
 13 12  2  0  0  0  0
 14  8  1  0  0  0  0
 16 17  1  0  0  0  0
 17 19  2  0  0  0  0
 18 21  2  0  0  0  0
 20 18  1  0  0  0  0
 20 16  2  0  0  0  0
 21 19  1  0  0  0  0
 22 16  1  0  0  0  0
 23 24  1  0  0  0  0
 25 26  1  0  0  0  0
 27 26  1  0  0  0  0
 29 33  1  0  0  0  0
 29 27  1  1  0  0  0
 30 28  1  1  0  0  0
 30 29  1  0  0  0  0
 31 32  1  0  0  0  0
 32 33  1  0  0  0  0
 34 31  1  0  0  0  0
 34 30  1  0  0  0  0
M  END
>  <MODEL>
1

>  <REMARK>
 VINA RESULT:      -7.8      0.000      0.000
  Name = 
  6 active torsions:
  status: ('A' for Active; 'I' for Inactive)
    1  A    between atoms: C_1  and  O_19
    2  A    between atoms: C_3  and  C_13
    3  A    between atoms: C_3  and  C_17
    4  A    between atoms: C_12  and  C_28
    5  A    between atoms: C_17  and  N_29
    6  A    between atoms: C_18  and  N_29
                            x       y       z     vdW  Elec       q    Type
                         _______ _______ _______ _____ _____    ______ ____

>  <TORSDO>
F 6

$$$$
=
 OpenBabel11052418363D

 34 38  0  0  1  0  0  0  0  0999 V2000
  190.6800  175.2980  145.6770 C   0  0  1  0  0  3  0  0  0  0  0  0
  191.4880  177.2910  144.2350 C   0  0  1  0  0  3  0  0  0  0  0  0
  189.8520  175.5370  143.3180 C   0  0  0  0  0  0  0  0  0  0  0  0
  187.8390  175.1020  141.0570 C   0  0  0  0  0  3  0  0  0  0  0  0
  192.1840  177.6360  145.3800 F   0  0  0  0  0  0  0  0  0  0  0  0
  189.7070  177.9160  142.6580 C   0  0  0  0  0  2  0  0  0  0  0  0
  190.9980  175.8320  144.2650 C   0  0  2  0  0  3  0  0  0  0  0  0
  187.9780  176.2120  141.8030 C   0  0  0  0  0  0  0  0  0  0  0  0
  189.3130  174.1330  143.3740 C   0  0  1  0  0  3  0  0  0  0  0  0
  189.7120  174.0980  145.6180 C   0  0  0  0  0  2  0  0  0  0  0  0
  190.3430  178.2570  143.9980 C   0  0  0  0  0  2  0  0  0  0  0  0
  188.7470  173.9380  141.0000 C   0  0  0  0  0  3  0  0  0  0  0  0
  189.4780  173.4800  142.0250 C   0  0  0  0  0  0  0  0  0  0  0  0
  189.1910  176.5000  142.6360 C   0  0  0  0  0  0  0  0  0  0  0  0
  189.8910  173.3760  144.4210 O   0  0  0  0  0  0  0  0  0  0  0  0
  190.9910  170.0120  141.6790 C   0  0  0  0  0  0  0  0  0  0  0  0
  192.3160  170.3190  141.3630 C   0  0  0  0  0  3  0  0  0  0  0  0
  190.4520  172.3850  141.7770 C   0  0  0  0  0  0  0  0  0  0  0  0
  192.7180  171.6540  141.2590 C   0  0  0  0  0  3  0  0  0  0  0  0
  190.0660  171.0400  141.8880 C   0  0  0  0  0  3  0  0  0  0  0  0
  191.7920  172.6800  141.4680 C   0  0  0  0  0  3  0  0  0  0  0  0
  190.6010  168.7190  141.7840 F   0  0  0  0  0  0  0  0  0  0  0  0
  191.7140  175.2910  147.6390 C   0  0  0  0  0  1  0  0  0  0  0  0
  191.8660  174.9070  146.3040 O   0  0  0  0  0  0  0  0  0  0  0  0
  186.9230  177.1740  141.7030 N   0  0  0  0  0  2  0  0  0  0  0  0
  185.8940  177.3620  142.7130 C   0  0  0  0  0  2  0  0  0  0  0  0
  186.0810  178.7090  143.3840 C   0  0  0  0  0  2  0  0  0  0  0  0
  184.0080  178.7180  145.3440 O   0  0  0  0  0  1  0  0  0  0  0  0
  186.3730  178.5250  144.8660 C   0  0  1  0  0  3  0  0  0  0  0  0
  185.2770  179.1140  145.7760 C   0  0  2  0  0  3  0  0  0  0  0  0
  186.6900  177.9910  147.4230 O   0  0  0  0  0  0  0  0  0  0  0  0
  186.5920  176.7910  146.6970 C   0  0  0  0  0  2  0  0  0  0  0  0
  186.6520  177.0540  145.1850 C   0  0  0  0  0  2  0  0  0  0  0  0
  185.4680  178.6660  147.2360 C   0  0  0  0  0  2  0  0  0  0  0  0
  1 24  1  6  0  0  0
  2  7  1  0  0  0  0
  2  5  1  1  0  0  0
  3  9  1  0  0  0  0
  4  8  2  0  0  0  0
  6 11  1  0  0  0  0
  7  3  1  6  0  0  0
  7  1  1  0  0  0  0
  8 14  1  0  0  0  0
  9 13  1  6  0  0  0
  9 15  1  0  0  0  0
 10  1  1  0  0  0  0
 11  2  1  0  0  0  0
 12  4  1  0  0  0  0
 12 13  2  0  0  0  0
 14  6  1  0  0  0  0
 14  3  2  0  0  0  0
 15 10  1  0  0  0  0
 16 22  1  0  0  0  0
 16 20  1  0  0  0  0
 17 16  2  0  0  0  0
 18 20  2  0  0  0  0
 18 13  1  0  0  0  0
 19 17  1  0  0  0  0
 19 21  2  0  0  0  0
 21 18  1  0  0  0  0
 24 23  1  0  0  0  0
 25  8  1  0  0  0  0
 25 26  1  0  0  0  0
 26 27  1  0  0  0  0
 29 27  1  6  0  0  0
 29 33  1  0  0  0  0
 29 30  1  0  0  0  0
 30 28  1  6  0  0  0
 30 34  1  0  0  0  0
 32 31  1  0  0  0  0
 33 32  1  0  0  0  0
 34 31  1  0  0  0  0
M  END
>  <MODEL>
2

>  <REMARK>
 VINA RESULT:      -7.8      3.196      5.063
  Name = 
  6 active torsions:
  status: ('A' for Active; 'I' for Inactive)
    1  A    between atoms: C_1  and  O_19
    2  A    between atoms: C_3  and  C_13
    3  A    between atoms: C_3  and  C_17
    4  A    between atoms: C_12  and  C_28
    5  A    between atoms: C_17  and  N_29
    6  A    between atoms: C_18  and  N_29
                            x       y       z     vdW  Elec       q    Type
                         _______ _______ _______ _____ _____    ______ ____

>  <TORSDO>
F 6

$$$$
=
 OpenBabel11052418363D

 34 38  0  0  1  0  0  0  0  0999 V2000
  190.6850  175.2230  145.7630 C   0  0  1  0  0  3  0  0  0  0  0  0
  191.5700  177.1620  144.2920 C   0  0  1  0  0  3  0  0  0  0  0  0
  190.0100  175.3550  143.3470 C   0  0  0  0  0  0  0  0  0  0  0  0
  188.1520  174.8050  140.9810 C   0  0  0  0  0  3  0  0  0  0  0  0
  192.1870  177.5610  145.4640 F   0  0  0  0  0  0  0  0  0  0  0  0
  189.8910  177.7020  142.5790 C   0  0  0  0  0  2  0  0  0  0  0  0
  191.0900  175.7010  144.3530 C   0  0  2  0  0  3  0  0  0  0  0  0
  188.2340  175.9460  141.6870 C   0  0  0  0  0  0  0  0  0  0  0  0
  189.4790  173.9490  143.4280 C   0  0  1  0  0  3  0  0  0  0  0  0
  189.7310  174.0120  145.6920 C   0  0  0  0  0  2  0  0  0  0  0  0
  190.4350  178.1060  143.9410 C   0  0  0  0  0  2  0  0  0  0  0  0
  189.0700  173.6490  141.0320 C   0  0  0  0  0  3  0  0  0  0  0  0
  189.7360  173.2420  142.1200 C   0  0  0  0  0  0  0  0  0  0  0  0
  189.3880  176.2820  142.5830 C   0  0  0  0  0  0  0  0  0  0  0  0
  189.9930  173.2420  144.5410 O   0  0  0  0  0  0  0  0  0  0  0  0
  193.0160  171.4000  141.5860 C   0  0  0  0  0  0  0  0  0  0  0  0
  192.6020  170.0690  141.6680 C   0  0  0  0  0  3  0  0  0  0  0  0
  190.7320  172.1470  141.9830 C   0  0  0  0  0  0  0  0  0  0  0  0
  191.2570  169.7700  141.9000 C   0  0  0  0  0  3  0  0  0  0  0  0
  192.0850  172.4320  141.7400 C   0  0  0  0  0  3  0  0  0  0  0  0
  190.3280  170.8030  142.0530 C   0  0  0  0  0  3  0  0  0  0  0  0
  194.3190  171.6920  141.3570 F   0  0  0  0  0  0  0  0  0  0  0  0
  191.5760  175.2810  147.7920 C   0  0  0  0  0  1  0  0  0  0  0  0
  191.8290  174.8710  146.4810 O   0  0  0  0  0  0  0  0  0  0  0  0
  187.1800  176.8930  141.4780 N   0  0  0  0  0  2  0  0  0  0  0  0
  186.1240  177.1610  142.4400 C   0  0  0  0  0  2  0  0  0  0  0  0
  186.3270  178.5360  143.0470 C   0  0  0  0  0  2  0  0  0  0  0  0
  184.2540  178.9660  144.9590 O   0  0  0  0  0  1  0  0  0  0  0  0
  186.5750  178.4200  144.5440 C   0  0  1  0  0  3  0  0  0  0  0  0
  185.5600  179.2160  145.3890 C   0  0  2  0  0  3  0  0  0  0  0  0
  186.7890  178.0320  147.1380 O   0  0  0  0  0  0  0  0  0  0  0  0
  186.5350  176.8070  146.4950 C   0  0  0  0  0  2  0  0  0  0  0  0
  186.6470  176.9510  144.9700 C   0  0  0  0  0  2  0  0  0  0  0  0
  185.6720  178.8510  146.8800 C   0  0  0  0  0  2  0  0  0  0  0  0
  1 24  1  1  0  0  0
  2  7  1  0  0  0  0
  2  5  1  1  0  0  0
  3  9  1  0  0  0  0
  4 12  1  0  0  0  0
  4  8  2  0  0  0  0
  6 14  1  0  0  0  0
  6 11  1  0  0  0  0
  7  3  1  6  0  0  0
  7  1  1  0  0  0  0
  8 14  1  0  0  0  0
  9 13  1  6  0  0  0
  9 15  1  0  0  0  0
 10  1  1  0  0  0  0
 11  2  1  0  0  0  0
 12 13  2  0  0  0  0
 14  3  2  0  0  0  0
 15 10  1  0  0  0  0
 16 17  2  0  0  0  0
 16 20  1  0  0  0  0
 17 19  1  0  0  0  0
 18 21  1  0  0  0  0
 18 13  1  0  0  0  0
 19 21  2  0  0  0  0
 20 18  2  0  0  0  0
 22 16  1  0  0  0  0
 24 23  1  0  0  0  0
 25  8  1  0  0  0  0
 25 26  1  0  0  0  0
 26 27  1  0  0  0  0
 29 27  1  6  0  0  0
 29 33  1  0  0  0  0
 29 30  1  0  0  0  0
 30 28  1  6  0  0  0
 30 34  1  0  0  0  0
 32 31  1  0  0  0  0
 33 32  1  0  0  0  0
 34 31  1  0  0  0  0
M  END
>  <MODEL>
3

>  <REMARK>
 VINA RESULT:      -7.7      3.116      4.987
  Name = 
  6 active torsions:
  status: ('A' for Active; 'I' for Inactive)
    1  A    between atoms: C_1  and  O_19
    2  A    between atoms: C_3  and  C_13
    3  A    between atoms: C_3  and  C_17
    4  A    between atoms: C_12  and  C_28
    5  A    between atoms: C_17  and  N_29
    6  A    between atoms: C_18  and  N_29
                            x       y       z     vdW  Elec       q    Type
                         _______ _______ _______ _____ _____    ______ ____

>  <TORSDO>
F 6

$$$$
=
 OpenBabel11052418363D

 34 38  0  0  1  0  0  0  0  0999 V2000
  191.1130  173.0560  141.2210 C   0  0  1  0  0  3  0  0  0  0  0  0
  188.9810  172.6560  142.6340 C   0  0  1  0  0  3  0  0  0  0  0  0
  190.1110  174.9580  142.5190 C   0  0  0  0  0  0  0  0  0  0  0  0
  189.5660  177.9150  143.0770 C   0  0  0  0  0  3  0  0  0  0  0  0
  189.0820  171.3680  142.1380 F   0  0  0  0  0  0  0  0  0  0  0  0
  187.6550  174.7260  142.6910 C   0  0  0  0  0  2  0  0  0  0  0  0
  190.2850  173.4540  142.4610 C   0  0  2  0  0  3  0  0  0  0  0  0
  188.7380  177.0500  142.4660 C   0  0  0  0  0  0  0  0  0  0  0  0
  191.3610  175.7630  142.2890 C   0  0  1  0  0  3  0  0  0  0  0  0
  192.0650  174.1930  140.7940 C   0  0  0  0  0  2  0  0  0  0  0  0
  187.8010  173.3750  142.0070 C   0  0  0  0  0  2  0  0  0  0  0  0
  190.8120  177.6040  143.8060 C   0  0  0  0  0  3  0  0  0  0  0  0
  191.6480  176.6010  143.5100 C   0  0  0  0  0  0  0  0  0  0  0  0
  188.9000  175.5610  142.5390 C   0  0  0  0  0  0  0  0  0  0  0  0
  192.4600  174.9550  141.9120 O   0  0  0  0  0  0  0  0  0  0  0  0
  195.1800  176.0560  144.7980 C   0  0  0  0  0  0  0  0  0  0  0  0
  194.9410  175.7500  146.1400 C   0  0  0  0  0  3  0  0  0  0  0  0
  192.7900  176.3270  144.4210 C   0  0  0  0  0  0  0  0  0  0  0  0
  193.6320  175.7240  146.6270 C   0  0  0  0  0  3  0  0  0  0  0  0
  194.1100  176.3390  143.9440 C   0  0  0  0  0  3  0  0  0  0  0  0
  192.5630  176.0080  145.7710 C   0  0  0  0  0  3  0  0  0  0  0  0
  196.4490  176.0780  144.3240 F   0  0  0  0  0  0  0  0  0  0  0  0
  192.8050  171.8260  140.4840 C   0  0  0  0  0  1  0  0  0  0  0  0
  191.8590  171.9100  141.5090 O   0  0  0  0  0  0  0  0  0  0  0  0
  187.6150  177.6240  141.7880 N   0  0  0  0  0  2  0  0  0  0  0  0
  186.7420  178.6310  142.3690 C   0  0  0  0  0  2  0  0  0  0  0  0
  185.7550  177.9670  143.3090 C   0  0  0  0  0  2  0  0  0  0  0  0
  183.9140  178.6650  145.3720 O   0  0  0  0  0  1  0  0  0  0  0  0
  186.1960  178.1510  144.7530 C   0  0  1  0  0  3  0  0  0  0  0  0
  185.2440  179.0490  145.5670 C   0  0  2  0  0  3  0  0  0  0  0  0
  186.7600  178.2780  147.3200 O   0  0  0  0  0  0  0  0  0  0  0  0
  186.5120  176.9420  146.9550 C   0  0  0  0  0  2  0  0  0  0  0  0
  186.4220  176.7960  145.4280 C   0  0  0  0  0  2  0  0  0  0  0  0
  185.5660  178.9830  147.0700 C   0  0  0  0  0  2  0  0  0  0  0  0
  1 24  1  1  0  0  0
  1  7  1  0  0  0  0
  2  5  1  6  0  0  0
  3 14  2  0  0  0  0
  4 12  1  0  0  0  0
  7  3  1  6  0  0  0
  7  2  1  0  0  0  0
  8 14  1  0  0  0  0
  8  4  2  0  0  0  0
  9 15  1  1  0  0  0
  9  3  1  0  0  0  0
  9 13  1  0  0  0  0
 10  1  1  0  0  0  0
 10 15  1  0  0  0  0
 11  2  1  0  0  0  0
 11  6  1  0  0  0  0
 13 12  2  0  0  0  0
 13 18  1  0  0  0  0
 14  6  1  0  0  0  0
 16 17  1  0  0  0  0
 17 19  2  0  0  0  0
 18 21  2  0  0  0  0
 20 18  1  0  0  0  0
 20 16  2  0  0  0  0
 21 19  1  0  0  0  0
 22 16  1  0  0  0  0
 23 24  1  0  0  0  0
 25 26  1  0  0  0  0
 25  8  1  0  0  0  0
 26 27  1  0  0  0  0
 29 27  1  6  0  0  0
 29 33  1  0  0  0  0
 29 30  1  0  0  0  0
 30 28  1  1  0  0  0
 30 34  1  0  0  0  0
 32 31  1  0  0  0  0
 33 32  1  0  0  0  0
 34 31  1  0  0  0  0
M  END
>  <MODEL>
4

>  <REMARK>
 VINA RESULT:      -7.6      2.334      3.282
  Name = 
  6 active torsions:
  status: ('A' for Active; 'I' for Inactive)
    1  A    between atoms: C_1  and  O_19
    2  A    between atoms: C_3  and  C_13
    3  A    between atoms: C_3  and  C_17
    4  A    between atoms: C_12  and  C_28
    5  A    between atoms: C_17  and  N_29
    6  A    between atoms: C_18  and  N_29
                            x       y       z     vdW  Elec       q    Type
                         _______ _______ _______ _____ _____    ______ ____

>  <TORSDO>
F 6

$$$$
=
 OpenBabel11052418363D

 34 38  0  0  1  0  0  0  0  0999 V2000
  189.8610  176.9550  145.8270 C   0  0  1  0  0  3  0  0  0  0  0  0
  189.4100  174.4560  146.3310 C   0  0  1  0  0  3  0  0  0  0  0  0
  189.2550  175.4020  143.9490 C   0  0  0  0  0  0  0  0  0  0  0  0
  189.2270  174.5100  141.0240 C   0  0  0  0  0  3  0  0  0  0  0  0
  189.7070  174.8250  147.6300 F   0  0  0  0  0  0  0  0  0  0  0  0
  190.0770  173.1110  144.3840 C   0  0  0  0  0  2  0  0  0  0  0  0
  189.1060  175.6690  145.4340 C   0  0  2  0  0  3  0  0  0  0  0  0
  190.0440  174.0580  141.9910 C   0  0  0  0  0  0  0  0  0  0  0  0
  189.0250  176.5890  143.0530 C   0  0  1  0  0  3  0  0  0  0  0  0
  189.9610  177.9330  144.6380 C   0  0  0  0  0  2  0  0  0  0  0  0
  190.5220  173.6020  145.7530 C   0  0  0  0  0  2  0  0  0  0  0  0
  188.0290  175.3600  141.1840 C   0  0  0  0  0  3  0  0  0  0  0  0
  187.8710  176.2990  142.1260 C   0  0  0  0  0  0  0  0  0  0  0  0
  189.7820  174.2590  143.4540 C   0  0  0  0  0  0  0  0  0  0  0  0
  188.8500  177.7890  143.7830 O   0  0  0  0  0  0  0  0  0  0  0  0
  184.7510  178.2920  141.2740 C   0  0  0  0  0  0  0  0  0  0  0  0
  184.0880  178.3060  142.5030 C   0  0  0  0  0  3  0  0  0  0  0  0
  186.5540  176.9770  142.2480 C   0  0  0  0  0  0  0  0  0  0  0  0
  184.6530  177.6640  143.6080 C   0  0  0  0  0  3  0  0  0  0  0  0
  185.9780  177.6350  141.1490 C   0  0  0  0  0  3  0  0  0  0  0  0
  185.8800  177.0060  143.4810 C   0  0  0  0  0  3  0  0  0  0  0  0
  184.2070  178.9180  140.2030 F   0  0  0  0  0  0  0  0  0  0  0  0
  187.8370  177.3920  146.6210 C   0  0  0  0  0  1  0  0  0  0  0  0
  189.1960  177.5790  146.8860 O   0  0  0  0  0  0  0  0  0  0  0  0
  191.1670  173.2840  141.5560 N   0  0  0  0  0  2  0  0  0  0  0  0
  192.5110  173.8160  141.4000 C   0  0  0  0  0  2  0  0  0  0  0  0
  192.5760  175.2110  141.9900 C   0  0  0  0  0  2  0  0  0  0  0  0
  195.1150  176.4850  141.7290 O   0  0  0  0  0  1  0  0  0  0  0  0
  193.5780  175.2540  143.1350 C   0  0  1  0  0  3  0  0  0  0  0  0
  195.0320  175.4470  142.6600 C   0  0  2  0  0  3  0  0  0  0  0  0
  195.3120  175.6120  145.0820 O   0  0  0  0  0  0  0  0  0  0  0  0
  194.3290  176.6160  145.1320 C   0  0  0  0  0  2  0  0  0  0  0  0
  193.1710  176.3040  144.1720 C   0  0  0  0  0  2  0  0  0  0  0  0
  195.9650  175.7620  143.8420 C   0  0  0  0  0  2  0  0  0  0  0  0
  1 24  1  1  0  0  0
  2  5  1  1  0  0  0
  4 12  1  0  0  0  0
  4  8  2  0  0  0  0
  6 11  1  0  0  0  0
  7  3  1  6  0  0  0
  7  1  1  0  0  0  0
  7  2  1  0  0  0  0
  8 14  1  0  0  0  0
  9 13  1  1  0  0  0
  9 15  1  0  0  0  0
  9  3  1  0  0  0  0
 10  1  1  0  0  0  0
 11  2  1  0  0  0  0
 12 13  2  0  0  0  0
 13 18  1  0  0  0  0
 14  3  2  0  0  0  0
 14  6  1  0  0  0  0
 15 10  1  0  0  0  0
 16 17  1  0  0  0  0
 17 19  2  0  0  0  0
 18 21  2  0  0  0  0
 20 16  2  0  0  0  0
 20 18  1  0  0  0  0
 21 19  1  0  0  0  0
 22 16  1  0  0  0  0
 23 24  1  0  0  0  0
 25  8  1  0  0  0  0
 26 25  1  0  0  0  0
 26 27  1  0  0  0  0
 29 27  1  6  0  0  0
 29 33  1  0  0  0  0
 30 28  1  6  0  0  0
 30 29  1  0  0  0  0
 30 34  1  0  0  0  0
 31 32  1  0  0  0  0
 33 32  1  0  0  0  0
 34 31  1  0  0  0  0
M  END
>  <MODEL>
5

>  <REMARK>
 VINA RESULT:      -7.6      3.009      8.347
  Name = 
  6 active torsions:
  status: ('A' for Active; 'I' for Inactive)
    1  A    between atoms: C_1  and  O_19
    2  A    between atoms: C_3  and  C_13
    3  A    between atoms: C_3  and  C_17
    4  A    between atoms: C_12  and  C_28
    5  A    between atoms: C_17  and  N_29
    6  A    between atoms: C_18  and  N_29
                            x       y       z     vdW  Elec       q    Type
                         _______ _______ _______ _____ _____    ______ ____

>  <TORSDO>
F 6

$$$$
=
 OpenBabel11052418363D

 34 38  0  0  1  0  0  0  0  0999 V2000
  190.4790  176.5160  145.9230 C   0  0  1  0  0  3  0  0  0  0  0  0
  189.7300  174.0420  146.0810 C   0  0  1  0  0  3  0  0  0  0  0  0
  189.0310  175.5410  144.1170 C   0  0  0  0  0  0  0  0  0  0  0  0
  187.9260  175.3840  141.2700 C   0  0  0  0  0  3  0  0  0  0  0  0
  190.4820  174.0520  147.2420 F   0  0  0  0  0  0  0  0  0  0  0  0
  189.4870  173.1300  143.8100 C   0  0  0  0  0  2  0  0  0  0  0  0
  189.4050  175.4620  145.5840 C   0  0  2  0  0  3  0  0  0  0  0  0
  188.8980  174.6190  141.7950 C   0  0  0  0  0  0  0  0  0  0  0  0
  188.7700  176.9270  143.5910 C   0  0  1  0  0  3  0  0  0  0  0  0
  190.3930  177.7300  144.9740 C   0  0  0  0  0  2  0  0  0  0  0  0
  190.4210  173.2220  145.0070 C   0  0  0  0  0  2  0  0  0  0  0  0
  187.0250  176.3110  141.9870 C   0  0  0  0  0  3  0  0  0  0  0  0
  187.3520  177.0090  143.0820 C   0  0  0  0  0  0  0  0  0  0  0  0
  189.1460  174.4950  143.2680 C   0  0  0  0  0  0  0  0  0  0  0  0
  189.0660  177.9300  144.5440 O   0  0  0  0  0  0  0  0  0  0  0  0
  184.6250  178.0030  145.5330 C   0  0  0  0  0  0  0  0  0  0  0  0
  184.2580  179.2580  145.0440 C   0  0  0  0  0  3  0  0  0  0  0  0
  186.2960  177.7930  143.7740 C   0  0  0  0  0  0  0  0  0  0  0  0
  184.8990  179.7830  143.9190 C   0  0  0  0  0  3  0  0  0  0  0  0
  185.6360  177.2740  144.8990 C   0  0  0  0  0  3  0  0  0  0  0  0
  185.9090  179.0530  143.2860 C   0  0  0  0  0  3  0  0  0  0  0  0
  184.0020  177.4900  146.6210 F   0  0  0  0  0  0  0  0  0  0  0  0
  191.5810  176.8650  147.8150 C   0  0  0  0  0  1  0  0  0  0  0  0
  190.3100  176.9450  147.2410 O   0  0  0  0  0  0  0  0  0  0  0  0
  189.6580  173.8410  140.8640 N   0  0  0  0  0  2  0  0  0  0  0  0
  191.0480  174.1040  140.5260 C   0  0  0  0  0  2  0  0  0  0  0  0
  191.9390  173.0920  141.2210 C   0  0  0  0  0  2  0  0  0  0  0  0
  194.6780  173.6480  140.6540 O   0  0  0  0  0  1  0  0  0  0  0  0
  192.8440  173.7890  142.2260 C   0  0  1  0  0  3  0  0  0  0  0  0
  194.3400  173.4920  142.0010 C   0  0  2  0  0  3  0  0  0  0  0  0
  194.4650  175.1840  143.7590 O   0  0  0  0  0  0  0  0  0  0  0  0
  193.6780  176.0550  142.9840 C   0  0  0  0  0  2  0  0  0  0  0  0
  192.5580  175.2920  142.2620 C   0  0  0  0  0  2  0  0  0  0  0  0
  195.2240  174.4240  142.8480 C   0  0  0  0  0  2  0  0  0  0  0  0
  1 24  1  1  0  0  0
  2  5  1  1  0  0  0
  4  8  2  0  0  0  0
  4 12  1  0  0  0  0
  6 11  1  0  0  0  0
  7  3  1  6  0  0  0
  7  1  1  0  0  0  0
  7  2  1  0  0  0  0
  8 14  1  0  0  0  0
  9 13  1  1  0  0  0
  9  3  1  0  0  0  0
  9 15  1  0  0  0  0
 10  1  1  0  0  0  0
 11  2  1  0  0  0  0
 12 13  2  0  0  0  0
 13 18  1  0  0  0  0
 14  6  1  0  0  0  0
 14  3  2  0  0  0  0
 15 10  1  0  0  0  0
 16 22  1  0  0  0  0
 17 16  1  0  0  0  0
 18 20  1  0  0  0  0
 19 17  2  0  0  0  0
 20 16  2  0  0  0  0
 21 18  2  0  0  0  0
 21 19  1  0  0  0  0
 24 23  1  0  0  0  0
 25  8  1  0  0  0  0
 26 25  1  0  0  0  0
 26 27  1  0  0  0  0
 29 27  1  6  0  0  0
 29 33  1  0  0  0  0
 30 28  1  6  0  0  0
 30 29  1  0  0  0  0
 30 34  1  0  0  0  0
 32 31  1  0  0  0  0
 33 32  1  0  0  0  0
 34 31  1  0  0  0  0
M  END
>  <MODEL>
6

>  <REMARK>
 VINA RESULT:      -7.5      2.822      8.228
  Name = 
  6 active torsions:
  status: ('A' for Active; 'I' for Inactive)
    1  A    between atoms: C_1  and  O_19
    2  A    between atoms: C_3  and  C_13
    3  A    between atoms: C_3  and  C_17
    4  A    between atoms: C_12  and  C_28
    5  A    between atoms: C_17  and  N_29
    6  A    between atoms: C_18  and  N_29
                            x       y       z     vdW  Elec       q    Type
                         _______ _______ _______ _____ _____    ______ ____

>  <TORSDO>
F 6

$$$$
=
 OpenBabel11052418363D

 34 38  0  0  1  0  0  0  0  0999 V2000
  191.6970  176.2890  144.8890 C   0  0  1  0  0  3  0  0  0  0  0  0
  191.1770  173.7540  144.9650 C   0  0  1  0  0  3  0  0  0  0  0  0
  189.6920  175.3970  143.6660 C   0  0  0  0  0  0  0  0  0  0  0  0
  187.5520  175.4680  141.4830 C   0  0  0  0  0  3  0  0  0  0  0  0
  192.3270  173.7000  145.7310 F   0  0  0  0  0  0  0  0  0  0  0  0
  190.0880  173.0930  142.8610 C   0  0  0  0  0  2  0  0  0  0  0  0
  190.6210  175.1840  144.8450 C   0  0  2  0  0  3  0  0  0  0  0  0
  188.6840  174.7430  141.4720 C   0  0  0  0  0  0  0  0  0  0  0  0
  189.1850  176.8030  143.4900 C   0  0  1  0  0  3  0  0  0  0  0  0
  191.1900  177.5910  144.2350 C   0  0  0  0  0  2  0  0  0  0  0  0
  191.4170  173.1340  143.6010 C   0  0  0  0  0  2  0  0  0  0  0  0
  186.9740  176.2140  142.6200 C   0  0  0  0  0  3  0  0  0  0  0  0
  187.6800  176.8080  143.5900 C   0  0  0  0  0  0  0  0  0  0  0  0
  189.5030  174.4730  142.6980 C   0  0  0  0  0  0  0  0  0  0  0  0
  189.7930  177.7120  144.3880 O   0  0  0  0  0  0  0  0  0  0  0  0
  186.1560  177.2630  147.0400 C   0  0  0  0  0  0  0  0  0  0  0  0
  185.5300  178.5040  146.9050 C   0  0  0  0  0  3  0  0  0  0  0  0
  186.9540  177.4010  144.7440 C   0  0  0  0  0  0  0  0  0  0  0  0
  185.6070  179.1950  145.6930 C   0  0  0  0  0  3  0  0  0  0  0  0
  186.8600  176.7140  145.9640 C   0  0  0  0  0  3  0  0  0  0  0  0
  186.3120  178.6450  144.6180 C   0  0  0  0  0  3  0  0  0  0  0  0
  186.0790  176.5890  148.2130 F   0  0  0  0  0  0  0  0  0  0  0  0
  193.4420  176.6380  146.2120 C   0  0  0  0  0  1  0  0  0  0  0  0
  192.0480  176.5440  146.2170 O   0  0  0  0  0  0  0  0  0  0  0  0
  189.0430  174.1550  140.2160 N   0  0  0  0  0  2  0  0  0  0  0  0
  188.3140  173.0640  139.5910 C   0  0  0  0  0  2  0  0  0  0  0  0
  189.2790  172.1890  138.8140 C   0  0  0  0  0  2  0  0  0  0  0  0
  190.4360  169.6220  139.2710 O   0  0  0  0  0  1  0  0  0  0  0  0
  190.5760  172.0160  139.5910 C   0  0  1  0  0  3  0  0  0  0  0  0
  190.7280  170.6140  140.2110 C   0  0  2  0  0  3  0  0  0  0  0  0
  192.9190  171.5770  140.7060 O   0  0  0  0  0  0  0  0  0  0  0  0
  193.0920  171.8920  139.3460 C   0  0  0  0  0  2  0  0  0  0  0  0
  191.7800  172.3930  138.7240 C   0  0  0  0  0  2  0  0  0  0  0  0
  192.1560  170.3920  140.7400 C   0  0  0  0  0  2  0  0  0  0  0  0
  1 24  1  1  0  0  0
  2  5  1  6  0  0  0
  4 12  1  0  0  0  0
  6 11  1  0  0  0  0
  7  3  1  6  0  0  0
  7  1  1  0  0  0  0
  7  2  1  0  0  0  0
  8  4  2  0  0  0  0
  8 14  1  0  0  0  0
  9 13  1  1  0  0  0
  9  3  1  0  0  0  0
  9 15  1  0  0  0  0
 10 15  1  0  0  0  0
 10  1  1  0  0  0  0
 11  2  1  0  0  0  0
 12 13  2  0  0  0  0
 13 18  1  0  0  0  0
 14  6  1  0  0  0  0
 14  3  2  0  0  0  0
 16 22  1  0  0  0  0
 17 16  1  0  0  0  0
 18 20  1  0  0  0  0
 19 17  2  0  0  0  0
 20 16  2  0  0  0  0
 21 18  2  0  0  0  0
 21 19  1  0  0  0  0
 23 24  1  0  0  0  0
 25  8  1  0  0  0  0
 26 25  1  0  0  0  0
 27 26  1  0  0  0  0
 29 27  1  6  0  0  0
 29 30  1  0  0  0  0
 30 28  1  6  0  0  0
 30 34  1  0  0  0  0
 31 34  1  0  0  0  0
 32 31  1  0  0  0  0
 33 32  1  0  0  0  0
 33 29  1  0  0  0  0
M  END
>  <MODEL>
7

>  <REMARK>
 VINA RESULT:      -7.4      2.995      8.001
  Name = 
  6 active torsions:
  status: ('A' for Active; 'I' for Inactive)
    1  A    between atoms: C_1  and  O_19
    2  A    between atoms: C_3  and  C_13
    3  A    between atoms: C_3  and  C_17
    4  A    between atoms: C_12  and  C_28
    5  A    between atoms: C_17  and  N_29
    6  A    between atoms: C_18  and  N_29
                            x       y       z     vdW  Elec       q    Type
                         _______ _______ _______ _____ _____    ______ ____

>  <TORSDO>
F 6

$$$$
=
 OpenBabel11052418363D

 34 38  0  0  1  0  0  0  0  0999 V2000
  189.2440  177.2770  142.3320 C   0  0  1  0  0  3  0  0  0  0  0  0
  191.3350  178.2450  143.5150 C   0  0  1  0  0  3  0  0  0  0  0  0
  189.8050  176.5330  144.6650 C   0  0  0  0  0  0  0  0  0  0  0  0
  189.7610  174.5620  147.0030 C   0  0  0  0  0  3  0  0  0  0  0  0
  191.5000  178.9270  142.3230 F   0  0  0  0  0  0  0  0  0  0  0  0
  192.2480  176.5500  145.0450 C   0  0  0  0  0  2  0  0  0  0  0  0
  189.9160  177.6670  143.6650 C   0  0  2  0  0  3  0  0  0  0  0  0
  190.7660  174.7470  146.1290 C   0  0  0  0  0  0  0  0  0  0  0  0
  188.4410  175.9090  144.7840 C   0  0  1  0  0  3  0  0  0  0  0  0
  188.1220  176.2410  142.5520 C   0  0  0  0  0  2  0  0  0  0  0  0
  192.3920  177.1670  143.6610 C   0  0  0  0  0  2  0  0  0  0  0  0
  188.5560  175.4000  147.1760 C   0  0  0  0  0  3  0  0  0  0  0  0
  187.9380  176.0720  146.1970 C   0  0  0  0  0  0  0  0  0  0  0  0
  190.8800  175.9510  145.2430 C   0  0  0  0  0  0  0  0  0  0  0  0
  187.5330  176.4100  143.8210 O   0  0  0  0  0  0  0  0  0  0  0  0
  185.9970  179.0030  147.6380 C   0  0  0  0  0  0  0  0  0  0  0  0
  184.6910  178.6800  147.2630 C   0  0  0  0  0  3  0  0  0  0  0  0
  186.8200  176.9860  146.5500 C   0  0  0  0  0  0  0  0  0  0  0  0
  184.4410  177.5110  146.5390 C   0  0  0  0  0  3  0  0  0  0  0  0
  187.0540  178.1580  147.2860 C   0  0  0  0  0  3  0  0  0  0  0  0
  185.4990  176.6680  146.1880 C   0  0  0  0  0  3  0  0  0  0  0  0
  186.2400  180.1330  148.3430 F   0  0  0  0  0  0  0  0  0  0  0  0
  187.6160  177.9600  140.9910 C   0  0  0  0  0  1  0  0  0  0  0  0
  188.7090  178.4190  141.7300 O   0  0  0  0  0  0  0  0  0  0  0  0
  191.7980  173.7540  146.1390 N   0  0  0  0  0  2  0  0  0  0  0  0
  192.4390  173.2340  144.9410 C   0  0  0  0  0  2  0  0  0  0  0  0
  191.6200  172.0850  144.3860 C   0  0  0  0  0  2  0  0  0  0  0  0
  191.1100  170.3710  142.1640 O   0  0  0  0  0  1  0  0  0  0  0  0
  190.8130  172.5460  143.1810 C   0  0  1  0  0  3  0  0  0  0  0  0
  191.1220  171.7430  141.9020 C   0  0  2  0  0  3  0  0  0  0  0  0
  189.2500  173.1170  141.1420 O   0  0  0  0  0  0  0  0  0  0  0  0
  188.4730  172.6650  142.2230 C   0  0  0  0  0  2  0  0  0  0  0  0
  189.3160  172.5570  143.5020 C   0  0  0  0  0  2  0  0  0  0  0  0
  190.1000  172.0480  140.7940 C   0  0  0  0  0  2  0  0  0  0  0  0
  1 24  1  1  0  0  0
  1 10  1  0  0  0  0
  1  7  1  0  0  0  0
  2  5  1  6  0  0  0
  2 11  1  0  0  0  0
  2  7  1  0  0  0  0
  3  9  1  0  0  0  0
  3 14  2  0  0  0  0
  4 12  1  0  0  0  0
  6 14  1  0  0  0  0
  7  3  1  1  0  0  0
  8 25  1  0  0  0  0
  8  4  2  0  0  0  0
  9 15  1  6  0  0  0
  9 13  1  0  0  0  0
 10 15  1  0  0  0  0
 11  6  1  0  0  0  0
 13 18  1  0  0  0  0
 13 12  2  0  0  0  0
 14  8  1  0  0  0  0
 16 22  1  0  0  0  0
 17 16  2  0  0  0  0
 18 20  2  0  0  0  0
 19 17  1  0  0  0  0
 20 16  1  0  0  0  0
 21 19  2  0  0  0  0
 21 18  1  0  0  0  0
 23 24  1  0  0  0  0
 26 25  1  0  0  0  0
 27 26  1  0  0  0  0
 29 33  1  0  0  0  0
 29 27  1  1  0  0  0
 30 28  1  1  0  0  0
 30 29  1  0  0  0  0
 31 32  1  0  0  0  0
 32 33  1  0  0  0  0
 34 31  1  0  0  0  0
 34 30  1  0  0  0  0
M  END
>  <MODEL>
8

>  <REMARK>
 VINA RESULT:      -7.4      3.342      7.415
  Name = 
  6 active torsions:
  status: ('A' for Active; 'I' for Inactive)
    1  A    between atoms: C_1  and  O_19
    2  A    between atoms: C_3  and  C_13
    3  A    between atoms: C_3  and  C_17
    4  A    between atoms: C_12  and  C_28
    5  A    between atoms: C_17  and  N_29
    6  A    between atoms: C_18  and  N_29
                            x       y       z     vdW  Elec       q    Type
                         _______ _______ _______ _____ _____    ______ ____

>  <TORSDO>
F 6

$$$$
=
 OpenBabel11052418363D

 34 38  0  0  1  0  0  0  0  0999 V2000
  191.5600  176.2180  144.9410 C   0  0  1  0  0  3  0  0  0  0  0  0
  190.9540  173.7010  144.9140 C   0  0  1  0  0  3  0  0  0  0  0  0
  189.5500  175.4400  143.6510 C   0  0  0  0  0  0  0  0  0  0  0  0
  187.4550  175.6640  141.4350 C   0  0  0  0  0  3  0  0  0  0  0  0
  192.0880  173.5790  145.6970 F   0  0  0  0  0  0  0  0  0  0  0  0
  189.8840  173.1550  142.7680 C   0  0  0  0  0  2  0  0  0  0  0  0
  190.4490  175.1530  144.8370 C   0  0  2  0  0  3  0  0  0  0  0  0
  188.5630  174.9020  141.4160 C   0  0  0  0  0  0  0  0  0  0  0  0
  189.0940  176.8680  143.5190 C   0  0  1  0  0  3  0  0  0  0  0  0
  191.1090  177.5600  144.3280 C   0  0  0  0  0  2  0  0  0  0  0  0
  191.1990  173.1240  143.5320 C   0  0  0  0  0  2  0  0  0  0  0  0
  186.8810  176.3860  142.5880 C   0  0  0  0  0  3  0  0  0  0  0  0
  187.5880  176.9210  143.5920 C   0  0  0  0  0  0  0  0  0  0  0  0
  189.3490  174.5590  142.6460 C   0  0  0  0  0  0  0  0  0  0  0  0
  189.7150  177.7220  144.4610 O   0  0  0  0  0  0  0  0  0  0  0  0
  186.0610  177.3210  147.0480 C   0  0  0  0  0  0  0  0  0  0  0  0
  185.4350  178.5630  146.9310 C   0  0  0  0  0  3  0  0  0  0  0  0
  186.8610  177.4950  144.7540 C   0  0  0  0  0  0  0  0  0  0  0  0
  185.5110  179.2730  145.7300 C   0  0  0  0  0  3  0  0  0  0  0  0
  186.7670  176.7890  145.9650 C   0  0  0  0  0  3  0  0  0  0  0  0
  186.2170  178.7400  144.6470 C   0  0  0  0  0  3  0  0  0  0  0  0
  185.9850  176.6300  148.2110 F   0  0  0  0  0  0  0  0  0  0  0  0
  193.2890  176.5060  146.3000 C   0  0  0  0  0  1  0  0  0  0  0  0
  191.8950  176.4110  146.2840 O   0  0  0  0  0  0  0  0  0  0  0  0
  188.9250  174.3480  140.1460 N   0  0  0  0  0  2  0  0  0  0  0  0
  188.2460  173.2230  139.5250 C   0  0  0  0  0  2  0  0  0  0  0  0
  189.1600  172.5830  138.4980 C   0  0  0  0  0  2  0  0  0  0  0  0
  190.2700  170.6190  136.7520 O   0  0  0  0  0  1  0  0  0  0  0  0
  189.6800  171.2480  139.0130 C   0  0  1  0  0  3  0  0  0  0  0  0
  189.6930  170.1470  137.9340 C   0  0  2  0  0  3  0  0  0  0  0  0
  190.8240  169.0040  139.7740 O   0  0  0  0  0  0  0  0  0  0  0  0
  191.7450  170.0630  139.8730 C   0  0  0  0  0  2  0  0  0  0  0  0
  191.0500  171.4190  139.6740 C   0  0  0  0  0  2  0  0  0  0  0  0
  190.4760  168.9120  138.4120 C   0  0  0  0  0  2  0  0  0  0  0  0
  1 24  1  1  0  0  0
  2  5  1  1  0  0  0
  4 12  1  0  0  0  0
  6 11  1  0  0  0  0
  7  3  1  6  0  0  0
  7  2  1  0  0  0  0
  7  1  1  0  0  0  0
  8  4  2  0  0  0  0
  8 14  1  0  0  0  0
  9 13  1  1  0  0  0
  9  3  1  0  0  0  0
  9 15  1  0  0  0  0
 10 15  1  0  0  0  0
 10  1  1  0  0  0  0
 11  2  1  0  0  0  0
 12 13  2  0  0  0  0
 13 18  1  0  0  0  0
 14  6  1  0  0  0  0
 14  3  2  0  0  0  0
 16 22  1  0  0  0  0
 17 16  1  0  0  0  0
 18 20  1  0  0  0  0
 19 17  2  0  0  0  0
 20 16  2  0  0  0  0
 21 18  2  0  0  0  0
 21 19  1  0  0  0  0
 24 23  1  0  0  0  0
 25  8  1  0  0  0  0
 26 25  1  0  0  0  0
 27 26  1  0  0  0  0
 29 27  1  6  0  0  0
 29 33  1  0  0  0  0
 30 28  1  6  0  0  0
 30 34  1  0  0  0  0
 30 29  1  0  0  0  0
 31 32  1  0  0  0  0
 33 32  1  0  0  0  0
 34 31  1  0  0  0  0
M  END
>  <MODEL>
9

>  <REMARK>
 VINA RESULT:      -7.4      3.373      8.219
  Name = 
  6 active torsions:
  status: ('A' for Active; 'I' for Inactive)
    1  A    between atoms: C_1  and  O_19
    2  A    between atoms: C_3  and  C_13
    3  A    between atoms: C_3  and  C_17
    4  A    between atoms: C_12  and  C_28
    5  A    between atoms: C_17  and  N_29
    6  A    between atoms: C_18  and  N_29
                            x       y       z     vdW  Elec       q    Type
                         _______ _______ _______ _____ _____    ______ ____

>  <TORSDO>
F 6

$$$$
