=
 OpenBabel11052417483D

 31 35  0  0  1  0  0  0  0  0999 V2000
  188.8900  174.0400  140.8400 C   0  0  0  0  0  0  0  0  0  0  0  0
  188.1140  176.0050  143.9890 C   0  0  1  0  0  3  0  0  0  0  0  0
  187.7970  177.4040  143.4750 C   0  0  0  0  0  2  0  0  0  0  0  0
  185.6620  178.4860  142.8420 C   0  0  0  0  0  3  0  0  0  0  0  0
  188.8550  175.2500  142.9250 C   0  0  0  0  0  0  0  0  0  0  0  0
  190.2500  174.0040  140.8920 N   0  0  0  0  0  0  0  0  0  0  0  0
  186.3690  177.7790  143.7050 C   0  0  2  0  0  3  0  0  0  0  0  0
  190.3620  176.1980  145.1220 C   0  0  0  0  0  0  0  0  0  0  0  0
  188.2040  173.4450  139.7470 N   0  0  0  0  0  1  0  0  0  0  0  0
  187.3020  177.2390  146.6810 C   0  0  0  0  0  2  0  0  0  0  0  0
  184.3330  178.7840  143.4660 C   0  0  0  0  0  3  0  0  0  0  0  0
  190.9740  175.7570  144.0640 N   0  0  0  0  0  0  0  0  0  0  0  0
  188.9240  176.1170  145.2090 N   0  0  0  0  0  0  0  0  0  0  0  0
  188.1670  174.6720  141.8550 C   0  0  0  0  0  3  0  0  0  0  0  0
  184.4220  178.1760  144.7880 N   0  0  0  0  0  0  0  0  0  0  0  0
  190.2560  175.1990  142.9580 C   0  0  0  0  0  0  0  0  0  0  0  0
  190.9420  174.5650  141.9200 C   0  0  0  0  0  3  0  0  0  0  0  0
  188.2710  176.0790  146.5140 C   0  0  0  0  0  2  0  0  0  0  0  0
  185.5820  177.6320  144.9200 C   0  0  0  0  0  0  0  0  0  0  0  0
  185.9440  176.8390  146.1330 C   0  0  0  0  0  2  0  0  0  0  0  0
  191.1760  176.7180  146.2640 C   0  0  0  0  0  2  0  0  0  0  0  0
  191.3650  175.1580  148.0430 O   0  0  0  0  0  0  0  0  0  0  0  0
  191.8680  175.5960  146.9740 C   0  0  0  0  0  0  0  0  0  0  0  0
  195.3970  173.7650  145.3430 C   0  0  0  0  0  0  0  0  0  0  0  0
  193.0630  173.6760  145.9550 C   0  0  0  0  0  3  0  0  0  0  0  0
  194.5040  177.3930  146.8090 Cl  0  0  0  0  0  0  0  0  0  0  0  0
  196.8200  172.9980  144.6750 Cl  0  0  0  0  0  0  0  0  0  0  0  0
  194.1960  173.0610  145.4220 C   0  0  0  0  0  3  0  0  0  0  0  0
  194.3310  175.7120  146.3260 C   0  0  0  0  0  0  0  0  0  0  0  0
  193.1070  175.0020  146.4150 C   0  0  0  0  0  0  0  0  0  0  0  0
  195.4610  175.0850  145.7890 C   0  0  0  0  0  3  0  0  0  0  0  0
  1  6  2  0  0  0  0
  1 14  1  0  0  0  0
  2  3  1  6  0  0  0
  2 13  1  0  0  0  0
  3  7  1  0  0  0  0
  4 11  2  0  0  0  0
  5 16  1  0  0  0  0
  5  2  1  0  0  0  0
  6 17  1  0  0  0  0
  7  4  1  1  0  0  0
  7 19  1  0  0  0  0
  8 13  1  0  0  0  0
  8 21  1  0  0  0  0
  9  1  1  0  0  0  0
 11 15  1  0  0  0  0
 12  8  2  0  0  0  0
 13 18  1  0  0  0  0
 14  5  2  0  0  0  0
 15 19  2  0  0  0  0
 16 12  1  0  0  0  0
 17 16  2  0  0  0  0
 18 10  1  0  0  0  0
 19 20  1  0  0  0  0
 20 10  1  0  0  0  0
 21 23  1  0  0  0  0
 23 22  2  0  0  0  0
 24 28  2  0  0  0  0
 24 31  1  0  0  0  0
 25 30  2  0  0  0  0
 27 24  1  0  0  0  0
 28 25  1  0  0  0  0
 29 30  1  0  0  0  0
 29 26  1  0  0  0  0
 30 23  1  0  0  0  0
 31 29  2  0  0  0  0
M  END
>  <MODEL>
1

>  <REMARK>
 VINA RESULT:      -8.8      0.000      0.000
  Name = 
  3 active torsions:
  status: ('A' for Active; 'I' for Inactive)
    1  A    between atoms: C_9  and  C_22
    2  A    between atoms: C_9  and  C_23
    3  A    between atoms: C_15  and  C_23
                            x       y       z     vdW  Elec       q    Type
                         _______ _______ _______ _____ _____    ______ ____

>  <TORSDO>
F 3

$$$$
=
 OpenBabel11052417483D

 31 35  0  0  1  0  0  0  0  0999 V2000
  190.9690  176.9940  147.6440 C   0  0  0  0  0  0  0  0  0  0  0  0
  188.4080  177.3140  144.8660 C   0  0  1  0  0  3  0  0  0  0  0  0
  187.1890  176.5790  145.4100 C   0  0  0  0  0  2  0  0  0  0  0  0
  185.2140  177.3670  146.6770 C   0  0  0  0  0  3  0  0  0  0  0  0
  189.6180  176.8990  145.6490 C   0  0  0  0  0  0  0  0  0  0  0  0
  191.7600  176.0050  147.1470 N   0  0  0  0  0  0  0  0  0  0  0  0
  186.0370  177.4990  145.6530 C   0  0  0  0  0  0  0  0  0  0  0  0
  189.3340  175.8280  143.0480 C   0  0  0  0  0  0  0  0  0  0  0  0
  191.2460  177.5510  148.9220 N   0  0  0  0  0  1  0  0  0  0  0  0
  186.4920  177.9640  142.5560 C   0  0  0  0  0  2  0  0  0  0  0  0
  184.1130  178.3710  146.5190 C   0  0  0  0  0  2  0  0  0  0  0  0
  190.2170  175.3260  143.8580 N   0  0  0  0  0  0  0  0  0  0  0  0
  188.5680  176.9850  143.4440 N   0  0  0  0  0  0  0  0  0  0  0  0
  189.8760  177.4540  146.9050 C   0  0  0  0  0  3  0  0  0  0  0  0
  184.4270  179.0410  145.2630 N   0  0  0  0  0  0  0  0  0  0  0  0
  190.4490  175.8820  145.1560 C   0  0  0  0  0  0  0  0  0  0  0  0
  191.5260  175.4450  145.9290 C   0  0  0  0  0  3  0  0  0  0  0  0
  188.0050  177.8720  142.4310 C   0  0  0  0  0  2  0  0  0  0  0  0
  185.5010  178.5260  144.7720 C   0  0  0  0  0  0  0  0  0  0  0  0
  186.1370  179.0680  143.5340 C   0  0  0  0  0  2  0  0  0  0  0  0
  189.1820  175.2320  141.6840 C   0  0  0  0  0  2  0  0  0  0  0  0
  187.3470  173.7820  142.0860 O   0  0  0  0  0  0  0  0  0  0  0  0
  188.5630  173.8720  141.7660 C   0  0  0  0  0  0  0  0  0  0  0  0
  190.8640  170.3910  140.7410 C   0  0  0  0  0  0  0  0  0  0  0  0
  189.7020  172.4130  140.1150 C   0  0  0  0  0  3  0  0  0  0  0  0
  189.4880  171.9730  144.1630 Cl  0  0  0  0  0  0  0  0  0  0  0  0
  191.8000  168.9810  140.2980 Cl  0  0  0  0  0  0  0  0  0  0  0  0
  190.4480  171.2890  139.7580 C   0  0  0  0  0  3  0  0  0  0  0  0
  189.7940  171.7460  142.4460 C   0  0  0  0  0  0  0  0  0  0  0  0
  189.3610  172.6610  141.4540 C   0  0  0  0  0  0  0  0  0  0  0  0
  190.5420  170.6230  142.0780 C   0  0  0  0  0  3  0  0  0  0  0  0
  1  9  1  0  0  0  0
  2  3  1  1  0  0  0
  2  5  1  0  0  0  0
  3  7  1  0  0  0  0
  5 14  1  0  0  0  0
  6  1  1  0  0  0  0
  7  4  2  0  0  0  0
  8 13  1  0  0  0  0
  8 12  2  0  0  0  0
 10 20  1  0  0  0  0
 11  4  1  0  0  0  0
 12 16  1  0  0  0  0
 13  2  1  0  0  0  0
 14  1  2  0  0  0  0
 15 11  1  0  0  0  0
 16  5  2  0  0  0  0
 16 17  1  0  0  0  0
 17  6  2  0  0  0  0
 18 10  1  0  0  0  0
 18 13  1  0  0  0  0
 19 15  2  0  0  0  0
 19  7  1  0  0  0  0
 20 19  1  0  0  0  0
 21 23  1  0  0  0  0
 21  8  1  0  0  0  0
 23 22  2  0  0  0  0
 24 31  1  0  0  0  0
 25 30  2  0  0  0  0
 27 24  1  0  0  0  0
 28 25  1  0  0  0  0
 28 24  2  0  0  0  0
 29 26  1  0  0  0  0
 30 23  1  0  0  0  0
 30 29  1  0  0  0  0
 31 29  2  0  0  0  0
M  END
>  <MODEL>
2

>  <REMARK>
 VINA RESULT:      -8.6      3.112      5.477
  Name = 
  3 active torsions:
  status: ('A' for Active; 'I' for Inactive)
    1  A    between atoms: C_9  and  C_22
    2  A    between atoms: C_9  and  C_23
    3  A    between atoms: C_15  and  C_23
                            x       y       z     vdW  Elec       q    Type
                         _______ _______ _______ _____ _____    ______ ____

>  <TORSDO>
F 3

$$$$
=
 OpenBabel11052417483D

 31 35  0  0  1  0  0  0  0  0999 V2000
  189.0650  173.2400  140.1890 C   0  0  0  0  0  0  0  0  0  0  0  0
  187.8260  175.9940  142.4820 C   0  0  1  0  0  3  0  0  0  0  0  0
  187.6070  177.1750  141.5450 C   0  0  0  0  0  2  0  0  0  0  0  0
  185.6080  177.9550  140.3090 C   0  0  0  0  0  3  0  0  0  0  0  0
  188.7170  174.9930  141.8060 C   0  0  0  0  0  0  0  0  0  0  0  0
  190.3990  173.2690  140.4550 N   0  0  0  0  0  0  0  0  0  0  0  0
  186.1650  177.5490  141.4360 C   0  0  2  0  0  3  0  0  0  0  0  0
  189.8710  176.5830  143.8400 C   0  0  0  0  0  0  0  0  0  0  0  0
  188.5520  172.3330  139.2210 N   0  0  0  0  0  1  0  0  0  0  0  0
  186.6150  177.9160  144.5480 C   0  0  0  0  0  2  0  0  0  0  0  0
  184.2010  178.3710  140.6110 C   0  0  0  0  0  3  0  0  0  0  0  0
  190.6360  175.8800  143.0590 N   0  0  0  0  0  0  0  0  0  0  0  0
  188.4360  176.4790  143.7260 N   0  0  0  0  0  0  0  0  0  0  0  0
  188.1980  174.1100  140.8560 C   0  0  0  0  0  3  0  0  0  0  0  0
  184.0760  178.1700  142.0490 N   0  0  0  0  0  0  0  0  0  0  0  0
  190.0950  175.0040  142.0660 C   0  0  0  0  0  0  0  0  0  0  0  0
  190.9270  174.1240  141.3710 C   0  0  0  0  0  3  0  0  0  0  0  0
  187.5870  176.7920  144.8720 C   0  0  0  0  0  2  0  0  0  0  0  0
  185.1950  177.7280  142.5080 C   0  0  0  0  0  0  0  0  0  0  0  0
  185.3560  177.3290  143.9380 C   0  0  0  0  0  2  0  0  0  0  0  0
  190.5020  177.4360  144.8940 C   0  0  0  0  0  2  0  0  0  0  0  0
  190.1930  176.4670  147.0390 O   0  0  0  0  0  0  0  0  0  0  0  0
  190.9600  176.5990  146.0480 C   0  0  0  0  0  0  0  0  0  0  0  0
  194.8400  174.7530  145.9660 C   0  0  0  0  0  0  0  0  0  0  0  0
  193.4220  176.6720  146.3380 C   0  0  0  0  0  3  0  0  0  0  0  0
  191.0880  173.4980  145.2920 Cl  0  0  0  0  0  0  0  0  0  0  0  0
  196.4300  174.0250  145.9390 Cl  0  0  0  0  0  0  0  0  0  0  0  0
  194.6920  176.0950  146.3170 C   0  0  0  0  0  3  0  0  0  0  0  0
  192.4400  174.5590  145.6610 C   0  0  0  0  0  0  0  0  0  0  0  0
  192.2800  175.9240  146.0110 C   0  0  0  0  0  0  0  0  0  0  0  0
  193.7170  173.9900  145.6440 C   0  0  0  0  0  3  0  0  0  0  0  0
  1  6  2  0  0  0  0
  1 14  1  0  0  0  0
  2  3  1  6  0  0  0
  2 13  1  0  0  0  0
  4 11  2  0  0  0  0
  5 16  1  0  0  0  0
  5  2  1  0  0  0  0
  6 17  1  0  0  0  0
  7  4  1  1  0  0  0
  7  3  1  0  0  0  0
  7 19  1  0  0  0  0
  8 21  1  0  0  0  0
  9  1  1  0  0  0  0
 10 18  1  0  0  0  0
 11 15  1  0  0  0  0
 12  8  2  0  0  0  0
 13  8  1  0  0  0  0
 13 18  1  0  0  0  0
 14  5  2  0  0  0  0
 15 19  2  0  0  0  0
 16 12  1  0  0  0  0
 17 16  2  0  0  0  0
 19 20  1  0  0  0  0
 20 10  1  0  0  0  0
 21 23  1  0  0  0  0
 23 22  2  0  0  0  0
 24 28  1  0  0  0  0
 26 29  1  0  0  0  0
 27 24  1  0  0  0  0
 28 25  2  0  0  0  0
 29 30  2  0  0  0  0
 30 23  1  0  0  0  0
 30 25  1  0  0  0  0
 31 29  1  0  0  0  0
 31 24  2  0  0  0  0
M  END
>  <MODEL>
3

>  <REMARK>
 VINA RESULT:      -8.5      1.699      2.140
  Name = 
  3 active torsions:
  status: ('A' for Active; 'I' for Inactive)
    1  A    between atoms: C_9  and  C_22
    2  A    between atoms: C_9  and  C_23
    3  A    between atoms: C_15  and  C_23
                            x       y       z     vdW  Elec       q    Type
                         _______ _______ _______ _____ _____    ______ ____

>  <TORSDO>
F 3

$$$$
=
 OpenBabel11052417483D

 31 35  0  0  1  0  0  0  0  0999 V2000
  190.1070  172.1700  141.0930 C   0  0  0  0  0  0  0  0  0  0  0  0
  189.8860  175.4700  142.9470 C   0  0  1  0  0  3  0  0  0  0  0  0
  189.2680  175.0920  144.2870 C   0  0  0  0  0  2  0  0  0  0  0  0
  190.2840  174.4820  146.4610 C   0  0  0  0  0  3  0  0  0  0  0  0
  189.6300  174.3670  141.9630 C   0  0  0  0  0  0  0  0  0  0  0  0
  189.0410  172.2780  140.2530 N   0  0  0  0  0  0  0  0  0  0  0  0
  190.2170  175.2960  145.4230 C   0  0  0  0  0  0  0  0  0  0  0  0
  188.0780  176.7160  141.7010 C   0  0  0  0  0  0  0  0  0  0  0  0
  190.9000  170.9900  141.0860 N   0  0  0  0  0  1  0  0  0  0  0  0
  190.0780  178.2370  144.2630 C   0  0  0  0  0  2  0  0  0  0  0  0
  191.2380  175.0730  147.4530 C   0  0  0  0  0  2  0  0  0  0  0  0
  187.7420  175.6460  141.0450 N   0  0  0  0  0  0  0  0  0  0  0  0
  189.2900  176.7300  142.4850 N   0  0  0  0  0  0  0  0  0  0  0  0
  190.4160  173.2120  141.9710 C   0  0  0  0  0  3  0  0  0  0  0  0
  191.6540  176.3260  146.8360 N   0  0  0  0  0  0  0  0  0  0  0  0
  188.5380  174.4570  141.0870 C   0  0  0  0  0  0  0  0  0  0  0  0
  188.2570  173.3900  140.2320 C   0  0  0  0  0  3  0  0  0  0  0  0
  189.9650  177.9930  142.7660 C   0  0  0  0  0  2  0  0  0  0  0  0
  191.0550  176.4530  145.7030 C   0  0  0  0  0  0  0  0  0  0  0  0
  191.3500  177.5910  144.7810 C   0  0  0  0  0  2  0  0  0  0  0  0
  187.2320  177.9430  141.5670 C   0  0  0  0  0  2  0  0  0  0  0  0
  184.8790  177.6440  141.6670 O   0  0  0  0  0  0  0  0  0  0  0  0
  185.9470  177.7840  142.3200 C   0  0  0  0  0  0  0  0  0  0  0  0
  185.9400  177.6200  146.6140 C   0  0  0  0  0  0  0  0  0  0  0  0
  186.1320  176.5440  144.4610 C   0  0  0  0  0  3  0  0  0  0  0  0
  185.5660  180.5410  143.8880 Cl  0  0  0  0  0  0  0  0  0  0  0  0
  185.9410  177.5270  148.3610 Cl  0  0  0  0  0  0  0  0  0  0  0  0
  186.1320  176.4660  145.8540 C   0  0  0  0  0  3  0  0  0  0  0  0
  185.7530  178.9380  144.5850 C   0  0  0  0  0  0  0  0  0  0  0  0
  185.9420  177.7700  143.8030 C   0  0  0  0  0  0  0  0  0  0  0  0
  185.7560  178.8490  145.9810 C   0  0  0  0  0  3  0  0  0  0  0  0
  1 14  1  0  0  0  0
  2  3  1  1  0  0  0
  3  7  1  0  0  0  0
  4 11  1  0  0  0  0
  5 14  2  0  0  0  0
  5  2  1  0  0  0  0
  6  1  2  0  0  0  0
  7 19  1  0  0  0  0
  7  4  2  0  0  0  0
  8 13  1  0  0  0  0
  9  1  1  0  0  0  0
 10 20  1  0  0  0  0
 12 16  1  0  0  0  0
 12  8  2  0  0  0  0
 13 18  1  0  0  0  0
 13  2  1  0  0  0  0
 15 11  1  0  0  0  0
 16  5  1  0  0  0  0
 17  6  1  0  0  0  0
 17 16  2  0  0  0  0
 18 10  1  0  0  0  0
 19 15  2  0  0  0  0
 20 19  1  0  0  0  0
 21  8  1  0  0  0  0
 21 23  1  0  0  0  0
 22 23  2  0  0  0  0
 23 30  1  0  0  0  0
 24 27  1  0  0  0  0
 25 28  1  0  0  0  0
 26 29  1  0  0  0  0
 28 24  2  0  0  0  0
 29 31  2  0  0  0  0
 30 25  2  0  0  0  0
 30 29  1  0  0  0  0
 31 24  1  0  0  0  0
M  END
>  <MODEL>
4

>  <REMARK>
 VINA RESULT:      -8.5      3.933      6.632
  Name = 
  3 active torsions:
  status: ('A' for Active; 'I' for Inactive)
    1  A    between atoms: C_9  and  C_22
    2  A    between atoms: C_9  and  C_23
    3  A    between atoms: C_15  and  C_23
                            x       y       z     vdW  Elec       q    Type
                         _______ _______ _______ _____ _____    ______ ____

>  <TORSDO>
F 3

$$$$
=
 OpenBabel11052417483D

 31 35  0  0  1  0  0  0  0  0999 V2000
  190.9480  176.7800  147.3690 C   0  0  0  0  0  0  0  0  0  0  0  0
  188.3360  177.2300  144.6570 C   0  0  1  0  0  3  0  0  0  0  0  0
  187.1050  176.5320  145.2200 C   0  0  0  0  0  2  0  0  0  0  0  0
  185.1890  177.3760  146.5430 C   0  0  0  0  0  3  0  0  0  0  0  0
  189.5490  176.7610  145.4060 C   0  0  0  0  0  0  0  0  0  0  0  0
  191.6910  175.7700  146.8410 N   0  0  0  0  0  0  0  0  0  0  0  0
  185.9930  177.4900  145.5020 C   0  0  0  0  0  0  0  0  0  0  0  0
  189.1650  175.7350  142.7990 C   0  0  0  0  0  0  0  0  0  0  0  0
  191.2750  177.3110  148.6470 N   0  0  0  0  0  1  0  0  0  0  0  0
  186.3930  177.9790  142.4000 C   0  0  0  0  0  2  0  0  0  0  0  0
  184.1230  178.4200  146.4240 C   0  0  0  0  0  2  0  0  0  0  0  0
  190.0480  175.1910  143.5810 N   0  0  0  0  0  0  0  0  0  0  0  0
  188.4520  176.9140  143.2270 N   0  0  0  0  0  0  0  0  0  0  0  0
  189.8550  177.2900  146.6620 C   0  0  0  0  0  3  0  0  0  0  0  0
  184.4320  179.0950  145.1690 N   0  0  0  0  0  0  0  0  0  0  0  0
  190.3300  175.7210  144.8810 C   0  0  0  0  0  0  0  0  0  0  0  0
  191.4080  175.2350  145.6230 C   0  0  0  0  0  3  0  0  0  0  0  0
  187.8980  177.8350  142.2380 C   0  0  0  0  0  2  0  0  0  0  0  0
  185.4740  178.5480  144.6470 C   0  0  0  0  0  0  0  0  0  0  0  0
  186.1010  179.0830  143.4010 C   0  0  0  0  0  2  0  0  0  0  0  0
  188.9600  175.1630  141.4320 C   0  0  0  0  0  2  0  0  0  0  0  0
  187.3390  173.5580  142.0860 O   0  0  0  0  0  0  0  0  0  0  0  0
  188.4440  173.7600  141.5160 C   0  0  0  0  0  0  0  0  0  0  0  0
  190.7180  170.4890  139.9050 C   0  0  0  0  0  0  0  0  0  0  0  0
  189.9760  171.8270  141.7740 C   0  0  0  0  0  3  0  0  0  0  0  0
  188.2470  173.2540  138.3680 Cl  0  0  0  0  0  0  0  0  0  0  0  0
  191.6520  169.1510  139.2730 Cl  0  0  0  0  0  0  0  0  0  0  0  0
  190.7230  170.7590  141.2730 C   0  0  0  0  0  3  0  0  0  0  0  0
  189.2080  172.3530  139.5320 C   0  0  0  0  0  0  0  0  0  0  0  0
  189.2120  172.6390  140.9210 C   0  0  0  0  0  0  0  0  0  0  0  0
  189.9600  171.2800  139.0410 C   0  0  0  0  0  3  0  0  0  0  0  0
  1  9  1  0  0  0  0
  2  3  1  1  0  0  0
  2  5  1  0  0  0  0
  3  7  1  0  0  0  0
  5 14  1  0  0  0  0
  6  1  1  0  0  0  0
  7  4  2  0  0  0  0
  8 13  1  0  0  0  0
  8 12  2  0  0  0  0
 10 20  1  0  0  0  0
 11  4  1  0  0  0  0
 12 16  1  0  0  0  0
 13  2  1  0  0  0  0
 14  1  2  0  0  0  0
 15 11  1  0  0  0  0
 16  5  2  0  0  0  0
 16 17  1  0  0  0  0
 17  6  2  0  0  0  0
 18 10  1  0  0  0  0
 18 13  1  0  0  0  0
 19 15  2  0  0  0  0
 19  7  1  0  0  0  0
 20 19  1  0  0  0  0
 21 23  1  0  0  0  0
 21  8  1  0  0  0  0
 23 22  2  0  0  0  0
 24 28  1  0  0  0  0
 26 29  1  0  0  0  0
 27 24  1  0  0  0  0
 28 25  2  0  0  0  0
 29 30  2  0  0  0  0
 30 23  1  0  0  0  0
 30 25  1  0  0  0  0
 31 29  1  0  0  0  0
 31 24  2  0  0  0  0
M  END
>  <MODEL>
5

>  <REMARK>
 VINA RESULT:      -8.4      3.515      5.796
  Name = 
  3 active torsions:
  status: ('A' for Active; 'I' for Inactive)
    1  A    between atoms: C_9  and  C_22
    2  A    between atoms: C_9  and  C_23
    3  A    between atoms: C_15  and  C_23
                            x       y       z     vdW  Elec       q    Type
                         _______ _______ _______ _____ _____    ______ ____

>  <TORSDO>
F 3

$$$$
=
 OpenBabel11052417483D

 31 35  0  0  1  0  0  0  0  0999 V2000
  191.0140  172.4630  141.5700 C   0  0  0  0  0  0  0  0  0  0  0  0
  192.5100  174.2320  144.5720 C   0  0  1  0  0  3  0  0  0  0  0  0
  193.1930  173.1140  145.3490 C   0  0  0  0  0  2  0  0  0  0  0  0
  195.5130  172.2480  145.3000 C   0  0  0  0  0  3  0  0  0  0  0  0
  191.5210  173.6300  143.6180 C   0  0  0  0  0  0  0  0  0  0  0  0
  189.7090  172.3810  141.9480 N   0  0  0  0  0  0  0  0  0  0  0  0
  194.6790  173.2690  145.3720 C   0  0  0  0  0  0  0  0  0  0  0  0
  190.4860  174.8620  145.9430 C   0  0  0  0  0  0  0  0  0  0  0  0
  191.4320  171.9050  140.3310 N   0  0  0  0  0  1  0  0  0  0  0  0
  193.8000  175.9870  146.7360 C   0  0  0  0  0  2  0  0  0  0  0  0
  196.9040  172.7690  145.4930 C   0  0  0  0  0  2  0  0  0  0  0  0
  189.7120  174.1190  145.2100 N   0  0  0  0  0  0  0  0  0  0  0  0
  191.8390  175.1310  145.5200 N   0  0  0  0  0  0  0  0  0  0  0  0
  191.9480  173.0840  142.4050 C   0  0  0  0  0  3  0  0  0  0  0  0
  196.7160  174.1980  145.7100 N   0  0  0  0  0  0  0  0  0  0  0  0
  190.1710  173.5360  143.9850 C   0  0  0  0  0  0  0  0  0  0  0  0
  189.2720  172.9000  143.1260 C   0  0  0  0  0  3  0  0  0  0  0  0
  192.5260  176.3330  145.9820 C   0  0  0  0  0  2  0  0  0  0  0  0
  195.4570  174.4660  145.6620 C   0  0  0  0  0  0  0  0  0  0  0  0
  194.9480  175.8670  145.7510 C   0  0  0  0  0  2  0  0  0  0  0  0
  189.9260  175.4870  147.1820 C   0  0  0  0  0  2  0  0  0  0  0  0
  189.8850  177.8390  147.5000 O   0  0  0  0  0  0  0  0  0  0  0  0
  189.3900  176.8540  146.8890 C   0  0  0  0  0  0  0  0  0  0  0  0
  186.1900  177.3440  144.0630 C   0  0  0  0  0  0  0  0  0  0  0  0
  187.0000  176.6960  146.2440 C   0  0  0  0  0  3  0  0  0  0  0  0
  190.1350  178.0800  144.0350 Cl  0  0  0  0  0  0  0  0  0  0  0  0
  184.8700  177.5340  142.9300 Cl  0  0  0  0  0  0  0  0  0  0  0  0
  185.9450  176.8450  145.3430 C   0  0  0  0  0  3  0  0  0  0  0  0
  188.5510  177.5530  144.5860 C   0  0  0  0  0  0  0  0  0  0  0  0
  188.3130  177.0410  145.8860 C   0  0  0  0  0  0  0  0  0  0  0  0
  187.4860  177.6990  143.6910 C   0  0  0  0  0  3  0  0  0  0  0  0
  1  6  2  0  0  0  0
  1 14  1  0  0  0  0
  2  3  1  1  0  0  0
  2 13  1  0  0  0  0
  3  7  1  0  0  0  0
  4  7  2  0  0  0  0
  4 11  1  0  0  0  0
  5 16  1  0  0  0  0
  5  2  1  0  0  0  0
  6 17  1  0  0  0  0
  7 19  1  0  0  0  0
  8 21  1  0  0  0  0
  9  1  1  0  0  0  0
 11 15  1  0  0  0  0
 12  8  2  0  0  0  0
 13  8  1  0  0  0  0
 13 18  1  0  0  0  0
 14  5  2  0  0  0  0
 16 12  1  0  0  0  0
 17 16  2  0  0  0  0
 18 10  1  0  0  0  0
 19 15  2  0  0  0  0
 19 20  1  0  0  0  0
 20 10  1  0  0  0  0
 23 21  1  0  0  0  0
 23 22  2  0  0  0  0
 24 28  1  0  0  0  0
 26 29  1  0  0  0  0
 27 24  1  0  0  0  0
 28 25  2  0  0  0  0
 29 30  2  0  0  0  0
 30 25  1  0  0  0  0
 30 23  1  0  0  0  0
 31 24  2  0  0  0  0
 31 29  1  0  0  0  0
M  END
>  <MODEL>
6

>  <REMARK>
 VINA RESULT:      -8.3      2.830      7.166
  Name = 
  3 active torsions:
  status: ('A' for Active; 'I' for Inactive)
    1  A    between atoms: C_9  and  C_22
    2  A    between atoms: C_9  and  C_23
    3  A    between atoms: C_15  and  C_23
                            x       y       z     vdW  Elec       q    Type
                         _______ _______ _______ _____ _____    ______ ____

>  <TORSDO>
F 3

$$$$
=
 OpenBabel11052417483D

 31 35  0  0  1  0  0  0  0  0999 V2000
  195.2350  175.2780  144.7630 C   0  0  0  0  0  0  0  0  0  0  0  0
  191.7740  173.9180  144.0210 C   0  0  1  0  0  3  0  0  0  0  0  0
  191.4090  174.5600  142.6890 C   0  0  0  0  0  2  0  0  0  0  0  0
  191.6950  173.7910  140.3520 C   0  0  0  0  0  3  0  0  0  0  0  0
  192.9000  174.6900  144.6440 C   0  0  0  0  0  0  0  0  0  0  0  0
  194.9400  176.2350  145.6850 N   0  0  0  0  0  0  0  0  0  0  0  0
  191.2980  173.5540  141.5890 C   0  0  2  0  0  3  0  0  0  0  0  0
  190.3200  175.0630  145.7390 C   0  0  0  0  0  0  0  0  0  0  0  0
  196.5790  175.0860  144.3430 N   0  0  0  0  0  1  0  0  0  0  0  0
  189.1090  172.4530  143.5940 C   0  0  0  0  0  2  0  0  0  0  0  0
  191.3020  172.6190  139.5070 C   0  0  0  0  0  3  0  0  0  0  0  0
  191.2810  175.8730  146.0660 N   0  0  0  0  0  0  0  0  0  0  0  0
  190.5920  173.9250  144.8940 N   0  0  0  0  0  0  0  0  0  0  0  0
  194.2160  174.4920  144.2180 C   0  0  0  0  0  3  0  0  0  0  0  0
  190.6140  171.7300  140.4360 N   0  0  0  0  0  0  0  0  0  0  0  0
  192.6200  175.6800  145.5970 C   0  0  0  0  0  0  0  0  0  0  0  0
  193.6660  176.4500  146.1100 C   0  0  0  0  0  3  0  0  0  0  0  0
  189.7300  172.7480  144.9500 C   0  0  0  0  0  2  0  0  0  0  0  0
  190.5980  172.2780  141.6020 C   0  0  0  0  0  0  0  0  0  0  0  0
  190.0490  171.5670  142.7960 C   0  0  0  0  0  2  0  0  0  0  0  0
  188.9560  175.2910  146.3100 C   0  0  0  0  0  2  0  0  0  0  0  0
  188.3540  177.5410  146.7670 O   0  0  0  0  0  0  0  0  0  0  0  0
  188.4270  176.6300  145.9000 C   0  0  0  0  0  0  0  0  0  0  0  0
  187.1400  177.2850  141.8520 C   0  0  0  0  0  0  0  0  0  0  0  0
  186.7620  176.4160  144.0730 C   0  0  0  0  0  3  0  0  0  0  0  0
  190.4040  178.2470  143.9810 Cl  0  0  0  0  0  0  0  0  0  0  0  0
  186.5930  177.5400  140.2100 Cl  0  0  0  0  0  0  0  0  0  0  0  0
  186.3230  176.6160  142.7640 C   0  0  0  0  0  3  0  0  0  0  0  0
  188.8390  177.5630  143.5640 C   0  0  0  0  0  0  0  0  0  0  0  0
  188.0180  176.8790  144.4960 C   0  0  0  0  0  0  0  0  0  0  0  0
  188.3890  177.7600  142.2540 C   0  0  0  0  0  3  0  0  0  0  0  0
  1  6  1  0  0  0  0
  2  3  1  6  0  0  0
  2  5  1  0  0  0  0
  2 13  1  0  0  0  0
  5 16  2  0  0  0  0
  6 17  2  0  0  0  0
  7  4  1  6  0  0  0
  7 19  1  0  0  0  0
  7  3  1  0  0  0  0
  8 12  2  0  0  0  0
  8 21  1  0  0  0  0
  9  1  1  0  0  0  0
 10 18  1  0  0  0  0
 11  4  2  0  0  0  0
 11 15  1  0  0  0  0
 13 18  1  0  0  0  0
 13  8  1  0  0  0  0
 14  5  1  0  0  0  0
 14  1  2  0  0  0  0
 15 19  2  0  0  0  0
 16 12  1  0  0  0  0
 16 17  1  0  0  0  0
 19 20  1  0  0  0  0
 20 10  1  0  0  0  0
 23 21  1  0  0  0  0
 23 22  2  0  0  0  0
 24 31  2  0  0  0  0
 24 28  1  0  0  0  0
 25 30  1  0  0  0  0
 27 24  1  0  0  0  0
 28 25  2  0  0  0  0
 29 26  1  0  0  0  0
 29 30  2  0  0  0  0
 30 23  1  0  0  0  0
 31 29  1  0  0  0  0
M  END
>  <MODEL>
7

>  <REMARK>
 VINA RESULT:      -8.0      3.068      6.765
  Name = 
  3 active torsions:
  status: ('A' for Active; 'I' for Inactive)
    1  A    between atoms: C_9  and  C_22
    2  A    between atoms: C_9  and  C_23
    3  A    between atoms: C_15  and  C_23
                            x       y       z     vdW  Elec       q    Type
                         _______ _______ _______ _____ _____    ______ ____

>  <TORSDO>
F 3

$$$$
=
 OpenBabel11052417483D

 31 35  0  0  1  0  0  0  0  0999 V2000
  194.6870  175.3010  140.1470 C   0  0  0  0  0  0  0  0  0  0  0  0
  192.0710  174.0310  142.5810 C   0  0  1  0  0  3  0  0  0  0  0  0
  190.8600  174.9120  142.3040 C   0  0  0  0  0  2  0  0  0  0  0  0
  188.9150  174.6230  140.7990 C   0  0  0  0  0  3  0  0  0  0  0  0
  193.2950  174.6920  142.0190 C   0  0  0  0  0  0  0  0  0  0  0  0
  195.4620  176.0510  140.9760 N   0  0  0  0  0  0  0  0  0  0  0  0
  189.7180  174.1390  141.7290 C   0  0  2  0  0  3  0  0  0  0  0  0
  192.9520  174.7820  144.8240 C   0  0  0  0  0  0  0  0  0  0  0  0
  194.9930  175.2260  138.7610 N   0  0  0  0  0  1  0  0  0  0  0  0
  190.1130  172.6150  144.4750 C   0  0  0  0  0  2  0  0  0  0  0  0
  187.8170  173.6300  140.5720 C   0  0  0  0  0  3  0  0  0  0  0  0
  193.8490  175.5350  144.2610 N   0  0  0  0  0  0  0  0  0  0  0  0
  192.2010  173.8390  144.0310 N   0  0  0  0  0  0  0  0  0  0  0  0
  193.5810  174.6120  140.6540 C   0  0  0  0  0  3  0  0  0  0  0  0
  188.1090  172.5610  141.5190 N   0  0  0  0  0  0  0  0  0  0  0  0
  194.1100  175.4690  142.8550 C   0  0  0  0  0  0  0  0  0  0  0  0
  195.2000  176.1480  142.3070 C   0  0  0  0  0  3  0  0  0  0  0  0
  191.6220  172.6530  144.6560 C   0  0  0  0  0  2  0  0  0  0  0  0
  189.1700  172.8680  142.1820 C   0  0  0  0  0  0  0  0  0  0  0  0
  189.7840  171.9250  143.1640 C   0  0  0  0  0  2  0  0  0  0  0  0
  192.7690  174.8610  146.3070 C   0  0  0  0  0  2  0  0  0  0  0  0
  192.4090  176.7920  147.6380 O   0  0  0  0  0  0  0  0  0  0  0  0
  191.9950  176.0870  146.6800 C   0  0  0  0  0  0  0  0  0  0  0  0
  188.5390  177.2860  144.4260 C   0  0  0  0  0  0  0  0  0  0  0  0
  190.8870  177.4810  144.9540 C   0  0  0  0  0  3  0  0  0  0  0  0
  189.2600  174.5410  147.2630 Cl  0  0  0  0  0  0  0  0  0  0  0  0
  187.1460  177.7930  143.4950 Cl  0  0  0  0  0  0  0  0  0  0  0  0
  189.7780  177.8880  144.2110 C   0  0  0  0  0  3  0  0  0  0  0  0
  189.5160  175.8600  146.1290 C   0  0  0  0  0  0  0  0  0  0  0  0
  190.7790  176.4690  145.9210 C   0  0  0  0  0  0  0  0  0  0  0  0
  188.4120  176.2740  145.3770 C   0  0  0  0  0  3  0  0  0  0  0  0
  1 14  2  0  0  0  0
  1  6  1  0  0  0  0
  2  3  1  1  0  0  0
  2 13  1  0  0  0  0
  5  2  1  0  0  0  0
  5 16  2  0  0  0  0
  6 17  2  0  0  0  0
  7  4  1  1  0  0  0
  7 19  1  0  0  0  0
  7  3  1  0  0  0  0
  8 21  1  0  0  0  0
  9  1  1  0  0  0  0
 10 18  1  0  0  0  0
 11  4  2  0  0  0  0
 11 15  1  0  0  0  0
 12  8  2  0  0  0  0
 13 18  1  0  0  0  0
 13  8  1  0  0  0  0
 14  5  1  0  0  0  0
 15 19  2  0  0  0  0
 16 12  1  0  0  0  0
 17 16  1  0  0  0  0
 19 20  1  0  0  0  0
 20 10  1  0  0  0  0
 21 23  1  0  0  0  0
 23 22  2  0  0  0  0
 24 31  1  0  0  0  0
 25 30  2  0  0  0  0
 27 24  1  0  0  0  0
 28 24  2  0  0  0  0
 28 25  1  0  0  0  0
 29 26  1  0  0  0  0
 30 29  1  0  0  0  0
 30 23  1  0  0  0  0
 31 29  2  0  0  0  0
M  END
>  <MODEL>
8

>  <REMARK>
 VINA RESULT:      -7.9      3.065      5.568
  Name = 
  3 active torsions:
  status: ('A' for Active; 'I' for Inactive)
    1  A    between atoms: C_9  and  C_22
    2  A    between atoms: C_9  and  C_23
    3  A    between atoms: C_15  and  C_23
                            x       y       z     vdW  Elec       q    Type
                         _______ _______ _______ _____ _____    ______ ____

>  <TORSDO>
F 3

$$$$
=
 OpenBabel11052417483D

 31 35  0  0  1  0  0  0  0  0999 V2000
  191.7780  172.3280  140.8410 C   0  0  0  0  0  0  0  0  0  0  0  0
  193.1270  174.0260  143.9510 C   0  0  1  0  0  3  0  0  0  0  0  0
  193.3660  172.8750  144.9180 C   0  0  0  0  0  2  0  0  0  0  0  0
  195.3690  171.4940  145.3800 C   0  0  0  0  0  3  0  0  0  0  0  0
  192.1980  173.5680  142.8650 C   0  0  0  0  0  0  0  0  0  0  0  0
  190.4490  172.5940  140.9620 N   0  0  0  0  0  0  0  0  0  0  0  0
  194.8170  172.6830  145.2200 C   0  0  0  0  0  0  0  0  0  0  0  0
  191.1180  175.2590  144.8570 C   0  0  0  0  0  0  0  0  0  0  0  0
  192.2510  171.5530  139.7470 N   0  0  0  0  0  1  0  0  0  0  0  0
  194.4200  175.6660  146.2020 C   0  0  0  0  0  2  0  0  0  0  0  0
  196.7920  171.6960  145.8030 C   0  0  0  0  0  2  0  0  0  0  0  0
  190.3220  174.6380  144.0390 N   0  0  0  0  0  0  0  0  0  0  0  0
  192.5480  175.1570  144.6880 N   0  0  0  0  0  0  0  0  0  0  0  0
  192.6780  172.8050  141.7970 C   0  0  0  0  0  3  0  0  0  0  0  0
  196.9310  173.1450  145.8840 N   0  0  0  0  0  0  0  0  0  0  0  0
  190.8250  173.8310  142.9680 C   0  0  0  0  0  0  0  0  0  0  0  0
  189.9580  173.3300  141.9960 C   0  0  0  0  0  3  0  0  0  0  0  0
  193.4220  176.2120  145.1940 C   0  0  0  0  0  2  0  0  0  0  0  0
  195.8060  173.6910  145.5750 C   0  0  0  0  0  0  0  0  0  0  0  0
  195.6540  175.1730  145.4680 C   0  0  0  0  0  2  0  0  0  0  0  0
  190.5270  176.1310  145.9180 C   0  0  0  0  0  2  0  0  0  0  0  0
  190.5120  178.0840  144.5700 O   0  0  0  0  0  0  0  0  0  0  0  0
  189.8420  177.3160  145.3100 C   0  0  0  0  0  0  0  0  0  0  0  0
  185.6860  178.0080  146.1560 C   0  0  0  0  0  0  0  0  0  0  0  0
  187.9420  177.5500  146.8870 C   0  0  0  0  0  3  0  0  0  0  0  0
  187.9250  177.9140  142.8260 Cl  0  0  0  0  0  0  0  0  0  0  0  0
  183.9990  178.2860  146.5250 Cl  0  0  0  0  0  0  0  0  0  0  0  0
  186.5970  177.7710  147.1850 C   0  0  0  0  0  3  0  0  0  0  0  0
  187.4690  177.8100  144.5210 C   0  0  0  0  0  0  0  0  0  0  0  0
  188.4010  177.5630  145.5600 C   0  0  0  0  0  0  0  0  0  0  0  0
  186.1240  178.0320  144.8310 C   0  0  0  0  0  3  0  0  0  0  0  0
  1  6  2  0  0  0  0
  1 14  1  0  0  0  0
  2 13  1  0  0  0  0
  2  3  1  1  0  0  0
  3  7  1  0  0  0  0
  4 11  1  0  0  0  0
  5 16  1  0  0  0  0
  5  2  1  0  0  0  0
  6 17  1  0  0  0  0
  7  4  2  0  0  0  0
  7 19  1  0  0  0  0
  8 21  1  0  0  0  0
  9  1  1  0  0  0  0
 11 15  1  0  0  0  0
 12  8  2  0  0  0  0
 13  8  1  0  0  0  0
 13 18  1  0  0  0  0
 14  5  2  0  0  0  0
 16 12  1  0  0  0  0
 17 16  2  0  0  0  0
 18 10  1  0  0  0  0
 19 15  2  0  0  0  0
 20 19  1  0  0  0  0
 20 10  1  0  0  0  0
 22 23  2  0  0  0  0
 23 30  1  0  0  0  0
 23 21  1  0  0  0  0
 24 27  1  0  0  0  0
 24 28  1  0  0  0  0
 25 28  2  0  0  0  0
 26 29  1  0  0  0  0
 29 31  1  0  0  0  0
 29 30  2  0  0  0  0
 30 25  1  0  0  0  0
 31 24  2  0  0  0  0
M  END
>  <MODEL>
9

>  <REMARK>
 VINA RESULT:      -7.9      3.144      7.673
  Name = 
  3 active torsions:
  status: ('A' for Active; 'I' for Inactive)
    1  A    between atoms: C_9  and  C_22
    2  A    between atoms: C_9  and  C_23
    3  A    between atoms: C_15  and  C_23
                            x       y       z     vdW  Elec       q    Type
                         _______ _______ _______ _____ _____    ______ ____

>  <TORSDO>
F 3

$$$$
