=
 OpenBabel11052418593D

 34 39  0  0  1  0  0  0  0  0999 V2000
  187.3250  177.0130  146.9650 C   0  0  2  0  0  3  0  0  0  0  0  0
  184.3380  178.6670  147.0740 O   0  0  0  0  0  1  0  0  0  0  0  0
  182.3810  178.3400  140.9190 C   0  0  0  0  0  3  0  0  0  0  0  0
  186.3990  177.1930  144.6570 C   0  0  0  0  0  0  0  0  0  0  0  0
  185.7240  177.3860  142.3270 C   0  0  0  0  0  0  0  0  0  0  0  0
  186.4840  178.7600  147.9150 O   0  0  0  0  0  0  0  0  0  0  0  0
  185.6920  178.6600  146.7410 C   0  0  0  0  0  0  0  0  0  0  0  0
  184.1010  178.1240  144.1130 C   0  0  0  0  0  2  0  0  0  0  0  0
  181.2490  178.8290  141.3130 N   0  0  0  0  0  0  0  0  0  0  0  0
  186.1110  177.2990  146.1510 C   0  0  2  0  0  3  0  0  0  0  0  0
  183.5040  179.0370  143.0550 C   0  0  0  0  0  2  0  0  0  0  0  0
  184.7930  177.8590  141.2420 C   0  0  0  0  0  2  0  0  0  0  0  0
  187.4860  177.8250  147.9490 N   0  0  0  0  0  2  0  0  0  0  0  0
  187.5620  176.4940  144.2290 C   0  0  0  0  0  0  0  0  0  0  0  0
  188.3870  176.1490  146.4730 C   0  0  0  0  0  3  0  0  0  0  0  0
  185.9890  179.7240  145.8840 O   0  0  0  0  0  1  0  0  0  0  0  0
  186.8740  176.7750  141.9570 N   0  0  0  0  0  0  0  0  0  0  0  0
  187.7970  176.3190  142.8470 C   0  0  0  0  0  0  0  0  0  0  0  0
  183.5260  178.3480  141.7720 N   0  0  0  0  0  0  0  0  0  0  0  0
  185.4500  177.6020  143.6940 C   0  0  0  0  0  0  0  0  0  0  0  0
  188.4650  175.9180  145.1980 N   0  0  0  0  0  0  0  0  0  0  0  0
  191.4140  175.4790  142.1750 N   0  0  0  0  0  0  0  0  0  0  0  0
  191.3840  174.1540  141.5510 C   0  0  0  0  0  2  0  0  0  0  0  0
  189.0130  175.6520  142.3120 C   0  0  0  0  0  0  0  0  0  0  0  0
  190.0150  173.8040  141.0380 C   0  0  0  0  0  3  0  0  0  0  0  0
  190.2210  176.1120  142.6550 C   0  0  0  0  0  3  0  0  0  0  0  0
  188.9290  174.4800  141.4170 C   0  0  0  0  0  3  0  0  0  0  0  0
  192.6980  176.0630  142.5100 C   0  0  0  0  0  1  0  0  0  0  0  0
  179.4360  180.8310  139.3250 O   0  0  0  0  0  1  0  0  0  0  0  0
  179.3470  180.1450  140.5350 C   0  0  2  0  0  3  0  0  0  0  0  0
  177.9330  178.4610  141.5000 C   0  0  0  0  0  2  0  0  0  0  0  0
  179.1190  177.7430  140.8940 C   0  0  0  0  0  2  0  0  0  0  0  0
  180.0880  178.8200  140.4370 C   0  0  2  0  0  3  0  0  0  0  0  0
  177.9010  179.8120  140.8290 C   0  0  0  0  0  2  0  0  0  0  0  0
  1 15  1  6  0  0  0
  1 13  1  0  0  0  0
  3  9  2  0  0  0  0
  3 19  1  0  0  0  0
  5 20  1  0  0  0  0
  6 13  1  0  0  0  0
  7  2  1  0  0  0  0
  7  6  1  0  0  0  0
 10  4  1  6  0  0  0
 10  7  1  0  0  0  0
 10  1  1  0  0  0  0
 11  8  1  0  0  0  0
 12 19  1  0  0  0  0
 12  5  1  0  0  0  0
 14  4  1  0  0  0  0
 14 21  1  0  0  0  0
 16  7  1  0  0  0  0
 17  5  2  0  0  0  0
 17 18  1  0  0  0  0
 18 14  2  0  0  0  0
 19 11  1  0  0  0  0
 20  8  1  0  0  0  0
 20  4  2  0  0  0  0
 21 15  2  0  0  0  0
 22 28  1  0  0  0  0
 22 26  1  0  0  0  0
 23 22  1  0  0  0  0
 24 26  2  0  0  0  0
 24 18  1  0  0  0  0
 25 27  2  0  0  0  0
 25 23  1  0  0  0  0
 27 24  1  0  0  0  0
 30 29  1  6  0  0  0
 30 34  1  0  0  0  0
 32 31  1  0  0  0  0
 33 30  1  0  0  0  0
 33 32  1  0  0  0  0
 33  9  1  1  0  0  0
 34 31  1  0  0  0  0
M  END
>  <MODEL>
1

>  <REMARK>
 VINA RESULT:      -8.9      0.000      0.000
  Name = 
  2 active torsions:
  status: ('A' for Active; 'I' for Inactive)
    1  A    between atoms: C_12  and  C_28
    2  A    between atoms: N_13  and  C_33
                            x       y       z     vdW  Elec       q    Type
                         _______ _______ _______ _____ _____    ______ ____

>  <TORSDO>
F 2

$$$$
=
 OpenBabel11052418593D

 34 39  0  0  1  0  0  0  0  0999 V2000
  191.8630  176.0290  146.1780 C   0  0  2  0  0  3  0  0  0  0  0  0
  193.7620  174.1220  144.0740 O   0  0  0  0  0  1  0  0  0  0  0  0
  189.9290  173.5910  138.8920 C   0  0  0  0  0  3  0  0  0  0  0  0
  190.5490  175.5130  144.1230 C   0  0  0  0  0  0  0  0  0  0  0  0
  189.0700  175.0040  142.2590 C   0  0  0  0  0  0  0  0  0  0  0  0
  193.1820  174.3240  146.2980 O   0  0  0  0  0  0  0  0  0  0  0  0
  192.6960  174.2200  144.9680 C   0  0  0  0  0  0  0  0  0  0  0  0
  191.4910  174.3140  142.0930 C   0  0  0  0  0  2  0  0  0  0  0  0
  190.9290  173.0420  138.2800 N   0  0  0  0  0  0  0  0  0  0  0  0
  191.9290  175.5430  144.7720 C   0  0  2  0  0  3  0  0  0  0  0  0
  191.0180  173.2390  141.1290 C   0  0  0  0  0  2  0  0  0  0  0  0
  188.7560  174.3300  140.9490 C   0  0  0  0  0  2  0  0  0  0  0  0
  192.5900  175.3480  146.9910 N   0  0  0  0  0  2  0  0  0  0  0  0
  189.4960  176.2680  144.7110 C   0  0  0  0  0  0  0  0  0  0  0  0
  190.8130  176.9310  146.6240 C   0  0  0  0  0  3  0  0  0  0  0  0
  191.8640  173.1030  144.8600 O   0  0  0  0  0  1  0  0  0  0  0  0
  188.0740  175.6780  142.8820 N   0  0  0  0  0  0  0  0  0  0  0  0
  188.2350  176.3130  144.0750 C   0  0  0  0  0  0  0  0  0  0  0  0
  189.9450  173.7840  140.3070 N   0  0  0  0  0  0  0  0  0  0  0  0
  190.3420  174.9130  142.8600 C   0  0  0  0  0  0  0  0  0  0  0  0
  189.7290  177.0290  145.9160 N   0  0  0  0  0  0  0  0  0  0  0  0
  185.5980  178.9420  144.6880 N   0  0  0  0  0  0  0  0  0  0  0  0
  184.5920  178.2800  145.5200 C   0  0  0  0  0  2  0  0  0  0  0  0
  187.0660  177.0290  144.6480 C   0  0  0  0  0  0  0  0  0  0  0  0
  185.1220  177.0240  146.1540 C   0  0  0  0  0  3  0  0  0  0  0  0
  186.7330  178.2340  144.1720 C   0  0  0  0  0  3  0  0  0  0  0  0
  186.2440  176.4410  145.7260 C   0  0  0  0  0  3  0  0  0  0  0  0
  185.3270  180.2780  144.1950 C   0  0  0  0  0  1  0  0  0  0  0  0
  189.2170  173.9230  135.5350 O   0  0  0  0  0  1  0  0  0  0  0  0
  189.4680  172.8120  136.3390 C   0  0  2  0  0  3  0  0  0  0  0  0
  190.3780  170.6070  136.0580 C   0  0  0  0  0  2  0  0  0  0  0  0
  191.5180  171.5000  136.5010 C   0  0  0  0  0  2  0  0  0  0  0  0
  190.9050  172.8470  136.8390 C   0  0  2  0  0  3  0  0  0  0  0  0
  189.3230  171.5460  135.5240 C   0  0  0  0  0  2  0  0  0  0  0  0
  1 15  1  1  0  0  0
  1 13  1  0  0  0  0
  2  7  1  0  0  0  0
  3 19  1  0  0  0  0
  4 14  1  0  0  0  0
  5 20  1  0  0  0  0
  5 17  2  0  0  0  0
  6 13  1  0  0  0  0
  7  6  1  0  0  0  0
  8 20  1  0  0  0  0
  9  3  2  0  0  0  0
 10  4  1  1  0  0  0
 10  7  1  0  0  0  0
 10  1  1  0  0  0  0
 11  8  1  0  0  0  0
 12  5  1  0  0  0  0
 14 21  1  0  0  0  0
 16  7  1  0  0  0  0
 17 18  1  0  0  0  0
 18 24  1  0  0  0  0
 18 14  2  0  0  0  0
 19 12  1  0  0  0  0
 19 11  1  0  0  0  0
 20  4  2  0  0  0  0
 21 15  2  0  0  0  0
 22 23  1  0  0  0  0
 23 25  1  0  0  0  0
 24 27  1  0  0  0  0
 26 24  2  0  0  0  0
 26 22  1  0  0  0  0
 27 25  2  0  0  0  0
 28 22  1  0  0  0  0
 30 29  1  6  0  0  0
 30 33  1  0  0  0  0
 31 32  1  0  0  0  0
 32 33  1  0  0  0  0
 33  9  1  1  0  0  0
 34 31  1  0  0  0  0
 34 30  1  0  0  0  0
M  END
>  <MODEL>
2

>  <REMARK>
 VINA RESULT:      -8.6      4.884      8.587
  Name = 
  2 active torsions:
  status: ('A' for Active; 'I' for Inactive)
    1  A    between atoms: C_12  and  C_28
    2  A    between atoms: N_13  and  C_33
                            x       y       z     vdW  Elec       q    Type
                         _______ _______ _______ _____ _____    ______ ____

>  <TORSDO>
F 2

$$$$
=
 OpenBabel11052418593D

 34 39  0  0  1  0  0  0  0  0999 V2000
  191.9490  172.7640  139.8600 C   0  0  2  0  0  3  0  0  0  0  0  0
  188.5890  173.0600  140.4010 O   0  0  0  0  0  1  0  0  0  0  0  0
  188.3500  177.6050  144.9960 C   0  0  0  0  0  3  0  0  0  0  0  0
  191.5540  174.3580  141.7360 C   0  0  0  0  0  0  0  0  0  0  0  0
  191.3750  175.8310  143.6650 C   0  0  0  0  0  0  0  0  0  0  0  0
  190.2200  171.4780  140.0030 O   0  0  0  0  0  0  0  0  0  0  0  0
  189.8310  172.5770  140.8130 C   0  0  0  0  0  0  0  0  0  0  0  0
  189.2590  175.1590  142.4660 C   0  0  0  0  0  2  0  0  0  0  0  0
  187.0660  177.6170  144.8360 N   0  0  0  0  0  0  0  0  0  0  0  0
  190.9420  173.6140  140.5540 C   0  0  2  0  0  3  0  0  0  0  0  0
  188.5470  175.4130  143.7840 C   0  0  0  0  0  2  0  0  0  0  0  0
  190.5840  176.5620  144.7170 C   0  0  0  0  0  2  0  0  0  0  0  0
  191.5070  171.5980  139.5450 N   0  0  0  0  0  2  0  0  0  0  0  0
  192.9690  174.4900  141.8070 C   0  0  0  0  0  0  0  0  0  0  0  0
  193.3650  173.0920  139.8770 C   0  0  0  0  0  3  0  0  0  0  0  0
  189.7790  172.1770  142.1510 O   0  0  0  0  0  1  0  0  0  0  0  0
  192.7260  175.8780  143.7370 N   0  0  0  0  0  0  0  0  0  0  0  0
  193.5440  175.2460  142.8530 C   0  0  0  0  0  0  0  0  0  0  0  0
  189.1540  176.5680  144.4320 N   0  0  0  0  0  0  0  0  0  0  0  0
  190.7510  175.0750  142.6510 C   0  0  0  0  0  0  0  0  0  0  0  0
  193.8090  173.9060  140.7870 N   0  0  0  0  0  0  0  0  0  0  0  0
  197.0760  174.6560  144.0450 N   0  0  0  0  0  0  0  0  0  0  0  0
  197.9160  175.4360  143.1350 C   0  0  0  0  0  2  0  0  0  0  0  0
  195.0130  175.3880  143.0350 C   0  0  0  0  0  0  0  0  0  0  0  0
  197.1230  176.4630  142.3760 C   0  0  0  0  0  3  0  0  0  0  0  0
  195.6570  174.5600  143.8640 C   0  0  0  0  0  3  0  0  0  0  0  0
  195.7910  176.4150  142.3110 C   0  0  0  0  0  3  0  0  0  0  0  0
  197.7160  173.7880  145.0140 C   0  0  0  0  0  1  0  0  0  0  0  0
  185.4080  178.4260  147.6360 O   0  0  0  0  0  1  0  0  0  0  0  0
  185.1740  178.0780  146.3070 C   0  0  2  0  0  3  0  0  0  0  0  0
  184.0750  179.0460  144.4030 C   0  0  0  0  0  2  0  0  0  0  0  0
  185.5370  179.4280  144.3080 C   0  0  0  0  0  2  0  0  0  0  0  0
  186.2530  178.6750  145.4160 C   0  0  2  0  0  3  0  0  0  0  0  0
  183.8580  178.6660  145.8480 C   0  0  0  0  0  2  0  0  0  0  0  0
  1 15  1  1  0  0  0
  1 10  1  0  0  0  0
  2  7  1  0  0  0  0
  4 14  2  0  0  0  0
  4 20  1  0  0  0  0
  5 17  1  0  0  0  0
  5 12  1  0  0  0  0
  6  7  1  0  0  0  0
  7 16  1  0  0  0  0
  8 20  1  0  0  0  0
  8 11  1  0  0  0  0
  9  3  2  0  0  0  0
 10  7  1  0  0  0  0
 10  4  1  1  0  0  0
 11 19  1  0  0  0  0
 13  1  1  0  0  0  0
 13  6  1  0  0  0  0
 14 18  1  0  0  0  0
 15 21  2  0  0  0  0
 18 24  1  0  0  0  0
 18 17  2  0  0  0  0
 19 12  1  0  0  0  0
 19  3  1  0  0  0  0
 20  5  2  0  0  0  0
 21 14  1  0  0  0  0
 22 28  1  0  0  0  0
 23 22  1  0  0  0  0
 24 26  2  0  0  0  0
 25 23  1  0  0  0  0
 26 22  1  0  0  0  0
 27 25  2  0  0  0  0
 27 24  1  0  0  0  0
 30 29  1  1  0  0  0
 31 34  1  0  0  0  0
 32 31  1  0  0  0  0
 32 33  1  0  0  0  0
 33  9  1  6  0  0  0
 33 30  1  0  0  0  0
 34 30  1  0  0  0  0
M  END
>  <MODEL>
3

>  <REMARK>
 VINA RESULT:      -8.5      3.929      7.698
  Name = 
  2 active torsions:
  status: ('A' for Active; 'I' for Inactive)
    1  A    between atoms: C_12  and  C_28
    2  A    between atoms: N_13  and  C_33
                            x       y       z     vdW  Elec       q    Type
                         _______ _______ _______ _____ _____    ______ ____

>  <TORSDO>
F 2

$$$$
=
 OpenBabel11052418593D

 34 39  0  0  1  0  0  0  0  0999 V2000
  192.3730  172.7590  140.1130 C   0  0  2  0  0  3  0  0  0  0  0  0
  189.2800  174.1160  139.6030 O   0  0  0  0  0  1  0  0  0  0  0  0
  188.1290  177.0350  145.2580 C   0  0  0  0  0  3  0  0  0  0  0  0
  191.5850  173.8270  142.2230 C   0  0  0  0  0  0  0  0  0  0  0  0
  190.9320  174.6940  144.4020 C   0  0  0  0  0  0  0  0  0  0  0  0
  190.5090  172.2120  139.1720 O   0  0  0  0  0  0  0  0  0  0  0  0
  190.0720  173.1190  140.1730 C   0  0  0  0  0  0  0  0  0  0  0  0
  189.4530  175.1920  142.4190 C   0  0  0  0  0  2  0  0  0  0  0  0
  187.0820  177.5610  144.7080 N   0  0  0  0  0  0  0  0  0  0  0  0
  191.3920  173.7030  140.7150 C   0  0  2  0  0  3  0  0  0  0  0  0
  188.3200  175.3300  143.4220 C   0  0  0  0  0  2  0  0  0  0  0  0
  189.9560  175.3580  145.3370 C   0  0  0  0  0  2  0  0  0  0  0  0
  191.8560  171.9670  139.2430 N   0  0  0  0  0  2  0  0  0  0  0  0
  192.8170  173.4050  142.7950 C   0  0  0  0  0  0  0  0  0  0  0  0
  193.6760  172.5260  140.7160 C   0  0  0  0  0  3  0  0  0  0  0  0
  189.3550  172.4270  141.1520 O   0  0  0  0  0  1  0  0  0  0  0  0
  192.0900  174.2200  144.9220 N   0  0  0  0  0  0  0  0  0  0  0  0
  193.0400  173.5900  144.1790 C   0  0  0  0  0  0  0  0  0  0  0  0
  188.8350  175.9650  144.6290 N   0  0  0  0  0  0  0  0  0  0  0  0
  190.6540  174.5190  143.0300 C   0  0  0  0  0  0  0  0  0  0  0  0
  193.8560  172.8470  141.9620 N   0  0  0  0  0  0  0  0  0  0  0  0
  195.6100  171.3480  145.7920 N   0  0  0  0  0  0  0  0  0  0  0  0
  196.8150  172.1730  145.9000 C   0  0  0  0  0  2  0  0  0  0  0  0
  194.2730  173.1280  144.8680 C   0  0  0  0  0  0  0  0  0  0  0  0
  196.5120  173.6370  145.7470 C   0  0  0  0  0  3  0  0  0  0  0  0
  194.4240  171.8300  145.1490 C   0  0  0  0  0  3  0  0  0  0  0  0
  195.3520  174.0650  145.2430 C   0  0  0  0  0  3  0  0  0  0  0  0
  195.6920  169.9450  146.1470 C   0  0  0  0  0  1  0  0  0  0  0  0
  185.8480  178.4930  147.6830 O   0  0  0  0  0  1  0  0  0  0  0  0
  185.4240  178.0970  146.4160 C   0  0  2  0  0  3  0  0  0  0  0  0
  184.0690  179.0060  144.6530 C   0  0  0  0  0  2  0  0  0  0  0  0
  185.5040  179.3670  144.3340 C   0  0  0  0  0  2  0  0  0  0  0  0
  186.3670  178.6490  145.3570 C   0  0  2  0  0  3  0  0  0  0  0  0
  184.0590  178.6830  146.1270 C   0  0  0  0  0  2  0  0  0  0  0  0
  1 10  1  0  0  0  0
  1 15  1  1  0  0  0
  2  7  1  0  0  0  0
  4 14  2  0  0  0  0
  4 20  1  0  0  0  0
  5 17  1  0  0  0  0
  5 12  1  0  0  0  0
  6 13  1  0  0  0  0
  6  7  1  0  0  0  0
  7 10  1  0  0  0  0
  7 16  1  0  0  0  0
  8 20  1  0  0  0  0
  8 11  1  0  0  0  0
  9  3  2  0  0  0  0
 10  4  1  1  0  0  0
 11 19  1  0  0  0  0
 13  1  1  0  0  0  0
 14 18  1  0  0  0  0
 15 21  2  0  0  0  0
 18 24  1  0  0  0  0
 18 17  2  0  0  0  0
 19  3  1  0  0  0  0
 19 12  1  0  0  0  0
 20  5  2  0  0  0  0
 21 14  1  0  0  0  0
 22 23  1  0  0  0  0
 22 28  1  0  0  0  0
 24 26  2  0  0  0  0
 24 27  1  0  0  0  0
 25 23  1  0  0  0  0
 26 22  1  0  0  0  0
 27 25  2  0  0  0  0
 30 29  1  1  0  0  0
 31 34  1  0  0  0  0
 32 31  1  0  0  0  0
 32 33  1  0  0  0  0
 33  9  1  6  0  0  0
 33 30  1  0  0  0  0
 34 30  1  0  0  0  0
M  END
>  <MODEL>
4

>  <REMARK>
 VINA RESULT:      -8.3      4.335      7.909
  Name = 
  2 active torsions:
  status: ('A' for Active; 'I' for Inactive)
    1  A    between atoms: C_12  and  C_28
    2  A    between atoms: N_13  and  C_33
                            x       y       z     vdW  Elec       q    Type
                         _______ _______ _______ _____ _____    ______ ____

>  <TORSDO>
F 2

$$$$
=
 OpenBabel11052418593D

 34 39  0  0  1  0  0  0  0  0999 V2000
  191.9470  172.8220  139.3430 C   0  0  2  0  0  3  0  0  0  0  0  0
  188.5390  172.8010  139.5790 O   0  0  0  0  0  1  0  0  0  0  0  0
  187.4920  176.8690  144.4960 C   0  0  0  0  0  3  0  0  0  0  0  0
  191.2480  174.2000  141.3010 C   0  0  0  0  0  0  0  0  0  0  0  0
  190.7680  175.4700  143.3200 C   0  0  0  0  0  0  0  0  0  0  0  0
  190.3310  171.3970  139.2080 O   0  0  0  0  0  0  0  0  0  0  0  0
  189.7760  172.3820  140.0670 C   0  0  0  0  0  0  0  0  0  0  0  0
  188.8350  174.7470  141.8690 C   0  0  0  0  0  2  0  0  0  0  0  0
  186.2310  176.7950  144.2140 N   0  0  0  0  0  0  0  0  0  0  0  0
  190.8120  173.5230  140.0060 C   0  0  2  0  0  3  0  0  0  0  0  0
  187.9880  174.8200  143.1280 C   0  0  0  0  0  2  0  0  0  0  0  0
  189.8240  176.0360  144.3490 C   0  0  0  0  0  2  0  0  0  0  0  0
  191.6390  171.6600  138.8900 N   0  0  0  0  0  2  0  0  0  0  0  0
  192.6340  174.4360  141.5200 C   0  0  0  0  0  0  0  0  0  0  0  0
  193.3220  173.2590  139.5260 C   0  0  0  0  0  3  0  0  0  0  0  0
  189.6390  171.8570  141.3550 O   0  0  0  0  0  1  0  0  0  0  0  0
  192.0980  175.6170  143.5280 N   0  0  0  0  0  0  0  0  0  0  0  0
  193.0440  175.1360  142.6770 C   0  0  0  0  0  0  0  0  0  0  0  0
  188.4310  175.9560  143.9270 N   0  0  0  0  0  0  0  0  0  0  0  0
  190.3060  174.7640  142.1900 C   0  0  0  0  0  0  0  0  0  0  0  0
  193.6090  174.0170  140.5400 N   0  0  0  0  0  0  0  0  0  0  0  0
  196.4460  174.8180  144.2800 N   0  0  0  0  0  0  0  0  0  0  0  0
  197.3390  175.6070  143.4290 C   0  0  0  0  0  2  0  0  0  0  0  0
  194.4720  175.3760  143.0120 C   0  0  0  0  0  0  0  0  0  0  0  0
  196.5800  176.5490  142.5360 C   0  0  0  0  0  3  0  0  0  0  0  0
  195.0640  174.6270  143.9490 C   0  0  0  0  0  3  0  0  0  0  0  0
  195.2690  176.4160  142.3270 C   0  0  0  0  0  3  0  0  0  0  0  0
  197.0190  174.0360  145.3570 C   0  0  0  0  0  1  0  0  0  0  0  0
  185.4080  180.0450  144.2370 O   0  0  0  0  0  1  0  0  0  0  0  0
  185.9540  179.0650  145.0640 C   0  0  2  0  0  3  0  0  0  0  0  0
  185.4480  178.0830  147.1970 C   0  0  0  0  0  2  0  0  0  0  0  0
  184.8160  177.1980  146.1440 C   0  0  0  0  0  2  0  0  0  0  0  0
  185.2800  177.7270  144.7990 C   0  0  2  0  0  3  0  0  0  0  0  0
  185.6820  179.4080  146.5120 C   0  0  0  0  0  2  0  0  0  0  0  0
  1 15  1  1  0  0  0
  1 10  1  0  0  0  0
  2  7  1  0  0  0  0
  4 14  2  0  0  0  0
  4 20  1  0  0  0  0
  5 17  1  0  0  0  0
  5 12  1  0  0  0  0
  6  7  1  0  0  0  0
  7 16  1  0  0  0  0
  8 20  1  0  0  0  0
  8 11  1  0  0  0  0
  9  3  2  0  0  0  0
 10  7  1  0  0  0  0
 10  4  1  1  0  0  0
 11 19  1  0  0  0  0
 13  6  1  0  0  0  0
 13  1  1  0  0  0  0
 14 18  1  0  0  0  0
 15 21  2  0  0  0  0
 18 24  1  0  0  0  0
 18 17  2  0  0  0  0
 19 12  1  0  0  0  0
 19  3  1  0  0  0  0
 20  5  2  0  0  0  0
 21 14  1  0  0  0  0
 22 28  1  0  0  0  0
 23 22  1  0  0  0  0
 24 26  2  0  0  0  0
 25 23  1  0  0  0  0
 26 22  1  0  0  0  0
 27 25  2  0  0  0  0
 27 24  1  0  0  0  0
 30 29  1  6  0  0  0
 30 34  1  0  0  0  0
 32 31  1  0  0  0  0
 33  9  1  1  0  0  0
 33 30  1  0  0  0  0
 33 32  1  0  0  0  0
 34 31  1  0  0  0  0
M  END
>  <MODEL>
5

>  <REMARK>
 VINA RESULT:      -8.2      4.006      7.663
  Name = 
  2 active torsions:
  status: ('A' for Active; 'I' for Inactive)
    1  A    between atoms: C_12  and  C_28
    2  A    between atoms: N_13  and  C_33
                            x       y       z     vdW  Elec       q    Type
                         _______ _______ _______ _____ _____    ______ ____

>  <TORSDO>
F 2

$$$$
=
 OpenBabel11052418593D

 34 39  0  0  1  0  0  0  0  0999 V2000
  191.1750  176.6140  145.2300 C   0  0  2  0  0  3  0  0  0  0  0  0
  193.1550  174.1720  143.8930 O   0  0  0  0  0  1  0  0  0  0  0  0
  189.3500  171.7130  139.2780 C   0  0  0  0  0  3  0  0  0  0  0  0
  189.8840  175.3600  143.5030 C   0  0  0  0  0  0  0  0  0  0  0  0
  188.4290  174.1740  141.9550 C   0  0  0  0  0  0  0  0  0  0  0  0
  192.5670  175.1130  145.9160 O   0  0  0  0  0  0  0  0  0  0  0  0
  192.0860  174.5330  144.7130 C   0  0  0  0  0  0  0  0  0  0  0  0
  190.8790  173.5690  142.0030 C   0  0  0  0  0  2  0  0  0  0  0  0
  190.3730  171.0270  138.8810 N   0  0  0  0  0  0  0  0  0  0  0  0
  191.2620  175.6720  144.0800 C   0  0  2  0  0  3  0  0  0  0  0  0
  190.4530  172.2070  141.4810 C   0  0  0  0  0  2  0  0  0  0  0  0
  188.1450  173.0730  140.9670 C   0  0  0  0  0  2  0  0  0  0  0  0
  191.9300  176.2890  146.2170 N   0  0  0  0  0  2  0  0  0  0  0  0
  188.8000  176.2290  143.8070 C   0  0  0  0  0  0  0  0  0  0  0  0
  190.0860  177.5710  145.3500 C   0  0  0  0  0  3  0  0  0  0  0  0
  191.3030  173.4140  145.0130 O   0  0  0  0  0  1  0  0  0  0  0  0
  187.4050  174.9810  142.3200 N   0  0  0  0  0  0  0  0  0  0  0  0
  187.5380  175.9980  143.2140 C   0  0  0  0  0  0  0  0  0  0  0  0
  189.3570  172.3870  140.5370 N   0  0  0  0  0  0  0  0  0  0  0  0
  189.7040  174.3500  142.5310 C   0  0  0  0  0  0  0  0  0  0  0  0
  188.9980  177.3710  144.6690 N   0  0  0  0  0  0  0  0  0  0  0  0
  184.8390  177.8170  145.1230 N   0  0  0  0  0  0  0  0  0  0  0  0
  184.2080  178.6980  144.1380 C   0  0  0  0  0  2  0  0  0  0  0  0
  186.3380  176.8210  143.5200 C   0  0  0  0  0  0  0  0  0  0  0  0
  184.5340  178.2910  142.7280 C   0  0  0  0  0  3  0  0  0  0  0  0
  185.9770  177.0110  144.7930 C   0  0  0  0  0  3  0  0  0  0  0  0
  185.5340  177.4510  142.4520 C   0  0  0  0  0  3  0  0  0  0  0  0
  184.4410  177.9280  146.5130 C   0  0  0  0  0  1  0  0  0  0  0  0
  192.0510  168.7290  137.1070 O   0  0  0  0  0  1  0  0  0  0  0  0
  191.7810  170.0960  137.1180 C   0  0  2  0  0  3  0  0  0  0  0  0
  190.7890  171.7040  135.6350 C   0  0  0  0  0  2  0  0  0  0  0  0
  189.6910  171.2250  136.5600 C   0  0  0  0  0  2  0  0  0  0  0  0
  190.3570  170.3400  137.5980 C   0  0  2  0  0  3  0  0  0  0  0  0
  191.8630  170.6460  135.7110 C   0  0  0  0  0  2  0  0  0  0  0  0
  1 15  1  1  0  0  0
  1 13  1  0  0  0  0
  2  7  1  0  0  0  0
  3 19  1  0  0  0  0
  4 14  1  0  0  0  0
  5 17  2  0  0  0  0
  5 20  1  0  0  0  0
  6 13  1  0  0  0  0
  7 16  1  0  0  0  0
  7  6  1  0  0  0  0
  8 20  1  0  0  0  0
  9  3  2  0  0  0  0
 10  4  1  1  0  0  0
 10  7  1  0  0  0  0
 10  1  1  0  0  0  0
 11  8  1  0  0  0  0
 12  5  1  0  0  0  0
 14 21  1  0  0  0  0
 17 18  1  0  0  0  0
 18 24  1  0  0  0  0
 18 14  2  0  0  0  0
 19 12  1  0  0  0  0
 19 11  1  0  0  0  0
 20  4  2  0  0  0  0
 21 15  2  0  0  0  0
 22 28  1  0  0  0  0
 23 22  1  0  0  0  0
 24 26  2  0  0  0  0
 25 23  1  0  0  0  0
 26 22  1  0  0  0  0
 27 25  2  0  0  0  0
 27 24  1  0  0  0  0
 30 29  1  6  0  0  0
 30 33  1  0  0  0  0
 31 34  1  0  0  0  0
 31 32  1  0  0  0  0
 32 33  1  0  0  0  0
 33  9  1  1  0  0  0
 34 30  1  0  0  0  0
M  END
>  <MODEL>
6

>  <REMARK>
 VINA RESULT:      -8.1      4.654      9.053
  Name = 
  2 active torsions:
  status: ('A' for Active; 'I' for Inactive)
    1  A    between atoms: C_12  and  C_28
    2  A    between atoms: N_13  and  C_33
                            x       y       z     vdW  Elec       q    Type
                         _______ _______ _______ _____ _____    ______ ____

>  <TORSDO>
F 2

$$$$
=
 OpenBabel11052418593D

 34 39  0  0  1  0  0  0  0  0999 V2000
  194.8370  174.1760  145.0640 C   0  0  2  0  0  3  0  0  0  0  0  0
  192.8450  175.9880  147.1670 O   0  0  0  0  0  1  0  0  0  0  0  0
  187.3130  176.3340  143.8360 C   0  0  0  0  0  3  0  0  0  0  0  0
  192.6500  174.6180  143.9500 C   0  0  0  0  0  0  0  0  0  0  0  0
  190.6380  175.0600  142.6550 C   0  0  0  0  0  0  0  0  0  0  0  0
  195.0120  175.8770  146.3820 O   0  0  0  0  0  0  0  0  0  0  0  0
  193.6390  175.9310  146.0220 C   0  0  0  0  0  0  0  0  0  0  0  0
  190.6710  175.7290  145.0880 C   0  0  0  0  0  2  0  0  0  0  0  0
  186.7760  176.8520  144.8930 N   0  0  0  0  0  0  0  0  0  0  0  0
  193.4250  174.6050  145.2640 C   0  0  2  0  0  3  0  0  0  0  0  0
  189.6260  176.7680  144.7160 C   0  0  0  0  0  2  0  0  0  0  0  0
  189.2790  175.6840  142.4690 C   0  0  0  0  0  2  0  0  0  0  0  0
  195.6860  174.8850  145.7180 N   0  0  0  0  0  2  0  0  0  0  0  0
  193.1660  173.8930  142.8400 C   0  0  0  0  0  0  0  0  0  0  0  0
  195.2180  173.2990  143.9680 C   0  0  0  0  0  3  0  0  0  0  0  0
  193.4110  177.0480  145.2140 O   0  0  0  0  0  1  0  0  0  0  0  0
  191.1920  174.4180  141.5990 N   0  0  0  0  0  0  0  0  0  0  0  0
  192.4180  173.8290  141.6430 C   0  0  0  0  0  0  0  0  0  0  0  0
  188.7300  176.1970  143.7180 N   0  0  0  0  0  0  0  0  0  0  0  0
  191.3510  175.1680  143.8670 C   0  0  0  0  0  0  0  0  0  0  0  0
  194.4170  173.1790  142.9530 N   0  0  0  0  0  0  0  0  0  0  0  0
  192.9270  171.2200  138.9660 N   0  0  0  0  0  0  0  0  0  0  0  0
  193.5850  171.9290  137.8680 C   0  0  0  0  0  2  0  0  0  0  0  0
  192.9080  173.1430  140.4190 C   0  0  0  0  0  0  0  0  0  0  0  0
  194.1770  173.2370  138.3160 C   0  0  0  0  0  3  0  0  0  0  0  0
  192.4920  171.9010  140.1490 C   0  0  0  0  0  3  0  0  0  0  0  0
  193.8360  173.8010  139.4760 C   0  0  0  0  0  3  0  0  0  0  0  0
  192.5120  169.8460  138.7590 C   0  0  0  0  0  1  0  0  0  0  0  0
  184.1280  178.1590  143.3040 O   0  0  0  0  0  1  0  0  0  0  0  0
  184.8910  178.3400  144.4560 C   0  0  2  0  0  3  0  0  0  0  0  0
  184.5130  178.3700  146.8280 C   0  0  0  0  0  2  0  0  0  0  0  0
  184.9320  176.9610  146.4680 C   0  0  0  0  0  2  0  0  0  0  0  0
  185.3320  176.9900  145.0040 C   0  0  2  0  0  3  0  0  0  0  0  0
  184.0480  178.9890  145.5320 C   0  0  0  0  0  2  0  0  0  0  0  0
  1 15  1  6  0  0  0
  1 10  1  0  0  0  0
  1 13  1  0  0  0  0
  3  9  2  0  0  0  0
  5 20  2  0  0  0  0
  7  6  1  0  0  0  0
  7  2  1  0  0  0  0
 10  4  1  6  0  0  0
 10  7  1  0  0  0  0
 11  8  1  0  0  0  0
 12  5  1  0  0  0  0
 12 19  1  0  0  0  0
 13  6  1  0  0  0  0
 14 21  1  0  0  0  0
 14  4  2  0  0  0  0
 16  7  1  0  0  0  0
 17 18  2  0  0  0  0
 17  5  1  0  0  0  0
 18 14  1  0  0  0  0
 19  3  1  0  0  0  0
 19 11  1  0  0  0  0
 20  4  1  0  0  0  0
 20  8  1  0  0  0  0
 21 15  2  0  0  0  0
 22 26  1  0  0  0  0
 23 25  1  0  0  0  0
 23 22  1  0  0  0  0
 24 18  1  0  0  0  0
 25 27  2  0  0  0  0
 26 24  2  0  0  0  0
 27 24  1  0  0  0  0
 28 22  1  0  0  0  0
 30 29  1  6  0  0  0
 30 33  1  0  0  0  0
 30 34  1  0  0  0  0
 32 31  1  0  0  0  0
 33  9  1  1  0  0  0
 33 32  1  0  0  0  0
 34 31  1  0  0  0  0
M  END
>  <MODEL>
7

>  <REMARK>
 VINA RESULT:      -8.0      3.880      6.915
  Name = 
  2 active torsions:
  status: ('A' for Active; 'I' for Inactive)
    1  A    between atoms: C_12  and  C_28
    2  A    between atoms: N_13  and  C_33
                            x       y       z     vdW  Elec       q    Type
                         _______ _______ _______ _____ _____    ______ ____

>  <TORSDO>
F 2

$$$$
=
 OpenBabel11052418593D

 34 39  0  0  1  0  0  0  0  0999 V2000
  185.1190  177.8900  146.1760 C   0  0  2  0  0  3  0  0  0  0  0  0
  183.4370  178.4900  143.2630 O   0  0  0  0  0  1  0  0  0  0  0  0
  187.4410  175.9920  138.8430 C   0  0  0  0  0  3  0  0  0  0  0  0
  186.5270  177.1690  144.2480 C   0  0  0  0  0  0  0  0  0  0  0  0
  188.0920  176.5340  142.4970 C   0  0  0  0  0  0  0  0  0  0  0  0
  183.9370  179.4660  145.2930 O   0  0  0  0  0  0  0  0  0  0  0  0
  184.4670  178.8240  144.1430 C   0  0  0  0  0  0  0  0  0  0  0  0
  185.7390  177.1580  141.8340 C   0  0  0  0  0  2  0  0  0  0  0  0
  186.5060  176.1850  137.9700 N   0  0  0  0  0  0  0  0  0  0  0  0
  185.1310  177.5600  144.7240 C   0  0  2  0  0  3  0  0  0  0  0  0
  186.3230  177.5320  140.4820 C   0  0  0  0  0  2  0  0  0  0  0  0
  188.4950  176.3940  141.0520 C   0  0  0  0  0  2  0  0  0  0  0  0
  184.4270  178.9350  146.4590 N   0  0  0  0  0  2  0  0  0  0  0  0
  187.4990  176.7860  145.2130 C   0  0  0  0  0  0  0  0  0  0  0  0
  186.0820  177.3080  147.0970 C   0  0  0  0  0  3  0  0  0  0  0  0
  185.3880  179.6690  143.5170 O   0  0  0  0  0  1  0  0  0  0  0  0
  189.0140  176.2410  143.4450 N   0  0  0  0  0  0  0  0  0  0  0  0
  188.7700  176.3440  144.7800 C   0  0  0  0  0  0  0  0  0  0  0  0
  187.3710  176.5790  140.1430 N   0  0  0  0  0  0  0  0  0  0  0  0
  186.8150  176.9960  142.8750 C   0  0  0  0  0  0  0  0  0  0  0  0
  187.1740  176.7920  146.6200 N   0  0  0  0  0  0  0  0  0  0  0  0
  192.1730  176.1150  146.3940 N   0  0  0  0  0  0  0  0  0  0  0  0
  191.9230  175.5590  147.7250 C   0  0  0  0  0  2  0  0  0  0  0  0
  189.8630  175.9800  145.7190 C   0  0  0  0  0  0  0  0  0  0  0  0
  190.5670  174.9170  147.8220 C   0  0  0  0  0  3  0  0  0  0  0  0
  191.1020  176.4300  145.4950 C   0  0  0  0  0  3  0  0  0  0  0  0
  189.6180  175.1400  146.9110 C   0  0  0  0  0  3  0  0  0  0  0  0
  193.5130  176.5600  146.0650 C   0  0  0  0  0  1  0  0  0  0  0  0
  188.7200  175.0030  135.7460 O   0  0  0  0  0  1  0  0  0  0  0  0
  187.8370  176.0660  135.9280 C   0  0  2  0  0  3  0  0  0  0  0  0
  185.9470  176.9990  134.7760 C   0  0  0  0  0  2  0  0  0  0  0  0
  185.4010  176.0410  135.8130 C   0  0  0  0  0  2  0  0  0  0  0  0
  186.5850  175.5850  136.6470 C   0  0  2  0  0  3  0  0  0  0  0  0
  187.3890  176.5950  134.5840 C   0  0  0  0  0  2  0  0  0  0  0  0
  1 13  1  0  0  0  0
  1 15  1  6  0  0  0
  2  7  1  0  0  0  0
  3 19  1  0  0  0  0
  4 14  1  0  0  0  0
  5 20  1  0  0  0  0
  5 17  2  0  0  0  0
  6 13  1  0  0  0  0
  7 10  1  0  0  0  0
  7  6  1  0  0  0  0
  8 20  1  0  0  0  0
  9  3  2  0  0  0  0
 10  4  1  6  0  0  0
 10  1  1  0  0  0  0
 11  8  1  0  0  0  0
 12  5  1  0  0  0  0
 14 21  1  0  0  0  0
 16  7  1  0  0  0  0
 17 18  1  0  0  0  0
 18 14  2  0  0  0  0
 18 24  1  0  0  0  0
 19 11  1  0  0  0  0
 19 12  1  0  0  0  0
 20  4  2  0  0  0  0
 21 15  2  0  0  0  0
 22 23  1  0  0  0  0
 23 25  1  0  0  0  0
 24 27  1  0  0  0  0
 26 24  2  0  0  0  0
 26 22  1  0  0  0  0
 27 25  2  0  0  0  0
 28 22  1  0  0  0  0
 30 29  1  6  0  0  0
 30 33  1  0  0  0  0
 31 32  1  0  0  0  0
 32 33  1  0  0  0  0
 33  9  1  1  0  0  0
 34 31  1  0  0  0  0
 34 30  1  0  0  0  0
M  END
>  <MODEL>
8

>  <REMARK>
 VINA RESULT:      -7.9      3.758      5.543
  Name = 
  2 active torsions:
  status: ('A' for Active; 'I' for Inactive)
    1  A    between atoms: C_12  and  C_28
    2  A    between atoms: N_13  and  C_33
                            x       y       z     vdW  Elec       q    Type
                         _______ _______ _______ _____ _____    ______ ____

>  <TORSDO>
F 2

$$$$
=
 OpenBabel11052418593D

 34 39  0  0  1  0  0  0  0  0999 V2000
  192.3930  172.1920  138.8650 C   0  0  2  0  0  3  0  0  0  0  0  0
  188.9920  171.9250  139.0580 O   0  0  0  0  0  1  0  0  0  0  0  0
  187.5210  176.4620  143.4250 C   0  0  0  0  0  3  0  0  0  0  0  0
  191.5450  173.7360  140.6290 C   0  0  0  0  0  0  0  0  0  0  0  0
  190.9220  175.1990  142.4710 C   0  0  0  0  0  0  0  0  0  0  0  0
  190.8970  170.6350  138.8860 O   0  0  0  0  0  0  0  0  0  0  0  0
  190.2470  171.6690  139.6100 C   0  0  0  0  0  0  0  0  0  0  0  0
  189.0840  174.1520  141.0960 C   0  0  0  0  0  2  0  0  0  0  0  0
  186.2770  176.2530  143.1390 N   0  0  0  0  0  0  0  0  0  0  0  0
  191.1920  172.8740  139.4220 C   0  0  2  0  0  3  0  0  0  0  0  0
  188.2060  174.3100  142.3260 C   0  0  0  0  0  2  0  0  0  0  0  0
  189.9140  175.8090  143.4100 C   0  0  0  0  0  2  0  0  0  0  0  0
  192.1860  170.9620  138.5540 N   0  0  0  0  0  2  0  0  0  0  0  0
  192.9020  174.1080  140.8340 C   0  0  0  0  0  0  0  0  0  0  0  0
  193.7250  172.7570  139.0090 C   0  0  0  0  0  3  0  0  0  0  0  0
  190.1240  171.2960  140.9510 O   0  0  0  0  0  1  0  0  0  0  0  0
  192.2310  175.4780  142.6750 N   0  0  0  0  0  0  0  0  0  0  0  0
  193.2310  174.9740  141.9020 C   0  0  0  0  0  0  0  0  0  0  0  0
  188.5410  175.5660  142.9850 N   0  0  0  0  0  0  0  0  0  0  0  0
  190.5420  174.3270  141.4310 C   0  0  0  0  0  0  0  0  0  0  0  0
  193.9290  173.6530  139.9260 N   0  0  0  0  0  0  0  0  0  0  0  0
  196.6460  175.0590  143.5060 N   0  0  0  0  0  0  0  0  0  0  0  0
  197.4570  175.8970  142.6210 C   0  0  0  0  0  2  0  0  0  0  0  0
  194.6280  175.3680  142.2230 C   0  0  0  0  0  0  0  0  0  0  0  0
  196.6100  176.7220  141.6930 C   0  0  0  0  0  3  0  0  0  0  0  0
  195.2900  174.7190  143.1870 C   0  0  0  0  0  3  0  0  0  0  0  0
  195.3190  176.4520  141.4940 C   0  0  0  0  0  3  0  0  0  0  0  0
  197.2930  174.3810  144.6120 C   0  0  0  0  0  1  0  0  0  0  0  0
  184.2170  178.6550  142.0270 O   0  0  0  0  0  1  0  0  0  0  0  0
  185.3400  178.4860  142.8350 C   0  0  2  0  0  3  0  0  0  0  0  0
  185.9460  178.9260  145.1180 C   0  0  0  0  0  2  0  0  0  0  0  0
  185.4620  177.4930  145.0600 C   0  0  0  0  0  2  0  0  0  0  0  0
  185.2430  177.1700  143.5930 C   0  0  2  0  0  3  0  0  0  0  0  0
  185.3910  179.5820  143.8770 C   0  0  0  0  0  2  0  0  0  0  0  0
  1 15  1  1  0  0  0
  1 10  1  0  0  0  0
  2  7  1  0  0  0  0
  4 14  2  0  0  0  0
  4 20  1  0  0  0  0
  5 17  1  0  0  0  0
  5 12  1  0  0  0  0
  6  7  1  0  0  0  0
  7 16  1  0  0  0  0
  8 20  1  0  0  0  0
  8 11  1  0  0  0  0
  9  3  2  0  0  0  0
 10  7  1  0  0  0  0
 10  4  1  1  0  0  0
 11 19  1  0  0  0  0
 13  1  1  0  0  0  0
 13  6  1  0  0  0  0
 14 18  1  0  0  0  0
 15 21  2  0  0  0  0
 18 24  1  0  0  0  0
 18 17  2  0  0  0  0
 19 12  1  0  0  0  0
 19  3  1  0  0  0  0
 20  5  2  0  0  0  0
 21 14  1  0  0  0  0
 22 28  1  0  0  0  0
 23 22  1  0  0  0  0
 24 26  2  0  0  0  0
 25 23  1  0  0  0  0
 26 22  1  0  0  0  0
 27 25  2  0  0  0  0
 27 24  1  0  0  0  0
 30 29  1  6  0  0  0
 30 33  1  0  0  0  0
 30 34  1  0  0  0  0
 32 31  1  0  0  0  0
 33  9  1  6  0  0  0
 33 32  1  0  0  0  0
 34 31  1  0  0  0  0
M  END
>  <MODEL>
9

>  <REMARK>
 VINA RESULT:      -7.9      4.326      7.858
  Name = 
  2 active torsions:
  status: ('A' for Active; 'I' for Inactive)
    1  A    between atoms: C_12  and  C_28
    2  A    between atoms: N_13  and  C_33
                            x       y       z     vdW  Elec       q    Type
                         _______ _______ _______ _____ _____    ______ ____

>  <TORSDO>
F 2

$$$$
