=
 OpenBabel11052417153D

 30 33  0  0  1  0  0  0  0  0999 V2000
  189.6860  174.5750  144.8770 N   0  0  0  0  0  0  0  0  0  0  0  0
  190.2170  175.1650  147.0800 C   0  0  0  0  0  0  0  0  0  0  0  0
  189.8370  174.5690  143.4210 C   0  0  2  0  0  3  0  0  0  0  0  0
  191.0740  175.8070  147.9750 C   0  0  0  0  0  3  0  0  0  0  0  0
  188.9750  174.5330  147.6160 C   0  0  0  0  0  1  0  0  0  0  0  0
  192.0410  175.6860  143.9320 C   0  0  0  0  0  0  0  0  0  0  0  0
  192.2360  176.4250  147.5180 C   0  0  0  0  0  3  0  0  0  0  0  0
  190.5160  175.1450  145.7030 C   0  0  0  0  0  0  0  0  0  0  0  0
  191.1850  174.9770  143.0200 N   0  0  0  0  0  0  0  0  0  0  0  0
  191.6420  174.6370  141.6800 C   0  0  0  0  0  1  0  0  0  0  0  0
  192.5530  176.3960  146.1610 C   0  0  0  0  0  3  0  0  0  0  0  0
  191.7090  175.7540  145.2370 C   0  0  0  0  0  0  0  0  0  0  0  0
  188.7470  175.4420  142.7630 C   0  0  1  0  0  0  0  0  0  0  0  0
  188.7450  175.4430  141.2480 C   0  0  0  0  0  2  0  0  0  0  0  0
  187.6350  174.7230  141.9990 C   0  0  1  0  0  3  0  0  0  0  0  0
  188.3560  177.7950  142.4830 O   0  0  0  0  0  1  0  0  0  0  0  0
  188.2640  176.7500  143.4060 C   0  0  1  0  0  3  0  0  0  0  0  0
  186.8280  176.7490  145.4660 C   0  0  0  0  0  2  0  0  0  0  0  0
  186.0460  177.6970  143.4530 O   0  0  0  0  0  0  0  0  0  0  0  0
  186.8400  176.6550  143.9550 C   0  0  1  0  0  3  0  0  0  0  0  0
  185.5830  177.5280  145.7630 C   0  0  0  0  0  2  0  0  0  0  0  0
  185.0230  177.8540  144.3990 C   0  0  0  0  0  2  0  0  0  0  0  0
  187.8400  173.2190  141.8760 C   0  0  0  0  0  2  0  0  0  0  0  0
  188.2390  172.8950  140.5170 N   0  0  0  0  0  2  0  0  0  0  0  0
  190.0480  171.5720  141.1760 O   0  0  0  0  0  0  0  0  0  0  0  0
  189.3760  172.0770  140.2380 C   0  0  0  0  0  0  0  0  0  0  0  0
  189.7660  171.8160  138.8270 C   0  0  0  0  0  1  0  0  0  0  0  0
  193.3200  176.2940  143.4250 C   0  0  0  0  0  2  0  0  0  0  0  0
  194.3650  175.3820  143.5620 O   0  0  0  0  0  0  0  0  0  0  0  0
  195.4880  176.1720  143.8000 C   0  0  0  0  0  1  0  0  0  0  0  0
  1  8  2  0  0  0  0
  2  5  1  0  0  0  0
  2  4  2  0  0  0  0
  3  1  1  1  0  0  0
  6 12  2  0  0  0  0
  7  4  1  0  0  0  0
  8  2  1  0  0  0  0
  9  3  1  0  0  0  0
  9  6  1  0  0  0  0
 10  9  1  0  0  0  0
 11  7  2  0  0  0  0
 12  8  1  0  0  0  0
 12 11  1  0  0  0  0
 13 17  1  1  0  0  0
 13  3  1  0  0  0  0
 14 15  1  0  0  0  0
 14 13  1  0  0  0  0
 15 23  1  6  0  0  0
 15 13  1  0  0  0  0
 17 16  1  6  0  0  0
 18 21  1  0  0  0  0
 19 20  1  0  0  0  0
 19 22  1  0  0  0  0
 20 17  1  6  0  0  0
 20 18  1  0  0  0  0
 22 21  1  0  0  0  0
 24 23  1  0  0  0  0
 26 24  1  0  0  0  0
 26 25  2  0  0  0  0
 27 26  1  0  0  0  0
 28 29  1  0  0  0  0
 28  6  1  0  0  0  0
 29 30  1  0  0  0  0
M  END
>  <MODEL>
1

>  <REMARK>
 VINA RESULT:      -6.4      0.000      0.000
  Name = 
  7 active torsions:
  status: ('A' for Active; 'I' for Inactive)
    1  A    between atoms: C_3  and  O_11
    2  A    between atoms: C_3  and  C_19
    3  A    between atoms: C_4  and  C_13
    4  A    between atoms: N_7  and  C_16
    5  A    between atoms: C_8  and  C_12
    6  A    between atoms: C_8  and  C_13
    7  A    between atoms: C_16  and  C_30
                            x       y       z     vdW  Elec       q    Type
                         _______ _______ _______ _____ _____    ______ ____

>  <TORSDO>
F 7

$$$$
=
 OpenBabel11052417153D

 30 33  0  0  1  0  0  0  0  0999 V2000
  188.6440  174.4860  143.4610 N   0  0  0  0  0  0  0  0  0  0  0  0
  188.9900  172.9230  141.7540 C   0  0  0  0  0  0  0  0  0  0  0  0
  188.3780  175.8090  144.0300 C   0  0  2  0  0  3  0  0  0  0  0  0
  189.0170  172.6230  140.3900 C   0  0  0  0  0  3  0  0  0  0  0  0
  189.3800  171.8550  142.7220 C   0  0  0  0  0  1  0  0  0  0  0  0
  187.8460  176.4130  141.6380 C   0  0  0  0  0  0  0  0  0  0  0  0
  188.6770  173.5930  139.4490 C   0  0  0  0  0  3  0  0  0  0  0  0
  188.6270  174.2130  142.1880 C   0  0  0  0  0  0  0  0  0  0  0  0
  187.7660  176.7030  143.0450 N   0  0  0  0  0  0  0  0  0  0  0  0
  187.0630  177.8850  143.5240 C   0  0  0  0  0  1  0  0  0  0  0  0
  188.2970  174.8670  139.8670 C   0  0  0  0  0  3  0  0  0  0  0  0
  188.2590  175.1950  141.2340 C   0  0  0  0  0  0  0  0  0  0  0  0
  189.6690  176.4060  144.6300 C   0  0  1  0  0  0  0  0  0  0  0  0
  189.5360  177.8080  145.1900 C   0  0  0  0  0  2  0  0  0  0  0  0
  189.7030  176.6320  146.1420 C   0  0  1  0  0  3  0  0  0  0  0  0
  191.2910  176.8370  142.9120 O   0  0  0  0  0  1  0  0  0  0  0  0
  191.0550  176.0730  144.0580 C   0  0  1  0  0  3  0  0  0  0  0  0
  192.8620  174.9640  145.4030 C   0  0  0  0  0  2  0  0  0  0  0  0
  193.1560  177.1460  144.5570 O   0  0  0  0  0  0  0  0  0  0  0  0
  192.1830  176.2750  145.0700 C   0  0  1  0  0  3  0  0  0  0  0  0
  194.3040  175.3420  145.5600 C   0  0  0  0  0  2  0  0  0  0  0  0
  194.3290  176.8200  145.2530 C   0  0  0  0  0  2  0  0  0  0  0  0
  188.3770  176.3600  146.8400 C   0  0  0  0  0  2  0  0  0  0  0  0
  187.7300  177.6210  147.1600 N   0  0  0  0  0  2  0  0  0  0  0  0
  185.5750  176.8260  146.7420 O   0  0  0  0  0  0  0  0  0  0  0  0
  186.3150  177.7900  147.0680 C   0  0  0  0  0  0  0  0  0  0  0  0
  185.7130  179.1170  147.3630 C   0  0  0  0  0  1  0  0  0  0  0  0
  187.4170  177.4570  140.6440 C   0  0  0  0  0  2  0  0  0  0  0  0
  186.1520  177.1440  140.1460 O   0  0  0  0  0  0  0  0  0  0  0  0
  185.3680  178.2490  140.4720 C   0  0  0  0  0  1  0  0  0  0  0  0
  2  8  1  0  0  0  0
  2  5  1  0  0  0  0
  3  1  1  6  0  0  0
  3 13  1  0  0  0  0
  4  2  2  0  0  0  0
  6  9  1  0  0  0  0
  7 11  2  0  0  0  0
  7  4  1  0  0  0  0
  8  1  2  0  0  0  0
  9 10  1  0  0  0  0
  9  3  1  0  0  0  0
 11 12  1  0  0  0  0
 12  6  2  0  0  0  0
 12  8  1  0  0  0  0
 13 17  1  6  0  0  0
 13 14  1  0  0  0  0
 13 15  1  0  0  0  0
 14 15  1  0  0  0  0
 15 23  1  1  0  0  0
 17 16  1  6  0  0  0
 18 21  1  0  0  0  0
 19 20  1  0  0  0  0
 19 22  1  0  0  0  0
 20 17  1  6  0  0  0
 20 18  1  0  0  0  0
 22 21  1  0  0  0  0
 23 24  1  0  0  0  0
 25 26  2  0  0  0  0
 26 24  1  0  0  0  0
 26 27  1  0  0  0  0
 28  6  1  0  0  0  0
 29 30  1  0  0  0  0
 29 28  1  0  0  0  0
M  END
>  <MODEL>
2

>  <REMARK>
 VINA RESULT:      -6.3      2.222      6.894
  Name = 
  7 active torsions:
  status: ('A' for Active; 'I' for Inactive)
    1  A    between atoms: C_3  and  O_11
    2  A    between atoms: C_3  and  C_19
    3  A    between atoms: C_4  and  C_13
    4  A    between atoms: N_7  and  C_16
    5  A    between atoms: C_8  and  C_12
    6  A    between atoms: C_8  and  C_13
    7  A    between atoms: C_16  and  C_30
                            x       y       z     vdW  Elec       q    Type
                         _______ _______ _______ _____ _____    ______ ____

>  <TORSDO>
F 7

$$$$
=
 OpenBabel11052417153D

 30 33  0  0  1  0  0  0  0  0999 V2000
  188.0700  176.7100  145.4030 N   0  0  0  0  0  0  0  0  0  0  0  0
  186.0470  177.1640  146.4900 C   0  0  0  0  0  0  0  0  0  0  0  0
  188.9920  176.6390  144.2670 C   0  0  2  0  0  3  0  0  0  0  0  0
  184.7530  177.6860  146.4450 C   0  0  0  0  0  3  0  0  0  0  0  0
  186.5040  176.5090  147.7510 C   0  0  0  0  0  1  0  0  0  0  0  0
  187.2160  178.0080  143.1090 C   0  0  0  0  0  0  0  0  0  0  0  0
  184.2780  178.2920  145.2830 C   0  0  0  0  0  3  0  0  0  0  0  0
  186.8800  177.2370  145.3560 C   0  0  0  0  0  0  0  0  0  0  0  0
  188.5670  177.5180  143.1760 N   0  0  0  0  0  0  0  0  0  0  0  0
  189.5470  177.8940  142.1660 C   0  0  0  0  0  1  0  0  0  0  0  0
  185.0990  178.3870  144.1610 C   0  0  0  0  0  3  0  0  0  0  0  0
  186.4080  177.8720  144.1790 C   0  0  0  0  0  0  0  0  0  0  0  0
  189.1620  175.1770  143.8020 C   0  0  1  0  0  0  0  0  0  0  0  0
  190.5940  174.7030  143.6640 C   0  0  0  0  0  2  0  0  0  0  0  0
  189.7370  174.1810  144.8080 C   0  0  1  0  0  3  0  0  0  0  0  0
  187.0080  175.2880  142.7450 O   0  0  0  0  0  1  0  0  0  0  0  0
  188.1720  174.5200  142.8280 C   0  0  1  0  0  3  0  0  0  0  0  0
  188.6530  172.8500  141.0160 C   0  0  0  0  0  2  0  0  0  0  0  0
  188.0830  175.0760  140.4830 O   0  0  0  0  0  0  0  0  0  0  0  0
  188.7620  174.3010  141.4350 C   0  0  1  0  0  3  0  0  0  0  0  0
  188.3670  172.9270  139.5460 C   0  0  0  0  0  2  0  0  0  0  0  0
  188.2870  174.4090  139.2670 C   0  0  0  0  0  2  0  0  0  0  0  0
  190.2020  174.8140  146.1120 C   0  0  0  0  0  2  0  0  0  0  0  0
  191.6400  175.0180  146.0670 N   0  0  0  0  0  2  0  0  0  0  0  0
  191.6180  176.7750  147.6060 O   0  0  0  0  0  0  0  0  0  0  0  0
  192.2830  176.0400  146.8300 C   0  0  0  0  0  0  0  0  0  0  0  0
  193.7520  176.2340  146.7080 C   0  0  0  0  0  1  0  0  0  0  0  0
  186.7450  178.7100  141.8650 C   0  0  0  0  0  2  0  0  0  0  0  0
  186.2850  177.7740  140.9390 O   0  0  0  0  0  0  0  0  0  0  0  0
  185.0840  178.3070  140.4750 C   0  0  0  0  0  1  0  0  0  0  0  0
  2  5  1  0  0  0  0
  3  1  1  1  0  0  0
  4  2  2  0  0  0  0
  6  9  1  0  0  0  0
  6 12  2  0  0  0  0
  7  4  1  0  0  0  0
  8  1  2  0  0  0  0
  8  2  1  0  0  0  0
  9  3  1  0  0  0  0
 10  9  1  0  0  0  0
 11 12  1  0  0  0  0
 11  7  2  0  0  0  0
 12  8  1  0  0  0  0
 13 17  1  6  0  0  0
 13  3  1  0  0  0  0
 13 15  1  0  0  0  0
 14 13  1  0  0  0  0
 14 15  1  0  0  0  0
 15 23  1  1  0  0  0
 17 16  1  6  0  0  0
 18 20  1  0  0  0  0
 19 20  1  0  0  0  0
 20 17  1  1  0  0  0
 21 18  1  0  0  0  0
 22 21  1  0  0  0  0
 22 19  1  0  0  0  0
 24 23  1  0  0  0  0
 24 26  1  0  0  0  0
 26 25  2  0  0  0  0
 27 26  1  0  0  0  0
 28  6  1  0  0  0  0
 29 28  1  0  0  0  0
 30 29  1  0  0  0  0
M  END
>  <MODEL>
3

>  <REMARK>
 VINA RESULT:      -6.3      2.285      6.124
  Name = 
  7 active torsions:
  status: ('A' for Active; 'I' for Inactive)
    1  A    between atoms: C_3  and  O_11
    2  A    between atoms: C_3  and  C_19
    3  A    between atoms: C_4  and  C_13
    4  A    between atoms: N_7  and  C_16
    5  A    between atoms: C_8  and  C_12
    6  A    between atoms: C_8  and  C_13
    7  A    between atoms: C_16  and  C_30
                            x       y       z     vdW  Elec       q    Type
                         _______ _______ _______ _____ _____    ______ ____

>  <TORSDO>
F 7

$$$$
=
 OpenBabel11052417153D

 30 33  0  0  1  0  0  0  0  0999 V2000
  190.8730  176.7980  142.8330 N   0  0  0  0  0  0  0  0  0  0  0  0
  193.0480  176.3820  143.5930 C   0  0  0  0  0  0  0  0  0  0  0  0
  189.4230  176.9640  142.9520 C   0  0  2  0  0  3  0  0  0  0  0  0
  193.9220  176.1490  144.6570 C   0  0  0  0  0  3  0  0  0  0  0  0
  193.5940  176.3410  142.2040 C   0  0  0  0  0  1  0  0  0  0  0  0
  189.9140  176.9500  145.4280 C   0  0  0  0  0  0  0  0  0  0  0  0
  193.4530  176.1610  145.9690 C   0  0  0  0  0  3  0  0  0  0  0  0
  191.6810  176.6220  143.8390 C   0  0  0  0  0  0  0  0  0  0  0  0
  189.0270  177.2440  144.3340 N   0  0  0  0  0  0  0  0  0  0  0  0
  187.7200  177.8380  144.5730 C   0  0  0  0  0  1  0  0  0  0  0  0
  192.1070  176.4160  146.2250 C   0  0  0  0  0  3  0  0  0  0  0  0
  191.2050  176.6570  145.1730 C   0  0  0  0  0  0  0  0  0  0  0  0
  188.6920  175.7310  142.3780 C   0  0  1  0  0  0  0  0  0  0  0  0
  187.2090  175.6580  142.6810 C   0  0  0  0  0  2  0  0  0  0  0  0
  187.6710  175.9740  141.2660 C   0  0  1  0  0  3  0  0  0  0  0  0
  188.5950  173.3730  142.8230 O   0  0  0  0  0  1  0  0  0  0  0  0
  189.3870  174.3690  142.2460 C   0  0  1  0  0  3  0  0  0  0  0  0
  191.2050  173.7660  140.6220 C   0  0  0  0  0  2  0  0  0  0  0  0
  189.0470  172.8370  140.4150 O   0  0  0  0  0  0  0  0  0  0  0  0
  189.7210  174.0060  140.7990 C   0  0  1  0  0  3  0  0  0  0  0  0
  191.2660  172.6430  139.6310 C   0  0  0  0  0  2  0  0  0  0  0  0
  189.8170  172.3070  139.3700 C   0  0  0  0  0  2  0  0  0  0  0  0
  187.4120  177.4450  140.9710 C   0  0  0  0  0  2  0  0  0  0  0  0
  186.0850  177.5990  140.4010 N   0  0  0  0  0  2  0  0  0  0  0  0
  185.2070  178.6670  142.2830 O   0  0  0  0  0  0  0  0  0  0  0  0
  185.0150  178.2050  141.1280 C   0  0  0  0  0  0  0  0  0  0  0  0
  183.6650  178.2940  140.5110 C   0  0  0  0  0  1  0  0  0  0  0  0
  189.3990  177.0280  146.8380 C   0  0  0  0  0  2  0  0  0  0  0  0
  188.3400  176.1360  147.0040 O   0  0  0  0  0  0  0  0  0  0  0  0
  188.9530  174.9140  147.2750 C   0  0  0  0  0  1  0  0  0  0  0  0
  1  8  2  0  0  0  0
  2  8  1  0  0  0  0
  2  4  2  0  0  0  0
  3  1  1  1  0  0  0
  3  9  1  0  0  0  0
  4  7  1  0  0  0  0
  5  2  1  0  0  0  0
  6 28  1  0  0  0  0
  7 11  2  0  0  0  0
  8 12  1  0  0  0  0
  9 10  1  0  0  0  0
  9  6  1  0  0  0  0
 12  6  2  0  0  0  0
 12 11  1  0  0  0  0
 13 17  1  6  0  0  0
 13 14  1  0  0  0  0
 13  3  1  0  0  0  0
 15 23  1  1  0  0  0
 15 13  1  0  0  0  0
 15 14  1  0  0  0  0
 17 16  1  6  0  0  0
 18 20  1  0  0  0  0
 19 20  1  0  0  0  0
 20 17  1  1  0  0  0
 21 18  1  0  0  0  0
 22 21  1  0  0  0  0
 22 19  1  0  0  0  0
 24 23  1  0  0  0  0
 24 26  1  0  0  0  0
 26 25  2  0  0  0  0
 27 26  1  0  0  0  0
 28 29  1  0  0  0  0
 29 30  1  0  0  0  0
M  END
>  <MODEL>
4

>  <REMARK>
 VINA RESULT:      -6.2      2.177      5.466
  Name = 
  7 active torsions:
  status: ('A' for Active; 'I' for Inactive)
    1  A    between atoms: C_3  and  O_11
    2  A    between atoms: C_3  and  C_19
    3  A    between atoms: C_4  and  C_13
    4  A    between atoms: N_7  and  C_16
    5  A    between atoms: C_8  and  C_12
    6  A    between atoms: C_8  and  C_13
    7  A    between atoms: C_16  and  C_30
                            x       y       z     vdW  Elec       q    Type
                         _______ _______ _______ _____ _____    ______ ____

>  <TORSDO>
F 7

$$$$
=
 OpenBabel11052417153D

 30 33  0  0  1  0  0  0  0  0999 V2000
  191.0410  176.8660  142.8960 N   0  0  0  0  0  0  0  0  0  0  0  0
  193.2010  176.4550  143.7000 C   0  0  0  0  0  0  0  0  0  0  0  0
  189.5870  177.0150  142.9830 C   0  0  2  0  0  3  0  0  0  0  0  0
  194.0510  176.2090  144.7800 C   0  0  0  0  0  3  0  0  0  0  0  0
  193.7810  176.4470  142.3240 C   0  0  0  0  0  1  0  0  0  0  0  0
  190.0180  176.9550  145.4690 C   0  0  0  0  0  0  0  0  0  0  0  0
  193.5510  176.1890  146.0800 C   0  0  0  0  0  3  0  0  0  0  0  0
  191.8270  176.6760  143.9170 C   0  0  0  0  0  0  0  0  0  0  0  0
  189.1550  177.2630  144.3600 N   0  0  0  0  0  0  0  0  0  0  0  0
  187.8360  177.8390  144.5800 C   0  0  0  0  0  1  0  0  0  0  0  0
  192.1970  176.4260  146.3090 C   0  0  0  0  0  3  0  0  0  0  0  0
  191.3180  176.6790  145.2400 C   0  0  0  0  0  0  0  0  0  0  0  0
  188.8820  175.7870  142.3670 C   0  0  1  0  0  0  0  0  0  0  0  0
  187.4050  175.6630  142.6800 C   0  0  0  0  0  2  0  0  0  0  0  0
  187.8440  176.0470  141.2740 C   0  0  1  0  0  3  0  0  0  0  0  0
  190.7690  174.6450  141.4160 O   0  0  0  0  0  1  0  0  0  0  0  0
  189.6120  174.4500  142.1740 C   0  0  1  0  0  3  0  0  0  0  0  0
  189.2010  172.4590  143.6480 C   0  0  0  0  0  2  0  0  0  0  0  0
  191.3270  173.4740  143.5600 O   0  0  0  0  0  0  0  0  0  0  0  0
  189.9560  173.7620  143.4950 C   0  0  1  0  0  3  0  0  0  0  0  0
  190.1840  171.5570  144.3310 C   0  0  0  0  0  2  0  0  0  0  0  0
  191.4260  172.4050  144.4620 C   0  0  0  0  0  2  0  0  0  0  0  0
  187.5450  177.5210  141.0410 C   0  0  0  0  0  2  0  0  0  0  0  0
  186.2280  177.6600  140.4430 N   0  0  0  0  0  2  0  0  0  0  0  0
  185.2800  178.6520  142.3330 O   0  0  0  0  0  0  0  0  0  0  0  0
  185.1270  178.2190  141.1610 C   0  0  0  0  0  0  0  0  0  0  0  0
  183.7900  178.2930  140.5150 C   0  0  0  0  0  1  0  0  0  0  0  0
  189.4680  176.9990  146.8680 C   0  0  0  0  0  2  0  0  0  0  0  0
  188.4390  176.0670  147.0000 O   0  0  0  0  0  0  0  0  0  0  0  0
  189.0900  174.8670  147.2810 C   0  0  0  0  0  1  0  0  0  0  0  0
  1  8  2  0  0  0  0
  2  8  1  0  0  0  0
  2  4  2  0  0  0  0
  3  1  1  1  0  0  0
  3  9  1  0  0  0  0
  4  7  1  0  0  0  0
  5  2  1  0  0  0  0
  6 28  1  0  0  0  0
  7 11  2  0  0  0  0
  8 12  1  0  0  0  0
  9 10  1  0  0  0  0
  9  6  1  0  0  0  0
 12  6  2  0  0  0  0
 12 11  1  0  0  0  0
 13 17  1  6  0  0  0
 13 14  1  0  0  0  0
 13  3  1  0  0  0  0
 15 23  1  1  0  0  0
 15 13  1  0  0  0  0
 15 14  1  0  0  0  0
 17 16  1  1  0  0  0
 18 21  1  0  0  0  0
 19 22  1  0  0  0  0
 20 17  1  6  0  0  0
 20 19  1  0  0  0  0
 20 18  1  0  0  0  0
 21 22  1  0  0  0  0
 24 23  1  0  0  0  0
 24 26  1  0  0  0  0
 26 25  2  0  0  0  0
 27 26  1  0  0  0  0
 28 29  1  0  0  0  0
 29 30  1  0  0  0  0
M  END
>  <MODEL>
5

>  <REMARK>
 VINA RESULT:      -6.1      2.339      5.220
  Name = 
  7 active torsions:
  status: ('A' for Active; 'I' for Inactive)
    1  A    between atoms: C_3  and  O_11
    2  A    between atoms: C_3  and  C_19
    3  A    between atoms: C_4  and  C_13
    4  A    between atoms: N_7  and  C_16
    5  A    between atoms: C_8  and  C_12
    6  A    between atoms: C_8  and  C_13
    7  A    between atoms: C_16  and  C_30
                            x       y       z     vdW  Elec       q    Type
                         _______ _______ _______ _____ _____    ______ ____

>  <TORSDO>
F 7

$$$$
=
 OpenBabel11052417153D

 30 33  0  0  1  0  0  0  0  0999 V2000
  188.7050  175.2320  142.3390 N   0  0  0  0  0  0  0  0  0  0  0  0
  187.3430  177.1350  142.4180 C   0  0  0  0  0  0  0  0  0  0  0  0
  189.6320  174.2290  142.8640 C   0  0  2  0  0  3  0  0  0  0  0  0
  186.7710  178.1700  143.1610 C   0  0  0  0  0  3  0  0  0  0  0  0
  187.1020  177.1020  140.9450 C   0  0  0  0  0  1  0  0  0  0  0  0
  189.0590  175.2790  145.0860 C   0  0  0  0  0  0  0  0  0  0  0  0
  186.9830  178.2490  144.5360 C   0  0  0  0  0  3  0  0  0  0  0  0
  188.1480  176.1680  143.0530 C   0  0  0  0  0  0  0  0  0  0  0  0
  189.6020  174.1840  144.3270 N   0  0  0  0  0  0  0  0  0  0  0  0
  190.1230  173.0000  144.9960 C   0  0  0  0  0  1  0  0  0  0  0  0
  187.7610  177.2880  145.1780 C   0  0  0  0  0  3  0  0  0  0  0  0
  188.3470  176.2340  144.4550 C   0  0  0  0  0  0  0  0  0  0  0  0
  191.0560  174.4750  142.3210 C   0  0  1  0  0  0  0  0  0  0  0  0
  191.9240  173.2400  142.1920 C   0  0  0  0  0  2  0  0  0  0  0  0
  191.3890  173.9150  140.9380 C   0  0  1  0  0  3  0  0  0  0  0  0
  190.9420  176.8520  142.6490 O   0  0  0  0  0  1  0  0  0  0  0  0
  191.8250  175.7690  142.6280 C   0  0  1  0  0  3  0  0  0  0  0  0
  194.0880  175.5110  143.6850 C   0  0  0  0  0  2  0  0  0  0  0  0
  192.4470  176.8870  144.6730 O   0  0  0  0  0  0  0  0  0  0  0  0
  192.6080  175.7020  143.9390 C   0  0  1  0  0  3  0  0  0  0  0  0
  194.7400  176.3300  144.7570 C   0  0  0  0  0  2  0  0  0  0  0  0
  193.5800  176.9550  145.4950 C   0  0  0  0  0  2  0  0  0  0  0  0
  190.2870  173.0540  140.3360 C   0  0  0  0  0  2  0  0  0  0  0  0
  190.2310  173.2720  138.9000 N   0  0  0  0  0  2  0  0  0  0  0  0
  188.1660  174.3600  138.9680 O   0  0  0  0  0  0  0  0  0  0  0  0
  189.1210  173.9180  138.2770 C   0  0  0  0  0  0  0  0  0  0  0  0
  189.0960  174.0720  136.7980 C   0  0  0  0  0  1  0  0  0  0  0  0
  189.2520  175.3120  146.5770 C   0  0  0  0  0  2  0  0  0  0  0  0
  190.3410  176.1220  146.8960 O   0  0  0  0  0  0  0  0  0  0  0  0
  191.0760  175.3710  147.8120 C   0  0  0  0  0  1  0  0  0  0  0  0
  1  8  2  0  0  0  0
  2  8  1  0  0  0  0
  2  4  2  0  0  0  0
  3  1  1  1  0  0  0
  3  9  1  0  0  0  0
  4  7  1  0  0  0  0
  5  2  1  0  0  0  0
  6 28  1  0  0  0  0
  7 11  2  0  0  0  0
  8 12  1  0  0  0  0
  9 10  1  0  0  0  0
  9  6  1  0  0  0  0
 12  6  2  0  0  0  0
 12 11  1  0  0  0  0
 13 17  1  1  0  0  0
 13  3  1  0  0  0  0
 14 13  1  0  0  0  0
 15 23  1  1  0  0  0
 15 14  1  0  0  0  0
 15 13  1  0  0  0  0
 17 16  1  1  0  0  0
 18 20  1  0  0  0  0
 18 21  1  0  0  0  0
 19 22  1  0  0  0  0
 20 17  1  6  0  0  0
 20 19  1  0  0  0  0
 21 22  1  0  0  0  0
 24 23  1  0  0  0  0
 26 24  1  0  0  0  0
 26 25  2  0  0  0  0
 27 26  1  0  0  0  0
 28 29  1  0  0  0  0
 29 30  1  0  0  0  0
M  END
>  <MODEL>
6

>  <REMARK>
 VINA RESULT:      -5.9      2.036      5.039
  Name = 
  7 active torsions:
  status: ('A' for Active; 'I' for Inactive)
    1  A    between atoms: C_3  and  O_11
    2  A    between atoms: C_3  and  C_19
    3  A    between atoms: C_4  and  C_13
    4  A    between atoms: N_7  and  C_16
    5  A    between atoms: C_8  and  C_12
    6  A    between atoms: C_8  and  C_13
    7  A    between atoms: C_16  and  C_30
                            x       y       z     vdW  Elec       q    Type
                         _______ _______ _______ _____ _____    ______ ____

>  <TORSDO>
F 7

$$$$
=
 OpenBabel11052417153D

 30 33  0  0  1  0  0  0  0  0999 V2000
  189.0780  174.7840  143.3510 N   0  0  0  0  0  0  0  0  0  0  0  0
  187.9160  176.1760  141.8690 C   0  0  0  0  0  0  0  0  0  0  0  0
  189.6920  174.4020  144.6240 C   0  0  2  0  0  3  0  0  0  0  0  0
  187.2030  177.3550  141.6410 C   0  0  0  0  0  3  0  0  0  0  0  0
  188.1910  175.2780  140.7090 C   0  0  0  0  0  1  0  0  0  0  0  0
  188.4730  176.4340  145.4930 C   0  0  0  0  0  0  0  0  0  0  0  0
  186.9370  178.2310  142.6910 C   0  0  0  0  0  3  0  0  0  0  0  0
  188.3810  175.8690  143.1630 C   0  0  0  0  0  0  0  0  0  0  0  0
  189.1600  175.1930  145.7350 N   0  0  0  0  0  0  0  0  0  0  0  0
  189.3310  174.6880  147.0900 C   0  0  0  0  0  1  0  0  0  0  0  0
  187.3750  177.9280  143.9790 C   0  0  0  0  0  3  0  0  0  0  0  0
  188.0930  176.7470  144.2380 C   0  0  0  0  0  0  0  0  0  0  0  0
  191.2300  174.4970  144.5290 C   0  0  1  0  0  0  0  0  0  0  0  0
  191.9910  173.8220  145.6510 C   0  0  0  0  0  2  0  0  0  0  0  0
  192.0000  173.2040  144.2610 C   0  0  1  0  0  3  0  0  0  0  0  0
  191.7950  176.8160  144.7970 O   0  0  0  0  0  1  0  0  0  0  0  0
  191.9270  175.7280  143.9300 C   0  0  1  0  0  3  0  0  0  0  0  0
  193.7160  175.8240  142.1700 C   0  0  0  0  0  2  0  0  0  0  0  0
  194.2230  176.2720  144.4300 O   0  0  0  0  0  0  0  0  0  0  0  0
  193.4020  175.4820  143.6110 C   0  0  1  0  0  3  0  0  0  0  0  0
  195.0910  176.4160  142.2380 C   0  0  0  0  0  2  0  0  0  0  0  0
  195.4200  176.4070  143.7120 C   0  0  0  0  0  2  0  0  0  0  0  0
  191.1310  171.9530  144.2630 C   0  0  0  0  0  2  0  0  0  0  0  0
  191.4080  171.1690  143.0720 N   0  0  0  0  0  2  0  0  0  0  0  0
  189.4460  171.8090  141.9790 O   0  0  0  0  0  0  0  0  0  0  0  0
  190.5040  171.1250  141.9680 C   0  0  0  0  0  0  0  0  0  0  0  0
  190.8170  170.2680  140.7940 C   0  0  0  0  0  1  0  0  0  0  0  0
  188.1460  177.3350  146.6510 C   0  0  0  0  0  2  0  0  0  0  0  0
  186.8800  177.0260  147.1480 O   0  0  0  0  0  0  0  0  0  0  0  0
  186.3940  178.2350  147.6410 C   0  0  0  0  0  1  0  0  0  0  0  0
  2  8  1  0  0  0  0
  3  1  1  6  0  0  0
  3  9  1  0  0  0  0
  4  2  2  0  0  0  0
  4  7  1  0  0  0  0
  5  2  1  0  0  0  0
  6  9  1  0  0  0  0
  6 28  1  0  0  0  0
  7 11  2  0  0  0  0
  8  1  2  0  0  0  0
  8 12  1  0  0  0  0
  9 10  1  0  0  0  0
 11 12  1  0  0  0  0
 12  6  2  0  0  0  0
 13 17  1  6  0  0  0
 13  3  1  0  0  0  0
 13 14  1  0  0  0  0
 15 23  1  1  0  0  0
 15 13  1  0  0  0  0
 15 14  1  0  0  0  0
 17 16  1  1  0  0  0
 18 21  1  0  0  0  0
 18 20  1  0  0  0  0
 20 17  1  1  0  0  0
 20 19  1  0  0  0  0
 21 22  1  0  0  0  0
 22 19  1  0  0  0  0
 24 23  1  0  0  0  0
 26 25  2  0  0  0  0
 26 24  1  0  0  0  0
 27 26  1  0  0  0  0
 28 29  1  0  0  0  0
 29 30  1  0  0  0  0
M  END
>  <MODEL>
7

>  <REMARK>
 VINA RESULT:      -5.9      2.049      5.984
  Name = 
  7 active torsions:
  status: ('A' for Active; 'I' for Inactive)
    1  A    between atoms: C_3  and  O_11
    2  A    between atoms: C_3  and  C_19
    3  A    between atoms: C_4  and  C_13
    4  A    between atoms: N_7  and  C_16
    5  A    between atoms: C_8  and  C_12
    6  A    between atoms: C_8  and  C_13
    7  A    between atoms: C_16  and  C_30
                            x       y       z     vdW  Elec       q    Type
                         _______ _______ _______ _____ _____    ______ ____

>  <TORSDO>
F 7

$$$$
=
 OpenBabel11052417153D

 30 33  0  0  1  0  0  0  0  0999 V2000
  189.2440  175.0710  143.0810 N   0  0  0  0  0  0  0  0  0  0  0  0
  189.2560  173.1930  141.6820 C   0  0  0  0  0  0  0  0  0  0  0  0
  189.8240  176.2050  143.8010 C   0  0  2  0  0  3  0  0  0  0  0  0
  189.9530  172.3460  140.8180 C   0  0  0  0  0  3  0  0  0  0  0  0
  187.8370  172.8630  142.0060 C   0  0  0  0  0  1  0  0  0  0  0  0
  191.8520  175.6970  142.3880 C   0  0  0  0  0  0  0  0  0  0  0  0
  191.2850  172.6060  140.5010 C   0  0  0  0  0  3  0  0  0  0  0  0
  189.8980  174.3130  142.2460 C   0  0  0  0  0  0  0  0  0  0  0  0
  191.1150  176.5980  143.2330 N   0  0  0  0  0  0  0  0  0  0  0  0
  191.6300  177.9260  143.5340 C   0  0  0  0  0  1  0  0  0  0  0  0
  191.9240  173.7210  141.0370 C   0  0  0  0  0  3  0  0  0  0  0  0
  191.2450  174.5930  141.9080 C   0  0  0  0  0  0  0  0  0  0  0  0
  189.9270  175.8890  145.3090 C   0  0  1  0  0  0  0  0  0  0  0  0
  190.1550  177.0870  146.2080 C   0  0  0  0  0  2  0  0  0  0  0  0
  188.8000  176.3940  146.2120 C   0  0  1  0  0  3  0  0  0  0  0  0
  189.6500  173.5220  145.6080 O   0  0  0  0  0  1  0  0  0  0  0  0
  190.5410  174.5770  145.8190 C   0  0  1  0  0  3  0  0  0  0  0  0
  193.0320  174.5410  146.1380 C   0  0  0  0  0  2  0  0  0  0  0  0
  191.9630  172.9120  144.8080 O   0  0  0  0  0  0  0  0  0  0  0  0
  191.8940  174.2630  145.1790 C   0  0  1  0  0  3  0  0  0  0  0  0
  194.0160  173.4490  145.8450 C   0  0  0  0  0  2  0  0  0  0  0  0
  193.3340  172.6180  144.7850 C   0  0  0  0  0  2  0  0  0  0  0  0
  187.7840  177.2770  145.5010 C   0  0  0  0  0  2  0  0  0  0  0  0
  186.5440  177.2940  146.2580 N   0  0  0  0  0  2  0  0  0  0  0  0
  185.6980  179.1770  145.1660 O   0  0  0  0  0  0  0  0  0  0  0  0
  185.5460  178.2950  146.0510 C   0  0  0  0  0  0  0  0  0  0  0  0
  184.3170  178.2910  146.8880 C   0  0  0  0  0  1  0  0  0  0  0  0
  193.2690  176.0300  142.0110 C   0  0  0  0  0  2  0  0  0  0  0  0
  194.1310  175.6680  143.0460 O   0  0  0  0  0  0  0  0  0  0  0  0
  195.1880  175.0210  142.4090 C   0  0  0  0  0  1  0  0  0  0  0  0
  2  5  1  0  0  0  0
  2  8  1  0  0  0  0
  3  1  1  6  0  0  0
  3 13  1  0  0  0  0
  4  2  2  0  0  0  0
  6  9  1  0  0  0  0
  7  4  1  0  0  0  0
  7 11  2  0  0  0  0
  8  1  2  0  0  0  0
  9 10  1  0  0  0  0
  9  3  1  0  0  0  0
 11 12  1  0  0  0  0
 12  8  1  0  0  0  0
 12  6  2  0  0  0  0
 13 17  1  1  0  0  0
 13 14  1  0  0  0  0
 13 15  1  0  0  0  0
 14 15  1  0  0  0  0
 15 23  1  6  0  0  0
 17 16  1  6  0  0  0
 19 20  1  0  0  0  0
 20 17  1  1  0  0  0
 20 18  1  0  0  0  0
 21 18  1  0  0  0  0
 22 19  1  0  0  0  0
 22 21  1  0  0  0  0
 23 24  1  0  0  0  0
 25 26  2  0  0  0  0
 26 24  1  0  0  0  0
 26 27  1  0  0  0  0
 28  6  1  0  0  0  0
 28 29  1  0  0  0  0
 30 29  1  0  0  0  0
M  END
>  <MODEL>
8

>  <REMARK>
 VINA RESULT:      -5.8      2.138      6.100
  Name = 
  7 active torsions:
  status: ('A' for Active; 'I' for Inactive)
    1  A    between atoms: C_3  and  O_11
    2  A    between atoms: C_3  and  C_19
    3  A    between atoms: C_4  and  C_13
    4  A    between atoms: N_7  and  C_16
    5  A    between atoms: C_8  and  C_12
    6  A    between atoms: C_8  and  C_13
    7  A    between atoms: C_16  and  C_30
                            x       y       z     vdW  Elec       q    Type
                         _______ _______ _______ _____ _____    ______ ____

>  <TORSDO>
F 7

$$$$
=
 OpenBabel11052417153D

 30 33  0  0  1  0  0  0  0  0999 V2000
  190.6290  173.7110  144.0890 N   0  0  0  0  0  0  0  0  0  0  0  0
  192.1370  172.1120  143.2820 C   0  0  0  0  0  0  0  0  0  0  0  0
  189.6140  174.7610  143.9920 C   0  0  2  0  0  3  0  0  0  0  0  0
  192.6750  171.4100  142.2010 C   0  0  0  0  0  3  0  0  0  0  0  0
  192.7130  171.8760  144.6380 C   0  0  0  0  0  1  0  0  0  0  0  0
  189.5300  174.0570  141.5700 C   0  0  0  0  0  0  0  0  0  0  0  0
  192.1800  171.6100  140.9150 C   0  0  0  0  0  3  0  0  0  0  0  0
  191.0930  173.0360  143.0760 C   0  0  0  0  0  0  0  0  0  0  0  0
  188.9410  174.7370  142.6920 N   0  0  0  0  0  0  0  0  0  0  0  0
  187.6550  175.4090  142.5650 C   0  0  0  0  0  1  0  0  0  0  0  0
  191.1350  172.5070  140.7020 C   0  0  0  0  0  3  0  0  0  0  0  0
  190.5720  173.2250  141.7720 C   0  0  0  0  0  0  0  0  0  0  0  0
  190.2370  176.1410  144.2970 C   0  0  1  0  0  0  0  0  0  0  0  0
  189.3070  177.3240  144.1220 C   0  0  0  0  0  2  0  0  0  0  0  0
  189.7160  176.8920  145.5230 C   0  0  1  0  0  3  0  0  0  0  0  0
  191.8210  177.5410  143.1590 O   0  0  0  0  0  1  0  0  0  0  0  0
  191.7160  176.4400  144.0120 C   0  0  1  0  0  3  0  0  0  0  0  0
  193.0500  175.3710  145.8510 C   0  0  0  0  0  2  0  0  0  0  0  0
  193.6380  177.4960  145.0140 O   0  0  0  0  0  0  0  0  0  0  0  0
  192.5330  176.6750  145.2820 C   0  0  1  0  0  3  0  0  0  0  0  0
  194.4080  175.7270  146.3770 C   0  0  0  0  0  2  0  0  0  0  0  0
  194.5660  177.1860  146.0180 C   0  0  0  0  0  2  0  0  0  0  0  0
  188.5330  176.2200  146.2060 C   0  0  0  0  0  2  0  0  0  0  0  0
  187.7110  177.2280  146.8540 N   0  0  0  0  0  2  0  0  0  0  0  0
  185.8310  176.7940  145.5390 O   0  0  0  0  0  0  0  0  0  0  0  0
  186.3650  177.4780  146.4510 C   0  0  0  0  0  0  0  0  0  0  0  0
  185.5860  178.5540  147.1190 C   0  0  0  0  0  1  0  0  0  0  0  0
  188.9400  174.2430  140.1990 C   0  0  0  0  0  2  0  0  0  0  0  0
  188.1160  173.1630  139.8880 O   0  0  0  0  0  0  0  0  0  0  0  0
  188.2010  173.0470  138.5020 C   0  0  0  0  0  1  0  0  0  0  0  0
  2  5  1  0  0  0  0
  3  1  1  6  0  0  0
  3 13  1  0  0  0  0
  4  2  2  0  0  0  0
  6 12  2  0  0  0  0
  6  9  1  0  0  0  0
  7  4  1  0  0  0  0
  8  2  1  0  0  0  0
  8  1  2  0  0  0  0
  9  3  1  0  0  0  0
 10  9  1  0  0  0  0
 11  7  2  0  0  0  0
 11 12  1  0  0  0  0
 12  8  1  0  0  0  0
 13 17  1  6  0  0  0
 13 15  1  0  0  0  0
 14 13  1  0  0  0  0
 14 15  1  0  0  0  0
 15 23  1  1  0  0  0
 17 16  1  6  0  0  0
 18 21  1  0  0  0  0
 19 20  1  0  0  0  0
 19 22  1  0  0  0  0
 20 17  1  6  0  0  0
 20 18  1  0  0  0  0
 22 21  1  0  0  0  0
 23 24  1  0  0  0  0
 25 26  2  0  0  0  0
 26 24  1  0  0  0  0
 26 27  1  0  0  0  0
 28  6  1  0  0  0  0
 29 28  1  0  0  0  0
 30 29  1  0  0  0  0
M  END
>  <MODEL>
9

>  <REMARK>
 VINA RESULT:      -5.7      2.221      6.361
  Name = 
  7 active torsions:
  status: ('A' for Active; 'I' for Inactive)
    1  A    between atoms: C_3  and  O_11
    2  A    between atoms: C_3  and  C_19
    3  A    between atoms: C_4  and  C_13
    4  A    between atoms: N_7  and  C_16
    5  A    between atoms: C_8  and  C_12
    6  A    between atoms: C_8  and  C_13
    7  A    between atoms: C_16  and  C_30
                            x       y       z     vdW  Elec       q    Type
                         _______ _______ _______ _____ _____    ______ ____

>  <TORSDO>
F 7

$$$$
