=
 OpenBabel11052420573D

 43 48  0  0  1  0  0  0  0  0999 V2000
  184.9540  178.1310  146.2050 C   0  0  0  0  0  0  0  0  0  0  0  0
  188.3190  175.6210  143.3140 C   0  0  0  0  0  0  0  0  0  0  0  0
  190.8970  175.4230  144.7270 C   0  0  0  0  0  0  0  0  0  0  0  0
  186.0840  176.9780  144.3620 C   0  0  0  0  0  0  0  0  0  0  0  0
  185.9480  177.8830  147.0580 C   0  0  0  0  0  3  0  0  0  0  0  0
  183.8840  178.8530  146.6110 F   0  0  0  0  0  0  0  0  0  0  0  0
  187.1860  176.6930  145.2010 C   0  0  0  0  0  0  0  0  0  0  0  0
  185.0220  177.6460  144.8180 C   0  0  0  0  0  3  0  0  0  0  0  0
  187.1550  177.0730  146.6670 C   0  0  0  0  0  3  0  0  0  0  0  0
  189.4810  175.2440  145.8180 S   0  0  0  0  0  0  0  0  0  0  0  0
  188.2850  175.9750  144.6830 C   0  0  0  0  0  0  0  0  0  0  0  0
  187.1930  175.8770  142.5190 C   0  0  0  0  0  3  0  0  0  0  0  0
  189.4350  175.1310  142.7320 C   0  0  2  0  0  3  0  0  0  0  0  0
  190.7480  175.2200  143.4170 C   0  0  0  0  0  3  0  0  0  0  0  0
  186.0850  176.5440  143.0370 C   0  0  0  0  0  3  0  0  0  0  0  0
  192.2010  175.6690  145.2770 N   0  0  0  0  0  0  0  0  0  0  0  0
  193.2480  174.7130  145.2260 C   0  0  0  0  0  3  0  0  0  0  0  0
  192.5620  176.8960  145.9770 C   0  0  0  0  0  2  0  0  0  0  0  0
  194.3670  175.1110  145.7940 C   0  0  0  0  0  0  0  0  0  0  0  0
  194.2990  176.7360  146.5290 S   0  0  0  0  0  0  0  0  0  0  0  0
  195.5740  174.2400  145.8990 C   0  0  0  0  0  2  0  0  0  0  0  0
  195.5010  173.0650  144.9180 C   0  0  2  0  0  3  0  0  0  0  0  0
  197.7000  172.1940  144.7390 O   0  0  0  0  0  0  0  0  0  0  0  0
  195.5440  171.7820  145.6930 C   0  0  0  0  0  2  0  0  0  0  0  0
  196.7380  172.9420  144.0340 C   0  0  1  0  0  0  0  0  0  0  0  0
  196.3870  172.2530  142.8690 O   0  0  0  0  0  1  0  0  0  0  0  0
  196.9980  171.3610  145.6340 C   0  0  0  0  0  2  0  0  0  0  0  0
  197.3160  174.3050  143.6380 C   0  0  0  0  0  2  0  0  0  0  0  0
  196.7860  174.7410  142.3560 N   0  0  0  0  0  0  0  0  0  0  0  0
  195.6690  176.6840  141.2870 C   0  0  0  0  0  2  0  0  0  0  0  0
  197.4840  175.6300  140.1540 C   0  0  0  0  0  2  0  0  0  0  0  0
  196.0400  175.8740  140.1260 N   0  0  0  0  0  2  0  0  0  0  0  0
  197.9330  175.0280  141.4950 C   0  0  0  0  0  2  0  0  0  0  0  0
  196.0550  175.9860  142.6010 C   0  0  0  0  0  2  0  0  0  0  0  0
  189.3670  174.6890  141.3980 O   0  0  0  0  0  0  0  0  0  0  0  0
  189.7700  173.0770  139.7730 O   0  0  0  0  0  0  0  0  0  0  0  0
  189.4770  173.3610  140.9650 C   0  0  0  0  0  0  0  0  0  0  0  0
  189.2500  172.2590  141.9420 C   0  0  0  0  0  2  0  0  0  0  0  0
  190.0410  172.0300  144.6550 F   0  0  0  0  0  0  0  0  0  0  0  0
  190.8950  171.6090  143.6850 C   0  0  0  0  0  0  0  0  0  0  0  0
  190.5540  171.6810  142.3940 C   0  0  0  0  0  3  0  0  0  0  0  0
  193.0440  170.8340  142.9050 N   0  0  0  0  0  1  0  0  0  0  0  0
  192.2030  171.0080  144.0790 C   0  0  0  0  0  2  0  0  0  0  0  0
  1  6  1  0  0  0  0
  1  5  1  0  0  0  0
  2 11  1  0  0  0  0
  3 16  1  0  0  0  0
  3 10  1  0  0  0  0
  4  8  1  0  0  0  0
  4  7  1  0  0  0  0
  7  9  1  0  0  0  0
  8  1  2  0  0  0  0
  9  5  2  0  0  0  0
 11  7  2  0  0  0  0
 11 10  1  0  0  0  0
 12 15  1  0  0  0  0
 12  2  2  0  0  0  0
 13 35  1  6  0  0  0
 13  2  1  0  0  0  0
 13 14  1  0  0  0  0
 14  3  2  0  0  0  0
 15  4  2  0  0  0  0
 16 18  1  0  0  0  0
 17 16  1  0  0  0  0
 17 19  2  0  0  0  0
 18 20  1  0  0  0  0
 19 21  1  0  0  0  0
 19 20  1  0  0  0  0
 22 24  1  0  0  0  0
 22 21  1  1  0  0  0
 23 27  1  0  0  0  0
 25 26  1  6  0  0  0
 25 23  1  0  0  0  0
 25 22  1  0  0  0  0
 27 24  1  0  0  0  0
 28 25  1  0  0  0  0
 29 34  1  0  0  0  0
 29 28  1  0  0  0  0
 30 34  1  0  0  0  0
 31 33  1  0  0  0  0
 32 31  1  0  0  0  0
 32 30  1  0  0  0  0
 33 29  1  0  0  0  0
 36 37  2  0  0  0  0
 37 35  1  0  0  0  0
 37 38  1  0  0  0  0
 38 41  1  0  0  0  0
 40 43  1  0  0  0  0
 40 39  1  0  0  0  0
 41 40  2  0  0  0  0
 42 43  1  0  0  0  0
M  END
>  <MODEL>
1

>  <REMARK>
 VINA RESULT:      -7.7      0.000      0.000
  Name = 
  10 active torsions:
  status: ('A' for Active; 'I' for Inactive)
    1  A    between atoms: O_1  and  C_34
    2  A    between atoms: O_1  and  C_35
    3  A    between atoms: N_2  and  C_13
    4  A    between atoms: C_3  and  C_4
    5  A    between atoms: C_3  and  C_12
    6  A    between atoms: N_11  and  C_14
    7  A    between atoms: C_14  and  C_22
    8  A    between atoms: C_19  and  C_37
    9  A    between atoms: C_28  and  C_35
   10  A    between atoms: C_28  and  C_39
                            x       y       z     vdW  Elec       q    Type
                         _______ _______ _______ _____ _____    ______ ____

>  <TORSDO>
F 10

$$$$
=
 OpenBabel11052420573D

 43 48  0  0  1  0  0  0  0  0999 V2000
  191.3130  176.8040  147.8630 C   0  0  0  0  0  0  0  0  0  0  0  0
  188.0830  176.0340  143.9960 C   0  0  0  0  0  0  0  0  0  0  0  0
  189.3520  174.3190  141.9630 C   0  0  0  0  0  0  0  0  0  0  0  0
  189.4010  176.8910  146.3330 C   0  0  0  0  0  0  0  0  0  0  0  0
  191.8990  175.8190  147.1830 C   0  0  0  0  0  3  0  0  0  0  0  0
  191.9270  177.3290  148.9490 F   0  0  0  0  0  0  0  0  0  0  0  0
  189.9700  175.8610  145.5480 C   0  0  0  0  0  0  0  0  0  0  0  0
  190.0150  177.3430  147.4300 C   0  0  0  0  0  3  0  0  0  0  0  0
  191.2560  175.1880  145.9760 C   0  0  0  0  0  3  0  0  0  0  0  0
  189.7650  173.8400  143.6450 S   0  0  0  0  0  0  0  0  0  0  0  0
  189.2850  175.4060  144.4010 C   0  0  0  0  0  0  0  0  0  0  0  0
  187.5230  177.0210  144.8190 C   0  0  0  0  0  3  0  0  0  0  0  0
  187.5150  175.7790  142.7970 C   0  0  2  0  0  3  0  0  0  0  0  0
  188.2680  175.0630  141.7390 C   0  0  0  0  0  3  0  0  0  0  0  0
  188.1720  177.4420  145.9770 C   0  0  0  0  0  3  0  0  0  0  0  0
  190.1180  173.8060  140.8620 N   0  0  0  0  0  0  0  0  0  0  0  0
  191.5360  173.8440  140.8310 C   0  0  0  0  0  3  0  0  0  0  0  0
  189.5200  173.2430  139.6570 C   0  0  0  0  0  2  0  0  0  0  0  0
  192.0630  173.3390  139.7340 C   0  0  0  0  0  0  0  0  0  0  0  0
  190.8780  172.7650  138.5290 S   0  0  0  0  0  0  0  0  0  0  0  0
  193.5320  173.3300  139.4730 C   0  0  0  0  0  2  0  0  0  0  0  0
  194.1140  174.7470  139.5110 C   0  0  2  0  0  3  0  0  0  0  0  0
  196.4140  174.5500  138.9660 O   0  0  0  0  0  0  0  0  0  0  0  0
  194.2890  175.2390  138.1060 C   0  0  0  0  0  2  0  0  0  0  0  0
  195.5430  174.7960  140.0440 C   0  0  1  0  0  0  0  0  0  0  0  0
  195.7870  176.0780  140.5470 O   0  0  0  0  0  1  0  0  0  0  0  0
  195.7460  174.9640  137.7960 C   0  0  0  0  0  2  0  0  0  0  0  0
  195.7880  173.7790  141.1640 C   0  0  0  0  0  2  0  0  0  0  0  0
  195.8150  174.4330  142.4630 N   0  0  0  0  0  0  0  0  0  0  0  0
  194.6830  174.3890  144.6720 C   0  0  0  0  0  2  0  0  0  0  0  0
  197.0650  174.4840  144.5980 C   0  0  0  0  0  2  0  0  0  0  0  0
  195.8520  175.2250  144.9490 N   0  0  0  0  0  2  0  0  0  0  0  0
  197.0120  173.9570  143.1560 C   0  0  0  0  0  2  0  0  0  0  0  0
  194.6320  173.9750  143.1930 C   0  0  0  0  0  2  0  0  0  0  0  0
  186.2610  176.3480  142.5060 O   0  0  0  0  0  0  0  0  0  0  0  0
  186.8840  177.9460  140.9370 O   0  0  0  0  0  0  0  0  0  0  0  0
  186.0430  177.5230  141.7750 C   0  0  0  0  0  0  0  0  0  0  0  0
  184.7800  178.2840  141.9870 C   0  0  0  0  0  2  0  0  0  0  0  0
  185.4170  180.2140  143.9650 F   0  0  0  0  0  0  0  0  0  0  0  0
  184.6880  179.1240  144.3230 C   0  0  0  0  0  0  0  0  0  0  0  0
  184.3490  178.1990  143.4180 C   0  0  0  0  0  3  0  0  0  0  0  0
  184.3900  177.6250  146.1920 N   0  0  0  0  0  1  0  0  0  0  0  0
  184.2180  178.9940  145.7330 C   0  0  0  0  0  2  0  0  0  0  0  0
  1  6  1  0  0  0  0
  2 11  2  0  0  0  0
  2 12  1  0  0  0  0
  3 10  1  0  0  0  0
  4  8  2  0  0  0  0
  5  1  2  0  0  0  0
  7  9  2  0  0  0  0
  7  4  1  0  0  0  0
  8  1  1  0  0  0  0
  9  5  1  0  0  0  0
 10 11  1  0  0  0  0
 11  7  1  0  0  0  0
 12 15  2  0  0  0  0
 13 35  1  6  0  0  0
 13  2  1  0  0  0  0
 14  3  2  0  0  0  0
 14 13  1  0  0  0  0
 15  4  1  0  0  0  0
 16  3  1  0  0  0  0
 17 16  1  0  0  0  0
 18 16  1  0  0  0  0
 19 17  2  0  0  0  0
 20 18  1  0  0  0  0
 20 19  1  0  0  0  0
 21 19  1  0  0  0  0
 22 21  1  6  0  0  0
 22 25  1  0  0  0  0
 23 25  1  0  0  0  0
 24 22  1  0  0  0  0
 25 26  1  1  0  0  0
 25 28  1  0  0  0  0
 27 24  1  0  0  0  0
 27 23  1  0  0  0  0
 28 29  1  0  0  0  0
 29 33  1  0  0  0  0
 29 34  1  0  0  0  0
 30 32  1  0  0  0  0
 31 32  1  0  0  0  0
 33 31  1  0  0  0  0
 34 30  1  0  0  0  0
 36 37  2  0  0  0  0
 37 38  1  0  0  0  0
 37 35  1  0  0  0  0
 38 41  1  0  0  0  0
 39 40  1  0  0  0  0
 40 43  1  0  0  0  0
 41 40  2  0  0  0  0
 43 42  1  0  0  0  0
M  END
>  <MODEL>
2

>  <REMARK>
 VINA RESULT:      -7.6      3.159      6.082
  Name = 
  10 active torsions:
  status: ('A' for Active; 'I' for Inactive)
    1  A    between atoms: O_1  and  C_34
    2  A    between atoms: O_1  and  C_35
    3  A    between atoms: N_2  and  C_13
    4  A    between atoms: C_3  and  C_4
    5  A    between atoms: C_3  and  C_12
    6  A    between atoms: N_11  and  C_14
    7  A    between atoms: C_14  and  C_22
    8  A    between atoms: C_19  and  C_37
    9  A    between atoms: C_28  and  C_35
   10  A    between atoms: C_28  and  C_39
                            x       y       z     vdW  Elec       q    Type
                         _______ _______ _______ _____ _____    ______ ____

>  <TORSDO>
F 10

$$$$
=
 OpenBabel11052420573D

 43 48  0  0  1  0  0  0  0  0999 V2000
  183.5190  178.6450  142.9070 C   0  0  0  0  0  0  0  0  0  0  0  0
  187.9250  177.1960  145.0190 C   0  0  0  0  0  0  0  0  0  0  0  0
  189.6320  175.9160  142.9860 C   0  0  0  0  0  0  0  0  0  0  0  0
  185.3230  178.1300  144.4830 C   0  0  0  0  0  0  0  0  0  0  0  0
  184.2700  178.3500  141.8460 C   0  0  0  0  0  3  0  0  0  0  0  0
  182.2290  179.0180  142.7340 F   0  0  0  0  0  0  0  0  0  0  0  0
  186.1740  177.7790  143.4100 C   0  0  0  0  0  0  0  0  0  0  0  0
  184.0720  178.5460  144.2650 C   0  0  0  0  0  3  0  0  0  0  0  0
  185.7130  177.9430  141.9760 C   0  0  0  0  0  3  0  0  0  0  0  0
  188.7040  177.3140  142.3470 S   0  0  0  0  0  0  0  0  0  0  0  0
  187.4920  177.3530  143.6810 C   0  0  0  0  0  0  0  0  0  0  0  0
  187.0740  177.5930  146.0590 C   0  0  0  0  0  3  0  0  0  0  0  0
  189.0930  176.5880  145.3230 C   0  0  2  0  0  3  0  0  0  0  0  0
  189.8260  175.8010  144.3010 C   0  0  0  0  0  3  0  0  0  0  0  0
  185.7880  178.0600  145.7950 C   0  0  0  0  0  3  0  0  0  0  0  0
  190.2580  174.9940  142.0800 N   0  0  0  0  0  0  0  0  0  0  0  0
  191.6620  174.7900  142.0410 C   0  0  0  0  0  3  0  0  0  0  0  0
  189.5250  174.2160  141.0880 C   0  0  0  0  0  2  0  0  0  0  0  0
  192.0530  173.9160  141.1360 C   0  0  0  0  0  0  0  0  0  0  0  0
  190.7390  173.2230  140.1460 S   0  0  0  0  0  0  0  0  0  0  0  0
  193.4890  173.5950  140.8900 C   0  0  0  0  0  2  0  0  0  0  0  0
  194.3650  174.8490  140.9870 C   0  0  2  0  0  3  0  0  0  0  0  0
  196.5400  174.1100  141.5770 O   0  0  0  0  0  0  0  0  0  0  0  0
  195.2210  174.9390  139.7600 C   0  0  0  0  0  2  0  0  0  0  0  0
  195.4100  174.7680  142.0970 C   0  0  1  0  0  0  0  0  0  0  0  0
  195.7660  176.0670  142.4690 O   0  0  0  0  0  1  0  0  0  0  0  0
  196.5440  174.3370  140.1850 C   0  0  0  0  0  2  0  0  0  0  0  0
  194.8940  174.0310  143.3380 C   0  0  0  0  0  2  0  0  0  0  0  0
  195.8890  173.0960  143.8370 N   0  0  0  0  0  0  0  0  0  0  0  0
  197.0350  172.4330  145.9380 C   0  0  0  0  0  2  0  0  0  0  0  0
  196.1900  170.7300  144.4980 C   0  0  0  0  0  2  0  0  0  0  0  0
  197.4060  171.3430  145.0350 N   0  0  0  0  0  2  0  0  0  0  0  0
  195.2630  171.7740  143.8550 C   0  0  0  0  0  2  0  0  0  0  0  0
  196.1930  173.4950  145.2120 C   0  0  0  0  0  2  0  0  0  0  0  0
  189.5190  176.5700  146.6640 O   0  0  0  0  0  0  0  0  0  0  0  0
  188.9610  174.5150  147.5970 O   0  0  0  0  0  0  0  0  0  0  0  0
  189.8140  175.4250  147.4160 C   0  0  0  0  0  0  0  0  0  0  0  0
  191.1720  175.2790  148.0100 C   0  0  0  0  0  2  0  0  0  0  0  0
  193.2490  174.3420  146.3220 F   0  0  0  0  0  0  0  0  0  0  0  0
  193.1280  175.6790  146.5330 C   0  0  0  0  0  0  0  0  0  0  0  0
  192.1520  176.1650  147.3070 C   0  0  0  0  0  3  0  0  0  0  0  0
  193.4640  177.1150  144.6210 N   0  0  0  0  0  1  0  0  0  0  0  0
  194.0680  176.6120  145.8440 C   0  0  0  0  0  2  0  0  0  0  0  0
  1  8  1  0  0  0  0
  2 13  1  0  0  0  0
  2 12  1  0  0  0  0
  3 14  2  0  0  0  0
  4 15  1  0  0  0  0
  5  9  1  0  0  0  0
  5  1  2  0  0  0  0
  6  1  1  0  0  0  0
  7 11  1  0  0  0  0
  7  4  1  0  0  0  0
  8  4  2  0  0  0  0
  9  7  2  0  0  0  0
 10  3  1  0  0  0  0
 10 11  1  0  0  0  0
 11  2  2  0  0  0  0
 13 35  1  1  0  0  0
 14 13  1  0  0  0  0
 15 12  2  0  0  0  0
 16  3  1  0  0  0  0
 17 16  1  0  0  0  0
 18 16  1  0  0  0  0
 19 17  2  0  0  0  0
 20 18  1  0  0  0  0
 20 19  1  0  0  0  0
 21 19  1  0  0  0  0
 22 21  1  6  0  0  0
 22 25  1  0  0  0  0
 23 25  1  0  0  0  0
 24 27  1  0  0  0  0
 24 22  1  0  0  0  0
 25 26  1  1  0  0  0
 25 28  1  0  0  0  0
 27 23  1  0  0  0  0
 28 29  1  0  0  0  0
 29 33  1  0  0  0  0
 29 34  1  0  0  0  0
 31 32  1  0  0  0  0
 32 30  1  0  0  0  0
 33 31  1  0  0  0  0
 34 30  1  0  0  0  0
 35 37  1  0  0  0  0
 37 36  2  0  0  0  0
 37 38  1  0  0  0  0
 39 40  1  0  0  0  0
 40 41  2  0  0  0  0
 41 38  1  0  0  0  0
 42 43  1  0  0  0  0
 43 40  1  0  0  0  0
M  END
>  <MODEL>
3

>  <REMARK>
 VINA RESULT:      -7.5      2.805      4.928
  Name = 
  10 active torsions:
  status: ('A' for Active; 'I' for Inactive)
    1  A    between atoms: O_1  and  C_34
    2  A    between atoms: O_1  and  C_35
    3  A    between atoms: N_2  and  C_13
    4  A    between atoms: C_3  and  C_4
    5  A    between atoms: C_3  and  C_12
    6  A    between atoms: N_11  and  C_14
    7  A    between atoms: C_14  and  C_22
    8  A    between atoms: C_19  and  C_37
    9  A    between atoms: C_28  and  C_35
   10  A    between atoms: C_28  and  C_39
                            x       y       z     vdW  Elec       q    Type
                         _______ _______ _______ _____ _____    ______ ____

>  <TORSDO>
F 10

$$$$
=
 OpenBabel11052420573D

 43 48  0  0  1  0  0  0  0  0999 V2000
  183.4520  178.6680  142.8590 C   0  0  0  0  0  0  0  0  0  0  0  0
  187.8560  177.1600  144.9360 C   0  0  0  0  0  0  0  0  0  0  0  0
  189.4340  175.6620  142.9480 C   0  0  0  0  0  0  0  0  0  0  0  0
  185.2820  178.1780  144.4130 C   0  0  0  0  0  0  0  0  0  0  0  0
  184.1530  178.2650  141.8000 C   0  0  0  0  0  3  0  0  0  0  0  0
  182.1750  179.0900  142.7000 F   0  0  0  0  0  0  0  0  0  0  0  0
  186.0810  177.7140  143.3420 C   0  0  0  0  0  0  0  0  0  0  0  0
  184.0450  178.6380  144.2040 C   0  0  0  0  0  3  0  0  0  0  0  0
  185.5800  177.8000  141.9160 C   0  0  0  0  0  3  0  0  0  0  0  0
  188.5500  177.0560  142.2390 S   0  0  0  0  0  0  0  0  0  0  0  0
  187.3860  177.2450  143.6040 C   0  0  0  0  0  0  0  0  0  0  0  0
  187.0580  177.6690  145.9700 C   0  0  0  0  0  3  0  0  0  0  0  0
  189.0040  176.5200  145.2460 C   0  0  2  0  0  3  0  0  0  0  0  0
  189.6660  175.6300  144.2610 C   0  0  0  0  0  3  0  0  0  0  0  0
  185.7870  178.1770  145.7120 C   0  0  0  0  0  3  0  0  0  0  0  0
  189.9860  174.6510  142.0910 N   0  0  0  0  0  0  0  0  0  0  0  0
  191.2380  174.0310  142.3440 C   0  0  0  0  0  3  0  0  0  0  0  0
  189.3460  174.1970  140.8620 C   0  0  0  0  0  2  0  0  0  0  0  0
  191.5860  173.1370  141.4420 C   0  0  0  0  0  0  0  0  0  0  0  0
  190.4320  172.9410  140.0950 S   0  0  0  0  0  0  0  0  0  0  0  0
  192.8870  172.4080  141.4870 C   0  0  0  0  0  2  0  0  0  0  0  0
  193.9990  173.2880  142.0680 C   0  0  2  0  0  3  0  0  0  0  0  0
  195.7270  171.8210  142.7670 O   0  0  0  0  0  0  0  0  0  0  0  0
  195.1110  173.3890  141.0670 C   0  0  0  0  0  2  0  0  0  0  0  0
  194.7060  172.6530  143.2630 C   0  0  1  0  0  0  0  0  0  0  0  0
  195.2770  173.6690  144.0340 O   0  0  0  0  0  1  0  0  0  0  0  0
  196.1090  172.3410  141.5130 C   0  0  0  0  0  2  0  0  0  0  0  0
  193.7520  171.8460  144.1500 C   0  0  0  0  0  2  0  0  0  0  0  0
  194.3440  170.5730  144.5260 N   0  0  0  0  0  0  0  0  0  0  0  0
  194.9800  169.2550  146.5330 C   0  0  0  0  0  2  0  0  0  0  0  0
  193.8180  168.1660  144.7580 C   0  0  0  0  0  2  0  0  0  0  0  0
  195.0950  168.2580  145.4680 N   0  0  0  0  0  2  0  0  0  0  0  0
  193.3410  169.5410  144.2640 C   0  0  0  0  0  2  0  0  0  0  0  0
  194.5970  170.6330  145.9670 C   0  0  0  0  0  2  0  0  0  0  0  0
  189.4730  176.5740  146.5720 O   0  0  0  0  0  0  0  0  0  0  0  0
  189.0450  174.5230  147.5800 O   0  0  0  0  0  0  0  0  0  0  0  0
  189.8420  175.4740  147.3580 C   0  0  0  0  0  0  0  0  0  0  0  0
  191.2130  175.4260  147.9380 C   0  0  0  0  0  2  0  0  0  0  0  0
  192.5700  174.5080  145.6240 F   0  0  0  0  0  0  0  0  0  0  0  0
  192.7900  175.7790  146.0520 C   0  0  0  0  0  0  0  0  0  0  0  0
  192.1560  176.2590  147.1280 C   0  0  0  0  0  3  0  0  0  0  0  0
  193.4920  176.4690  143.8480 N   0  0  0  0  0  1  0  0  0  0  0  0
  193.7090  176.6600  145.2730 C   0  0  0  0  0  2  0  0  0  0  0  0
  1  8  1  0  0  0  0
  2 13  1  0  0  0  0
  2 12  1  0  0  0  0
  3 14  2  0  0  0  0
  4 15  1  0  0  0  0
  5  9  1  0  0  0  0
  5  1  2  0  0  0  0
  6  1  1  0  0  0  0
  7 11  1  0  0  0  0
  7  4  1  0  0  0  0
  8  4  2  0  0  0  0
  9  7  2  0  0  0  0
 10  3  1  0  0  0  0
 10 11  1  0  0  0  0
 11  2  2  0  0  0  0
 13 35  1  1  0  0  0
 14 13  1  0  0  0  0
 15 12  2  0  0  0  0
 16 17  1  0  0  0  0
 16  3  1  0  0  0  0
 18 16  1  0  0  0  0
 19 21  1  0  0  0  0
 19 17  2  0  0  0  0
 20 18  1  0  0  0  0
 20 19  1  0  0  0  0
 22 21  1  6  0  0  0
 22 25  1  0  0  0  0
 23 25  1  0  0  0  0
 24 27  1  0  0  0  0
 24 22  1  0  0  0  0
 25 26  1  1  0  0  0
 25 28  1  0  0  0  0
 27 23  1  0  0  0  0
 28 29  1  0  0  0  0
 29 34  1  0  0  0  0
 31 32  1  0  0  0  0
 32 30  1  0  0  0  0
 33 29  1  0  0  0  0
 33 31  1  0  0  0  0
 34 30  1  0  0  0  0
 35 37  1  0  0  0  0
 37 36  2  0  0  0  0
 37 38  1  0  0  0  0
 39 40  1  0  0  0  0
 40 41  2  0  0  0  0
 41 38  1  0  0  0  0
 42 43  1  0  0  0  0
 43 40  1  0  0  0  0
M  END
>  <MODEL>
4

>  <REMARK>
 VINA RESULT:      -7.4      2.874      5.267
  Name = 
  10 active torsions:
  status: ('A' for Active; 'I' for Inactive)
    1  A    between atoms: O_1  and  C_34
    2  A    between atoms: O_1  and  C_35
    3  A    between atoms: N_2  and  C_13
    4  A    between atoms: C_3  and  C_4
    5  A    between atoms: C_3  and  C_12
    6  A    between atoms: N_11  and  C_14
    7  A    between atoms: C_14  and  C_22
    8  A    between atoms: C_19  and  C_37
    9  A    between atoms: C_28  and  C_35
   10  A    between atoms: C_28  and  C_39
                            x       y       z     vdW  Elec       q    Type
                         _______ _______ _______ _____ _____    ______ ____

>  <TORSDO>
F 10

$$$$
=
 OpenBabel11052420573D

 43 48  0  0  1  0  0  0  0  0999 V2000
  189.4050  172.1810  138.0420 C   0  0  0  0  0  0  0  0  0  0  0  0
  192.1800  172.3570  142.3130 C   0  0  0  0  0  0  0  0  0  0  0  0
  190.7580  173.9260  144.3620 C   0  0  0  0  0  0  0  0  0  0  0  0
  191.1940  171.9740  139.7020 C   0  0  0  0  0  0  0  0  0  0  0  0
  188.5400  172.6650  138.9330 C   0  0  0  0  0  3  0  0  0  0  0  0
  189.0320  172.0490  136.7470 F   0  0  0  0  0  0  0  0  0  0  0  0
  190.3420  172.5010  140.7010 C   0  0  0  0  0  0  0  0  0  0  0  0
  190.7680  171.8090  138.4470 C   0  0  0  0  0  3  0  0  0  0  0  0
  188.8950  172.8190  140.3880 C   0  0  0  0  0  3  0  0  0  0  0  0
  189.6610  172.9080  143.3690 S   0  0  0  0  0  0  0  0  0  0  0  0
  190.8270  172.6500  142.0180 C   0  0  0  0  0  0  0  0  0  0  0  0
  192.9860  171.7950  141.3130 C   0  0  0  0  0  3  0  0  0  0  0  0
  192.7380  172.6890  143.4970 C   0  0  2  0  0  3  0  0  0  0  0  0
  192.0570  173.6300  144.4190 C   0  0  0  0  0  3  0  0  0  0  0  0
  192.4980  171.6010  140.0230 C   0  0  0  0  0  3  0  0  0  0  0  0
  190.2190  174.9760  145.1790 N   0  0  0  0  0  0  0  0  0  0  0  0
  188.8320  175.1020  145.4510 C   0  0  0  0  0  3  0  0  0  0  0  0
  191.0290  176.0360  145.7680 C   0  0  0  0  0  2  0  0  0  0  0  0
  188.5240  176.1350  146.2070 C   0  0  0  0  0  0  0  0  0  0  0  0
  189.9080  177.1570  146.6820 S   0  0  0  0  0  0  0  0  0  0  0  0
  187.1180  176.4830  146.5680 C   0  0  0  0  0  2  0  0  0  0  0  0
  186.8130  177.9550  146.2660 C   0  0  2  0  0  3  0  0  0  0  0  0
  184.4520  178.1510  146.1720 O   0  0  0  0  0  0  0  0  0  0  0  0
  186.3650  178.6260  147.5300 C   0  0  0  0  0  2  0  0  0  0  0  0
  185.6010  178.1440  145.3600 C   0  0  1  0  0  0  0  0  0  0  0  0
  185.7150  179.3790  144.7150 O   0  0  0  0  0  1  0  0  0  0  0  0
  184.8530  178.6000  147.4470 C   0  0  0  0  0  2  0  0  0  0  0  0
  185.4870  177.0480  144.2940 C   0  0  0  0  0  2  0  0  0  0  0  0
  186.1650  177.4420  143.0690 N   0  0  0  0  0  0  0  0  0  0  0  0
  187.5550  176.4990  141.2410 C   0  0  0  0  0  2  0  0  0  0  0  0
  185.7490  177.9530  140.6840 C   0  0  0  0  0  2  0  0  0  0  0  0
  187.2060  177.8160  140.7060 N   0  0  0  0  0  2  0  0  0  0  0  0
  185.1290  177.6640  142.0600 C   0  0  0  0  0  2  0  0  0  0  0  0
  186.9920  176.3060  142.6580 C   0  0  0  0  0  2  0  0  0  0  0  0
  194.0520  172.2640  143.7700 O   0  0  0  0  0  0  0  0  0  0  0  0
  195.3110  172.6510  145.6860 O   0  0  0  0  0  0  0  0  0  0  0  0
  195.0100  172.9750  144.5050 C   0  0  0  0  0  0  0  0  0  0  0  0
  195.6940  174.1370  143.8720 C   0  0  0  0  0  2  0  0  0  0  0  0
  193.8080  176.2490  143.7260 F   0  0  0  0  0  0  0  0  0  0  0  0
  194.7810  176.3030  144.6730 C   0  0  0  0  0  0  0  0  0  0  0  0
  195.6800  175.3190  144.7890 C   0  0  0  0  0  3  0  0  0  0  0  0
  194.1610  177.0770  146.8740 N   0  0  0  0  0  1  0  0  0  0  0  0
  194.8060  177.4520  145.6260 C   0  0  0  0  0  2  0  0  0  0  0  0
  1  8  2  0  0  0  0
  1  5  1  0  0  0  0
  2 13  1  0  0  0  0
  3 14  2  0  0  0  0
  3 16  1  0  0  0  0
  4 15  2  0  0  0  0
  4  7  1  0  0  0  0
  5  9  2  0  0  0  0
  6  1  1  0  0  0  0
  7 11  2  0  0  0  0
  8  4  1  0  0  0  0
  9  7  1  0  0  0  0
 10  3  1  0  0  0  0
 11  2  1  0  0  0  0
 11 10  1  0  0  0  0
 12  2  2  0  0  0  0
 13 35  1  6  0  0  0
 13 14  1  0  0  0  0
 15 12  1  0  0  0  0
 16 17  1  0  0  0  0
 16 18  1  0  0  0  0
 17 19  2  0  0  0  0
 18 20  1  0  0  0  0
 19 21  1  0  0  0  0
 19 20  1  0  0  0  0
 22 21  1  1  0  0  0
 22 24  1  0  0  0  0
 23 27  1  0  0  0  0
 25 26  1  6  0  0  0
 25 23  1  0  0  0  0
 25 22  1  0  0  0  0
 27 24  1  0  0  0  0
 28 25  1  0  0  0  0
 29 28  1  0  0  0  0
 30 34  1  0  0  0  0
 31 32  1  0  0  0  0
 31 33  1  0  0  0  0
 32 30  1  0  0  0  0
 33 29  1  0  0  0  0
 34 29  1  0  0  0  0
 35 37  1  0  0  0  0
 37 36  2  0  0  0  0
 38 37  1  0  0  0  0
 38 41  1  0  0  0  0
 39 40  1  0  0  0  0
 40 41  2  0  0  0  0
 40 43  1  0  0  0  0
 43 42  1  0  0  0  0
M  END
>  <MODEL>
5

>  <REMARK>
 VINA RESULT:      -7.2      3.340      8.700
  Name = 
  10 active torsions:
  status: ('A' for Active; 'I' for Inactive)
    1  A    between atoms: O_1  and  C_34
    2  A    between atoms: O_1  and  C_35
    3  A    between atoms: N_2  and  C_13
    4  A    between atoms: C_3  and  C_4
    5  A    between atoms: C_3  and  C_12
    6  A    between atoms: N_11  and  C_14
    7  A    between atoms: C_14  and  C_22
    8  A    between atoms: C_19  and  C_37
    9  A    between atoms: C_28  and  C_35
   10  A    between atoms: C_28  and  C_39
                            x       y       z     vdW  Elec       q    Type
                         _______ _______ _______ _____ _____    ______ ____

>  <TORSDO>
F 10

$$$$
=
 OpenBabel11052420573D

 43 48  0  0  1  0  0  0  0  0999 V2000
  184.1540  178.4840  145.2610 C   0  0  0  0  0  0  0  0  0  0  0  0
  188.5760  175.9670  145.5600 C   0  0  0  0  0  0  0  0  0  0  0  0
  189.4510  175.1640  142.8630 C   0  0  0  0  0  0  0  0  0  0  0  0
  186.1530  177.3150  146.0590 C   0  0  0  0  0  0  0  0  0  0  0  0
  184.5500  178.4350  143.9900 C   0  0  0  0  0  3  0  0  0  0  0  0
  182.9590  179.0390  145.5720 F   0  0  0  0  0  0  0  0  0  0  0  0
  186.6310  177.2050  144.7330 C   0  0  0  0  0  0  0  0  0  0  0  0
  184.9930  177.9200  146.3280 C   0  0  0  0  0  3  0  0  0  0  0  0
  185.8740  177.8430  143.5870 C   0  0  0  0  0  3  0  0  0  0  0  0
  188.6840  176.7890  142.9000 S   0  0  0  0  0  0  0  0  0  0  0  0
  187.8670  176.5670  144.4920 C   0  0  0  0  0  0  0  0  0  0  0  0
  188.0980  176.1310  146.8680 C   0  0  0  0  0  3  0  0  0  0  0  0
  189.6410  175.1650  145.3460 C   0  0  2  0  0  3  0  0  0  0  0  0
  189.9350  174.6400  143.9900 C   0  0  0  0  0  3  0  0  0  0  0  0
  186.9030  176.8020  147.1160 C   0  0  0  0  0  3  0  0  0  0  0  0
  189.6440  174.4900  141.6100 N   0  0  0  0  0  0  0  0  0  0  0  0
  190.9110  174.0130  141.1830 C   0  0  0  0  0  3  0  0  0  0  0  0
  188.5780  174.2700  140.6390 C   0  0  0  0  0  2  0  0  0  0  0  0
  190.8960  173.4330  140.0010 C   0  0  0  0  0  0  0  0  0  0  0  0
  189.3040  173.4160  139.1940 S   0  0  0  0  0  0  0  0  0  0  0  0
  192.1280  172.9110  139.3410 C   0  0  0  0  0  2  0  0  0  0  0  0
  192.7530  173.9620  138.4170 C   0  0  2  0  0  3  0  0  0  0  0  0
  194.7320  172.9970  137.5350 O   0  0  0  0  0  0  0  0  0  0  0  0
  192.4760  173.5840  136.9930 C   0  0  0  0  0  2  0  0  0  0  0  0
  194.2790  173.9630  138.4540 C   0  0  1  0  0  0  0  0  0  0  0  0
  194.7340  175.2230  138.0550 O   0  0  0  0  0  1  0  0  0  0  0  0
  193.7350  172.8690  136.5480 C   0  0  0  0  0  2  0  0  0  0  0  0
  194.8340  173.6640  139.8510 C   0  0  0  0  0  2  0  0  0  0  0  0
  195.4030  174.8610  140.4500 N   0  0  0  0  0  0  0  0  0  0  0  0
  195.1970  176.2980  142.4640 C   0  0  0  0  0  2  0  0  0  0  0  0
  197.3710  175.6650  141.7160 C   0  0  0  0  0  2  0  0  0  0  0  0
  196.4430  176.7870  141.8710 N   0  0  0  0  0  2  0  0  0  0  0  0
  196.7340  174.5020  140.9390 C   0  0  0  0  0  2  0  0  0  0  0  0
  194.5560  175.2070  141.5930 C   0  0  0  0  0  2  0  0  0  0  0  0
  190.3710  174.6970  146.4540 O   0  0  0  0  0  0  0  0  0  0  0  0
  191.4460  175.2940  148.4270 O   0  0  0  0  0  0  0  0  0  0  0  0
  191.3230  175.4260  147.1790 C   0  0  0  0  0  0  0  0  0  0  0  0
  192.2160  176.3730  146.4550 C   0  0  0  0  0  2  0  0  0  0  0  0
  193.3330  174.4530  144.6940 F   0  0  0  0  0  0  0  0  0  0  0  0
  194.1170  174.9810  145.6710 C   0  0  0  0  0  0  0  0  0  0  0  0
  193.6360  175.9040  146.5110 C   0  0  0  0  0  3  0  0  0  0  0  0
  195.8170  173.5040  144.8030 N   0  0  0  0  0  1  0  0  0  0  0  0
  195.5460  174.5610  145.7630 C   0  0  0  0  0  2  0  0  0  0  0  0
  1  6  1  0  0  0  0
  1  8  1  0  0  0  0
  2 12  1  0  0  0  0
  3 10  1  0  0  0  0
  3 14  2  0  0  0  0
  4  8  2  0  0  0  0
  4 15  1  0  0  0  0
  5  1  2  0  0  0  0
  7  4  1  0  0  0  0
  9  5  1  0  0  0  0
  9  7  2  0  0  0  0
 10 11  1  0  0  0  0
 11  7  1  0  0  0  0
 11  2  2  0  0  0  0
 12 15  2  0  0  0  0
 13  2  1  0  0  0  0
 13 35  1  1  0  0  0
 14 13  1  0  0  0  0
 16  3  1  0  0  0  0
 17 16  1  0  0  0  0
 18 16  1  0  0  0  0
 19 17  2  0  0  0  0
 20 19  1  0  0  0  0
 20 18  1  0  0  0  0
 21 19  1  0  0  0  0
 22 25  1  0  0  0  0
 22 21  1  1  0  0  0
 23 25  1  0  0  0  0
 24 22  1  0  0  0  0
 25 26  1  6  0  0  0
 25 28  1  0  0  0  0
 27 24  1  0  0  0  0
 27 23  1  0  0  0  0
 28 29  1  0  0  0  0
 29 33  1  0  0  0  0
 29 34  1  0  0  0  0
 31 32  1  0  0  0  0
 32 30  1  0  0  0  0
 33 31  1  0  0  0  0
 34 30  1  0  0  0  0
 35 37  1  0  0  0  0
 37 36  2  0  0  0  0
 38 41  1  0  0  0  0
 38 37  1  0  0  0  0
 39 40  1  0  0  0  0
 40 43  1  0  0  0  0
 40 41  2  0  0  0  0
 42 43  1  0  0  0  0
M  END
>  <MODEL>
6

>  <REMARK>
 VINA RESULT:      -7.2      3.068      5.135
  Name = 
  10 active torsions:
  status: ('A' for Active; 'I' for Inactive)
    1  A    between atoms: O_1  and  C_34
    2  A    between atoms: O_1  and  C_35
    3  A    between atoms: N_2  and  C_13
    4  A    between atoms: C_3  and  C_4
    5  A    between atoms: C_3  and  C_12
    6  A    between atoms: N_11  and  C_14
    7  A    between atoms: C_14  and  C_22
    8  A    between atoms: C_19  and  C_37
    9  A    between atoms: C_28  and  C_35
   10  A    between atoms: C_28  and  C_39
                            x       y       z     vdW  Elec       q    Type
                         _______ _______ _______ _____ _____    ______ ____

>  <TORSDO>
F 10

$$$$
=
 OpenBabel11052420573D

 43 48  0  0  1  0  0  0  0  0999 V2000
  189.1390  172.9100  138.2760 C   0  0  0  0  0  0  0  0  0  0  0  0
  192.4650  174.0510  141.9660 C   0  0  0  0  0  0  0  0  0  0  0  0
  191.0200  174.9940  144.3540 C   0  0  0  0  0  0  0  0  0  0  0  0
  191.1780  173.3520  139.5590 C   0  0  0  0  0  0  0  0  0  0  0  0
  188.3550  173.0470  139.3460 C   0  0  0  0  0  3  0  0  0  0  0  0
  188.5860  172.6600  137.0660 F   0  0  0  0  0  0  0  0  0  0  0  0
  190.4130  173.5330  140.7340 C   0  0  0  0  0  0  0  0  0  0  0  0
  190.5970  173.0520  138.3950 C   0  0  0  0  0  3  0  0  0  0  0  0
  188.9150  173.3110  140.7180 C   0  0  0  0  0  3  0  0  0  0  0  0
  190.1770  173.6550  143.5050 S   0  0  0  0  0  0  0  0  0  0  0  0
  191.0660  173.8400  141.9470 C   0  0  0  0  0  0  0  0  0  0  0  0
  193.2010  173.8210  140.7950 C   0  0  0  0  0  3  0  0  0  0  0  0
  193.0950  174.5550  143.0490 C   0  0  2  0  0  3  0  0  0  0  0  0
  192.3240  175.1850  144.1490 C   0  0  0  0  0  3  0  0  0  0  0  0
  192.5660  173.4710  139.6050 C   0  0  0  0  0  3  0  0  0  0  0  0
  190.3210  175.7770  145.3340 N   0  0  0  0  0  0  0  0  0  0  0  0
  188.9050  175.7870  145.4400 C   0  0  0  0  0  3  0  0  0  0  0  0
  190.9840  176.6680  146.2780 C   0  0  0  0  0  2  0  0  0  0  0  0
  188.4430  176.5750  146.3880 C   0  0  0  0  0  0  0  0  0  0  0  0
  189.6920  177.4760  147.2900 S   0  0  0  0  0  0  0  0  0  0  0  0
  186.9850  176.7740  146.6350 C   0  0  0  0  0  2  0  0  0  0  0  0
  186.5400  178.1850  146.2330 C   0  0  2  0  0  3  0  0  0  0  0  0
  184.1820  178.1070  145.9890 O   0  0  0  0  0  0  0  0  0  0  0  0
  185.9390  178.8630  147.4280 C   0  0  0  0  0  2  0  0  0  0  0  0
  185.3760  178.1900  145.2470 C   0  0  1  0  0  0  0  0  0  0  0  0
  185.3940  179.3970  144.5420 O   0  0  0  0  0  1  0  0  0  0  0  0
  184.4470  178.6610  147.2580 C   0  0  0  0  0  2  0  0  0  0  0  0
  185.4530  177.0370  144.2400 C   0  0  0  0  0  2  0  0  0  0  0  0
  186.0580  177.4760  142.9930 N   0  0  0  0  0  0  0  0  0  0  0  0
  187.4490  176.6310  141.1170 C   0  0  0  0  0  2  0  0  0  0  0  0
  185.5260  177.9530  140.6240 C   0  0  0  0  0  2  0  0  0  0  0  0
  186.9900  177.9190  140.5960 N   0  0  0  0  0  2  0  0  0  0  0  0
  184.9760  177.6230  142.0200 C   0  0  0  0  0  2  0  0  0  0  0  0
  186.9490  176.4010  142.5530 C   0  0  0  0  0  2  0  0  0  0  0  0
  194.5000  174.6290  143.0430 O   0  0  0  0  0  0  0  0  0  0  0  0
  195.8610  176.4530  143.5200 O   0  0  0  0  0  0  0  0  0  0  0  0
  195.2860  175.4000  143.9090 C   0  0  0  0  0  0  0  0  0  0  0  0
  195.4380  174.9690  145.3270 C   0  0  0  0  0  2  0  0  0  0  0  0
  194.0030  172.5690  145.7960 F   0  0  0  0  0  0  0  0  0  0  0  0
  195.3520  172.5070  145.6400 C   0  0  0  0  0  0  0  0  0  0  0  0
  196.0650  173.6120  145.3990 C   0  0  0  0  0  3  0  0  0  0  0  0
  197.3610  171.2770  145.1130 N   0  0  0  0  0  1  0  0  0  0  0  0
  196.0280  171.1770  145.6870 C   0  0  0  0  0  2  0  0  0  0  0  0
  1  8  2  0  0  0  0
  1  5  1  0  0  0  0
  2 13  1  0  0  0  0
  3 16  1  0  0  0  0
  4 15  2  0  0  0  0
  4  7  1  0  0  0  0
  5  9  2  0  0  0  0
  6  1  1  0  0  0  0
  7 11  2  0  0  0  0
  8  4  1  0  0  0  0
  9  7  1  0  0  0  0
 10  3  1  0  0  0  0
 11  2  1  0  0  0  0
 11 10  1  0  0  0  0
 12  2  2  0  0  0  0
 13 35  1  6  0  0  0
 13 14  1  0  0  0  0
 14  3  2  0  0  0  0
 15 12  1  0  0  0  0
 16 17  1  0  0  0  0
 16 18  1  0  0  0  0
 17 19  2  0  0  0  0
 18 20  1  0  0  0  0
 19 21  1  0  0  0  0
 19 20  1  0  0  0  0
 22 21  1  1  0  0  0
 22 24  1  0  0  0  0
 23 27  1  0  0  0  0
 25 26  1  6  0  0  0
 25 23  1  0  0  0  0
 25 22  1  0  0  0  0
 27 24  1  0  0  0  0
 28 25  1  0  0  0  0
 29 28  1  0  0  0  0
 30 34  1  0  0  0  0
 31 33  1  0  0  0  0
 32 31  1  0  0  0  0
 32 30  1  0  0  0  0
 33 29  1  0  0  0  0
 34 29  1  0  0  0  0
 35 37  1  0  0  0  0
 36 37  2  0  0  0  0
 37 38  1  0  0  0  0
 38 41  1  0  0  0  0
 40 43  1  0  0  0  0
 40 39  1  0  0  0  0
 41 40  2  0  0  0  0
 42 43  1  0  0  0  0
M  END
>  <MODEL>
7

>  <REMARK>
 VINA RESULT:      -7.1      3.358      8.503
  Name = 
  10 active torsions:
  status: ('A' for Active; 'I' for Inactive)
    1  A    between atoms: O_1  and  C_34
    2  A    between atoms: O_1  and  C_35
    3  A    between atoms: N_2  and  C_13
    4  A    between atoms: C_3  and  C_4
    5  A    between atoms: C_3  and  C_12
    6  A    between atoms: N_11  and  C_14
    7  A    between atoms: C_14  and  C_22
    8  A    between atoms: C_19  and  C_37
    9  A    between atoms: C_28  and  C_35
   10  A    between atoms: C_28  and  C_39
                            x       y       z     vdW  Elec       q    Type
                         _______ _______ _______ _____ _____    ______ ____

>  <TORSDO>
F 10

$$$$
=
 OpenBabel11052420573D

 43 48  0  0  1  0  0  0  0  0999 V2000
  181.5900  178.7660  141.8570 C   0  0  0  0  0  0  0  0  0  0  0  0
  186.5180  178.0230  142.9260 C   0  0  0  0  0  0  0  0  0  0  0  0
  187.7170  176.2390  140.9100 C   0  0  0  0  0  0  0  0  0  0  0  0
  183.7940  178.7380  142.9280 C   0  0  0  0  0  0  0  0  0  0  0  0
  182.0480  178.1910  140.7450 C   0  0  0  0  0  3  0  0  0  0  0  0
  180.2730  179.0610  141.9680 F   0  0  0  0  0  0  0  0  0  0  0  0
  184.3500  178.1080  141.7910 C   0  0  0  0  0  0  0  0  0  0  0  0
  182.4990  179.0630  142.9740 C   0  0  0  0  0  3  0  0  0  0  0  0
  183.5040  177.8540  140.5610 C   0  0  0  0  0  3  0  0  0  0  0  0
  186.5270  177.3890  140.2130 S   0  0  0  0  0  0  0  0  0  0  0  0
  185.7250  177.7900  141.7770 C   0  0  0  0  0  0  0  0  0  0  0  0
  185.9480  178.6890  144.0200 C   0  0  0  0  0  3  0  0  0  0  0  0
  187.7740  177.5390  143.0340 C   0  0  2  0  0  3  0  0  0  0  0  0
  188.2710  176.5030  142.0950 C   0  0  0  0  0  3  0  0  0  0  0  0
  184.6020  179.0470  144.0200 C   0  0  0  0  0  3  0  0  0  0  0  0
  188.1540  175.1050  140.1450 N   0  0  0  0  0  0  0  0  0  0  0  0
  188.9870  174.0900  140.6840 C   0  0  0  0  0  3  0  0  0  0  0  0
  187.8290  174.9080  138.7370 C   0  0  0  0  0  2  0  0  0  0  0  0
  189.2960  173.1370  139.8290 C   0  0  0  0  0  0  0  0  0  0  0  0
  188.6330  173.3610  138.1870 S   0  0  0  0  0  0  0  0  0  0  0  0
  190.2030  172.0040  140.1730 C   0  0  0  0  0  2  0  0  0  0  0  0
  191.6700  172.3700  139.9240 C   0  0  2  0  0  3  0  0  0  0  0  0
  192.9210  170.3720  140.1880 O   0  0  0  0  0  0  0  0  0  0  0  0
  192.0630  171.8980  138.5560 C   0  0  0  0  0  2  0  0  0  0  0  0
  192.6420  171.6010  140.8150 C   0  0  1  0  0  0  0  0  0  0  0  0
  193.8250  172.3380  140.9250 O   0  0  0  0  0  1  0  0  0  0  0  0
  192.7410  170.5660  138.8030 C   0  0  0  0  0  2  0  0  0  0  0  0
  192.0850  171.3620  142.2230 C   0  0  0  0  0  2  0  0  0  0  0  0
  192.6910  172.2700  143.1820 N   0  0  0  0  0  0  0  0  0  0  0  0
  192.0820  173.8960  144.9570 C   0  0  0  0  0  2  0  0  0  0  0  0
  193.8160  172.3160  145.3860 C   0  0  0  0  0  2  0  0  0  0  0  0
  193.5190  173.7350  145.1770 N   0  0  0  0  0  2  0  0  0  0  0  0
  193.2660  171.4460  144.2460 C   0  0  0  0  0  2  0  0  0  0  0  0
  191.6090  173.0790  143.7430 C   0  0  0  0  0  2  0  0  0  0  0  0
  188.5490  177.9050  144.1500 O   0  0  0  0  0  0  0  0  0  0  0  0
  190.6670  177.0840  144.6400 O   0  0  0  0  0  0  0  0  0  0  0  0
  189.4250  177.0670  144.8530 C   0  0  0  0  0  0  0  0  0  0  0  0
  188.8740  176.1420  145.8820 C   0  0  0  0  0  2  0  0  0  0  0  0
  186.0400  176.0890  145.9610 F   0  0  0  0  0  0  0  0  0  0  0  0
  186.7070  176.8550  146.8640 C   0  0  0  0  0  0  0  0  0  0  0  0
  188.0440  176.8950  146.8750 C   0  0  0  0  0  3  0  0  0  0  0  0
  186.0130  179.0410  147.6170 N   0  0  0  0  0  1  0  0  0  0  0  0
  185.9300  177.6150  147.8880 C   0  0  0  0  0  2  0  0  0  0  0  0
  1  6  1  0  0  0  0
  1  8  1  0  0  0  0
  2 13  1  0  0  0  0
  2 12  1  0  0  0  0
  3 14  2  0  0  0  0
  4  8  2  0  0  0  0
  4 15  1  0  0  0  0
  5  1  2  0  0  0  0
  7  4  1  0  0  0  0
  9  5  1  0  0  0  0
  9  7  2  0  0  0  0
 10  3  1  0  0  0  0
 10 11  1  0  0  0  0
 11  7  1  0  0  0  0
 11  2  2  0  0  0  0
 12 15  2  0  0  0  0
 13 35  1  1  0  0  0
 14 13  1  0  0  0  0
 16 17  1  0  0  0  0
 16  3  1  0  0  0  0
 18 16  1  0  0  0  0
 19 21  1  0  0  0  0
 19 17  2  0  0  0  0
 20 18  1  0  0  0  0
 20 19  1  0  0  0  0
 22 21  1  1  0  0  0
 22 25  1  0  0  0  0
 23 25  1  0  0  0  0
 24 27  1  0  0  0  0
 24 22  1  0  0  0  0
 25 26  1  1  0  0  0
 25 28  1  0  0  0  0
 27 23  1  0  0  0  0
 28 29  1  0  0  0  0
 29 34  1  0  0  0  0
 29 33  1  0  0  0  0
 30 32  1  0  0  0  0
 32 31  1  0  0  0  0
 33 31  1  0  0  0  0
 34 30  1  0  0  0  0
 35 37  1  0  0  0  0
 36 37  2  0  0  0  0
 37 38  1  0  0  0  0
 38 41  1  0  0  0  0
 39 40  1  0  0  0  0
 40 41  2  0  0  0  0
 40 43  1  0  0  0  0
 42 43  1  0  0  0  0
M  END
>  <MODEL>
8

>  <REMARK>
 VINA RESULT:      -7.1      3.702      6.410
  Name = 
  10 active torsions:
  status: ('A' for Active; 'I' for Inactive)
    1  A    between atoms: O_1  and  C_34
    2  A    between atoms: O_1  and  C_35
    3  A    between atoms: N_2  and  C_13
    4  A    between atoms: C_3  and  C_4
    5  A    between atoms: C_3  and  C_12
    6  A    between atoms: N_11  and  C_14
    7  A    between atoms: C_14  and  C_22
    8  A    between atoms: C_19  and  C_37
    9  A    between atoms: C_28  and  C_35
   10  A    between atoms: C_28  and  C_39
                            x       y       z     vdW  Elec       q    Type
                         _______ _______ _______ _____ _____    ______ ____

>  <TORSDO>
F 10

$$$$
=
 OpenBabel11052420573D

 43 48  0  0  1  0  0  0  0  0999 V2000
  184.1180  178.4490  143.6010 C   0  0  0  0  0  0  0  0  0  0  0  0
  188.2030  176.1810  145.6370 C   0  0  0  0  0  0  0  0  0  0  0  0
  189.4500  174.3990  143.6490 C   0  0  0  0  0  0  0  0  0  0  0  0
  185.8510  177.6470  145.1360 C   0  0  0  0  0  0  0  0  0  0  0  0
  184.7170  177.9130  142.5380 C   0  0  0  0  0  3  0  0  0  0  0  0
  182.9380  179.0950  143.4530 F   0  0  0  0  0  0  0  0  0  0  0  0
  186.5350  177.0340  144.0610 C   0  0  0  0  0  0  0  0  0  0  0  0
  184.7170  178.3240  144.9390 C   0  0  0  0  0  3  0  0  0  0  0  0
  186.0370  177.1960  142.6400 C   0  0  0  0  0  3  0  0  0  0  0  0
  188.8250  175.9240  142.9340 S   0  0  0  0  0  0  0  0  0  0  0  0
  187.7360  176.3370  144.3110 C   0  0  0  0  0  0  0  0  0  0  0  0
  187.5280  176.8370  146.6760 C   0  0  0  0  0  3  0  0  0  0  0  0
  189.2190  175.3450  145.9410 C   0  0  2  0  0  3  0  0  0  0  0  0
  189.6920  174.3390  144.9590 C   0  0  0  0  0  3  0  0  0  0  0  0
  186.3670  177.5670  146.4280 C   0  0  0  0  0  3  0  0  0  0  0  0
  189.7940  173.2950  142.7970 N   0  0  0  0  0  0  0  0  0  0  0  0
  189.6650  173.3460  141.3850 C   0  0  0  0  0  3  0  0  0  0  0  0
  190.2630  172.0080  143.2970 C   0  0  0  0  0  2  0  0  0  0  0  0
  190.0170  172.2340  140.7730 C   0  0  0  0  0  0  0  0  0  0  0  0
  190.5330  170.9130  141.8560 S   0  0  0  0  0  0  0  0  0  0  0  0
  189.9070  172.0540  139.2960 C   0  0  0  0  0  2  0  0  0  0  0  0
  190.2290  173.3550  138.5520 C   0  0  2  0  0  3  0  0  0  0  0  0
  191.0760  172.7270  136.4270 O   0  0  0  0  0  0  0  0  0  0  0  0
  189.1530  173.6150  137.5410 C   0  0  0  0  0  2  0  0  0  0  0  0
  191.4720  173.2520  137.6720 C   0  0  1  0  0  0  0  0  0  0  0  0
  191.9910  174.5360  137.4830 O   0  0  0  0  0  1  0  0  0  0  0  0
  189.7220  173.0760  136.2450 C   0  0  0  0  0  2  0  0  0  0  0  0
  192.5620  172.3730  138.2940 C   0  0  0  0  0  2  0  0  0  0  0  0
  193.6260  173.1870  138.8590 N   0  0  0  0  0  0  0  0  0  0  0  0
  194.8400  173.5710  140.9900 C   0  0  0  0  0  2  0  0  0  0  0  0
  196.0910  173.3770  138.9690 C   0  0  0  0  0  2  0  0  0  0  0  0
  195.6770  174.2950  140.0320 N   0  0  0  0  0  2  0  0  0  0  0  0
  194.8870  172.6720  138.3260 C   0  0  0  0  0  2  0  0  0  0  0  0
  193.6010  172.9710  140.3070 C   0  0  0  0  0  2  0  0  0  0  0  0
  189.7110  175.3250  147.2590 O   0  0  0  0  0  0  0  0  0  0  0  0
  191.5670  174.9430  148.6060 O   0  0  0  0  0  0  0  0  0  0  0  0
  191.0360  175.5650  147.6460 C   0  0  0  0  0  0  0  0  0  0  0  0
  191.8390  176.5730  146.8980 C   0  0  0  0  0  2  0  0  0  0  0  0
  194.5230  177.4840  146.9030 F   0  0  0  0  0  0  0  0  0  0  0  0
  194.2060  176.3840  146.1710 C   0  0  0  0  0  0  0  0  0  0  0  0
  192.9560  175.9090  146.1550 C   0  0  0  0  0  3  0  0  0  0  0  0
  194.9930  175.6850  143.9990 N   0  0  0  0  0  1  0  0  0  0  0  0
  195.2840  175.6720  145.4230 C   0  0  0  0  0  2  0  0  0  0  0  0
  1  8  1  0  0  0  0
  2 13  1  0  0  0  0
  2 12  1  0  0  0  0
  3 14  2  0  0  0  0
  4 15  1  0  0  0  0
  5  9  1  0  0  0  0
  5  1  2  0  0  0  0
  6  1  1  0  0  0  0
  7 11  1  0  0  0  0
  7  4  1  0  0  0  0
  8  4  2  0  0  0  0
  9  7  2  0  0  0  0
 10  3  1  0  0  0  0
 10 11  1  0  0  0  0
 11  2  2  0  0  0  0
 13 35  1  1  0  0  0
 14 13  1  0  0  0  0
 15 12  2  0  0  0  0
 16 18  1  0  0  0  0
 16  3  1  0  0  0  0
 17 16  1  0  0  0  0
 19 17  2  0  0  0  0
 19 20  1  0  0  0  0
 20 18  1  0  0  0  0
 21 19  1  0  0  0  0
 22 21  1  6  0  0  0
 23 25  1  0  0  0  0
 24 22  1  0  0  0  0
 25 26  1  6  0  0  0
 25 28  1  0  0  0  0
 25 22  1  0  0  0  0
 27 23  1  0  0  0  0
 27 24  1  0  0  0  0
 28 29  1  0  0  0  0
 29 34  1  0  0  0  0
 31 32  1  0  0  0  0
 32 30  1  0  0  0  0
 33 29  1  0  0  0  0
 33 31  1  0  0  0  0
 34 30  1  0  0  0  0
 35 37  1  0  0  0  0
 37 36  2  0  0  0  0
 38 37  1  0  0  0  0
 40 39  1  0  0  0  0
 41 40  2  0  0  0  0
 41 38  1  0  0  0  0
 42 43  1  0  0  0  0
 43 40  1  0  0  0  0
M  END
>  <MODEL>
9

>  <REMARK>
 VINA RESULT:      -7.1      3.198      5.971
  Name = 
  10 active torsions:
  status: ('A' for Active; 'I' for Inactive)
    1  A    between atoms: O_1  and  C_34
    2  A    between atoms: O_1  and  C_35
    3  A    between atoms: N_2  and  C_13
    4  A    between atoms: C_3  and  C_4
    5  A    between atoms: C_3  and  C_12
    6  A    between atoms: N_11  and  C_14
    7  A    between atoms: C_14  and  C_22
    8  A    between atoms: C_19  and  C_37
    9  A    between atoms: C_28  and  C_35
   10  A    between atoms: C_28  and  C_39
                            x       y       z     vdW  Elec       q    Type
                         _______ _______ _______ _____ _____    ______ ____

>  <TORSDO>
F 10

$$$$
