=
 OpenBabel11052417313D

 25 28  0  0  1  0  0  0  0  0999 V2000
  185.8210  177.5970  143.7220 C   0  0  0  0  0  0  0  0  0  0  0  0
  186.5820  176.9650  142.7350 C   0  0  0  0  0  0  0  0  0  0  0  0
  184.5060  178.6680  142.0320 N   0  0  0  0  0  0  0  0  0  0  0  0
  185.9330  177.5090  145.1180 C   0  0  0  0  0  0  0  0  0  0  0  0
  185.8440  177.5900  147.9080 C   0  0  0  0  0  3  0  0  0  0  0  0
  185.2280  178.0690  141.0790 N   0  0  0  0  0  0  0  0  0  0  0  0
  184.9840  178.2900  145.7810 C   0  0  0  0  0  0  0  0  0  0  0  0
  184.9200  178.3470  147.1710 C   0  0  0  0  0  3  0  0  0  0  0  0
  187.0150  176.5920  140.3900 C   0  0  0  0  0  0  0  0  0  0  0  0
  186.7290  176.8150  138.9440 C   0  0  0  0  0  1  0  0  0  0  0  0
  187.6010  176.1210  143.0370 N   0  0  0  0  0  0  0  0  0  0  0  0
  186.8050  176.7970  147.2520 C   0  0  0  0  0  3  0  0  0  0  0  0
  184.7930  178.4430  143.3370 C   0  0  0  0  0  0  0  0  0  0  0  0
  183.9980  179.0970  144.6720 S   0  0  0  0  0  0  0  0  0  0  0  0
  188.0270  175.7570  140.7470 N   0  0  0  0  0  0  0  0  0  0  0  0
  186.8550  176.7530  145.8500 C   0  0  0  0  0  3  0  0  0  0  0  0
  188.3190  175.5180  142.0540 C   0  0  0  0  0  0  0  0  0  0  0  0
  186.2590  177.2230  141.3850 C   0  0  0  0  0  0  0  0  0  0  0  0
  189.6500  174.4060  142.4800 S   0  0  0  0  0  0  0  0  0  0  0  0
  190.6140  175.7440  143.2630 C   0  0  0  0  0  2  0  0  0  0  0  0
  190.7180  175.5810  144.7790 C   0  0  2  0  0  3  0  0  0  0  0  0
  189.8730  174.4100  145.2660 C   0  0  0  0  0  1  0  0  0  0  0  0
  190.4270  176.8640  145.5080 C   0  0  0  0  0  0  0  0  0  0  0  0
  190.0300  177.9860  144.7880 O   0  0  0  0  0  0  0  0  0  0  0  0
  190.5780  176.9500  146.7580 O   0  0  0  0  0  1  0  0  0  0  0  0
  1  4  1  0  0  0  0
  2 11  1  0  0  0  0
  2  1  1  0  0  0  0
  3 13  1  0  0  0  0
  4  7  2  0  0  0  0
  4 16  1  0  0  0  0
  6 18  1  0  0  0  0
  6  3  2  0  0  0  0
  7  8  1  0  0  0  0
  8  5  2  0  0  0  0
  9 15  2  0  0  0  0
  9 18  1  0  0  0  0
 10  9  1  0  0  0  0
 12  5  1  0  0  0  0
 13  1  2  0  0  0  0
 13 14  1  0  0  0  0
 14  7  1  0  0  0  0
 15 17  1  0  0  0  0
 16 12  2  0  0  0  0
 17 19  1  0  0  0  0
 17 11  2  0  0  0  0
 18  2  2  0  0  0  0
 19 20  1  0  0  0  0
 20 21  1  0  0  0  0
 21 22  1  1  0  0  0
 21 23  1  0  0  0  0
 23 25  1  0  0  0  0
 24 23  2  0  0  0  0
M  END
>  <MODEL>
1

>  <REMARK>
 VINA RESULT:      -7.0      0.000      0.000
  Name = 
  4 active torsions:
  status: ('A' for Active; 'I' for Inactive)
    1  A    between atoms: C_2  and  C_21
    2  A    between atoms: S_6  and  C_15
    3  A    between atoms: S_6  and  C_23
    4  A    between atoms: C_15  and  C_21
                            x       y       z     vdW  Elec       q    Type
                         _______ _______ _______ _____ _____    ______ ____

>  <TORSDO>
F 4

$$$$
=
 OpenBabel11052417313D

 25 28  0  0  1  0  0  0  0  0999 V2000
  186.8330  176.8290  143.0760 C   0  0  0  0  0  0  0  0  0  0  0  0
  187.7770  175.8240  142.8470 C   0  0  0  0  0  0  0  0  0  0  0  0
  186.5390  177.1010  140.7160 N   0  0  0  0  0  0  0  0  0  0  0  0
  186.3630  177.3400  144.2960 C   0  0  0  0  0  0  0  0  0  0  0  0
  185.1970  178.6010  146.4980 C   0  0  0  0  0  3  0  0  0  0  0  0
  187.4420  176.1420  140.4850 N   0  0  0  0  0  0  0  0  0  0  0  0
  185.4100  178.3450  144.1220 C   0  0  0  0  0  0  0  0  0  0  0  0
  184.8140  178.9890  145.2040 C   0  0  0  0  0  3  0  0  0  0  0  0
  189.0170  174.4830  141.2700 C   0  0  0  0  0  0  0  0  0  0  0  0
  189.3770  174.0740  139.8820 C   0  0  0  0  0  1  0  0  0  0  0  0
  188.4000  175.1710  143.8620 N   0  0  0  0  0  0  0  0  0  0  0  0
  186.1570  177.5890  146.6860 C   0  0  0  0  0  3  0  0  0  0  0  0
  186.2350  177.4480  141.9900 C   0  0  0  0  0  0  0  0  0  0  0  0
  185.1280  178.6200  142.4800 S   0  0  0  0  0  0  0  0  0  0  0  0
  189.6130  173.8610  142.3220 N   0  0  0  0  0  0  0  0  0  0  0  0
  186.7480  176.9520  145.5840 C   0  0  0  0  0  3  0  0  0  0  0  0
  189.3100  174.1960  143.6060 C   0  0  0  0  0  0  0  0  0  0  0  0
  188.0740  175.4890  141.5080 C   0  0  0  0  0  0  0  0  0  0  0  0
  190.1090  173.3480  144.9600 S   0  0  0  0  0  0  0  0  0  0  0  0
  191.0720  174.8310  145.4130 C   0  0  0  0  0  2  0  0  0  0  0  0
  190.5480  175.5040  146.6800 C   0  0  2  0  0  3  0  0  0  0  0  0
  189.3670  174.7370  147.2640 C   0  0  0  0  0  1  0  0  0  0  0  0
  190.2560  176.9640  146.4660 C   0  0  0  0  0  0  0  0  0  0  0  0
  189.8130  177.7390  147.5340 O   0  0  0  0  0  1  0  0  0  0  0  0
  190.3670  177.4890  145.3240 O   0  0  0  0  0  0  0  0  0  0  0  0
  1  4  1  0  0  0  0
  2  1  1  0  0  0  0
  2 11  1  0  0  0  0
  3 13  1  0  0  0  0
  4 16  1  0  0  0  0
  5 12  1  0  0  0  0
  6  3  2  0  0  0  0
  6 18  1  0  0  0  0
  7  4  2  0  0  0  0
  7  8  1  0  0  0  0
  8  5  2  0  0  0  0
  9 18  1  0  0  0  0
  9 15  2  0  0  0  0
 10  9  1  0  0  0  0
 13 14  1  0  0  0  0
 13  1  2  0  0  0  0
 14  7  1  0  0  0  0
 15 17  1  0  0  0  0
 16 12  2  0  0  0  0
 17 11  2  0  0  0  0
 17 19  1  0  0  0  0
 18  2  2  0  0  0  0
 19 20  1  0  0  0  0
 20 21  1  0  0  0  0
 21 22  1  6  0  0  0
 23 21  1  0  0  0  0
 23 24  1  0  0  0  0
 25 23  2  0  0  0  0
M  END
>  <MODEL>
2

>  <REMARK>
 VINA RESULT:      -6.9      1.546      2.239
  Name = 
  4 active torsions:
  status: ('A' for Active; 'I' for Inactive)
    1  A    between atoms: C_2  and  C_21
    2  A    between atoms: S_6  and  C_15
    3  A    between atoms: S_6  and  C_23
    4  A    between atoms: C_15  and  C_21
                            x       y       z     vdW  Elec       q    Type
                         _______ _______ _______ _____ _____    ______ ____

>  <TORSDO>
F 4

$$$$
=
 OpenBabel11052417313D

 25 28  0  0  1  0  0  0  0  0999 V2000
  187.1860  176.8410  144.3120 C   0  0  0  0  0  0  0  0  0  0  0  0
  188.4430  176.2300  144.2970 C   0  0  0  0  0  0  0  0  0  0  0  0
  186.9380  176.4010  141.9720 N   0  0  0  0  0  0  0  0  0  0  0  0
  186.4980  177.4250  145.3870 C   0  0  0  0  0  0  0  0  0  0  0  0
  184.8370  178.6650  147.2570 C   0  0  0  0  0  3  0  0  0  0  0  0
  188.1400  175.8160  141.9460 N   0  0  0  0  0  0  0  0  0  0  0  0
  185.2530  177.9330  145.0110 C   0  0  0  0  0  0  0  0  0  0  0  0
  184.4070  178.5560  145.9260 C   0  0  0  0  0  3  0  0  0  0  0  0
  190.1700  175.0980  143.0480 C   0  0  0  0  0  0  0  0  0  0  0  0
  190.7270  174.5240  141.7890 C   0  0  0  0  0  1  0  0  0  0  0  0
  189.2080  176.1220  145.4140 N   0  0  0  0  0  0  0  0  0  0  0  0
  186.0900  178.1560  147.6490 C   0  0  0  0  0  3  0  0  0  0  0  0
  186.4610  176.9110  143.1330 C   0  0  0  0  0  0  0  0  0  0  0  0
  184.9770  177.6760  143.3650 S   0  0  0  0  0  0  0  0  0  0  0  0
  190.8960  175.0170  144.1940 N   0  0  0  0  0  0  0  0  0  0  0  0
  186.9300  177.5330  146.7130 C   0  0  0  0  0  3  0  0  0  0  0  0
  190.4240  175.5190  145.3680 C   0  0  0  0  0  0  0  0  0  0  0  0
  188.9120  175.7120  143.0710 C   0  0  0  0  0  0  0  0  0  0  0  0
  191.4060  175.3820  146.8540 S   0  0  0  0  0  0  0  0  0  0  0  0
  192.8220  174.6810  145.9390 C   0  0  0  0  0  2  0  0  0  0  0  0
  194.0820  175.5350  146.0670 C   0  0  2  0  0  3  0  0  0  0  0  0
  193.8160  176.7910  146.8880 C   0  0  0  0  0  1  0  0  0  0  0  0
  194.7080  175.8240  144.7310 C   0  0  0  0  0  0  0  0  0  0  0  0
  196.0750  175.6280  144.5570 O   0  0  0  0  0  1  0  0  0  0  0  0
  194.0220  176.2810  143.7760 O   0  0  0  0  0  0  0  0  0  0  0  0
  1  4  1  0  0  0  0
  2  1  1  0  0  0  0
  2 11  1  0  0  0  0
  3 13  1  0  0  0  0
  4 16  1  0  0  0  0
  5 12  1  0  0  0  0
  6  3  2  0  0  0  0
  6 18  1  0  0  0  0
  7  4  2  0  0  0  0
  7  8  1  0  0  0  0
  8  5  2  0  0  0  0
  9 18  1  0  0  0  0
  9 15  2  0  0  0  0
 10  9  1  0  0  0  0
 13 14  1  0  0  0  0
 13  1  2  0  0  0  0
 14  7  1  0  0  0  0
 15 17  1  0  0  0  0
 16 12  2  0  0  0  0
 17 11  2  0  0  0  0
 17 19  1  0  0  0  0
 18  2  2  0  0  0  0
 20 21  1  0  0  0  0
 20 19  1  0  0  0  0
 21 22  1  6  0  0  0
 23 21  1  0  0  0  0
 24 23  1  0  0  0  0
 25 23  2  0  0  0  0
M  END
>  <MODEL>
3

>  <REMARK>
 VINA RESULT:      -6.8      2.647      3.553
  Name = 
  4 active torsions:
  status: ('A' for Active; 'I' for Inactive)
    1  A    between atoms: C_2  and  C_21
    2  A    between atoms: S_6  and  C_15
    3  A    between atoms: S_6  and  C_23
    4  A    between atoms: C_15  and  C_21
                            x       y       z     vdW  Elec       q    Type
                         _______ _______ _______ _____ _____    ______ ____

>  <TORSDO>
F 4

$$$$
=
 OpenBabel11052417313D

 25 28  0  0  1  0  0  0  0  0999 V2000
  187.2710  177.6940  144.5710 C   0  0  0  0  0  0  0  0  0  0  0  0
  188.6030  177.3680  144.8430 C   0  0  0  0  0  0  0  0  0  0  0  0
  186.8190  177.8280  146.9170 N   0  0  0  0  0  0  0  0  0  0  0  0
  186.6320  177.8440  143.3300 C   0  0  0  0  0  0  0  0  0  0  0  0
  185.0280  178.2270  141.0770 C   0  0  0  0  0  3  0  0  0  0  0  0
  188.0900  177.5150  147.1890 N   0  0  0  0  0  0  0  0  0  0  0  0
  185.2840  178.1810  143.4620 C   0  0  0  0  0  0  0  0  0  0  0  0
  184.4630  178.3770  142.3540 C   0  0  0  0  0  3  0  0  0  0  0  0
  190.3320  176.9570  146.4740 C   0  0  0  0  0  0  0  0  0  0  0  0
  190.8240  176.8520  147.8790 C   0  0  0  0  0  1  0  0  0  0  0  0
  189.5080  177.1410  143.8560 N   0  0  0  0  0  0  0  0  0  0  0  0
  186.3860  177.8880  140.9310 C   0  0  0  0  0  3  0  0  0  0  0  0
  186.4060  177.9150  145.6300 C   0  0  0  0  0  0  0  0  0  0  0  0
  184.8560  178.3000  145.0910 S   0  0  0  0  0  0  0  0  0  0  0  0
  191.1980  176.7370  145.4500 N   0  0  0  0  0  0  0  0  0  0  0  0
  187.1980  177.6940  142.0600 C   0  0  0  0  0  3  0  0  0  0  0  0
  190.7970  176.8300  144.1520 C   0  0  0  0  0  0  0  0  0  0  0  0
  189.0000  177.2810  146.1940 C   0  0  0  0  0  0  0  0  0  0  0  0
  191.9680  176.5440  142.8350 S   0  0  0  0  0  0  0  0  0  0  0  0
  193.0700  175.5830  143.9280 C   0  0  0  0  0  2  0  0  0  0  0  0
  194.3370  176.3490  144.3020 C   0  0  2  0  0  3  0  0  0  0  0  0
  195.4770  176.0320  143.3420 C   0  0  0  0  0  1  0  0  0  0  0  0
  194.7100  176.1570  145.7460 C   0  0  0  0  0  0  0  0  0  0  0  0
  194.4210  177.1580  146.6680 O   0  0  0  0  0  1  0  0  0  0  0  0
  195.3190  175.1190  146.1280 O   0  0  0  0  0  0  0  0  0  0  0  0
  1  2  2  0  0  0  0
  1 13  1  0  0  0  0
  2 18  1  0  0  0  0
  3  6  1  0  0  0  0
  4  7  1  0  0  0  0
  4  1  1  0  0  0  0
  5  8  1  0  0  0  0
  7 14  1  0  0  0  0
  8  7  2  0  0  0  0
  9 10  1  0  0  0  0
 11 17  2  0  0  0  0
 11  2  1  0  0  0  0
 12  5  2  0  0  0  0
 12 16  1  0  0  0  0
 13  3  2  0  0  0  0
 14 13  1  0  0  0  0
 15  9  2  0  0  0  0
 16  4  2  0  0  0  0
 17 15  1  0  0  0  0
 18  9  1  0  0  0  0
 18  6  2  0  0  0  0
 19 20  1  0  0  0  0
 19 17  1  0  0  0  0
 20 21  1  0  0  0  0
 21 22  1  6  0  0  0
 21 23  1  0  0  0  0
 23 25  2  0  0  0  0
 23 24  1  0  0  0  0
M  END
>  <MODEL>
4

>  <REMARK>
 VINA RESULT:      -6.5      2.838      4.887
  Name = 
  4 active torsions:
  status: ('A' for Active; 'I' for Inactive)
    1  A    between atoms: C_2  and  C_21
    2  A    between atoms: S_6  and  C_15
    3  A    between atoms: S_6  and  C_23
    4  A    between atoms: C_15  and  C_21
                            x       y       z     vdW  Elec       q    Type
                         _______ _______ _______ _____ _____    ______ ____

>  <TORSDO>
F 4

$$$$
=
 OpenBabel11052417313D

 25 28  0  0  1  0  0  0  0  0999 V2000
  186.9090  177.7030  144.9520 C   0  0  0  0  0  0  0  0  0  0  0  0
  188.2170  177.2210  145.0570 C   0  0  0  0  0  0  0  0  0  0  0  0
  186.8850  178.1670  147.3000 N   0  0  0  0  0  0  0  0  0  0  0  0
  186.0900  177.8020  143.8170 C   0  0  0  0  0  0  0  0  0  0  0  0
  184.1840  178.1540  141.8070 C   0  0  0  0  0  3  0  0  0  0  0  0
  188.1360  177.7070  147.4120 N   0  0  0  0  0  0  0  0  0  0  0  0
  184.8370  178.3430  144.1080 C   0  0  0  0  0  0  0  0  0  0  0  0
  183.8690  178.5270  143.1230 C   0  0  0  0  0  3  0  0  0  0  0  0
  190.1360  176.7540  146.4430 C   0  0  0  0  0  0  0  0  0  0  0  0
  190.8440  176.7390  147.7550 C   0  0  0  0  0  1  0  0  0  0  0  0
  188.9050  176.7560  143.9820 N   0  0  0  0  0  0  0  0  0  0  0  0
  185.4450  177.6090  141.5010 C   0  0  0  0  0  3  0  0  0  0  0  0
  186.2720  178.1660  146.0920 C   0  0  0  0  0  0  0  0  0  0  0  0
  184.7130  178.7060  145.7520 S   0  0  0  0  0  0  0  0  0  0  0  0
  190.7800  176.2970  145.3360 N   0  0  0  0  0  0  0  0  0  0  0  0
  186.4070  177.4280  142.5060 C   0  0  0  0  0  3  0  0  0  0  0  0
  190.1770  176.2990  144.1160 C   0  0  0  0  0  0  0  0  0  0  0  0
  188.8260  177.2330  146.3300 C   0  0  0  0  0  0  0  0  0  0  0  0
  191.0610  175.6990  142.6840 S   0  0  0  0  0  0  0  0  0  0  0  0
  191.1130  173.9970  143.3410 C   0  0  0  0  0  2  0  0  0  0  0  0
  189.7220  173.4440  143.6460 C   0  0  2  0  0  3  0  0  0  0  0  0
  189.7940  172.2700  144.6140 C   0  0  0  0  0  1  0  0  0  0  0  0
  188.9500  173.1310  142.3930 C   0  0  0  0  0  0  0  0  0  0  0  0
  189.4090  172.1340  141.5370 O   0  0  0  0  0  0  0  0  0  0  0  0
  187.9170  173.7860  142.0840 O   0  0  0  0  0  1  0  0  0  0  0  0
  1  2  2  0  0  0  0
  1 13  1  0  0  0  0
  2 18  1  0  0  0  0
  3  6  1  0  0  0  0
  4  7  1  0  0  0  0
  4  1  1  0  0  0  0
  5  8  1  0  0  0  0
  7 14  1  0  0  0  0
  8  7  2  0  0  0  0
  9 10  1  0  0  0  0
 11 17  2  0  0  0  0
 11  2  1  0  0  0  0
 12  5  2  0  0  0  0
 12 16  1  0  0  0  0
 13  3  2  0  0  0  0
 14 13  1  0  0  0  0
 15  9  2  0  0  0  0
 16  4  2  0  0  0  0
 17 15  1  0  0  0  0
 18  9  1  0  0  0  0
 18  6  2  0  0  0  0
 19 20  1  0  0  0  0
 19 17  1  0  0  0  0
 20 21  1  0  0  0  0
 21 22  1  1  0  0  0
 23 21  1  0  0  0  0
 24 23  2  0  0  0  0
 25 23  1  0  0  0  0
M  END
>  <MODEL>
5

>  <REMARK>
 VINA RESULT:      -6.4      2.706      4.715
  Name = 
  4 active torsions:
  status: ('A' for Active; 'I' for Inactive)
    1  A    between atoms: C_2  and  C_21
    2  A    between atoms: S_6  and  C_15
    3  A    between atoms: S_6  and  C_23
    4  A    between atoms: C_15  and  C_21
                            x       y       z     vdW  Elec       q    Type
                         _______ _______ _______ _____ _____    ______ ____

>  <TORSDO>
F 4

$$$$
=
 OpenBabel11052417313D

 25 28  0  0  1  0  0  0  0  0999 V2000
  185.8150  177.7080  143.8260 C   0  0  0  0  0  0  0  0  0  0  0  0
  186.6170  177.1190  142.8440 C   0  0  0  0  0  0  0  0  0  0  0  0
  184.3520  178.5550  142.1310 N   0  0  0  0  0  0  0  0  0  0  0  0
  185.9690  177.6940  145.2210 C   0  0  0  0  0  0  0  0  0  0  0  0
  185.9370  177.8860  148.0070 C   0  0  0  0  0  3  0  0  0  0  0  0
  185.1130  177.9970  141.1840 N   0  0  0  0  0  0  0  0  0  0  0  0
  184.9560  178.3950  145.8770 C   0  0  0  0  0  0  0  0  0  0  0  0
  184.9190  178.5060  147.2650 C   0  0  0  0  0  3  0  0  0  0  0  0
  187.0340  176.6940  140.5060 C   0  0  0  0  0  0  0  0  0  0  0  0
  186.6920  176.8200  139.0600 C   0  0  0  0  0  1  0  0  0  0  0  0
  187.7300  176.4050  143.1530 N   0  0  0  0  0  0  0  0  0  0  0  0
  186.9630  177.1750  147.3560 C   0  0  0  0  0  3  0  0  0  0  0  0
  184.6920  178.4200  143.4360 C   0  0  0  0  0  0  0  0  0  0  0  0
  183.8620  179.0410  144.7640 S   0  0  0  0  0  0  0  0  0  0  0  0
  188.1390  175.9900  140.8680 N   0  0  0  0  0  0  0  0  0  0  0  0
  186.9850  177.0750  145.9570 C   0  0  0  0  0  3  0  0  0  0  0  0
  188.4870  175.8410  142.1760 C   0  0  0  0  0  0  0  0  0  0  0  0
  186.2370  177.2820  141.4950 C   0  0  0  0  0  0  0  0  0  0  0  0
  189.9410  174.8990  142.6090 S   0  0  0  0  0  0  0  0  0  0  0  0
  189.5430  174.9700  144.3890 C   0  0  0  0  0  2  0  0  0  0  0  0
  190.4190  174.0350  145.2220 C   0  0  2  0  0  3  0  0  0  0  0  0
  191.7900  174.6470  145.4790 C   0  0  0  0  0  1  0  0  0  0  0  0
  190.4890  172.6520  144.6340 C   0  0  0  0  0  0  0  0  0  0  0  0
  189.3200  171.9160  144.4720 O   0  0  0  0  0  1  0  0  0  0  0  0
  191.5970  172.1330  144.3240 O   0  0  0  0  0  0  0  0  0  0  0  0
  1  4  1  0  0  0  0
  2 11  1  0  0  0  0
  2  1  1  0  0  0  0
  3 13  1  0  0  0  0
  4  7  2  0  0  0  0
  4 16  1  0  0  0  0
  6 18  1  0  0  0  0
  6  3  2  0  0  0  0
  7  8  1  0  0  0  0
  8  5  2  0  0  0  0
  9 15  2  0  0  0  0
  9 18  1  0  0  0  0
 10  9  1  0  0  0  0
 12  5  1  0  0  0  0
 13  1  2  0  0  0  0
 13 14  1  0  0  0  0
 14  7  1  0  0  0  0
 15 17  1  0  0  0  0
 16 12  2  0  0  0  0
 17 19  1  0  0  0  0
 17 11  2  0  0  0  0
 18  2  2  0  0  0  0
 19 20  1  0  0  0  0
 20 21  1  0  0  0  0
 21 22  1  6  0  0  0
 23 21  1  0  0  0  0
 24 23  1  0  0  0  0
 25 23  2  0  0  0  0
M  END
>  <MODEL>
6

>  <REMARK>
 VINA RESULT:      -6.4      1.783      1.970
  Name = 
  4 active torsions:
  status: ('A' for Active; 'I' for Inactive)
    1  A    between atoms: C_2  and  C_21
    2  A    between atoms: S_6  and  C_15
    3  A    between atoms: S_6  and  C_23
    4  A    between atoms: C_15  and  C_21
                            x       y       z     vdW  Elec       q    Type
                         _______ _______ _______ _____ _____    ______ ____

>  <TORSDO>
F 4

$$$$
=
 OpenBabel11052417313D

 25 28  0  0  1  0  0  0  0  0999 V2000
  186.9150  177.1150  143.0960 C   0  0  0  0  0  0  0  0  0  0  0  0
  187.0500  177.1190  144.4870 C   0  0  0  0  0  0  0  0  0  0  0  0
  185.5460  179.0750  143.2170 N   0  0  0  0  0  0  0  0  0  0  0  0
  187.4560  176.2230  142.1560 C   0  0  0  0  0  0  0  0  0  0  0  0
  188.3440  174.6750  140.0090 C   0  0  0  0  0  3  0  0  0  0  0  0
  185.6670  179.0870  144.5480 N   0  0  0  0  0  0  0  0  0  0  0  0
  187.1010  176.5480  140.8460 C   0  0  0  0  0  0  0  0  0  0  0  0
  187.5310  175.7910  139.7590 C   0  0  0  0  0  3  0  0  0  0  0  0
  186.5320  178.1530  146.6050 C   0  0  0  0  0  0  0  0  0  0  0  0
  185.8760  179.2040  147.4350 C   0  0  0  0  0  1  0  0  0  0  0  0
  187.7820  176.1830  145.1450 N   0  0  0  0  0  0  0  0  0  0  0  0
  188.7100  174.3380  141.3260 C   0  0  0  0  0  3  0  0  0  0  0  0
  186.1550  178.1040  142.4930 C   0  0  0  0  0  0  0  0  0  0  0  0
  186.1240  177.9260  140.8180 S   0  0  0  0  0  0  0  0  0  0  0  0
  187.2740  177.1920  147.2150 N   0  0  0  0  0  0  0  0  0  0  0  0
  188.2660  175.1110  142.4100 C   0  0  0  0  0  3  0  0  0  0  0  0
  187.8980  176.2170  146.4980 C   0  0  0  0  0  0  0  0  0  0  0  0
  186.4000  178.1410  145.2110 C   0  0  0  0  0  0  0  0  0  0  0  0
  188.8730  174.9790  147.3380 S   0  0  0  0  0  0  0  0  0  0  0  0
  189.9970  174.7940  145.9120 C   0  0  0  0  0  2  0  0  0  0  0  0
  191.4200  175.2560  146.2260 C   0  0  2  0  0  3  0  0  0  0  0  0
  191.6130  175.4680  147.7220 C   0  0  0  0  0  1  0  0  0  0  0  0
  191.8220  176.4490  145.4030 C   0  0  0  0  0  0  0  0  0  0  0  0
  193.1710  176.7510  145.2460 O   0  0  0  0  0  1  0  0  0  0  0  0
  190.9530  177.2060  144.8870 O   0  0  0  0  0  0  0  0  0  0  0  0
  1  2  2  0  0  0  0
  2 11  1  0  0  0  0
  2 18  1  0  0  0  0
  3  6  1  0  0  0  0
  4 16  1  0  0  0  0
  4  1  1  0  0  0  0
  5 12  1  0  0  0  0
  6 18  2  0  0  0  0
  7  4  2  0  0  0  0
  8  5  2  0  0  0  0
  8  7  1  0  0  0  0
  9 15  2  0  0  0  0
  9 10  1  0  0  0  0
 11 17  2  0  0  0  0
 12 16  2  0  0  0  0
 13  1  1  0  0  0  0
 13  3  2  0  0  0  0
 14  7  1  0  0  0  0
 14 13  1  0  0  0  0
 17 15  1  0  0  0  0
 17 19  1  0  0  0  0
 18  9  1  0  0  0  0
 20 21  1  0  0  0  0
 20 19  1  0  0  0  0
 21 22  1  1  0  0  0
 23 21  1  0  0  0  0
 24 23  1  0  0  0  0
 25 23  2  0  0  0  0
M  END
>  <MODEL>
7

>  <REMARK>
 VINA RESULT:      -6.3      2.220      4.748
  Name = 
  4 active torsions:
  status: ('A' for Active; 'I' for Inactive)
    1  A    between atoms: C_2  and  C_21
    2  A    between atoms: S_6  and  C_15
    3  A    between atoms: S_6  and  C_23
    4  A    between atoms: C_15  and  C_21
                            x       y       z     vdW  Elec       q    Type
                         _______ _______ _______ _____ _____    ______ ____

>  <TORSDO>
F 4

$$$$
=
 OpenBabel11052417313D

 25 28  0  0  1  0  0  0  0  0999 V2000
  190.3330  174.9670  143.8990 C   0  0  0  0  0  0  0  0  0  0  0  0
  189.4590  175.3470  142.8750 C   0  0  0  0  0  0  0  0  0  0  0  0
  191.0890  173.1210  142.5760 N   0  0  0  0  0  0  0  0  0  0  0  0
  190.5470  175.5690  145.1480 C   0  0  0  0  0  0  0  0  0  0  0  0
  191.2450  176.4730  147.6970 C   0  0  0  0  0  3  0  0  0  0  0  0
  190.2560  173.4730  141.5920 N   0  0  0  0  0  0  0  0  0  0  0  0
  191.5110  174.9000  145.9040 C   0  0  0  0  0  0  0  0  0  0  0  0
  191.8750  175.3310  147.1780 C   0  0  0  0  0  3  0  0  0  0  0  0
  188.5650  174.9380  140.6710 C   0  0  0  0  0  0  0  0  0  0  0  0
  188.4910  174.1610  139.4010 C   0  0  0  0  0  1  0  0  0  0  0  0
  188.6500  176.4320  142.9810 N   0  0  0  0  0  0  0  0  0  0  0  0
  190.2720  177.1570  146.9430 C   0  0  0  0  0  3  0  0  0  0  0  0
  191.1310  173.8500  143.7180 C   0  0  0  0  0  0  0  0  0  0  0  0
  192.1130  173.5680  145.0580 S   0  0  0  0  0  0  0  0  0  0  0  0
  187.7750  176.0330  140.8280 N   0  0  0  0  0  0  0  0  0  0  0  0
  189.9160  176.7070  145.6620 C   0  0  0  0  0  3  0  0  0  0  0  0
  187.8140  176.7770  141.9670 C   0  0  0  0  0  0  0  0  0  0  0  0
  189.4370  174.5640  141.7010 C   0  0  0  0  0  0  0  0  0  0  0  0
  186.7660  178.2140  142.1280 S   0  0  0  0  0  0  0  0  0  0  0  0
  185.4950  177.2720  143.0390 C   0  0  0  0  0  2  0  0  0  0  0  0
  184.8850  178.0730  144.1890 C   0  0  2  0  0  3  0  0  0  0  0  0
  185.2330  179.5520  144.0760 C   0  0  0  0  0  1  0  0  0  0  0  0
  185.2270  177.4860  145.5310 C   0  0  0  0  0  0  0  0  0  0  0  0
  186.3990  176.7500  145.6790 O   0  0  0  0  0  0  0  0  0  0  0  0
  184.4470  177.6140  146.5150 O   0  0  0  0  0  1  0  0  0  0  0  0
  1  4  1  0  0  0  0
  2 11  1  0  0  0  0
  2  1  1  0  0  0  0
  3 13  1  0  0  0  0
  4 16  2  0  0  0  0
  4  7  1  0  0  0  0
  6 18  1  0  0  0  0
  6  3  2  0  0  0  0
  7  8  2  0  0  0  0
  8  5  1  0  0  0  0
  9 15  2  0  0  0  0
  9 18  1  0  0  0  0
 10  9  1  0  0  0  0
 12  5  2  0  0  0  0
 13  1  2  0  0  0  0
 13 14  1  0  0  0  0
 14  7  1  0  0  0  0
 15 17  1  0  0  0  0
 16 12  1  0  0  0  0
 17 19  1  0  0  0  0
 17 11  2  0  0  0  0
 18  2  2  0  0  0  0
 19 20  1  0  0  0  0
 20 21  1  0  0  0  0
 21 22  1  1  0  0  0
 21 23  1  0  0  0  0
 23 24  2  0  0  0  0
 23 25  1  0  0  0  0
M  END
>  <MODEL>
8

>  <REMARK>
 VINA RESULT:      -6.3      2.483      5.530
  Name = 
  4 active torsions:
  status: ('A' for Active; 'I' for Inactive)
    1  A    between atoms: C_2  and  C_21
    2  A    between atoms: S_6  and  C_15
    3  A    between atoms: S_6  and  C_23
    4  A    between atoms: C_15  and  C_21
                            x       y       z     vdW  Elec       q    Type
                         _______ _______ _______ _____ _____    ______ ____

>  <TORSDO>
F 4

$$$$
=
 OpenBabel11052417313D

 25 28  0  0  1  0  0  0  0  0999 V2000
  185.8430  177.6180  143.7910 C   0  0  0  0  0  0  0  0  0  0  0  0
  186.6070  177.0240  142.7820 C   0  0  0  0  0  0  0  0  0  0  0  0
  184.4630  178.6650  142.1390 N   0  0  0  0  0  0  0  0  0  0  0  0
  185.9830  177.5140  145.1840 C   0  0  0  0  0  0  0  0  0  0  0  0
  185.9410  177.5560  147.9750 C   0  0  0  0  0  3  0  0  0  0  0  0
  185.1880  178.1040  141.1660 N   0  0  0  0  0  0  0  0  0  0  0  0
  185.0210  178.2540  145.8730 C   0  0  0  0  0  0  0  0  0  0  0  0
  184.9800  178.2910  147.2650 C   0  0  0  0  0  3  0  0  0  0  0  0
  187.0110  176.6980  140.4250 C   0  0  0  0  0  0  0  0  0  0  0  0
  186.6920  176.9290  138.9870 C   0  0  0  0  0  1  0  0  0  0  0  0
  187.6600  176.2110  143.0550 N   0  0  0  0  0  0  0  0  0  0  0  0
  186.9170  176.8050  147.2910 C   0  0  0  0  0  3  0  0  0  0  0  0
  184.7810  178.4330  143.4360 C   0  0  0  0  0  0  0  0  0  0  0  0
  183.9890  179.0410  144.7930 S   0  0  0  0  0  0  0  0  0  0  0  0
  188.0560  175.8930  140.7520 N   0  0  0  0  0  0  0  0  0  0  0  0
  186.9440  176.7810  145.8880 C   0  0  0  0  0  3  0  0  0  0  0  0
  188.3800  175.6460  142.0510 C   0  0  0  0  0  0  0  0  0  0  0  0
  186.2520  177.2890  141.4420 C   0  0  0  0  0  0  0  0  0  0  0  0
  189.7550  174.5740  142.4380 S   0  0  0  0  0  0  0  0  0  0  0  0
  188.9110  173.1180  141.7320 C   0  0  0  0  0  2  0  0  0  0  0  0
  189.7770  172.3730  140.7180 C   0  0  2  0  0  3  0  0  0  0  0  0
  191.1780  172.9680  140.6480 C   0  0  0  0  0  1  0  0  0  0  0  0
  189.1110  172.2700  139.3730 C   0  0  0  0  0  0  0  0  0  0  0  0
  189.5470  171.3100  138.4640 O   0  0  0  0  0  0  0  0  0  0  0  0
  188.1910  173.0670  139.0390 O   0  0  0  0  0  1  0  0  0  0  0  0
  1  4  1  0  0  0  0
  2 11  1  0  0  0  0
  2  1  1  0  0  0  0
  3 13  1  0  0  0  0
  4  7  2  0  0  0  0
  4 16  1  0  0  0  0
  6 18  1  0  0  0  0
  6  3  2  0  0  0  0
  7  8  1  0  0  0  0
  8  5  2  0  0  0  0
  9 15  2  0  0  0  0
  9 18  1  0  0  0  0
 10  9  1  0  0  0  0
 12  5  1  0  0  0  0
 13  1  2  0  0  0  0
 13 14  1  0  0  0  0
 14  7  1  0  0  0  0
 15 17  1  0  0  0  0
 16 12  2  0  0  0  0
 17 19  1  0  0  0  0
 17 11  2  0  0  0  0
 18  2  2  0  0  0  0
 20 19  1  0  0  0  0
 21 22  1  6  0  0  0
 21 20  1  0  0  0  0
 23 21  1  0  0  0  0
 24 23  2  0  0  0  0
 25 23  1  0  0  0  0
M  END
>  <MODEL>
9

>  <REMARK>
 VINA RESULT:      -6.3      2.821      3.411
  Name = 
  4 active torsions:
  status: ('A' for Active; 'I' for Inactive)
    1  A    between atoms: C_2  and  C_21
    2  A    between atoms: S_6  and  C_15
    3  A    between atoms: S_6  and  C_23
    4  A    between atoms: C_15  and  C_21
                            x       y       z     vdW  Elec       q    Type
                         _______ _______ _______ _____ _____    ______ ____

>  <TORSDO>
F 4

$$$$
