=
 OpenBabel11052418303D

 27 31  0  0  1  0  0  0  0  0999 V2000
  188.8450  175.7980  144.8300 C   0  0  2  0  0  3  0  0  0  0  0  0
  190.0760  175.5940  145.7440 C   0  0  2  0  0  3  0  0  0  0  0  0
  190.5900  174.7940  143.6320 C   0  0  0  0  0  0  0  0  0  0  0  0
  194.5640  175.7150  146.5130 S   0  0  0  0  0  0  0  0  0  0  0  0
  196.0440  174.3510  144.5510 C   0  0  0  0  0  1  0  0  0  0  0  0
  190.5900  176.7960  146.5580 C   0  0  0  0  0  2  0  0  0  0  0  0
  193.5580  174.5980  144.4730 N   0  0  0  0  0  0  0  0  0  0  0  0
  189.0070  174.0680  141.3660 C   0  0  2  0  0  3  0  0  0  0  0  0
  191.7620  175.2910  141.6390 O   0  0  0  0  0  1  0  0  0  0  0  0
  188.1920  173.2250  140.6100 O   0  0  0  0  0  1  0  0  0  0  0  0
  192.5350  175.1400  145.1830 C   0  0  0  0  0  0  0  0  0  0  0  0
  194.7420  174.8300  145.0850 C   0  0  0  0  0  0  0  0  0  0  0  0
  192.8980  175.8210  146.3340 C   0  0  0  0  0  0  0  0  0  0  0  0
  189.2170  175.1510  143.5710 N   0  0  0  0  0  0  0  0  0  0  0  0
  191.1220  175.1050  144.7980 C   0  0  0  0  0  0  0  0  0  0  0  0
  190.3400  173.3620  141.6440 C   0  0  0  0  0  2  0  0  0  0  0  0
  191.9140  176.4600  147.2770 C   0  0  0  0  0  2  0  0  0  0  0  0
  187.0940  175.3270  142.3570 C   0  0  0  0  0  1  0  0  0  0  0  0
  188.2950  174.4510  142.6740 C   0  0  1  0  0  3  0  0  0  0  0  0
  191.3030  174.2440  142.4410 C   0  0  2  0  0  3  0  0  0  0  0  0
  188.4380  177.2710  144.6070 C   0  0  0  0  0  2  0  0  0  0  0  0
  184.8030  178.6390  146.4390 C   0  0  0  0  0  2  0  0  0  0  0  0
  187.0670  177.6290  145.1090 C   0  0  0  0  0  0  0  0  0  0  0  0
  186.4670  176.7910  146.2160 C   0  0  0  0  0  2  0  0  0  0  0  0
  185.0100  177.1360  146.5130 C   0  0  0  0  0  2  0  0  0  0  0  0
  185.1240  179.0760  145.0180 C   0  0  0  0  0  2  0  0  0  0  0  0
  186.4600  178.6660  144.6290 N   0  0  0  0  0  0  0  0  0  0  0  0
  1 21  1  6  0  0  0
  1  2  1  0  0  0  0
  2  6  1  6  0  0  0
  3 15  2  0  0  0  0
  5 12  1  0  0  0  0
  6 17  1  0  0  0  0
  7 12  2  0  0  0  0
  7 11  1  0  0  0  0
  8 10  1  1  0  0  0
  8 16  1  0  0  0  0
  8 19  1  0  0  0  0
 11 13  2  0  0  0  0
 12  4  1  0  0  0  0
 13  4  1  0  0  0  0
 13 17  1  0  0  0  0
 14  3  1  0  0  0  0
 14  1  1  0  0  0  0
 15 11  1  0  0  0  0
 15  2  1  0  0  0  0
 16 20  1  0  0  0  0
 19 18  1  6  0  0  0
 19 14  1  0  0  0  0
 20  9  1  6  0  0  0
 20  3  1  0  0  0  0
 21 23  1  0  0  0  0
 22 25  1  0  0  0  0
 23 24  1  0  0  0  0
 24 25  1  0  0  0  0
 26 22  1  0  0  0  0
 27 26  1  0  0  0  0
 27 23  2  0  0  0  0
M  END
>  <MODEL>
1

>  <REMARK>
 VINA RESULT:      -7.4      0.000      0.000
  Name = 
  2 active torsions:
  status: ('A' for Active; 'I' for Inactive)
    1  A    between atoms: C_1  and  C_15
    2  A    between atoms: C_9  and  C_15
                            x       y       z     vdW  Elec       q    Type
                         _______ _______ _______ _____ _____    ______ ____

>  <TORSDO>
F 2

$$$$
=
 OpenBabel11052418303D

 27 31  0  0  1  0  0  0  0  0999 V2000
  188.8250  176.6930  144.2900 C   0  0  2  0  0  3  0  0  0  0  0  0
  188.9630  176.2430  142.8160 C   0  0  2  0  0  3  0  0  0  0  0  0
  190.7510  175.3860  144.0140 C   0  0  0  0  0  0  0  0  0  0  0  0
  189.9060  173.1020  139.6550 S   0  0  0  0  0  0  0  0  0  0  0  0
  192.3960  171.8630  140.0570 C   0  0  0  0  0  1  0  0  0  0  0  0
  187.7490  175.5810  142.1380 C   0  0  0  0  0  2  0  0  0  0  0  0
  191.4540  173.5870  141.6010 N   0  0  0  0  0  0  0  0  0  0  0  0
  191.8960  176.0180  146.5550 C   0  0  2  0  0  3  0  0  0  0  0  0
  191.6070  173.4250  145.0200 O   0  0  0  0  0  1  0  0  0  0  0  0
  192.6900  176.7500  147.4390 O   0  0  0  0  0  1  0  0  0  0  0  0
  190.3600  174.3800  141.7470 C   0  0  0  0  0  0  0  0  0  0  0  0
  191.3490  172.8260  140.4880 C   0  0  0  0  0  0  0  0  0  0  0  0
  189.3810  174.2350  140.7770 C   0  0  0  0  0  0  0  0  0  0  0  0
  190.0540  176.2200  144.9290 N   0  0  0  0  0  0  0  0  0  0  0  0
  190.1260  175.3090  142.8550 C   0  0  0  0  0  0  0  0  0  0  0  0
  192.7730  175.4810  145.4170 C   0  0  0  0  0  2  0  0  0  0  0  0
  188.1130  175.0450  140.7370 C   0  0  0  0  0  2  0  0  0  0  0  0
  189.8000  177.2370  147.1460 C   0  0  0  0  0  1  0  0  0  0  0  0
  190.7600  176.9020  146.0160 C   0  0  1  0  0  3  0  0  0  0  0  0
  191.9730  174.6340  144.4260 C   0  0  2  0  0  3  0  0  0  0  0  0
  187.5720  176.1630  145.0180 C   0  0  0  0  0  2  0  0  0  0  0  0
  184.2320  178.8380  145.3840 C   0  0  0  0  0  2  0  0  0  0  0  0
  186.5170  177.1980  145.2910 C   0  0  0  0  0  0  0  0  0  0  0  0
  186.5240  178.4650  144.4650 C   0  0  0  0  0  2  0  0  0  0  0  0
  185.5240  179.5110  144.9540 C   0  0  0  0  0  2  0  0  0  0  0  0
  184.5640  177.9080  146.5410 C   0  0  0  0  0  2  0  0  0  0  0  0
  185.6030  176.9630  146.1770 N   0  0  0  0  0  0  0  0  0  0  0  0
  1 14  1  0  0  0  0
  1 21  1  1  0  0  0
  2  6  1  1  0  0  0
  2 15  1  0  0  0  0
  2  1  1  0  0  0  0
  3 20  1  0  0  0  0
  3 14  1  0  0  0  0
  4 12  1  0  0  0  0
  4 13  1  0  0  0  0
  5 12  1  0  0  0  0
  7 11  1  0  0  0  0
  8 10  1  1  0  0  0
 11 15  1  0  0  0  0
 12  7  2  0  0  0  0
 13 11  2  0  0  0  0
 14 19  1  0  0  0  0
 15  3  2  0  0  0  0
 16  8  1  0  0  0  0
 17 13  1  0  0  0  0
 17  6  1  0  0  0  0
 19  8  1  0  0  0  0
 19 18  1  1  0  0  0
 20  9  1  1  0  0  0
 20 16  1  0  0  0  0
 21 23  1  0  0  0  0
 22 26  1  0  0  0  0
 23 27  2  0  0  0  0
 24 25  1  0  0  0  0
 24 23  1  0  0  0  0
 25 22  1  0  0  0  0
 27 26  1  0  0  0  0
M  END
>  <MODEL>
2

>  <REMARK>
 VINA RESULT:      -7.3      2.576      4.655
  Name = 
  2 active torsions:
  status: ('A' for Active; 'I' for Inactive)
    1  A    between atoms: C_1  and  C_15
    2  A    between atoms: C_9  and  C_15
                            x       y       z     vdW  Elec       q    Type
                         _______ _______ _______ _____ _____    ______ ____

>  <TORSDO>
F 2

$$$$
=
 OpenBabel11052418303D

 27 31  0  0  1  0  0  0  0  0999 V2000
  188.3070  176.9070  144.4080 C   0  0  2  0  0  3  0  0  0  0  0  0
  187.5560  176.6560  143.0790 C   0  0  2  0  0  3  0  0  0  0  0  0
  186.0750  177.6000  144.5890 C   0  0  0  0  0  0  0  0  0  0  0  0
  184.6420  177.9270  139.8170 S   0  0  0  0  0  0  0  0  0  0  0  0
  182.1530  178.7440  140.8350 C   0  0  0  0  0  1  0  0  0  0  0  0
  188.1870  177.1750  141.7730 C   0  0  0  0  0  2  0  0  0  0  0  0
  184.0670  178.0420  142.2820 N   0  0  0  0  0  0  0  0  0  0  0  0
  186.0980  177.9120  147.4300 C   0  0  2  0  0  3  0  0  0  0  0  0
  184.9840  179.6110  145.1860 O   0  0  0  0  0  1  0  0  0  0  0  0
  185.9280  177.4930  148.7500 O   0  0  0  0  0  1  0  0  0  0  0  0
  185.3470  177.5990  142.1860 C   0  0  0  0  0  0  0  0  0  0  0  0
  183.5420  178.2630  141.0540 C   0  0  0  0  0  0  0  0  0  0  0  0
  185.8500  177.4940  140.8990 C   0  0  0  0  0  0  0  0  0  0  0  0
  187.2680  177.3760  145.3270 N   0  0  0  0  0  0  0  0  0  0  0  0
  186.2260  177.2900  143.3160 C   0  0  0  0  0  0  0  0  0  0  0  0
  184.7730  177.7440  146.6750 C   0  0  0  0  0  2  0  0  0  0  0  0
  187.2300  176.9880  140.5760 C   0  0  0  0  0  2  0  0  0  0  0  0
  188.5530  177.4620  147.4130 C   0  0  0  0  0  1  0  0  0  0  0  0
  187.2260  177.1040  146.7660 C   0  0  1  0  0  3  0  0  0  0  0  0
  184.8750  178.2200  145.2240 C   0  0  2  0  0  3  0  0  0  0  0  0
  189.4730  177.9150  144.3160 C   0  0  0  0  0  2  0  0  0  0  0  0
  193.5810  176.6990  144.6040 C   0  0  0  0  0  2  0  0  0  0  0  0
  190.8430  177.2980  144.3650 C   0  0  0  0  0  0  0  0  0  0  0  0
  191.6800  177.3090  143.1050 C   0  0  0  0  0  2  0  0  0  0  0  0
  192.9680  176.4990  143.2290 C   0  0  0  0  0  2  0  0  0  0  0  0
  192.5840  176.1820  145.6290 C   0  0  0  0  0  2  0  0  0  0  0  0
  191.2940  176.8270  145.4820 N   0  0  0  0  0  0  0  0  0  0  0  0
  1 21  1  6  0  0  0
  1 14  1  0  0  0  0
  2  6  1  6  0  0  0
  2 15  1  0  0  0  0
  2  1  1  0  0  0  0
  3 20  1  0  0  0  0
  3 14  1  0  0  0  0
  4 13  1  0  0  0  0
  4 12  1  0  0  0  0
  5 12  1  0  0  0  0
  8 10  1  1  0  0  0
 11  7  1  0  0  0  0
 11 15  1  0  0  0  0
 12  7  2  0  0  0  0
 13 11  2  0  0  0  0
 14 19  1  0  0  0  0
 15  3  2  0  0  0  0
 16  8  1  0  0  0  0
 17 13  1  0  0  0  0
 17  6  1  0  0  0  0
 19 18  1  1  0  0  0
 19  8  1  0  0  0  0
 20  9  1  1  0  0  0
 20 16  1  0  0  0  0
 21 23  1  0  0  0  0
 22 26  1  0  0  0  0
 23 27  2  0  0  0  0
 24 25  1  0  0  0  0
 24 23  1  0  0  0  0
 25 22  1  0  0  0  0
 27 26  1  0  0  0  0
M  END
>  <MODEL>
3

>  <REMARK>
 VINA RESULT:      -7.3      4.086      7.925
  Name = 
  2 active torsions:
  status: ('A' for Active; 'I' for Inactive)
    1  A    between atoms: C_1  and  C_15
    2  A    between atoms: C_9  and  C_15
                            x       y       z     vdW  Elec       q    Type
                         _______ _______ _______ _____ _____    ______ ____

>  <TORSDO>
F 2

$$$$
=
 OpenBabel11052418303D

 27 31  0  0  1  0  0  0  0  0999 V2000
  189.0010  176.5760  144.0890 C   0  0  2  0  0  3  0  0  0  0  0  0
  189.1340  176.0910  142.6250 C   0  0  2  0  0  3  0  0  0  0  0  0
  190.9290  175.2680  143.8360 C   0  0  0  0  0  0  0  0  0  0  0  0
  190.0740  172.8800  139.5350 S   0  0  0  0  0  0  0  0  0  0  0  0
  192.5700  171.6580  139.9560 C   0  0  0  0  0  1  0  0  0  0  0  0
  187.9190  175.4100  141.9670 C   0  0  0  0  0  2  0  0  0  0  0  0
  191.6280  173.4150  141.4630 N   0  0  0  0  0  0  0  0  0  0  0  0
  192.0820  175.9630  146.3570 C   0  0  2  0  0  3  0  0  0  0  0  0
  191.7950  173.3340  144.8840 O   0  0  0  0  0  1  0  0  0  0  0  0
  192.8780  176.7180  147.2200 O   0  0  0  0  0  1  0  0  0  0  0  0
  190.5330  174.2080  141.5940 C   0  0  0  0  0  0  0  0  0  0  0  0
  191.5220  172.6280  140.3680 C   0  0  0  0  0  0  0  0  0  0  0  0
  189.5510  174.0370  140.6320 C   0  0  0  0  0  0  0  0  0  0  0  0
  190.2340  176.1210  144.7340 N   0  0  0  0  0  0  0  0  0  0  0  0
  190.3000  175.1620  142.6820 C   0  0  0  0  0  0  0  0  0  0  0  0
  192.9570  175.4020  145.2280 C   0  0  0  0  0  2  0  0  0  0  0  0
  188.2800  174.8430  140.5780 C   0  0  0  0  0  2  0  0  0  0  0  0
  189.9850  177.1890  146.9270 C   0  0  0  0  0  1  0  0  0  0  0  0
  190.9420  176.8310  145.8020 C   0  0  1  0  0  3  0  0  0  0  0  0
  192.1550  174.5300  144.2600 C   0  0  2  0  0  3  0  0  0  0  0  0
  187.7520  176.0590  144.8340 C   0  0  0  0  0  2  0  0  0  0  0  0
  185.1720  179.2530  146.0920 C   0  0  0  0  0  2  0  0  0  0  0  0
  186.7160  177.1070  145.1280 C   0  0  0  0  0  0  0  0  0  0  0  0
  185.6710  176.8090  146.1810 C   0  0  0  0  0  2  0  0  0  0  0  0
  184.5750  177.8680  146.2610 C   0  0  0  0  0  2  0  0  0  0  0  0
  185.8030  179.3140  144.7090 C   0  0  0  0  0  2  0  0  0  0  0  0
  186.7720  178.2500  144.5240 N   0  0  0  0  0  0  0  0  0  0  0  0
  1 14  1  0  0  0  0
  1 21  1  1  0  0  0
  2  6  1  1  0  0  0
  2 15  1  0  0  0  0
  2  1  1  0  0  0  0
  3 20  1  0  0  0  0
  3 14  1  0  0  0  0
  4 12  1  0  0  0  0
  4 13  1  0  0  0  0
  5 12  1  0  0  0  0
  7 11  1  0  0  0  0
  8 10  1  1  0  0  0
 11 15  1  0  0  0  0
 12  7  2  0  0  0  0
 13 11  2  0  0  0  0
 14 19  1  0  0  0  0
 15  3  2  0  0  0  0
 16  8  1  0  0  0  0
 17 13  1  0  0  0  0
 17  6  1  0  0  0  0
 19  8  1  0  0  0  0
 19 18  1  1  0  0  0
 20  9  1  1  0  0  0
 20 16  1  0  0  0  0
 21 23  1  0  0  0  0
 22 25  1  0  0  0  0
 23 24  1  0  0  0  0
 24 25  1  0  0  0  0
 26 22  1  0  0  0  0
 27 26  1  0  0  0  0
 27 23  2  0  0  0  0
M  END
>  <MODEL>
4

>  <REMARK>
 VINA RESULT:      -7.2      2.545      4.570
  Name = 
  2 active torsions:
  status: ('A' for Active; 'I' for Inactive)
    1  A    between atoms: C_1  and  C_15
    2  A    between atoms: C_9  and  C_15
                            x       y       z     vdW  Elec       q    Type
                         _______ _______ _______ _____ _____    ______ ____

>  <TORSDO>
F 2

$$$$
=
 OpenBabel11052418303D

 27 31  0  0  1  0  0  0  0  0999 V2000
  188.6090  175.8470  142.5660 C   0  0  2  0  0  3  0  0  0  0  0  0
  189.2780  175.9190  143.9590 C   0  0  2  0  0  3  0  0  0  0  0  0
  190.6540  174.7040  142.5470 C   0  0  0  0  0  0  0  0  0  0  0  0
  192.9260  176.4600  146.6320 S   0  0  0  0  0  0  0  0  0  0  0  0
  195.0630  174.7830  145.9140 C   0  0  0  0  0  1  0  0  0  0  0  0
  189.4260  177.2980  144.6290 C   0  0  0  0  0  2  0  0  0  0  0  0
  192.9010  174.8660  144.6630 N   0  0  0  0  0  0  0  0  0  0  0  0
  190.2380  173.4080  140.0340 C   0  0  2  0  0  3  0  0  0  0  0  0
  192.6270  174.8140  141.2490 O   0  0  0  0  0  1  0  0  0  0  0  0
  189.8130  172.3740  139.1980 O   0  0  0  0  0  1  0  0  0  0  0  0
  191.6960  175.4920  144.6910 C   0  0  0  0  0  0  0  0  0  0  0  0
  193.6870  175.2940  145.6770 C   0  0  0  0  0  0  0  0  0  0  0  0
  191.5310  176.4300  145.6980 C   0  0  0  0  0  0  0  0  0  0  0  0
  189.4790  174.9610  141.7920 N   0  0  0  0  0  0  0  0  0  0  0  0
  190.6120  175.2930  143.7260 C   0  0  0  0  0  0  0  0  0  0  0  0
  191.2610  172.8560  141.0350 C   0  0  0  0  0  2  0  0  0  0  0  0
  190.2600  177.2040  145.9240 C   0  0  0  0  0  2  0  0  0  0  0  0
  188.1510  174.7440  139.7420 C   0  0  0  0  0  1  0  0  0  0  0  0
  189.0300  174.0290  140.7540 C   0  0  1  0  0  3  0  0  0  0  0  0
  191.8000  173.9460  141.9640 C   0  0  2  0  0  3  0  0  0  0  0  0
  188.4240  177.2090  141.8620 C   0  0  0  0  0  2  0  0  0  0  0  0
  184.2300  178.1240  141.9810 C   0  0  0  0  0  2  0  0  0  0  0  0
  187.0120  177.7230  141.8460 C   0  0  0  0  0  0  0  0  0  0  0  0
  186.2190  177.6040  140.5640 C   0  0  0  0  0  2  0  0  0  0  0  0
  184.8710  178.3190  140.6190 C   0  0  0  0  0  2  0  0  0  0  0  0
  185.1530  178.7520  143.0150 C   0  0  0  0  0  2  0  0  0  0  0  0
  186.4920  178.1990  142.9310 N   0  0  0  0  0  0  0  0  0  0  0  0
  1 21  1  6  0  0  0
  1  2  1  0  0  0  0
  2  6  1  6  0  0  0
  3 15  2  0  0  0  0
  6 17  1  0  0  0  0
  7 11  1  0  0  0  0
  7 12  2  0  0  0  0
  8 10  1  6  0  0  0
  8 19  1  0  0  0  0
  8 16  1  0  0  0  0
 11 13  2  0  0  0  0
 12  5  1  0  0  0  0
 12  4  1  0  0  0  0
 13 17  1  0  0  0  0
 13  4  1  0  0  0  0
 14  3  1  0  0  0  0
 14  1  1  0  0  0  0
 15  2  1  0  0  0  0
 15 11  1  0  0  0  0
 16 20  1  0  0  0  0
 19 18  1  6  0  0  0
 19 14  1  0  0  0  0
 20  9  1  6  0  0  0
 20  3  1  0  0  0  0
 22 26  1  0  0  0  0
 23 21  1  0  0  0  0
 23 27  2  0  0  0  0
 24 25  1  0  0  0  0
 24 23  1  0  0  0  0
 25 22  1  0  0  0  0
 27 26  1  0  0  0  0
M  END
>  <MODEL>
5

>  <REMARK>
 VINA RESULT:      -6.8      1.807      2.563
  Name = 
  2 active torsions:
  status: ('A' for Active; 'I' for Inactive)
    1  A    between atoms: C_1  and  C_15
    2  A    between atoms: C_9  and  C_15
                            x       y       z     vdW  Elec       q    Type
                         _______ _______ _______ _____ _____    ______ ____

>  <TORSDO>
F 2

$$$$
=
 OpenBabel11052418303D

 27 31  0  0  1  0  0  0  0  0999 V2000
  189.6530  175.1400  144.3540 C   0  0  2  0  0  3  0  0  0  0  0  0
  190.8950  174.9380  145.2540 C   0  0  2  0  0  3  0  0  0  0  0  0
  191.3950  174.1610  143.1300 C   0  0  0  0  0  0  0  0  0  0  0  0
  195.3900  175.0930  145.9780 S   0  0  0  0  0  0  0  0  0  0  0  0
  196.8610  173.7580  143.9900 C   0  0  0  0  0  1  0  0  0  0  0  0
  191.4070  176.1380  146.0730 C   0  0  0  0  0  2  0  0  0  0  0  0
  194.3730  173.9840  143.9390 N   0  0  0  0  0  0  0  0  0  0  0  0
  189.7940  173.4390  140.8750 C   0  0  2  0  0  3  0  0  0  0  0  0
  192.5420  174.6840  141.1300 O   0  0  0  0  0  1  0  0  0  0  0  0
  188.9780  172.5960  140.1210 O   0  0  0  0  0  1  0  0  0  0  0  0
  193.3520  174.5110  144.6640 C   0  0  0  0  0  0  0  0  0  0  0  0
  195.5610  174.2210  144.5410 C   0  0  0  0  0  0  0  0  0  0  0  0
  193.7220  175.1850  145.8170 C   0  0  0  0  0  0  0  0  0  0  0  0
  190.0180  174.5070  143.0860 N   0  0  0  0  0  0  0  0  0  0  0  0
  191.9350  174.4660  144.2940 C   0  0  0  0  0  0  0  0  0  0  0  0
  191.1360  172.7430  141.1330 C   0  0  0  0  0  2  0  0  0  0  0  0
  192.7420  175.8080  146.7750 C   0  0  0  0  0  2  0  0  0  0  0  0
  187.8810  174.6740  141.8960 C   0  0  0  0  0  1  0  0  0  0  0  0
  189.0920  173.8060  142.1930 C   0  0  1  0  0  3  0  0  0  0  0  0
  192.1000  173.6270  141.9270 C   0  0  2  0  0  3  0  0  0  0  0  0
  189.2310  176.6110  144.1480 C   0  0  0  0  0  2  0  0  0  0  0  0
  185.3830  177.2710  145.9350 C   0  0  0  0  0  2  0  0  0  0  0  0
  187.9710  177.0110  144.8630 C   0  0  0  0  0  0  0  0  0  0  0  0
  187.0000  177.9250  144.1490 C   0  0  0  0  0  2  0  0  0  0  0  0
  185.8540  178.4020  145.0380 C   0  0  0  0  0  2  0  0  0  0  0  0
  186.5520  176.8750  146.8240 C   0  0  0  0  0  2  0  0  0  0  0  0
  187.7190  176.5260  146.0360 N   0  0  0  0  0  0  0  0  0  0  0  0
  1 21  1  6  0  0  0
  1  2  1  0  0  0  0
  2  6  1  6  0  0  0
  3 15  2  0  0  0  0
  5 12  1  0  0  0  0
  6 17  1  0  0  0  0
  7 12  2  0  0  0  0
  7 11  1  0  0  0  0
  8 10  1  1  0  0  0
  8 16  1  0  0  0  0
  8 19  1  0  0  0  0
 11 13  2  0  0  0  0
 12  4  1  0  0  0  0
 13  4  1  0  0  0  0
 13 17  1  0  0  0  0
 14  3  1  0  0  0  0
 14  1  1  0  0  0  0
 15 11  1  0  0  0  0
 15  2  1  0  0  0  0
 16 20  1  0  0  0  0
 19 18  1  6  0  0  0
 19 14  1  0  0  0  0
 20  9  1  6  0  0  0
 20  3  1  0  0  0  0
 21 23  1  0  0  0  0
 22 26  1  0  0  0  0
 23 27  2  0  0  0  0
 24 23  1  0  0  0  0
 24 25  1  0  0  0  0
 25 22  1  0  0  0  0
 27 26  1  0  0  0  0
M  END
>  <MODEL>
6

>  <REMARK>
 VINA RESULT:      -6.7      1.131      1.488
  Name = 
  2 active torsions:
  status: ('A' for Active; 'I' for Inactive)
    1  A    between atoms: C_1  and  C_15
    2  A    between atoms: C_9  and  C_15
                            x       y       z     vdW  Elec       q    Type
                         _______ _______ _______ _____ _____    ______ ____

>  <TORSDO>
F 2

$$$$
=
 OpenBabel11052418303D

 27 31  0  0  1  0  0  0  0  0999 V2000
  188.2070  176.2740  143.1720 C   0  0  2  0  0  3  0  0  0  0  0  0
  189.0830  175.2570  142.4020 C   0  0  2  0  0  3  0  0  0  0  0  0
  189.6740  175.1860  144.6410 C   0  0  0  0  0  0  0  0  0  0  0  0
  191.0950  171.1890  142.0060 S   0  0  0  0  0  0  0  0  0  0  0  0
  192.6370  170.5110  144.2560 C   0  0  0  0  0  1  0  0  0  0  0  0
  188.3840  174.2440  141.4750 C   0  0  0  0  0  2  0  0  0  0  0  0
  191.3020  172.6170  144.0880 N   0  0  0  0  0  0  0  0  0  0  0  0
  189.2430  176.9560  146.8430 C   0  0  2  0  0  3  0  0  0  0  0  0
  189.4340  173.9420  146.6370 O   0  0  0  0  0  1  0  0  0  0  0  0
  189.5010  178.0740  147.6370 O   0  0  0  0  0  1  0  0  0  0  0  0
  190.4850  173.2760  143.2260 C   0  0  0  0  0  0  0  0  0  0  0  0
  191.7230  171.4490  143.5520 C   0  0  0  0  0  0  0  0  0  0  0  0
  190.2330  172.6290  142.0270 C   0  0  0  0  0  0  0  0  0  0  0  0
  188.7390  176.2500  144.5350 N   0  0  0  0  0  0  0  0  0  0  0  0
  189.8250  174.5570  143.4910 C   0  0  0  0  0  0  0  0  0  0  0  0
  190.5030  176.0830  146.7800 C   0  0  0  0  0  2  0  0  0  0  0  0
  189.3850  173.2060  140.9250 C   0  0  0  0  0  2  0  0  0  0  0  0
  187.4440  178.0800  145.5290 C   0  0  0  0  0  1  0  0  0  0  0  0
  188.8010  177.4010  145.4390 C   0  0  1  0  0  3  0  0  0  0  0  0
  190.2820  174.8150  145.9520 C   0  0  2  0  0  3  0  0  0  0  0  0
  186.6930  175.9730  143.1530 C   0  0  0  0  0  2  0  0  0  0  0  0
  183.9890  178.2910  140.7540 C   0  0  0  0  0  2  0  0  0  0  0  0
  185.8670  176.9490  142.3620 C   0  0  0  0  0  0  0  0  0  0  0  0
  186.2130  177.1660  140.9050 C   0  0  0  0  0  2  0  0  0  0  0  0
  185.4250  178.3040  140.2610 C   0  0  0  0  0  2  0  0  0  0  0  0
  184.0200  178.5150  142.2580 C   0  0  0  0  0  2  0  0  0  0  0  0
  184.8570  177.5330  142.9200 N   0  0  0  0  0  0  0  0  0  0  0  0
  1 21  1  1  0  0  0
  1 14  1  0  0  0  0
  2  6  1  1  0  0  0
  2  1  1  0  0  0  0
  2 15  1  0  0  0  0
  3 20  1  0  0  0  0
  4 13  1  0  0  0  0
  4 12  1  0  0  0  0
  8 10  1  1  0  0  0
 11 15  1  0  0  0  0
 11  7  1  0  0  0  0
 12  7  2  0  0  0  0
 12  5  1  0  0  0  0
 13 11  2  0  0  0  0
 14  3  1  0  0  0  0
 14 19  1  0  0  0  0
 15  3  2  0  0  0  0
 16  8  1  0  0  0  0
 17  6  1  0  0  0  0
 17 13  1  0  0  0  0
 19 18  1  1  0  0  0
 19  8  1  0  0  0  0
 20  9  1  1  0  0  0
 20 16  1  0  0  0  0
 22 26  1  0  0  0  0
 23 27  2  0  0  0  0
 23 21  1  0  0  0  0
 24 23  1  0  0  0  0
 25 22  1  0  0  0  0
 25 24  1  0  0  0  0
 26 27  1  0  0  0  0
M  END
>  <MODEL>
7

>  <REMARK>
 VINA RESULT:      -6.7      3.056      4.862
  Name = 
  2 active torsions:
  status: ('A' for Active; 'I' for Inactive)
    1  A    between atoms: C_1  and  C_15
    2  A    between atoms: C_9  and  C_15
                            x       y       z     vdW  Elec       q    Type
                         _______ _______ _______ _____ _____    ______ ____

>  <TORSDO>
F 2

$$$$
=
 OpenBabel11052418303D

 27 31  0  0  1  0  0  0  0  0999 V2000
  188.3050  176.6780  142.7090 C   0  0  2  0  0  3  0  0  0  0  0  0
  189.6910  176.8240  143.3820 C   0  0  2  0  0  3  0  0  0  0  0  0
  188.0660  177.4410  144.9120 C   0  0  0  0  0  0  0  0  0  0  0  0
  192.4930  176.3360  146.9400 S   0  0  0  0  0  0  0  0  0  0  0  0
  191.4510  177.4340  149.3080 C   0  0  0  0  0  1  0  0  0  0  0  0
  190.6640  175.6320  143.3170 C   0  0  0  0  0  2  0  0  0  0  0  0
  190.2090  177.4140  147.1390 N   0  0  0  0  0  0  0  0  0  0  0  0
  185.3130  178.1700  144.6680 C   0  0  2  0  0  3  0  0  0  0  0  0
  186.8700  176.7170  146.8190 O   0  0  0  0  0  1  0  0  0  0  0  0
  184.2530  179.0370  144.4010 O   0  0  0  0  0  1  0  0  0  0  0  0
  190.3560  177.0130  145.8490 C   0  0  0  0  0  0  0  0  0  0  0  0
  191.3110  177.1110  147.8630 C   0  0  0  0  0  0  0  0  0  0  0  0
  191.5480  176.3740  145.5530 C   0  0  0  0  0  0  0  0  0  0  0  0
  187.3660  177.2090  143.6980 N   0  0  0  0  0  0  0  0  0  0  0  0
  189.3480  177.1550  144.7960 C   0  0  0  0  0  0  0  0  0  0  0  0
  186.1810  178.7660  145.7830 C   0  0  0  0  0  2  0  0  0  0  0  0
  191.9210  175.8870  144.1780 C   0  0  0  0  0  2  0  0  0  0  0  0
  185.2940  177.1560  142.3880 C   0  0  0  0  0  1  0  0  0  0  0  0
  186.1320  177.9350  143.3880 C   0  0  1  0  0  3  0  0  0  0  0  0
  187.3480  177.8490  146.1560 C   0  0  2  0  0  3  0  0  0  0  0  0
  187.9320  175.2380  142.2960 C   0  0  0  0  0  2  0  0  0  0  0  0
  188.2020  173.9220  138.2170 C   0  0  0  0  0  2  0  0  0  0  0  0
  188.1850  174.9130  140.8500 C   0  0  0  0  0  0  0  0  0  0  0  0
  189.1480  173.7930  140.5240 C   0  0  0  0  0  2  0  0  0  0  0  0
  189.4590  173.6790  139.0330 C   0  0  0  0  0  2  0  0  0  0  0  0
  187.7360  175.3400  138.5060 C   0  0  0  0  0  2  0  0  0  0  0  0
  187.5400  175.5520  139.9280 N   0  0  0  0  0  0  0  0  0  0  0  0
  1 21  1  1  0  0  0
  1  2  1  0  0  0  0
  1 14  1  0  0  0  0
  2  6  1  1  0  0  0
  2 15  1  0  0  0  0
  3 20  1  0  0  0  0
  4 12  1  0  0  0  0
  6 17  1  0  0  0  0
  7 12  2  0  0  0  0
  8 10  1  6  0  0  0
  8 16  1  0  0  0  0
 11  7  1  0  0  0  0
 12  5  1  0  0  0  0
 13 11  2  0  0  0  0
 13  4  1  0  0  0  0
 14  3  1  0  0  0  0
 15  3  2  0  0  0  0
 15 11  1  0  0  0  0
 16 20  1  0  0  0  0
 17 13  1  0  0  0  0
 19 18  1  6  0  0  0
 19 14  1  0  0  0  0
 19  8  1  0  0  0  0
 20  9  1  6  0  0  0
 22 26  1  0  0  0  0
 22 25  1  0  0  0  0
 23 21  1  0  0  0  0
 24 23  1  0  0  0  0
 25 24  1  0  0  0  0
 26 27  1  0  0  0  0
 27 23  2  0  0  0  0
M  END
>  <MODEL>
8

>  <REMARK>
 VINA RESULT:      -6.5      2.885      5.589
  Name = 
  2 active torsions:
  status: ('A' for Active; 'I' for Inactive)
    1  A    between atoms: C_1  and  C_15
    2  A    between atoms: C_9  and  C_15
                            x       y       z     vdW  Elec       q    Type
                         _______ _______ _______ _____ _____    ______ ____

>  <TORSDO>
F 2

$$$$
=
 OpenBabel11052418303D

 27 31  0  0  1  0  0  0  0  0999 V2000
  192.4890  174.7410  144.3270 C   0  0  2  0  0  3  0  0  0  0  0  0
  191.6420  175.8250  145.0350 C   0  0  2  0  0  3  0  0  0  0  0  0
  190.3720  174.8970  143.3350 C   0  0  0  0  0  0  0  0  0  0  0  0
  187.7220  177.3370  146.7940 S   0  0  0  0  0  0  0  0  0  0  0  0
  185.5630  177.1000  145.0100 C   0  0  0  0  0  1  0  0  0  0  0  0
  191.5270  175.7760  146.5700 C   0  0  0  0  0  2  0  0  0  0  0  0
  187.8770  176.3190  144.4790 N   0  0  0  0  0  0  0  0  0  0  0  0
  191.0150  173.3320  141.0330 C   0  0  2  0  0  3  0  0  0  0  0  0
  188.6160  173.3810  142.8780 O   0  0  0  0  0  1  0  0  0  0  0  0
  191.4570  173.1260  139.7250 O   0  0  0  0  0  1  0  0  0  0  0  0
  189.1180  176.2620  145.0290 C   0  0  0  0  0  0  0  0  0  0  0  0
  186.9990  176.8910  145.3340 C   0  0  0  0  0  0  0  0  0  0  0  0
  189.2240  176.7580  146.3190 C   0  0  0  0  0  0  0  0  0  0  0  0
  191.6590  174.3120  143.2010 N   0  0  0  0  0  0  0  0  0  0  0  0
  190.3020  175.6800  144.3950 C   0  0  0  0  0  0  0  0  0  0  0  0
  189.8170  174.2900  141.0140 C   0  0  0  0  0  2  0  0  0  0  0  0
  190.5160  176.8210  147.0890 C   0  0  0  0  0  2  0  0  0  0  0  0
  193.2340  172.8220  142.0550 C   0  0  0  0  0  1  0  0  0  0  0  0
  192.1620  173.8870  141.8920 C   0  0  1  0  0  3  0  0  0  0  0  0
  189.2540  174.5330  142.4150 C   0  0  2  0  0  3  0  0  0  0  0  0
  192.8910  173.5460  145.2180 C   0  0  0  0  0  2  0  0  0  0  0  0
  197.0170  173.0030  146.2780 C   0  0  0  0  0  2  0  0  0  0  0  0
  194.3730  173.3540  145.3830 C   0  0  0  0  0  0  0  0  0  0  0  0
  195.2470  174.5830  145.5010 C   0  0  0  0  0  2  0  0  0  0  0  0
  196.7400  174.2660  145.4820 C   0  0  0  0  0  2  0  0  0  0  0  0
  196.2720  171.8630  145.6000 C   0  0  0  0  0  2  0  0  0  0  0  0
  194.8570  172.1580  145.4750 N   0  0  0  0  0  0  0  0  0  0  0  0
  1  2  1  0  0  0  0
  1 21  1  1  0  0  0
  2  6  1  1  0  0  0
  3 15  2  0  0  0  0
  5 12  1  0  0  0  0
  6 17  1  0  0  0  0
  7 11  1  0  0  0  0
  7 12  2  0  0  0  0
  8 10  1  6  0  0  0
  8 19  1  0  0  0  0
 11 13  2  0  0  0  0
 12  4  1  0  0  0  0
 13  4  1  0  0  0  0
 13 17  1  0  0  0  0
 14  3  1  0  0  0  0
 14  1  1  0  0  0  0
 15 11  1  0  0  0  0
 15  2  1  0  0  0  0
 16  8  1  0  0  0  0
 16 20  1  0  0  0  0
 19 18  1  1  0  0  0
 19 14  1  0  0  0  0
 20  9  1  1  0  0  0
 20  3  1  0  0  0  0
 21 23  1  0  0  0  0
 23 27  2  0  0  0  0
 23 24  1  0  0  0  0
 25 24  1  0  0  0  0
 25 22  1  0  0  0  0
 26 22  1  0  0  0  0
 27 26  1  0  0  0  0
M  END
>  <MODEL>
9

>  <REMARK>
 VINA RESULT:      -6.4      2.114      6.742
  Name = 
  2 active torsions:
  status: ('A' for Active; 'I' for Inactive)
    1  A    between atoms: C_1  and  C_15
    2  A    between atoms: C_9  and  C_15
                            x       y       z     vdW  Elec       q    Type
                         _______ _______ _______ _____ _____    ______ ____

>  <TORSDO>
F 2

$$$$
