=
 OpenBabel11052417293D

 25 28  0  0  1  0  0  0  0  0999 V2000
  188.4390  175.6010  143.3680 C   0  0  0  0  0  0  0  0  0  0  0  0
  187.5650  176.5350  142.7810 C   0  0  0  0  0  0  0  0  0  0  0  0
  188.8860  174.6360  141.1870 C   0  0  0  0  0  3  0  0  0  0  0  0
  188.7890  175.4510  144.7240 C   0  0  0  0  0  0  0  0  0  0  0  0
  189.7160  174.8490  147.2910 C   0  0  0  0  0  3  0  0  0  0  0  0
  188.0390  175.5430  140.6260 N   0  0  0  0  0  0  0  0  0  0  0  0
  189.6910  174.4110  144.9340 C   0  0  0  0  0  0  0  0  0  0  0  0
  190.1680  174.0890  146.2020 C   0  0  0  0  0  3  0  0  0  0  0  0
  186.5140  177.4020  140.7510 C   0  0  0  0  0  0  0  0  0  0  0  0
  186.2930  177.3830  139.2760 C   0  0  0  0  0  1  0  0  0  0  0  0
  186.8830  177.5010  143.5310 C   0  0  0  0  0  3  0  0  0  0  0  0
  188.8050  175.9030  147.0950 C   0  0  0  0  0  3  0  0  0  0  0  0
  189.0840  174.6690  142.5610 C   0  0  0  0  0  0  0  0  0  0  0  0
  190.0770  173.6590  143.4760 S   0  0  0  0  0  0  0  0  0  0  0  0
  185.8450  178.3570  141.5200 C   0  0  0  0  0  3  0  0  0  0  0  0
  188.3360  176.2100  145.8080 C   0  0  0  0  0  3  0  0  0  0  0  0
  186.0230  178.4060  142.9050 C   0  0  0  0  0  0  0  0  0  0  0  0
  187.3780  176.4820  141.3700 C   0  0  0  0  0  0  0  0  0  0  0  0
  185.3190  179.4410  143.7100 C   0  0  0  0  0  2  0  0  0  0  0  0
  185.8560  179.4500  145.1300 C   0  0  0  0  0  2  0  0  0  0  0  0
  184.7640  179.0440  146.1070 C   0  0  1  0  0  3  0  0  0  0  0  0
  183.5760  178.7860  145.4200 O   0  0  0  0  0  1  0  0  0  0  0  0
  185.1830  177.8310  146.8680 C   0  0  0  0  0  0  0  0  0  0  0  0
  185.9340  177.9730  148.0270 O   0  0  0  0  0  1  0  0  0  0  0  0
  184.8790  176.6800  146.4570 O   0  0  0  0  0  0  0  0  0  0  0  0
  1  4  1  0  0  0  0
  2  1  1  0  0  0  0
  2 11  1  0  0  0  0
  3 13  1  0  0  0  0
  4  7  2  0  0  0  0
  4 16  1  0  0  0  0
  6  3  2  0  0  0  0
  6 18  1  0  0  0  0
  7  8  1  0  0  0  0
  8  5  2  0  0  0  0
  9 18  1  0  0  0  0
  9 15  2  0  0  0  0
 10  9  1  0  0  0  0
 12  5  1  0  0  0  0
 13  1  2  0  0  0  0
 13 14  1  0  0  0  0
 14  7  1  0  0  0  0
 15 17  1  0  0  0  0
 16 12  2  0  0  0  0
 17 11  2  0  0  0  0
 17 19  1  0  0  0  0
 18  2  2  0  0  0  0
 19 20  1  0  0  0  0
 20 21  1  0  0  0  0
 21 22  1  6  0  0  0
 21 23  1  0  0  0  0
 23 24  1  0  0  0  0
 25 23  2  0  0  0  0
M  END
>  <MODEL>
1

>  <REMARK>
 VINA RESULT:      -7.6      0.000      0.000
  Name = 
  4 active torsions:
  status: ('A' for Active; 'I' for Inactive)
    1  A    between atoms: C_2  and  C_21
    2  A    between atoms: C_6  and  C_15
    3  A    between atoms: C_6  and  C_23
    4  A    between atoms: C_15  and  C_21
                            x       y       z     vdW  Elec       q    Type
                         _______ _______ _______ _____ _____    ______ ____

>  <TORSDO>
F 4

$$$$
=
 OpenBabel11052417293D

 25 28  0  0  1  0  0  0  0  0999 V2000
  186.6210  176.8840  143.8430 C   0  0  0  0  0  0  0  0  0  0  0  0
  187.7360  176.0360  143.7120 C   0  0  0  0  0  0  0  0  0  0  0  0
  186.4010  176.9830  141.4290 C   0  0  0  0  0  3  0  0  0  0  0  0
  186.0160  177.3720  145.0180 C   0  0  0  0  0  0  0  0  0  0  0  0
  184.5590  178.5280  147.1040 C   0  0  0  0  0  3  0  0  0  0  0  0
  187.4810  176.1620  141.3100 N   0  0  0  0  0  0  0  0  0  0  0  0
  184.9210  178.1920  144.7580 C   0  0  0  0  0  0  0  0  0  0  0  0
  184.1780  178.7810  145.7790 C   0  0  0  0  0  3  0  0  0  0  0  0
  189.2660  174.8340  142.2310 C   0  0  0  0  0  0  0  0  0  0  0  0
  189.7360  174.4350  140.8740 C   0  0  0  0  0  1  0  0  0  0  0  0
  188.4350  175.5380  144.8180 C   0  0  0  0  0  3  0  0  0  0  0  0
  185.6630  177.7010  147.3830 C   0  0  0  0  0  3  0  0  0  0  0  0
  185.9730  177.3420  142.7000 C   0  0  0  0  0  0  0  0  0  0  0  0
  184.6710  178.3370  143.0990 S   0  0  0  0  0  0  0  0  0  0  0  0
  189.9470  174.3480  143.3500 C   0  0  0  0  0  3  0  0  0  0  0  0
  186.3980  177.1180  146.3400 C   0  0  0  0  0  3  0  0  0  0  0  0
  189.5390  174.7010  144.6390 C   0  0  0  0  0  0  0  0  0  0  0  0
  188.1570  175.6820  142.3990 C   0  0  0  0  0  0  0  0  0  0  0  0
  190.2620  174.1610  145.8220 C   0  0  0  0  0  2  0  0  0  0  0  0
  189.7920  174.8620  147.0850 C   0  0  0  0  0  2  0  0  0  0  0  0
  190.9810  175.4260  147.8460 C   0  0  1  0  0  3  0  0  0  0  0  0
  192.1680  175.1180  147.1790 O   0  0  0  0  0  1  0  0  0  0  0  0
  190.8450  176.9050  147.9830 C   0  0  0  0  0  0  0  0  0  0  0  0
  191.5910  177.5780  148.9420 O   0  0  0  0  0  1  0  0  0  0  0  0
  190.0450  177.5450  147.2510 O   0  0  0  0  0  0  0  0  0  0  0  0
  1  4  1  0  0  0  0
  2  1  1  0  0  0  0
  2 11  1  0  0  0  0
  3 13  1  0  0  0  0
  4 16  1  0  0  0  0
  5 12  1  0  0  0  0
  6  3  2  0  0  0  0
  6 18  1  0  0  0  0
  7  4  2  0  0  0  0
  7  8  1  0  0  0  0
  8  5  2  0  0  0  0
  9 18  1  0  0  0  0
  9 15  2  0  0  0  0
 10  9  1  0  0  0  0
 13 14  1  0  0  0  0
 13  1  2  0  0  0  0
 14  7  1  0  0  0  0
 15 17  1  0  0  0  0
 16 12  2  0  0  0  0
 17 11  2  0  0  0  0
 17 19  1  0  0  0  0
 18  2  2  0  0  0  0
 19 20  1  0  0  0  0
 20 21  1  0  0  0  0
 21 22  1  6  0  0  0
 21 23  1  0  0  0  0
 23 24  1  0  0  0  0
 25 23  2  0  0  0  0
M  END
>  <MODEL>
2

>  <REMARK>
 VINA RESULT:      -7.6      2.654      5.309
  Name = 
  4 active torsions:
  status: ('A' for Active; 'I' for Inactive)
    1  A    between atoms: C_2  and  C_21
    2  A    between atoms: C_6  and  C_15
    3  A    between atoms: C_6  and  C_23
    4  A    between atoms: C_15  and  C_21
                            x       y       z     vdW  Elec       q    Type
                         _______ _______ _______ _____ _____    ______ ____

>  <TORSDO>
F 4

$$$$
=
 OpenBabel11052417293D

 25 28  0  0  1  0  0  0  0  0999 V2000
  186.8940  176.7730  144.1070 C   0  0  0  0  0  0  0  0  0  0  0  0
  188.0950  176.0410  144.0930 C   0  0  0  0  0  0  0  0  0  0  0  0
  186.7560  176.6100  141.6900 C   0  0  0  0  0  3  0  0  0  0  0  0
  186.1980  177.3070  145.2090 C   0  0  0  0  0  0  0  0  0  0  0  0
  184.5520  178.5010  147.1260 C   0  0  0  0  0  3  0  0  0  0  0  0
  187.9190  175.9010  141.6850 N   0  0  0  0  0  0  0  0  0  0  0  0
  185.0340  177.9770  144.8370 C   0  0  0  0  0  0  0  0  0  0  0  0
  184.1970  178.5810  145.7720 C   0  0  0  0  0  3  0  0  0  0  0  0
  189.7960  174.8690  142.7850 C   0  0  0  0  0  0  0  0  0  0  0  0
  190.3550  174.3900  141.4880 C   0  0  0  0  0  1  0  0  0  0  0  0
  188.8000  175.7320  145.2630 C   0  0  0  0  0  3  0  0  0  0  0  0
  185.7240  177.8290  147.5180 C   0  0  0  0  0  3  0  0  0  0  0  0
  186.2450  177.0450  142.9060 C   0  0  0  0  0  0  0  0  0  0  0  0
  184.8340  177.9290  143.1650 S   0  0  0  0  0  0  0  0  0  0  0  0
  190.4810  174.5710  143.9650 C   0  0  0  0  0  3  0  0  0  0  0  0
  186.5540  177.2270  146.5590 C   0  0  0  0  0  3  0  0  0  0  0  0
  189.9910  175.0040  145.2000 C   0  0  0  0  0  0  0  0  0  0  0  0
  188.5990  175.6060  142.8350 C   0  0  0  0  0  0  0  0  0  0  0  0
  190.7210  174.6640  146.4510 C   0  0  0  0  0  2  0  0  0  0  0  0
  192.2130  174.8600  146.2540 C   0  0  0  0  0  2  0  0  0  0  0  0
  192.5860  176.3160  146.4830 C   0  0  1  0  0  3  0  0  0  0  0  0
  192.0320  176.7710  147.6800 O   0  0  0  0  0  1  0  0  0  0  0  0
  194.0710  176.4630  146.5220 C   0  0  0  0  0  0  0  0  0  0  0  0
  194.8770  175.3490  146.3250 O   0  0  0  0  0  0  0  0  0  0  0  0
  194.5970  177.5830  146.7520 O   0  0  0  0  0  1  0  0  0  0  0  0
  1  4  1  0  0  0  0
  2  1  1  0  0  0  0
  2 11  1  0  0  0  0
  3 13  1  0  0  0  0
  4 16  1  0  0  0  0
  5 12  1  0  0  0  0
  6  3  2  0  0  0  0
  6 18  1  0  0  0  0
  7  4  2  0  0  0  0
  7  8  1  0  0  0  0
  8  5  2  0  0  0  0
  9 18  1  0  0  0  0
  9 15  2  0  0  0  0
 10  9  1  0  0  0  0
 13 14  1  0  0  0  0
 13  1  2  0  0  0  0
 14  7  1  0  0  0  0
 15 17  1  0  0  0  0
 16 12  2  0  0  0  0
 17 11  2  0  0  0  0
 17 19  1  0  0  0  0
 18  2  2  0  0  0  0
 20 19  1  0  0  0  0
 20 21  1  0  0  0  0
 21 23  1  0  0  0  0
 21 22  1  1  0  0  0
 23 25  1  0  0  0  0
 24 23  2  0  0  0  0
M  END
>  <MODEL>
3

>  <REMARK>
 VINA RESULT:      -7.3      3.518      6.044
  Name = 
  4 active torsions:
  status: ('A' for Active; 'I' for Inactive)
    1  A    between atoms: C_2  and  C_21
    2  A    between atoms: C_6  and  C_15
    3  A    between atoms: C_6  and  C_23
    4  A    between atoms: C_15  and  C_21
                            x       y       z     vdW  Elec       q    Type
                         _______ _______ _______ _____ _____    ______ ____

>  <TORSDO>
F 4

$$$$
=
 OpenBabel11052417293D

 25 28  0  0  1  0  0  0  0  0999 V2000
  186.3290  177.7860  143.6070 C   0  0  0  0  0  0  0  0  0  0  0  0
  185.7220  177.8270  142.3390 C   0  0  0  0  0  0  0  0  0  0  0  0
  188.4320  177.1310  142.5880 C   0  0  0  0  0  3  0  0  0  0  0  0
  185.7620  178.0600  144.8670 C   0  0  0  0  0  0  0  0  0  0  0  0
  185.0000  178.5180  147.5160 C   0  0  0  0  0  3  0  0  0  0  0  0
  187.8360  177.1730  141.3640 N   0  0  0  0  0  0  0  0  0  0  0  0
  186.6750  177.9170  145.9100 C   0  0  0  0  0  0  0  0  0  0  0  0
  186.3220  178.1390  147.2380 C   0  0  0  0  0  3  0  0  0  0  0  0
  185.9440  177.5400  139.9210 C   0  0  0  0  0  0  0  0  0  0  0  0
  186.7450  177.2160  138.7060 C   0  0  0  0  0  1  0  0  0  0  0  0
  184.3750  178.1670  142.1610 C   0  0  0  0  0  3  0  0  0  0  0  0
  184.0670  178.6660  146.4750 C   0  0  0  0  0  3  0  0  0  0  0  0
  187.6740  177.4400  143.7090 C   0  0  0  0  0  0  0  0  0  0  0  0
  188.1840  177.4590  145.3160 S   0  0  0  0  0  0  0  0  0  0  0  0
  184.5980  177.8840  139.7690 C   0  0  0  0  0  3  0  0  0  0  0  0
  184.4440  178.4370  145.1420 C   0  0  0  0  0  3  0  0  0  0  0  0
  183.8130  178.1910  140.8830 C   0  0  0  0  0  0  0  0  0  0  0  0
  186.5190  177.5070  141.2040 C   0  0  0  0  0  0  0  0  0  0  0  0
  182.3860  178.5740  140.7050 C   0  0  0  0  0  2  0  0  0  0  0  0
  181.6500  178.4730  142.0290 C   0  0  0  0  0  2  0  0  0  0  0  0
  180.4370  179.3890  142.0270 C   0  0  1  0  0  3  0  0  0  0  0  0
  180.3130  180.0190  140.7880 O   0  0  0  0  0  1  0  0  0  0  0  0
  179.2040  178.6040  142.3230 C   0  0  0  0  0  0  0  0  0  0  0  0
  178.3400  179.0320  143.3220 O   0  0  0  0  0  1  0  0  0  0  0  0
  178.9500  177.5460  141.6890 O   0  0  0  0  0  0  0  0  0  0  0  0
  1 13  2  0  0  0  0
  1  4  1  0  0  0  0
  2  1  1  0  0  0  0
  3 13  1  0  0  0  0
  4 16  2  0  0  0  0
  4  7  1  0  0  0  0
  6  3  2  0  0  0  0
  7  8  2  0  0  0  0
  8  5  1  0  0  0  0
  9 18  1  0  0  0  0
 10  9  1  0  0  0  0
 11  2  1  0  0  0  0
 12  5  2  0  0  0  0
 13 14  1  0  0  0  0
 14  7  1  0  0  0  0
 15  9  2  0  0  0  0
 15 17  1  0  0  0  0
 16 12  1  0  0  0  0
 17 11  2  0  0  0  0
 18  6  1  0  0  0  0
 18  2  2  0  0  0  0
 19 17  1  0  0  0  0
 19 20  1  0  0  0  0
 21 22  1  6  0  0  0
 21 20  1  0  0  0  0
 21 23  1  0  0  0  0
 23 24  1  0  0  0  0
 25 23  2  0  0  0  0
M  END
>  <MODEL>
4

>  <REMARK>
 VINA RESULT:      -7.0      3.504      4.708
  Name = 
  4 active torsions:
  status: ('A' for Active; 'I' for Inactive)
    1  A    between atoms: C_2  and  C_21
    2  A    between atoms: C_6  and  C_15
    3  A    between atoms: C_6  and  C_23
    4  A    between atoms: C_15  and  C_21
                            x       y       z     vdW  Elec       q    Type
                         _______ _______ _______ _____ _____    ______ ____

>  <TORSDO>
F 4

$$$$
=
 OpenBabel11052417293D

 25 28  0  0  1  0  0  0  0  0999 V2000
  186.7540  177.1610  143.0520 C   0  0  0  0  0  0  0  0  0  0  0  0
  186.8820  177.1730  144.4530 C   0  0  0  0  0  0  0  0  0  0  0  0
  185.3020  179.1020  143.1590 C   0  0  0  0  0  3  0  0  0  0  0  0
  187.3320  176.2760  142.1210 C   0  0  0  0  0  0  0  0  0  0  0  0
  188.2880  174.7370  139.9930 C   0  0  0  0  0  3  0  0  0  0  0  0
  185.4310  179.1070  144.5150 N   0  0  0  0  0  0  0  0  0  0  0  0
  186.9800  176.5740  140.8060 C   0  0  0  0  0  0  0  0  0  0  0  0
  187.4410  175.8230  139.7280 C   0  0  0  0  0  3  0  0  0  0  0  0
  186.2990  178.2270  146.5810 C   0  0  0  0  0  0  0  0  0  0  0  0
  185.5950  179.2720  147.3790 C   0  0  0  0  0  1  0  0  0  0  0  0
  187.6570  176.2340  145.1460 C   0  0  0  0  0  3  0  0  0  0  0  0
  188.6530  174.4230  141.3150 C   0  0  0  0  0  3  0  0  0  0  0  0
  185.9670  178.1250  142.4300 C   0  0  0  0  0  0  0  0  0  0  0  0
  185.9620  177.9160  140.7570 S   0  0  0  0  0  0  0  0  0  0  0  0
  187.0790  177.2810  147.2500 C   0  0  0  0  0  3  0  0  0  0  0  0
  188.1760  175.1930  142.3870 C   0  0  0  0  0  3  0  0  0  0  0  0
  187.7510  176.2840  146.5380 C   0  0  0  0  0  0  0  0  0  0  0  0
  186.1910  178.1840  145.1800 C   0  0  0  0  0  0  0  0  0  0  0  0
  188.5950  175.2940  147.2620 C   0  0  0  0  0  2  0  0  0  0  0  0
  189.8270  174.9600  146.4400 C   0  0  0  0  0  2  0  0  0  0  0  0
  190.9540  175.9250  146.7690 C   0  0  1  0  0  3  0  0  0  0  0  0
  191.9290  175.2820  147.5350 O   0  0  0  0  0  1  0  0  0  0  0  0
  191.5620  176.4490  145.5120 C   0  0  0  0  0  0  0  0  0  0  0  0
  190.8950  177.4250  144.7820 O   0  0  0  0  0  0  0  0  0  0  0  0
  192.6630  176.0010  145.0960 O   0  0  0  0  0  1  0  0  0  0  0  0
  1  2  2  0  0  0  0
  2 11  1  0  0  0  0
  2 18  1  0  0  0  0
  3  6  1  0  0  0  0
  4 16  1  0  0  0  0
  4  1  1  0  0  0  0
  5 12  1  0  0  0  0
  6 18  2  0  0  0  0
  7  4  2  0  0  0  0
  8  5  2  0  0  0  0
  8  7  1  0  0  0  0
  9 15  2  0  0  0  0
  9 10  1  0  0  0  0
 11 17  2  0  0  0  0
 12 16  2  0  0  0  0
 13  1  1  0  0  0  0
 13  3  2  0  0  0  0
 14  7  1  0  0  0  0
 14 13  1  0  0  0  0
 17 15  1  0  0  0  0
 17 19  1  0  0  0  0
 18  9  1  0  0  0  0
 20 21  1  0  0  0  0
 20 19  1  0  0  0  0
 21 22  1  6  0  0  0
 23 21  1  0  0  0  0
 24 23  2  0  0  0  0
 25 23  1  0  0  0  0
M  END
>  <MODEL>
5

>  <REMARK>
 VINA RESULT:      -6.8      3.140      5.931
  Name = 
  4 active torsions:
  status: ('A' for Active; 'I' for Inactive)
    1  A    between atoms: C_2  and  C_21
    2  A    between atoms: C_6  and  C_15
    3  A    between atoms: C_6  and  C_23
    4  A    between atoms: C_15  and  C_21
                            x       y       z     vdW  Elec       q    Type
                         _______ _______ _______ _____ _____    ______ ____

>  <TORSDO>
F 4

$$$$
=
 OpenBabel11052417293D

 25 28  0  0  1  0  0  0  0  0999 V2000
  186.4520  177.0790  144.8160 C   0  0  0  0  0  0  0  0  0  0  0  0
  187.6640  176.3640  144.8480 C   0  0  0  0  0  0  0  0  0  0  0  0
  186.4600  177.2160  147.2380 C   0  0  0  0  0  3  0  0  0  0  0  0
  185.6870  177.4690  143.7000 C   0  0  0  0  0  0  0  0  0  0  0  0
  183.9150  178.4060  141.7520 C   0  0  0  0  0  3  0  0  0  0  0  0
  187.6330  176.5240  147.2610 N   0  0  0  0  0  0  0  0  0  0  0  0
  184.5370  178.1700  144.0550 C   0  0  0  0  0  0  0  0  0  0  0  0
  183.6380  178.6480  143.1060 C   0  0  0  0  0  3  0  0  0  0  0  0
  189.4600  175.3830  146.1860 C   0  0  0  0  0  0  0  0  0  0  0  0
  190.1070  175.0820  147.4950 C   0  0  0  0  0  1  0  0  0  0  0  0
  188.3040  175.9170  143.6850 C   0  0  0  0  0  3  0  0  0  0  0  0
  185.0720  177.7000  141.3770 C   0  0  0  0  0  3  0  0  0  0  0  0
  185.8720  177.4920  146.0110 C   0  0  0  0  0  0  0  0  0  0  0  0
  184.4340  178.3270  145.7300 S   0  0  0  0  0  0  0  0  0  0  0  0
  190.0810  174.9490  145.0110 C   0  0  0  0  0  3  0  0  0  0  0  0
  185.9650  177.2270  142.3510 C   0  0  0  0  0  3  0  0  0  0  0  0
  189.5050  175.2080  143.7650 C   0  0  0  0  0  0  0  0  0  0  0  0
  188.2480  176.0920  146.1170 C   0  0  0  0  0  0  0  0  0  0  0  0
  190.1860  174.7570  142.5220 C   0  0  0  0  0  2  0  0  0  0  0  0
  189.1610  174.4900  141.4340 C   0  0  0  0  0  2  0  0  0  0  0  0
  188.8410  173.0060  141.3670 C   0  0  1  0  0  3  0  0  0  0  0  0
  187.5340  172.7770  141.8000 O   0  0  0  0  0  1  0  0  0  0  0  0
  189.0070  172.5090  139.9700 C   0  0  0  0  0  0  0  0  0  0  0  0
  188.0010  172.7280  139.0380 O   0  0  0  0  0  0  0  0  0  0  0  0
  190.0430  171.8760  139.6340 O   0  0  0  0  0  1  0  0  0  0  0  0
  1  2  2  0  0  0  0
  1 13  1  0  0  0  0
  2 18  1  0  0  0  0
  3  6  1  0  0  0  0
  4  7  1  0  0  0  0
  4  1  1  0  0  0  0
  5  8  1  0  0  0  0
  7 14  1  0  0  0  0
  8  7  2  0  0  0  0
  9 10  1  0  0  0  0
 11 17  2  0  0  0  0
 11  2  1  0  0  0  0
 12  5  2  0  0  0  0
 12 16  1  0  0  0  0
 13  3  2  0  0  0  0
 14 13  1  0  0  0  0
 15  9  2  0  0  0  0
 16  4  2  0  0  0  0
 17 15  1  0  0  0  0
 18  9  1  0  0  0  0
 18  6  2  0  0  0  0
 19 17  1  0  0  0  0
 20 19  1  0  0  0  0
 21 20  1  0  0  0  0
 21 22  1  6  0  0  0
 23 21  1  0  0  0  0
 24 23  2  0  0  0  0
 25 23  1  0  0  0  0
M  END
>  <MODEL>
6

>  <REMARK>
 VINA RESULT:      -6.7      3.793      7.011
  Name = 
  4 active torsions:
  status: ('A' for Active; 'I' for Inactive)
    1  A    between atoms: C_2  and  C_21
    2  A    between atoms: C_6  and  C_15
    3  A    between atoms: C_6  and  C_23
    4  A    between atoms: C_15  and  C_21
                            x       y       z     vdW  Elec       q    Type
                         _______ _______ _______ _____ _____    ______ ____

>  <TORSDO>
F 4

$$$$
=
 OpenBabel11052417293D

 25 28  0  0  1  0  0  0  0  0999 V2000
  187.7180  177.5440  144.5250 C   0  0  0  0  0  0  0  0  0  0  0  0
  189.0550  177.2280  144.8260 C   0  0  0  0  0  0  0  0  0  0  0  0
  187.1880  177.5960  146.8920 C   0  0  0  0  0  3  0  0  0  0  0  0
  187.1150  177.7220  143.2640 C   0  0  0  0  0  0  0  0  0  0  0  0
  185.5800  178.1440  140.9680 C   0  0  0  0  0  3  0  0  0  0  0  0
  188.4850  177.2900  147.1760 N   0  0  0  0  0  0  0  0  0  0  0  0
  185.7600  178.0310  143.3550 C   0  0  0  0  0  0  0  0  0  0  0  0
  184.9720  178.2460  142.2270 C   0  0  0  0  0  3  0  0  0  0  0  0
  190.7510  176.7910  146.5330 C   0  0  0  0  0  0  0  0  0  0  0  0
  191.1760  176.6560  147.9550 C   0  0  0  0  0  1  0  0  0  0  0  0
  190.0240  177.0340  143.8330 C   0  0  0  0  0  3  0  0  0  0  0  0
  186.9480  177.8330  140.8590 C   0  0  0  0  0  3  0  0  0  0  0  0
  186.8080  177.7230  145.5630 C   0  0  0  0  0  0  0  0  0  0  0  0
  185.2750  178.0930  144.9670 S   0  0  0  0  0  0  0  0  0  0  0  0
  191.7000  176.6040  145.5250 C   0  0  0  0  0  3  0  0  0  0  0  0
  187.7230  177.6200  142.0090 C   0  0  0  0  0  3  0  0  0  0  0  0
  191.3400  176.7190  144.1800 C   0  0  0  0  0  0  0  0  0  0  0  0
  189.4220  177.1030  146.1960 C   0  0  0  0  0  0  0  0  0  0  0  0
  192.3650  176.5360  143.1170 C   0  0  0  0  0  2  0  0  0  0  0  0
  193.3210  175.4220  143.5010 C   0  0  0  0  0  2  0  0  0  0  0  0
  194.6950  175.6800  142.9050 C   0  0  1  0  0  3  0  0  0  0  0  0
  194.5770  176.4250  141.7300 O   0  0  0  0  0  1  0  0  0  0  0  0
  195.5490  176.4110  143.8860 C   0  0  0  0  0  0  0  0  0  0  0  0
  196.7370  176.9920  143.4640 O   0  0  0  0  0  0  0  0  0  0  0  0
  195.2100  176.4890  145.0970 O   0  0  0  0  0  1  0  0  0  0  0  0
  1  2  2  0  0  0  0
  1 13  1  0  0  0  0
  2 18  1  0  0  0  0
  3  6  1  0  0  0  0
  4  7  1  0  0  0  0
  4  1  1  0  0  0  0
  5  8  1  0  0  0  0
  7 14  1  0  0  0  0
  8  7  2  0  0  0  0
  9 10  1  0  0  0  0
 11 17  2  0  0  0  0
 11  2  1  0  0  0  0
 12  5  2  0  0  0  0
 12 16  1  0  0  0  0
 13  3  2  0  0  0  0
 14 13  1  0  0  0  0
 15  9  2  0  0  0  0
 16  4  2  0  0  0  0
 17 15  1  0  0  0  0
 18  9  1  0  0  0  0
 18  6  2  0  0  0  0
 19 20  1  0  0  0  0
 19 17  1  0  0  0  0
 21 22  1  6  0  0  0
 21 20  1  0  0  0  0
 21 23  1  0  0  0  0
 23 25  1  0  0  0  0
 24 23  2  0  0  0  0
M  END
>  <MODEL>
7

>  <REMARK>
 VINA RESULT:      -6.7      4.882      7.584
  Name = 
  4 active torsions:
  status: ('A' for Active; 'I' for Inactive)
    1  A    between atoms: C_2  and  C_21
    2  A    between atoms: C_6  and  C_15
    3  A    between atoms: C_6  and  C_23
    4  A    between atoms: C_15  and  C_21
                            x       y       z     vdW  Elec       q    Type
                         _______ _______ _______ _____ _____    ______ ____

>  <TORSDO>
F 4

$$$$
=
 OpenBabel11052417293D

 25 28  0  0  1  0  0  0  0  0999 V2000
  186.8050  177.7730  144.7440 C   0  0  0  0  0  0  0  0  0  0  0  0
  188.1620  177.4250  144.8780 C   0  0  0  0  0  0  0  0  0  0  0  0
  186.6170  177.9970  147.1530 C   0  0  0  0  0  3  0  0  0  0  0  0
  186.0360  177.8940  143.5710 C   0  0  0  0  0  0  0  0  0  0  0  0
  184.2060  178.2290  141.4860 C   0  0  0  0  0  3  0  0  0  0  0  0
  187.9310  177.6590  147.2740 N   0  0  0  0  0  0  0  0  0  0  0  0
  184.7170  178.2610  143.8280 C   0  0  0  0  0  0  0  0  0  0  0  0
  183.7850  178.4340  142.8080 C   0  0  0  0  0  3  0  0  0  0  0  0
  190.0680  177.0320  146.3580 C   0  0  0  0  0  0  0  0  0  0  0  0
  190.6860  176.9720  147.7130 C   0  0  0  0  0  1  0  0  0  0  0  0
  188.9740  177.1310  143.7750 C   0  0  0  0  0  3  0  0  0  0  0  0
  185.5340  177.8580  141.2100 C   0  0  0  0  0  3  0  0  0  0  0  0
  186.0570  178.0540  145.8840 C   0  0  0  0  0  0  0  0  0  0  0  0
  184.4670  178.4450  145.4830 S   0  0  0  0  0  0  0  0  0  0  0  0
  190.8590  176.7440  145.2430 C   0  0  0  0  0  3  0  0  0  0  0  0
  186.4570  177.6880  142.2530 C   0  0  0  0  0  3  0  0  0  0  0  0
  190.3160  176.7870  143.9560 C   0  0  0  0  0  0  0  0  0  0  0  0
  188.7150  177.3740  146.1890 C   0  0  0  0  0  0  0  0  0  0  0  0
  191.1740  176.4960  142.7760 C   0  0  0  0  0  2  0  0  0  0  0  0
  191.3870  174.9990  142.6420 C   0  0  0  0  0  2  0  0  0  0  0  0
  190.3280  174.3980  141.7320 C   0  0  1  0  0  3  0  0  0  0  0  0
  190.9330  173.6640  140.7100 O   0  0  0  0  0  1  0  0  0  0  0  0
  189.4180  173.5160  142.5210 C   0  0  0  0  0  0  0  0  0  0  0  0
  188.3200  172.9340  141.9020 O   0  0  0  0  0  0  0  0  0  0  0  0
  189.6270  173.3120  143.7460 O   0  0  0  0  0  1  0  0  0  0  0  0
  1  2  2  0  0  0  0
  1 13  1  0  0  0  0
  2 18  1  0  0  0  0
  3  6  1  0  0  0  0
  4  7  1  0  0  0  0
  4  1  1  0  0  0  0
  5  8  1  0  0  0  0
  7 14  1  0  0  0  0
  8  7  2  0  0  0  0
  9 10  1  0  0  0  0
 11 17  2  0  0  0  0
 11  2  1  0  0  0  0
 12  5  2  0  0  0  0
 12 16  1  0  0  0  0
 13  3  2  0  0  0  0
 14 13  1  0  0  0  0
 15  9  2  0  0  0  0
 16  4  2  0  0  0  0
 17 15  1  0  0  0  0
 18  9  1  0  0  0  0
 18  6  2  0  0  0  0
 19 17  1  0  0  0  0
 20 19  1  0  0  0  0
 21 22  1  6  0  0  0
 21 23  1  0  0  0  0
 21 20  1  0  0  0  0
 23 25  1  0  0  0  0
 24 23  2  0  0  0  0
M  END
>  <MODEL>
8

>  <REMARK>
 VINA RESULT:      -6.7      3.651      6.766
  Name = 
  4 active torsions:
  status: ('A' for Active; 'I' for Inactive)
    1  A    between atoms: C_2  and  C_21
    2  A    between atoms: C_6  and  C_15
    3  A    between atoms: C_6  and  C_23
    4  A    between atoms: C_15  and  C_21
                            x       y       z     vdW  Elec       q    Type
                         _______ _______ _______ _____ _____    ______ ____

>  <TORSDO>
F 4

$$$$
=
 OpenBabel11052417293D

 25 28  0  0  1  0  0  0  0  0999 V2000
  185.9770  177.4680  143.7630 C   0  0  0  0  0  0  0  0  0  0  0  0
  186.7730  176.7650  142.8390 C   0  0  0  0  0  0  0  0  0  0  0  0
  184.7320  178.4720  141.9380 C   0  0  0  0  0  3  0  0  0  0  0  0
  186.0370  177.4540  145.1700 C   0  0  0  0  0  0  0  0  0  0  0  0
  185.8510  177.6880  147.9480 C   0  0  0  0  0  3  0  0  0  0  0  0
  185.5060  177.7880  141.0510 N   0  0  0  0  0  0  0  0  0  0  0  0
  185.0820  178.2810  145.7570 C   0  0  0  0  0  0  0  0  0  0  0  0
  184.9680  178.4170  147.1380 C   0  0  0  0  0  3  0  0  0  0  0  0
  187.2840  176.2600  140.5020 C   0  0  0  0  0  0  0  0  0  0  0  0
  187.0380  176.4210  139.0400 C   0  0  0  0  0  1  0  0  0  0  0  0
  187.8020  175.9030  143.2370 C   0  0  0  0  0  3  0  0  0  0  0  0
  186.8210  176.8490  147.3710 C   0  0  0  0  0  3  0  0  0  0  0  0
  184.9700  178.3080  143.2960 C   0  0  0  0  0  0  0  0  0  0  0  0
  184.1510  179.0400  144.5750 S   0  0  0  0  0  0  0  0  0  0  0  0
  188.3050  175.4040  140.9230 C   0  0  0  0  0  3  0  0  0  0  0  0
  186.9190  176.7280  145.9760 C   0  0  0  0  0  3  0  0  0  0  0  0
  188.5690  175.2290  142.2840 C   0  0  0  0  0  0  0  0  0  0  0  0
  186.5100  176.9490  141.4520 C   0  0  0  0  0  0  0  0  0  0  0  0
  189.6470  174.2990  142.7190 C   0  0  0  0  0  2  0  0  0  0  0  0
  189.7750  174.3220  144.2320 C   0  0  0  0  0  2  0  0  0  0  0  0
  191.1790  174.7420  144.6330 C   0  0  1  0  0  3  0  0  0  0  0  0
  192.1070  174.2670  143.7040 O   0  0  0  0  0  1  0  0  0  0  0  0
  191.2630  176.2290  144.7210 C   0  0  0  0  0  0  0  0  0  0  0  0
  190.4580  176.9100  145.6240 O   0  0  0  0  0  1  0  0  0  0  0  0
  192.0430  176.8720  143.9700 O   0  0  0  0  0  0  0  0  0  0  0  0
  1  4  1  0  0  0  0
  2 11  1  0  0  0  0
  2  1  1  0  0  0  0
  3 13  1  0  0  0  0
  4  7  2  0  0  0  0
  4 16  1  0  0  0  0
  6 18  1  0  0  0  0
  6  3  2  0  0  0  0
  7  8  1  0  0  0  0
  8  5  2  0  0  0  0
  9 15  2  0  0  0  0
  9 18  1  0  0  0  0
 10  9  1  0  0  0  0
 12  5  1  0  0  0  0
 13  1  2  0  0  0  0
 13 14  1  0  0  0  0
 14  7  1  0  0  0  0
 15 17  1  0  0  0  0
 16 12  2  0  0  0  0
 17 19  1  0  0  0  0
 17 11  2  0  0  0  0
 18  2  2  0  0  0  0
 19 20  1  0  0  0  0
 20 21  1  0  0  0  0
 21 22  1  6  0  0  0
 21 23  1  0  0  0  0
 23 24  1  0  0  0  0
 25 23  2  0  0  0  0
M  END
>  <MODEL>
9

>  <REMARK>
 VINA RESULT:      -6.6      3.201      5.262
  Name = 
  4 active torsions:
  status: ('A' for Active; 'I' for Inactive)
    1  A    between atoms: C_2  and  C_21
    2  A    between atoms: C_6  and  C_15
    3  A    between atoms: C_6  and  C_23
    4  A    between atoms: C_15  and  C_21
                            x       y       z     vdW  Elec       q    Type
                         _______ _______ _______ _____ _____    ______ ____

>  <TORSDO>
F 4

$$$$
