=
 OpenBabel11052420333D

 34 39  0  0  1  0  0  0  0  0999 V2000
  190.1050  173.9570  143.3400 C   0  0  1  0  0  3  0  0  0  0  0  0
  193.8470  174.6020  143.6150 C   0  0  0  0  0  2  0  0  0  0  0  0
  192.5570  173.6500  141.7960 C   0  0  0  0  0  2  0  0  0  0  0  0
  188.4410  175.1280  141.9520 C   0  0  2  0  0  3  0  0  0  0  0  0
  188.9410  174.9510  143.3820 C   0  0  0  0  0  2  0  0  0  0  0  0
  189.1760  172.2150  141.9910 O   0  0  0  0  0  0  0  0  0  0  0  0
  189.9840  171.0590  142.0490 C   0  0  0  0  0  2  0  0  0  0  0  0
  189.4360  174.4240  141.0550 C   0  0  2  0  0  3  0  0  0  0  0  0
  188.7580  173.8860  139.8030 C   0  0  0  0  0  1  0  0  0  0  0  0
  191.3540  172.8430  141.3540 C   0  0  2  0  0  3  0  0  0  0  0  0
  190.0400  173.3310  141.9270 C   0  0  1  0  0  0  0  0  0  0  0  0
  191.4300  171.4180  141.7940 C   0  0  0  0  0  2  0  0  0  0  0  0
  194.2090  174.4530  145.0870 C   0  0  0  0  0  2  0  0  0  0  0  0
  193.5960  175.5510  145.9640 C   0  0  2  0  0  3  0  0  0  0  0  0
  192.1750  175.9680  145.5810 C   0  0  0  0  0  2  0  0  0  0  0  0
  192.5430  173.8710  143.2960 C   0  0  2  0  0  3  0  0  0  0  0  0
  191.3280  174.7880  145.1320 C   0  0  0  0  0  2  0  0  0  0  0  0
  191.3570  174.6650  143.6730 N   0  0  2  0  0  0  0  0  0  0  0  0
  188.6520  177.8630  143.6710 C   0  0  0  0  0  3  0  0  0  0  0  0
  186.7820  176.9370  141.2560 C   0  0  0  0  0  3  0  0  0  0  0  0
  185.0680  177.6280  145.8090 C   0  0  0  0  0  0  0  0  0  0  0  0
  186.3250  177.7990  146.4690 N   0  0  0  0  0  0  0  0  0  0  0  0
  187.4970  178.2470  145.7240 C   0  0  0  0  0  2  0  0  0  0  0  0
  183.9980  177.5290  146.4700 O   0  0  0  0  0  0  0  0  0  0  0  0
  187.4590  177.8420  144.2730 C   0  0  1  0  0  3  0  0  0  0  0  0
  186.4020  177.7770  147.9200 C   0  0  0  0  0  1  0  0  0  0  0  0
  186.1370  177.5800  143.6090 C   0  0  0  0  0  0  0  0  0  0  0  0
  185.9100  177.3560  142.1700 C   0  0  0  0  0  3  0  0  0  0  0  0
  185.0310  177.5210  144.3520 C   0  0  0  0  0  2  0  0  0  0  0  0
  188.2030  176.5830  141.5190 C   0  0  0  0  0  0  0  0  0  0  0  0
  188.9670  177.6950  142.2200 C   0  0  0  0  0  3  0  0  0  0  0  0
  194.4880  176.7460  146.0150 C   0  0  0  0  0  0  0  0  0  0  0  0
  194.4780  177.4890  147.0310 O   0  0  0  0  0  1  0  0  0  0  0  0
  195.3350  177.0390  144.9540 O   0  0  0  0  0  0  0  0  0  0  0  0
  1  5  1  6  0  0  0
  1 18  1  0  0  0  0
  2 13  1  0  0  0  0
  4 30  1  6  0  0  0
  4  5  1  0  0  0  0
  6  7  1  0  0  0  0
  8  9  1  6  0  0  0
  8 11  1  0  0  0  0
  8  4  1  0  0  0  0
 10 12  1  1  0  0  0
 10  3  1  0  0  0  0
 10 11  1  0  0  0  0
 11  6  1  1  0  0  0
 11  1  1  0  0  0  0
 12  7  1  0  0  0  0
 13 14  1  0  0  0  0
 14 32  1  6  0  0  0
 15 14  1  0  0  0  0
 16  3  1  6  0  0  0
 16  2  1  0  0  0  0
 16 18  1  0  0  0  0
 17 15  1  0  0  0  0
 18 17  1  1  0  0  0
 20 30  2  3  0  0  0
 20 28  1  0  0  0  0
 21 22  1  0  0  0  0
 21 24  2  0  0  0  0
 22 26  1  0  0  0  0
 23 22  1  0  0  0  0
 25 19  1  6  0  0  0
 25 23  1  0  0  0  0
 27 25  1  0  0  0  0
 27 29  1  0  0  0  0
 28 27  2  0  0  0  0
 29 21  1  0  0  0  0
 30 31  1  0  0  0  0
 31 19  2  0  0  0  0
 32 33  1  0  0  0  0
 34 32  2  0  0  0  0
M  END
>  <MODEL>
1

>  <REMARK>
 VINA RESULT:      -8.5      0.000      0.000
  Name = 
  2 active torsions:
  status: ('A' for Active; 'I' for Inactive)
    1  A    between atoms: C_3  and  C_25
    2  A    between atoms: C_8  and  C_30
                            x       y       z     vdW  Elec       q    Type
                         _______ _______ _______ _____ _____    ______ ____

>  <TORSDO>
F 2

$$$$
=
 OpenBabel11052420333D

 34 39  0  0  1  0  0  0  0  0999 V2000
  191.7620  174.5420  145.6160 C   0  0  1  0  0  3  0  0  0  0  0  0
  189.7060  175.1190  142.4630 C   0  0  0  0  0  2  0  0  0  0  0  0
  190.7720  176.7150  143.9460 C   0  0  0  0  0  2  0  0  0  0  0  0
  194.1830  174.8430  145.9480 C   0  0  2  0  0  3  0  0  0  0  0  0
  193.0870  173.7950  145.7890 C   0  0  0  0  0  2  0  0  0  0  0  0
  191.8870  176.1260  147.4010 O   0  0  0  0  0  0  0  0  0  0  0  0
  190.6350  176.7460  147.6040 C   0  0  0  0  0  2  0  0  0  0  0  0
  193.5470  176.1840  145.6510 C   0  0  2  0  0  3  0  0  0  0  0  0
  194.2240  177.2980  146.4380 C   0  0  0  0  0  1  0  0  0  0  0  0
  191.2250  177.0690  145.3470 C   0  0  2  0  0  3  0  0  0  0  0  0
  192.0780  176.0040  146.0070 C   0  0  1  0  0  0  0  0  0  0  0  0
  190.0800  177.2450  146.2890 C   0  0  0  0  0  2  0  0  0  0  0  0
  188.6940  173.9840  142.3880 C   0  0  0  0  0  2  0  0  0  0  0  0
  189.3480  172.6200  142.1380 C   0  0  2  0  0  3  0  0  0  0  0  0
  190.6730  172.3930  142.8680 C   0  0  0  0  0  2  0  0  0  0  0  0
  190.2110  175.3070  143.8940 C   0  0  2  0  0  3  0  0  0  0  0  0
  190.6750  172.9960  144.2630 C   0  0  0  0  0  2  0  0  0  0  0  0
  191.2680  174.3360  144.2390 N   0  0  2  0  0  0  0  0  0  0  0  0
  194.7270  172.6790  143.6040 C   0  0  0  0  0  3  0  0  0  0  0  0
  196.5870  173.9950  145.8380 C   0  0  0  0  0  3  0  0  0  0  0  0
  195.3020  169.2530  145.9310 C   0  0  0  0  0  0  0  0  0  0  0  0
  194.3380  169.2890  144.8760 N   0  0  0  0  0  0  0  0  0  0  0  0
  194.4000  170.3270  143.8510 C   0  0  0  0  0  2  0  0  0  0  0  0
  195.4430  168.2220  146.6430 O   0  0  0  0  0  0  0  0  0  0  0  0
  195.0160  171.6080  144.3510 C   0  0  1  0  0  3  0  0  0  0  0  0
  193.4410  168.1660  144.6600 C   0  0  0  0  0  1  0  0  0  0  0  0
  195.9650  171.5710  145.5150 C   0  0  0  0  0  0  0  0  0  0  0  0
  196.7870  172.6910  146.0100 C   0  0  0  0  0  3  0  0  0  0  0  0
  196.1020  170.4430  146.2130 C   0  0  0  0  0  2  0  0  0  0  0  0
  195.4440  174.6030  145.1050 C   0  0  0  0  0  0  0  0  0  0  0  0
  195.2940  174.0580  143.6930 C   0  0  0  0  0  3  0  0  0  0  0  0
  189.5150  172.3740  140.6760 C   0  0  0  0  0  0  0  0  0  0  0  0
  190.5980  171.9030  140.2420 O   0  0  0  0  0  1  0  0  0  0  0  0
  188.4800  172.6530  139.7910 O   0  0  0  0  0  0  0  0  0  0  0  0
  1  5  1  6  0  0  0
  1 11  1  0  0  0  0
  4 30  1  6  0  0  0
  5  4  1  0  0  0  0
  6  7  1  0  0  0  0
  8  4  1  0  0  0  0
  8 11  1  0  0  0  0
  8  9  1  1  0  0  0
 10  3  1  6  0  0  0
 10 11  1  0  0  0  0
 10 12  1  0  0  0  0
 11  6  1  1  0  0  0
 12  7  1  0  0  0  0
 13  2  1  0  0  0  0
 14 32  1  6  0  0  0
 14 13  1  0  0  0  0
 14 15  1  0  0  0  0
 15 17  1  0  0  0  0
 16  2  1  6  0  0  0
 16  3  1  0  0  0  0
 16 18  1  0  0  0  0
 18 17  1  1  0  0  0
 18  1  1  0  0  0  0
 19 31  2  0  0  0  0
 20 28  1  0  0  0  0
 21 29  1  0  0  0  0
 21 24  2  0  0  0  0
 22 21  1  0  0  0  0
 23 25  1  0  0  0  0
 23 22  1  0  0  0  0
 25 19  1  6  0  0  0
 25 27  1  0  0  0  0
 26 22  1  0  0  0  0
 27 28  2  0  0  0  0
 27 29  1  0  0  0  0
 30 20  2  3  0  0  0
 31 30  1  0  0  0  0
 33 32  1  0  0  0  0
 34 32  2  0  0  0  0
M  END
>  <MODEL>
2

>  <REMARK>
 VINA RESULT:      -8.4      3.154      8.618
  Name = 
  2 active torsions:
  status: ('A' for Active; 'I' for Inactive)
    1  A    between atoms: C_3  and  C_25
    2  A    between atoms: C_8  and  C_30
                            x       y       z     vdW  Elec       q    Type
                         _______ _______ _______ _____ _____    ______ ____

>  <TORSDO>
F 2

$$$$
=
 OpenBabel11052420333D

 34 39  0  0  1  0  0  0  0  0999 V2000
  193.2720  175.5090  143.2980 C   0  0  1  0  0  3  0  0  0  0  0  0
  193.6060  171.7670  142.6790 C   0  0  0  0  0  2  0  0  0  0  0  0
  194.5810  173.1560  144.4110 C   0  0  0  0  0  2  0  0  0  0  0  0
  192.0610  176.6660  145.1040 C   0  0  2  0  0  3  0  0  0  0  0  0
  192.0210  176.3350  143.6160 C   0  0  0  0  0  2  0  0  0  0  0  0
  194.9690  176.8130  144.3620 O   0  0  0  0  0  0  0  0  0  0  0  0
  196.2520  176.3820  143.9600 C   0  0  0  0  0  2  0  0  0  0  0  0
  193.1980  175.8620  145.6970 C   0  0  2  0  0  3  0  0  0  0  0  0
  193.8160  176.5840  146.8870 C   0  0  0  0  0  1  0  0  0  0  0  0
  195.1170  174.5100  144.8280 C   0  0  2  0  0  3  0  0  0  0  0  0
  194.1730  175.6610  144.5450 C   0  0  1  0  0  0  0  0  0  0  0  0
  196.3630  174.8800  144.0940 C   0  0  0  0  0  2  0  0  0  0  0  0
  193.4930  171.5620  141.1740 C   0  0  0  0  0  2  0  0  0  0  0  0
  192.0950  171.8870  140.6320 C   0  0  2  0  0  3  0  0  0  0  0  0
  191.4160  173.0970  141.2760 C   0  0  0  0  0  2  0  0  0  0  0  0
  194.0150  173.2040  143.0050 C   0  0  2  0  0  3  0  0  0  0  0  0
  192.3970  174.2190  141.5750 C   0  0  0  0  0  2  0  0  0  0  0  0
  192.8670  174.1300  142.9600 N   0  0  2  0  0  0  0  0  0  0  0  0
  189.6470  174.6000  144.4890 C   0  0  0  0  0  3  0  0  0  0  0  0
  189.7460  177.5410  145.7260 C   0  0  0  0  0  3  0  0  0  0  0  0
  187.8050  176.5980  141.3120 C   0  0  0  0  0  0  0  0  0  0  0  0
  188.2250  175.2360  141.1980 N   0  0  0  0  0  0  0  0  0  0  0  0
  188.5160  174.4490  142.3920 C   0  0  0  0  0  2  0  0  0  0  0  0
  187.2780  177.1960  140.3340 O   0  0  0  0  0  0  0  0  0  0  0  0
  188.9970  175.2900  143.5460 C   0  0  0  0  0  0  0  0  0  0  0  0
  188.1300  174.5410  139.9250 C   0  0  0  0  0  1  0  0  0  0  0  0
  188.6200  176.7430  143.6140 C   0  0  0  0  0  0  0  0  0  0  0  0
  188.8490  177.6540  144.7500 C   0  0  0  0  0  3  0  0  0  0  0  0
  188.0320  177.3170  142.5630 C   0  0  0  0  0  2  0  0  0  0  0  0
  190.7420  176.4430  145.8590 C   0  0  0  0  0  0  0  0  0  0  0  0
  190.1040  175.0630  145.8340 C   0  0  0  0  0  2  0  0  0  0  0  0
  191.2060  170.6910  140.7160 C   0  0  0  0  0  0  0  0  0  0  0  0
  191.1550  169.8830  139.7530 O   0  0  0  0  0  0  0  0  0  0  0  0
  190.4410  170.4590  141.8530 O   0  0  0  0  0  1  0  0  0  0  0  0
  1  5  1  1  0  0  0
  1 11  1  0  0  0  0
  3 10  1  0  0  0  0
  4  8  1  0  0  0  0
  4 30  1  1  0  0  0
  5  4  1  0  0  0  0
  7 12  1  0  0  0  0
  7  6  1  0  0  0  0
  8  9  1  1  0  0  0
 10 12  1  6  0  0  0
 11  6  1  6  0  0  0
 11 10  1  0  0  0  0
 11  8  1  0  0  0  0
 13  2  1  0  0  0  0
 14 32  1  1  0  0  0
 14 13  1  0  0  0  0
 14 15  1  0  0  0  0
 15 17  1  0  0  0  0
 16  2  1  1  0  0  0
 16  3  1  0  0  0  0
 18 17  1  6  0  0  0
 18 16  1  0  0  0  0
 18  1  1  0  0  0  0
 19 31  1  0  0  0  0
 20 30  2  3  0  0  0
 21 29  1  0  0  0  0
 22 21  1  0  0  0  0
 22 23  1  0  0  0  0
 23 25  1  0  0  0  0
 24 21  2  0  0  0  0
 25 27  1  0  0  0  0
 25 19  2  0  0  0  0
 26 22  1  0  0  0  0
 27 28  2  0  0  0  0
 28 20  1  0  0  0  0
 29 27  1  0  0  0  0
 31 30  1  0  0  0  0
 32 34  1  0  0  0  0
 33 32  2  0  0  0  0
M  END
>  <MODEL>
3

>  <REMARK>
 VINA RESULT:      -8.3      2.353      5.848
  Name = 
  2 active torsions:
  status: ('A' for Active; 'I' for Inactive)
    1  A    between atoms: C_3  and  C_25
    2  A    between atoms: C_8  and  C_30
                            x       y       z     vdW  Elec       q    Type
                         _______ _______ _______ _____ _____    ______ ____

>  <TORSDO>
F 2

$$$$
=
 OpenBabel11052420333D

 34 39  0  0  1  0  0  0  0  0999 V2000
  194.2720  173.7550  143.5750 C   0  0  1  0  0  3  0  0  0  0  0  0
  196.7620  172.3150  146.0700 C   0  0  0  0  0  2  0  0  0  0  0  0
  196.0130  174.6000  145.7540 C   0  0  0  0  0  2  0  0  0  0  0  0
  192.0070  174.6260  143.9930 C   0  0  2  0  0  3  0  0  0  0  0  0
  192.7810  173.4510  143.4040 C   0  0  0  0  0  2  0  0  0  0  0  0
  194.3810  176.0030  142.7710 O   0  0  0  0  0  0  0  0  0  0  0  0
  195.7230  176.3970  142.5780 C   0  0  0  0  0  2  0  0  0  0  0  0
  193.0190  175.5020  144.6980 C   0  0  2  0  0  3  0  0  0  0  0  0
  192.5900  176.9630  144.6760 C   0  0  0  0  0  1  0  0  0  0  0  0
  195.5140  175.6730  144.8090 C   0  0  2  0  0  3  0  0  0  0  0  0
  194.3300  175.2500  143.9650 C   0  0  1  0  0  0  0  0  0  0  0  0
  196.5450  176.0720  143.8050 C   0  0  0  0  0  2  0  0  0  0  0  0
  197.4220  171.1240  145.3900 C   0  0  0  0  0  2  0  0  0  0  0  0
  196.4510  169.9620  145.1500 C   0  0  2  0  0  3  0  0  0  0  0  0
  195.0390  170.3740  144.7310 C   0  0  0  0  0  2  0  0  0  0  0  0
  196.1640  173.2720  145.0370 C   0  0  2  0  0  3  0  0  0  0  0  0
  195.0400  171.5730  143.7970 C   0  0  0  0  0  2  0  0  0  0  0  0
  194.8480  172.8120  144.5550 N   0  0  2  0  0  0  0  0  0  0  0  0
  188.9350  173.9280  143.2500 C   0  0  0  0  0  3  0  0  0  0  0  0
  190.3100  175.3480  145.7560 C   0  0  0  0  0  3  0  0  0  0  0  0
  187.4850  177.7880  142.5600 C   0  0  0  0  0  0  0  0  0  0  0  0
  187.3470  176.7500  141.5860 N   0  0  0  0  0  0  0  0  0  0  0  0
  187.5110  175.3510  141.9670 C   0  0  0  0  0  2  0  0  0  0  0  0
  187.0680  178.9550  142.3260 O   0  0  0  0  0  0  0  0  0  0  0  0
  188.4450  175.1670  143.1340 C   0  0  0  0  0  0  0  0  0  0  0  0
  186.8010  177.0440  140.2710 C   0  0  0  0  0  1  0  0  0  0  0  0
  188.6490  176.2930  144.1080 C   0  0  0  0  0  0  0  0  0  0  0  0
  189.3760  176.2220  145.3880 C   0  0  0  0  0  3  0  0  0  0  0  0
  188.1570  177.5000  143.8260 C   0  0  0  0  0  2  0  0  0  0  0  0
  190.8360  174.2430  144.9100 C   0  0  0  0  0  0  0  0  0  0  0  0
  189.7380  173.3430  144.3660 C   0  0  0  0  0  2  0  0  0  0  0  0
  196.3950  169.0660  146.3420 C   0  0  0  0  0  0  0  0  0  0  0  0
  195.2800  168.7380  146.8240 O   0  0  0  0  0  0  0  0  0  0  0  0
  197.5640  168.5840  146.9170 O   0  0  0  0  0  1  0  0  0  0  0  0
  1  5  1  1  0  0  0
  1 11  1  0  0  0  0
  1 18  1  0  0  0  0
  4  8  1  0  0  0  0
  4 30  1  1  0  0  0
  5  4  1  0  0  0  0
  7  6  1  0  0  0  0
  7 12  1  0  0  0  0
  8  9  1  6  0  0  0
 10 12  1  6  0  0  0
 10  3  1  0  0  0  0
 11  6  1  6  0  0  0
 11  8  1  0  0  0  0
 11 10  1  0  0  0  0
 13  2  1  0  0  0  0
 14 13  1  0  0  0  0
 14 32  1  1  0  0  0
 15 14  1  0  0  0  0
 16  3  1  1  0  0  0
 16  2  1  0  0  0  0
 17 15  1  0  0  0  0
 18 17  1  6  0  0  0
 18 16  1  0  0  0  0
 19 31  1  0  0  0  0
 21 29  1  0  0  0  0
 22 23  1  0  0  0  0
 22 21  1  0  0  0  0
 23 25  1  0  0  0  0
 24 21  2  0  0  0  0
 25 19  2  0  0  0  0
 25 27  1  0  0  0  0
 26 22  1  0  0  0  0
 27 28  2  0  0  0  0
 28 20  1  0  0  0  0
 29 27  1  0  0  0  0
 30 20  2  3  0  0  0
 31 30  1  0  0  0  0
 32 33  2  0  0  0  0
 32 34  1  0  0  0  0
M  END
>  <MODEL>
4

>  <REMARK>
 VINA RESULT:      -8.2      3.456      5.631
  Name = 
  2 active torsions:
  status: ('A' for Active; 'I' for Inactive)
    1  A    between atoms: C_3  and  C_25
    2  A    between atoms: C_8  and  C_30
                            x       y       z     vdW  Elec       q    Type
                         _______ _______ _______ _____ _____    ______ ____

>  <TORSDO>
F 2

$$$$
=
 OpenBabel11052420333D

 34 39  0  0  1  0  0  0  0  0999 V2000
  189.3520  175.2510  144.6250 C   0  0  1  0  0  3  0  0  0  0  0  0
  186.6880  177.8020  143.6840 C   0  0  0  0  0  2  0  0  0  0  0  0
  188.0110  177.6010  145.7060 C   0  0  0  0  0  2  0  0  0  0  0  0
  191.7860  175.5720  144.8230 C   0  0  2  0  0  3  0  0  0  0  0  0
  190.6960  174.9550  143.9530 C   0  0  0  0  0  2  0  0  0  0  0  0
  189.8180  174.6220  146.8840 O   0  0  0  0  0  0  0  0  0  0  0  0
  188.6250  174.5500  147.6350 C   0  0  0  0  0  2  0  0  0  0  0  0
  191.0830  176.4080  145.8710 C   0  0  2  0  0  3  0  0  0  0  0  0
  191.8900  176.4610  147.1610 C   0  0  0  0  0  1  0  0  0  0  0  0
  188.7360  176.7040  146.6880 C   0  0  2  0  0  3  0  0  0  0  0  0
  189.7200  175.7510  146.0420 C   0  0  1  0  0  0  0  0  0  0  0  0
  187.8050  175.8050  147.4330 C   0  0  0  0  0  2  0  0  0  0  0  0
  185.6980  177.0850  142.7760 C   0  0  0  0  0  2  0  0  0  0  0  0
  186.3060  176.6950  141.4230 C   0  0  2  0  0  3  0  0  0  0  0  0
  187.7560  176.2100  141.4810 C   0  0  0  0  0  2  0  0  0  0  0  0
  187.4720  176.8020  144.5350 C   0  0  2  0  0  3  0  0  0  0  0  0
  188.0350  175.3670  142.7150 C   0  0  0  0  0  2  0  0  0  0  0  0
  188.5910  176.1980  143.7860 N   0  0  2  0  0  0  0  0  0  0  0  0
  193.8830  174.6070  142.5550 C   0  0  0  0  0  3  0  0  0  0  0  0
  194.0270  176.7930  144.8760 C   0  0  0  0  0  3  0  0  0  0  0  0
  196.6860  172.6620  144.9720 C   0  0  0  0  0  0  0  0  0  0  0  0
  196.0720  172.0060  143.8590 N   0  0  0  0  0  0  0  0  0  0  0  0
  195.3990  172.7820  142.8220 C   0  0  0  0  0  2  0  0  0  0  0  0
  197.5080  172.0520  145.7090 O   0  0  0  0  0  0  0  0  0  0  0  0
  194.8320  174.0790  143.3360 C   0  0  1  0  0  3  0  0  0  0  0  0
  196.3200  170.5960  143.6080 C   0  0  0  0  0  1  0  0  0  0  0  0
  195.4290  174.7190  144.5570 C   0  0  0  0  0  0  0  0  0  0  0  0
  195.1190  176.0620  145.0820 C   0  0  0  0  0  3  0  0  0  0  0  0
  196.3210  174.0420  145.2820 C   0  0  0  0  0  2  0  0  0  0  0  0
  192.8520  176.3760  144.0630 C   0  0  0  0  0  0  0  0  0  0  0  0
  193.2330  175.9480  142.6540 C   0  0  0  0  0  3  0  0  0  0  0  0
  186.1750  177.8120  140.4430 C   0  0  0  0  0  0  0  0  0  0  0  0
  185.2660  178.6700  140.5930 O   0  0  0  0  0  1  0  0  0  0  0  0
  187.0530  177.9170  139.3720 O   0  0  0  0  0  0  0  0  0  0  0  0
  1  5  1  6  0  0  0
  1 11  1  0  0  0  0
  4 30  1  6  0  0  0
  4  8  1  0  0  0  0
  5  4  1  0  0  0  0
  6  7  1  0  0  0  0
  8 11  1  0  0  0  0
  8  9  1  1  0  0  0
 10  3  1  6  0  0  0
 10 12  1  0  0  0  0
 11 10  1  0  0  0  0
 11  6  1  1  0  0  0
 12  7  1  0  0  0  0
 13  2  1  0  0  0  0
 14 32  1  6  0  0  0
 14 15  1  0  0  0  0
 14 13  1  0  0  0  0
 15 17  1  0  0  0  0
 16  2  1  6  0  0  0
 16  3  1  0  0  0  0
 18 17  1  6  0  0  0
 18 16  1  0  0  0  0
 18  1  1  0  0  0  0
 19 31  2  0  0  0  0
 20 28  1  0  0  0  0
 21 29  1  0  0  0  0
 21 24  2  0  0  0  0
 22 21  1  0  0  0  0
 23 25  1  0  0  0  0
 23 22  1  0  0  0  0
 25 19  1  6  0  0  0
 25 27  1  0  0  0  0
 26 22  1  0  0  0  0
 27 28  2  0  0  0  0
 27 29  1  0  0  0  0
 30 20  2  3  0  0  0
 31 30  1  0  0  0  0
 32 33  1  0  0  0  0
 34 32  2  0  0  0  0
M  END
>  <MODEL>
5

>  <REMARK>
 VINA RESULT:      -8.1      2.869      8.357
  Name = 
  2 active torsions:
  status: ('A' for Active; 'I' for Inactive)
    1  A    between atoms: C_3  and  C_25
    2  A    between atoms: C_8  and  C_30
                            x       y       z     vdW  Elec       q    Type
                         _______ _______ _______ _____ _____    ______ ____

>  <TORSDO>
F 2

$$$$
=
 OpenBabel11052420333D

 34 39  0  0  1  0  0  0  0  0999 V2000
  191.7980  176.4660  144.6960 C   0  0  1  0  0  3  0  0  0  0  0  0
  192.4110  172.9380  143.4030 C   0  0  0  0  0  2  0  0  0  0  0  0
  192.9990  173.9450  145.5290 C   0  0  0  0  0  2  0  0  0  0  0  0
  190.2350  177.2110  146.4470 C   0  0  2  0  0  3  0  0  0  0  0  0
  190.4740  177.1960  144.9410 C   0  0  0  0  0  2  0  0  0  0  0  0
  193.2180  177.5360  146.2940 O   0  0  0  0  0  0  0  0  0  0  0  0
  194.5700  177.2100  146.0530 C   0  0  0  0  0  2  0  0  0  0  0  0
  191.2860  176.3130  147.0620 C   0  0  2  0  0  3  0  0  0  0  0  0
  191.6490  176.7770  148.4660 C   0  0  0  0  0  1  0  0  0  0  0  0
  193.3890  175.1880  146.3020 C   0  0  2  0  0  3  0  0  0  0  0  0
  192.4570  176.3640  146.0910 C   0  0  1  0  0  0  0  0  0  0  0  0
  194.7270  175.7140  145.8980 C   0  0  0  0  0  2  0  0  0  0  0  0
  192.5750  173.0480  141.8940 C   0  0  0  0  0  2  0  0  0  0  0  0
  191.2820  173.4650  141.1830 C   0  0  2  0  0  3  0  0  0  0  0  0
  190.4440  174.5090  141.9230 C   0  0  0  0  0  2  0  0  0  0  0  0
  192.6890  174.2790  144.0830 C   0  0  2  0  0  3  0  0  0  0  0  0
  191.3030  175.5530  142.6180 C   0  0  0  0  0  2  0  0  0  0  0  0
  191.5240  175.1830  144.0180 N   0  0  2  0  0  0  0  0  0  0  0  0
  188.0680  175.2920  144.9990 C   0  0  0  0  0  3  0  0  0  0  0  0
  187.8070  177.9150  146.7980 C   0  0  0  0  0  3  0  0  0  0  0  0
  186.7250  177.8820  142.0050 C   0  0  0  0  0  0  0  0  0  0  0  0
  187.2230  176.5770  141.6990 N   0  0  0  0  0  0  0  0  0  0  0  0
  187.3340  175.5650  142.7440 C   0  0  0  0  0  2  0  0  0  0  0  0
  186.3510  178.6630  141.0890 O   0  0  0  0  0  0  0  0  0  0  0  0
  187.5630  176.1540  144.1110 C   0  0  0  0  0  0  0  0  0  0  0  0
  187.3870  176.1590  140.3170 C   0  0  0  0  0  1  0  0  0  0  0  0
  187.1120  177.5580  144.3990 C   0  0  0  0  0  0  0  0  0  0  0  0
  187.0930  178.2180  145.7170 C   0  0  0  0  0  3  0  0  0  0  0  0
  186.6920  178.3310  143.3960 C   0  0  0  0  0  2  0  0  0  0  0  0
  188.8150  176.8240  146.8870 C   0  0  0  0  0  0  0  0  0  0  0  0
  188.2580  175.4720  146.4700 C   0  0  0  0  0  2  0  0  0  0  0  0
  190.4490  172.2700  140.8590 C   0  0  0  0  0  0  0  0  0  0  0  0
  190.7750  171.5230  139.9010 O   0  0  0  0  0  0  0  0  0  0  0  0
  189.3210  171.9710  141.6140 O   0  0  0  0  0  1  0  0  0  0  0  0
  1  5  1  1  0  0  0
  1 11  1  0  0  0  0
  4 30  1  6  0  0  0
  4  8  1  0  0  0  0
  5  4  1  0  0  0  0
  7  6  1  0  0  0  0
  8  9  1  1  0  0  0
 10  3  1  6  0  0  0
 11  6  1  1  0  0  0
 11 10  1  0  0  0  0
 11  8  1  0  0  0  0
 12  7  1  0  0  0  0
 12 10  1  0  0  0  0
 13  2  1  0  0  0  0
 14 32  1  1  0  0  0
 14 13  1  0  0  0  0
 14 15  1  0  0  0  0
 15 17  1  0  0  0  0
 16  2  1  6  0  0  0
 16  3  1  0  0  0  0
 18 17  1  6  0  0  0
 18 16  1  0  0  0  0
 18  1  1  0  0  0  0
 19 31  1  0  0  0  0
 20 30  2  3  0  0  0
 21 29  1  0  0  0  0
 22 21  1  0  0  0  0
 22 23  1  0  0  0  0
 23 25  1  0  0  0  0
 24 21  2  0  0  0  0
 25 27  1  0  0  0  0
 25 19  2  0  0  0  0
 26 22  1  0  0  0  0
 27 28  2  0  0  0  0
 28 20  1  0  0  0  0
 29 27  1  0  0  0  0
 31 30  1  0  0  0  0
 32 34  1  0  0  0  0
 33 32  2  0  0  0  0
M  END
>  <MODEL>
6

>  <REMARK>
 VINA RESULT:      -8.0      2.006      5.522
  Name = 
  2 active torsions:
  status: ('A' for Active; 'I' for Inactive)
    1  A    between atoms: C_3  and  C_25
    2  A    between atoms: C_8  and  C_30
                            x       y       z     vdW  Elec       q    Type
                         _______ _______ _______ _____ _____    ______ ____

>  <TORSDO>
F 2

$$$$
=
 OpenBabel11052420333D

 34 39  0  0  1  0  0  0  0  0999 V2000
  190.7130  172.8020  143.6570 C   0  0  1  0  0  3  0  0  0  0  0  0
  194.3620  172.8340  142.5720 C   0  0  0  0  0  2  0  0  0  0  0  0
  192.4720  174.0980  141.7300 C   0  0  0  0  0  2  0  0  0  0  0  0
  189.4540  174.5380  144.8680 C   0  0  2  0  0  3  0  0  0  0  0  0
  190.0980  173.1630  145.0130 C   0  0  0  0  0  2  0  0  0  0  0  0
  188.9070  173.3150  142.1790 O   0  0  0  0  0  0  0  0  0  0  0  0
  189.1560  172.7940  140.8900 C   0  0  0  0  0  2  0  0  0  0  0  0
  189.8750  175.0740  143.5160 C   0  0  2  0  0  3  0  0  0  0  0  0
  188.8090  175.9940  142.9360 C   0  0  0  0  0  1  0  0  0  0  0  0
  190.9830  174.1660  141.4640 C   0  0  2  0  0  3  0  0  0  0  0  0
  190.1250  173.8350  142.6680 C   0  0  1  0  0  0  0  0  0  0  0  0
  190.5430  173.1810  140.4300 C   0  0  0  0  0  2  0  0  0  0  0  0
  194.9030  171.4320  142.8180 C   0  0  0  0  0  2  0  0  0  0  0  0
  194.9810  171.0760  144.3080 C   0  0  2  0  0  3  0  0  0  0  0  0
  193.8160  171.5890  145.1570 C   0  0  0  0  0  2  0  0  0  0  0  0
  192.8370  172.8190  142.4580 C   0  0  2  0  0  3  0  0  0  0  0  0
  192.4880  171.5130  144.4230 C   0  0  0  0  0  2  0  0  0  0  0  0
  192.1840  172.7940  143.7810 N   0  0  2  0  0  0  0  0  0  0  0  0
  191.3830  177.1370  144.8820 C   0  0  0  0  0  3  0  0  0  0  0  0
  190.6020  174.9820  147.1030 C   0  0  0  0  0  3  0  0  0  0  0  0
  195.1030  175.2490  145.1510 C   0  0  0  0  0  0  0  0  0  0  0  0
  194.8130  176.1900  144.1140 N   0  0  0  0  0  0  0  0  0  0  0  0
  193.6810  177.1020  144.2380 C   0  0  0  0  0  2  0  0  0  0  0  0
  196.2200  174.6660  145.2010 O   0  0  0  0  0  0  0  0  0  0  0  0
  192.5630  176.5390  145.0760 C   0  0  0  0  0  0  0  0  0  0  0  0
  195.7710  176.4270  143.0470 C   0  0  0  0  0  1  0  0  0  0  0  0
  192.8640  175.4890  146.1070 C   0  0  0  0  0  0  0  0  0  0  0  0
  191.9320  174.9680  147.1240 C   0  0  0  0  0  3  0  0  0  0  0  0
  194.0750  174.9290  146.1380 C   0  0  0  0  0  2  0  0  0  0  0  0
  189.7620  175.5270  146.0020 C   0  0  0  0  0  0  0  0  0  0  0  0
  190.1130  176.9640  145.6510 C   0  0  0  0  0  2  0  0  0  0  0  0
  196.2800  171.5230  144.8900 C   0  0  0  0  0  0  0  0  0  0  0  0
  196.4010  171.6300  146.1380 O   0  0  0  0  0  1  0  0  0  0  0  0
  197.3600  171.8130  144.0650 O   0  0  0  0  0  0  0  0  0  0  0  0
  1 18  1  0  0  0  0
  1  5  1  1  0  0  0
  2 13  1  0  0  0  0
  4  5  1  0  0  0  0
  4 30  1  1  0  0  0
  7  6  1  0  0  0  0
  8  9  1  6  0  0  0
  8  4  1  0  0  0  0
 10 12  1  6  0  0  0
 10  3  1  0  0  0  0
 10 11  1  0  0  0  0
 11  6  1  6  0  0  0
 11  8  1  0  0  0  0
 11  1  1  0  0  0  0
 12  7  1  0  0  0  0
 13 14  1  0  0  0  0
 14 32  1  1  0  0  0
 14 15  1  0  0  0  0
 16  3  1  1  0  0  0
 16  2  1  0  0  0  0
 16 18  1  0  0  0  0
 17 15  1  0  0  0  0
 18 17  1  6  0  0  0
 19 25  2  0  0  0  0
 19 31  1  0  0  0  0
 20 28  1  0  0  0  0
 21 24  2  0  0  0  0
 21 29  1  0  0  0  0
 22 23  1  0  0  0  0
 22 21  1  0  0  0  0
 23 25  1  0  0  0  0
 25 27  1  0  0  0  0
 26 22  1  0  0  0  0
 27 29  1  0  0  0  0
 27 28  2  0  0  0  0
 30 20  2  3  0  0  0
 31 30  1  0  0  0  0
 32 33  1  0  0  0  0
 34 32  2  0  0  0  0
M  END
>  <MODEL>
7

>  <REMARK>
 VINA RESULT:      -7.8      3.006      5.650
  Name = 
  2 active torsions:
  status: ('A' for Active; 'I' for Inactive)
    1  A    between atoms: C_3  and  C_25
    2  A    between atoms: C_8  and  C_30
                            x       y       z     vdW  Elec       q    Type
                         _______ _______ _______ _____ _____    ______ ____

>  <TORSDO>
F 2

$$$$
=
 OpenBabel11052420333D

 34 39  0  0  1  0  0  0  0  0999 V2000
  190.8100  173.5640  143.3560 C   0  0  1  0  0  3  0  0  0  0  0  0
  194.5730  173.2130  142.8980 C   0  0  0  0  0  2  0  0  0  0  0  0
  192.7780  173.0040  141.2810 C   0  0  0  0  0  2  0  0  0  0  0  0
  189.3280  175.3680  142.5700 C   0  0  2  0  0  3  0  0  0  0  0  0
  189.9940  174.7790  143.8090 C   0  0  0  0  0  2  0  0  0  0  0  0
  189.2160  172.4220  141.9890 O   0  0  0  0  0  0  0  0  0  0  0  0
  189.6660  171.1190  141.6850 C   0  0  0  0  0  2  0  0  0  0  0  0
  189.9180  174.6480  141.3770 C   0  0  2  0  0  3  0  0  0  0  0  0
  188.9130  174.5650  140.2350 C   0  0  0  0  0  1  0  0  0  0  0  0
  191.3400  172.6240  140.9940 C   0  0  2  0  0  3  0  0  0  0  0  0
  190.3320  173.2840  141.9120 C   0  0  1  0  0  0  0  0  0  0  0  0
  191.0900  171.1630  141.1770 C   0  0  0  0  0  2  0  0  0  0  0  0
  195.1240  172.6760  144.2120 C   0  0  0  0  0  2  0  0  0  0  0  0
  195.0010  173.6800  145.3640 C   0  0  2  0  0  3  0  0  0  0  0  0
  193.7090  174.4990  145.3730 C   0  0  0  0  0  2  0  0  0  0  0  0
  193.0820  172.9020  142.7630 C   0  0  2  0  0  3  0  0  0  0  0  0
  192.5030  173.6810  144.9420 C   0  0  0  0  0  2  0  0  0  0  0  0
  192.2470  173.8630  143.5110 N   0  0  2  0  0  0  0  0  0  0  0  0
  189.3870  177.6530  144.8610 C   0  0  0  0  0  3  0  0  0  0  0  0
  188.2220  177.5650  141.8910 C   0  0  0  0  0  3  0  0  0  0  0  0
  185.3280  177.7550  145.8570 C   0  0  0  0  0  0  0  0  0  0  0  0
  186.3390  177.5530  146.8490 N   0  0  0  0  0  0  0  0  0  0  0  0
  187.7310  177.8850  146.5640 C   0  0  0  0  0  2  0  0  0  0  0  0
  184.1060  177.7530  146.1700 O   0  0  0  0  0  0  0  0  0  0  0  0
  188.0760  177.7610  145.1030 C   0  0  1  0  0  3  0  0  0  0  0  0
  185.9710  177.2560  148.2230 C   0  0  0  0  0  1  0  0  0  0  0  0
  186.9930  177.8910  144.0700 C   0  0  0  0  0  0  0  0  0  0  0  0
  187.1820  177.9770  142.6110 C   0  0  0  0  0  3  0  0  0  0  0  0
  185.7170  177.9200  144.4590 C   0  0  0  0  0  2  0  0  0  0  0  0
  189.4340  176.8940  142.4330 C   0  0  0  0  0  0  0  0  0  0  0  0
  190.0980  177.6880  143.5470 C   0  0  0  0  0  3  0  0  0  0  0  0
  196.1870  174.5860  145.4040 C   0  0  0  0  0  0  0  0  0  0  0  0
  197.2680  174.1760  145.9000 O   0  0  0  0  0  1  0  0  0  0  0  0
  196.1070  175.8740  144.8900 O   0  0  0  0  0  0  0  0  0  0  0  0
  1 18  1  0  0  0  0
  1  5  1  6  0  0  0
  2 13  1  0  0  0  0
  4 30  1  6  0  0  0
  4  5  1  0  0  0  0
  7  6  1  0  0  0  0
  8  9  1  6  0  0  0
  8 11  1  0  0  0  0
  8  4  1  0  0  0  0
 10 12  1  1  0  0  0
 10  3  1  0  0  0  0
 10 11  1  0  0  0  0
 11  6  1  1  0  0  0
 11  1  1  0  0  0  0
 12  7  1  0  0  0  0
 13 14  1  0  0  0  0
 14 15  1  0  0  0  0
 14 32  1  6  0  0  0
 16  3  1  6  0  0  0
 16  2  1  0  0  0  0
 16 18  1  0  0  0  0
 17 15  1  0  0  0  0
 18 17  1  1  0  0  0
 20 30  2  3  0  0  0
 20 28  1  0  0  0  0
 21 24  2  0  0  0  0
 21 22  1  0  0  0  0
 22 26  1  0  0  0  0
 23 22  1  0  0  0  0
 25 19  1  6  0  0  0
 25 23  1  0  0  0  0
 27 29  1  0  0  0  0
 27 25  1  0  0  0  0
 28 27  2  0  0  0  0
 29 21  1  0  0  0  0
 30 31  1  0  0  0  0
 31 19  2  0  0  0  0
 32 33  1  0  0  0  0
 34 32  2  0  0  0  0
M  END
>  <MODEL>
8

>  <REMARK>
 VINA RESULT:      -7.7      1.227      1.504
  Name = 
  2 active torsions:
  status: ('A' for Active; 'I' for Inactive)
    1  A    between atoms: C_3  and  C_25
    2  A    between atoms: C_8  and  C_30
                            x       y       z     vdW  Elec       q    Type
                         _______ _______ _______ _____ _____    ______ ____

>  <TORSDO>
F 2

$$$$
=
 OpenBabel11052420333D

 34 39  0  0  1  0  0  0  0  0999 V2000
  193.1490  175.0700  142.6030 C   0  0  1  0  0  3  0  0  0  0  0  0
  194.4710  171.8850  140.9880 C   0  0  0  0  0  2  0  0  0  0  0  0
  195.0400  172.9120  143.1100 C   0  0  0  0  0  2  0  0  0  0  0  0
  191.6740  175.3020  144.5620 C   0  0  2  0  0  3  0  0  0  0  0  0
  191.7230  175.4180  143.0420 C   0  0  0  0  0  2  0  0  0  0  0  0
  194.4360  176.3970  144.1180 O   0  0  0  0  0  0  0  0  0  0  0  0
  195.7870  176.4450  143.7110 C   0  0  0  0  0  2  0  0  0  0  0  0
  192.9850  174.6790  144.9920 C   0  0  2  0  0  3  0  0  0  0  0  0
  193.3880  175.1570  146.3800 C   0  0  0  0  0  1  0  0  0  0  0  0
  195.1950  174.1760  143.9300 C   0  0  2  0  0  3  0  0  0  0  0  0
  193.9780  175.0780  143.9090 C   0  0  1  0  0  0  0  0  0  0  0  0
  196.2970  175.0500  143.4270 C   0  0  0  0  0  2  0  0  0  0  0  0
  194.4160  172.1040  139.4820 C   0  0  0  0  0  2  0  0  0  0  0  0
  192.9830  172.2030  138.9470 C   0  0  2  0  0  3  0  0  0  0  0  0
  192.0050  172.9580  139.8490 C   0  0  0  0  0  2  0  0  0  0  0  0
  194.4820  173.2200  141.7340 C   0  0  2  0  0  3  0  0  0  0  0  0
  192.6510  174.1560  140.5260 C   0  0  0  0  0  2  0  0  0  0  0  0
  193.1270  173.7930  141.8620 N   0  0  2  0  0  0  0  0  0  0  0  0
  188.9960  174.2820  143.0570 C   0  0  0  0  0  3  0  0  0  0  0  0
  189.5770  175.3300  146.0160 C   0  0  0  0  0  3  0  0  0  0  0  0
  186.9260  177.9040  142.7760 C   0  0  0  0  0  0  0  0  0  0  0  0
  187.1830  177.0960  141.6250 N   0  0  0  0  0  0  0  0  0  0  0  0
  187.5610  175.6940  141.7740 C   0  0  0  0  0  2  0  0  0  0  0  0
  186.3270  179.0080  142.6710 O   0  0  0  0  0  0  0  0  0  0  0  0
  188.2890  175.4180  143.0640 C   0  0  0  0  0  0  0  0  0  0  0  0
  186.8320  177.5740  140.2980 C   0  0  0  0  0  1  0  0  0  0  0  0
  188.0790  176.3220  144.2440 C   0  0  0  0  0  0  0  0  0  0  0  0
  188.5640  176.0960  145.6180 C   0  0  0  0  0  3  0  0  0  0  0  0
  187.4060  177.4630  144.0840 C   0  0  0  0  0  2  0  0  0  0  0  0
  190.4630  174.5390  145.1200 C   0  0  0  0  0  0  0  0  0  0  0  0
  189.6890  173.6100  144.1970 C   0  0  0  0  0  2  0  0  0  0  0  0
  192.4460  170.8490  138.6230 C   0  0  0  0  0  0  0  0  0  0  0  0
  191.2200  170.6110  138.7770 O   0  0  0  0  0  1  0  0  0  0  0  0
  193.2880  169.8520  138.1460 O   0  0  0  0  0  0  0  0  0  0  0  0
  1  5  1  1  0  0  0
  1 11  1  0  0  0  0
  4  8  1  0  0  0  0
  4 30  1  6  0  0  0
  5  4  1  0  0  0  0
  7  6  1  0  0  0  0
  8  9  1  1  0  0  0
 10  3  1  6  0  0  0
 11 10  1  0  0  0  0
 11  6  1  1  0  0  0
 11  8  1  0  0  0  0
 12  7  1  0  0  0  0
 12 10  1  0  0  0  0
 13  2  1  0  0  0  0
 14 32  1  1  0  0  0
 14 13  1  0  0  0  0
 14 15  1  0  0  0  0
 15 17  1  0  0  0  0
 16  2  1  6  0  0  0
 16 18  1  0  0  0  0
 16  3  1  0  0  0  0
 18 17  1  6  0  0  0
 18  1  1  0  0  0  0
 19 25  2  0  0  0  0
 19 31  1  0  0  0  0
 21 29  1  0  0  0  0
 22 23  1  0  0  0  0
 22 21  1  0  0  0  0
 23 25  1  0  0  0  0
 24 21  2  0  0  0  0
 25 27  1  0  0  0  0
 26 22  1  0  0  0  0
 27 28  2  0  0  0  0
 28 20  1  0  0  0  0
 29 27  1  0  0  0  0
 30 20  2  3  0  0  0
 31 30  1  0  0  0  0
 32 33  1  0  0  0  0
 34 32  2  0  0  0  0
M  END
>  <MODEL>
9

>  <REMARK>
 VINA RESULT:      -7.4      2.456      5.746
  Name = 
  2 active torsions:
  status: ('A' for Active; 'I' for Inactive)
    1  A    between atoms: C_3  and  C_25
    2  A    between atoms: C_8  and  C_30
                            x       y       z     vdW  Elec       q    Type
                         _______ _______ _______ _____ _____    ______ ____

>  <TORSDO>
F 2

$$$$
