=
 OpenBabel11052421373D

 32 37  0  0  1  0  0  0  0  0999 V2000
  189.9610  171.6670  139.6290 C   0  0  0  0  0  0  0  0  0  0  0  0
  188.3870  175.9680  141.6100 C   0  0  0  0  0  0  0  0  0  0  0  0
  190.6420  176.2000  145.9780 C   0  0  0  0  0  3  0  0  0  0  0  0
  189.6950  177.0980  146.4710 C   0  0  0  0  0  3  0  0  0  0  0  0
  188.7290  174.1250  140.1680 C   0  0  0  0  0  0  0  0  0  0  0  0
  189.8130  174.1800  142.2970 N   0  0  0  0  0  0  0  0  0  0  0  0
  190.2050  172.3180  140.8470 C   0  0  0  0  0  3  0  0  0  0  0  0
  190.4830  175.6440  144.7080 C   0  0  0  0  0  3  0  0  0  0  0  0
  189.2220  175.3760  142.5750 C   0  0  0  0  0  0  0  0  0  0  0  0
  189.3800  175.9870  143.9130 C   0  0  0  0  0  0  0  0  0  0  0  0
  187.1830  177.2040  143.5820 C   0  0  2  0  0  3  0  0  0  0  0  0
  189.0990  172.2460  138.6900 C   0  0  0  0  0  3  0  0  0  0  0  0
  189.5950  173.5450  141.1170 C   0  0  0  0  0  0  0  0  0  0  0  0
  188.4840  173.4730  138.9560 C   0  0  0  0  0  3  0  0  0  0  0  0
  188.5860  177.4400  145.6950 C   0  0  0  0  0  3  0  0  0  0  0  0
  188.4160  176.8970  144.4090 C   0  0  0  0  0  0  0  0  0  0  0  0
  188.1500  175.3230  140.4370 N   0  0  0  0  0  0  0  0  0  0  0  0
  187.6830  177.5980  141.8790 S   0  0  0  0  0  0  0  0  0  0  0  0
  190.5990  169.5370  140.4580 O   0  0  0  0  0  1  0  0  0  0  0  0
  190.5950  170.3470  139.3210 C   0  0  1  0  0  3  0  0  0  0  0  0
  189.8670  169.6450  138.1850 C   0  0  0  0  0  3  0  0  0  0  0  0
  190.8440  169.3490  137.0650 C   0  0  0  0  0  2  0  0  0  0  0  0
  190.4270  168.2480  138.0150 C   0  0  0  0  0  2  0  0  0  0  0  0
  186.3370  178.3510  144.1250 C   0  0  0  0  0  2  0  0  0  0  0  0
  184.9240  177.9730  144.1540 N   0  0  0  0  0  0  0  0  0  0  0  0
  184.3790  178.2590  145.4230 N   0  0  0  0  0  2  0  0  0  0  0  0
  185.1260  178.7820  146.4960 C   0  0  0  0  0  0  0  0  0  0  0  0
  185.7390  179.2120  147.3770 N   0  0  0  0  0  0  0  0  0  0  0  0
  184.1460  178.6430  143.1000 C   0  0  0  0  0  2  0  0  0  0  0  0
  183.9800  177.8090  141.8310 C   0  0  1  0  0  3  0  0  0  0  0  0
  182.8330  178.3140  141.0480 C   0  0  0  0  0  2  0  0  0  0  0  0
  184.1570  178.6450  140.7140 O   0  0  0  0  0  0  0  0  0  0  0  0
  1  7  1  0  0  0  0
  2 18  1  0  0  0  0
  2  9  1  0  0  0  0
  3  4  1  0  0  0  0
  5 17  1  0  0  0  0
  5 13  1  0  0  0  0
  6  9  2  0  0  0  0
  7 13  2  0  0  0  0
  8  3  2  0  0  0  0
  9 10  1  0  0  0  0
 10 16  2  0  0  0  0
 10  8  1  0  0  0  0
 11 24  1  1  0  0  0
 11 16  1  0  0  0  0
 12 14  1  0  0  0  0
 12  1  2  0  0  0  0
 13  6  1  0  0  0  0
 14  5  2  0  0  0  0
 15  4  2  0  0  0  0
 16 15  1  0  0  0  0
 17  2  2  0  0  0  0
 18 11  1  0  0  0  0
 20  1  1  0  0  0  0
 20 19  1  1  0  0  0
 21 20  1  0  0  0  0
 22 23  1  0  0  0  0
 22 21  1  0  0  0  0
 23 21  1  0  0  0  0
 24 25  1  0  0  0  0
 25 26  1  0  0  0  0
 26 27  1  0  0  0  0
 27 28  3  0  0  0  0
 29 25  1  0  0  0  0
 30 29  1  1  0  0  0
 31 30  1  0  0  0  0
 32 31  1  0  0  0  0
 32 30  1  0  0  0  0
M  END
>  <MODEL>
1

>  <REMARK>
 VINA RESULT:      -6.7      0.000      0.000
  Name = 
  8 active torsions:
  status: ('A' for Active; 'I' for Inactive)
    1  A    between atoms: C_1  and  C_24
    2  A    between atoms: C_2  and  C_24
    3  A    between atoms: C_6  and  N_7
    4  A    between atoms: N_7  and  N_32
    5  A    between atoms: C_11  and  C_22
    6  A    between atoms: C_16  and  C_27
    7  A    between atoms: C_22  and  N_32
    8  A    between atoms: C_27  and  N_32
                            x       y       z     vdW  Elec       q    Type
                         _______ _______ _______ _____ _____    ______ ____

>  <TORSDO>
F 8

$$$$
=
 OpenBabel11052421373D

 32 37  0  0  1  0  0  0  0  0999 V2000
  195.4850  173.4140  144.8570 C   0  0  0  0  0  0  0  0  0  0  0  0
  191.8580  176.6760  143.8050 C   0  0  0  0  0  0  0  0  0  0  0  0
  188.3490  175.7140  147.1190 C   0  0  0  0  0  3  0  0  0  0  0  0
  187.3700  176.3080  146.3230 C   0  0  0  0  0  3  0  0  0  0  0  0
  193.8720  175.4370  143.7810 C   0  0  0  0  0  0  0  0  0  0  0  0
  192.1770  174.9110  145.3810 N   0  0  0  0  0  0  0  0  0  0  0  0
  194.2170  173.6610  145.4040 C   0  0  0  0  0  3  0  0  0  0  0  0
  189.6530  175.5820  146.6400 C   0  0  0  0  0  3  0  0  0  0  0  0
  191.3800  175.8900  144.8700 C   0  0  0  0  0  0  0  0  0  0  0  0
  189.9950  176.0520  145.3650 C   0  0  0  0  0  0  0  0  0  0  0  0
  189.3570  177.0890  143.1430 C   0  0  2  0  0  3  0  0  0  0  0  0
  195.9380  174.1770  143.7740 C   0  0  0  0  0  3  0  0  0  0  0  0
  193.4120  174.6700  144.8710 C   0  0  0  0  0  0  0  0  0  0  0  0
  195.1340  175.1880  143.2360 C   0  0  0  0  0  3  0  0  0  0  0  0
  187.6930  176.7710  145.0460 C   0  0  0  0  0  3  0  0  0  0  0  0
  189.0050  176.6560  144.5530 C   0  0  0  0  0  0  0  0  0  0  0  0
  193.0850  176.4210  143.2780 N   0  0  0  0  0  0  0  0  0  0  0  0
  190.8960  178.0560  143.1780 S   0  0  0  0  0  0  0  0  0  0  0  0
  197.0630  172.7970  146.5190 O   0  0  0  0  0  1  0  0  0  0  0  0
  196.3610  172.3320  145.4050 C   0  0  1  0  0  3  0  0  0  0  0  0
  195.5420  171.1070  145.7820 C   0  0  0  0  0  3  0  0  0  0  0  0
  195.9800  169.9270  144.9370 C   0  0  0  0  0  2  0  0  0  0  0  0
  196.4560  170.0500  146.3680 C   0  0  0  0  0  2  0  0  0  0  0  0
  188.2730  177.9130  142.4550 C   0  0  0  0  0  2  0  0  0  0  0  0
  187.7990  177.2280  141.2520 N   0  0  0  0  0  0  0  0  0  0  0  0
  187.8850  175.8320  141.4310 N   0  0  0  0  0  2  0  0  0  0  0  0
  188.2150  174.9300  140.4010 C   0  0  0  0  0  0  0  0  0  0  0  0
  188.4850  174.1880  139.5560 N   0  0  0  0  0  0  0  0  0  0  0  0
  186.4240  177.6140  140.8960 C   0  0  0  0  0  2  0  0  0  0  0  0
  185.6720  178.3240  142.0200 C   0  0  1  0  0  3  0  0  0  0  0  0
  184.2160  178.2010  141.8020 C   0  0  0  0  0  2  0  0  0  0  0  0
  184.8970  177.3790  142.7150 O   0  0  0  0  0  0  0  0  0  0  0  0
  1  7  1  0  0  0  0
  1 20  1  0  0  0  0
  2  9  1  0  0  0  0
  4  3  2  0  0  0  0
  5 13  1  0  0  0  0
  8  3  1  0  0  0  0
  9 10  1  0  0  0  0
  9  6  2  0  0  0  0
 10  8  2  0  0  0  0
 11 24  1  1  0  0  0
 11 18  1  0  0  0  0
 11 16  1  0  0  0  0
 12  1  2  0  0  0  0
 13  6  1  0  0  0  0
 13  7  2  0  0  0  0
 14 12  1  0  0  0  0
 14  5  2  0  0  0  0
 15  4  1  0  0  0  0
 16 15  2  0  0  0  0
 16 10  1  0  0  0  0
 17  5  1  0  0  0  0
 17  2  2  0  0  0  0
 18  2  1  0  0  0  0
 20 21  1  0  0  0  0
 20 19  1  1  0  0  0
 21 23  1  0  0  0  0
 22 21  1  0  0  0  0
 22 23  1  0  0  0  0
 25 26  1  0  0  0  0
 25 24  1  0  0  0  0
 27 26  1  0  0  0  0
 28 27  3  0  0  0  0
 29 25  1  0  0  0  0
 30 29  1  6  0  0  0
 30 32  1  0  0  0  0
 31 30  1  0  0  0  0
 31 32  1  0  0  0  0
M  END
>  <MODEL>
2

>  <REMARK>
 VINA RESULT:      -6.7      4.053      5.912
  Name = 
  8 active torsions:
  status: ('A' for Active; 'I' for Inactive)
    1  A    between atoms: C_1  and  C_24
    2  A    between atoms: C_2  and  C_24
    3  A    between atoms: C_6  and  N_7
    4  A    between atoms: N_7  and  N_32
    5  A    between atoms: C_11  and  C_22
    6  A    between atoms: C_16  and  C_27
    7  A    between atoms: C_22  and  N_32
    8  A    between atoms: C_27  and  N_32
                            x       y       z     vdW  Elec       q    Type
                         _______ _______ _______ _____ _____    ______ ____

>  <TORSDO>
F 8

$$$$
=
 OpenBabel11052421373D

 32 37  0  0  1  0  0  0  0  0999 V2000
  186.4130  177.4650  143.8130 C   0  0  0  0  0  0  0  0  0  0  0  0
  190.7240  175.1450  142.8440 C   0  0  0  0  0  0  0  0  0  0  0  0
  193.5010  176.0170  146.8120 C   0  0  0  0  0  3  0  0  0  0  0  0
  194.6750  175.7680  146.1010 C   0  0  0  0  0  3  0  0  0  0  0  0
  188.5240  176.0010  142.6940 C   0  0  0  0  0  0  0  0  0  0  0  0
  189.8530  176.4820  144.6210 N   0  0  0  0  0  0  0  0  0  0  0  0
  187.6210  177.3360  144.5140 C   0  0  0  0  0  3  0  0  0  0  0  0
  192.2710  176.0160  146.1510 C   0  0  0  0  0  3  0  0  0  0  0  0
  190.8900  175.7740  144.0910 C   0  0  0  0  0  0  0  0  0  0  0  0
  192.2020  175.7560  144.7750 C   0  0  0  0  0  0  0  0  0  0  0  0
  193.3220  175.3040  142.5490 C   0  0  2  0  0  3  0  0  0  0  0  0
  186.2690  176.8660  142.5560 C   0  0  0  0  0  3  0  0  0  0  0  0
  188.6740  176.6040  143.9600 C   0  0  0  0  0  0  0  0  0  0  0  0
  187.3210  176.1340  141.9960 C   0  0  0  0  0  3  0  0  0  0  0  0
  194.6220  175.5190  144.7280 C   0  0  0  0  0  3  0  0  0  0  0  0
  193.3910  175.5040  144.0500 C   0  0  0  0  0  0  0  0  0  0  0  0
  189.5510  175.2850  142.1700 N   0  0  0  0  0  0  0  0  0  0  0  0
  192.0150  174.1010  142.1610 S   0  0  0  0  0  0  0  0  0  0  0  0
  184.1830  178.2180  143.5120 O   0  0  0  0  0  1  0  0  0  0  0  0
  185.2740  178.2510  144.3820 C   0  0  1  0  0  3  0  0  0  0  0  0
  184.8670  177.7110  145.7450 C   0  0  0  0  0  3  0  0  0  0  0  0
  185.1900  178.7370  146.8130 C   0  0  0  0  0  2  0  0  0  0  0  0
  183.7670  178.5780  146.3230 C   0  0  0  0  0  2  0  0  0  0  0  0
  194.6290  174.8310  141.9210 C   0  0  0  0  0  2  0  0  0  0  0  0
  194.9860  175.6790  140.7840 N   0  0  0  0  0  0  0  0  0  0  0  0
  195.7220  176.7950  141.2330 N   0  0  0  0  0  2  0  0  0  0  0  0
  196.7200  176.7260  142.2250 C   0  0  0  0  0  0  0  0  0  0  0  0
  197.5390  176.6700  143.0390 N   0  0  0  0  0  0  0  0  0  0  0  0
  195.7430  174.9460  139.7570 C   0  0  0  0  0  2  0  0  0  0  0  0
  196.4620  173.7070  140.2880 C   0  0  1  0  0  3  0  0  0  0  0  0
  197.3960  173.1950  139.2640 C   0  0  0  0  0  2  0  0  0  0  0  0
  197.8420  173.9740  140.3450 O   0  0  0  0  0  0  0  0  0  0  0  0
  1 20  1  0  0  0  0
  1  7  1  0  0  0  0
  2  9  1  0  0  0  0
  4  3  2  0  0  0  0
  5 13  1  0  0  0  0
  8  3  1  0  0  0  0
  9  6  2  0  0  0  0
  9 10  1  0  0  0  0
 10  8  2  0  0  0  0
 11 24  1  1  0  0  0
 11 16  1  0  0  0  0
 12  1  2  0  0  0  0
 13  7  2  0  0  0  0
 13  6  1  0  0  0  0
 14 12  1  0  0  0  0
 14  5  2  0  0  0  0
 15  4  1  0  0  0  0
 16 15  2  0  0  0  0
 16 10  1  0  0  0  0
 17  5  1  0  0  0  0
 17  2  2  0  0  0  0
 18 11  1  0  0  0  0
 18  2  1  0  0  0  0
 20 19  1  6  0  0  0
 20 21  1  0  0  0  0
 21 23  1  0  0  0  0
 21 22  1  0  0  0  0
 23 22  1  0  0  0  0
 25 26  1  0  0  0  0
 25 24  1  0  0  0  0
 26 27  1  0  0  0  0
 27 28  3  0  0  0  0
 29 25  1  0  0  0  0
 30 29  1  6  0  0  0
 30 32  1  0  0  0  0
 31 30  1  0  0  0  0
 31 32  1  0  0  0  0
M  END
>  <MODEL>
3

>  <REMARK>
 VINA RESULT:      -6.7      4.226      9.190
  Name = 
  8 active torsions:
  status: ('A' for Active; 'I' for Inactive)
    1  A    between atoms: C_1  and  C_24
    2  A    between atoms: C_2  and  C_24
    3  A    between atoms: C_6  and  N_7
    4  A    between atoms: N_7  and  N_32
    5  A    between atoms: C_11  and  C_22
    6  A    between atoms: C_16  and  C_27
    7  A    between atoms: C_22  and  N_32
    8  A    between atoms: C_27  and  N_32
                            x       y       z     vdW  Elec       q    Type
                         _______ _______ _______ _____ _____    ______ ____

>  <TORSDO>
F 8

$$$$
=
 OpenBabel11052421373D

 32 37  0  0  1  0  0  0  0  0999 V2000
  186.4500  177.4820  143.6620 C   0  0  0  0  0  0  0  0  0  0  0  0
  190.8320  175.2610  142.7850 C   0  0  0  0  0  0  0  0  0  0  0  0
  193.5380  176.2790  146.7680 C   0  0  0  0  0  3  0  0  0  0  0  0
  194.7270  176.0480  146.0760 C   0  0  0  0  0  3  0  0  0  0  0  0
  188.6130  176.0560  142.5940 C   0  0  0  0  0  0  0  0  0  0  0  0
  189.9050  176.6060  144.5270 N   0  0  0  0  0  0  0  0  0  0  0  0
  187.6530  177.3980  144.3790 C   0  0  0  0  0  3  0  0  0  0  0  0
  192.3160  176.2330  146.0940 C   0  0  0  0  0  3  0  0  0  0  0  0
  190.9670  175.9170  144.0220 C   0  0  0  0  0  0  0  0  0  0  0  0
  192.2710  175.9470  144.7220 C   0  0  0  0  0  0  0  0  0  0  0  0
  193.4290  175.4850  142.5170 C   0  0  2  0  0  3  0  0  0  0  0  0
  186.3370  176.8580  142.4140 C   0  0  0  0  0  3  0  0  0  0  0  0
  188.7310  176.6850  143.8500 C   0  0  0  0  0  0  0  0  0  0  0  0
  187.4150  176.1440  141.8800 C   0  0  0  0  0  3  0  0  0  0  0  0
  194.6960  175.7740  144.7070 C   0  0  0  0  0  3  0  0  0  0  0  0
  193.4740  175.7130  144.0150 C   0  0  0  0  0  0  0  0  0  0  0  0
  189.6650  175.3580  142.0950 N   0  0  0  0  0  0  0  0  0  0  0  0
  192.1590  174.2410  142.1360 S   0  0  0  0  0  0  0  0  0  0  0  0
  184.1720  178.0830  143.3750 O   0  0  0  0  0  1  0  0  0  0  0  0
  185.2840  178.2480  144.2030 C   0  0  1  0  0  3  0  0  0  0  0  0
  184.9480  177.8000  145.6180 C   0  0  0  0  0  3  0  0  0  0  0  0
  185.2660  178.9170  146.5910 C   0  0  0  0  0  2  0  0  0  0  0  0
  183.8350  178.6650  146.1700 C   0  0  0  0  0  2  0  0  0  0  0  0
  194.7560  175.0360  141.9130 C   0  0  0  0  0  2  0  0  0  0  0  0
  195.1430  175.9220  140.8160 N   0  0  0  0  0  0  0  0  0  0  0  0
  196.2910  176.6560  141.1760 N   0  0  0  0  0  2  0  0  0  0  0  0
  197.1970  176.2510  142.1760 C   0  0  0  0  0  0  0  0  0  0  0  0
  197.9410  175.9180  142.9960 N   0  0  0  0  0  0  0  0  0  0  0  0
  195.3780  175.1870  139.5630 C   0  0  0  0  0  2  0  0  0  0  0  0
  194.1160  174.9620  138.7330 C   0  0  1  0  0  3  0  0  0  0  0  0
  194.4020  174.0140  137.6350 C   0  0  0  0  0  2  0  0  0  0  0  0
  193.7560  173.6050  138.8140 O   0  0  0  0  0  0  0  0  0  0  0  0
  1 20  1  0  0  0  0
  1  7  1  0  0  0  0
  2  9  1  0  0  0  0
  4  3  2  0  0  0  0
  5 13  1  0  0  0  0
  8  3  1  0  0  0  0
  9  6  2  0  0  0  0
  9 10  1  0  0  0  0
 10  8  2  0  0  0  0
 11 24  1  1  0  0  0
 11 16  1  0  0  0  0
 12  1  2  0  0  0  0
 13  7  2  0  0  0  0
 13  6  1  0  0  0  0
 14 12  1  0  0  0  0
 14  5  2  0  0  0  0
 15  4  1  0  0  0  0
 16 15  2  0  0  0  0
 16 10  1  0  0  0  0
 17  5  1  0  0  0  0
 17  2  2  0  0  0  0
 18 11  1  0  0  0  0
 18  2  1  0  0  0  0
 20 19  1  6  0  0  0
 20 21  1  0  0  0  0
 21 23  1  0  0  0  0
 21 22  1  0  0  0  0
 23 22  1  0  0  0  0
 25 26  1  0  0  0  0
 25 24  1  0  0  0  0
 26 27  1  0  0  0  0
 27 28  3  0  0  0  0
 29 25  1  0  0  0  0
 30 32  1  0  0  0  0
 30 29  1  1  0  0  0
 31 30  1  0  0  0  0
 31 32  1  0  0  0  0
M  END
>  <MODEL>
4

>  <REMARK>
 VINA RESULT:      -6.7      3.915      8.851
  Name = 
  8 active torsions:
  status: ('A' for Active; 'I' for Inactive)
    1  A    between atoms: C_1  and  C_24
    2  A    between atoms: C_2  and  C_24
    3  A    between atoms: C_6  and  N_7
    4  A    between atoms: N_7  and  N_32
    5  A    between atoms: C_11  and  C_22
    6  A    between atoms: C_16  and  C_27
    7  A    between atoms: C_22  and  N_32
    8  A    between atoms: C_27  and  N_32
                            x       y       z     vdW  Elec       q    Type
                         _______ _______ _______ _____ _____    ______ ____

>  <TORSDO>
F 8

$$$$
=
 OpenBabel11052421373D

 32 37  0  0  1  0  0  0  0  0999 V2000
  186.5530  177.6550  144.0420 C   0  0  0  0  0  0  0  0  0  0  0  0
  190.9840  175.6860  142.8610 C   0  0  0  0  0  0  0  0  0  0  0  0
  193.7630  176.4470  146.8510 C   0  0  0  0  0  3  0  0  0  0  0  0
  194.9390  176.3240  146.1120 C   0  0  0  0  0  3  0  0  0  0  0  0
  188.7330  176.4110  142.7980 C   0  0  0  0  0  0  0  0  0  0  0  0
  190.0600  176.8360  144.7390 N   0  0  0  0  0  0  0  0  0  0  0  0
  187.7780  177.5530  144.7190 C   0  0  0  0  0  3  0  0  0  0  0  0
  192.5250  176.4160  146.2060 C   0  0  0  0  0  3  0  0  0  0  0  0
  191.1310  176.2340  144.1490 C   0  0  0  0  0  0  0  0  0  0  0  0
  192.4510  176.2510  144.8160 C   0  0  0  0  0  0  0  0  0  0  0  0
  193.5620  176.0290  142.5500 C   0  0  2  0  0  3  0  0  0  0  0  0
  186.4270  177.1390  142.7470 C   0  0  0  0  0  3  0  0  0  0  0  0
  188.8650  176.9300  144.1020 C   0  0  0  0  0  0  0  0  0  0  0  0
  187.5130  176.5170  142.1250 C   0  0  0  0  0  3  0  0  0  0  0  0
  194.8800  176.1700  144.7250 C   0  0  0  0  0  3  0  0  0  0  0  0
  193.6420  176.1260  144.0610 C   0  0  0  0  0  0  0  0  0  0  0  0
  189.7940  175.8000  142.2130 N   0  0  0  0  0  0  0  0  0  0  0  0
  192.3270  174.7760  142.0910 S   0  0  0  0  0  0  0  0  0  0  0  0
  184.2760  178.2860  143.8200 O   0  0  0  0  0  1  0  0  0  0  0  0
  185.3770  178.3260  144.6790 C   0  0  1  0  0  3  0  0  0  0  0  0
  185.0250  177.6660  146.0040 C   0  0  0  0  0  3  0  0  0  0  0  0
  185.2050  178.6650  147.1300 C   0  0  0  0  0  2  0  0  0  0  0  0
  183.8190  178.3560  146.6060 C   0  0  0  0  0  2  0  0  0  0  0  0
  194.8870  175.6850  141.8760 C   0  0  0  0  0  2  0  0  0  0  0  0
  194.9500  174.2540  141.5780 N   0  0  0  0  0  0  0  0  0  0  0  0
  195.3110  174.0620  140.2290 N   0  0  0  0  0  2  0  0  0  0  0  0
  194.7020  174.7350  139.1520 C   0  0  0  0  0  0  0  0  0  0  0  0
  194.2020  175.2880  138.2680 N   0  0  0  0  0  0  0  0  0  0  0  0
  195.8850  173.5420  142.4640 C   0  0  0  0  0  2  0  0  0  0  0  0
  195.2780  172.3170  143.1460 C   0  0  1  0  0  3  0  0  0  0  0  0
  195.7540  172.2350  144.5420 C   0  0  0  0  0  2  0  0  0  0  0  0
  194.4840  172.7450  144.2250 O   0  0  0  0  0  0  0  0  0  0  0  0
  1 20  1  0  0  0  0
  1  7  1  0  0  0  0
  2  9  1  0  0  0  0
  4  3  2  0  0  0  0
  5 13  1  0  0  0  0
  8  3  1  0  0  0  0
  9  6  2  0  0  0  0
  9 10  1  0  0  0  0
 10  8  2  0  0  0  0
 11 24  1  1  0  0  0
 11 16  1  0  0  0  0
 12  1  2  0  0  0  0
 13  7  2  0  0  0  0
 13  6  1  0  0  0  0
 14 12  1  0  0  0  0
 14  5  2  0  0  0  0
 15  4  1  0  0  0  0
 16 15  2  0  0  0  0
 16 10  1  0  0  0  0
 17  5  1  0  0  0  0
 17  2  2  0  0  0  0
 18 11  1  0  0  0  0
 18  2  1  0  0  0  0
 20 19  1  6  0  0  0
 20 21  1  0  0  0  0
 21 23  1  0  0  0  0
 21 22  1  0  0  0  0
 23 22  1  0  0  0  0
 25 24  1  0  0  0  0
 25 29  1  0  0  0  0
 26 25  1  0  0  0  0
 27 26  1  0  0  0  0
 28 27  3  0  0  0  0
 30 29  1  6  0  0  0
 30 32  1  0  0  0  0
 30 31  1  0  0  0  0
 32 31  1  0  0  0  0
M  END
>  <MODEL>
5

>  <REMARK>
 VINA RESULT:      -6.4      4.116      9.154
  Name = 
  8 active torsions:
  status: ('A' for Active; 'I' for Inactive)
    1  A    between atoms: C_1  and  C_24
    2  A    between atoms: C_2  and  C_24
    3  A    between atoms: C_6  and  N_7
    4  A    between atoms: N_7  and  N_32
    5  A    between atoms: C_11  and  C_22
    6  A    between atoms: C_16  and  C_27
    7  A    between atoms: C_22  and  N_32
    8  A    between atoms: C_27  and  N_32
                            x       y       z     vdW  Elec       q    Type
                         _______ _______ _______ _____ _____    ______ ____

>  <TORSDO>
F 8

$$$$
=
 OpenBabel11052421373D

 32 37  0  0  1  0  0  0  0  0999 V2000
  182.3340  178.5870  141.5810 C   0  0  0  0  0  0  0  0  0  0  0  0
  187.0340  177.0980  142.3560 C   0  0  0  0  0  0  0  0  0  0  0  0
  187.6400  177.4470  147.2280 C   0  0  0  0  0  3  0  0  0  0  0  0
  189.0280  177.5080  147.0970 C   0  0  0  0  0  3  0  0  0  0  0  0
  184.9750  177.6790  141.3480 C   0  0  0  0  0  0  0  0  0  0  0  0
  185.2400  177.9010  143.7120 N   0  0  0  0  0  0  0  0  0  0  0  0
  183.1350  178.4660  142.7270 C   0  0  0  0  0  3  0  0  0  0  0  0
  186.8310  177.4310  146.0900 C   0  0  0  0  0  3  0  0  0  0  0  0
  186.5270  177.4610  143.6170 C   0  0  0  0  0  0  0  0  0  0  0  0
  187.4020  177.4650  144.8100 C   0  0  0  0  0  0  0  0  0  0  0  0
  189.4200  177.6480  143.2890 C   0  0  2  0  0  3  0  0  0  0  0  0
  182.8600  178.2580  140.3250 C   0  0  0  0  0  3  0  0  0  0  0  0
  184.4500  178.0110  142.6140 C   0  0  0  0  0  0  0  0  0  0  0  0
  184.1770  177.8040  140.2080 C   0  0  0  0  0  3  0  0  0  0  0  0
  189.6090  177.5550  145.8280 C   0  0  0  0  0  3  0  0  0  0  0  0
  188.8090  177.5280  144.6720 C   0  0  0  0  0  0  0  0  0  0  0  0
  186.2520  177.2290  141.2520 N   0  0  0  0  0  0  0  0  0  0  0  0
  188.6800  176.3990  142.1950 S   0  0  0  0  0  0  0  0  0  0  0  0
  180.6470  179.9500  140.6190 O   0  0  0  0  0  1  0  0  0  0  0  0
  180.9260  179.0810  141.6760 C   0  0  1  0  0  3  0  0  0  0  0  0
  179.9410  177.9210  141.6670 C   0  0  0  0  0  3  0  0  0  0  0  0
  178.8220  178.2000  142.6510 C   0  0  0  0  0  2  0  0  0  0  0  0
  178.5950  178.4070  141.1690 C   0  0  0  0  0  2  0  0  0  0  0  0
  190.9370  177.4900  143.2620 C   0  0  0  0  0  2  0  0  0  0  0  0
  191.3040  176.0760  143.3340 N   0  0  0  0  0  0  0  0  0  0  0  0
  192.0410  175.7150  142.1880 N   0  0  0  0  0  2  0  0  0  0  0  0
  191.9520  174.4540  141.5660 C   0  0  0  0  0  0  0  0  0  0  0  0
  191.8790  173.4190  141.0550 N   0  0  0  0  0  0  0  0  0  0  0  0
  192.0670  175.7610  144.5530 C   0  0  0  0  0  2  0  0  0  0  0  0
  193.1170  176.8100  144.9130 C   0  0  1  0  0  3  0  0  0  0  0  0
  194.0390  176.2650  145.9310 C   0  0  0  0  0  2  0  0  0  0  0  0
  194.3880  176.3150  144.5710 O   0  0  0  0  0  0  0  0  0  0  0  0
  1 20  1  0  0  0  0
  1  7  1  0  0  0  0
  2  9  1  0  0  0  0
  4  3  1  0  0  0  0
  5 13  1  0  0  0  0
  8  3  2  0  0  0  0
  9  6  2  0  0  0  0
  9 10  1  0  0  0  0
 10  8  1  0  0  0  0
 11 24  1  1  0  0  0
 11 16  1  0  0  0  0
 12  1  2  0  0  0  0
 13  7  2  0  0  0  0
 13  6  1  0  0  0  0
 14 12  1  0  0  0  0
 14  5  2  0  0  0  0
 15  4  2  0  0  0  0
 16 10  2  0  0  0  0
 16 15  1  0  0  0  0
 17  5  1  0  0  0  0
 17  2  2  0  0  0  0
 18  2  1  0  0  0  0
 18 11  1  0  0  0  0
 20 19  1  6  0  0  0
 21 20  1  0  0  0  0
 21 22  1  0  0  0  0
 23 21  1  0  0  0  0
 23 22  1  0  0  0  0
 24 25  1  0  0  0  0
 25 29  1  0  0  0  0
 26 25  1  0  0  0  0
 27 26  1  0  0  0  0
 28 27  3  0  0  0  0
 30 29  1  6  0  0  0
 30 31  1  0  0  0  0
 32 30  1  0  0  0  0
 32 31  1  0  0  0  0
M  END
>  <MODEL>
6

>  <REMARK>
 VINA RESULT:      -6.4      3.553      8.593
  Name = 
  8 active torsions:
  status: ('A' for Active; 'I' for Inactive)
    1  A    between atoms: C_1  and  C_24
    2  A    between atoms: C_2  and  C_24
    3  A    between atoms: C_6  and  N_7
    4  A    between atoms: N_7  and  N_32
    5  A    between atoms: C_11  and  C_22
    6  A    between atoms: C_16  and  C_27
    7  A    between atoms: C_22  and  N_32
    8  A    between atoms: C_27  and  N_32
                            x       y       z     vdW  Elec       q    Type
                         _______ _______ _______ _____ _____    ______ ____

>  <TORSDO>
F 8

$$$$
=
 OpenBabel11052421373D

 32 37  0  0  1  0  0  0  0  0999 V2000
  188.2980  177.5700  144.2600 C   0  0  0  0  0  0  0  0  0  0  0  0
  192.9680  176.1660  145.3220 C   0  0  0  0  0  0  0  0  0  0  0  0
  195.2370  176.0650  140.9560 C   0  0  0  0  0  3  0  0  0  0  0  0
  196.2240  175.2050  141.4370 C   0  0  0  0  0  3  0  0  0  0  0  0
  190.6860  176.7670  145.4860 C   0  0  0  0  0  0  0  0  0  0  0  0
  191.7390  176.6910  143.3430 N   0  0  0  0  0  0  0  0  0  0  0  0
  189.4390  177.3340  143.4790 C   0  0  0  0  0  3  0  0  0  0  0  0
  194.1600  176.4190  141.7710 C   0  0  0  0  0  3  0  0  0  0  0  0
  192.9090  176.3000  143.9220 C   0  0  0  0  0  0  0  0  0  0  0  0
  194.0650  175.9240  143.0790 C   0  0  0  0  0  0  0  0  0  0  0  0
  194.9160  174.4530  144.9570 C   0  0  2  0  0  3  0  0  0  0  0  0
  188.3560  177.3990  145.6490 C   0  0  0  0  0  3  0  0  0  0  0  0
  190.6310  176.9360  144.0880 C   0  0  0  0  0  0  0  0  0  0  0  0
  189.5470  176.9990  146.2620 C   0  0  0  0  0  3  0  0  0  0  0  0
  196.1350  174.6960  142.7340 C   0  0  0  0  0  3  0  0  0  0  0  0
  195.0640  175.0510  143.5720 C   0  0  0  0  0  0  0  0  0  0  0  0
  191.8530  176.3890  146.0670 N   0  0  0  0  0  0  0  0  0  0  0  0
  194.5150  175.7720  146.1430 S   0  0  0  0  0  0  0  0  0  0  0  0
  186.4400  176.9170  142.9360 O   0  0  0  0  0  1  0  0  0  0  0  0
  187.0070  177.9880  143.6300 C   0  0  1  0  0  3  0  0  0  0  0  0
  186.0320  178.5030  144.6770 C   0  0  0  0  0  3  0  0  0  0  0  0
  185.5240  179.8710  144.2660 C   0  0  0  0  0  2  0  0  0  0  0  0
  184.6570  178.6480  144.0580 C   0  0  0  0  0  2  0  0  0  0  0  0
  196.1520  173.7070  145.4500 C   0  0  0  0  0  2  0  0  0  0  0  0
  195.9990  172.2680  145.2330 N   0  0  0  0  0  0  0  0  0  0  0  0
  196.8130  171.5590  146.1390 N   0  0  0  0  0  2  0  0  0  0  0  0
  196.8760  170.1530  146.2000 C   0  0  0  0  0  0  0  0  0  0  0  0
  196.9270  168.9980  146.2510 N   0  0  0  0  0  0  0  0  0  0  0  0
  194.5980  171.8330  145.3540 C   0  0  0  0  0  2  0  0  0  0  0  0
  194.1000  171.0170  144.1620 C   0  0  1  0  0  3  0  0  0  0  0  0
  193.4770  169.7650  144.6390 C   0  0  0  0  0  2  0  0  0  0  0  0
  192.7040  170.8770  144.2610 O   0  0  0  0  0  0  0  0  0  0  0  0
  1 12  1  0  0  0  0
  2 17  1  0  0  0  0
  2 18  1  0  0  0  0
  3  4  2  0  0  0  0
  3  8  1  0  0  0  0
  4 15  1  0  0  0  0
  5 17  2  0  0  0  0
  5 14  1  0  0  0  0
  6  9  1  0  0  0  0
  6 13  2  0  0  0  0
  7 13  1  0  0  0  0
  7  1  2  0  0  0  0
  8 10  2  0  0  0  0
  9  2  2  0  0  0  0
 10 16  1  0  0  0  0
 10  9  1  0  0  0  0
 11 24  1  1  0  0  0
 11 18  1  0  0  0  0
 12 14  2  0  0  0  0
 13  5  1  0  0  0  0
 15 16  2  0  0  0  0
 16 11  1  0  0  0  0
 20 19  1  1  0  0  0
 20  1  1  0  0  0  0
 20 21  1  0  0  0  0
 22 21  1  0  0  0  0
 23 22  1  0  0  0  0
 23 21  1  0  0  0  0
 25 29  1  0  0  0  0
 25 24  1  0  0  0  0
 25 26  1  0  0  0  0
 26 27  1  0  0  0  0
 27 28  3  0  0  0  0
 30 32  1  0  0  0  0
 30 31  1  0  0  0  0
 30 29  1  1  0  0  0
 32 31  1  0  0  0  0
M  END
>  <MODEL>
7

>  <REMARK>
 VINA RESULT:      -6.4      4.920      9.806
  Name = 
  8 active torsions:
  status: ('A' for Active; 'I' for Inactive)
    1  A    between atoms: C_1  and  C_24
    2  A    between atoms: C_2  and  C_24
    3  A    between atoms: C_6  and  N_7
    4  A    between atoms: N_7  and  N_32
    5  A    between atoms: C_11  and  C_22
    6  A    between atoms: C_16  and  C_27
    7  A    between atoms: C_22  and  N_32
    8  A    between atoms: C_27  and  N_32
                            x       y       z     vdW  Elec       q    Type
                         _______ _______ _______ _____ _____    ______ ____

>  <TORSDO>
F 8

$$$$
=
 OpenBabel11052421373D

 32 37  0  0  1  0  0  0  0  0999 V2000
  186.9300  177.4730  144.0740 C   0  0  0  0  0  0  0  0  0  0  0  0
  190.7240  174.2870  143.4740 C   0  0  0  0  0  0  0  0  0  0  0  0
  194.2200  175.9660  146.5040 C   0  0  0  0  0  3  0  0  0  0  0  0
  195.2200  175.3050  145.7910 C   0  0  0  0  0  3  0  0  0  0  0  0
  188.6410  175.3940  143.2990 C   0  0  0  0  0  0  0  0  0  0  0  0
  190.3260  176.2650  144.7520 N   0  0  0  0  0  0  0  0  0  0  0  0
  188.2180  177.3880  144.6220 C   0  0  0  0  0  3  0  0  0  0  0  0
  192.9030  175.9470  146.0420 C   0  0  0  0  0  3  0  0  0  0  0  0
  191.1720  175.2610  144.3870 C   0  0  0  0  0  0  0  0  0  0  0  0
  192.5710  175.2570  144.8670 C   0  0  0  0  0  0  0  0  0  0  0  0
  193.2350  173.9100  142.8280 C   0  0  2  0  0  3  0  0  0  0  0  0
  186.5060  176.5210  143.1380 C   0  0  0  0  0  3  0  0  0  0  0  0
  189.0720  176.3510  144.2400 C   0  0  0  0  0  0  0  0  0  0  0  0
  187.3590  175.4820  142.7520 C   0  0  0  0  0  3  0  0  0  0  0  0
  194.9050  174.6240  144.6130 C   0  0  0  0  0  3  0  0  0  0  0  0
  193.5820  174.5860  144.1400 C   0  0  0  0  0  0  0  0  0  0  0  0
  189.4770  174.3860  142.9430 N   0  0  0  0  0  0  0  0  0  0  0  0
  191.7550  172.8790  143.0540 S   0  0  0  0  0  0  0  0  0  0  0  0
  185.7500  179.4050  143.3630 O   0  0  0  0  0  1  0  0  0  0  0  0
  186.0000  178.5790  144.4610 C   0  0  1  0  0  3  0  0  0  0  0  0
  184.6910  178.0260  145.0040 C   0  0  0  0  0  3  0  0  0  0  0  0
  184.8020  177.8450  146.5050 C   0  0  0  0  0  2  0  0  0  0  0  0
  184.0650  179.0390  145.9390 C   0  0  0  0  0  2  0  0  0  0  0  0
  194.3550  173.0470  142.2550 C   0  0  0  0  0  2  0  0  0  0  0  0
  194.7090  173.4980  140.9090 N   0  0  0  0  0  0  0  0  0  0  0  0
  193.6980  174.3420  140.4060 N   0  0  0  0  0  2  0  0  0  0  0  0
  193.0640  174.1490  139.1640 C   0  0  0  0  0  0  0  0  0  0  0  0
  192.5430  173.9900  138.1430 N   0  0  0  0  0  0  0  0  0  0  0  0
  196.0110  174.1850  140.8780 C   0  0  0  0  0  2  0  0  0  0  0  0
  195.9140  175.6770  140.5700 C   0  0  1  0  0  3  0  0  0  0  0  0
  196.4390  176.4580  141.7100 C   0  0  0  0  0  2  0  0  0  0  0  0
  197.2110  176.2230  140.5590 O   0  0  0  0  0  0  0  0  0  0  0  0
  1 20  1  0  0  0  0
  1  7  1  0  0  0  0
  2  9  1  0  0  0  0
  4  3  2  0  0  0  0
  5 13  1  0  0  0  0
  8  3  1  0  0  0  0
  9  6  2  0  0  0  0
  9 10  1  0  0  0  0
 10  8  2  0  0  0  0
 11 24  1  1  0  0  0
 11 18  1  0  0  0  0
 11 16  1  0  0  0  0
 12  1  2  0  0  0  0
 13  7  2  0  0  0  0
 13  6  1  0  0  0  0
 14 12  1  0  0  0  0
 14  5  2  0  0  0  0
 15  4  1  0  0  0  0
 16 15  2  0  0  0  0
 16 10  1  0  0  0  0
 17  5  1  0  0  0  0
 17  2  2  0  0  0  0
 18  2  1  0  0  0  0
 20 19  1  6  0  0  0
 20 21  1  0  0  0  0
 21 23  1  0  0  0  0
 21 22  1  0  0  0  0
 23 22  1  0  0  0  0
 25 24  1  0  0  0  0
 26 25  1  0  0  0  0
 27 26  1  0  0  0  0
 28 27  3  0  0  0  0
 29 25  1  0  0  0  0
 30 29  1  1  0  0  0
 30 31  1  0  0  0  0
 32 30  1  0  0  0  0
 32 31  1  0  0  0  0
M  END
>  <MODEL>
8

>  <REMARK>
 VINA RESULT:      -6.3      4.028      9.025
  Name = 
  8 active torsions:
  status: ('A' for Active; 'I' for Inactive)
    1  A    between atoms: C_1  and  C_24
    2  A    between atoms: C_2  and  C_24
    3  A    between atoms: C_6  and  N_7
    4  A    between atoms: N_7  and  N_32
    5  A    between atoms: C_11  and  C_22
    6  A    between atoms: C_16  and  C_27
    7  A    between atoms: C_22  and  N_32
    8  A    between atoms: C_27  and  N_32
                            x       y       z     vdW  Elec       q    Type
                         _______ _______ _______ _____ _____    ______ ____

>  <TORSDO>
F 8

$$$$
=
 OpenBabel11052421373D

 32 37  0  0  1  0  0  0  0  0999 V2000
  183.6080  178.3380  141.9140 C   0  0  0  0  0  0  0  0  0  0  0  0
  187.8150  177.3510  144.4100 C   0  0  0  0  0  0  0  0  0  0  0  0
  190.3130  174.3200  141.4440 C   0  0  0  0  0  3  0  0  0  0  0  0
  191.0710  173.8300  142.5080 C   0  0  0  0  0  3  0  0  0  0  0  0
  185.6940  178.1870  143.7770 C   0  0  0  0  0  0  0  0  0  0  0  0
  186.8570  176.6860  142.3260 N   0  0  0  0  0  0  0  0  0  0  0  0
  184.7290  177.5400  141.6430 C   0  0  0  0  0  3  0  0  0  0  0  0
  189.2760  175.2230  141.6830 C   0  0  0  0  0  3  0  0  0  0  0  0
  187.8800  176.6010  143.2210 C   0  0  0  0  0  0  0  0  0  0  0  0
  188.9930  175.6540  142.9870 C   0  0  0  0  0  0  0  0  0  0  0  0
  189.3980  175.5630  145.4860 C   0  0  2  0  0  3  0  0  0  0  0  0
  183.5340  179.0520  143.1160 C   0  0  0  0  0  3  0  0  0  0  0  0
  185.7720  177.4650  142.5690 C   0  0  0  0  0  0  0  0  0  0  0  0
  184.5750  178.9790  144.0470 C   0  0  0  0  0  3  0  0  0  0  0  0
  190.7930  174.2420  143.8130 C   0  0  0  0  0  3  0  0  0  0  0  0
  189.7590  175.1590  144.0700 C   0  0  0  0  0  0  0  0  0  0  0  0
  186.7190  178.1130  144.6650 N   0  0  0  0  0  0  0  0  0  0  0  0
  189.1910  177.3670  145.5630 S   0  0  0  0  0  0  0  0  0  0  0  0
  182.6520  177.5060  139.9070 O   0  0  0  0  0  1  0  0  0  0  0  0
  182.4740  178.4270  140.9420 C   0  0  1  0  0  3  0  0  0  0  0  0
  181.1420  178.1790  141.6340 C   0  0  0  0  0  3  0  0  0  0  0  0
  180.2920  179.4320  141.5600 C   0  0  0  0  0  2  0  0  0  0  0  0
  180.0210  178.2770  140.6210 C   0  0  0  0  0  2  0  0  0  0  0  0
  190.4220  175.1390  146.5350 C   0  0  0  0  0  2  0  0  0  0  0  0
  191.2540  176.2780  146.9240 N   0  0  0  0  0  0  0  0  0  0  0  0
  191.5190  176.2270  148.3070 N   0  0  0  0  0  2  0  0  0  0  0  0
  191.5440  177.3610  149.1420 C   0  0  0  0  0  0  0  0  0  0  0  0
  191.5650  178.2920  149.8280 N   0  0  0  0  0  0  0  0  0  0  0  0
  192.5130  176.3330  146.1640 C   0  0  0  0  0  2  0  0  0  0  0  0
  193.4940  175.2160  146.5130 C   0  0  1  0  0  3  0  0  0  0  0  0
  194.2310  174.8010  145.3010 C   0  0  0  0  0  2  0  0  0  0  0  0
  194.8020  175.6630  146.2520 O   0  0  0  0  0  0  0  0  0  0  0  0
  1 12  1  0  0  0  0
  2 17  1  0  0  0  0
  2 18  1  0  0  0  0
  3  8  2  0  0  0  0
  3  4  1  0  0  0  0
  4 15  2  0  0  0  0
  5 14  1  0  0  0  0
  5 17  2  0  0  0  0
  6 13  2  0  0  0  0
  6  9  1  0  0  0  0
  7  1  2  0  0  0  0
  7 13  1  0  0  0  0
  8 10  1  0  0  0  0
  9  2  2  0  0  0  0
 10  9  1  0  0  0  0
 10 16  2  0  0  0  0
 11 18  1  0  0  0  0
 11 24  1  1  0  0  0
 12 14  2  0  0  0  0
 13  5  1  0  0  0  0
 15 16  1  0  0  0  0
 16 11  1  0  0  0  0
 20 19  1  6  0  0  0
 20 21  1  0  0  0  0
 20  1  1  0  0  0  0
 22 21  1  0  0  0  0
 23 22  1  0  0  0  0
 23 21  1  0  0  0  0
 24 25  1  0  0  0  0
 25 26  1  0  0  0  0
 26 27  1  0  0  0  0
 27 28  3  0  0  0  0
 29 25  1  0  0  0  0
 30 29  1  6  0  0  0
 31 32  1  0  0  0  0
 31 30  1  0  0  0  0
 32 30  1  0  0  0  0
M  END
>  <MODEL>
9

>  <REMARK>
 VINA RESULT:      -6.3      3.353      8.262
  Name = 
  8 active torsions:
  status: ('A' for Active; 'I' for Inactive)
    1  A    between atoms: C_1  and  C_24
    2  A    between atoms: C_2  and  C_24
    3  A    between atoms: C_6  and  N_7
    4  A    between atoms: N_7  and  N_32
    5  A    between atoms: C_11  and  C_22
    6  A    between atoms: C_16  and  C_27
    7  A    between atoms: C_22  and  N_32
    8  A    between atoms: C_27  and  N_32
                            x       y       z     vdW  Elec       q    Type
                         _______ _______ _______ _____ _____    ______ ____

>  <TORSDO>
F 8

$$$$
