=
 OpenBabel11052421403D

 32 36  0  0  1  0  0  0  0  0999 V2000
  188.1640  177.0720  146.1430 C   0  0  0  0  0  0  0  0  0  0  0  0
  192.7560  174.9580  146.0390 C   0  0  0  0  0  0  0  0  0  0  0  0
  193.6200  172.6670  145.4100 C   0  0  2  0  0  3  0  0  0  0  0  0
  194.8090  171.7550  145.3670 C   0  0  0  0  0  0  0  0  0  0  0  0
  190.4130  175.4270  146.4730 C   0  0  0  0  0  0  0  0  0  0  0  0
  191.7270  176.9700  145.1340 C   0  0  0  0  0  3  0  0  0  0  0  0
  197.0070  170.0260  145.1820 C   0  0  0  0  0  3  0  0  0  0  0  0
  189.3870  177.4290  145.5520 C   0  0  0  0  0  3  0  0  0  0  0  0
  192.8580  176.1570  145.2900 C   0  0  0  0  0  0  0  0  0  0  0  0
  194.1730  176.6410  144.7200 C   0  0  2  0  0  3  0  0  0  0  0  0
  195.2610  174.6330  145.7880 C   0  0  2  0  0  3  0  0  0  0  0  0
  195.7080  169.5210  145.0760 C   0  0  0  0  0  3  0  0  0  0  0  0
  188.0750  175.8940  146.8940 C   0  0  0  0  0  3  0  0  0  0  0  0
  190.5090  176.6120  145.7130 C   0  0  0  0  0  0  0  0  0  0  0  0
  194.6130  170.3840  145.1640 C   0  0  0  0  0  3  0  0  0  0  0  0
  189.1960  175.0730  147.0590 C   0  0  0  0  0  3  0  0  0  0  0  0
  195.2040  175.5240  144.5430 C   0  0  1  0  0  3  0  0  0  0  0  0
  196.3410  173.6550  145.7000 N   0  0  0  0  0  2  0  0  0  0  0  0
  191.5320  174.6090  146.6250 C   0  0  0  0  0  3  0  0  0  0  0  0
  193.1430  172.8880  144.1150 O   0  0  0  0  0  1  0  0  0  0  0  0
  197.2100  171.3950  145.3790 C   0  0  0  0  0  3  0  0  0  0  0  0
  193.9070  173.9900  146.1500 C   0  0  1  0  0  3  0  0  0  0  0  0
  196.1170  172.2630  145.4650 C   0  0  0  0  0  0  0  0  0  0  0  0
  194.4420  177.5310  146.9270 O   0  0  0  0  0  1  0  0  0  0  0  0
  194.7700  177.7420  145.5870 C   0  0  0  0  0  2  0  0  0  0  0  0
  195.1190  175.6850  142.3360 C   0  0  0  0  0  1  0  0  0  0  0  0
  194.9340  174.7860  143.3880 O   0  0  0  0  0  0  0  0  0  0  0  0
  186.6690  178.3770  144.8650 N   0  0  0  0  0  0  0  0  0  0  0  0
  187.0020  177.8910  145.9930 N   0  0  0  0  0  0  0  0  0  0  0  0
  185.5060  179.1940  144.7290 C   0  0  0  0  0  0  0  0  0  0  0  0
  184.2550  178.8140  145.4360 C   0  0  0  0  0  1  0  0  0  0  0  0
  185.5290  180.2330  144.0160 O   0  0  0  0  0  0  0  0  0  0  0  0
  1 13  1  0  0  0  0
  2 19  1  0  0  0  0
  3 20  1  6  0  0  0
  3 22  1  0  0  0  0
  4  3  1  0  0  0  0
  4 23  1  0  0  0  0
  5 19  2  0  0  0  0
  5 16  1  0  0  0  0
  6  9  1  0  0  0  0
  6 14  2  0  0  0  0
  7 21  1  0  0  0  0
  8 14  1  0  0  0  0
  8  1  2  0  0  0  0
  9  2  2  0  0  0  0
 10  9  1  0  0  0  0
 10 25  1  1  0  0  0
 11 18  1  6  0  0  0
 11 22  1  0  0  0  0
 12 15  1  0  0  0  0
 12  7  2  0  0  0  0
 13 16  2  0  0  0  0
 14  5  1  0  0  0  0
 15  4  2  0  0  0  0
 17 27  1  6  0  0  0
 17 10  1  0  0  0  0
 17 11  1  0  0  0  0
 21 23  2  0  0  0  0
 22  2  1  6  0  0  0
 23 18  1  0  0  0  0
 25 24  1  0  0  0  0
 26 27  1  0  0  0  0
 28 29  2  0  0  0  0
 29  1  1  0  0  0  0
 30 28  1  0  0  0  0
 30 31  1  0  0  0  0
 32 30  2  0  0  0  0
M  END
>  <MODEL>
1

>  <REMARK>
 VINA RESULT:      -8.4      0.000      0.000
  Name = 
  4 active torsions:
  status: ('A' for Active; 'I' for Inactive)
    1  A    between atoms: C_1  and  N_10
    2  A    between atoms: C_2  and  N_24
    3  A    between atoms: C_13  and  C_15
    4  A    between atoms: O_25  and  C_26
                            x       y       z     vdW  Elec       q    Type
                         _______ _______ _______ _____ _____    ______ ____

>  <TORSDO>
F 4

$$$$
=
 OpenBabel11052421403D

 32 36  0  0  1  0  0  0  0  0999 V2000
  184.6400  178.3470  142.9810 C   0  0  0  0  0  0  0  0  0  0  0  0
  189.3160  176.4240  142.9930 C   0  0  0  0  0  0  0  0  0  0  0  0
  191.1210  176.2060  144.7510 C   0  0  2  0  0  3  0  0  0  0  0  0
  192.5390  175.8140  145.0350 C   0  0  0  0  0  0  0  0  0  0  0  0
  187.3980  177.8950  143.2260 C   0  0  0  0  0  0  0  0  0  0  0  0
  187.0970  175.6420  142.3710 C   0  0  0  0  0  3  0  0  0  0  0  0
  195.1560  175.0220  145.6510 C   0  0  0  0  0  3  0  0  0  0  0  0
  185.1820  177.1030  142.6170 C   0  0  0  0  0  3  0  0  0  0  0  0
  188.4730  175.4030  142.4880 C   0  0  0  0  0  0  0  0  0  0  0  0
  189.0170  174.0840  141.9870 C   0  0  2  0  0  3  0  0  0  0  0  0
  191.3270  174.9570  142.4930 C   0  0  2  0  0  3  0  0  0  0  0  0
  194.4370  175.8190  146.5470 C   0  0  0  0  0  3  0  0  0  0  0  0
  185.4820  179.3550  143.4640 C   0  0  0  0  0  3  0  0  0  0  0  0
  186.5560  176.8740  142.7390 C   0  0  0  0  0  0  0  0  0  0  0  0
  193.1310  176.2100  146.2400 C   0  0  0  0  0  3  0  0  0  0  0  0
  186.8570  179.1310  143.5870 C   0  0  0  0  0  3  0  0  0  0  0  0
  190.3960  173.7420  142.5540 C   0  0  1  0  0  3  0  0  0  0  0  0
  192.6890  174.6120  142.8900 N   0  0  0  0  0  2  0  0  0  0  0  0
  188.7670  177.6610  143.3540 C   0  0  0  0  0  3  0  0  0  0  0  0
  190.2480  175.4010  145.4870 O   0  0  0  0  0  1  0  0  0  0  0  0
  194.5690  174.6180  144.4490 C   0  0  0  0  0  3  0  0  0  0  0  0
  190.7850  176.1890  143.2450 C   0  0  1  0  0  3  0  0  0  0  0  0
  193.2620  175.0060  144.1390 C   0  0  0  0  0  0  0  0  0  0  0  0
  188.2610  173.0590  139.9580 O   0  0  0  0  0  1  0  0  0  0  0  0
  189.0830  174.0660  140.4650 C   0  0  0  0  0  2  0  0  0  0  0  0
  189.4870  172.0990  143.7280 C   0  0  0  0  0  1  0  0  0  0  0  0
  190.2810  173.2400  143.8530 O   0  0  0  0  0  0  0  0  0  0  0  0
  182.6070  178.3960  141.7820 N   0  0  0  0  0  0  0  0  0  0  0  0
  183.2390  178.6050  142.8660 N   0  0  0  0  0  0  0  0  0  0  0  0
  181.2080  178.6590  141.6810 C   0  0  0  0  0  0  0  0  0  0  0  0
  180.4700  178.2470  140.4590 C   0  0  0  0  0  1  0  0  0  0  0  0
  180.5920  179.2350  142.6170 O   0  0  0  0  0  0  0  0  0  0  0  0
  1 13  1  0  0  0  0
  2 19  1  0  0  0  0
  3  4  1  0  0  0  0
  3 20  1  1  0  0  0
  4 15  1  0  0  0  0
  5 19  2  0  0  0  0
  5 16  1  0  0  0  0
  6  9  1  0  0  0  0
  6 14  2  0  0  0  0
  7 12  1  0  0  0  0
  8 14  1  0  0  0  0
  8  1  2  0  0  0  0
  9  2  2  0  0  0  0
 10 25  1  6  0  0  0
 10  9  1  0  0  0  0
 10 17  1  0  0  0  0
 11 17  1  0  0  0  0
 11 18  1  1  0  0  0
 11 22  1  0  0  0  0
 13 16  2  0  0  0  0
 14  5  1  0  0  0  0
 15 12  2  0  0  0  0
 17 27  1  1  0  0  0
 18 23  1  0  0  0  0
 21  7  2  0  0  0  0
 22  2  1  1  0  0  0
 22  3  1  0  0  0  0
 23 21  1  0  0  0  0
 23  4  2  0  0  0  0
 24 25  1  0  0  0  0
 26 27  1  0  0  0  0
 28 29  2  0  0  0  0
 29  1  1  0  0  0  0
 30 28  1  0  0  0  0
 30 32  2  0  0  0  0
 31 30  1  0  0  0  0
M  END
>  <MODEL>
2

>  <REMARK>
 VINA RESULT:      -7.9      3.632      5.630
  Name = 
  4 active torsions:
  status: ('A' for Active; 'I' for Inactive)
    1  A    between atoms: C_1  and  N_10
    2  A    between atoms: C_2  and  N_24
    3  A    between atoms: C_13  and  C_15
    4  A    between atoms: O_25  and  C_26
                            x       y       z     vdW  Elec       q    Type
                         _______ _______ _______ _____ _____    ______ ____

>  <TORSDO>
F 4

$$$$
=
 OpenBabel11052421403D

 32 36  0  0  1  0  0  0  0  0999 V2000
  188.9950  177.0900  145.4560 C   0  0  0  0  0  0  0  0  0  0  0  0
  193.3650  174.5490  145.5740 C   0  0  0  0  0  0  0  0  0  0  0  0
  193.9700  172.0940  145.5600 C   0  0  2  0  0  3  0  0  0  0  0  0
  195.0700  171.0840  145.6810 C   0  0  0  0  0  0  0  0  0  0  0  0
  191.1300  175.3700  146.0520 C   0  0  0  0  0  0  0  0  0  0  0  0
  192.4020  176.3270  144.2180 C   0  0  0  0  0  3  0  0  0  0  0  0
  197.0910  169.1470  145.8150 C   0  0  0  0  0  3  0  0  0  0  0  0
  190.1680  177.1340  144.6850 C   0  0  0  0  0  3  0  0  0  0  0  0
  193.4760  175.4730  144.5050 C   0  0  0  0  0  0  0  0  0  0  0  0
  194.7520  175.6340  143.7090 C   0  0  2  0  0  3  0  0  0  0  0  0
  195.7920  173.8990  145.2130 C   0  0  2  0  0  3  0  0  0  0  0  0
  195.7530  168.7740  145.9710 C   0  0  0  0  0  3  0  0  0  0  0  0
  188.8990  176.1850  146.5200 C   0  0  0  0  0  3  0  0  0  0  0  0
  191.2330  176.2780  144.9780 C   0  0  0  0  0  0  0  0  0  0  0  0
  194.7460  169.7400  145.9000 C   0  0  0  0  0  3  0  0  0  0  0  0
  189.9630  175.3270  146.8170 C   0  0  0  0  0  3  0  0  0  0  0  0
  195.6660  174.4090  143.7750 C   0  0  1  0  0  3  0  0  0  0  0  0
  196.7760  172.8250  145.3200 N   0  0  0  0  0  2  0  0  0  0  0  0
  192.1910  174.5110  146.3380 C   0  0  0  0  0  3  0  0  0  0  0  0
  193.3690  171.9960  144.3030 O   0  0  0  0  0  1  0  0  0  0  0  0
  197.4220  170.4860  145.5910 C   0  0  0  0  0  3  0  0  0  0  0  0
  194.4410  173.5330  145.8600 C   0  0  1  0  0  3  0  0  0  0  0  0
  196.4170  171.4550  145.5170 C   0  0  0  0  0  0  0  0  0  0  0  0
  196.7030  176.9960  143.4260 O   0  0  0  0  0  1  0  0  0  0  0  0
  195.5280  176.8630  144.1670 C   0  0  0  0  0  2  0  0  0  0  0  0
  195.5610  173.8560  141.6330 C   0  0  0  0  0  1  0  0  0  0  0  0
  195.2110  173.4110  142.9080 O   0  0  0  0  0  0  0  0  0  0  0  0
  186.7910  177.8580  145.8060 N   0  0  0  0  0  0  0  0  0  0  0  0
  187.8910  177.9540  145.1750 N   0  0  0  0  0  0  0  0  0  0  0  0
  185.6970  178.7280  145.5160 C   0  0  0  0  0  0  0  0  0  0  0  0
  184.3940  178.5230  146.2000 C   0  0  0  0  0  1  0  0  0  0  0  0
  185.8240  179.6680  144.6860 O   0  0  0  0  0  0  0  0  0  0  0  0
  1 13  1  0  0  0  0
  2 19  1  0  0  0  0
  3 20  1  6  0  0  0
  3  4  1  0  0  0  0
  3 22  1  0  0  0  0
  4 15  1  0  0  0  0
  5 19  2  0  0  0  0
  5 16  1  0  0  0  0
  6  9  1  0  0  0  0
  6 14  2  0  0  0  0
  7 12  1  0  0  0  0
  8 14  1  0  0  0  0
  8  1  2  0  0  0  0
  9  2  2  0  0  0  0
 10 17  1  0  0  0  0
 10 25  1  1  0  0  0
 10  9  1  0  0  0  0
 11 18  1  6  0  0  0
 11 22  1  0  0  0  0
 13 16  2  0  0  0  0
 14  5  1  0  0  0  0
 15 12  2  0  0  0  0
 17 27  1  6  0  0  0
 17 11  1  0  0  0  0
 18 23  1  0  0  0  0
 21  7  2  0  0  0  0
 22  2  1  6  0  0  0
 23 21  1  0  0  0  0
 23  4  2  0  0  0  0
 24 25  1  0  0  0  0
 26 27  1  0  0  0  0
 29  1  1  0  0  0  0
 29 28  2  0  0  0  0
 30 28  1  0  0  0  0
 30 31  1  0  0  0  0
 32 30  2  0  0  0  0
M  END
>  <MODEL>
3

>  <REMARK>
 VINA RESULT:      -7.9      1.231      1.336
  Name = 
  4 active torsions:
  status: ('A' for Active; 'I' for Inactive)
    1  A    between atoms: C_1  and  N_10
    2  A    between atoms: C_2  and  N_24
    3  A    between atoms: C_13  and  C_15
    4  A    between atoms: O_25  and  C_26
                            x       y       z     vdW  Elec       q    Type
                         _______ _______ _______ _____ _____    ______ ____

>  <TORSDO>
F 4

$$$$
=
 OpenBabel11052421403D

 32 36  0  0  1  0  0  0  0  0999 V2000
  185.3270  177.5380  142.6350 C   0  0  0  0  0  0  0  0  0  0  0  0
  189.9250  175.5850  143.4150 C   0  0  0  0  0  0  0  0  0  0  0  0
  192.2400  176.1530  142.5710 C   0  0  2  0  0  3  0  0  0  0  0  0
  193.6820  175.7470  142.5280 C   0  0  0  0  0  0  0  0  0  0  0  0
  187.8890  176.4220  142.3890 C   0  0  0  0  0  0  0  0  0  0  0  0
  188.1040  176.4010  144.8080 C   0  0  0  0  0  3  0  0  0  0  0  0
  196.4060  175.0890  142.4750 C   0  0  0  0  0  3  0  0  0  0  0  0
  186.0800  177.2500  143.7850 C   0  0  0  0  0  3  0  0  0  0  0  0
  189.3850  175.8430  144.6990 C   0  0  0  0  0  0  0  0  0  0  0  0
  190.1090  175.4580  145.9700 C   0  0  2  0  0  3  0  0  0  0  0  0
  191.9250  174.4790  144.5200 C   0  0  2  0  0  3  0  0  0  0  0  0
  195.8910  176.0110  141.5600 C   0  0  0  0  0  3  0  0  0  0  0  0
  185.8620  177.2660  141.3710 C   0  0  0  0  0  3  0  0  0  0  0  0
  187.3570  176.6950  143.6670 C   0  0  0  0  0  0  0  0  0  0  0  0
  194.5330  176.3410  141.5890 C   0  0  0  0  0  3  0  0  0  0  0  0
  187.1390  176.7100  141.2470 C   0  0  0  0  0  3  0  0  0  0  0  0
  191.6190  175.2940  145.7800 C   0  0  1  0  0  3  0  0  0  0  0  0
  193.3500  174.1830  144.4030 N   0  0  0  0  0  2  0  0  0  0  0  0
  189.1680  175.8760  142.2730 C   0  0  0  0  0  3  0  0  0  0  0  0
  192.1150  177.3990  143.1920 O   0  0  0  0  0  1  0  0  0  0  0  0
  195.5630  174.4950  143.4190 C   0  0  0  0  0  3  0  0  0  0  0  0
  191.3380  175.0900  143.2320 C   0  0  1  0  0  3  0  0  0  0  0  0
  194.2040  174.8250  143.4530 C   0  0  0  0  0  0  0  0  0  0  0  0
  188.7650  174.4610  147.6840 O   0  0  0  0  0  1  0  0  0  0  0  0
  189.5350  174.1750  146.5560 C   0  0  0  0  0  2  0  0  0  0  0  0
  193.0120  176.5780  146.9260 C   0  0  0  0  0  1  0  0  0  0  0  0
  192.2490  176.5410  145.7580 O   0  0  0  0  0  0  0  0  0  0  0  0
  183.2070  178.0820  141.7520 N   0  0  0  0  0  0  0  0  0  0  0  0
  184.0190  178.1070  142.7310 N   0  0  0  0  0  0  0  0  0  0  0  0
  181.9030  178.6540  141.8600 C   0  0  0  0  0  0  0  0  0  0  0  0
  180.9310  178.4810  140.7500 C   0  0  0  0  0  1  0  0  0  0  0  0
  181.5680  179.3020  142.8870 O   0  0  0  0  0  0  0  0  0  0  0  0
  1 29  1  0  0  0  0
  1  8  1  0  0  0  0
  2  9  1  0  0  0  0
  3 20  1  1  0  0  0
  3 22  1  0  0  0  0
  4  3  1  0  0  0  0
  4 23  1  0  0  0  0
  5 14  1  0  0  0  0
  7 21  1  0  0  0  0
  9  6  2  0  0  0  0
  9 10  1  0  0  0  0
 10 25  1  6  0  0  0
 11 18  1  6  0  0  0
 11 17  1  0  0  0  0
 12 15  1  0  0  0  0
 12  7  2  0  0  0  0
 13  1  2  0  0  0  0
 14  8  2  0  0  0  0
 14  6  1  0  0  0  0
 15  4  2  0  0  0  0
 16 13  1  0  0  0  0
 16  5  2  0  0  0  0
 17 27  1  6  0  0  0
 17 10  1  0  0  0  0
 19  5  1  0  0  0  0
 19  2  2  0  0  0  0
 21 23  2  0  0  0  0
 22  2  1  1  0  0  0
 22 11  1  0  0  0  0
 23 18  1  0  0  0  0
 25 24  1  0  0  0  0
 27 26  1  0  0  0  0
 28 30  1  0  0  0  0
 28 29  2  0  0  0  0
 30 32  2  0  0  0  0
 31 30  1  0  0  0  0
M  END
>  <MODEL>
4

>  <REMARK>
 VINA RESULT:      -7.5      3.056      4.898
  Name = 
  4 active torsions:
  status: ('A' for Active; 'I' for Inactive)
    1  A    between atoms: C_1  and  N_10
    2  A    between atoms: C_2  and  N_24
    3  A    between atoms: C_13  and  C_15
    4  A    between atoms: O_25  and  C_26
                            x       y       z     vdW  Elec       q    Type
                         _______ _______ _______ _____ _____    ______ ____

>  <TORSDO>
F 4

$$$$
=
 OpenBabel11052421403D

 32 36  0  0  1  0  0  0  0  0999 V2000
  194.3750  173.8280  144.1230 C   0  0  0  0  0  0  0  0  0  0  0  0
  189.5380  175.2640  144.4480 C   0  0  0  0  0  0  0  0  0  0  0  0
  188.2970  176.9450  145.8710 C   0  0  2  0  0  3  0  0  0  0  0  0
  186.9600  177.4990  146.2600 C   0  0  0  0  0  0  0  0  0  0  0  0
  191.7770  174.4750  144.9610 C   0  0  0  0  0  0  0  0  0  0  0  0
  191.1930  175.0550  142.6750 C   0  0  0  0  0  3  0  0  0  0  0  0
  184.4990  178.6360  146.9710 C   0  0  0  0  0  3  0  0  0  0  0  0
  193.4300  174.2840  143.1900 C   0  0  0  0  0  3  0  0  0  0  0  0
  189.8930  175.3820  143.0800 C   0  0  0  0  0  0  0  0  0  0  0  0
  188.8870  175.7700  142.0190 C   0  0  2  0  0  3  0  0  0  0  0  0
  187.1420  175.8380  143.8360 C   0  0  2  0  0  3  0  0  0  0  0  0
  185.6280  178.8580  147.7650 C   0  0  0  0  0  3  0  0  0  0  0  0
  194.0130  173.6990  145.4690 C   0  0  0  0  0  3  0  0  0  0  0  0
  192.1360  174.6090  143.6030 C   0  0  0  0  0  0  0  0  0  0  0  0
  186.8550  178.2940  147.4070 C   0  0  0  0  0  3  0  0  0  0  0  0
  192.7180  174.0220  145.8880 C   0  0  0  0  0  3  0  0  0  0  0  0
  187.6780  176.5230  142.5760 C   0  0  1  0  0  3  0  0  0  0  0  0
  185.9000  176.4530  144.2970 N   0  0  0  0  0  2  0  0  0  0  0  0
  190.4870  174.8090  145.3730 C   0  0  0  0  0  3  0  0  0  0  0  0
  189.0780  177.9490  145.2930 O   0  0  0  0  0  1  0  0  0  0  0  0
  184.5980  177.8480  145.8210 C   0  0  0  0  0  3  0  0  0  0  0  0
  188.1900  175.7050  144.9600 C   0  0  1  0  0  3  0  0  0  0  0  0
  185.8240  177.2840  145.4580 C   0  0  0  0  0  0  0  0  0  0  0  0
  188.1850  174.8680  139.9140 O   0  0  0  0  0  1  0  0  0  0  0  0
  188.4050  174.5440  141.2530 C   0  0  0  0  0  2  0  0  0  0  0  0
  188.5720  178.3080  141.6160 C   0  0  0  0  0  1  0  0  0  0  0  0
  187.9990  177.8630  142.8090 O   0  0  0  0  0  0  0  0  0  0  0  0
  195.9680  173.0820  142.5490 N   0  0  0  0  0  0  0  0  0  0  0  0
  195.7060  173.4900  143.7250 N   0  0  0  0  0  0  0  0  0  0  0  0
  197.3010  172.7470  142.1650 C   0  0  0  0  0  0  0  0  0  0  0  0
  197.9410  173.4660  141.0320 C   0  0  0  0  0  1  0  0  0  0  0  0
  197.9410  171.8500  142.7750 O   0  0  0  0  0  0  0  0  0  0  0  0
  1 13  1  0  0  0  0
  2 19  1  0  0  0  0
  3 20  1  6  0  0  0
  3  4  1  0  0  0  0
  4 15  1  0  0  0  0
  5 19  2  0  0  0  0
  5 16  1  0  0  0  0
  6  9  1  0  0  0  0
  6 14  2  0  0  0  0
  7 12  1  0  0  0  0
  8 14  1  0  0  0  0
  8  1  2  0  0  0  0
  9  2  2  0  0  0  0
 10 25  1  1  0  0  0
 10 17  1  0  0  0  0
 10  9  1  0  0  0  0
 11 18  1  1  0  0  0
 11 22  1  0  0  0  0
 13 16  2  0  0  0  0
 14  5  1  0  0  0  0
 15 12  2  0  0  0  0
 17 27  1  1  0  0  0
 17 11  1  0  0  0  0
 18 23  1  0  0  0  0
 21  7  2  0  0  0  0
 22  2  1  6  0  0  0
 22  3  1  0  0  0  0
 23 21  1  0  0  0  0
 23  4  2  0  0  0  0
 24 25  1  0  0  0  0
 26 27  1  0  0  0  0
 28 29  2  0  0  0  0
 29  1  1  0  0  0  0
 30 28  1  0  0  0  0
 30 32  2  0  0  0  0
 31 30  1  0  0  0  0
M  END
>  <MODEL>
5

>  <REMARK>
 VINA RESULT:      -7.2      3.021      9.253
  Name = 
  4 active torsions:
  status: ('A' for Active; 'I' for Inactive)
    1  A    between atoms: C_1  and  N_10
    2  A    between atoms: C_2  and  N_24
    3  A    between atoms: C_13  and  C_15
    4  A    between atoms: O_25  and  C_26
                            x       y       z     vdW  Elec       q    Type
                         _______ _______ _______ _____ _____    ______ ____

>  <TORSDO>
F 4

$$$$
=
 OpenBabel11052421403D

 32 36  0  0  1  0  0  0  0  0999 V2000
  195.4370  171.5650  144.7200 C   0  0  0  0  0  0  0  0  0  0  0  0
  191.9250  175.1830  144.3410 C   0  0  0  0  0  0  0  0  0  0  0  0
  189.8110  175.4420  142.9790 C   0  0  2  0  0  3  0  0  0  0  0  0
  188.6900  176.3560  142.5850 C   0  0  0  0  0  0  0  0  0  0  0  0
  193.6360  173.5320  143.8480 C   0  0  0  0  0  0  0  0  0  0  0  0
  192.9370  173.8990  146.1450 C   0  0  0  0  0  3  0  0  0  0  0  0
  186.5230  177.9830  141.8690 C   0  0  0  0  0  3  0  0  0  0  0  0
  194.6320  172.2420  145.6510 C   0  0  0  0  0  3  0  0  0  0  0  0
  192.0330  174.8830  145.7220 C   0  0  0  0  0  0  0  0  0  0  0  0
  191.2660  175.6510  146.7750 C   0  0  2  0  0  3  0  0  0  0  0  0
  190.3360  177.0770  144.9160 C   0  0  2  0  0  3  0  0  0  0  0  0
  186.8170  176.8400  141.1210 C   0  0  0  0  0  3  0  0  0  0  0  0
  195.3360  171.8780  143.3590 C   0  0  0  0  0  3  0  0  0  0  0  0
  193.7330  173.2210  145.2200 C   0  0  0  0  0  0  0  0  0  0  0  0
  187.8950  176.0270  141.4800 C   0  0  0  0  0  3  0  0  0  0  0  0
  194.4380  172.8580  142.9230 C   0  0  0  0  0  3  0  0  0  0  0  0
  190.0210  176.3510  146.2270 C   0  0  1  0  0  3  0  0  0  0  0  0
  189.2020  177.8740  144.4560 N   0  0  0  0  0  2  0  0  0  0  0  0
  192.7320  174.5040  143.4190 C   0  0  0  0  0  3  0  0  0  0  0  0
  189.3010  174.3180  143.6340 O   0  0  0  0  0  1  0  0  0  0  0  0
  187.3090  178.3140  142.9770 C   0  0  0  0  0  3  0  0  0  0  0  0
  190.8950  176.1520  143.8170 C   0  0  1  0  0  3  0  0  0  0  0  0
  188.3880  177.5020  143.3410 C   0  0  0  0  0  0  0  0  0  0  0  0
  191.5020  177.2360  148.5560 O   0  0  0  0  0  1  0  0  0  0  0  0
  192.1590  176.6790  147.4580 C   0  0  0  0  0  2  0  0  0  0  0  0
  188.9860  174.6800  147.2490 C   0  0  0  0  0  1  0  0  0  0  0  0
  188.9720  175.4400  146.0780 O   0  0  0  0  0  0  0  0  0  0  0  0
  196.1790  169.8780  146.1940 N   0  0  0  0  0  0  0  0  0  0  0  0
  196.3640  170.5600  145.1360 N   0  0  0  0  0  0  0  0  0  0  0  0
  197.1130  168.8760  146.5980 C   0  0  0  0  0  0  0  0  0  0  0  0
  197.1090  168.3920  148.0030 C   0  0  0  0  0  1  0  0  0  0  0  0
  197.9400  168.3980  145.7760 O   0  0  0  0  0  0  0  0  0  0  0  0
  1 29  1  0  0  0  0
  1  8  1  0  0  0  0
  2  9  1  0  0  0  0
  3 20  1  1  0  0  0
  3 22  1  0  0  0  0
  4  3  1  0  0  0  0
  4 23  1  0  0  0  0
  5 14  1  0  0  0  0
  7 21  1  0  0  0  0
  9  6  2  0  0  0  0
  9 10  1  0  0  0  0
 10 25  1  6  0  0  0
 11 18  1  6  0  0  0
 11 17  1  0  0  0  0
 12 15  1  0  0  0  0
 12  7  2  0  0  0  0
 13  1  2  0  0  0  0
 14  8  2  0  0  0  0
 14  6  1  0  0  0  0
 15  4  2  0  0  0  0
 16 13  1  0  0  0  0
 16  5  2  0  0  0  0
 17 27  1  6  0  0  0
 17 10  1  0  0  0  0
 19  5  1  0  0  0  0
 19  2  2  0  0  0  0
 21 23  2  0  0  0  0
 22  2  1  1  0  0  0
 22 11  1  0  0  0  0
 23 18  1  0  0  0  0
 25 24  1  0  0  0  0
 27 26  1  0  0  0  0
 28 30  1  0  0  0  0
 29 28  2  0  0  0  0
 30 31  1  0  0  0  0
 32 30  2  0  0  0  0
M  END
>  <MODEL>
6

>  <REMARK>
 VINA RESULT:      -7.2      2.901      8.915
  Name = 
  4 active torsions:
  status: ('A' for Active; 'I' for Inactive)
    1  A    between atoms: C_1  and  N_10
    2  A    between atoms: C_2  and  N_24
    3  A    between atoms: C_13  and  C_15
    4  A    between atoms: O_25  and  C_26
                            x       y       z     vdW  Elec       q    Type
                         _______ _______ _______ _____ _____    ______ ____

>  <TORSDO>
F 4

$$$$
=
 OpenBabel11052421403D

 32 36  0  0  1  0  0  0  0  0999 V2000
  188.2210  177.2570  143.3080 C   0  0  0  0  0  0  0  0  0  0  0  0
  192.7340  174.9810  143.1790 C   0  0  0  0  0  0  0  0  0  0  0  0
  194.2290  174.1490  141.3170 C   0  0  2  0  0  3  0  0  0  0  0  0
  195.4780  173.3980  140.9670 C   0  0  0  0  0  0  0  0  0  0  0  0
  190.3910  175.5360  142.8630 C   0  0  0  0  0  0  0  0  0  0  0  0
  191.8110  176.9970  144.1840 C   0  0  0  0  0  3  0  0  0  0  0  0
  197.8410  172.0760  140.2450 C   0  0  0  0  0  3  0  0  0  0  0  0
  189.4790  177.5580  143.8550 C   0  0  0  0  0  3  0  0  0  0  0  0
  192.9040  176.1460  143.9690 C   0  0  0  0  0  0  0  0  0  0  0  0
  194.2080  176.4640  144.6660 C   0  0  2  0  0  3  0  0  0  0  0  0
  195.1130  174.2980  143.7460 C   0  0  2  0  0  3  0  0  0  0  0  0
  196.8460  172.3020  139.2900 C   0  0  0  0  0  3  0  0  0  0  0  0
  188.0590  176.0960  142.5420 C   0  0  0  0  0  3  0  0  0  0  0  0
  190.5630  176.7040  143.6350 C   0  0  0  0  0  0  0  0  0  0  0  0
  195.6690  172.9650  139.6500 C   0  0  0  0  0  3  0  0  0  0  0  0
  189.1400  175.2380  142.3190 C   0  0  0  0  0  3  0  0  0  0  0  0
  195.4170  175.7710  144.0340 C   0  0  1  0  0  3  0  0  0  0  0  0
  196.2990  173.5840  143.2830 N   0  0  0  0  0  2  0  0  0  0  0  0
  191.4760  174.6890  142.6370 C   0  0  0  0  0  3  0  0  0  0  0  0
  194.3200  175.4650  140.8590 O   0  0  0  0  0  1  0  0  0  0  0  0
  197.6590  172.5110  141.5610 C   0  0  0  0  0  3  0  0  0  0  0  0
  193.8960  174.0870  142.8230 C   0  0  1  0  0  3  0  0  0  0  0  0
  196.4840  173.1760  141.9250 C   0  0  0  0  0  0  0  0  0  0  0  0
  194.2310  177.2500  146.9290 O   0  0  0  0  0  1  0  0  0  0  0  0
  194.1380  176.1000  146.1440 C   0  0  0  0  0  2  0  0  0  0  0  0
  197.1250  176.8790  143.1610 C   0  0  0  0  0  1  0  0  0  0  0  0
  195.8260  176.4520  142.8830 O   0  0  0  0  0  0  0  0  0  0  0  0
  186.6290  178.3290  144.6820 N   0  0  0  0  0  0  0  0  0  0  0  0
  187.0980  178.1150  143.5190 N   0  0  0  0  0  0  0  0  0  0  0  0
  185.5060  179.1880  144.8780 C   0  0  0  0  0  0  0  0  0  0  0  0
  184.4830  178.8380  145.8970 C   0  0  0  0  0  1  0  0  0  0  0  0
  185.3740  180.2400  144.1970 O   0  0  0  0  0  0  0  0  0  0  0  0
  1 29  1  0  0  0  0
  1  8  1  0  0  0  0
  2  9  1  0  0  0  0
  3 20  1  1  0  0  0
  3 22  1  0  0  0  0
  4  3  1  0  0  0  0
  4 23  1  0  0  0  0
  5 14  1  0  0  0  0
  7 21  1  0  0  0  0
  9  6  2  0  0  0  0
  9 10  1  0  0  0  0
 10 25  1  1  0  0  0
 11 18  1  6  0  0  0
 11 17  1  0  0  0  0
 12 15  1  0  0  0  0
 12  7  2  0  0  0  0
 13  1  2  0  0  0  0
 14  8  2  0  0  0  0
 14  6  1  0  0  0  0
 15  4  2  0  0  0  0
 16 13  1  0  0  0  0
 16  5  2  0  0  0  0
 17 27  1  6  0  0  0
 17 10  1  0  0  0  0
 19  5  1  0  0  0  0
 19  2  2  0  0  0  0
 21 23  2  0  0  0  0
 22  2  1  1  0  0  0
 22 11  1  0  0  0  0
 23 18  1  0  0  0  0
 25 24  1  0  0  0  0
 27 26  1  0  0  0  0
 28 30  1  0  0  0  0
 29 28  2  0  0  0  0
 30 31  1  0  0  0  0
 32 30  2  0  0  0  0
M  END
>  <MODEL>
7

>  <REMARK>
 VINA RESULT:      -7.1      2.598      3.251
  Name = 
  4 active torsions:
  status: ('A' for Active; 'I' for Inactive)
    1  A    between atoms: C_1  and  N_10
    2  A    between atoms: C_2  and  N_24
    3  A    between atoms: C_13  and  C_15
    4  A    between atoms: O_25  and  C_26
                            x       y       z     vdW  Elec       q    Type
                         _______ _______ _______ _____ _____    ______ ____

>  <TORSDO>
F 4

$$$$
=
 OpenBabel11052421403D

 32 36  0  0  1  0  0  0  0  0999 V2000
  186.8740  177.2520  142.6930 C   0  0  0  0  0  0  0  0  0  0  0  0
  191.2260  175.2400  144.2980 C   0  0  0  0  0  0  0  0  0  0  0  0
  193.3910  174.6020  143.1580 C   0  0  2  0  0  3  0  0  0  0  0  0
  194.7290  173.9430  143.3100 C   0  0  0  0  0  0  0  0  0  0  0  0
  189.1650  175.6820  143.0930 C   0  0  0  0  0  0  0  0  0  0  0  0
  189.8350  177.1390  144.9170 C   0  0  0  0  0  3  0  0  0  0  0  0
  197.2760  172.7980  143.5450 C   0  0  0  0  0  3  0  0  0  0  0  0
  187.7880  177.5890  143.7050 C   0  0  0  0  0  3  0  0  0  0  0  0
  190.9830  176.3630  145.1270 C   0  0  0  0  0  0  0  0  0  0  0  0
  191.8790  176.7110  146.2950 C   0  0  2  0  0  3  0  0  0  0  0  0
  193.2310  174.6560  145.7410 C   0  0  2  0  0  3  0  0  0  0  0  0
  196.7250  173.0250  142.2810 C   0  0  0  0  0  3  0  0  0  0  0  0
  187.1130  176.1320  141.8880 C   0  0  0  0  0  3  0  0  0  0  0  0
  188.9300  176.8100  143.9060 C   0  0  0  0  0  0  0  0  0  0  0  0
  195.4560  173.5990  142.1640 C   0  0  0  0  0  3  0  0  0  0  0  0
  188.2550  175.3490  142.0870 C   0  0  0  0  0  3  0  0  0  0  0  0
  193.2870  176.1240  146.1740 C   0  0  1  0  0  3  0  0  0  0  0  0
  194.5530  174.0370  145.7650 N   0  0  0  0  0  2  0  0  0  0  0  0
  190.3100  174.9110  143.2900 C   0  0  0  0  0  3  0  0  0  0  0  0
  193.5590  175.9460  142.8170 O   0  0  0  0  0  1  0  0  0  0  0  0
  196.5570  173.1430  144.6930 C   0  0  0  0  0  3  0  0  0  0  0  0
  192.4960  174.4330  144.4040 C   0  0  1  0  0  3  0  0  0  0  0  0
  195.2890  173.7200  144.5810 C   0  0  0  0  0  0  0  0  0  0  0  0
  191.5610  177.1650  148.6250 O   0  0  0  0  0  1  0  0  0  0  0  0
  191.2590  176.2570  147.6100 C   0  0  0  0  0  2  0  0  0  0  0  0
  194.8440  177.6990  146.1360 C   0  0  0  0  0  1  0  0  0  0  0  0
  194.0650  176.8930  145.3040 O   0  0  0  0  0  0  0  0  0  0  0  0
  184.5340  177.5290  142.5540 N   0  0  0  0  0  0  0  0  0  0  0  0
  185.6990  178.0340  142.4670 N   0  0  0  0  0  0  0  0  0  0  0  0
  183.3690  178.3210  142.3260 C   0  0  0  0  0  0  0  0  0  0  0  0
  182.7130  178.2950  140.9920 C   0  0  0  0  0  1  0  0  0  0  0  0
  182.8900  179.0410  143.2420 O   0  0  0  0  0  0  0  0  0  0  0  0
  1  8  1  0  0  0  0
  2  9  1  0  0  0  0
  3 20  1  1  0  0  0
  3  4  1  0  0  0  0
  3 22  1  0  0  0  0
  4 23  1  0  0  0  0
  5 19  1  0  0  0  0
  5 14  1  0  0  0  0
  6  9  2  0  0  0  0
  7 21  1  0  0  0  0
  8 14  2  0  0  0  0
  9 10  1  0  0  0  0
 10 25  1  1  0  0  0
 11 18  1  6  0  0  0
 11 17  1  0  0  0  0
 12  7  2  0  0  0  0
 13 16  1  0  0  0  0
 13  1  2  0  0  0  0
 14  6  1  0  0  0  0
 15 12  1  0  0  0  0
 15  4  2  0  0  0  0
 16  5  2  0  0  0  0
 17 27  1  6  0  0  0
 17 10  1  0  0  0  0
 19  2  2  0  0  0  0
 22  2  1  6  0  0  0
 22 11  1  0  0  0  0
 23 21  2  0  0  0  0
 23 18  1  0  0  0  0
 25 24  1  0  0  0  0
 27 26  1  0  0  0  0
 29 28  2  0  0  0  0
 29  1  1  0  0  0  0
 30 28  1  0  0  0  0
 30 32  2  0  0  0  0
 31 30  1  0  0  0  0
M  END
>  <MODEL>
8

>  <REMARK>
 VINA RESULT:      -7.0      2.513      3.333
  Name = 
  4 active torsions:
  status: ('A' for Active; 'I' for Inactive)
    1  A    between atoms: C_1  and  N_10
    2  A    between atoms: C_2  and  N_24
    3  A    between atoms: C_13  and  C_15
    4  A    between atoms: O_25  and  C_26
                            x       y       z     vdW  Elec       q    Type
                         _______ _______ _______ _____ _____    ______ ____

>  <TORSDO>
F 4

$$$$
=
 OpenBabel11052421403D

 32 36  0  0  1  0  0  0  0  0999 V2000
  192.8780  176.2620  144.8050 C   0  0  0  0  0  0  0  0  0  0  0  0
  188.1430  177.9990  144.4530 C   0  0  0  0  0  0  0  0  0  0  0  0
  186.2390  177.5940  142.8400 C   0  0  2  0  0  3  0  0  0  0  0  0
  184.8560  177.9930  142.4230 C   0  0  0  0  0  0  0  0  0  0  0  0
  190.4460  177.3900  143.9800 C   0  0  0  0  0  0  0  0  0  0  0  0
  189.5020  176.9380  146.1710 C   0  0  0  0  0  3  0  0  0  0  0  0
  182.2410  178.6330  141.6440 C   0  0  0  0  0  3  0  0  0  0  0  0
  191.7930  176.3160  145.6940 C   0  0  0  0  0  3  0  0  0  0  0  0
  188.2810  177.4980  145.7720 C   0  0  0  0  0  0  0  0  0  0  0  0
  187.1790  177.6240  146.8000 C   0  0  2  0  0  3  0  0  0  0  0  0
  185.8330  178.8570  145.0620 C   0  0  2  0  0  3  0  0  0  0  0  0
  183.0710  177.9100  140.7820 C   0  0  0  0  0  3  0  0  0  0  0  0
  192.7390  176.7730  143.5090 C   0  0  0  0  0  3  0  0  0  0  0  0
  190.5790  176.8760  145.2860 C   0  0  0  0  0  0  0  0  0  0  0  0
  184.3730  177.5880  141.1730 C   0  0  0  0  0  3  0  0  0  0  0  0
  191.5260  177.3350  143.0970 C   0  0  0  0  0  3  0  0  0  0  0  0
  185.7920  177.8140  146.1820 C   0  0  1  0  0  3  0  0  0  0  0  0
  184.4950  179.1620  144.5620 N   0  0  0  0  0  2  0  0  0  0  0  0
  189.2310  177.9410  143.5720 C   0  0  0  0  0  3  0  0  0  0  0  0
  186.2510  176.2520  143.2290 O   0  0  0  0  0  1  0  0  0  0  0  0
  182.7140  179.0350  142.8960 C   0  0  0  0  0  3  0  0  0  0  0  0
  186.8240  178.5130  143.9320 C   0  0  1  0  0  3  0  0  0  0  0  0
  184.0160  178.7130  143.2920 C   0  0  0  0  0  0  0  0  0  0  0  0
  186.2660  179.2730  148.2780 O   0  0  0  0  0  1  0  0  0  0  0  0
  187.4610  178.7720  147.7620 C   0  0  0  0  0  2  0  0  0  0  0  0
  184.8160  175.9550  146.8870 C   0  0  0  0  0  1  0  0  0  0  0  0
  185.2840  176.5910  145.7360 O   0  0  0  0  0  0  0  0  0  0  0  0
  194.9660  175.2610  144.3410 N   0  0  0  0  0  0  0  0  0  0  0  0
  194.1300  175.6930  145.1980 N   0  0  0  0  0  0  0  0  0  0  0  0
  196.2110  174.6960  144.7480 C   0  0  0  0  0  0  0  0  0  0  0  0
  196.2340  173.6520  145.8060 C   0  0  0  0  0  1  0  0  0  0  0  0
  197.2920  175.0710  144.2190 O   0  0  0  0  0  0  0  0  0  0  0  0
  1 29  1  0  0  0  0
  1  8  1  0  0  0  0
  2  9  1  0  0  0  0
  3 20  1  1  0  0  0
  3 22  1  0  0  0  0
  4  3  1  0  0  0  0
  4 23  1  0  0  0  0
  5 14  1  0  0  0  0
  7 21  1  0  0  0  0
  9  6  2  0  0  0  0
  9 10  1  0  0  0  0
 10 25  1  1  0  0  0
 11 18  1  6  0  0  0
 11 17  1  0  0  0  0
 12 15  1  0  0  0  0
 12  7  2  0  0  0  0
 13  1  2  0  0  0  0
 14  8  2  0  0  0  0
 14  6  1  0  0  0  0
 15  4  2  0  0  0  0
 16 13  1  0  0  0  0
 16  5  2  0  0  0  0
 17 27  1  6  0  0  0
 17 10  1  0  0  0  0
 19  5  1  0  0  0  0
 19  2  2  0  0  0  0
 21 23  2  0  0  0  0
 22  2  1  1  0  0  0
 22 11  1  0  0  0  0
 23 18  1  0  0  0  0
 25 24  1  0  0  0  0
 27 26  1  0  0  0  0
 28 30  1  0  0  0  0
 28 29  2  0  0  0  0
 30 31  1  0  0  0  0
 32 30  2  0  0  0  0
M  END
>  <MODEL>
9

>  <REMARK>
 VINA RESULT:      -6.9      2.593      9.914
  Name = 
  4 active torsions:
  status: ('A' for Active; 'I' for Inactive)
    1  A    between atoms: C_1  and  N_10
    2  A    between atoms: C_2  and  N_24
    3  A    between atoms: C_13  and  C_15
    4  A    between atoms: O_25  and  C_26
                            x       y       z     vdW  Elec       q    Type
                         _______ _______ _______ _____ _____    ______ ____

>  <TORSDO>
F 4

$$$$
