=
 OpenBabel11052421403D

 32 38  0  0  1  0  0  0  0  0999 V2000
  193.6100  174.6790  145.1820 C   0  0  0  0  0  0  0  0  0  0  0  0
  189.9030  177.2000  144.2430 C   0  0  2  0  0  3  0  0  0  0  0  0
  188.9130  174.8170  147.2620 C   0  0  0  0  0  2  0  0  0  0  0  0
  187.8690  177.5820  142.7880 C   0  0  0  0  0  0  0  0  0  0  0  0
  186.4340  177.8610  142.6020 C   0  0  0  0  0  0  0  0  0  0  0  0
  192.3110  177.1650  144.4020 C   0  0  1  0  0  3  0  0  0  0  0  0
  191.0170  177.0200  146.5000 O   0  0  0  0  0  0  0  0  0  0  0  0
  183.7290  178.5070  142.2670 C   0  0  0  0  0  3  0  0  0  0  0  0
  192.3440  174.9760  145.9480 C   0  0  0  0  0  2  0  0  0  0  0  0
  188.4020  176.1410  146.7720 C   0  0  1  0  0  3  0  0  0  0  0  0
  190.2540  176.4030  145.4770 C   0  0  1  0  0  0  0  0  0  0  0  0
  189.3040  175.2980  145.8810 C   0  0  1  0  0  3  0  0  0  0  0  0
  187.5000  177.8090  145.2870 C   0  0  2  0  0  3  0  0  0  0  0  0
  184.4720  178.0300  141.1850 C   0  0  0  0  0  3  0  0  0  0  0  0
  193.8720  175.2720  144.0010 C   0  0  0  0  0  3  0  0  0  0  0  0
  191.7140  176.2980  145.5100 C   0  0  2  0  0  0  0  0  0  0  0  0
  185.8230  177.7100  141.3490 C   0  0  0  0  0  3  0  0  0  0  0  0
  192.9200  176.2380  143.3550 C   0  0  0  0  0  2  0  0  0  0  0  0
  187.2360  176.3920  145.8510 C   0  0  2  0  0  3  0  0  0  0  0  0
  186.2710  178.4600  144.9500 O   0  0  0  0  0  0  0  0  0  0  0  0
  191.1440  177.9570  143.8050 C   0  0  0  0  0  2  0  0  0  0  0  0
  188.5550  177.1420  141.8240 O   0  0  0  0  0  0  0  0  0  0  0  0
  184.3330  178.6570  143.5200 C   0  0  0  0  0  3  0  0  0  0  0  0
  188.5270  177.9070  144.1090 C   0  0  1  0  0  3  0  0  0  0  0  0
  185.6800  178.3240  143.6920 C   0  0  0  0  0  0  0  0  0  0  0  0
  186.3180  177.1880  147.7000 C   0  0  0  0  0  1  0  0  0  0  0  0
  186.0560  176.3730  146.5980 O   0  0  0  0  0  0  0  0  0  0  0  0
  194.5040  173.7590  145.7390 O   0  0  0  0  0  0  0  0  0  0  0  0
  195.5650  173.1630  145.0040 C   0  0  0  0  0  2  0  0  0  0  0  0
  196.8700  173.6490  145.5260 C   0  0  0  0  0  0  0  0  0  0  0  0
  197.1330  173.5480  146.7540 O   0  0  0  0  0  0  0  0  0  0  0  0
  197.8030  174.2660  144.6490 N   0  0  0  0  0  1  0  0  0  0  0  0
  1 28  1  0  0  0  0
  1  9  1  0  0  0  0
  2 21  1  1  0  0  0
  2 11  1  0  0  0  0
  5  4  1  0  0  0  0
  5 25  1  0  0  0  0
  6 18  1  6  0  0  0
  6 16  1  0  0  0  0
  8 23  1  0  0  0  0
 10  3  1  1  0  0  0
 11 16  1  0  0  0  0
 11 12  1  0  0  0  0
 11  7  1  1  0  0  0
 12 10  1  0  0  0  0
 12  3  1  1  0  0  0
 13 20  1  6  0  0  0
 13 19  1  0  0  0  0
 14 17  1  0  0  0  0
 14  8  2  0  0  0  0
 15  1  2  0  0  0  0
 16  9  1  1  0  0  0
 16  7  1  0  0  0  0
 17  5  2  0  0  0  0
 18 15  1  0  0  0  0
 19 27  1  1  0  0  0
 19 10  1  0  0  0  0
 21  6  1  0  0  0  0
 22  4  2  0  0  0  0
 23 25  2  0  0  0  0
 24  4  1  6  0  0  0
 24  2  1  0  0  0  0
 24 13  1  0  0  0  0
 25 20  1  0  0  0  0
 27 26  1  0  0  0  0
 29 30  1  0  0  0  0
 29 28  1  0  0  0  0
 30 31  2  0  0  0  0
 32 30  1  0  0  0  0
M  END
>  <MODEL>
1

>  <REMARK>
 VINA RESULT:      -8.8      0.000      0.000
  Name = 
  4 active torsions:
  status: ('A' for Active; 'I' for Inactive)
    1  A    between atoms: C_1  and  C_10
    2  A    between atoms: C_2  and  O_24
    3  A    between atoms: C_10  and  O_24
    4  A    between atoms: O_25  and  C_26
                            x       y       z     vdW  Elec       q    Type
                         _______ _______ _______ _____ _____    ______ ____

>  <TORSDO>
F 4

$$$$
=
 OpenBabel11052421403D

 32 38  0  0  1  0  0  0  0  0999 V2000
  183.0610  178.3260  142.0830 C   0  0  0  0  0  0  0  0  0  0  0  0
  187.1210  178.0570  144.1860 C   0  0  2  0  0  3  0  0  0  0  0  0
  187.5150  176.1570  140.7210 C   0  0  0  0  0  2  0  0  0  0  0  0
  188.5780  176.9310  145.9200 C   0  0  0  0  0  0  0  0  0  0  0  0
  189.8390  176.3030  146.3530 C   0  0  0  0  0  0  0  0  0  0  0  0
  185.1860  179.4290  143.7380 C   0  0  1  0  0  3  0  0  0  0  0  0
  186.7320  178.9730  141.8670 O   0  0  0  0  0  0  0  0  0  0  0  0
  192.2820  175.2170  147.1900 C   0  0  0  0  0  3  0  0  0  0  0  0
  184.4500  177.9890  141.6010 C   0  0  0  0  0  2  0  0  0  0  0  0
  188.4800  176.8330  141.6520 C   0  0  1  0  0  3  0  0  0  0  0  0
  186.7580  177.8530  142.7340 C   0  0  1  0  0  0  0  0  0  0  0  0
  187.0720  176.5040  142.1270 C   0  0  1  0  0  3  0  0  0  0  0  0
  189.6720  177.3750  143.6740 C   0  0  2  0  0  3  0  0  0  0  0  0
  191.1390  175.0540  147.9760 C   0  0  0  0  0  3  0  0  0  0  0  0
  182.8330  178.7270  143.3480 C   0  0  0  0  0  3  0  0  0  0  0  0
  185.5260  178.6050  142.4970 C   0  0  2  0  0  0  0  0  0  0  0  0
  189.9200  175.5970  147.5620 C   0  0  0  0  0  3  0  0  0  0  0  0
  183.9310  178.8370  144.3690 C   0  0  0  0  0  2  0  0  0  0  0  0
  189.3090  176.1960  142.7380 C   0  0  2  0  0  3  0  0  0  0  0  0
  190.9150  177.1330  144.3390 O   0  0  0  0  0  0  0  0  0  0  0  0
  186.3820  179.2870  144.6850 C   0  0  0  0  0  2  0  0  0  0  0  0
  187.5330  176.7870  146.6130 O   0  0  0  0  0  0  0  0  0  0  0  0
  192.2070  175.9170  145.9810 C   0  0  0  0  0  3  0  0  0  0  0  0
  188.5680  177.8150  144.6950 C   0  0  1  0  0  3  0  0  0  0  0  0
  190.9860  176.4500  145.5560 C   0  0  0  0  0  0  0  0  0  0  0  0
  190.3330  174.2730  142.3560 C   0  0  0  0  0  1  0  0  0  0  0  0
  190.4610  175.6500  142.1680 O   0  0  0  0  0  0  0  0  0  0  0  0
  182.0110  178.2050  141.1670 O   0  0  0  0  0  0  0  0  0  0  0  0
  180.6450  178.3840  141.5220 C   0  0  0  0  0  2  0  0  0  0  0  0
  179.9890  179.2860  140.5400 C   0  0  0  0  0  0  0  0  0  0  0  0
  180.3190  180.5000  140.4810 O   0  0  0  0  0  0  0  0  0  0  0  0
  178.9580  178.7900  139.6950 N   0  0  0  0  0  1  0  0  0  0  0  0
  1 15  2  0  0  0  0
  2 21  1  6  0  0  0
  2 24  1  0  0  0  0
  4  5  1  0  0  0  0
  4 22  2  0  0  0  0
  5 17  1  0  0  0  0
  6 18  1  1  0  0  0
  6 21  1  0  0  0  0
  7 16  1  0  0  0  0
  8 14  1  0  0  0  0
  9  1  1  0  0  0  0
 10  3  1  6  0  0  0
 10 12  1  0  0  0  0
 10 19  1  0  0  0  0
 11  7  1  6  0  0  0
 11  2  1  0  0  0  0
 12  3  1  6  0  0  0
 12 11  1  0  0  0  0
 13 20  1  1  0  0  0
 13 24  1  0  0  0  0
 15 18  1  0  0  0  0
 16  9  1  6  0  0  0
 16 11  1  0  0  0  0
 16  6  1  0  0  0  0
 17 14  2  0  0  0  0
 19 27  1  6  0  0  0
 19 13  1  0  0  0  0
 20 25  1  0  0  0  0
 23  8  2  0  0  0  0
 24  4  1  1  0  0  0
 25 23  1  0  0  0  0
 25  5  2  0  0  0  0
 27 26  1  0  0  0  0
 28 29  1  0  0  0  0
 28  1  1  0  0  0  0
 30 29  1  0  0  0  0
 31 30  2  0  0  0  0
 32 30  1  0  0  0  0
M  END
>  <MODEL>
2

>  <REMARK>
 VINA RESULT:      -8.5      4.332      9.519
  Name = 
  4 active torsions:
  status: ('A' for Active; 'I' for Inactive)
    1  A    between atoms: C_1  and  C_10
    2  A    between atoms: C_2  and  O_24
    3  A    between atoms: C_10  and  O_24
    4  A    between atoms: O_25  and  C_26
                            x       y       z     vdW  Elec       q    Type
                         _______ _______ _______ _____ _____    ______ ____

>  <TORSDO>
F 4

$$$$
=
 OpenBabel11052421403D

 32 38  0  0  1  0  0  0  0  0999 V2000
  184.8760  178.2030  141.1180 C   0  0  0  0  0  0  0  0  0  0  0  0
  188.5720  176.4430  143.1730 C   0  0  2  0  0  3  0  0  0  0  0  0
  186.3410  178.0460  146.0410 C   0  0  0  0  0  2  0  0  0  0  0  0
  191.0140  176.6850  143.7890 C   0  0  0  0  0  0  0  0  0  0  0  0
  192.1260  176.6250  144.7550 C   0  0  0  0  0  0  0  0  0  0  0  0
  186.9360  176.1680  141.4200 C   0  0  1  0  0  3  0  0  0  0  0  0
  186.1780  175.9000  143.7540 O   0  0  0  0  0  0  0  0  0  0  0  0
  194.2430  176.3930  146.5750 C   0  0  0  0  0  3  0  0  0  0  0  0
  185.1910  177.8580  142.5530 C   0  0  0  0  0  2  0  0  0  0  0  0
  187.3800  176.9620  146.0150 C   0  0  1  0  0  3  0  0  0  0  0  0
  187.2350  176.8450  143.7470 C   0  0  1  0  0  0  0  0  0  0  0  0
  187.2360  177.9040  144.8270 C   0  0  1  0  0  3  0  0  0  0  0  0
  189.4840  175.8520  145.6340 C   0  0  2  0  0  3  0  0  0  0  0  0
  194.4360  177.0530  145.3580 C   0  0  0  0  0  3  0  0  0  0  0  0
  185.7340  177.9150  140.1210 C   0  0  0  0  0  3  0  0  0  0  0  0
  186.2660  176.7750  142.6520 C   0  0  2  0  0  0  0  0  0  0  0  0
  193.3820  177.1660  144.4470 C   0  0  0  0  0  3  0  0  0  0  0  0
  187.0660  177.2630  140.3660 C   0  0  0  0  0  2  0  0  0  0  0  0
  188.8520  177.0920  146.3110 C   0  0  2  0  0  3  0  0  0  0  0  0
  190.6770  175.4530  146.3130 O   0  0  0  0  0  0  0  0  0  0  0  0
  188.3200  175.6950  141.8760 C   0  0  0  0  0  2  0  0  0  0  0  0
  191.1680  177.2830  142.6890 O   0  0  0  0  0  0  0  0  0  0  0  0
  192.9910  175.8550  146.8880 C   0  0  0  0  0  3  0  0  0  0  0  0
  189.7260  175.9530  144.0900 C   0  0  1  0  0  3  0  0  0  0  0  0
  191.9300  175.9790  145.9860 C   0  0  0  0  0  0  0  0  0  0  0  0
  189.6910  178.2430  148.0040 C   0  0  0  0  0  1  0  0  0  0  0  0
  189.0420  177.0460  147.6940 O   0  0  0  0  0  0  0  0  0  0  0  0
  183.6580  178.8390  140.8580 O   0  0  0  0  0  0  0  0  0  0  0  0
  182.4850  178.1390  140.4610 C   0  0  0  0  0  2  0  0  0  0  0  0
  181.3120  178.6700  141.2040 C   0  0  0  0  0  0  0  0  0  0  0  0
  181.4390  179.0410  142.4000 O   0  0  0  0  0  0  0  0  0  0  0  0
  180.0360  178.7200  140.5780 N   0  0  0  0  0  1  0  0  0  0  0  0
  1  9  1  0  0  0  0
  2 21  1  6  0  0  0
  2 11  1  0  0  0  0
  2 24  1  0  0  0  0
  4  5  1  0  0  0  0
  5 25  1  0  0  0  0
  6 18  1  6  0  0  0
  6 21  1  0  0  0  0
  6 16  1  0  0  0  0
  8 23  1  0  0  0  0
 10  3  1  1  0  0  0
 10 19  1  0  0  0  0
 11  7  1  1  0  0  0
 11 12  1  0  0  0  0
 12 10  1  0  0  0  0
 12  3  1  1  0  0  0
 13 19  1  0  0  0  0
 13 20  1  1  0  0  0
 14  8  2  0  0  0  0
 15 18  1  0  0  0  0
 15  1  2  0  0  0  0
 16  9  1  6  0  0  0
 16 11  1  0  0  0  0
 16  7  1  0  0  0  0
 17  5  2  0  0  0  0
 17 14  1  0  0  0  0
 19 27  1  1  0  0  0
 22  4  2  0  0  0  0
 24  4  1  1  0  0  0
 24 13  1  0  0  0  0
 25 20  1  0  0  0  0
 25 23  2  0  0  0  0
 27 26  1  0  0  0  0
 28  1  1  0  0  0  0
 29 28  1  0  0  0  0
 29 30  1  0  0  0  0
 30 31  2  0  0  0  0
 32 30  1  0  0  0  0
M  END
>  <MODEL>
3

>  <REMARK>
 VINA RESULT:      -8.0      4.002      8.643
  Name = 
  4 active torsions:
  status: ('A' for Active; 'I' for Inactive)
    1  A    between atoms: C_1  and  C_10
    2  A    between atoms: C_2  and  O_24
    3  A    between atoms: C_10  and  O_24
    4  A    between atoms: O_25  and  C_26
                            x       y       z     vdW  Elec       q    Type
                         _______ _______ _______ _____ _____    ______ ____

>  <TORSDO>
F 4

$$$$
=
 OpenBabel11052421403D

 32 38  0  0  1  0  0  0  0  0999 V2000
  194.8790  175.7090  144.7160 C   0  0  0  0  0  0  0  0  0  0  0  0
  190.5100  175.9830  146.0620 C   0  0  2  0  0  3  0  0  0  0  0  0
  190.4740  176.0530  142.0920 C   0  0  0  0  0  2  0  0  0  0  0  0
  188.6090  177.4070  146.9340 C   0  0  0  0  0  0  0  0  0  0  0  0
  187.2110  177.8720  146.9060 C   0  0  0  0  0  0  0  0  0  0  0  0
  192.6760  175.0060  146.4840 C   0  0  1  0  0  3  0  0  0  0  0  0
  191.4470  174.2570  144.4770 O   0  0  0  0  0  0  0  0  0  0  0  0
  184.5220  178.6570  146.9110 C   0  0  0  0  0  3  0  0  0  0  0  0
  193.5660  175.4950  144.0030 C   0  0  0  0  0  2  0  0  0  0  0  0
  189.4680  175.6570  143.1340 C   0  0  1  0  0  3  0  0  0  0  0  0
  191.0960  175.6090  144.7220 C   0  0  1  0  0  0  0  0  0  0  0  0
  190.7010  176.4560  143.5340 C   0  0  1  0  0  3  0  0  0  0  0  0
  188.0220  175.8060  145.0550 C   0  0  2  0  0  3  0  0  0  0  0  0
  185.4650  179.3890  147.6380 C   0  0  0  0  0  3  0  0  0  0  0  0
  194.9290  175.9580  146.0380 C   0  0  0  0  0  3  0  0  0  0  0  0
  192.4500  175.1130  144.9760 C   0  0  2  0  0  0  0  0  0  0  0  0
  186.8070  178.9970  147.6380 C   0  0  0  0  0  3  0  0  0  0  0  0
  193.6930  176.0690  146.8860 C   0  0  0  0  0  2  0  0  0  0  0  0
  188.3690  176.5070  143.7190 C   0  0  2  0  0  3  0  0  0  0  0  0
  186.6560  176.0380  145.4120 O   0  0  0  0  0  0  0  0  0  0  0  0
  191.3200  175.2840  147.1400 C   0  0  0  0  0  2  0  0  0  0  0  0
  189.4760  178.0590  147.5770 O   0  0  0  0  0  0  0  0  0  0  0  0
  184.9200  177.5370  146.1760 C   0  0  0  0  0  3  0  0  0  0  0  0
  188.9740  176.1030  146.2620 C   0  0  1  0  0  3  0  0  0  0  0  0
  186.2630  177.1490  146.1630 C   0  0  0  0  0  0  0  0  0  0  0  0
  187.1490  177.8050  142.4060 C   0  0  0  0  0  1  0  0  0  0  0  0
  187.2720  176.4880  142.8550 O   0  0  0  0  0  0  0  0  0  0  0  0
  196.0480  175.6440  143.9510 O   0  0  0  0  0  0  0  0  0  0  0  0
  196.5340  176.7360  143.1790 C   0  0  0  0  0  2  0  0  0  0  0  0
  196.4210  176.4140  141.7320 C   0  0  0  0  0  0  0  0  0  0  0  0
  197.3810  175.8610  141.1340 O   0  0  0  0  0  0  0  0  0  0  0  0
  195.2460  176.7680  141.0140 N   0  0  0  0  0  1  0  0  0  0  0  0
  1 15  2  0  0  0  0
  2 24  1  0  0  0  0
  2 21  1  1  0  0  0
  4 22  2  0  0  0  0
  5  4  1  0  0  0  0
  5 17  1  0  0  0  0
  6 18  1  1  0  0  0
  6 21  1  0  0  0  0
  7 16  1  0  0  0  0
  8 14  1  0  0  0  0
  9  1  1  0  0  0  0
 10  3  1  6  0  0  0
 10 12  1  0  0  0  0
 10 19  1  0  0  0  0
 11  7  1  6  0  0  0
 11 16  1  0  0  0  0
 11  2  1  0  0  0  0
 12  3  1  6  0  0  0
 12 11  1  0  0  0  0
 13 20  1  1  0  0  0
 13 24  1  0  0  0  0
 15 18  1  0  0  0  0
 16  9  1  6  0  0  0
 16  6  1  0  0  0  0
 17 14  2  0  0  0  0
 19 27  1  6  0  0  0
 19 13  1  0  0  0  0
 20 25  1  0  0  0  0
 23  8  2  0  0  0  0
 24  4  1  6  0  0  0
 25 23  1  0  0  0  0
 25  5  2  0  0  0  0
 26 27  1  0  0  0  0
 28  1  1  0  0  0  0
 29 28  1  0  0  0  0
 30 29  1  0  0  0  0
 31 30  2  0  0  0  0
 32 30  1  0  0  0  0
M  END
>  <MODEL>
4

>  <REMARK>
 VINA RESULT:      -7.9      2.304      3.983
  Name = 
  4 active torsions:
  status: ('A' for Active; 'I' for Inactive)
    1  A    between atoms: C_1  and  C_10
    2  A    between atoms: C_2  and  O_24
    3  A    between atoms: C_10  and  O_24
    4  A    between atoms: O_25  and  C_26
                            x       y       z     vdW  Elec       q    Type
                         _______ _______ _______ _____ _____    ______ ____

>  <TORSDO>
F 4

$$$$
=
 OpenBabel11052421403D

 32 38  0  0  1  0  0  0  0  0999 V2000
  186.2110  177.2290  145.8270 C   0  0  0  0  0  0  0  0  0  0  0  0
  190.4800  176.0610  144.6460 C   0  0  2  0  0  3  0  0  0  0  0  0
  188.0720  174.4160  141.9510 C   0  0  0  0  0  2  0  0  0  0  0  0
  192.4780  174.5510  145.0060 C   0  0  0  0  0  0  0  0  0  0  0  0
  193.5530  173.6730  144.5100 C   0  0  0  0  0  0  0  0  0  0  0  0
  189.0530  177.7910  145.5390 C   0  0  1  0  0  3  0  0  0  0  0  0
  188.8130  177.2220  143.1490 O   0  0  0  0  0  0  0  0  0  0  0  0
  195.6590  172.1010  143.5420 C   0  0  0  0  0  3  0  0  0  0  0  0
  186.8170  176.6890  144.5550 C   0  0  0  0  0  2  0  0  0  0  0  0
  189.5160  174.8280  141.9410 C   0  0  1  0  0  3  0  0  0  0  0  0
  189.2050  176.0470  143.8370 C   0  0  1  0  0  0  0  0  0  0  0  0
  188.7670  174.7190  143.2620 C   0  0  1  0  0  3  0  0  0  0  0  0
  191.8310  174.9760  142.5890 C   0  0  2  0  0  3  0  0  0  0  0  0
  195.3400  172.0800  144.9020 C   0  0  0  0  0  3  0  0  0  0  0  0
  186.9760  177.5580  146.8860 C   0  0  0  0  0  3  0  0  0  0  0  0
  188.3050  177.0260  144.4490 C   0  0  2  0  0  0  0  0  0  0  0  0
  194.2910  172.8670  145.3880 C   0  0  0  0  0  3  0  0  0  0  0  0
  188.4690  177.3840  146.8880 C   0  0  0  0  0  2  0  0  0  0  0  0
  190.7210  173.9650  142.2180 C   0  0  2  0  0  3  0  0  0  0  0  0
  193.1230  174.4610  142.2530 O   0  0  0  0  0  0  0  0  0  0  0  0
  190.5180  177.3580  145.4360 C   0  0  0  0  0  2  0  0  0  0  0  0
  192.1700  174.5410  146.2290 O   0  0  0  0  0  0  0  0  0  0  0  0
  194.9230  172.9010  142.6620 C   0  0  0  0  0  3  0  0  0  0  0  0
  191.8120  175.5220  144.0570 C   0  0  1  0  0  3  0  0  0  0  0  0
  193.8640  173.6780  143.1410 C   0  0  0  0  0  0  0  0  0  0  0  0
  190.8130  171.9290  141.3570 C   0  0  0  0  0  1  0  0  0  0  0  0
  191.0580  173.2700  141.0550 O   0  0  0  0  0  0  0  0  0  0  0  0
  184.8210  177.3750  145.8700 O   0  0  0  0  0  0  0  0  0  0  0  0
  184.1660  178.6310  145.7400 C   0  0  0  0  0  2  0  0  0  0  0  0
  184.4350  179.1960  144.3920 C   0  0  0  0  0  0  0  0  0  0  0  0
  185.2230  180.1700  144.2630 O   0  0  0  0  0  0  0  0  0  0  0  0
  183.7700  178.6660  143.2520 N   0  0  0  0  0  1  0  0  0  0  0  0
  1 28  1  0  0  0  0
  1 15  2  0  0  0  0
  2 21  1  6  0  0  0
  4 22  2  0  0  0  0
  5  4  1  0  0  0  0
  5 17  1  0  0  0  0
  6 21  1  1  0  0  0
  6 18  1  0  0  0  0
  7 16  1  0  0  0  0
  8 14  1  0  0  0  0
  9  1  1  0  0  0  0
 10  3  1  6  0  0  0
 10 19  1  0  0  0  0
 10 12  1  0  0  0  0
 11  7  1  6  0  0  0
 11 16  1  0  0  0  0
 11  2  1  0  0  0  0
 12  3  1  6  0  0  0
 12 11  1  0  0  0  0
 13 20  1  1  0  0  0
 13 24  1  0  0  0  0
 14 17  2  0  0  0  0
 15 18  1  0  0  0  0
 16  9  1  1  0  0  0
 16  6  1  0  0  0  0
 19 27  1  6  0  0  0
 19 13  1  0  0  0  0
 20 25  1  0  0  0  0
 23 25  1  0  0  0  0
 23  8  2  0  0  0  0
 24  2  1  0  0  0  0
 24  4  1  1  0  0  0
 25  5  2  0  0  0  0
 27 26  1  0  0  0  0
 29 28  1  0  0  0  0
 30 29  1  0  0  0  0
 31 30  2  0  0  0  0
 32 30  1  0  0  0  0
M  END
>  <MODEL>
5

>  <REMARK>
 VINA RESULT:      -7.9      3.452      8.515
  Name = 
  4 active torsions:
  status: ('A' for Active; 'I' for Inactive)
    1  A    between atoms: C_1  and  C_10
    2  A    between atoms: C_2  and  O_24
    3  A    between atoms: C_10  and  O_24
    4  A    between atoms: O_25  and  C_26
                            x       y       z     vdW  Elec       q    Type
                         _______ _______ _______ _____ _____    ______ ____

>  <TORSDO>
F 4

$$$$
=
 OpenBabel11052421403D

 32 38  0  0  1  0  0  0  0  0999 V2000
  186.7080  178.1950  142.7130 C   0  0  0  0  0  0  0  0  0  0  0  0
  190.2130  175.3030  143.2840 C   0  0  2  0  0  3  0  0  0  0  0  0
  190.0880  177.5810  146.5340 C   0  0  0  0  0  2  0  0  0  0  0  0
  192.6200  174.7090  142.7800 C   0  0  0  0  0  0  0  0  0  0  0  0
  193.9700  174.2830  143.1900 C   0  0  0  0  0  0  0  0  0  0  0  0
  187.9700  175.5860  142.4400 C   0  0  1  0  0  3  0  0  0  0  0  0
  188.2880  175.6040  144.8880 O   0  0  0  0  0  0  0  0  0  0  0  0
  196.4970  173.3610  143.9730 C   0  0  0  0  0  3  0  0  0  0  0  0
  187.5080  177.7720  143.9200 C   0  0  0  0  0  2  0  0  0  0  0  0
  190.6270  176.2100  146.2460 C   0  0  1  0  0  3  0  0  0  0  0  0
  189.4600  176.1360  144.2940 C   0  0  1  0  0  0  0  0  0  0  0  0
  190.2590  177.1380  145.0960 C   0  0  1  0  0  3  0  0  0  0  0  0
  191.9000  174.4530  145.1990 C   0  0  2  0  0  3  0  0  0  0  0  0
  196.3160  173.9090  142.7000 C   0  0  0  0  0  3  0  0  0  0  0  0
  186.9010  177.6290  141.5070 C   0  0  0  0  0  3  0  0  0  0  0  0
  188.1350  176.3900  143.7290 C   0  0  2  0  0  0  0  0  0  0  0  0
  195.0550  174.3670  142.3060 C   0  0  0  0  0  3  0  0  0  0  0  0
  187.9390  176.5670  141.2720 C   0  0  0  0  0  2  0  0  0  0  0  0
  192.0410  175.8370  145.8770 C   0  0  2  0  0  3  0  0  0  0  0  0
  193.0900  173.6780  145.3720 O   0  0  0  0  0  0  0  0  0  0  0  0
  189.1980  174.6760  142.3440 C   0  0  0  0  0  2  0  0  0  0  0  0
  192.4390  175.2140  141.6370 O   0  0  0  0  0  0  0  0  0  0  0  0
  195.4180  173.2780  144.8590 C   0  0  0  0  0  3  0  0  0  0  0  0
  191.4470  174.4570  143.7000 C   0  0  1  0  0  3  0  0  0  0  0  0
  194.1580  173.7480  144.4750 C   0  0  0  0  0  0  0  0  0  0  0  0
  193.8170  176.6840  146.8880 C   0  0  0  0  0  1  0  0  0  0  0  0
  192.8030  175.7380  147.0430 O   0  0  0  0  0  0  0  0  0  0  0  0
  185.7540  179.2040  142.8900 O   0  0  0  0  0  0  0  0  0  0  0  0
  185.4200  179.7430  144.1630 C   0  0  0  0  0  2  0  0  0  0  0  0
  184.1600  179.1240  144.6520 C   0  0  0  0  0  0  0  0  0  0  0  0
  183.1620  179.0410  143.8880 O   0  0  0  0  0  0  0  0  0  0  0  0
  184.0670  178.6660  145.9950 N   0  0  0  0  0  1  0  0  0  0  0  0
  1 28  1  0  0  0  0
  1  9  1  0  0  0  0
  2 21  1  1  0  0  0
  2 24  1  0  0  0  0
  2 11  1  0  0  0  0
  4  5  1  0  0  0  0
  5 25  1  0  0  0  0
  6 18  1  6  0  0  0
  6 16  1  0  0  0  0
  8 23  1  0  0  0  0
 10  3  1  1  0  0  0
 11  7  1  1  0  0  0
 11 12  1  0  0  0  0
 12 10  1  0  0  0  0
 12  3  1  1  0  0  0
 13 20  1  6  0  0  0
 13 19  1  0  0  0  0
 14  8  2  0  0  0  0
 15  1  2  0  0  0  0
 16  9  1  1  0  0  0
 16 11  1  0  0  0  0
 16  7  1  0  0  0  0
 17 14  1  0  0  0  0
 17  5  2  0  0  0  0
 18 15  1  0  0  0  0
 19 10  1  0  0  0  0
 19 27  1  1  0  0  0
 21  6  1  0  0  0  0
 22  4  2  0  0  0  0
 24  4  1  6  0  0  0
 24 13  1  0  0  0  0
 25 23  2  0  0  0  0
 25 20  1  0  0  0  0
 26 27  1  0  0  0  0
 28 29  1  0  0  0  0
 29 30  1  0  0  0  0
 30 32  1  0  0  0  0
 31 30  2  0  0  0  0
M  END
>  <MODEL>
6

>  <REMARK>
 VINA RESULT:      -7.7      3.240      8.381
  Name = 
  4 active torsions:
  status: ('A' for Active; 'I' for Inactive)
    1  A    between atoms: C_1  and  C_10
    2  A    between atoms: C_2  and  O_24
    3  A    between atoms: C_10  and  O_24
    4  A    between atoms: O_25  and  C_26
                            x       y       z     vdW  Elec       q    Type
                         _______ _______ _______ _____ _____    ______ ____

>  <TORSDO>
F 4

$$$$
=
 OpenBabel11052421403D

 32 38  0  0  1  0  0  0  0  0999 V2000
  186.8570  176.4710  143.3300 C   0  0  0  0  0  0  0  0  0  0  0  0
  191.1800  174.9590  143.4060 C   0  0  2  0  0  3  0  0  0  0  0  0
  190.6880  177.1410  146.6880 C   0  0  0  0  0  2  0  0  0  0  0  0
  193.5630  175.2080  142.5950 C   0  0  0  0  0  0  0  0  0  0  0  0
  195.0170  175.2770  142.8250 C   0  0  0  0  0  0  0  0  0  0  0  0
  188.8880  174.4410  142.8530 C   0  0  1  0  0  3  0  0  0  0  0  0
  189.4810  174.6280  145.2430 O   0  0  0  0  0  0  0  0  0  0  0  0
  197.7830  175.2890  143.2700 C   0  0  0  0  0  3  0  0  0  0  0  0
  187.8960  176.3760  144.4200 C   0  0  0  0  0  2  0  0  0  0  0  0
  191.6220  176.0280  146.3100 C   0  0  1  0  0  3  0  0  0  0  0  0
  190.3190  175.5120  144.5180 C   0  0  1  0  0  0  0  0  0  0  0  0
  190.8210  176.7460  145.2320 C   0  0  1  0  0  3  0  0  0  0  0  0
  193.2780  174.7830  145.0800 C   0  0  2  0  0  3  0  0  0  0  0  0
  197.2710  175.7110  142.0400 C   0  0  0  0  0  3  0  0  0  0  0  0
  187.0810  175.9740  142.0990 C   0  0  0  0  0  3  0  0  0  0  0  0
  188.9270  175.2860  144.1260 C   0  0  2  0  0  0  0  0  0  0  0  0
  195.8910  175.7030  141.8150 C   0  0  0  0  0  3  0  0  0  0  0  0
  188.3810  175.3230  141.7170 C   0  0  0  0  0  2  0  0  0  0  0  0
  193.0210  176.1490  145.7600 C   0  0  2  0  0  3  0  0  0  0  0  0
  194.6720  174.4640  145.0880 O   0  0  0  0  0  0  0  0  0  0  0  0
  190.3310  174.0010  142.5890 C   0  0  0  0  0  2  0  0  0  0  0  0
  193.0820  175.5910  141.4940 O   0  0  0  0  0  0  0  0  0  0  0  0
  196.9150  174.8670  144.2820 C   0  0  0  0  0  3  0  0  0  0  0  0
  192.6700  174.5950  143.6490 C   0  0  1  0  0  3  0  0  0  0  0  0
  195.5340  174.8710  144.0670 C   0  0  0  0  0  0  0  0  0  0  0  0
  194.5710  177.5350  146.5160 C   0  0  0  0  0  1  0  0  0  0  0  0
  193.9090  176.3440  146.8210 O   0  0  0  0  0  0  0  0  0  0  0  0
  185.6470  177.0990  143.6430 O   0  0  0  0  0  0  0  0  0  0  0  0
  185.5710  178.3470  144.3210 C   0  0  0  0  0  2  0  0  0  0  0  0
  184.7130  178.2080  145.5270 C   0  0  0  0  0  0  0  0  0  0  0  0
  183.7990  179.0460  145.7490 O   0  0  0  0  0  0  0  0  0  0  0  0
  184.9500  177.1550  146.4530 N   0  0  0  0  0  1  0  0  0  0  0  0
  1 28  1  0  0  0  0
  1  9  1  0  0  0  0
  2 21  1  1  0  0  0
  2 24  1  0  0  0  0
  2 11  1  0  0  0  0
  4  5  1  0  0  0  0
  5 25  1  0  0  0  0
  6 18  1  6  0  0  0
  6 16  1  0  0  0  0
  8 23  1  0  0  0  0
 10  3  1  1  0  0  0
 11 12  1  0  0  0  0
 11  7  1  1  0  0  0
 12 10  1  0  0  0  0
 12  3  1  1  0  0  0
 13 20  1  6  0  0  0
 13 19  1  0  0  0  0
 14  8  2  0  0  0  0
 15  1  2  0  0  0  0
 16  9  1  1  0  0  0
 16 11  1  0  0  0  0
 16  7  1  0  0  0  0
 17 14  1  0  0  0  0
 17  5  2  0  0  0  0
 18 15  1  0  0  0  0
 19 10  1  0  0  0  0
 19 27  1  1  0  0  0
 21  6  1  0  0  0  0
 22  4  2  0  0  0  0
 24  4  1  6  0  0  0
 24 13  1  0  0  0  0
 25 23  2  0  0  0  0
 25 20  1  0  0  0  0
 26 27  1  0  0  0  0
 28 29  1  0  0  0  0
 29 30  1  0  0  0  0
 30 31  2  0  0  0  0
 30 32  1  0  0  0  0
M  END
>  <MODEL>
7

>  <REMARK>
 VINA RESULT:      -7.6      3.272      8.386
  Name = 
  4 active torsions:
  status: ('A' for Active; 'I' for Inactive)
    1  A    between atoms: C_1  and  C_10
    2  A    between atoms: C_2  and  O_24
    3  A    between atoms: C_10  and  O_24
    4  A    between atoms: O_25  and  C_26
                            x       y       z     vdW  Elec       q    Type
                         _______ _______ _______ _____ _____    ______ ____

>  <TORSDO>
F 4

$$$$
=
 OpenBabel11052421403D

 32 38  0  0  1  0  0  0  0  0999 V2000
  187.3600  176.8630  144.6530 C   0  0  0  0  0  0  0  0  0  0  0  0
  191.7130  175.6290  143.9370 C   0  0  2  0  0  3  0  0  0  0  0  0
  189.5130  172.3640  143.4150 C   0  0  0  0  0  2  0  0  0  0  0  0
  193.9540  174.9730  144.9100 C   0  0  0  0  0  0  0  0  0  0  0  0
  195.1420  174.1030  144.9740 C   0  0  0  0  0  0  0  0  0  0  0  0
  190.0480  177.3530  143.6500 C   0  0  1  0  0  3  0  0  0  0  0  0
  189.8100  175.2900  142.3150 O   0  0  0  0  0  0  0  0  0  0  0  0
  197.4450  172.5080  145.0010 C   0  0  0  0  0  3  0  0  0  0  0  0
  187.9960  175.6640  143.9930 C   0  0  0  0  0  2  0  0  0  0  0  0
  190.8630  172.7990  142.9210 C   0  0  1  0  0  3  0  0  0  0  0  0
  190.4270  174.9430  143.5430 C   0  0  1  0  0  0  0  0  0  0  0  0
  190.2000  173.5440  144.0710 C   0  0  1  0  0  3  0  0  0  0  0  0
  193.1430  173.5740  142.9550 C   0  0  2  0  0  3  0  0  0  0  0  0
  197.1920  173.3880  146.0570 C   0  0  0  0  0  3  0  0  0  0  0  0
  188.1000  177.8970  145.0960 C   0  0  0  0  0  3  0  0  0  0  0  0
  189.3980  175.9820  143.4710 C   0  0  2  0  0  0  0  0  0  0  0  0
  196.0450  174.1870  146.0440 C   0  0  0  0  0  3  0  0  0  0  0  0
  189.6000  177.9180  144.9940 C   0  0  0  0  0  2  0  0  0  0  0  0
  192.2090  172.4780  143.5210 C   0  0  2  0  0  3  0  0  0  0  0  0
  194.4890  173.0970  142.8610 O   0  0  0  0  0  0  0  0  0  0  0  0
  191.5610  177.1120  143.6470 C   0  0  0  0  0  2  0  0  0  0  0  0
  193.7040  175.7670  145.8580 O   0  0  0  0  0  0  0  0  0  0  0  0
  196.5460  172.4190  143.9330 C   0  0  0  0  0  3  0  0  0  0  0  0
  193.0920  174.9670  143.6690 C   0  0  1  0  0  3  0  0  0  0  0  0
  195.3910  173.2050  143.9230 C   0  0  0  0  0  0  0  0  0  0  0  0
  192.7770  170.4680  144.2500 C   0  0  0  0  0  1  0  0  0  0  0  0
  192.6110  171.2150  143.0820 O   0  0  0  0  0  0  0  0  0  0  0  0
  185.9690  176.8620  144.7930 O   0  0  0  0  0  0  0  0  0  0  0  0
  185.3150  176.7920  146.0540 C   0  0  0  0  0  2  0  0  0  0  0  0
  184.7790  178.1310  146.4140 C   0  0  0  0  0  0  0  0  0  0  0  0
  184.9150  178.5690  147.5860 O   0  0  0  0  0  0  0  0  0  0  0  0
  184.0750  178.9000  145.4460 N   0  0  0  0  0  1  0  0  0  0  0  0
  1 28  1  0  0  0  0
  1 15  2  0  0  0  0
  2 21  1  6  0  0  0
  4  5  1  0  0  0  0
  4 22  2  0  0  0  0
  5 17  1  0  0  0  0
  6 21  1  1  0  0  0
  6 18  1  0  0  0  0
  7 16  1  0  0  0  0
  8 14  1  0  0  0  0
  9  1  1  0  0  0  0
 10  3  1  1  0  0  0
 10 19  1  0  0  0  0
 10 12  1  0  0  0  0
 11  7  1  6  0  0  0
 11  2  1  0  0  0  0
 11 12  1  0  0  0  0
 12  3  1  6  0  0  0
 13 20  1  1  0  0  0
 13 19  1  0  0  0  0
 13 24  1  0  0  0  0
 16 11  1  0  0  0  0
 16  6  1  0  0  0  0
 16  9  1  1  0  0  0
 17 14  2  0  0  0  0
 18 15  1  0  0  0  0
 19 27  1  6  0  0  0
 20 25  1  0  0  0  0
 23  8  2  0  0  0  0
 24  2  1  0  0  0  0
 24  4  1  1  0  0  0
 25 23  1  0  0  0  0
 25  5  2  0  0  0  0
 27 26  1  0  0  0  0
 28 29  1  0  0  0  0
 29 30  1  0  0  0  0
 30 31  2  0  0  0  0
 32 30  1  0  0  0  0
M  END
>  <MODEL>
8

>  <REMARK>
 VINA RESULT:      -7.5      3.445      8.800
  Name = 
  4 active torsions:
  status: ('A' for Active; 'I' for Inactive)
    1  A    between atoms: C_1  and  C_10
    2  A    between atoms: C_2  and  O_24
    3  A    between atoms: C_10  and  O_24
    4  A    between atoms: O_25  and  C_26
                            x       y       z     vdW  Elec       q    Type
                         _______ _______ _______ _____ _____    ______ ____

>  <TORSDO>
F 4

$$$$
=
 OpenBabel11052421403D

 32 38  0  0  1  0  0  0  0  0999 V2000
  187.4170  176.2940  141.8010 C   0  0  0  0  0  0  0  0  0  0  0  0
  191.2600  174.3560  143.3670 C   0  0  2  0  0  3  0  0  0  0  0  0
  190.4300  177.3650  145.8230 C   0  0  0  0  0  2  0  0  0  0  0  0
  193.7710  174.0990  143.1890 C   0  0  0  0  0  0  0  0  0  0  0  0
  195.1210  174.0540  143.7790 C   0  0  0  0  0  0  0  0  0  0  0  0
  189.1020  173.9850  142.3520 C   0  0  1  0  0  3  0  0  0  0  0  0
  189.1540  174.7210  144.7080 O   0  0  0  0  0  0  0  0  0  0  0  0
  197.6660  173.8570  144.9330 C   0  0  0  0  0  3  0  0  0  0  0  0
  188.1430  176.3670  143.1210 C   0  0  0  0  0  2  0  0  0  0  0  0
  191.2100  176.0900  145.9670 C   0  0  1  0  0  3  0  0  0  0  0  0
  190.2820  175.2780  144.0550 C   0  0  1  0  0  0  0  0  0  0  0  0
  190.8210  176.5890  144.5820 C   0  0  1  0  0  3  0  0  0  0  0  0
  192.8500  174.3790  145.5370 C   0  0  2  0  0  3  0  0  0  0  0  0
  197.5350  173.9980  143.5480 C   0  0  0  0  0  3  0  0  0  0  0  0
  187.8250  175.4680  140.8180 C   0  0  0  0  0  3  0  0  0  0  0  0
  189.0000  175.1240  143.3660 C   0  0  2  0  0  0  0  0  0  0  0  0
  196.2660  174.0940  142.9710 C   0  0  0  0  0  3  0  0  0  0  0  0
  189.0380  174.5910  140.9540 C   0  0  0  0  0  2  0  0  0  0  0  0
  192.6950  175.8960  145.8000 C   0  0  2  0  0  3  0  0  0  0  0  0
  194.1240  173.9110  145.9890 O   0  0  0  0  0  0  0  0  0  0  0  0
  190.4630  173.3240  142.5880 C   0  0  0  0  0  2  0  0  0  0  0  0
  193.6330  174.2350  141.9420 O   0  0  0  0  0  0  0  0  0  0  0  0
  196.5270  173.8210  145.7430 C   0  0  0  0  0  3  0  0  0  0  0  0
  192.5630  173.8950  144.0750 C   0  0  1  0  0  3  0  0  0  0  0  0
  195.2560  173.9300  145.1710 C   0  0  0  0  0  0  0  0  0  0  0  0
  194.2830  177.2090  146.6050 C   0  0  0  0  0  1  0  0  0  0  0  0
  193.3360  176.2570  146.9870 O   0  0  0  0  0  0  0  0  0  0  0  0
  186.3020  177.1200  141.6290 O   0  0  0  0  0  0  0  0  0  0  0  0
  186.2810  178.4880  142.0190 C   0  0  0  0  0  2  0  0  0  0  0  0
  185.2220  178.7000  143.0410 C   0  0  0  0  0  0  0  0  0  0  0  0
  184.2080  177.9540  143.0610 O   0  0  0  0  0  0  0  0  0  0  0  0
  185.3330  179.7710  143.9700 N   0  0  0  0  0  1  0  0  0  0  0  0
  1  9  1  0  0  0  0
  2 21  1  1  0  0  0
  2 11  1  0  0  0  0
  2 24  1  0  0  0  0
  4  5  1  0  0  0  0
  5 25  1  0  0  0  0
  6 18  1  6  0  0  0
  6 21  1  0  0  0  0
  6 16  1  0  0  0  0
  8 23  1  0  0  0  0
 10  3  1  1  0  0  0
 11 12  1  0  0  0  0
 11  7  1  1  0  0  0
 12  3  1  1  0  0  0
 12 10  1  0  0  0  0
 13 19  1  0  0  0  0
 13 20  1  6  0  0  0
 14  8  2  0  0  0  0
 15 18  1  0  0  0  0
 15  1  2  0  0  0  0
 16  9  1  6  0  0  0
 16 11  1  0  0  0  0
 16  7  1  0  0  0  0
 17 14  1  0  0  0  0
 17  5  2  0  0  0  0
 19 10  1  0  0  0  0
 19 27  1  1  0  0  0
 22  4  2  0  0  0  0
 24  4  1  6  0  0  0
 24 13  1  0  0  0  0
 25 23  2  0  0  0  0
 25 20  1  0  0  0  0
 26 27  1  0  0  0  0
 28  1  1  0  0  0  0
 28 29  1  0  0  0  0
 29 30  1  0  0  0  0
 30 31  2  0  0  0  0
 30 32  1  0  0  0  0
M  END
>  <MODEL>
9

>  <REMARK>
 VINA RESULT:      -7.4      3.253      8.556
  Name = 
  4 active torsions:
  status: ('A' for Active; 'I' for Inactive)
    1  A    between atoms: C_1  and  C_10
    2  A    between atoms: C_2  and  O_24
    3  A    between atoms: C_10  and  O_24
    4  A    between atoms: O_25  and  C_26
                            x       y       z     vdW  Elec       q    Type
                         _______ _______ _______ _____ _____    ______ ____

>  <TORSDO>
F 4

$$$$
