=
 OpenBabel11052421403D

 32 36  0  0  1  0  0  0  0  0999 V2000
  191.9480  175.2900  147.5260 C   0  0  0  0  0  3  0  0  0  0  0  0
  192.5350  175.1340  146.2720 C   0  0  0  0  0  3  0  0  0  0  0  0
  190.5710  175.4820  147.6320 C   0  0  0  0  0  3  0  0  0  0  0  0
  189.7620  175.5250  146.4860 C   0  0  0  0  0  0  0  0  0  0  0  0
  191.7430  175.1760  145.1230 C   0  0  0  0  0  3  0  0  0  0  0  0
  190.3550  175.3790  145.2050 C   0  0  0  0  0  0  0  0  0  0  0  0
  188.5030  174.3090  142.0340 C   0  0  0  0  0  0  0  0  0  0  0  0
  188.0530  175.5560  141.5990 C   0  0  0  0  0  0  0  0  0  0  0  0
  187.7570  177.7270  141.6160 C   0  0  0  0  0  0  0  0  0  0  0  0
  189.5710  175.4380  143.9410 C   0  0  0  0  0  0  0  0  0  0  0  0
  187.1290  177.1670  140.5110 C   0  0  0  0  0  3  0  0  0  0  0  0
  187.3150  175.8220  140.5030 N   0  0  0  0  0  0  0  0  0  0  0  0
  189.0890  176.6810  143.4720 C   0  0  0  0  0  3  0  0  0  0  0  0
  188.1940  173.0610  141.2840 C   0  0  0  0  0  1  0  0  0  0  0  0
  187.7820  179.0410  141.9500 F   0  0  0  0  0  0  0  0  0  0  0  0
  189.2620  174.2600  143.2160 C   0  0  0  0  0  2  0  0  0  0  0  0
  188.3390  176.6950  142.2980 C   0  0  0  0  0  0  0  0  0  0  0  0
  188.3430  175.6700  146.6230 N   0  0  0  0  0  2  0  0  0  0  0  0
  183.7460  178.9220  145.4480 C   0  0  0  0  0  2  0  0  0  0  0  0
  186.4350  178.5220  145.9820 C   0  0  2  0  0  3  0  0  0  0  0  0
  186.1940  176.5770  147.3120 C   0  0  0  0  0  2  0  0  0  0  0  0
  184.1200  177.7060  146.3280 C   0  0  0  0  0  2  0  0  0  0  0  0
  187.6910  176.8490  147.1750 C   0  0  2  0  0  3  0  0  0  0  0  0
  184.6840  179.1370  144.2330 C   0  0  1  0  0  3  0  0  0  0  0  0
  185.5790  177.3020  146.1440 C   0  0  1  0  0  3  0  0  0  0  0  0
  186.1840  179.1450  144.6110 C   0  0  0  0  0  2  0  0  0  0  0  0
  187.8400  178.0200  146.1990 C   0  0  0  0  0  2  0  0  0  0  0  0
  184.4360  178.0910  143.1560 C   0  0  0  0  0  2  0  0  0  0  0  0
  183.8980  178.7430  141.8970 C   0  0  0  0  0  2  0  0  0  0  0  0
  182.8450  177.9140  141.3360 N   0  0  0  0  0  2  0  0  0  0  0  0
  180.6830  179.4100  140.8050 S   0  0  0  0  0  1  0  0  0  0  0  0
  181.5980  178.3360  141.9490 C   0  0  0  0  0  2  0  0  0  0  0  0
  1  3  1  0  0  0  0
  2  1  2  0  0  0  0
  4 18  1  0  0  0  0
  4  3  2  0  0  0  0
  5  6  2  0  0  0  0
  5  2  1  0  0  0  0
  6  4  1  0  0  0  0
  7 16  1  0  0  0  0
  8  7  2  0  0  0  0
  8 17  1  0  0  0  0
  9 15  1  0  0  0  0
  9 17  2  0  0  0  0
 10  6  1  0  0  0  0
 11  9  1  0  0  0  0
 12 11  2  0  0  0  0
 12  8  1  0  0  0  0
 13 10  2  0  0  0  0
 14  7  1  0  0  0  0
 16 10  1  0  0  0  0
 17 13  1  0  0  0  0
 19 22  1  0  0  0  0
 20 26  1  6  0  0  0
 20 25  1  0  0  0  0
 20 27  1  0  0  0  0
 23 18  1  6  0  0  0
 23 21  1  0  0  0  0
 24 28  1  6  0  0  0
 24 26  1  0  0  0  0
 24 19  1  0  0  0  0
 25 22  1  1  0  0  0
 25 21  1  0  0  0  0
 27 23  1  0  0  0  0
 29 28  1  0  0  0  0
 30 29  1  0  0  0  0
 30 32  1  0  0  0  0
 31 32  1  0  0  0  0
M  END
>  <MODEL>
1

>  <REMARK>
 VINA RESULT:      -7.5      0.000      0.000
  Name = 
  7 active torsions:
  status: ('A' for Active; 'I' for Inactive)
    1  A    between atoms: N_3  and  C_14
    2  A    between atoms: N_3  and  C_15
    3  A    between atoms: C_10  and  N_20
    4  A    between atoms: C_10  and  C_24
    5  A    between atoms: C_16  and  C_26
    6  A    between atoms: C_17  and  N_20
    7  A    between atoms: C_19  and  C_24
                            x       y       z     vdW  Elec       q    Type
                         _______ _______ _______ _____ _____    ______ ____

>  <TORSDO>
F 7

$$$$
=
 OpenBabel11052421403D

 32 36  0  0  1  0  0  0  0  0999 V2000
  183.9610  178.6790  145.6890 C   0  0  0  0  0  3  0  0  0  0  0  0
  184.5000  178.0360  146.8020 C   0  0  0  0  0  3  0  0  0  0  0  0
  184.7510  178.8950  144.5610 C   0  0  0  0  0  3  0  0  0  0  0  0
  186.0910  178.4780  144.5300 C   0  0  0  0  0  0  0  0  0  0  0  0
  185.8310  177.6150  146.7870 C   0  0  0  0  0  3  0  0  0  0  0  0
  186.6480  177.8330  145.6650 C   0  0  0  0  0  0  0  0  0  0  0  0
  189.8160  175.9510  146.6900 C   0  0  0  0  0  0  0  0  0  0  0  0
  190.7180  176.5080  145.7830 C   0  0  0  0  0  0  0  0  0  0  0  0
  191.4280  177.7820  144.1490 C   0  0  0  0  0  0  0  0  0  0  0  0
  188.0660  177.3830  145.7220 C   0  0  0  0  0  0  0  0  0  0  0  0
  192.4720  177.0110  144.6430 C   0  0  0  0  0  3  0  0  0  0  0  0
  192.0280  176.2230  145.6550 N   0  0  0  0  0  0  0  0  0  0  0  0
  189.0080  177.9160  144.8130 C   0  0  0  0  0  3  0  0  0  0  0  0
  190.2350  174.9160  147.6750 C   0  0  0  0  0  1  0  0  0  0  0  0
  191.4970  178.6830  143.1380 F   0  0  0  0  0  0  0  0  0  0  0  0
  188.4830  176.3940  146.6480 C   0  0  0  0  0  2  0  0  0  0  0  0
  190.3200  177.4540  144.8810 C   0  0  0  0  0  0  0  0  0  0  0  0
  186.8660  178.6640  143.3390 N   0  0  0  0  0  2  0  0  0  0  0  0
  188.2920  173.2750  141.9220 C   0  0  0  0  0  2  0  0  0  0  0  0
  188.2810  176.0200  141.5510 C   0  0  2  0  0  3  0  0  0  0  0  0
  186.1900  176.4550  142.5770 C   0  0  0  0  0  2  0  0  0  0  0  0
  187.0660  174.0550  142.4520 C   0  0  0  0  0  2  0  0  0  0  0  0
  186.7830  177.8030  142.1680 C   0  0  2  0  0  3  0  0  0  0  0  0
  189.6510  173.9680  142.1940 C   0  0  1  0  0  3  0  0  0  0  0  0
  187.3810  175.5350  142.6470 C   0  0  1  0  0  3  0  0  0  0  0  0
  189.6820  175.4490  141.7500 C   0  0  0  0  0  2  0  0  0  0  0  0
  188.1920  177.5230  141.6380 C   0  0  0  0  0  2  0  0  0  0  0  0
  190.0340  173.8680  143.6630 C   0  0  0  0  0  2  0  0  0  0  0  0
  189.9030  172.4370  144.1490 C   0  0  0  0  0  2  0  0  0  0  0  0
  191.2150  171.8130  144.1710 N   0  0  0  0  0  2  0  0  0  0  0  0
  193.7690  172.5630  143.8410 S   0  0  0  0  0  1  0  0  0  0  0  0
  192.1560  172.8150  144.6370 C   0  0  0  0  0  2  0  0  0  0  0  0
  1  2  1  0  0  0  0
  3  1  2  0  0  0  0
  4  3  1  0  0  0  0
  4  6  2  0  0  0  0
  5  2  2  0  0  0  0
  6 10  1  0  0  0  0
  6  5  1  0  0  0  0
  7 14  1  0  0  0  0
  8  7  2  0  0  0  0
  9 11  1  0  0  0  0
  9 17  2  0  0  0  0
 10 16  1  0  0  0  0
 11 12  2  0  0  0  0
 12  8  1  0  0  0  0
 13 17  1  0  0  0  0
 13 10  2  0  0  0  0
 15  9  1  0  0  0  0
 16  7  1  0  0  0  0
 17  8  1  0  0  0  0
 18  4  1  0  0  0  0
 19 24  1  0  0  0  0
 19 22  1  0  0  0  0
 20 27  1  1  0  0  0
 20 26  1  0  0  0  0
 20 25  1  0  0  0  0
 21 25  1  0  0  0  0
 23 21  1  0  0  0  0
 23 18  1  1  0  0  0
 24 28  1  1  0  0  0
 25 22  1  6  0  0  0
 26 24  1  0  0  0  0
 27 23  1  0  0  0  0
 28 29  1  0  0  0  0
 29 30  1  0  0  0  0
 30 32  1  0  0  0  0
 31 32  1  0  0  0  0
M  END
>  <MODEL>
2

>  <REMARK>
 VINA RESULT:      -7.5      3.330      6.895
  Name = 
  7 active torsions:
  status: ('A' for Active; 'I' for Inactive)
    1  A    between atoms: N_3  and  C_14
    2  A    between atoms: N_3  and  C_15
    3  A    between atoms: C_10  and  N_20
    4  A    between atoms: C_10  and  C_24
    5  A    between atoms: C_16  and  C_26
    6  A    between atoms: C_17  and  N_20
    7  A    between atoms: C_19  and  C_24
                            x       y       z     vdW  Elec       q    Type
                         _______ _______ _______ _____ _____    ______ ____

>  <TORSDO>
F 7

$$$$
=
 OpenBabel11052421403D

 32 36  0  0  1  0  0  0  0  0999 V2000
  190.2030  173.5850  141.9310 C   0  0  0  0  0  3  0  0  0  0  0  0
  188.8810  173.1550  142.0130 C   0  0  0  0  0  3  0  0  0  0  0  0
  190.5130  174.9270  142.1470 C   0  0  0  0  0  3  0  0  0  0  0  0
  189.5050  175.8590  142.4430 C   0  0  0  0  0  0  0  0  0  0  0  0
  187.8670  174.0690  142.3050 C   0  0  0  0  0  3  0  0  0  0  0  0
  188.1550  175.4290  142.5170 C   0  0  0  0  0  0  0  0  0  0  0  0
  185.2040  177.8090  142.0100 C   0  0  0  0  0  0  0  0  0  0  0  0
  184.8770  178.0560  143.3430 C   0  0  0  0  0  0  0  0  0  0  0  0
  185.0100  177.9200  145.5260 C   0  0  0  0  0  0  0  0  0  0  0  0
  187.0260  176.3570  142.8000 C   0  0  0  0  0  0  0  0  0  0  0  0
  183.9640  178.7570  145.1620 C   0  0  0  0  0  3  0  0  0  0  0  0
  183.8840  178.8390  143.8090 N   0  0  0  0  0  0  0  0  0  0  0  0
  186.6570  176.6260  144.1370 C   0  0  0  0  0  3  0  0  0  0  0  0
  184.4410  178.4250  140.8890 C   0  0  0  0  0  1  0  0  0  0  0  0
  185.3880  177.6000  146.7880 F   0  0  0  0  0  0  0  0  0  0  0  0
  186.2840  176.9490  141.7470 C   0  0  0  0  0  3  0  0  0  0  0  0
  185.5810  177.4810  144.3630 C   0  0  1  0  0  3  0  0  0  0  0  0
  189.8550  177.2220  142.7140 N   0  0  0  0  0  2  0  0  0  0  0  0
  194.1110  176.0930  146.4140 C   0  0  0  0  0  2  0  0  0  0  0  0
  191.4540  176.4570  145.7220 C   0  0  2  0  0  3  0  0  0  0  0  0
  191.8090  177.9830  143.9450 C   0  0  0  0  0  2  0  0  0  0  0  0
  193.8110  177.0560  145.2410 C   0  0  0  0  0  2  0  0  0  0  0  0
  190.3080  177.7070  144.0100 C   0  0  2  0  0  3  0  0  0  0  0  0
  193.2640  174.7960  146.4020 C   0  0  1  0  0  3  0  0  0  0  0  0
  192.4330  176.8000  144.6400 C   0  0  1  0  0  3  0  0  0  0  0  0
  191.7470  175.0560  146.2510 C   0  0  0  0  0  2  0  0  0  0  0  0
  190.1060  176.6140  145.0640 C   0  0  0  0  0  2  0  0  0  0  0  0
  193.7300  173.8470  145.3080 C   0  0  0  0  0  2  0  0  0  0  0  0
  195.2130  173.5640  145.4460 C   0  0  0  0  0  2  0  0  0  0  0  0
  195.8650  173.7670  144.1640 N   0  0  0  0  0  2  0  0  0  0  0  0
  196.8600  176.0830  143.2450 S   0  0  0  0  0  1  0  0  0  0  0  0
  196.9740  174.6780  144.3900 C   0  0  0  0  0  2  0  0  0  0  0  0
  1  2  2  0  0  0  0
  1  3  1  0  0  0  0
  2  5  1  0  0  0  0
  3  4  2  0  0  0  0
  4  6  1  0  0  0  0
  4 18  1  0  0  0  0
  5  6  2  0  0  0  0
  6 10  1  0  0  0  0
  7  8  1  0  0  0  0
  8 12  2  0  0  0  0
  8 17  1  0  0  0  0
  9 15  1  0  0  0  0
 10 13  2  0  0  0  0
 11  9  2  0  0  0  0
 12 11  1  0  0  0  0
 14  7  1  0  0  0  0
 16  7  2  0  0  0  0
 16 10  1  0  0  0  0
 17 13  1  6  0  0  0
 17  9  1  0  0  0  0
 20 27  1  6  0  0  0
 20 26  1  0  0  0  0
 21 23  1  0  0  0  0
 22 19  1  0  0  0  0
 23 18  1  6  0  0  0
 23 27  1  0  0  0  0
 24 28  1  6  0  0  0
 24 19  1  0  0  0  0
 25 21  1  1  0  0  0
 25 22  1  0  0  0  0
 25 20  1  0  0  0  0
 26 24  1  0  0  0  0
 28 29  1  0  0  0  0
 30 32  1  0  0  0  0
 30 29  1  0  0  0  0
 31 32  1  0  0  0  0
M  END
>  <MODEL>
3

>  <REMARK>
 VINA RESULT:      -7.5      3.929      7.790
  Name = 
  7 active torsions:
  status: ('A' for Active; 'I' for Inactive)
    1  A    between atoms: N_3  and  C_14
    2  A    between atoms: N_3  and  C_15
    3  A    between atoms: C_10  and  N_20
    4  A    between atoms: C_10  and  C_24
    5  A    between atoms: C_16  and  C_26
    6  A    between atoms: C_17  and  N_20
    7  A    between atoms: C_19  and  C_24
                            x       y       z     vdW  Elec       q    Type
                         _______ _______ _______ _____ _____    ______ ____

>  <TORSDO>
F 7

$$$$
=
 OpenBabel11052421403D

 32 36  0  0  1  0  0  0  0  0999 V2000
  183.9130  178.9670  144.2820 C   0  0  0  0  0  3  0  0  0  0  0  0
  183.9960  178.3030  143.0600 C   0  0  0  0  0  3  0  0  0  0  0  0
  185.0160  178.9960  145.1340 C   0  0  0  0  0  3  0  0  0  0  0  0
  186.2160  178.3580  144.7790 C   0  0  0  0  0  0  0  0  0  0  0  0
  185.1810  177.6630  142.6940 C   0  0  0  0  0  3  0  0  0  0  0  0
  186.3020  177.6710  143.5410 C   0  0  0  0  0  0  0  0  0  0  0  0
  189.9660  176.8760  142.7840 C   0  0  0  0  0  0  0  0  0  0  0  0
  189.8270  175.5650  142.3280 C   0  0  0  0  0  0  0  0  0  0  0  0
  188.8130  173.7000  141.7870 C   0  0  0  0  0  0  0  0  0  0  0  0
  187.5280  176.9490  143.1030 C   0  0  0  0  0  0  0  0  0  0  0  0
  190.1800  173.5800  141.5750 C   0  0  0  0  0  3  0  0  0  0  0  0
  190.8050  174.7370  141.9110 N   0  0  0  0  0  0  0  0  0  0  0  0
  187.4300  175.6150  142.6440 C   0  0  0  0  0  3  0  0  0  0  0  0
  191.2960  177.5410  142.8620 C   0  0  0  0  0  1  0  0  0  0  0  0
  187.8740  172.7470  141.5640 F   0  0  0  0  0  0  0  0  0  0  0  0
  188.8040  177.5620  143.1760 C   0  0  0  0  0  2  0  0  0  0  0  0
  188.6010  174.9640  142.2650 C   0  0  0  0  0  0  0  0  0  0  0  0
  187.3520  178.4480  145.6480 N   0  0  0  0  0  2  0  0  0  0  0  0
  191.6520  175.2740  147.7740 C   0  0  0  0  0  2  0  0  0  0  0  0
  189.0510  175.6700  146.9060 C   0  0  2  0  0  3  0  0  0  0  0  0
  188.8900  177.9650  147.4690 C   0  0  0  0  0  2  0  0  0  0  0  0
  191.0600  176.6940  147.9370 C   0  0  0  0  0  2  0  0  0  0  0  0
  187.5790  177.5740  146.7890 C   0  0  2  0  0  3  0  0  0  0  0  0
  191.3130  174.5970  146.4220 C   0  0  1  0  0  3  0  0  0  0  0  0
  189.8720  176.9200  147.0080 C   0  0  1  0  0  3  0  0  0  0  0  0
  189.8040  174.6290  146.0820 C   0  0  0  0  0  2  0  0  0  0  0  0
  187.7480  176.1310  146.3030 C   0  0  0  0  0  2  0  0  0  0  0  0
  192.1050  175.2210  145.2830 C   0  0  0  0  0  2  0  0  0  0  0  0
  193.5690  175.3440  145.6590 C   0  0  0  0  0  2  0  0  0  0  0  0
  194.1240  176.5410  145.0520 N   0  0  0  0  0  2  0  0  0  0  0  0
  195.0860  175.9200  142.6250 S   0  0  0  0  0  1  0  0  0  0  0  0
  195.3650  176.1530  144.4050 C   0  0  0  0  0  2  0  0  0  0  0  0
  1  3  1  0  0  0  0
  2  1  2  0  0  0  0
  4  3  2  0  0  0  0
  4 18  1  0  0  0  0
  5  2  1  0  0  0  0
  5  6  2  0  0  0  0
  6  4  1  0  0  0  0
  7 14  1  0  0  0  0
  7 16  1  0  0  0  0
  8  7  2  0  0  0  0
  9 17  2  0  0  0  0
 10 16  1  0  0  0  0
 10  6  1  0  0  0  0
 11  9  1  0  0  0  0
 11 12  2  0  0  0  0
 12  8  1  0  0  0  0
 13 10  2  0  0  0  0
 15  9  1  0  0  0  0
 17  8  1  0  0  0  0
 17 13  1  0  0  0  0
 19 22  1  0  0  0  0
 20 26  1  6  0  0  0
 20 25  1  0  0  0  0
 23 18  1  6  0  0  0
 23 21  1  0  0  0  0
 24 28  1  6  0  0  0
 24 19  1  0  0  0  0
 25 21  1  1  0  0  0
 25 22  1  0  0  0  0
 26 24  1  0  0  0  0
 27 23  1  0  0  0  0
 27 20  1  0  0  0  0
 28 29  1  0  0  0  0
 30 29  1  0  0  0  0
 31 32  1  0  0  0  0
 32 30  1  0  0  0  0
M  END
>  <MODEL>
4

>  <REMARK>
 VINA RESULT:      -7.5      3.428      6.970
  Name = 
  7 active torsions:
  status: ('A' for Active; 'I' for Inactive)
    1  A    between atoms: N_3  and  C_14
    2  A    between atoms: N_3  and  C_15
    3  A    between atoms: C_10  and  N_20
    4  A    between atoms: C_10  and  C_24
    5  A    between atoms: C_16  and  C_26
    6  A    between atoms: C_17  and  N_20
    7  A    between atoms: C_19  and  C_24
                            x       y       z     vdW  Elec       q    Type
                         _______ _______ _______ _____ _____    ______ ____

>  <TORSDO>
F 7

$$$$
=
 OpenBabel11052421403D

 32 36  0  0  1  0  0  0  0  0999 V2000
  184.1340  178.5910  145.8670 C   0  0  0  0  0  3  0  0  0  0  0  0
  184.7920  178.0300  146.9600 C   0  0  0  0  0  3  0  0  0  0  0  0
  184.8160  178.7800  144.6660 C   0  0  0  0  0  3  0  0  0  0  0  0
  186.1660  178.4160  144.5410 C   0  0  0  0  0  0  0  0  0  0  0  0
  186.1350  177.6640  146.8510 C   0  0  0  0  0  3  0  0  0  0  0  0
  186.8450  177.8550  145.6540 C   0  0  0  0  0  0  0  0  0  0  0  0
  190.5130  177.6430  144.5910 C   0  0  0  0  0  0  0  0  0  0  0  0
  190.9860  176.7720  145.5720 C   0  0  0  0  0  0  0  0  0  0  0  0
  190.9230  175.4660  147.3300 C   0  0  0  0  0  0  0  0  0  0  0  0
  188.2810  177.4660  145.6110 C   0  0  0  0  0  0  0  0  0  0  0  0
  192.2110  175.5090  146.8130 C   0  0  0  0  0  3  0  0  0  0  0  0
  192.2460  176.3190  145.7240 N   0  0  0  0  0  0  0  0  0  0  0  0
  188.8020  176.5940  146.5930 C   0  0  0  0  0  3  0  0  0  0  0  0
  191.4090  178.1990  143.5400 C   0  0  0  0  0  1  0  0  0  0  0  0
  190.5110  174.7630  148.4140 F   0  0  0  0  0  0  0  0  0  0  0  0
  189.1520  177.9900  144.6220 C   0  0  0  0  0  3  0  0  0  0  0  0
  190.1560  176.2710  146.5340 C   0  0  1  0  0  3  0  0  0  0  0  0
  186.8310  178.5710  143.2800 N   0  0  0  0  0  2  0  0  0  0  0  0
  188.3940  173.1960  141.9560 C   0  0  0  0  0  2  0  0  0  0  0  0
  188.2020  175.9170  141.4730 C   0  0  2  0  0  3  0  0  0  0  0  0
  186.2010  176.2990  142.6810 C   0  0  0  0  0  2  0  0  0  0  0  0
  187.1860  173.9410  142.5710 C   0  0  0  0  0  2  0  0  0  0  0  0
  186.6790  177.6530  142.1600 C   0  0  2  0  0  3  0  0  0  0  0  0
  189.7340  173.9660  142.0620 C   0  0  1  0  0  3  0  0  0  0  0  0
  187.4390  175.4410  142.6720 C   0  0  1  0  0  3  0  0  0  0  0  0
  189.6440  175.4250  141.5560 C   0  0  0  0  0  2  0  0  0  0  0  0
  188.0440  177.4170  141.5050 C   0  0  0  0  0  2  0  0  0  0  0  0
  190.2630  173.9530  143.4890 C   0  0  0  0  0  2  0  0  0  0  0  0
  191.7160  173.5210  143.5130 C   0  0  0  0  0  2  0  0  0  0  0  0
  191.9370  172.6330  144.6410 N   0  0  0  0  0  2  0  0  0  0  0  0
  194.2340  173.7500  143.8190 S   0  0  0  0  0  1  0  0  0  0  0  0
  193.3730  172.4730  144.7830 C   0  0  0  0  0  2  0  0  0  0  0  0
  1  2  1  0  0  0  0
  3  1  2  0  0  0  0
  4  3  1  0  0  0  0
  4  6  2  0  0  0  0
  5  2  2  0  0  0  0
  6  5  1  0  0  0  0
  7 16  2  0  0  0  0
  7  8  1  0  0  0  0
  8 12  2  0  0  0  0
  8 17  1  0  0  0  0
  9 15  1  0  0  0  0
 10  6  1  0  0  0  0
 10 13  2  0  0  0  0
 11  9  2  0  0  0  0
 12 11  1  0  0  0  0
 14  7  1  0  0  0  0
 16 10  1  0  0  0  0
 17 13  1  1  0  0  0
 17  9  1  0  0  0  0
 18  4  1  0  0  0  0
 19 24  1  0  0  0  0
 19 22  1  0  0  0  0
 20 27  1  1  0  0  0
 20 26  1  0  0  0  0
 20 25  1  0  0  0  0
 23 21  1  0  0  0  0
 23 18  1  1  0  0  0
 24 28  1  1  0  0  0
 25 22  1  6  0  0  0
 25 21  1  0  0  0  0
 26 24  1  0  0  0  0
 27 23  1  0  0  0  0
 28 29  1  0  0  0  0
 29 30  1  0  0  0  0
 30 32  1  0  0  0  0
 31 32  1  0  0  0  0
M  END
>  <MODEL>
5

>  <REMARK>
 VINA RESULT:      -7.5      3.567      7.222
  Name = 
  7 active torsions:
  status: ('A' for Active; 'I' for Inactive)
    1  A    between atoms: N_3  and  C_14
    2  A    between atoms: N_3  and  C_15
    3  A    between atoms: C_10  and  N_20
    4  A    between atoms: C_10  and  C_24
    5  A    between atoms: C_16  and  C_26
    6  A    between atoms: C_17  and  N_20
    7  A    between atoms: C_19  and  C_24
                            x       y       z     vdW  Elec       q    Type
                         _______ _______ _______ _____ _____    ______ ____

>  <TORSDO>
F 7

$$$$
=
 OpenBabel11052421403D

 32 36  0  0  1  0  0  0  0  0999 V2000
  185.1540  178.5880  147.6300 C   0  0  0  0  0  3  0  0  0  0  0  0
  184.2820  178.4740  146.5490 C   0  0  0  0  0  3  0  0  0  0  0  0
  186.4910  178.2170  147.4880 C   0  0  0  0  0  3  0  0  0  0  0  0
  186.9730  177.7230  146.2660 C   0  0  0  0  0  0  0  0  0  0  0  0
  184.7470  177.9830  145.3280 C   0  0  0  0  0  3  0  0  0  0  0  0
  186.0870  177.5930  145.1640 C   0  0  0  0  0  0  0  0  0  0  0  0
  186.5800  177.2160  141.3910 C   0  0  0  0  0  0  0  0  0  0  0  0
  187.3660  176.0640  141.3760 C   0  0  0  0  0  0  0  0  0  0  0  0
  188.4800  174.3550  142.1760 C   0  0  0  0  0  0  0  0  0  0  0  0
  186.5140  177.0540  143.8440 C   0  0  0  0  0  0  0  0  0  0  0  0
  188.5620  174.3730  140.7890 C   0  0  0  0  0  3  0  0  0  0  0  0
  187.8710  175.4330  140.2970 N   0  0  0  0  0  0  0  0  0  0  0  0
  187.3190  175.8940  143.7870 C   0  0  0  0  0  3  0  0  0  0  0  0
  186.1930  177.9160  140.1350 C   0  0  0  0  0  1  0  0  0  0  0  0
  189.0470  173.4460  143.0070 F   0  0  0  0  0  0  0  0  0  0  0  0
  186.1610  177.7090  142.6380 C   0  0  0  0  0  2  0  0  0  0  0  0
  187.7180  175.4320  142.5350 C   0  0  0  0  0  0  0  0  0  0  0  0
  188.3630  177.3990  146.1290 N   0  0  0  0  0  2  0  0  0  0  0  0
  193.6060  175.0640  146.4990 C   0  0  0  0  0  2  0  0  0  0  0  0
  190.8380  174.9710  146.5400 C   0  0  2  0  0  3  0  0  0  0  0  0
  190.4730  177.1790  147.3180 C   0  0  0  0  0  2  0  0  0  0  0  0
  192.8620  176.3390  146.9620 C   0  0  0  0  0  2  0  0  0  0  0  0
  189.1010  176.5580  147.0600 C   0  0  2  0  0  3  0  0  0  0  0  0
  192.9660  174.3660  145.2730 C   0  0  1  0  0  3  0  0  0  0  0  0
  191.4150  176.3540  146.4810 C   0  0  1  0  0  3  0  0  0  0  0  0
  191.4480  174.1150  145.4340 C   0  0  0  0  0  2  0  0  0  0  0  0
  189.3500  175.1870  146.4240 C   0  0  0  0  0  2  0  0  0  0  0  0
  193.2180  175.1570  143.9970 C   0  0  0  0  0  2  0  0  0  0  0  0
  192.4040  174.5900  142.8510 C   0  0  0  0  0  2  0  0  0  0  0  0
  191.6880  175.6660  142.1880 N   0  0  0  0  0  2  0  0  0  0  0  0
  190.5220  177.8870  143.1390 S   0  0  0  0  0  1  0  0  0  0  0  0
  192.0220  176.8940  142.8870 C   0  0  0  0  0  2  0  0  0  0  0  0
  2  1  2  0  0  0  0
  3  1  1  0  0  0  0
  4  3  2  0  0  0  0
  5  2  1  0  0  0  0
  6  5  2  0  0  0  0
  6  4  1  0  0  0  0
  7 16  1  0  0  0  0
  8  7  2  0  0  0  0
  8 17  1  0  0  0  0
  9 17  2  0  0  0  0
  9 15  1  0  0  0  0
 10  6  1  0  0  0  0
 11  9  1  0  0  0  0
 12 11  2  0  0  0  0
 12  8  1  0  0  0  0
 13 10  2  0  0  0  0
 14  7  1  0  0  0  0
 16 10  1  0  0  0  0
 17 13  1  0  0  0  0
 18  4  1  0  0  0  0
 19 22  1  0  0  0  0
 20 26  1  6  0  0  0
 23 18  1  6  0  0  0
 23 21  1  0  0  0  0
 24 28  1  6  0  0  0
 24 26  1  0  0  0  0
 24 19  1  0  0  0  0
 25 20  1  0  0  0  0
 25 22  1  1  0  0  0
 25 21  1  0  0  0  0
 27 20  1  0  0  0  0
 27 23  1  0  0  0  0
 29 28  1  0  0  0  0
 30 29  1  0  0  0  0
 30 32  1  0  0  0  0
 32 31  1  0  0  0  0
M  END
>  <MODEL>
6

>  <REMARK>
 VINA RESULT:      -7.4      2.792      6.395
  Name = 
  7 active torsions:
  status: ('A' for Active; 'I' for Inactive)
    1  A    between atoms: N_3  and  C_14
    2  A    between atoms: N_3  and  C_15
    3  A    between atoms: C_10  and  N_20
    4  A    between atoms: C_10  and  C_24
    5  A    between atoms: C_16  and  C_26
    6  A    between atoms: C_17  and  N_20
    7  A    between atoms: C_19  and  C_24
                            x       y       z     vdW  Elec       q    Type
                         _______ _______ _______ _____ _____    ______ ____

>  <TORSDO>
F 7

$$$$
=
 OpenBabel11052421403D

 32 36  0  0  1  0  0  0  0  0999 V2000
  184.9880  178.5230  147.3800 C   0  0  0  0  0  3  0  0  0  0  0  0
  184.3790  178.6640  146.1350 C   0  0  0  0  0  3  0  0  0  0  0  0
  186.1900  177.8250  147.4920 C   0  0  0  0  0  3  0  0  0  0  0  0
  186.7980  177.2550  146.3620 C   0  0  0  0  0  0  0  0  0  0  0  0
  184.9710  178.1020  145.0020 C   0  0  0  0  0  3  0  0  0  0  0  0
  186.1760  177.3860  145.0920 C   0  0  0  0  0  0  0  0  0  0  0  0
  187.0080  176.7960  141.4060 C   0  0  0  0  0  0  0  0  0  0  0  0
  187.8530  175.6940  141.5350 C   0  0  0  0  0  0  0  0  0  0  0  0
  188.9870  174.1110  142.5390 C   0  0  0  0  0  0  0  0  0  0  0  0
  186.7420  176.7890  143.8520 C   0  0  0  0  0  0  0  0  0  0  0  0
  189.1860  174.0450  141.1660 C   0  0  0  0  0  3  0  0  0  0  0  0
  188.4820  175.0270  140.5470 N   0  0  0  0  0  0  0  0  0  0  0  0
  187.6110  175.6780  143.9400 C   0  0  0  0  0  3  0  0  0  0  0  0
  186.6920  177.3900  140.0780 C   0  0  0  0  0  1  0  0  0  0  0  0
  189.5300  173.2930  143.4740 F   0  0  0  0  0  0  0  0  0  0  0  0
  186.4580  177.3430  142.5780 C   0  0  0  0  0  2  0  0  0  0  0  0
  188.1400  175.1610  142.7600 C   0  0  0  0  0  0  0  0  0  0  0  0
  188.0600  176.5890  146.4940 N   0  0  0  0  0  2  0  0  0  0  0  0
  193.5520  176.0750  144.8650 C   0  0  0  0  0  2  0  0  0  0  0  0
  191.5310  176.3100  146.7440 C   0  0  2  0  0  3  0  0  0  0  0  0
  190.0140  177.5430  145.4060 C   0  0  0  0  0  2  0  0  0  0  0  0
  192.2770  176.8410  144.4410 C   0  0  0  0  0  2  0  0  0  0  0  0
  189.3220  177.2720  146.7400 C   0  0  2  0  0  3  0  0  0  0  0  0
  193.2760  174.7860  145.6800 C   0  0  1  0  0  3  0  0  0  0  0  0
  191.0860  176.4870  145.3240 C   0  0  1  0  0  3  0  0  0  0  0  0
  192.3200  175.0110  146.8750 C   0  0  0  0  0  2  0  0  0  0  0  0
  190.2510  176.3550  147.5410 C   0  0  0  0  0  2  0  0  0  0  0  0
  192.7270  173.6810  144.7900 C   0  0  0  0  0  2  0  0  0  0  0  0
  193.7970  172.6420  144.5130 C   0  0  0  0  0  2  0  0  0  0  0  0
  194.4310  172.2580  145.7620 N   0  0  0  0  0  2  0  0  0  0  0  0
  196.8260  173.4650  145.8090 S   0  0  0  0  0  1  0  0  0  0  0  0
  195.8270  171.9880  145.4660 C   0  0  0  0  0  2  0  0  0  0  0  0
  1  3  1  0  0  0  0
  2  1  2  0  0  0  0
  4 18  1  0  0  0  0
  4  3  2  0  0  0  0
  5  6  2  0  0  0  0
  5  2  1  0  0  0  0
  6  4  1  0  0  0  0
  7  8  2  0  0  0  0
  7 16  1  0  0  0  0
  8 17  1  0  0  0  0
  9 17  2  0  0  0  0
  9 15  1  0  0  0  0
 10 13  2  0  0  0  0
 10  6  1  0  0  0  0
 11  9  1  0  0  0  0
 12 11  2  0  0  0  0
 12  8  1  0  0  0  0
 14  7  1  0  0  0  0
 16 10  1  0  0  0  0
 17 13  1  0  0  0  0
 19 24  1  0  0  0  0
 20 26  1  6  0  0  0
 20 27  1  0  0  0  0
 21 23  1  0  0  0  0
 22 19  1  0  0  0  0
 23 18  1  6  0  0  0
 23 27  1  0  0  0  0
 24 28  1  6  0  0  0
 24 26  1  0  0  0  0
 25 22  1  6  0  0  0
 25 21  1  0  0  0  0
 25 20  1  0  0  0  0
 29 28  1  0  0  0  0
 29 30  1  0  0  0  0
 32 30  1  0  0  0  0
 32 31  1  0  0  0  0
M  END
>  <MODEL>
7

>  <REMARK>
 VINA RESULT:      -7.2      3.930      7.515
  Name = 
  7 active torsions:
  status: ('A' for Active; 'I' for Inactive)
    1  A    between atoms: N_3  and  C_14
    2  A    between atoms: N_3  and  C_15
    3  A    between atoms: C_10  and  N_20
    4  A    between atoms: C_10  and  C_24
    5  A    between atoms: C_16  and  C_26
    6  A    between atoms: C_17  and  N_20
    7  A    between atoms: C_19  and  C_24
                            x       y       z     vdW  Elec       q    Type
                         _______ _______ _______ _____ _____    ______ ____

>  <TORSDO>
F 7

$$$$
=
 OpenBabel11052421403D

 32 36  0  0  1  0  0  0  0  0999 V2000
  184.9710  178.5970  147.7480 C   0  0  0  0  0  3  0  0  0  0  0  0
  184.1100  178.5440  146.6540 C   0  0  0  0  0  3  0  0  0  0  0  0
  186.3180  178.2750  147.5910 C   0  0  0  0  0  3  0  0  0  0  0  0
  186.8230  177.8910  146.3390 C   0  0  0  0  0  0  0  0  0  0  0  0
  184.5970  178.1630  145.4030 C   0  0  0  0  0  3  0  0  0  0  0  0
  185.9490  177.8240  145.2220 C   0  0  0  0  0  0  0  0  0  0  0  0
  187.7960  175.9760  142.4290 C   0  0  0  0  0  0  0  0  0  0  0  0
  187.2000  176.5800  141.3220 C   0  0  0  0  0  0  0  0  0  0  0  0
  185.8720  177.9210  140.2090 C   0  0  0  0  0  0  0  0  0  0  0  0
  186.4000  177.4020  143.8680 C   0  0  0  0  0  0  0  0  0  0  0  0
  186.6260  177.1560  139.3290 C   0  0  0  0  0  3  0  0  0  0  0  0
  187.4480  176.3260  140.0210 N   0  0  0  0  0  0  0  0  0  0  0  0
  185.8150  177.9830  142.7200 C   0  0  0  0  0  3  0  0  0  0  0  0
  188.8330  174.9190  142.2810 C   0  0  0  0  0  1  0  0  0  0  0  0
  184.9460  178.8550  139.8790 F   0  0  0  0  0  0  0  0  0  0  0  0
  187.3830  176.3930  143.7060 C   0  0  0  0  0  2  0  0  0  0  0  0
  186.2460  177.5460  141.4700 C   0  0  0  0  0  0  0  0  0  0  0  0
  188.2220  177.6160  146.1900 N   0  0  0  0  0  2  0  0  0  0  0  0
  193.0760  174.5400  145.9580 C   0  0  0  0  0  2  0  0  0  0  0  0
  190.3680  174.8730  146.4340 C   0  0  2  0  0  3  0  0  0  0  0  0
  190.4480  177.1570  147.0560 C   0  0  0  0  0  2  0  0  0  0  0  0
  192.6050  175.9410  146.4130 C   0  0  0  0  0  2  0  0  0  0  0  0
  188.9790  176.7370  147.0690 C   0  0  2  0  0  3  0  0  0  0  0  0
  192.1510  173.8680  144.9140 C   0  0  1  0  0  3  0  0  0  0  0  0
  191.1140  176.1440  146.1620 C   0  0  1  0  0  3  0  0  0  0  0  0
  190.6610  173.8620  145.3290 C   0  0  0  0  0  2  0  0  0  0  0  0
  188.9260  175.3050  146.5290 C   0  0  0  0  0  2  0  0  0  0  0  0
  192.2960  174.5240  143.5480 C   0  0  0  0  0  2  0  0  0  0  0  0
  193.7590  174.7660  143.2290 C   0  0  0  0  0  2  0  0  0  0  0  0
  193.8940  176.0140  142.4980 N   0  0  0  0  0  2  0  0  0  0  0  0
  196.1770  175.7680  143.8850 S   0  0  0  0  0  1  0  0  0  0  0  0
  195.3150  176.2820  142.3710 C   0  0  0  0  0  2  0  0  0  0  0  0
  2  1  2  0  0  0  0
  3  1  1  0  0  0  0
  4  3  2  0  0  0  0
  5  2  1  0  0  0  0
  6  5  2  0  0  0  0
  6  4  1  0  0  0  0
  7 16  1  0  0  0  0
  8 17  1  0  0  0  0
  8  7  2  0  0  0  0
  9 17  2  0  0  0  0
 10  6  1  0  0  0  0
 11 12  2  0  0  0  0
 11  9  1  0  0  0  0
 12  8  1  0  0  0  0
 13 10  2  0  0  0  0
 14  7  1  0  0  0  0
 15  9  1  0  0  0  0
 16 10  1  0  0  0  0
 17 13  1  0  0  0  0
 18  4  1  0  0  0  0
 19 22  1  0  0  0  0
 20 26  1  6  0  0  0
 20 27  1  0  0  0  0
 21 23  1  0  0  0  0
 23 18  1  6  0  0  0
 24 28  1  6  0  0  0
 24 26  1  0  0  0  0
 24 19  1  0  0  0  0
 25 22  1  1  0  0  0
 25 20  1  0  0  0  0
 25 21  1  0  0  0  0
 27 23  1  0  0  0  0
 29 28  1  0  0  0  0
 30 29  1  0  0  0  0
 32 30  1  0  0  0  0
 32 31  1  0  0  0  0
M  END
>  <MODEL>
8

>  <REMARK>
 VINA RESULT:      -7.2      3.539      6.890
  Name = 
  7 active torsions:
  status: ('A' for Active; 'I' for Inactive)
    1  A    between atoms: N_3  and  C_14
    2  A    between atoms: N_3  and  C_15
    3  A    between atoms: C_10  and  N_20
    4  A    between atoms: C_10  and  C_24
    5  A    between atoms: C_16  and  C_26
    6  A    between atoms: C_17  and  N_20
    7  A    between atoms: C_19  and  C_24
                            x       y       z     vdW  Elec       q    Type
                         _______ _______ _______ _____ _____    ______ ____

>  <TORSDO>
F 7

$$$$
=
 OpenBabel11052421403D

 32 36  0  0  1  0  0  0  0  0999 V2000
  189.6560  175.1860  147.1650 C   0  0  0  0  0  3  0  0  0  0  0  0
  190.8050  175.5390  147.8700 C   0  0  0  0  0  3  0  0  0  0  0  0
  189.7660  174.5380  145.9360 C   0  0  0  0  0  3  0  0  0  0  0  0
  191.0250  174.2380  145.3910 C   0  0  0  0  0  0  0  0  0  0  0  0
  192.0640  175.2490  147.3410 C   0  0  0  0  0  3  0  0  0  0  0  0
  192.1990  174.6060  146.0990 C   0  0  0  0  0  0  0  0  0  0  0  0
  195.4450  172.8080  145.1730 C   0  0  0  0  0  0  0  0  0  0  0  0
  196.1200  173.8590  144.5510 C   0  0  0  0  0  0  0  0  0  0  0  0
  196.4600  175.8830  143.7850 C   0  0  0  0  0  0  0  0  0  0  0  0
  193.5690  174.3470  145.5790 C   0  0  0  0  0  0  0  0  0  0  0  0
  197.5620  175.0810  143.5210 C   0  0  0  0  0  3  0  0  0  0  0  0
  197.3480  173.8270  143.9970 N   0  0  0  0  0  0  0  0  0  0  0  0
  194.2820  175.3830  144.9330 C   0  0  0  0  0  3  0  0  0  0  0  0
  196.0510  171.4540  145.2970 C   0  0  0  0  0  1  0  0  0  0  0  0
  196.3160  177.1910  143.4560 F   0  0  0  0  0  0  0  0  0  0  0  0
  194.1600  173.0630  145.6820 C   0  0  0  0  0  2  0  0  0  0  0  0
  195.5520  175.0970  144.4390 C   0  0  0  0  0  0  0  0  0  0  0  0
  191.1110  173.5230  144.1520 N   0  0  0  0  0  2  0  0  0  0  0  0
  188.4300  178.2130  142.1760 C   0  0  0  0  0  2  0  0  0  0  0  0
  188.8270  175.4790  142.3780 C   0  0  2  0  0  3  0  0  0  0  0  0
  191.1580  175.5410  142.7940 C   0  0  0  0  0  2  0  0  0  0  0  0
  189.8710  177.7260  142.4590 C   0  0  0  0  0  2  0  0  0  0  0  0
  190.7260  174.0770  142.8610 C   0  0  2  0  0  3  0  0  0  0  0  0
  187.3380  177.4600  142.9760 C   0  0  1  0  0  3  0  0  0  0  0  0
  189.8870  176.3130  143.0320 C   0  0  1  0  0  3  0  0  0  0  0  0
  187.4520  175.9210  142.8690 C   0  0  0  0  0  2  0  0  0  0  0  0
  189.2000  174.0620  142.7340 C   0  0  0  0  0  2  0  0  0  0  0  0
  187.3490  177.8710  144.4410 C   0  0  0  0  0  2  0  0  0  0  0  0
  186.7870  176.7610  145.3080 C   0  0  0  0  0  2  0  0  0  0  0  0
  186.2940  177.3240  146.5530 N   0  0  0  0  0  2  0  0  0  0  0  0
  184.0830  178.7050  145.9150 S   0  0  0  0  0  1  0  0  0  0  0  0
  185.8650  178.6820  146.2660 C   0  0  0  0  0  2  0  0  0  0  0  0
  1  2  1  0  0  0  0
  3  1  2  0  0  0  0
  4  3  1  0  0  0  0
  4  6  2  0  0  0  0
  5  2  2  0  0  0  0
  6  5  1  0  0  0  0
  7 14  1  0  0  0  0
  7 16  1  0  0  0  0
  8  7  2  0  0  0  0
  9 17  2  0  0  0  0
 10 16  1  0  0  0  0
 10  6  1  0  0  0  0
 11  9  1  0  0  0  0
 11 12  2  0  0  0  0
 12  8  1  0  0  0  0
 13 10  2  0  0  0  0
 15  9  1  0  0  0  0
 17  8  1  0  0  0  0
 17 13  1  0  0  0  0
 18  4  1  0  0  0  0
 19 22  1  0  0  0  0
 19 24  1  0  0  0  0
 20 27  1  1  0  0  0
 20 26  1  0  0  0  0
 20 25  1  0  0  0  0
 21 23  1  0  0  0  0
 21 25  1  0  0  0  0
 23 18  1  1  0  0  0
 24 28  1  1  0  0  0
 25 22  1  6  0  0  0
 26 24  1  0  0  0  0
 27 23  1  0  0  0  0
 28 29  1  0  0  0  0
 29 30  1  0  0  0  0
 31 32  1  0  0  0  0
 32 30  1  0  0  0  0
M  END
>  <MODEL>
9

>  <REMARK>
 VINA RESULT:      -7.1      3.538      6.207
  Name = 
  7 active torsions:
  status: ('A' for Active; 'I' for Inactive)
    1  A    between atoms: N_3  and  C_14
    2  A    between atoms: N_3  and  C_15
    3  A    between atoms: C_10  and  N_20
    4  A    between atoms: C_10  and  C_24
    5  A    between atoms: C_16  and  C_26
    6  A    between atoms: C_17  and  N_20
    7  A    between atoms: C_19  and  C_24
                            x       y       z     vdW  Elec       q    Type
                         _______ _______ _______ _____ _____    ______ ____

>  <TORSDO>
F 7

$$$$
