=
 OpenBabel11052417553D

 31 33  0  0  1  0  0  0  0  0999 V2000
  184.7770  177.9090  146.8380 C   0  0  0  0  0  0  0  0  0  0  0  0
  187.5750  176.1580  144.9600 C   0  0  2  0  0  3  0  0  0  0  0  0
  186.8500  177.0130  145.9610 C   0  0  0  0  0  0  0  0  0  0  0  0
  185.4920  178.6290  147.8000 C   0  0  0  0  0  3  0  0  0  0  0  0
  189.5750  176.2520  146.6850 C   0  0  1  0  0  3  0  0  0  0  0  0
  183.4260  177.9940  146.7950 F   0  0  0  0  0  0  0  0  0  0  0  0
  189.0610  177.6730  146.9530 C   0  0  0  0  0  2  0  0  0  0  0  0
  188.8440  175.5720  145.5460 C   0  0  0  0  0  0  0  0  0  0  0  0
  185.4550  177.1050  145.9170 C   0  0  0  0  0  3  0  0  0  0  0  0
  187.5670  177.7320  146.9340 C   0  0  0  0  0  0  0  0  0  0  0  0
  186.8860  178.5450  147.8450 C   0  0  0  0  0  3  0  0  0  0  0  0
  189.2490  174.4970  145.1350 O   0  0  0  0  0  0  0  0  0  0  0  0
  187.7880  176.9220  143.6420 C   0  0  1  0  0  3  0  0  0  0  0  0
  189.3980  178.1170  142.0820 C   0  0  0  0  0  2  0  0  0  0  0  0
  189.2540  177.1290  143.2490 C   0  0  0  0  0  2  0  0  0  0  0  0
  186.9810  175.0210  142.3850 F   0  0  0  0  0  0  0  0  0  0  0  0
  188.1090  178.3100  141.2710 C   0  0  0  0  0  2  0  0  0  0  0  0
  186.2330  177.1790  140.3170 O   0  0  0  0  0  1  0  0  0  0  0  0
  186.9360  176.4000  142.4710 C   0  0  2  0  0  3  0  0  0  0  0  0
  187.3590  176.9900  141.1170 C   0  0  2  0  0  3  0  0  0  0  0  0
  191.6140  175.0250  148.2710 O   0  0  0  0  0  0  0  0  0  0  0  0
  191.9740  175.6710  147.2490 C   0  0  0  0  0  0  0  0  0  0  0  0
  191.0040  176.2930  146.4050 N   0  0  0  0  0  2  0  0  0  0  0  0
  193.7410  177.1720  146.7940 O   0  0  0  0  0  1  0  0  0  0  0  0
  193.4250  175.8160  146.9230 C   0  0  2  0  0  3  0  0  0  0  0  0
  193.5530  173.6980  145.8140 O   0  0  0  0  0  1  0  0  0  0  0  0
  193.7760  175.0660  145.6400 C   0  0  2  0  0  3  0  0  0  0  0  0
  195.2410  175.2990  145.2750 C   0  0  0  0  0  2  0  0  0  0  0  0
  195.4350  175.7190  143.8210 C   0  0  1  0  0  3  0  0  0  0  0  0
  194.1120  176.0010  143.1340 C   0  0  0  0  0  1  0  0  0  0  0  0
  196.2690  176.8360  143.7340 O   0  0  0  0  0  1  0  0  0  0  0  0
  1  4  1  0  0  0  0
  2  8  1  1  0  0  0
  2  3  1  0  0  0  0
  3 10  2  0  0  0  0
  4 11  2  0  0  0  0
  5 23  1  6  0  0  0
  5  7  1  0  0  0  0
  6  1  1  0  0  0  0
  8  5  1  0  0  0  0
  9  3  1  0  0  0  0
  9  1  2  0  0  0  0
 10  7  1  0  0  0  0
 10 11  1  0  0  0  0
 12  8  2  0  0  0  0
 13 15  1  6  0  0  0
 13  2  1  0  0  0  0
 14 15  1  0  0  0  0
 17 14  1  0  0  0  0
 19 16  1  6  0  0  0
 19 13  1  0  0  0  0
 20 18  1  6  0  0  0
 20 17  1  0  0  0  0
 20 19  1  0  0  0  0
 22 21  2  0  0  0  0
 23 22  1  0  0  0  0
 25 24  1  6  0  0  0
 25 22  1  0  0  0  0
 27 26  1  1  0  0  0
 27 25  1  0  0  0  0
 28 27  1  0  0  0  0
 29 30  1  1  0  0  0
 29 28  1  0  0  0  0
 31 29  1  0  0  0  0
M  END
>  <MODEL>
1

>  <REMARK>
 VINA RESULT:      -7.5      0.000      0.000
  Name = 
  6 active torsions:
  status: ('A' for Active; 'I' for Inactive)
    1  A    between atoms: C_1  and  C_24
    2  A    between atoms: C_4  and  C_5
    3  A    between atoms: C_9  and  C_22
    4  A    between atoms: C_15  and  N_23
    5  A    between atoms: C_19  and  C_22
    6  A    between atoms: C_19  and  C_24
                            x       y       z     vdW  Elec       q    Type
                         _______ _______ _______ _____ _____    ______ ____

>  <TORSDO>
F 6

$$$$
=
 OpenBabel11052417553D

 31 33  0  0  1  0  0  0  0  0999 V2000
  185.6240  178.2810  140.5980 C   0  0  0  0  0  0  0  0  0  0  0  0
  187.9690  178.2100  143.5840 C   0  0  2  0  0  3  0  0  0  0  0  0
  187.3130  177.8510  142.2810 C   0  0  0  0  0  0  0  0  0  0  0  0
  186.0620  177.1700  139.8710 C   0  0  0  0  0  3  0  0  0  0  0  0
  189.9790  176.7370  142.7050 C   0  0  1  0  0  3  0  0  0  0  0  0
  184.5930  179.0280  140.1370 F   0  0  0  0  0  0  0  0  0  0  0  0
  188.8670  175.8880  142.0750 C   0  0  0  0  0  2  0  0  0  0  0  0
  189.4400  177.8460  143.5840 C   0  0  0  0  0  0  0  0  0  0  0  0
  186.2450  178.6180  141.8040 C   0  0  0  0  0  3  0  0  0  0  0  0
  187.7570  176.7380  141.5440 C   0  0  0  0  0  0  0  0  0  0  0  0
  187.1250  176.3970  140.3460 C   0  0  0  0  0  3  0  0  0  0  0  0
  190.2160  178.5030  144.2580 O   0  0  0  0  0  0  0  0  0  0  0  0
  187.1800  177.6310  144.7710 C   0  0  1  0  0  3  0  0  0  0  0  0
  187.2330  176.4740  147.0320 C   0  0  0  0  0  2  0  0  0  0  0  0
  188.0280  177.2860  145.9990 C   0  0  0  0  0  2  0  0  0  0  0  0
  186.1780  179.7910  145.1870 F   0  0  0  0  0  0  0  0  0  0  0  0
  185.7110  176.5830  146.8670 C   0  0  0  0  0  2  0  0  0  0  0  0
  183.9160  178.0910  146.4040 O   0  0  0  0  0  1  0  0  0  0  0  0
  185.9190  178.4340  145.1360 C   0  0  2  0  0  3  0  0  0  0  0  0
  185.3050  178.0010  146.4760 C   0  0  2  0  0  3  0  0  0  0  0  0
  192.8350  176.7430  142.5430 O   0  0  0  0  0  0  0  0  0  0  0  0
  192.2920  175.9230  143.3340 C   0  0  0  0  0  0  0  0  0  0  0  0
  190.8720  175.8810  143.4740 N   0  0  0  0  0  2  0  0  0  0  0  0
  192.5020  173.7180  144.1540 O   0  0  0  0  0  1  0  0  0  0  0  0
  193.1320  174.9650  144.1150 C   0  0  2  0  0  3  0  0  0  0  0  0
  194.7480  175.5340  145.7880 O   0  0  0  0  0  1  0  0  0  0  0  0
  193.3760  175.4800  145.5320 C   0  0  2  0  0  3  0  0  0  0  0  0
  192.7060  174.5600  146.5510 C   0  0  0  0  0  2  0  0  0  0  0  0
  191.4940  175.1970  147.2250 C   0  0  1  0  0  3  0  0  0  0  0  0
  191.5330  176.7110  147.1410 C   0  0  0  0  0  1  0  0  0  0  0  0
  190.3070  174.7150  146.6690 O   0  0  0  0  0  1  0  0  0  0  0  0
  1  9  1  0  0  0  0
  2  3  1  6  0  0  0
  2 13  1  0  0  0  0
  4 11  1  0  0  0  0
  4  1  2  0  0  0  0
  5 23  1  1  0  0  0
  5  8  1  0  0  0  0
  6  1  1  0  0  0  0
  7  5  1  0  0  0  0
  8  2  1  0  0  0  0
  8 12  2  0  0  0  0
  9  3  2  0  0  0  0
 10  7  1  0  0  0  0
 10  3  1  0  0  0  0
 11 10  2  0  0  0  0
 13 19  1  0  0  0  0
 13 15  1  1  0  0  0
 15 14  1  0  0  0  0
 17 14  1  0  0  0  0
 19 16  1  1  0  0  0
 19 20  1  0  0  0  0
 20 18  1  6  0  0  0
 20 17  1  0  0  0  0
 21 22  2  0  0  0  0
 22 23  1  0  0  0  0
 22 25  1  0  0  0  0
 25 24  1  1  0  0  0
 25 27  1  0  0  0  0
 27 26  1  1  0  0  0
 27 28  1  0  0  0  0
 28 29  1  0  0  0  0
 29 30  1  6  0  0  0
 31 29  1  0  0  0  0
M  END
>  <MODEL>
2

>  <REMARK>
 VINA RESULT:      -7.3      2.384      4.956
  Name = 
  6 active torsions:
  status: ('A' for Active; 'I' for Inactive)
    1  A    between atoms: C_1  and  C_24
    2  A    between atoms: C_4  and  C_5
    3  A    between atoms: C_9  and  C_22
    4  A    between atoms: C_15  and  N_23
    5  A    between atoms: C_19  and  C_22
    6  A    between atoms: C_19  and  C_24
                            x       y       z     vdW  Elec       q    Type
                         _______ _______ _______ _____ _____    ______ ____

>  <TORSDO>
F 6

$$$$
=
 OpenBabel11052417553D

 31 33  0  0  1  0  0  0  0  0999 V2000
  185.3260  178.9470  145.0100 C   0  0  0  0  0  0  0  0  0  0  0  0
  188.6930  177.4290  144.1220 C   0  0  2  0  0  3  0  0  0  0  0  0
  187.2150  177.6960  144.1480 C   0  0  0  0  0  0  0  0  0  0  0  0
  184.4580  178.1790  144.2280 C   0  0  0  0  0  3  0  0  0  0  0  0
  188.1940  176.2200  141.8270 C   0  0  1  0  0  3  0  0  0  0  0  0
  184.8340  179.9240  145.8070 F   0  0  0  0  0  0  0  0  0  0  0  0
  186.8790  175.8210  142.5100 C   0  0  0  0  0  2  0  0  0  0  0  0
  189.1450  176.9360  142.7630 C   0  0  0  0  0  0  0  0  0  0  0  0
  186.7020  178.7030  144.9730 C   0  0  0  0  0  3  0  0  0  0  0  0
  186.3400  176.9300  143.3570 C   0  0  0  0  0  0  0  0  0  0  0  0
  184.9630  177.1680  143.4060 C   0  0  0  0  0  3  0  0  0  0  0  0
  190.2800  177.1790  142.3880 O   0  0  0  0  0  0  0  0  0  0  0  0
  189.1030  176.5140  145.2890 C   0  0  1  0  0  3  0  0  0  0  0  0
  189.4510  174.1500  146.1510 C   0  0  0  0  0  2  0  0  0  0  0  0
  189.3100  175.0440  144.9100 C   0  0  0  0  0  2  0  0  0  0  0  0
  191.2900  177.5420  145.3550 F   0  0  0  0  0  0  0  0  0  0  0  0
  189.8270  174.9160  147.4270 C   0  0  0  0  0  2  0  0  0  0  0  0
  191.2040  176.6600  148.3060 O   0  0  0  0  0  1  0  0  0  0  0  0
  190.2580  177.0680  146.1430 C   0  0  2  0  0  3  0  0  0  0  0  0
  190.8260  176.0290  147.1220 C   0  0  2  0  0  3  0  0  0  0  0  0
  187.8130  175.2020  139.1810 O   0  0  0  0  0  0  0  0  0  0  0  0
  188.5900  174.5700  139.9480 C   0  0  0  0  0  0  0  0  0  0  0  0
  188.8370  175.0350  141.2750 N   0  0  0  0  0  2  0  0  0  0  0  0
  188.2990  172.2770  139.4550 O   0  0  0  0  0  1  0  0  0  0  0  0
  189.2430  173.3080  139.4830 C   0  0  2  0  0  3  0  0  0  0  0  0
  191.6050  172.9590  139.6620 O   0  0  0  0  0  1  0  0  0  0  0  0
  190.4130  172.9310  140.3900 C   0  0  2  0  0  3  0  0  0  0  0  0
  190.2050  171.5320  140.9660 C   0  0  0  0  0  2  0  0  0  0  0  0
  190.0620  171.5270  142.4860 C   0  0  1  0  0  3  0  0  0  0  0  0
  191.1890  172.2860  143.1600 C   0  0  0  0  0  1  0  0  0  0  0  0
  188.8280  172.0560  142.8700 O   0  0  0  0  0  1  0  0  0  0  0  0
  1  6  1  0  0  0  0
  2  8  1  6  0  0  0
  2  3  1  0  0  0  0
  2 13  1  0  0  0  0
  3  9  2  0  0  0  0
  4  1  2  0  0  0  0
  5 23  1  1  0  0  0
  5  7  1  0  0  0  0
  5  8  1  0  0  0  0
  7 10  1  0  0  0  0
  9  1  1  0  0  0  0
 10 11  2  0  0  0  0
 10  3  1  0  0  0  0
 11  4  1  0  0  0  0
 12  8  2  0  0  0  0
 13 15  1  6  0  0  0
 13 19  1  0  0  0  0
 14 17  1  0  0  0  0
 15 14  1  0  0  0  0
 19 16  1  6  0  0  0
 19 20  1  0  0  0  0
 20 17  1  0  0  0  0
 20 18  1  1  0  0  0
 21 22  2  0  0  0  0
 22 23  1  0  0  0  0
 25 24  1  1  0  0  0
 25 22  1  0  0  0  0
 25 27  1  0  0  0  0
 27 26  1  6  0  0  0
 27 28  1  0  0  0  0
 28 29  1  0  0  0  0
 29 31  1  0  0  0  0
 29 30  1  1  0  0  0
M  END
>  <MODEL>
3

>  <REMARK>
 VINA RESULT:      -7.3      3.367      6.026
  Name = 
  6 active torsions:
  status: ('A' for Active; 'I' for Inactive)
    1  A    between atoms: C_1  and  C_24
    2  A    between atoms: C_4  and  C_5
    3  A    between atoms: C_9  and  C_22
    4  A    between atoms: C_15  and  N_23
    5  A    between atoms: C_19  and  C_22
    6  A    between atoms: C_19  and  C_24
                            x       y       z     vdW  Elec       q    Type
                         _______ _______ _______ _____ _____    ______ ____

>  <TORSDO>
F 6

$$$$
=
 OpenBabel11052417553D

 31 33  0  0  1  0  0  0  0  0999 V2000
  194.8360  175.6430  144.8530 C   0  0  0  0  0  0  0  0  0  0  0  0
  191.4060  175.6290  143.2210 C   0  0  2  0  0  3  0  0  0  0  0  0
  192.4930  175.7750  144.2490 C   0  0  0  0  0  0  0  0  0  0  0  0
  194.5210  176.0120  146.1640 C   0  0  0  0  0  3  0  0  0  0  0  0
  189.9800  177.1270  144.8650 C   0  0  1  0  0  3  0  0  0  0  0  0
  196.1230  175.4000  144.5090 F   0  0  0  0  0  0  0  0  0  0  0  0
  190.7540  176.3790  145.9580 C   0  0  0  0  0  2  0  0  0  0  0  0
  190.2680  176.5950  143.4760 C   0  0  0  0  0  0  0  0  0  0  0  0
  193.8230  175.5210  143.8970 C   0  0  0  0  0  3  0  0  0  0  0  0
  192.1800  176.1530  145.5670 C   0  0  0  0  0  0  0  0  0  0  0  0
  193.1940  176.2620  146.5220 C   0  0  0  0  0  3  0  0  0  0  0  0
  189.6110  177.0040  142.5330 O   0  0  0  0  0  0  0  0  0  0  0  0
  190.9660  174.1610  143.0970 C   0  0  1  0  0  3  0  0  0  0  0  0
  189.4940  172.2740  143.9520 C   0  0  0  0  0  2  0  0  0  0  0  0
  189.7180  173.7930  143.9060 C   0  0  0  0  0  2  0  0  0  0  0  0
  190.2460  174.5460  140.8220 F   0  0  0  0  0  0  0  0  0  0  0  0
  190.2290  171.5060  142.8450 C   0  0  0  0  0  2  0  0  0  0  0  0
  190.8110  171.5320  140.5270 O   0  0  0  0  0  1  0  0  0  0  0  0
  190.8960  173.6480  141.6470 C   0  0  2  0  0  3  0  0  0  0  0  0
  190.2020  172.2830  141.5310 C   0  0  2  0  0  3  0  0  0  0  0  0
  188.7100  177.9410  147.2950 O   0  0  0  0  0  0  0  0  0  0  0  0
  187.9810  177.4610  146.3830 C   0  0  0  0  0  0  0  0  0  0  0  0
  188.5510  177.0530  145.1390 N   0  0  0  0  0  2  0  0  0  0  0  0
  186.0110  176.3510  145.7010 O   0  0  0  0  0  1  0  0  0  0  0  0
  186.5130  177.2910  146.6050 C   0  0  2  0  0  3  0  0  0  0  0  0
  185.5880  179.2080  147.7030 O   0  0  0  0  0  1  0  0  0  0  0  0
  185.7780  178.6210  146.4490 C   0  0  2  0  0  3  0  0  0  0  0  0
  184.4210  178.4000  145.7830 C   0  0  0  0  0  2  0  0  0  0  0  0
  184.3100  179.0720  144.4170 C   0  0  1  0  0  3  0  0  0  0  0  0
  185.5420  179.8960  144.0920 C   0  0  0  0  0  1  0  0  0  0  0  0
  184.0870  178.1250  143.4150 O   0  0  0  0  0  1  0  0  0  0  0  0
  1  4  1  0  0  0  0
  2  8  1  1  0  0  0
  2  3  1  0  0  0  0
  3 10  2  0  0  0  0
  4 11  2  0  0  0  0
  5 23  1  1  0  0  0
  5  7  1  0  0  0  0
  6  1  1  0  0  0  0
  8  5  1  0  0  0  0
  9  3  1  0  0  0  0
  9  1  2  0  0  0  0
 10  7  1  0  0  0  0
 10 11  1  0  0  0  0
 12  8  2  0  0  0  0
 13  2  1  0  0  0  0
 13 15  1  6  0  0  0
 15 14  1  0  0  0  0
 17 14  1  0  0  0  0
 19 16  1  6  0  0  0
 19 13  1  0  0  0  0
 20 18  1  6  0  0  0
 20 19  1  0  0  0  0
 20 17  1  0  0  0  0
 22 25  1  0  0  0  0
 22 21  2  0  0  0  0
 23 22  1  0  0  0  0
 25 24  1  6  0  0  0
 27 25  1  0  0  0  0
 27 26  1  1  0  0  0
 28 27  1  0  0  0  0
 29 30  1  6  0  0  0
 29 28  1  0  0  0  0
 31 29  1  0  0  0  0
M  END
>  <MODEL>
4

>  <REMARK>
 VINA RESULT:      -7.1      3.561      7.370
  Name = 
  6 active torsions:
  status: ('A' for Active; 'I' for Inactive)
    1  A    between atoms: C_1  and  C_24
    2  A    between atoms: C_4  and  C_5
    3  A    between atoms: C_9  and  C_22
    4  A    between atoms: C_15  and  N_23
    5  A    between atoms: C_19  and  C_22
    6  A    between atoms: C_19  and  C_24
                            x       y       z     vdW  Elec       q    Type
                         _______ _______ _______ _____ _____    ______ ____

>  <TORSDO>
F 6

$$$$
=
 OpenBabel11052417553D

 31 33  0  0  1  0  0  0  0  0999 V2000
  186.3850  177.6190  140.5240 C   0  0  0  0  0  0  0  0  0  0  0  0
  188.1180  177.9290  143.8890 C   0  0  2  0  0  3  0  0  0  0  0  0
  187.7080  177.4040  142.5420 C   0  0  0  0  0  0  0  0  0  0  0  0
  186.9130  176.4160  140.0460 C   0  0  0  0  0  3  0  0  0  0  0  0
  190.2040  176.3300  143.6120 C   0  0  1  0  0  3  0  0  0  0  0  0
  185.4870  178.3070  139.7790 F   0  0  0  0  0  0  0  0  0  0  0  0
  189.2020  175.4150  142.8970 C   0  0  0  0  0  2  0  0  0  0  0  0
  189.5480  177.5530  144.2190 C   0  0  0  0  0  0  0  0  0  0  0  0
  186.7780  178.1100  141.7720 C   0  0  0  0  0  3  0  0  0  0  0  0
  188.2440  176.1970  142.0560 C   0  0  0  0  0  0  0  0  0  0  0  0
  187.8380  175.7030  140.8130 C   0  0  0  0  0  3  0  0  0  0  0  0
  190.2060  178.2870  144.9380 O   0  0  0  0  0  0  0  0  0  0  0  0
  187.0990  177.5230  144.9670 C   0  0  1  0  0  3  0  0  0  0  0  0
  186.6770  176.5210  147.2630 C   0  0  0  0  0  2  0  0  0  0  0  0
  187.7090  177.1670  146.3260 C   0  0  0  0  0  2  0  0  0  0  0  0
  186.3160  179.8060  145.1170 F   0  0  0  0  0  0  0  0  0  0  0  0
  185.2210  176.7900  146.8610 C   0  0  0  0  0  2  0  0  0  0  0  0
  183.7100  178.4560  146.0530 O   0  0  0  0  0  1  0  0  0  0  0  0
  185.9040  178.4860  145.0940 C   0  0  2  0  0  3  0  0  0  0  0  0
  185.0520  178.2160  146.3430 C   0  0  2  0  0  3  0  0  0  0  0  0
  192.9870  176.5580  144.2360 O   0  0  0  0  0  0  0  0  0  0  0  0
  192.3030  175.7270  144.8950 C   0  0  0  0  0  0  0  0  0  0  0  0
  190.9040  175.5770  144.6450 N   0  0  0  0  0  2  0  0  0  0  0  0
  193.5590  175.6790  146.8950 O   0  0  0  0  0  1  0  0  0  0  0  0
  192.9550  174.8680  145.9290 C   0  0  2  0  0  3  0  0  0  0  0  0
  193.7890  172.6310  145.7470 O   0  0  0  0  0  1  0  0  0  0  0  0
  193.9880  173.9380  145.2970 C   0  0  2  0  0  3  0  0  0  0  0  0
  195.4010  174.3900  145.6640 C   0  0  0  0  0  2  0  0  0  0  0  0
  196.1850  174.9300  144.4710 C   0  0  1  0  0  3  0  0  0  0  0  0
  197.5960  174.3730  144.4260 C   0  0  0  0  0  1  0  0  0  0  0  0
  195.5200  174.6520  143.2740 O   0  0  0  0  0  1  0  0  0  0  0  0
  1  9  1  0  0  0  0
  2  3  1  6  0  0  0
  2  8  1  0  0  0  0
  2 13  1  0  0  0  0
  4  1  2  0  0  0  0
  4 11  1  0  0  0  0
  5  8  1  0  0  0  0
  5 23  1  1  0  0  0
  6  1  1  0  0  0  0
  7  5  1  0  0  0  0
  8 12  2  0  0  0  0
  9  3  2  0  0  0  0
 10  3  1  0  0  0  0
 10  7  1  0  0  0  0
 11 10  2  0  0  0  0
 13 19  1  0  0  0  0
 13 15  1  1  0  0  0
 15 14  1  0  0  0  0
 17 14  1  0  0  0  0
 19 16  1  1  0  0  0
 19 20  1  0  0  0  0
 20 18  1  6  0  0  0
 20 17  1  0  0  0  0
 21 22  2  0  0  0  0
 22 25  1  0  0  0  0
 23 22  1  0  0  0  0
 25 24  1  1  0  0  0
 27 28  1  0  0  0  0
 27 26  1  1  0  0  0
 27 25  1  0  0  0  0
 29 30  1  6  0  0  0
 29 28  1  0  0  0  0
 31 29  1  0  0  0  0
M  END
>  <MODEL>
5

>  <REMARK>
 VINA RESULT:      -7.0      2.249      4.439
  Name = 
  6 active torsions:
  status: ('A' for Active; 'I' for Inactive)
    1  A    between atoms: C_1  and  C_24
    2  A    between atoms: C_4  and  C_5
    3  A    between atoms: C_9  and  C_22
    4  A    between atoms: C_15  and  N_23
    5  A    between atoms: C_19  and  C_22
    6  A    between atoms: C_19  and  C_24
                            x       y       z     vdW  Elec       q    Type
                         _______ _______ _______ _____ _____    ______ ____

>  <TORSDO>
F 6

$$$$
=
 OpenBabel11052417553D

 31 33  0  0  1  0  0  0  0  0999 V2000
  190.3560  171.6440  142.7050 C   0  0  0  0  0  0  0  0  0  0  0  0
  190.1460  174.4440  145.2620 C   0  0  2  0  0  3  0  0  0  0  0  0
  189.8990  173.6200  144.0290 C   0  0  0  0  0  0  0  0  0  0  0  0
  189.4710  172.0950  141.7210 C   0  0  0  0  0  3  0  0  0  0  0  0
  187.8580  175.6140  144.6490 C   0  0  1  0  0  3  0  0  0  0  0  0
  191.0080  170.4680  142.5410 F   0  0  0  0  0  0  0  0  0  0  0  0
  188.3170  175.3880  143.2030 C   0  0  0  0  0  2  0  0  0  0  0  0
  188.9120  175.2240  145.6650 C   0  0  0  0  0  0  0  0  0  0  0  0
  190.5730  172.4070  143.8550 C   0  0  0  0  0  3  0  0  0  0  0  0
  189.0030  174.0680  143.0420 C   0  0  0  0  0  0  0  0  0  0  0  0
  188.7980  173.3090  141.8870 C   0  0  0  0  0  3  0  0  0  0  0  0
  188.7310  175.4880  146.8420 O   0  0  0  0  0  0  0  0  0  0  0  0
  191.4080  175.3080  145.0970 C   0  0  1  0  0  3  0  0  0  0  0  0
  192.4160  177.5400  144.4230 C   0  0  0  0  0  2  0  0  0  0  0  0
  191.1400  176.7940  144.8400 C   0  0  0  0  0  2  0  0  0  0  0  0
  191.9010  175.0750  147.4530 F   0  0  0  0  0  0  0  0  0  0  0  0
  193.7120  176.8090  144.7980 C   0  0  0  0  0  2  0  0  0  0  0  0
  194.7970  175.5430  146.5100 O   0  0  0  0  0  1  0  0  0  0  0  0
  192.4680  175.0840  146.1910 C   0  0  2  0  0  3  0  0  0  0  0  0
  193.5850  176.1370  146.1630 C   0  0  2  0  0  3  0  0  0  0  0  0
  185.5040  176.5430  145.9830 O   0  0  0  0  0  0  0  0  0  0  0  0
  186.2830  177.4070  145.4940 C   0  0  0  0  0  0  0  0  0  0  0  0
  187.4840  177.0100  144.8310 N   0  0  0  0  0  2  0  0  0  0  0  0
  184.8610  179.0350  146.4490 O   0  0  0  0  0  1  0  0  0  0  0  0
  185.9430  178.8600  145.5810 C   0  0  2  0  0  3  0  0  0  0  0  0
  185.5680  180.8240  144.2620 O   0  0  0  0  0  1  0  0  0  0  0  0
  185.6130  179.4280  144.2020 C   0  0  2  0  0  3  0  0  0  0  0  0
  184.2630  178.8990  143.7210 C   0  0  0  0  0  2  0  0  0  0  0  0
  184.3620  178.1000  142.4240 C   0  0  1  0  0  3  0  0  0  0  0  0
  183.1350  178.2890  141.5510 C   0  0  0  0  0  1  0  0  0  0  0  0
  185.5140  178.4450  141.7160 O   0  0  0  0  0  1  0  0  0  0  0  0
  1  9  1  0  0  0  0
  2  3  1  6  0  0  0
  2  8  1  0  0  0  0
  4 11  1  0  0  0  0
  4  1  2  0  0  0  0
  5 23  1  6  0  0  0
  5  8  1  0  0  0  0
  6  1  1  0  0  0  0
  7  5  1  0  0  0  0
  8 12  2  0  0  0  0
  9  3  2  0  0  0  0
 10  7  1  0  0  0  0
 10  3  1  0  0  0  0
 11 10  2  0  0  0  0
 13 15  1  1  0  0  0
 13  2  1  0  0  0  0
 13 19  1  0  0  0  0
 14 17  1  0  0  0  0
 14 15  1  0  0  0  0
 17 20  1  0  0  0  0
 19 16  1  1  0  0  0
 20 19  1  0  0  0  0
 20 18  1  6  0  0  0
 22 25  1  0  0  0  0
 22 21  2  0  0  0  0
 23 22  1  0  0  0  0
 25 24  1  1  0  0  0
 27 26  1  1  0  0  0
 27 25  1  0  0  0  0
 28 27  1  0  0  0  0
 29 30  1  6  0  0  0
 29 28  1  0  0  0  0
 31 29  1  0  0  0  0
M  END
>  <MODEL>
6

>  <REMARK>
 VINA RESULT:      -6.9      3.508      7.748
  Name = 
  6 active torsions:
  status: ('A' for Active; 'I' for Inactive)
    1  A    between atoms: C_1  and  C_24
    2  A    between atoms: C_4  and  C_5
    3  A    between atoms: C_9  and  C_22
    4  A    between atoms: C_15  and  N_23
    5  A    between atoms: C_19  and  C_22
    6  A    between atoms: C_19  and  C_24
                            x       y       z     vdW  Elec       q    Type
                         _______ _______ _______ _____ _____    ______ ____

>  <TORSDO>
F 6

$$$$
=
 OpenBabel11052417553D

 31 33  0  0  1  0  0  0  0  0999 V2000
  184.8150  177.9240  146.8810 C   0  0  0  0  0  0  0  0  0  0  0  0
  187.6020  176.2040  144.9580 C   0  0  2  0  0  3  0  0  0  0  0  0
  186.8840  177.0570  145.9660 C   0  0  0  0  0  0  0  0  0  0  0  0
  185.5380  178.6690  147.8180 C   0  0  0  0  0  3  0  0  0  0  0  0
  189.6380  176.3560  146.6360 C   0  0  1  0  0  3  0  0  0  0  0  0
  183.4620  177.9840  146.8680 F   0  0  0  0  0  0  0  0  0  0  0  0
  189.1050  177.7690  146.9000 C   0  0  0  0  0  2  0  0  0  0  0  0
  188.8950  175.6490  145.5210 C   0  0  0  0  0  0  0  0  0  0  0  0
  185.4870  177.1230  145.9530 C   0  0  0  0  0  3  0  0  0  0  0  0
  187.6090  177.8010  146.9140 C   0  0  0  0  0  0  0  0  0  0  0  0
  186.9350  178.6110  147.8310 C   0  0  0  0  0  3  0  0  0  0  0  0
  189.3100  174.5770  145.1130 O   0  0  0  0  0  0  0  0  0  0  0  0
  187.7710  176.9560  143.6270 C   0  0  1  0  0  3  0  0  0  0  0  0
  189.3230  178.1570  142.0140 C   0  0  0  0  0  2  0  0  0  0  0  0
  189.2230  177.1800  143.1950 C   0  0  0  0  0  2  0  0  0  0  0  0
  186.9580  175.0310  142.4110 F   0  0  0  0  0  0  0  0  0  0  0  0
  188.0110  178.3230  141.2350 C   0  0  0  0  0  2  0  0  0  0  0  0
  186.1270  177.1570  140.3410 O   0  0  0  0  0  1  0  0  0  0  0  0
  186.8960  176.4100  142.4840 C   0  0  2  0  0  3  0  0  0  0  0  0
  187.2750  176.9920  141.1140 C   0  0  2  0  0  3  0  0  0  0  0  0
  191.7030  174.9000  147.9780 O   0  0  0  0  0  0  0  0  0  0  0  0
  192.0440  175.6770  147.0440 C   0  0  0  0  0  0  0  0  0  0  0  0
  191.0600  176.4190  146.3220 N   0  0  0  0  0  2  0  0  0  0  0  0
  193.7120  177.1650  146.2810 O   0  0  0  0  0  1  0  0  0  0  0  0
  193.4870  175.8510  146.6990 C   0  0  2  0  0  3  0  0  0  0  0  0
  194.1160  175.5510  144.4080 O   0  0  0  0  0  1  0  0  0  0  0  0
  193.9120  174.8680  145.6100 C   0  0  2  0  0  3  0  0  0  0  0  0
  192.8350  173.8030  145.4100 C   0  0  0  0  0  2  0  0  0  0  0  0
  192.9110  173.1260  144.0440 C   0  0  1  0  0  3  0  0  0  0  0  0
  192.9710  171.6150  144.1670 C   0  0  0  0  0  1  0  0  0  0  0  0
  191.8290  173.5000  143.2440 O   0  0  0  0  0  1  0  0  0  0  0  0
  1  4  1  0  0  0  0
  2  8  1  1  0  0  0
  2  3  1  0  0  0  0
  3 10  2  0  0  0  0
  4 11  2  0  0  0  0
  5 23  1  6  0  0  0
  5  7  1  0  0  0  0
  6  1  1  0  0  0  0
  7 10  1  0  0  0  0
  8  5  1  0  0  0  0
  9  3  1  0  0  0  0
  9  1  2  0  0  0  0
 10 11  1  0  0  0  0
 12  8  2  0  0  0  0
 13 15  1  6  0  0  0
 13  2  1  0  0  0  0
 14 15  1  0  0  0  0
 17 14  1  0  0  0  0
 19 16  1  6  0  0  0
 19 13  1  0  0  0  0
 20 18  1  6  0  0  0
 20 17  1  0  0  0  0
 20 19  1  0  0  0  0
 22 21  2  0  0  0  0
 23 22  1  0  0  0  0
 25 24  1  6  0  0  0
 25 22  1  0  0  0  0
 27 26  1  6  0  0  0
 27 25  1  0  0  0  0
 28 27  1  0  0  0  0
 29 30  1  1  0  0  0
 29 28  1  0  0  0  0
 31 29  1  0  0  0  0
M  END
>  <MODEL>
7

>  <REMARK>
 VINA RESULT:      -6.8      1.141      1.609
  Name = 
  6 active torsions:
  status: ('A' for Active; 'I' for Inactive)
    1  A    between atoms: C_1  and  C_24
    2  A    between atoms: C_4  and  C_5
    3  A    between atoms: C_9  and  C_22
    4  A    between atoms: C_15  and  N_23
    5  A    between atoms: C_19  and  C_22
    6  A    between atoms: C_19  and  C_24
                            x       y       z     vdW  Elec       q    Type
                         _______ _______ _______ _____ _____    ______ ____

>  <TORSDO>
F 6

$$$$
=
 OpenBabel11052417553D

 31 33  0  0  1  0  0  0  0  0999 V2000
  185.7940  178.8340  144.2540 C   0  0  0  0  0  0  0  0  0  0  0  0
  189.1580  177.1000  143.9260 C   0  0  2  0  0  3  0  0  0  0  0  0
  187.6980  177.4170  143.7640 C   0  0  0  0  0  0  0  0  0  0  0  0
  184.9720  177.9960  143.4950 C   0  0  0  0  0  3  0  0  0  0  0  0
  188.8300  175.6080  141.7700 C   0  0  1  0  0  3  0  0  0  0  0  0
  185.2720  179.9260  144.8610 F   0  0  0  0  0  0  0  0  0  0  0  0
  187.4370  175.3490  142.3610 C   0  0  0  0  0  2  0  0  0  0  0  0
  189.7170  176.4130  142.6970 C   0  0  0  0  0  0  0  0  0  0  0  0
  187.1550  178.5420  144.3920 C   0  0  0  0  0  3  0  0  0  0  0  0
  186.8700  176.5800  142.9950 C   0  0  0  0  0  0  0  0  0  0  0  0
  185.5080  176.8670  142.8690 C   0  0  0  0  0  3  0  0  0  0  0  0
  190.8930  176.5650  142.4130 O   0  0  0  0  0  0  0  0  0  0  0  0
  189.4090  176.3390  145.2390 C   0  0  1  0  0  3  0  0  0  0  0  0
  189.5030  174.1070  146.4500 C   0  0  0  0  0  2  0  0  0  0  0  0
  189.5220  174.8190  145.0880 C   0  0  0  0  0  2  0  0  0  0  0  0
  191.6620  177.2090  145.3380 F   0  0  0  0  0  0  0  0  0  0  0  0
  189.8480  175.0230  147.6320 C   0  0  0  0  0  2  0  0  0  0  0  0
  191.2970  176.7750  148.3660 O   0  0  0  0  0  1  0  0  0  0  0  0
  190.5420  176.9290  146.0980 C   0  0  2  0  0  3  0  0  0  0  0  0
  190.9530  176.0070  147.2560 C   0  0  2  0  0  3  0  0  0  0  0  0
  188.6230  174.2300  139.2720 O   0  0  0  0  0  0  0  0  0  0  0  0
  189.3110  173.6940  140.1840 C   0  0  0  0  0  0  0  0  0  0  0  0
  189.4690  174.3390  141.4480 N   0  0  0  0  0  2  0  0  0  0  0  0
  189.8770  171.6060  141.1330 O   0  0  0  0  0  1  0  0  0  0  0  0
  189.9490  172.3610  139.9600 C   0  0  2  0  0  3  0  0  0  0  0  0
  191.6270  171.7800  138.3530 O   0  0  0  0  0  1  0  0  0  0  0  0
  191.4030  172.5180  139.5180 C   0  0  2  0  0  3  0  0  0  0  0  0
  192.3440  172.0280  140.6170 C   0  0  0  0  0  2  0  0  0  0  0  0
  193.0600  173.1650  141.3420 C   0  0  1  0  0  3  0  0  0  0  0  0
  193.0650  174.4410  140.5210 C   0  0  0  0  0  1  0  0  0  0  0  0
  192.4810  173.3980  142.5910 O   0  0  0  0  0  1  0  0  0  0  0  0
  1  9  1  0  0  0  0
  1  6  1  0  0  0  0
  2  8  1  6  0  0  0
  2 13  1  0  0  0  0
  3  2  1  0  0  0  0
  3  9  2  0  0  0  0
  4  1  2  0  0  0  0
  5 23  1  1  0  0  0
  5  7  1  0  0  0  0
  5  8  1  0  0  0  0
  7 10  1  0  0  0  0
 10  3  1  0  0  0  0
 11 10  2  0  0  0  0
 11  4  1  0  0  0  0
 12  8  2  0  0  0  0
 13 15  1  6  0  0  0
 13 19  1  0  0  0  0
 14 17  1  0  0  0  0
 15 14  1  0  0  0  0
 19 16  1  6  0  0  0
 19 20  1  0  0  0  0
 20 17  1  0  0  0  0
 20 18  1  1  0  0  0
 21 22  2  0  0  0  0
 22 23  1  0  0  0  0
 25 22  1  0  0  0  0
 25 24  1  1  0  0  0
 27 26  1  6  0  0  0
 27 25  1  0  0  0  0
 27 28  1  0  0  0  0
 28 29  1  0  0  0  0
 29 30  1  6  0  0  0
 29 31  1  0  0  0  0
M  END
>  <MODEL>
8

>  <REMARK>
 VINA RESULT:      -6.8      3.449      5.768
  Name = 
  6 active torsions:
  status: ('A' for Active; 'I' for Inactive)
    1  A    between atoms: C_1  and  C_24
    2  A    between atoms: C_4  and  C_5
    3  A    between atoms: C_9  and  C_22
    4  A    between atoms: C_15  and  N_23
    5  A    between atoms: C_19  and  C_22
    6  A    between atoms: C_19  and  C_24
                            x       y       z     vdW  Elec       q    Type
                         _______ _______ _______ _____ _____    ______ ____

>  <TORSDO>
F 6

$$$$
=
 OpenBabel11052417553D

 31 33  0  0  1  0  0  0  0  0999 V2000
  196.6450  171.3700  145.3700 C   0  0  0  0  0  0  0  0  0  0  0  0
  195.5930  174.9860  144.8760 C   0  0  2  0  0  3  0  0  0  0  0  0
  195.5340  173.5150  145.1750 C   0  0  0  0  0  0  0  0  0  0  0  0
  195.4270  170.7660  145.6980 C   0  0  0  0  0  3  0  0  0  0  0  0
  193.2940  175.1000  146.1720 C   0  0  1  0  0  3  0  0  0  0  0  0
  197.7740  170.6250  145.3040 F   0  0  0  0  0  0  0  0  0  0  0  0
  193.0570  173.7210  145.5430 C   0  0  0  0  0  2  0  0  0  0  0  0
  194.5660  175.7580  145.6780 C   0  0  0  0  0  0  0  0  0  0  0  0
  196.6970  172.7420  145.1040 C   0  0  0  0  0  3  0  0  0  0  0  0
  194.3120  172.9070  145.5130 C   0  0  0  0  0  0  0  0  0  0  0  0
  194.2600  171.5330  145.7650 C   0  0  0  0  0  3  0  0  0  0  0  0
  194.7980  176.9150  145.9880 O   0  0  0  0  0  0  0  0  0  0  0  0
  195.5240  175.2390  143.3600 C   0  0  1  0  0  3  0  0  0  0  0  0
  194.1510  176.0100  141.3660 C   0  0  0  0  0  2  0  0  0  0  0  0
  194.2950  176.0270  142.8960 C   0  0  0  0  0  2  0  0  0  0  0  0
  197.3550  176.8100  143.5160 F   0  0  0  0  0  0  0  0  0  0  0  0
  195.4470  175.6510  140.6260 C   0  0  0  0  0  2  0  0  0  0  0  0
  197.8110  175.9960  140.5790 O   0  0  0  0  0  1  0  0  0  0  0  0
  196.8320  175.7810  142.7550 C   0  0  2  0  0  3  0  0  0  0  0  0
  196.6590  176.2770  141.3110 C   0  0  2  0  0  3  0  0  0  0  0  0
  191.2990  175.8580  148.0780 O   0  0  0  0  0  0  0  0  0  0  0  0
  191.1790  176.2900  146.8980 C   0  0  0  0  0  0  0  0  0  0  0  0
  192.1510  175.9630  145.9030 N   0  0  0  0  0  2  0  0  0  0  0  0
  189.6150  177.9080  147.6150 O   0  0  0  0  0  1  0  0  0  0  0  0
  190.0030  177.1300  146.5210 C   0  0  2  0  0  3  0  0  0  0  0  0
  188.5460  176.5420  144.7130 O   0  0  0  0  0  1  0  0  0  0  0  0
  188.8380  176.2610  146.0500 C   0  0  2  0  0  3  0  0  0  0  0  0
  187.6010  176.5270  146.9060 C   0  0  0  0  0  2  0  0  0  0  0  0
  186.5770  177.4230  146.2130 C   0  0  1  0  0  3  0  0  0  0  0  0
  185.2020  176.7830  146.1740 C   0  0  0  0  0  1  0  0  0  0  0  0
  186.5080  178.6710  146.8360 O   0  0  0  0  0  1  0  0  0  0  0  0
  1  4  1  0  0  0  0
  2  3  1  6  0  0  0
  2  8  1  0  0  0  0
  3 10  2  0  0  0  0
  4 11  2  0  0  0  0
  5 23  1  6  0  0  0
  6  1  1  0  0  0  0
  7  5  1  0  0  0  0
  8 12  2  0  0  0  0
  8  5  1  0  0  0  0
  9  3  1  0  0  0  0
  9  1  2  0  0  0  0
 10  7  1  0  0  0  0
 10 11  1  0  0  0  0
 13 15  1  1  0  0  0
 13  2  1  0  0  0  0
 14 15  1  0  0  0  0
 17 20  1  0  0  0  0
 17 14  1  0  0  0  0
 19 13  1  0  0  0  0
 19 16  1  1  0  0  0
 20 18  1  6  0  0  0
 20 19  1  0  0  0  0
 22 21  2  0  0  0  0
 23 22  1  0  0  0  0
 25 22  1  0  0  0  0
 25 24  1  1  0  0  0
 27 26  1  6  0  0  0
 27 25  1  0  0  0  0
 27 28  1  0  0  0  0
 29 30  1  1  0  0  0
 29 31  1  0  0  0  0
 29 28  1  0  0  0  0
M  END
>  <MODEL>
9

>  <REMARK>
 VINA RESULT:      -6.8      4.014      8.548
  Name = 
  6 active torsions:
  status: ('A' for Active; 'I' for Inactive)
    1  A    between atoms: C_1  and  C_24
    2  A    between atoms: C_4  and  C_5
    3  A    between atoms: C_9  and  C_22
    4  A    between atoms: C_15  and  N_23
    5  A    between atoms: C_19  and  C_22
    6  A    between atoms: C_19  and  C_24
                            x       y       z     vdW  Elec       q    Type
                         _______ _______ _______ _____ _____    ______ ____

>  <TORSDO>
F 6

$$$$
