=
 OpenBabel11052421313D

 32 37  0  0  1  0  0  0  0  0999 V2000
  191.4530  172.3300  139.7410 C   0  0  1  0  0  3  0  0  0  0  0  0
  189.3380  176.0590  142.6500 C   0  0  1  0  0  3  0  0  0  0  0  0
  191.7750  175.2020  146.9260 C   0  0  0  0  0  2  0  0  0  0  0  0
  190.6320  175.9780  147.5600 C   0  0  0  0  0  2  0  0  0  0  0  0
  187.4880  177.7390  143.0080 C   0  0  0  0  0  0  0  0  0  0  0  0
  186.5800  178.3590  143.8620 C   0  0  0  0  0  0  0  0  0  0  0  0
  189.7070  174.1770  141.0520 C   0  0  1  0  0  3  0  0  0  0  0  0
  191.5860  175.0140  142.5210 C   0  0  0  0  0  2  0  0  0  0  0  0
  185.4410  178.8940  145.7900 C   0  0  1  0  0  3  0  0  0  0  0  0
  192.0420  173.2180  140.8470 C   0  0  0  0  0  2  0  0  0  0  0  0
  191.7190  175.3520  145.4380 C   0  0  0  0  0  3  0  0  0  0  0  0
  190.5530  175.6240  143.3510 N   0  0  0  0  0  0  0  0  0  0  0  0
  190.5560  175.4260  144.7760 C   0  0  0  0  0  0  0  0  0  0  0  0
  188.3100  176.4770  144.9440 C   0  0  0  0  0  0  0  0  0  0  0  0
  184.8950  179.7120  144.6850 N   0  0  0  0  0  0  0  0  0  0  0  0
  190.0480  171.8190  140.0890 C   0  0  0  0  0  2  0  0  0  0  0  0
  190.9980  173.7990  141.8050 C   0  0  2  0  0  3  0  0  0  0  0  0
  185.6250  179.3380  143.5370 N   0  0  0  0  0  0  0  0  0  0  0  0
  189.0590  172.9570  140.3860 C   0  0  0  0  0  2  0  0  0  0  0  0
  189.3160  175.4050  147.0470 C   0  0  0  0  0  2  0  0  0  0  0  0
  189.2260  175.4170  145.5050 C   0  0  2  0  0  3  0  0  0  0  0  0
  187.3570  177.1220  145.7610 C   0  0  0  0  0  3  0  0  0  0  0  0
  188.6910  174.8540  141.9730 C   0  0  0  0  0  2  0  0  0  0  0  0
  187.5190  178.0630  141.6550 O   0  0  0  0  0  1  0  0  0  0  0  0
  184.3950  178.0400  146.3250 N   0  0  0  0  0  1  0  0  0  0  0  0
  188.3660  176.7770  143.5520 C   0  0  0  0  0  0  0  0  0  0  0  0
  186.5100  178.0620  145.1780 C   0  0  0  0  0  0  0  0  0  0  0  0
  191.4620  173.0780  138.4160 C   0  0  0  0  0  2  0  0  0  0  0  0
  189.7800  172.6760  136.5730 C   0  0  0  0  0  0  0  0  0  0  0  0
  190.8870  172.2490  137.3680 N   0  0  0  0  0  2  0  0  0  0  0  0
  189.3340  171.9190  135.6730 O   0  0  0  0  0  0  0  0  0  0  0  0
  189.1400  174.0050  136.7910 C   0  0  0  0  0  1  0  0  0  0  0  0
  1 28  1  6  0  0  0
  1 16  1  0  0  0  0
  1 10  1  0  0  0  0
  2 23  1  1  0  0  0
  2 12  1  0  0  0  0
  2 26  1  0  0  0  0
  3  4  1  0  0  0  0
  5 26  2  0  0  0  0
  5  6  1  0  0  0  0
  6 27  2  0  0  0  0
  7 19  1  1  0  0  0
  7 17  1  0  0  0  0
  7 23  1  0  0  0  0
  8 12  1  0  0  0  0
  9 25  1  6  0  0  0
 11  3  1  0  0  0  0
 12 13  1  0  0  0  0
 13 11  2  0  0  0  0
 13 21  1  0  0  0  0
 14 21  1  0  0  0  0
 14 22  2  0  0  0  0
 15  9  1  0  0  0  0
 16 19  1  0  0  0  0
 17 10  1  6  0  0  0
 17  8  1  0  0  0  0
 18  6  1  0  0  0  0
 18 15  2  0  0  0  0
 20  4  1  0  0  0  0
 21 20  1  1  0  0  0
 24  5  1  0  0  0  0
 26 14  1  0  0  0  0
 27 22  1  0  0  0  0
 27  9  1  0  0  0  0
 29 32  1  0  0  0  0
 29 30  1  0  0  0  0
 30 28  1  0  0  0  0
 31 29  2  0  0  0  0
M  END
>  <MODEL>
1

>  <REMARK>
 VINA RESULT:      -8.7      0.000      0.000
  Name = 
  2 active torsions:
  status: ('A' for Active; 'I' for Inactive)
    1  A    between atoms: C_2  and  C_24
    2  A    between atoms: N_10  and  C_24
                            x       y       z     vdW  Elec       q    Type
                         _______ _______ _______ _____ _____    ______ ____

>  <TORSDO>
F 2

$$$$
=
 OpenBabel11052421313D

 32 37  0  0  1  0  0  0  0  0999 V2000
  192.1000  173.7650  145.1220 C   0  0  1  0  0  3  0  0  0  0  0  0
  188.2610  176.9210  143.6590 C   0  0  1  0  0  3  0  0  0  0  0  0
  186.5780  178.2600  148.1680 C   0  0  0  0  0  2  0  0  0  0  0  0
  185.3110  178.6380  147.4180 C   0  0  0  0  0  2  0  0  0  0  0  0
  186.6950  177.7330  141.8530 C   0  0  0  0  0  0  0  0  0  0  0  0
  185.4180  178.1280  141.4610 C   0  0  0  0  0  0  0  0  0  0  0  0
  189.8550  175.0110  143.8630 C   0  0  1  0  0  3  0  0  0  0  0  0
  189.8600  176.8860  145.5570 C   0  0  0  0  0  2  0  0  0  0  0  0
  183.1750  178.6290  141.5860 C   0  0  1  0  0  3  0  0  0  0  0  0
  191.5620  175.0660  145.7330 C   0  0  0  0  0  2  0  0  0  0  0  0
  187.6770  177.9860  147.1900 C   0  0  0  0  0  3  0  0  0  0  0  0
  188.5230  177.2140  145.0740 N   0  0  0  0  0  0  0  0  0  0  0  0
  187.4430  177.4080  146.0030 C   0  0  0  0  0  0  0  0  0  0  0  0
  185.8150  177.4590  144.1260 C   0  0  0  0  0  0  0  0  0  0  0  0
  183.6220  178.8400  140.1910 N   0  0  0  0  0  0  0  0  0  0  0  0
  190.9750  172.8350  144.6460 C   0  0  0  0  0  2  0  0  0  0  0  0
  190.1210  175.3980  145.3310 C   0  0  2  0  0  3  0  0  0  0  0  0
  184.9950  178.5150  140.1780 N   0  0  0  0  0  0  0  0  0  0  0  0
  190.0400  173.5070  143.6280 C   0  0  0  0  0  2  0  0  0  0  0  0
  184.9090  177.4690  146.5270 C   0  0  0  0  0  2  0  0  0  0  0  0
  186.0380  177.0470  145.5600 C   0  0  2  0  0  3  0  0  0  0  0  0
  184.5360  177.8470  143.6710 C   0  0  0  0  0  3  0  0  0  0  0  0
  188.4540  175.4280  143.4120 C   0  0  0  0  0  2  0  0  0  0  0  0
  187.7330  177.6830  140.9280 O   0  0  0  0  0  1  0  0  0  0  0  0
  182.1580  177.5930  141.6180 N   0  0  0  0  0  1  0  0  0  0  0  0
  186.9000  177.3870  143.2060 C   0  0  0  0  0  0  0  0  0  0  0  0
  184.3830  178.1770  142.3260 C   0  0  0  0  0  0  0  0  0  0  0  0
  193.0730  174.0830  143.9970 C   0  0  0  0  0  2  0  0  0  0  0  0
  194.9180  175.6980  144.6100 C   0  0  0  0  0  0  0  0  0  0  0  0
  193.5920  175.4340  144.1510 N   0  0  0  0  0  2  0  0  0  0  0  0
  195.3140  176.8870  144.7120 O   0  0  0  0  0  0  0  0  0  0  0  0
  195.8440  174.5880  144.9760 C   0  0  0  0  0  1  0  0  0  0  0  0
  1 28  1  6  0  0  0
  1 10  1  0  0  0  0
  2 23  1  1  0  0  0
  2 12  1  0  0  0  0
  4  3  1  0  0  0  0
  5 26  1  0  0  0  0
  6  5  2  0  0  0  0
  6 27  1  0  0  0  0
  7 23  1  1  0  0  0
  7 17  1  0  0  0  0
  9 25  1  6  0  0  0
  9 27  1  0  0  0  0
 11  3  1  0  0  0  0
 12  8  1  0  0  0  0
 12 13  1  0  0  0  0
 13 11  2  0  0  0  0
 14 21  1  0  0  0  0
 15  9  1  0  0  0  0
 16  1  1  0  0  0  0
 17  8  1  6  0  0  0
 17 10  1  0  0  0  0
 18 15  2  0  0  0  0
 18  6  1  0  0  0  0
 19  7  1  0  0  0  0
 19 16  1  0  0  0  0
 20  4  1  0  0  0  0
 21 13  1  0  0  0  0
 21 20  1  1  0  0  0
 22 14  1  0  0  0  0
 24  5  1  0  0  0  0
 26  2  1  0  0  0  0
 26 14  2  0  0  0  0
 27 22  2  0  0  0  0
 28 30  1  0  0  0  0
 29 31  2  0  0  0  0
 29 32  1  0  0  0  0
 30 29  1  0  0  0  0
M  END
>  <MODEL>
2

>  <REMARK>
 VINA RESULT:      -8.7      3.586      5.255
  Name = 
  2 active torsions:
  status: ('A' for Active; 'I' for Inactive)
    1  A    between atoms: C_2  and  C_24
    2  A    between atoms: N_10  and  C_24
                            x       y       z     vdW  Elec       q    Type
                         _______ _______ _______ _____ _____    ______ ____

>  <TORSDO>
F 2

$$$$
=
 OpenBabel11052421313D

 32 37  0  0  1  0  0  0  0  0999 V2000
  195.6120  174.8910  144.3920 C   0  0  1  0  0  3  0  0  0  0  0  0
  190.4680  175.2070  144.9160 C   0  0  1  0  0  3  0  0  0  0  0  0
  189.1310  174.2000  140.2090 C   0  0  0  0  0  2  0  0  0  0  0  0
  187.8210  174.8670  140.5960 C   0  0  0  0  0  2  0  0  0  0  0  0
  188.4710  175.9720  146.2580 C   0  0  0  0  0  0  0  0  0  0  0  0
  187.2040  176.5490  146.3010 C   0  0  0  0  0  0  0  0  0  0  0  0
  192.9260  175.6210  145.0480 C   0  0  1  0  0  3  0  0  0  0  0  0
  191.9970  173.8150  143.5430 C   0  0  0  0  0  2  0  0  0  0  0  0
  185.2460  177.5230  145.5840 C   0  0  1  0  0  3  0  0  0  0  0  0
  194.4700  174.1000  143.7380 C   0  0  0  0  0  2  0  0  0  0  0  0
  189.9510  173.9550  141.4370 C   0  0  0  0  0  3  0  0  0  0  0  0
  190.7130  174.5010  143.6530 N   0  0  0  0  0  0  0  0  0  0  0  0
  189.9520  174.8060  142.4720 C   0  0  0  0  0  0  0  0  0  0  0  0
  188.3940  176.1990  143.8170 C   0  0  0  0  0  0  0  0  0  0  0  0
  185.1960  177.4080  147.0590 N   0  0  0  0  0  0  0  0  0  0  0  0
  195.3090  176.3940  144.4750 C   0  0  0  0  0  2  0  0  0  0  0  0
  193.1220  174.8290  143.7400 C   0  0  2  0  0  3  0  0  0  0  0  0
  186.4180  176.8120  147.4360 N   0  0  0  0  0  0  0  0  0  0  0  0
  194.0050  176.6950  145.2300 C   0  0  0  0  0  2  0  0  0  0  0  0
  188.1350  176.1990  141.2650 C   0  0  0  0  0  2  0  0  0  0  0  0
  189.0760  176.0450  142.4800 C   0  0  2  0  0  3  0  0  0  0  0  0
  187.1200  176.7980  143.9190 C   0  0  0  0  0  3  0  0  0  0  0  0
  191.5430  176.2720  145.1130 C   0  0  0  0  0  2  0  0  0  0  0  0
  189.1090  175.5830  147.4320 O   0  0  0  0  0  1  0  0  0  0  0  0
  185.1790  178.9230  145.2040 N   0  0  0  0  0  1  0  0  0  0  0  0
  189.0820  175.7970  144.9980 C   0  0  0  0  0  0  0  0  0  0  0  0
  186.5590  176.9520  145.1850 C   0  0  0  0  0  0  0  0  0  0  0  0
  195.9260  174.3090  145.7630 C   0  0  0  0  0  2  0  0  0  0  0  0
  196.6390  171.8880  145.6380 C   0  0  0  0  0  0  0  0  0  0  0  0
  196.9500  173.2820  145.6480 N   0  0  0  0  0  2  0  0  0  0  0  0
  197.5670  171.0460  145.5250 O   0  0  0  0  0  0  0  0  0  0  0  0
  195.2320  171.4090  145.7630 C   0  0  0  0  0  1  0  0  0  0  0  0
  1 16  1  0  0  0  0
  1 28  1  1  0  0  0
  2 26  1  0  0  0  0
  2 23  1  6  0  0  0
  3  4  1  0  0  0  0
  3 11  1  0  0  0  0
  4 20  1  0  0  0  0
  5  6  1  0  0  0  0
  5 24  1  0  0  0  0
  6 18  1  0  0  0  0
  7 23  1  6  0  0  0
  7 19  1  0  0  0  0
  8 12  1  0  0  0  0
  9 25  1  1  0  0  0
  9 15  1  0  0  0  0
 10 17  1  0  0  0  0
 10  1  1  0  0  0  0
 11 13  2  0  0  0  0
 12  2  1  0  0  0  0
 13 21  1  0  0  0  0
 13 12  1  0  0  0  0
 14 22  2  0  0  0  0
 14 26  1  0  0  0  0
 15 18  2  0  0  0  0
 16 19  1  0  0  0  0
 17  8  1  1  0  0  0
 17  7  1  0  0  0  0
 21 20  1  6  0  0  0
 21 14  1  0  0  0  0
 22 27  1  0  0  0  0
 26  5  2  0  0  0  0
 27  9  1  0  0  0  0
 27  6  2  0  0  0  0
 29 30  1  0  0  0  0
 29 32  1  0  0  0  0
 30 28  1  0  0  0  0
 31 29  2  0  0  0  0
M  END
>  <MODEL>
3

>  <REMARK>
 VINA RESULT:      -8.0      3.653      6.014
  Name = 
  2 active torsions:
  status: ('A' for Active; 'I' for Inactive)
    1  A    between atoms: C_2  and  C_24
    2  A    between atoms: N_10  and  C_24
                            x       y       z     vdW  Elec       q    Type
                         _______ _______ _______ _____ _____    ______ ____

>  <TORSDO>
F 2

$$$$
=
 OpenBabel11052421313D

 32 37  0  0  1  0  0  0  0  0999 V2000
  187.1200  178.2150  143.4990 C   0  0  1  0  0  3  0  0  0  0  0  0
  190.4250  174.2890  144.2030 C   0  0  1  0  0  3  0  0  0  0  0  0
  194.0740  176.7430  146.5730 C   0  0  0  0  0  2  0  0  0  0  0  0
  194.9410  175.5730  146.1380 C   0  0  0  0  0  2  0  0  0  0  0  0
  191.1770  171.9560  143.5960 C   0  0  0  0  0  0  0  0  0  0  0  0
  192.2090  171.0630  143.3170 C   0  0  0  0  0  0  0  0  0  0  0  0
  188.7810  175.9020  143.2410 C   0  0  1  0  0  3  0  0  0  0  0  0
  189.8120  176.3060  145.5120 C   0  0  0  0  0  2  0  0  0  0  0  0
  194.3380  170.2490  142.9970 C   0  0  1  0  0  3  0  0  0  0  0  0
  188.0750  177.8820  144.6540 C   0  0  0  0  0  2  0  0  0  0  0  0
  192.6330  176.4170  146.3320 C   0  0  0  0  0  3  0  0  0  0  0  0
  190.8480  175.3550  145.1190 N   0  0  0  0  0  0  0  0  0  0  0  0
  192.2370  175.6890  145.2790 C   0  0  0  0  0  0  0  0  0  0  0  0
  192.8880  173.6720  143.9810 C   0  0  0  0  0  0  0  0  0  0  0  0
  193.3780  169.1470  142.7630 N   0  0  0  0  0  0  0  0  0  0  0  0
  187.7610  177.9800  142.1240 C   0  0  0  0  0  2  0  0  0  0  0  0
  189.2380  176.9640  144.2600 C   0  0  2  0  0  3  0  0  0  0  0  0
  192.0990  169.7060  142.9690 N   0  0  0  0  0  0  0  0  0  0  0  0
  188.2670  176.5400  141.9450 C   0  0  0  0  0  2  0  0  0  0  0  0
  194.7220  175.3370  144.6480 C   0  0  0  0  0  2  0  0  0  0  0  0
  193.2360  175.1050  144.2970 C   0  0  2  0  0  3  0  0  0  0  0  0
  193.8930  172.7310  143.6700 C   0  0  0  0  0  3  0  0  0  0  0  0
  189.9010  174.9140  142.9130 C   0  0  0  0  0  2  0  0  0  0  0  0
  189.8510  171.5410  143.5430 O   0  0  0  0  0  1  0  0  0  0  0  0
  195.0840  170.5090  141.7770 N   0  0  0  0  0  1  0  0  0  0  0  0
  191.5180  173.2850  143.9280 C   0  0  0  0  0  0  0  0  0  0  0  0
  193.5080  171.4320  143.3450 C   0  0  0  0  0  0  0  0  0  0  0  0
  185.8260  177.4300  143.6530 C   0  0  0  0  0  2  0  0  0  0  0  0
  184.5370  177.9470  145.7630 C   0  0  0  0  0  0  0  0  0  0  0  0
  184.8500  178.2120  144.3950 N   0  0  0  0  0  2  0  0  0  0  0  0
  183.6910  178.6660  146.3570 O   0  0  0  0  0  0  0  0  0  0  0  0
  185.1920  176.8300  146.5040 C   0  0  0  0  0  1  0  0  0  0  0  0
  1 28  1  1  0  0  0
  1 10  1  0  0  0  0
  2 23  1  6  0  0  0
  2 12  1  0  0  0  0
  4  3  1  0  0  0  0
  5 26  1  0  0  0  0
  6 27  1  0  0  0  0
  6  5  2  0  0  0  0
  7 19  1  6  0  0  0
  7 17  1  0  0  0  0
  9 25  1  6  0  0  0
  9 27  1  0  0  0  0
 11  3  1  0  0  0  0
 12 13  1  0  0  0  0
 12  8  1  0  0  0  0
 13 11  2  0  0  0  0
 14 21  1  0  0  0  0
 15 18  2  0  0  0  0
 15  9  1  0  0  0  0
 16  1  1  0  0  0  0
 17 10  1  1  0  0  0
 17  8  1  0  0  0  0
 18  6  1  0  0  0  0
 19 16  1  0  0  0  0
 20  4  1  0  0  0  0
 21 20  1  1  0  0  0
 21 13  1  0  0  0  0
 22 14  1  0  0  0  0
 23  7  1  0  0  0  0
 24  5  1  0  0  0  0
 26 14  2  0  0  0  0
 26  2  1  0  0  0  0
 27 22  2  0  0  0  0
 28 30  1  0  0  0  0
 29 31  2  0  0  0  0
 29 32  1  0  0  0  0
 30 29  1  0  0  0  0
M  END
>  <MODEL>
4

>  <REMARK>
 VINA RESULT:      -7.9      3.276      7.998
  Name = 
  2 active torsions:
  status: ('A' for Active; 'I' for Inactive)
    1  A    between atoms: C_2  and  C_24
    2  A    between atoms: N_10  and  C_24
                            x       y       z     vdW  Elec       q    Type
                         _______ _______ _______ _____ _____    ______ ____

>  <TORSDO>
F 2

$$$$
=
 OpenBabel11052421313D

 32 37  0  0  1  0  0  0  0  0999 V2000
  185.9520  178.6570  142.7510 C   0  0  1  0  0  3  0  0  0  0  0  0
  189.2190  175.0400  144.5070 C   0  0  1  0  0  3  0  0  0  0  0  0
  191.1690  177.5450  148.3650 C   0  0  0  0  0  2  0  0  0  0  0  0
  192.3010  176.5360  148.2560 C   0  0  0  0  0  2  0  0  0  0  0  0
  190.4890  172.8950  144.1130 C   0  0  0  0  0  0  0  0  0  0  0  0
  191.6630  172.1560  144.2350 C   0  0  0  0  0  0  0  0  0  0  0  0
  187.8940  176.5810  143.0560 C   0  0  1  0  0  3  0  0  0  0  0  0
  187.8320  176.8020  145.5730 C   0  0  0  0  0  2  0  0  0  0  0  0
  193.8310  171.6160  144.7880 C   0  0  1  0  0  3  0  0  0  0  0  0
  186.3880  178.2830  144.1740 C   0  0  0  0  0  2  0  0  0  0  0  0
  190.0190  177.1030  147.5150 C   0  0  0  0  0  3  0  0  0  0  0  0
  189.0660  176.0220  145.5890 N   0  0  0  0  0  0  0  0  0  0  0  0
  190.2020  176.4760  146.3450 C   0  0  0  0  0  0  0  0  0  0  0  0
  191.6170  174.7170  145.3050 C   0  0  0  0  0  0  0  0  0  0  0  0
  193.2260  170.4580  144.0940 N   0  0  0  0  0  0  0  0  0  0  0  0
  187.1280  178.6650  141.7630 C   0  0  0  0  0  2  0  0  0  0  0  0
  187.7310  177.5490  144.2450 C   0  0  2  0  0  3  0  0  0  0  0  0
  191.9080  170.8490  143.7780 N   0  0  0  0  0  0  0  0  0  0  0  0
  187.8690  177.3200  141.7130 C   0  0  0  0  0  2  0  0  0  0  0  0
  192.7490  176.4670  146.8010 C   0  0  0  0  0  2  0  0  0  0  0  0
  191.5890  176.1280  145.8390 C   0  0  2  0  0  3  0  0  0  0  0  0
  192.7880  173.9330  145.3830 C   0  0  0  0  0  3  0  0  0  0  0  0
  189.1830  175.7650  143.1640 C   0  0  0  0  0  2  0  0  0  0  0  0
  189.3770  172.3520  143.4750 O   0  0  0  0  0  1  0  0  0  0  0  0
  194.9640  172.1040  144.0210 N   0  0  0  0  0  1  0  0  0  0  0  0
  190.4620  174.1990  144.6510 C   0  0  0  0  0  0  0  0  0  0  0  0
  192.7670  172.6520  144.8350 C   0  0  0  0  0  0  0  0  0  0  0  0
  184.8410  177.7280  142.2870 C   0  0  0  0  0  2  0  0  0  0  0  0
  182.4820  178.3850  141.6620 C   0  0  0  0  0  0  0  0  0  0  0  0
  183.5430  178.2960  142.6140 N   0  0  0  0  0  2  0  0  0  0  0  0
  181.3770  178.8770  142.0080 O   0  0  0  0  0  0  0  0  0  0  0  0
  182.6610  177.9080  140.2600 C   0  0  0  0  0  1  0  0  0  0  0  0
  1 28  1  6  0  0  0
  1 10  1  0  0  0  0
  2 23  1  6  0  0  0
  2 26  1  0  0  0  0
  2 12  1  0  0  0  0
  4  3  1  0  0  0  0
  5  6  2  0  0  0  0
  5 26  1  0  0  0  0
  6 27  1  0  0  0  0
  7 19  1  6  0  0  0
  7 23  1  0  0  0  0
  7 17  1  0  0  0  0
  8 12  1  0  0  0  0
  9 25  1  6  0  0  0
  9 27  1  0  0  0  0
 11  3  1  0  0  0  0
 12 13  1  0  0  0  0
 13 11  2  0  0  0  0
 14 22  1  0  0  0  0
 14 21  1  0  0  0  0
 15  9  1  0  0  0  0
 16  1  1  0  0  0  0
 17 10  1  6  0  0  0
 17  8  1  0  0  0  0
 18 15  2  0  0  0  0
 18  6  1  0  0  0  0
 19 16  1  0  0  0  0
 20  4  1  0  0  0  0
 21 13  1  0  0  0  0
 21 20  1  1  0  0  0
 24  5  1  0  0  0  0
 26 14  2  0  0  0  0
 27 22  2  0  0  0  0
 28 30  1  0  0  0  0
 29 31  2  0  0  0  0
 29 30  1  0  0  0  0
 32 29  1  0  0  0  0
M  END
>  <MODEL>
5

>  <REMARK>
 VINA RESULT:      -7.7      3.573      7.299
  Name = 
  2 active torsions:
  status: ('A' for Active; 'I' for Inactive)
    1  A    between atoms: C_2  and  C_24
    2  A    between atoms: N_10  and  C_24
                            x       y       z     vdW  Elec       q    Type
                         _______ _______ _______ _____ _____    ______ ____

>  <TORSDO>
F 2

$$$$
=
 OpenBabel11052421313D

 32 37  0  0  1  0  0  0  0  0999 V2000
  186.2410  178.6570  143.3310 C   0  0  1  0  0  3  0  0  0  0  0  0
  189.4110  174.5610  143.4350 C   0  0  1  0  0  3  0  0  0  0  0  0
  193.6050  176.8450  144.9020 C   0  0  0  0  0  2  0  0  0  0  0  0
  194.2970  175.6190  144.3270 C   0  0  0  0  0  2  0  0  0  0  0  0
  189.8940  172.1790  142.7530 C   0  0  0  0  0  0  0  0  0  0  0  0
  190.7940  171.2230  142.2880 C   0  0  0  0  0  0  0  0  0  0  0  0
  187.6850  176.2480  142.7950 C   0  0  1  0  0  3  0  0  0  0  0  0
  189.1980  176.6340  144.7830 C   0  0  0  0  0  2  0  0  0  0  0  0
  192.7600  170.2820  141.5480 C   0  0  1  0  0  3  0  0  0  0  0  0
  187.4020  178.2910  144.2660 C   0  0  0  0  0  2  0  0  0  0  0  0
  192.1310  176.5980  144.9820 C   0  0  0  0  0  3  0  0  0  0  0  0
  190.0750  175.6190  144.2080 N   0  0  0  0  0  0  0  0  0  0  0  0
  191.4820  175.8750  144.0590 C   0  0  0  0  0  0  0  0  0  0  0  0
  191.7340  173.8000  142.7140 C   0  0  0  0  0  0  0  0  0  0  0  0
  191.7160  169.2330  141.5570 N   0  0  0  0  0  0  0  0  0  0  0  0
  186.5610  178.3600  141.8590 C   0  0  0  0  0  2  0  0  0  0  0  0
  188.4040  177.3010  143.6620 C   0  0  2  0  0  3  0  0  0  0  0  0
  190.5420  169.8680  142.0130 N   0  0  0  0  0  0  0  0  0  0  0  0
  186.9410  176.8910  141.6190 C   0  0  0  0  0  2  0  0  0  0  0  0
  193.7530  175.3690  142.9260 C   0  0  0  0  0  2  0  0  0  0  0  0
  192.2160  175.2160  142.9060 C   0  0  2  0  0  3  0  0  0  0  0  0
  192.5990  172.7970  142.2250 C   0  0  0  0  0  3  0  0  0  0  0  0
  188.6570  175.1910  142.2670 C   0  0  0  0  0  2  0  0  0  0  0  0
  188.5660  171.8390  142.9950 O   0  0  0  0  0  1  0  0  0  0  0  0
  193.2400  170.4770  140.1910 N   0  0  0  0  0  1  0  0  0  0  0  0
  190.3660  173.4920  142.9650 C   0  0  0  0  0  0  0  0  0  0  0  0
  192.0860  171.5170  142.0280 C   0  0  0  0  0  0  0  0  0  0  0  0
  184.9710  177.9500  143.7790 C   0  0  0  0  0  2  0  0  0  0  0  0
  184.5510  178.0490  146.2690 C   0  0  0  0  0  0  0  0  0  0  0  0
  184.4240  178.6030  144.9580 N   0  0  0  0  0  2  0  0  0  0  0  0
  184.0660  178.6660  147.2520 O   0  0  0  0  0  0  0  0  0  0  0  0
  185.2460  176.7490  146.4950 C   0  0  0  0  0  1  0  0  0  0  0  0
  1 28  1  1  0  0  0
  1 10  1  0  0  0  0
  2 23  1  6  0  0  0
  2 12  1  0  0  0  0
  3 11  1  0  0  0  0
  4  3  1  0  0  0  0
  5 26  1  0  0  0  0
  5 24  1  0  0  0  0
  6  5  2  0  0  0  0
  7 19  1  6  0  0  0
  7 17  1  0  0  0  0
  9 25  1  6  0  0  0
  9 15  1  0  0  0  0
  9 27  1  0  0  0  0
 12  8  1  0  0  0  0
 13 12  1  0  0  0  0
 13 11  2  0  0  0  0
 14 21  1  0  0  0  0
 14 26  2  0  0  0  0
 15 18  2  0  0  0  0
 16  1  1  0  0  0  0
 17 10  1  1  0  0  0
 17  8  1  0  0  0  0
 18  6  1  0  0  0  0
 19 16  1  0  0  0  0
 20  4  1  0  0  0  0
 21 20  1  1  0  0  0
 21 13  1  0  0  0  0
 22 14  1  0  0  0  0
 23  7  1  0  0  0  0
 26  2  1  0  0  0  0
 27 22  2  0  0  0  0
 27  6  1  0  0  0  0
 28 30  1  0  0  0  0
 29 32  1  0  0  0  0
 29 31  2  0  0  0  0
 30 29  1  0  0  0  0
M  END
>  <MODEL>
6

>  <REMARK>
 VINA RESULT:      -7.7      2.907      7.908
  Name = 
  2 active torsions:
  status: ('A' for Active; 'I' for Inactive)
    1  A    between atoms: C_2  and  C_24
    2  A    between atoms: N_10  and  C_24
                            x       y       z     vdW  Elec       q    Type
                         _______ _______ _______ _____ _____    ______ ____

>  <TORSDO>
F 2

$$$$
=
 OpenBabel11052421313D

 32 37  0  0  1  0  0  0  0  0999 V2000
  194.1600  174.6490  142.1670 C   0  0  1  0  0  3  0  0  0  0  0  0
  189.4940  175.6060  144.2030 C   0  0  1  0  0  3  0  0  0  0  0  0
  187.0580  176.8790  140.0310 C   0  0  0  0  0  2  0  0  0  0  0  0
  186.0770  177.5420  140.9840 C   0  0  0  0  0  2  0  0  0  0  0  0
  188.0740  176.0820  146.2360 C   0  0  0  0  0  0  0  0  0  0  0  0
  187.0440  176.8000  146.8380 C   0  0  0  0  0  0  0  0  0  0  0  0
  191.9500  175.4960  143.7720 C   0  0  1  0  0  3  0  0  0  0  0  0
  190.2960  174.6630  142.0520 C   0  0  0  0  0  2  0  0  0  0  0  0
  185.3230  178.3060  147.1010 C   0  0  1  0  0  3  0  0  0  0  0  0
  192.7440  174.4090  141.6260 C   0  0  0  0  0  2  0  0  0  0  0  0
  188.0010  176.0110  140.8050 C   0  0  0  0  0  3  0  0  0  0  0  0
  189.2920  175.4530  142.7570 N   0  0  0  0  0  0  0  0  0  0  0  0
  188.4300  176.3450  142.0290 C   0  0  0  0  0  0  0  0  0  0  0  0
  187.5960  177.3060  144.1650 C   0  0  0  0  0  0  0  0  0  0  0  0
  185.5280  177.6030  148.3880 N   0  0  0  0  0  0  0  0  0  0  0  0
  194.2970  176.0110  142.8620 C   0  0  0  0  0  2  0  0  0  0  0  0
  191.6700  175.2930  142.2690 C   0  0  2  0  0  3  0  0  0  0  0  0
  186.5910  176.7030  148.1650 N   0  0  0  0  0  0  0  0  0  0  0  0
  193.2940  176.1940  144.0110 C   0  0  0  0  0  2  0  0  0  0  0  0
  186.8620  178.4030  141.9650 C   0  0  0  0  0  2  0  0  0  0  0  0
  187.9410  177.6010  142.7260 C   0  0  2  0  0  3  0  0  0  0  0  0
  186.5760  178.0190  144.8300 C   0  0  0  0  0  3  0  0  0  0  0  0
  190.8350  176.2900  144.4530 C   0  0  0  0  0  2  0  0  0  0  0  0
  188.7960  175.1390  146.9620 O   0  0  0  0  0  1  0  0  0  0  0  0
  185.5670  179.7260  147.2800 N   0  0  0  0  0  1  0  0  0  0  0  0
  188.3620  176.3400  144.8780 C   0  0  0  0  0  0  0  0  0  0  0  0
  186.3300  177.7320  146.1710 C   0  0  0  0  0  0  0  0  0  0  0  0
  194.5620  173.5090  143.0910 C   0  0  0  0  0  2  0  0  0  0  0  0
  196.6770  173.7220  144.4570 C   0  0  0  0  0  0  0  0  0  0  0  0
  196.0100  173.4570  143.2230 N   0  0  0  0  0  2  0  0  0  0  0  0
  197.9320  173.6500  144.5120 O   0  0  0  0  0  0  0  0  0  0  0  0
  195.9140  174.0870  145.6860 C   0  0  0  0  0  1  0  0  0  0  0  0
  1 16  1  0  0  0  0
  1 28  1  1  0  0  0
  2 23  1  6  0  0  0
  2 26  1  0  0  0  0
  3 11  1  0  0  0  0
  3  4  1  0  0  0  0
  4 20  1  0  0  0  0
  5  6  1  0  0  0  0
  5 24  1  0  0  0  0
  6 18  1  0  0  0  0
  7 19  1  6  0  0  0
  7 23  1  0  0  0  0
  8 17  1  0  0  0  0
  8 12  1  0  0  0  0
  9 25  1  1  0  0  0
  9 15  1  0  0  0  0
 10  1  1  0  0  0  0
 11 13  2  0  0  0  0
 12  2  1  0  0  0  0
 13 21  1  0  0  0  0
 13 12  1  0  0  0  0
 14 22  2  0  0  0  0
 14 26  1  0  0  0  0
 16 19  1  0  0  0  0
 17 10  1  1  0  0  0
 17  7  1  0  0  0  0
 18 15  2  0  0  0  0
 21 20  1  6  0  0  0
 21 14  1  0  0  0  0
 22 27  1  0  0  0  0
 26  5  2  0  0  0  0
 27  6  2  0  0  0  0
 27  9  1  0  0  0  0
 28 30  1  0  0  0  0
 29 31  2  0  0  0  0
 29 32  1  0  0  0  0
 30 29  1  0  0  0  0
M  END
>  <MODEL>
7

>  <REMARK>
 VINA RESULT:      -7.6      3.458      5.577
  Name = 
  2 active torsions:
  status: ('A' for Active; 'I' for Inactive)
    1  A    between atoms: C_2  and  C_24
    2  A    between atoms: N_10  and  C_24
                            x       y       z     vdW  Elec       q    Type
                         _______ _______ _______ _____ _____    ______ ____

>  <TORSDO>
F 2

$$$$
=
 OpenBabel11052421313D

 32 37  0  0  1  0  0  0  0  0999 V2000
  194.0010  174.5740  141.8290 C   0  0  1  0  0  3  0  0  0  0  0  0
  189.4280  175.5880  144.0430 C   0  0  1  0  0  3  0  0  0  0  0  0
  186.8590  176.9270  139.9740 C   0  0  0  0  0  2  0  0  0  0  0  0
  185.9240  177.5980  140.9660 C   0  0  0  0  0  2  0  0  0  0  0  0
  188.0940  176.0710  146.1310 C   0  0  0  0  0  0  0  0  0  0  0  0
  187.0980  176.8010  146.7760 C   0  0  0  0  0  0  0  0  0  0  0  0
  191.8650  175.4440  143.5200 C   0  0  1  0  0  3  0  0  0  0  0  0
  190.1360  174.6480  141.8570 C   0  0  0  0  0  2  0  0  0  0  0  0
  185.4110  178.3300  147.1130 C   0  0  1  0  0  3  0  0  0  0  0  0
  192.5610  174.3600  141.3390 C   0  0  0  0  0  2  0  0  0  0  0  0
  187.8160  176.0390  140.7060 C   0  0  0  0  0  3  0  0  0  0  0  0
  189.1710  175.4490  142.6050 N   0  0  0  0  0  0  0  0  0  0  0  0
  188.2960  176.3590  141.9160 C   0  0  0  0  0  0  0  0  0  0  0  0
  187.5570  177.3170  144.0870 C   0  0  0  0  0  0  0  0  0  0  0  0
  185.6530  177.6160  148.3860 N   0  0  0  0  0  0  0  0  0  0  0  0
  194.1850  175.9290  142.5260 C   0  0  0  0  0  2  0  0  0  0  0  0
  191.5260  175.2560  142.0280 C   0  0  2  0  0  3  0  0  0  0  0  0
  186.6930  176.7010  148.1180 N   0  0  0  0  0  0  0  0  0  0  0  0
  193.2270  176.1200  143.7130 C   0  0  0  0  0  2  0  0  0  0  0  0
  186.7590  178.4410  141.9230 C   0  0  0  0  0  2  0  0  0  0  0  0
  187.8530  177.6170  142.6390 C   0  0  2  0  0  3  0  0  0  0  0  0
  186.5730  178.0410  144.7940 C   0  0  0  0  0  3  0  0  0  0  0  0
  190.7880  176.2500  144.2470 C   0  0  0  0  0  2  0  0  0  0  0  0
  188.8270  175.1130  146.8240 O   0  0  0  0  0  1  0  0  0  0  0  0
  185.6830  179.7460  147.2910 N   0  0  0  0  0  1  0  0  0  0  0  0
  188.3340  176.3340  144.7650 C   0  0  0  0  0  0  0  0  0  0  0  0
  186.3740  177.7480  146.1420 C   0  0  0  0  0  0  0  0  0  0  0  0
  194.4190  173.4220  142.7300 C   0  0  0  0  0  2  0  0  0  0  0  0
  192.8460  172.0020  144.1070 C   0  0  0  0  0  0  0  0  0  0  0  0
  193.3360  172.4580  142.8450 N   0  0  0  0  0  2  0  0  0  0  0  0
  191.8990  171.1750  144.1430 O   0  0  0  0  0  0  0  0  0  0  0  0
  193.4390  172.4870  145.3870 C   0  0  0  0  0  1  0  0  0  0  0  0
  1 16  1  0  0  0  0
  1 28  1  1  0  0  0
  2 23  1  6  0  0  0
  2 26  1  0  0  0  0
  3 11  1  0  0  0  0
  3  4  1  0  0  0  0
  4 20  1  0  0  0  0
  5  6  1  0  0  0  0
  5 24  1  0  0  0  0
  6 18  1  0  0  0  0
  7 19  1  6  0  0  0
  7 23  1  0  0  0  0
  8 17  1  0  0  0  0
  8 12  1  0  0  0  0
  9 25  1  1  0  0  0
  9 15  1  0  0  0  0
 10  1  1  0  0  0  0
 11 13  2  0  0  0  0
 12  2  1  0  0  0  0
 13 12  1  0  0  0  0
 13 21  1  0  0  0  0
 14 26  1  0  0  0  0
 14 22  2  0  0  0  0
 16 19  1  0  0  0  0
 17 10  1  1  0  0  0
 17  7  1  0  0  0  0
 18 15  2  0  0  0  0
 21 20  1  6  0  0  0
 21 14  1  0  0  0  0
 22 27  1  0  0  0  0
 26  5  2  0  0  0  0
 27  6  2  0  0  0  0
 27  9  1  0  0  0  0
 28 30  1  0  0  0  0
 29 31  2  0  0  0  0
 29 32  1  0  0  0  0
 30 29  1  0  0  0  0
M  END
>  <MODEL>
8

>  <REMARK>
 VINA RESULT:      -7.5      3.126      5.031
  Name = 
  2 active torsions:
  status: ('A' for Active; 'I' for Inactive)
    1  A    between atoms: C_2  and  C_24
    2  A    between atoms: N_10  and  C_24
                            x       y       z     vdW  Elec       q    Type
                         _______ _______ _______ _____ _____    ______ ____

>  <TORSDO>
F 2

$$$$
=
 OpenBabel11052421313D

 32 37  0  0  1  0  0  0  0  0999 V2000
  185.1740  178.8340  143.7340 C   0  0  1  0  0  3  0  0  0  0  0  0
  189.0920  175.4450  143.6470 C   0  0  1  0  0  3  0  0  0  0  0  0
  191.3590  176.7500  147.9030 C   0  0  0  0  0  2  0  0  0  0  0  0
  192.5670  176.0500  147.3000 C   0  0  0  0  0  2  0  0  0  0  0  0
  190.5190  173.8190  142.3460 C   0  0  0  0  0  0  0  0  0  0  0  0
  191.7760  173.2970  142.0510 C   0  0  0  0  0  0  0  0  0  0  0  0
  187.3700  177.1440  143.0280 C   0  0  1  0  0  3  0  0  0  0  0  0
  187.7090  176.4640  145.4390 C   0  0  0  0  0  2  0  0  0  0  0  0
  194.0540  172.9760  142.1120 C   0  0  1  0  0  3  0  0  0  0  0  0
  185.8850  178.0690  144.8600 C   0  0  0  0  0  2  0  0  0  0  0  0
  190.1420  176.4410  147.0880 C   0  0  0  0  0  3  0  0  0  0  0  0
  189.0100  175.9490  145.0230 N   0  0  0  0  0  0  0  0  0  0  0  0
  190.1960  176.3000  145.7570 C   0  0  0  0  0  0  0  0  0  0  0  0
  191.6110  175.2790  143.9870 C   0  0  0  0  0  0  0  0  0  0  0  0
  193.4800  172.0450  141.1150 N   0  0  0  0  0  0  0  0  0  0  0  0
  186.1560  179.3840  142.6910 C   0  0  0  0  0  2  0  0  0  0  0  0
  187.2980  177.5960  144.5000 C   0  0  2  0  0  3  0  0  0  0  0  0
  192.0910  172.2910  141.1200 N   0  0  0  0  0  0  0  0  0  0  0  0
  187.0310  178.2870  142.0640 C   0  0  0  0  0  2  0  0  0  0  0  0
  192.7670  176.5680  145.8810 C   0  0  0  0  0  2  0  0  0  0  0  0
  191.5090  176.3900  145.0020 C   0  0  2  0  0  3  0  0  0  0  0  0
  192.8630  174.7290  143.6350 C   0  0  0  0  0  3  0  0  0  0  0  0
  188.7450  176.5730  142.6780 C   0  0  0  0  0  2  0  0  0  0  0  0
  189.3880  173.3510  141.6860 O   0  0  0  0  0  1  0  0  0  0  0  0
  194.9760  173.8850  141.4530 N   0  0  0  0  0  1  0  0  0  0  0  0
  190.4320  174.8320  143.3260 C   0  0  0  0  0  0  0  0  0  0  0  0
  192.8990  173.7340  142.6600 C   0  0  0  0  0  0  0  0  0  0  0  0
  184.1170  177.9480  143.0930 C   0  0  0  0  0  2  0  0  0  0  0  0
  182.1360  178.6780  141.7040 C   0  0  0  0  0  0  0  0  0  0  0  0
  182.8760  178.6890  142.9250 N   0  0  0  0  0  2  0  0  0  0  0  0
  181.0630  179.3300  141.6220 O   0  0  0  0  0  0  0  0  0  0  0  0
  182.6120  177.9080  140.5180 C   0  0  0  0  0  1  0  0  0  0  0  0
  1 28  1  6  0  0  0
  1 10  1  0  0  0  0
  2 23  1  6  0  0  0
  2 12  1  0  0  0  0
  4  3  1  0  0  0  0
  5 26  1  0  0  0  0
  6  5  2  0  0  0  0
  6 27  1  0  0  0  0
  7 19  1  6  0  0  0
  7 17  1  0  0  0  0
  9 25  1  6  0  0  0
  9 27  1  0  0  0  0
 11  3  1  0  0  0  0
 12  8  1  0  0  0  0
 12 13  1  0  0  0  0
 13 11  2  0  0  0  0
 14 21  1  0  0  0  0
 15 18  2  0  0  0  0
 15  9  1  0  0  0  0
 16  1  1  0  0  0  0
 17 10  1  1  0  0  0
 17  8  1  0  0  0  0
 18  6  1  0  0  0  0
 19 16  1  0  0  0  0
 20  4  1  0  0  0  0
 21 13  1  0  0  0  0
 21 20  1  1  0  0  0
 22 14  1  0  0  0  0
 23  7  1  0  0  0  0
 24  5  1  0  0  0  0
 26  2  1  0  0  0  0
 26 14  2  0  0  0  0
 27 22  2  0  0  0  0
 29 30  1  0  0  0  0
 30 28  1  0  0  0  0
 31 29  2  0  0  0  0
 32 29  1  0  0  0  0
M  END
>  <MODEL>
9

>  <REMARK>
 VINA RESULT:      -7.3      2.760      7.407
  Name = 
  2 active torsions:
  status: ('A' for Active; 'I' for Inactive)
    1  A    between atoms: C_2  and  C_24
    2  A    between atoms: N_10  and  C_24
                            x       y       z     vdW  Elec       q    Type
                         _______ _______ _______ _____ _____    ______ ____

>  <TORSDO>
F 2

$$$$
