=
 OpenBabel11052419553D

 37 42  0  0  1  0  0  0  0  0999 V2000
  192.1070  173.9550  140.9330 C   0  0  0  0  0  2  0  0  0  0  0  0
  192.5500  176.0090  145.2840 C   0  0  0  0  0  0  0  0  0  0  0  0
  191.3600  173.2720  139.7910 C   0  0  0  0  0  2  0  0  0  0  0  0
  189.5980  173.7820  144.6110 O   0  0  0  0  0  0  0  0  0  0  0  0
  194.0110  176.2790  143.3370 C   0  0  0  0  0  2  0  0  0  0  0  0
  191.5610  175.2540  144.4370 C   0  0  2  0  0  3  0  0  0  0  0  0
  188.9680  172.9180  140.4280 C   0  0  2  0  0  3  0  0  0  0  0  0
  193.6970  176.4840  144.7620 C   0  0  0  0  0  0  0  0  0  0  0  0
  190.5680  174.4800  145.3420 C   0  0  1  0  0  3  0  0  0  0  0  0
  194.4820  176.9050  145.7180 O   0  0  0  0  0  0  0  0  0  0  0  0
  189.9400  173.7900  139.6330 C   0  0  2  0  0  3  0  0  0  0  0  0
  193.6210  174.8220  142.9980 C   0  0  2  0  0  3  0  0  0  0  0  0
  191.9330  175.4250  147.7040 C   0  0  0  0  0  2  0  0  0  0  0  0
  193.9310  176.6940  146.8820 N   0  0  0  0  0  0  0  0  0  0  0  0
  189.0370  173.1930  141.9250 C   0  0  0  0  0  2  0  0  0  0  0  0
  190.2130  172.6650  144.0420 C   0  0  0  0  0  2  0  0  0  0  0  0
  192.7300  176.1230  146.6510 C   0  0  0  0  0  0  0  0  0  0  0  0
  192.2580  174.3800  143.4390 N   0  0  2  0  0  0  0  0  0  0  0  0
  189.8980  175.4270  146.2550 N   0  0  0  0  0  0  0  0  0  0  0  0
  190.4090  172.9210  142.5520 C   0  0  2  0  0  3  0  0  0  0  0  0
  189.1650  171.5570  140.1670 O   0  0  0  0  0  1  0  0  0  0  0  0
  191.3560  174.1130  142.2840 C   0  0  2  0  0  3  0  0  0  0  0  0
  190.4440  175.7240  147.5810 C   0  0  0  0  0  2  0  0  0  0  0  0
  188.9130  177.1300  144.7750 C   0  0  0  0  0  3  0  0  0  0  0  0
  188.7700  176.2100  145.8230 C   0  0  0  0  0  0  0  0  0  0  0  0
  187.5290  176.1010  146.4690 C   0  0  0  0  0  3  0  0  0  0  0  0
  185.2550  176.7760  146.6980 F   0  0  0  0  0  0  0  0  0  0  0  0
  186.5980  177.7940  145.0160 C   0  0  0  0  0  3  0  0  0  0  0  0
  186.4460  176.8860  146.0660 C   0  0  0  0  0  0  0  0  0  0  0  0
  187.8300  177.9160  144.3700 C   0  0  0  0  0  3  0  0  0  0  0  0
  188.1880  174.0610  138.0360 O   0  0  0  0  0  1  0  0  0  0  0  0
  189.5500  173.7830  138.1650 C   0  0  0  0  0  2  0  0  0  0  0  0
  194.6580  173.8350  143.5110 C   0  0  0  0  0  2  0  0  0  0  0  0
  196.0280  174.2380  143.0970 C   0  0  0  0  0  0  0  0  0  0  0  0
  196.3330  174.2300  141.8750 O   0  0  0  0  0  0  0  0  0  0  0  0
  196.9410  174.6650  144.0590 O   0  0  0  0  0  0  0  0  0  0  0  0
  196.9160  174.1660  145.3890 C   0  0  0  0  0  1  0  0  0  0  0  0
  1 22  1  0  0  0  0
  2 17  1  0  0  0  0
  3  1  1  0  0  0  0
  5  8  1  0  0  0  0
  6  2  1  1  0  0  0
  6  9  1  0  0  0  0
  7 21  1  1  0  0  0
  7 15  1  0  0  0  0
  8  2  2  0  0  0  0
  8 10  1  0  0  0  0
  9  4  1  6  0  0  0
  9 19  1  0  0  0  0
 10 14  1  0  0  0  0
 11 32  1  6  0  0  0
 11  3  1  0  0  0  0
 11  7  1  0  0  0  0
 12  5  1  0  0  0  0
 12 18  1  0  0  0  0
 12 33  1  1  0  0  0
 15 20  1  0  0  0  0
 16  4  1  0  0  0  0
 17 14  2  0  0  0  0
 17 13  1  0  0  0  0
 18  6  1  0  0  0  0
 19 23  1  0  0  0  0
 20 16  1  0  0  0  0
 22 20  1  0  0  0  0
 22 18  1  0  0  0  0
 23 13  1  0  0  0  0
 24 25  1  0  0  0  0
 25 19  1  0  0  0  0
 25 26  2  0  0  0  0
 28 29  2  0  0  0  0
 29 26  1  0  0  0  0
 29 27  1  0  0  0  0
 30 24  2  0  0  0  0
 30 28  1  0  0  0  0
 31 32  1  0  0  0  0
 34 33  1  0  0  0  0
 34 36  1  0  0  0  0
 35 34  2  0  0  0  0
 36 37  1  0  0  0  0
M  END
>  <MODEL>
1

>  <REMARK>
 VINA RESULT:      -7.6      0.000      0.000
  Name = 
  5 active torsions:
  status: ('A' for Active; 'I' for Inactive)
    1  A    between atoms: O_3  and  C_21
    2  A    between atoms: C_6  and  N_31
    3  A    between atoms: C_17  and  C_23
    4  A    between atoms: C_20  and  C_25
    5  A    between atoms: C_21  and  C_25
                            x       y       z     vdW  Elec       q    Type
                         _______ _______ _______ _____ _____    ______ ____

>  <TORSDO>
F 5

$$$$
=
 OpenBabel11052419553D

 37 42  0  0  1  0  0  0  0  0999 V2000
  192.1360  173.9190  140.9230 C   0  0  0  0  0  2  0  0  0  0  0  0
  192.5290  176.0210  145.2560 C   0  0  0  0  0  0  0  0  0  0  0  0
  191.4020  173.2280  139.7780 C   0  0  0  0  0  2  0  0  0  0  0  0
  189.5710  173.8060  144.5650 O   0  0  0  0  0  0  0  0  0  0  0  0
  194.0200  176.2580  143.3280 C   0  0  0  0  0  2  0  0  0  0  0  0
  191.5470  175.2620  144.4030 C   0  0  2  0  0  3  0  0  0  0  0  0
  188.9980  172.8970  140.3840 C   0  0  2  0  0  3  0  0  0  0  0  0
  193.6860  176.4820  144.7460 C   0  0  0  0  0  0  0  0  0  0  0  0
  190.5360  174.5060  145.3030 C   0  0  1  0  0  3  0  0  0  0  0  0
  194.4600  176.9080  145.7090 O   0  0  0  0  0  0  0  0  0  0  0  0
  189.9880  173.7540  139.5930 C   0  0  2  0  0  3  0  0  0  0  0  0
  193.6250  174.8000  143.0000 C   0  0  2  0  0  3  0  0  0  0  0  0
  191.8720  175.4700  147.6730 C   0  0  0  0  0  2  0  0  0  0  0  0
  193.8900  176.7160  146.8670 N   0  0  0  0  0  0  0  0  0  0  0  0
  189.0470  173.1900  141.8780 C   0  0  0  0  0  2  0  0  0  0  0  0
  190.1870  172.6780  144.0180 C   0  0  0  0  0  2  0  0  0  0  0  0
  192.6890  176.1500  146.6240 C   0  0  0  0  0  0  0  0  0  0  0  0
  192.2530  174.3730  143.4260 N   0  0  2  0  0  0  0  0  0  0  0  0
  189.8590  175.4680  146.1940 N   0  0  0  0  0  0  0  0  0  0  0  0
  190.4080  172.9160  142.5290 C   0  0  2  0  0  3  0  0  0  0  0  0
  189.1890  171.5320  140.1410 O   0  0  0  0  0  1  0  0  0  0  0  0
  191.3670  174.0990  142.2610 C   0  0  2  0  0  3  0  0  0  0  0  0
  190.3870  175.7770  147.5250 C   0  0  0  0  0  2  0  0  0  0  0  0
  188.9040  177.1520  144.6730 C   0  0  0  0  0  3  0  0  0  0  0  0
  188.7430  176.2530  145.7360 C   0  0  0  0  0  0  0  0  0  0  0  0
  187.4940  176.1680  146.3720 C   0  0  0  0  0  3  0  0  0  0  0  0
  185.2250  176.8690  146.5660 F   0  0  0  0  0  0  0  0  0  0  0  0
  186.5940  177.8420  144.8780 C   0  0  0  0  0  3  0  0  0  0  0  0
  186.4230  176.9560  145.9430 C   0  0  0  0  0  0  0  0  0  0  0  0
  187.8330  177.9400  144.2430 C   0  0  0  0  0  3  0  0  0  0  0  0
  188.2600  174.0090  137.9680 O   0  0  0  0  0  1  0  0  0  0  0  0
  189.6200  173.7320  138.1190 C   0  0  0  0  0  2  0  0  0  0  0  0
  194.6480  173.8120  143.5400 C   0  0  0  0  0  2  0  0  0  0  0  0
  193.9800  172.6610  144.2030 C   0  0  0  0  0  0  0  0  0  0  0  0
  193.7390  172.7120  145.4370 O   0  0  0  0  0  0  0  0  0  0  0  0
  193.5860  171.5630  143.4410 O   0  0  0  0  0  0  0  0  0  0  0  0
  193.0820  170.3770  144.0410 C   0  0  0  0  0  1  0  0  0  0  0  0
  1 22  1  0  0  0  0
  2 17  1  0  0  0  0
  3  1  1  0  0  0  0
  5  8  1  0  0  0  0
  6  2  1  1  0  0  0
  6  9  1  0  0  0  0
  7 21  1  1  0  0  0
  7 15  1  0  0  0  0
  8  2  2  0  0  0  0
  8 10  1  0  0  0  0
  9  4  1  6  0  0  0
  9 19  1  0  0  0  0
 10 14  1  0  0  0  0
 11 32  1  6  0  0  0
 11  3  1  0  0  0  0
 11  7  1  0  0  0  0
 12  5  1  0  0  0  0
 12 18  1  0  0  0  0
 12 33  1  1  0  0  0
 15 20  1  0  0  0  0
 16  4  1  0  0  0  0
 17 14  2  0  0  0  0
 17 13  1  0  0  0  0
 18  6  1  0  0  0  0
 19 23  1  0  0  0  0
 20 16  1  0  0  0  0
 22 20  1  0  0  0  0
 22 18  1  0  0  0  0
 23 13  1  0  0  0  0
 24 25  1  0  0  0  0
 25 19  1  0  0  0  0
 25 26  2  0  0  0  0
 28 29  2  0  0  0  0
 29 26  1  0  0  0  0
 29 27  1  0  0  0  0
 30 24  2  0  0  0  0
 30 28  1  0  0  0  0
 31 32  1  0  0  0  0
 33 34  1  0  0  0  0
 34 35  2  0  0  0  0
 36 37  1  0  0  0  0
 36 34  1  0  0  0  0
M  END
>  <MODEL>
2

>  <REMARK>
 VINA RESULT:      -7.6      1.152      1.488
  Name = 
  5 active torsions:
  status: ('A' for Active; 'I' for Inactive)
    1  A    between atoms: O_3  and  C_21
    2  A    between atoms: C_6  and  N_31
    3  A    between atoms: C_17  and  C_23
    4  A    between atoms: C_20  and  C_25
    5  A    between atoms: C_21  and  C_25
                            x       y       z     vdW  Elec       q    Type
                         _______ _______ _______ _____ _____    ______ ____

>  <TORSDO>
F 5

$$$$
=
 OpenBabel11052419553D

 37 42  0  0  1  0  0  0  0  0999 V2000
  192.1610  173.8980  140.8460 C   0  0  0  0  0  2  0  0  0  0  0  0
  192.5720  175.9700  145.1920 C   0  0  0  0  0  0  0  0  0  0  0  0
  191.4210  173.2200  139.6980 C   0  0  0  0  0  2  0  0  0  0  0  0
  189.5970  173.7830  144.4880 O   0  0  0  0  0  0  0  0  0  0  0  0
  194.0640  176.2070  143.2650 C   0  0  0  0  0  2  0  0  0  0  0  0
  191.5840  175.2240  144.3350 C   0  0  2  0  0  3  0  0  0  0  0  0
  189.0150  172.9050  140.3020 C   0  0  2  0  0  3  0  0  0  0  0  0
  193.7330  176.4250  144.6840 C   0  0  0  0  0  0  0  0  0  0  0  0
  190.5670  174.4700  145.2300 C   0  0  1  0  0  3  0  0  0  0  0  0
  194.5110  176.8390  145.6500 O   0  0  0  0  0  0  0  0  0  0  0  0
  190.0110  173.7590  139.5170 C   0  0  2  0  0  3  0  0  0  0  0  0
  193.6580  174.7540  142.9280 C   0  0  2  0  0  3  0  0  0  0  0  0
  191.9120  175.4090  147.6060 C   0  0  0  0  0  2  0  0  0  0  0  0
  193.9390  176.6440  146.8060 N   0  0  0  0  0  0  0  0  0  0  0  0
  189.0660  173.1880  141.7980 C   0  0  0  0  0  2  0  0  0  0  0  0
  190.2040  172.6540  143.9340 C   0  0  0  0  0  2  0  0  0  0  0  0
  192.7340  176.0890  146.5610 C   0  0  0  0  0  0  0  0  0  0  0  0
  192.2820  174.3360  143.3520 N   0  0  2  0  0  0  0  0  0  0  0  0
  189.8980  175.4320  146.1280 N   0  0  0  0  0  0  0  0  0  0  0  0
  190.4250  172.8990  142.4460 C   0  0  2  0  0  3  0  0  0  0  0  0
  189.1950  171.5400  140.0510 O   0  0  0  0  0  1  0  0  0  0  0  0
  191.3930  174.0760  142.1860 C   0  0  2  0  0  3  0  0  0  0  0  0
  190.4290  175.7290  147.4610 C   0  0  0  0  0  2  0  0  0  0  0  0
  187.5950  176.2540  146.4110 C   0  0  0  0  0  3  0  0  0  0  0  0
  188.7880  176.2290  145.6750 C   0  0  0  0  0  0  0  0  0  0  0  0
  188.8640  176.9520  144.4750 C   0  0  0  0  0  3  0  0  0  0  0  0
  187.8540  178.3890  142.8640 F   0  0  0  0  0  0  0  0  0  0  0  0
  186.5910  177.7230  144.7690 C   0  0  0  0  0  3  0  0  0  0  0  0
  187.7720  177.6990  144.0250 C   0  0  0  0  0  0  0  0  0  0  0  0
  186.5020  177.0020  145.9620 C   0  0  0  0  0  3  0  0  0  0  0  0
  188.2680  173.9500  137.8980 O   0  0  0  0  0  1  0  0  0  0  0  0
  189.6420  173.7490  138.0430 C   0  0  0  0  0  2  0  0  0  0  0  0
  194.6730  173.7560  143.4620 C   0  0  0  0  0  2  0  0  0  0  0  0
  196.0420  174.0780  142.9800 C   0  0  0  0  0  0  0  0  0  0  0  0
  196.3030  173.9910  141.7520 O   0  0  0  0  0  0  0  0  0  0  0  0
  197.0050  174.5180  143.8860 O   0  0  0  0  0  0  0  0  0  0  0  0
  196.9360  174.1960  145.2680 C   0  0  0  0  0  1  0  0  0  0  0  0
  1 22  1  0  0  0  0
  2 17  1  0  0  0  0
  3  1  1  0  0  0  0
  5  8  1  0  0  0  0
  6  2  1  1  0  0  0
  6  9  1  0  0  0  0
  7 21  1  1  0  0  0
  7 15  1  0  0  0  0
  8  2  2  0  0  0  0
  8 10  1  0  0  0  0
  9  4  1  6  0  0  0
  9 19  1  0  0  0  0
 10 14  1  0  0  0  0
 11 32  1  6  0  0  0
 11  3  1  0  0  0  0
 11  7  1  0  0  0  0
 12  5  1  0  0  0  0
 12 18  1  0  0  0  0
 12 33  1  1  0  0  0
 15 20  1  0  0  0  0
 16  4  1  0  0  0  0
 17 14  2  0  0  0  0
 17 13  1  0  0  0  0
 18  6  1  0  0  0  0
 19 23  1  0  0  0  0
 20 16  1  0  0  0  0
 22 20  1  0  0  0  0
 22 18  1  0  0  0  0
 23 13  1  0  0  0  0
 25 19  1  0  0  0  0
 25 24  2  0  0  0  0
 26 25  1  0  0  0  0
 27 29  1  0  0  0  0
 28 30  2  0  0  0  0
 29 26  2  0  0  0  0
 29 28  1  0  0  0  0
 30 24  1  0  0  0  0
 31 32  1  0  0  0  0
 34 33  1  0  0  0  0
 34 36  1  0  0  0  0
 35 34  2  0  0  0  0
 36 37  1  0  0  0  0
M  END
>  <MODEL>
3

>  <REMARK>
 VINA RESULT:      -7.5      0.823      1.140
  Name = 
  5 active torsions:
  status: ('A' for Active; 'I' for Inactive)
    1  A    between atoms: O_3  and  C_21
    2  A    between atoms: C_6  and  N_31
    3  A    between atoms: C_17  and  C_23
    4  A    between atoms: C_20  and  C_25
    5  A    between atoms: C_21  and  C_25
                            x       y       z     vdW  Elec       q    Type
                         _______ _______ _______ _____ _____    ______ ____

>  <TORSDO>
F 5

$$$$
=
 OpenBabel11052419553D

 37 42  0  0  1  0  0  0  0  0999 V2000
  189.5720  174.4200  141.9040 C   0  0  0  0  0  2  0  0  0  0  0  0
  191.6970  175.5940  146.0820 C   0  0  0  0  0  0  0  0  0  0  0  0
  189.5070  173.8280  140.4990 C   0  0  0  0  0  2  0  0  0  0  0  0
  193.8440  174.9020  143.0750 O   0  0  0  0  0  0  0  0  0  0  0  0
  189.3060  175.3050  145.6390 C   0  0  0  0  0  2  0  0  0  0  0  0
  192.0160  175.0540  144.7130 C   0  0  2  0  0  3  0  0  0  0  0  0
  191.7540  172.9560  139.8360 C   0  0  2  0  0  3  0  0  0  0  0  0
  190.4250  175.7110  146.5080 C   0  0  0  0  0  0  0  0  0  0  0  0
  193.4750  175.4090  144.3280 C   0  0  1  0  0  3  0  0  0  0  0  0
  190.3880  176.3970  147.6200 O   0  0  0  0  0  0  0  0  0  0  0  0
  190.3650  172.5820  140.3530 C   0  0  2  0  0  3  0  0  0  0  0  0
  189.6340  175.8170  144.2180 C   0  0  2  0  0  3  0  0  0  0  0  0
  193.8250  176.8190  146.8230 C   0  0  0  0  0  2  0  0  0  0  0  0
  191.5880  176.7900  147.9490 N   0  0  0  0  0  0  0  0  0  0  0  0
  192.6240  173.5810  140.9200 C   0  0  0  0  0  2  0  0  0  0  0  0
  193.2170  175.6790  142.0980 C   0  0  0  0  0  2  0  0  0  0  0  0
  192.4290  176.3210  147.0040 C   0  0  0  0  0  0  0  0  0  0  0  0
  191.0080  175.5100  143.7030 N   0  0  2  0  0  0  0  0  0  0  0  0
  194.3940  174.8800  145.3530 N   0  0  0  0  0  0  0  0  0  0  0  0
  192.0620  174.8820  141.5050 C   0  0  2  0  0  3  0  0  0  0  0  0
  191.6810  173.7940  138.7180 O   0  0  0  0  0  1  0  0  0  0  0  0
  190.9750  174.5590  142.5570 C   0  0  2  0  0  3  0  0  0  0  0  0
  194.7960  175.6880  146.5080 C   0  0  0  0  0  2  0  0  0  0  0  0
  193.8560  172.4780  145.3920 C   0  0  0  0  0  3  0  0  0  0  0  0
  194.8120  173.5020  145.3440 C   0  0  0  0  0  0  0  0  0  0  0  0
  196.1740  173.1630  145.3340 C   0  0  0  0  0  3  0  0  0  0  0  0
  197.8890  171.5090  145.3510 F   0  0  0  0  0  0  0  0  0  0  0  0
  195.6130  170.8130  145.3970 C   0  0  0  0  0  3  0  0  0  0  0  0
  196.5730  171.8250  145.3570 C   0  0  0  0  0  0  0  0  0  0  0  0
  194.2550  171.1380  145.4140 C   0  0  0  0  0  3  0  0  0  0  0  0
  188.5620  172.1980  138.8380 O   0  0  0  0  0  1  0  0  0  0  0  0
  189.7040  171.6130  139.3870 C   0  0  0  0  0  2  0  0  0  0  0  0
  189.3720  177.3090  144.0900 C   0  0  0  0  0  2  0  0  0  0  0  0
  188.2640  177.5770  143.1360 C   0  0  0  0  0  0  0  0  0  0  0  0
  188.5320  177.8500  141.9370 O   0  0  0  0  0  0  0  0  0  0  0  0
  186.9440  177.4760  143.5690 O   0  0  0  0  0  0  0  0  0  0  0  0
  186.0960  176.4170  143.1460 C   0  0  0  0  0  1  0  0  0  0  0  0
  1 22  1  0  0  0  0
  2  8  2  0  0  0  0
  2 17  1  0  0  0  0
  3  1  1  0  0  0  0
  5  8  1  0  0  0  0
  6  2  1  1  0  0  0
  7 21  1  6  0  0  0
  7 11  1  0  0  0  0
  7 15  1  0  0  0  0
  8 10  1  0  0  0  0
  9  4  1  6  0  0  0
  9  6  1  0  0  0  0
  9 19  1  0  0  0  0
 10 14  1  0  0  0  0
 11 32  1  6  0  0  0
 11  3  1  0  0  0  0
 12 33  1  1  0  0  0
 12  5  1  0  0  0  0
 13 17  1  0  0  0  0
 15 20  1  0  0  0  0
 16  4  1  0  0  0  0
 17 14  2  0  0  0  0
 18 12  1  0  0  0  0
 18  6  1  0  0  0  0
 19 23  1  0  0  0  0
 20 16  1  0  0  0  0
 20 22  1  0  0  0  0
 22 18  1  0  0  0  0
 23 13  1  0  0  0  0
 24 30  1  0  0  0  0
 25 19  1  0  0  0  0
 25 24  2  0  0  0  0
 26 25  1  0  0  0  0
 26 29  2  0  0  0  0
 27 29  1  0  0  0  0
 28 30  2  0  0  0  0
 29 28  1  0  0  0  0
 31 32  1  0  0  0  0
 34 36  1  0  0  0  0
 34 33  1  0  0  0  0
 35 34  2  0  0  0  0
 37 36  1  0  0  0  0
M  END
>  <MODEL>
4

>  <REMARK>
 VINA RESULT:      -7.5      3.146      6.142
  Name = 
  5 active torsions:
  status: ('A' for Active; 'I' for Inactive)
    1  A    between atoms: O_3  and  C_21
    2  A    between atoms: C_6  and  N_31
    3  A    between atoms: C_17  and  C_23
    4  A    between atoms: C_20  and  C_25
    5  A    between atoms: C_21  and  C_25
                            x       y       z     vdW  Elec       q    Type
                         _______ _______ _______ _____ _____    ______ ____

>  <TORSDO>
F 5

$$$$
=
 OpenBabel11052419553D

 37 42  0  0  1  0  0  0  0  0999 V2000
  193.6540  174.1250  141.9850 C   0  0  0  0  0  2  0  0  0  0  0  0
  191.3500  175.9790  145.8060 C   0  0  0  0  0  0  0  0  0  0  0  0
  193.7590  173.5230  140.5870 C   0  0  0  0  0  2  0  0  0  0  0  0
  189.4130  173.9110  143.3360 O   0  0  0  0  0  0  0  0  0  0  0  0
  193.7010  176.2640  145.1820 C   0  0  0  0  0  2  0  0  0  0  0  0
  191.0830  175.3020  144.4880 C   0  0  2  0  0  3  0  0  0  0  0  0
  191.4770  173.2470  139.6030 C   0  0  2  0  0  3  0  0  0  0  0  0
  192.5800  176.4250  146.1260 C   0  0  0  0  0  0  0  0  0  0  0  0
  189.7360  174.5350  144.5480 C   0  0  1  0  0  3  0  0  0  0  0  0
  192.6160  176.7710  147.3860 O   0  0  0  0  0  0  0  0  0  0  0  0
  192.7400  174.1090  139.6230 C   0  0  2  0  0  3  0  0  0  0  0  0
  193.5880  174.8410  144.5910 C   0  0  2  0  0  3  0  0  0  0  0  0
  189.3720  175.3230  147.3020 C   0  0  0  0  0  2  0  0  0  0  0  0
  191.4640  176.5370  147.9520 N   0  0  0  0  0  0  0  0  0  0  0  0
  190.6150  173.4580  140.8410 C   0  0  0  0  0  2  0  0  0  0  0  0
  190.2380  172.7930  143.1980 C   0  0  0  0  0  2  0  0  0  0  0  0
  190.6540  176.0280  147.0010 C   0  0  0  0  0  0  0  0  0  0  0  0
  192.2380  174.4410  144.0780 N   0  0  2  0  0  0  0  0  0  0  0  0
  188.6560  175.4720  144.9130 N   0  0  0  0  0  0  0  0  0  0  0  0
  191.3100  173.1010  142.1600 C   0  0  2  0  0  3  0  0  0  0  0  0
  191.7810  171.8910  139.4370 O   0  0  0  0  0  1  0  0  0  0  0  0
  192.2330  174.2610  142.5990 C   0  0  2  0  0  3  0  0  0  0  0  0
  188.2740  175.6910  146.3100 C   0  0  0  0  0  2  0  0  0  0  0  0
  186.6440  176.3310  143.7830 C   0  0  0  0  0  3  0  0  0  0  0  0
  188.0380  176.3200  143.9270 C   0  0  0  0  0  0  0  0  0  0  0  0
  188.8170  177.1110  143.0680 C   0  0  0  0  0  3  0  0  0  0  0  0
  188.9740  178.6640  141.2680 F   0  0  0  0  0  0  0  0  0  0  0  0
  186.8230  177.9160  141.9630 C   0  0  0  0  0  3  0  0  0  0  0  0
  188.2130  177.9080  142.0930 C   0  0  0  0  0  0  0  0  0  0  0  0
  186.0380  177.1280  142.8080 C   0  0  0  0  0  3  0  0  0  0  0  0
  194.1530  175.3030  138.1160 O   0  0  0  0  0  1  0  0  0  0  0  0
  193.3340  174.1780  138.2270 C   0  0  0  0  0  2  0  0  0  0  0  0
  194.0830  173.7900  145.5730 C   0  0  0  0  0  2  0  0  0  0  0  0
  195.5370  173.5380  145.3960 C   0  0  0  0  0  0  0  0  0  0  0  0
  196.3600  174.0830  146.1770 O   0  0  0  0  0  0  0  0  0  0  0  0
  195.9680  172.6630  144.4010 O   0  0  0  0  0  0  0  0  0  0  0  0
  197.0480  172.9860  143.5350 C   0  0  0  0  0  1  0  0  0  0  0  0
  1 22  1  0  0  0  0
  2  8  2  0  0  0  0
  2 17  1  0  0  0  0
  3  1  1  0  0  0  0
  5  8  1  0  0  0  0
  6  9  1  0  0  0  0
  6  2  1  1  0  0  0
  7 21  1  1  0  0  0
  7 11  1  0  0  0  0
  7 15  1  0  0  0  0
  8 10  1  0  0  0  0
  9  4  1  6  0  0  0
  9 19  1  0  0  0  0
 10 14  1  0  0  0  0
 11 32  1  6  0  0  0
 11  3  1  0  0  0  0
 12  5  1  0  0  0  0
 12 33  1  1  0  0  0
 15 20  1  0  0  0  0
 16  4  1  0  0  0  0
 17 13  1  0  0  0  0
 17 14  2  0  0  0  0
 18  6  1  0  0  0  0
 18 12  1  0  0  0  0
 19 23  1  0  0  0  0
 20 22  1  0  0  0  0
 20 16  1  0  0  0  0
 22 18  1  0  0  0  0
 23 13  1  0  0  0  0
 24 25  1  0  0  0  0
 25 19  1  0  0  0  0
 26 25  2  0  0  0  0
 27 29  1  0  0  0  0
 28 29  2  0  0  0  0
 28 30  1  0  0  0  0
 29 26  1  0  0  0  0
 30 24  2  0  0  0  0
 31 32  1  0  0  0  0
 34 33  1  0  0  0  0
 34 35  2  0  0  0  0
 36 34  1  0  0  0  0
 37 36  1  0  0  0  0
M  END
>  <MODEL>
5

>  <REMARK>
 VINA RESULT:      -7.1      2.119      2.780
  Name = 
  5 active torsions:
  status: ('A' for Active; 'I' for Inactive)
    1  A    between atoms: O_3  and  C_21
    2  A    between atoms: C_6  and  N_31
    3  A    between atoms: C_17  and  C_23
    4  A    between atoms: C_20  and  C_25
    5  A    between atoms: C_21  and  C_25
                            x       y       z     vdW  Elec       q    Type
                         _______ _______ _______ _____ _____    ______ ____

>  <TORSDO>
F 5

$$$$
=
 OpenBabel11052419553D

 37 42  0  0  1  0  0  0  0  0999 V2000
  193.7930  175.9660  144.8720 C   0  0  0  0  0  2  0  0  0  0  0  0
  189.5530  176.0840  142.5560 C   0  0  0  0  0  0  0  0  0  0  0  0
  195.1120  175.3440  145.3190 C   0  0  0  0  0  2  0  0  0  0  0  0
  191.1450  172.7560  143.2780 O   0  0  0  0  0  0  0  0  0  0  0  0
  190.9130  177.9790  143.3040 C   0  0  0  0  0  2  0  0  0  0  0  0
  190.6740  175.1410  142.9090 C   0  0  2  0  0  3  0  0  0  0  0  0
  195.2950  173.0100  144.4390 C   0  0  2  0  0  3  0  0  0  0  0  0
  189.6720  177.4120  142.7460 C   0  0  0  0  0  0  0  0  0  0  0  0
  190.1400  173.6880  142.9870 C   0  0  1  0  0  3  0  0  0  0  0  0
  188.5130  177.9920  142.5770 O   0  0  0  0  0  0  0  0  0  0  0  0
  195.7320  174.4630  144.2470 C   0  0  2  0  0  3  0  0  0  0  0  0
  191.3510  177.0490  144.4590 C   0  0  2  0  0  3  0  0  0  0  0  0
  187.4670  174.6010  142.3890 C   0  0  0  0  0  2  0  0  0  0  0  0
  187.5950  177.1020  142.3190 N   0  0  0  0  0  0  0  0  0  0  0  0
  193.8610  172.7730  143.9820 C   0  0  0  0  0  2  0  0  0  0  0  0
  191.4720  172.8890  144.6300 C   0  0  0  0  0  2  0  0  0  0  0  0
  188.2040  175.8980  142.3130 C   0  0  0  0  0  0  0  0  0  0  0  0
  191.3800  175.5820  144.1540 N   0  0  2  0  0  0  0  0  0  0  0  0
  189.5060  173.3290  141.7030 N   0  0  0  0  0  0  0  0  0  0  0  0
  192.8160  173.6000  144.7400 C   0  0  2  0  0  3  0  0  0  0  0  0
  195.4680  172.5910  145.7630 O   0  0  0  0  0  1  0  0  0  0  0  0
  192.7650  175.0360  144.1690 C   0  0  2  0  0  3  0  0  0  0  0  0
  188.0750  173.5470  141.4720 C   0  0  0  0  0  2  0  0  0  0  0  0
  190.2560  171.5560  140.1700 C   0  0  0  0  0  3  0  0  0  0  0  0
  190.2910  172.8960  140.5770 C   0  0  0  0  0  0  0  0  0  0  0  0
  191.1340  173.7920  139.9010 C   0  0  0  0  0  3  0  0  0  0  0  0
  192.7290  174.2290  138.1860 F   0  0  0  0  0  0  0  0  0  0  0  0
  191.8690  172.0230  138.4270 C   0  0  0  0  0  3  0  0  0  0  0  0
  191.9170  173.3590  138.8280 C   0  0  0  0  0  0  0  0  0  0  0  0
  191.0390  171.1210  139.0960 C   0  0  0  0  0  3  0  0  0  0  0  0
  197.7010  175.5540  143.4560 O   0  0  0  0  0  1  0  0  0  0  0  0
  197.2470  174.5550  144.3180 C   0  0  0  0  0  2  0  0  0  0  0  0
  190.5180  177.2860  145.7090 C   0  0  0  0  0  2  0  0  0  0  0  0
  190.0230  176.0020  146.2710 C   0  0  0  0  0  0  0  0  0  0  0  0
  190.7470  175.3580  147.0750 O   0  0  0  0  0  0  0  0  0  0  0  0
  188.7460  175.5520  145.9400 O   0  0  0  0  0  0  0  0  0  0  0  0
  187.6230  176.4210  145.9360 C   0  0  0  0  0  1  0  0  0  0  0  0
  1  3  1  0  0  0  0
  2  8  2  0  0  0  0
  4 16  1  0  0  0  0
  5 12  1  0  0  0  0
  6  2  1  1  0  0  0
  6  9  1  0  0  0  0
  6 18  1  0  0  0  0
  7 21  1  1  0  0  0
  8  5  1  0  0  0  0
  9  4  1  6  0  0  0
 10  8  1  0  0  0  0
 11 32  1  1  0  0  0
 11  7  1  0  0  0  0
 11  3  1  0  0  0  0
 12 33  1  1  0  0  0
 14 10  1  0  0  0  0
 15  7  1  0  0  0  0
 15 20  1  0  0  0  0
 16 20  1  0  0  0  0
 17 14  2  0  0  0  0
 17 13  1  0  0  0  0
 17  2  1  0  0  0  0
 18 22  1  0  0  0  0
 18 12  1  0  0  0  0
 19  9  1  0  0  0  0
 22 20  1  0  0  0  0
 22  1  1  0  0  0  0
 23 19  1  0  0  0  0
 23 13  1  0  0  0  0
 24 25  1  0  0  0  0
 25 19  1  0  0  0  0
 26 25  2  0  0  0  0
 27 29  1  0  0  0  0
 28 29  2  0  0  0  0
 28 30  1  0  0  0  0
 29 26  1  0  0  0  0
 30 24  2  0  0  0  0
 31 32  1  0  0  0  0
 33 34  1  0  0  0  0
 34 35  2  0  0  0  0
 36 34  1  0  0  0  0
 37 36  1  0  0  0  0
M  END
>  <MODEL>
6

>  <REMARK>
 VINA RESULT:      -7.0      2.875      6.879
  Name = 
  5 active torsions:
  status: ('A' for Active; 'I' for Inactive)
    1  A    between atoms: O_3  and  C_21
    2  A    between atoms: C_6  and  N_31
    3  A    between atoms: C_17  and  C_23
    4  A    between atoms: C_20  and  C_25
    5  A    between atoms: C_21  and  C_25
                            x       y       z     vdW  Elec       q    Type
                         _______ _______ _______ _____ _____    ______ ____

>  <TORSDO>
F 5

$$$$
=
 OpenBabel11052419553D

 37 42  0  0  1  0  0  0  0  0999 V2000
  193.6520  175.2980  145.2350 C   0  0  0  0  0  2  0  0  0  0  0  0
  189.7800  176.2290  142.5000 C   0  0  0  0  0  0  0  0  0  0  0  0
  194.7860  174.4390  145.7880 C   0  0  0  0  0  2  0  0  0  0  0  0
  190.6800  172.6530  143.2280 O   0  0  0  0  0  0  0  0  0  0  0  0
  191.3560  177.8310  143.4720 C   0  0  0  0  0  2  0  0  0  0  0  0
  190.6730  175.0940  142.9230 C   0  0  2  0  0  3  0  0  0  0  0  0
  194.6580  172.1350  144.8240 C   0  0  2  0  0  3  0  0  0  0  0  0
  190.1050  177.5090  142.7630 C   0  0  0  0  0  0  0  0  0  0  0  0
  189.8900  173.7560  142.8770 C   0  0  1  0  0  3  0  0  0  0  0  0
  189.0900  178.2910  142.5010 O   0  0  0  0  0  0  0  0  0  0  0  0
  195.3580  173.4920  144.7460 C   0  0  2  0  0  3  0  0  0  0  0  0
  191.4960  176.8080  144.6210 C   0  0  2  0  0  3  0  0  0  0  0  0
  187.4990  175.1460  142.0480 C   0  0  0  0  0  2  0  0  0  0  0  0
  188.0650  177.5850  142.1080 N   0  0  0  0  0  0  0  0  0  0  0  0
  193.2640  172.1690  144.2100 C   0  0  0  0  0  2  0  0  0  0  0  0
  190.8740  172.6890  144.6100 C   0  0  0  0  0  2  0  0  0  0  0  0
  188.4530  176.2930  142.1090 C   0  0  0  0  0  0  0  0  0  0  0  0
  191.3030  175.3670  144.2540 N   0  0  2  0  0  0  0  0  0  0  0  0
  189.3490  173.5520  141.5200 N   0  0  0  0  0  0  0  0  0  0  0  0
  192.3000  173.1470  144.8930 C   0  0  2  0  0  3  0  0  0  0  0  0
  194.6070  171.6550  146.1380 O   0  0  0  0  0  1  0  0  0  0  0  0
  192.5630  174.5840  144.3870 C   0  0  2  0  0  3  0  0  0  0  0  0
  188.0130  174.0260  141.1510 C   0  0  0  0  0  2  0  0  0  0  0  0
  191.2310  173.7700  139.9470 C   0  0  0  0  0  3  0  0  0  0  0  0
  190.1670  173.0170  140.4620 C   0  0  0  0  0  0  0  0  0  0  0  0
  189.8850  171.7620  139.8990 C   0  0  0  0  0  3  0  0  0  0  0  0
  190.3800  170.0540  138.3140 F   0  0  0  0  0  0  0  0  0  0  0  0
  191.7250  172.0180  138.3520 C   0  0  0  0  0  3  0  0  0  0  0  0
  190.6630  171.2630  138.8520 C   0  0  0  0  0  0  0  0  0  0  0  0
  192.0100  173.2710  138.9000 C   0  0  0  0  0  3  0  0  0  0  0  0
  197.1910  173.7910  146.2440 O   0  0  0  0  0  1  0  0  0  0  0  0
  196.8490  173.3120  144.9780 C   0  0  0  0  0  2  0  0  0  0  0  0
  190.5830  177.1540  145.7880 C   0  0  0  0  0  2  0  0  0  0  0  0
  189.8630  175.9490  146.2780 C   0  0  0  0  0  0  0  0  0  0  0  0
  190.3970  175.2230  147.1570 O   0  0  0  0  0  0  0  0  0  0  0  0
  188.5870  175.6660  145.7940 O   0  0  0  0  0  0  0  0  0  0  0  0
  187.5920  176.6720  145.6720 C   0  0  0  0  0  1  0  0  0  0  0  0
  1  3  1  0  0  0  0
  2  8  2  0  0  0  0
  4 16  1  0  0  0  0
  5 12  1  0  0  0  0
  6  2  1  1  0  0  0
  6 18  1  0  0  0  0
  7 21  1  1  0  0  0
  8  5  1  0  0  0  0
  9  6  1  0  0  0  0
  9  4  1  6  0  0  0
 10  8  1  0  0  0  0
 11  7  1  0  0  0  0
 11 32  1  1  0  0  0
 11  3  1  0  0  0  0
 12 33  1  1  0  0  0
 13 17  1  0  0  0  0
 14 17  2  0  0  0  0
 14 10  1  0  0  0  0
 15  7  1  0  0  0  0
 15 20  1  0  0  0  0
 16 20  1  0  0  0  0
 17  2  1  0  0  0  0
 18 22  1  0  0  0  0
 18 12  1  0  0  0  0
 19  9  1  0  0  0  0
 22 20  1  0  0  0  0
 22  1  1  0  0  0  0
 23 19  1  0  0  0  0
 23 13  1  0  0  0  0
 24 25  1  0  0  0  0
 25 19  1  0  0  0  0
 26 25  2  0  0  0  0
 27 29  1  0  0  0  0
 28 29  2  0  0  0  0
 28 30  1  0  0  0  0
 29 26  1  0  0  0  0
 30 24  2  0  0  0  0
 32 31  1  0  0  0  0
 33 34  1  0  0  0  0
 34 35  2  0  0  0  0
 36 34  1  0  0  0  0
 37 36  1  0  0  0  0
M  END
>  <MODEL>
7

>  <REMARK>
 VINA RESULT:      -7.0      3.032      6.878
  Name = 
  5 active torsions:
  status: ('A' for Active; 'I' for Inactive)
    1  A    between atoms: O_3  and  C_21
    2  A    between atoms: C_6  and  N_31
    3  A    between atoms: C_17  and  C_23
    4  A    between atoms: C_20  and  C_25
    5  A    between atoms: C_21  and  C_25
                            x       y       z     vdW  Elec       q    Type
                         _______ _______ _______ _____ _____    ______ ____

>  <TORSDO>
F 5

$$$$
=
 OpenBabel11052419553D

 37 42  0  0  1  0  0  0  0  0999 V2000
  194.4600  173.8800  142.7250 C   0  0  0  0  0  2  0  0  0  0  0  0
  189.7570  173.8290  141.6200 C   0  0  0  0  0  0  0  0  0  0  0  0
  195.6970  174.3170  143.5040 C   0  0  0  0  0  2  0  0  0  0  0  0
  191.1450  176.7390  143.5530 O   0  0  0  0  0  0  0  0  0  0  0  0
  191.4350  172.1130  141.1350 C   0  0  0  0  0  2  0  0  0  0  0  0
  190.7540  174.5620  142.4780 C   0  0  2  0  0  3  0  0  0  0  0  0
  195.0690  176.0350  145.2090 C   0  0  2  0  0  3  0  0  0  0  0  0
  190.0840  172.6840  140.9920 C   0  0  0  0  0  0  0  0  0  0  0  0
  190.2730  176.0140  142.7290 C   0  0  1  0  0  3  0  0  0  0  0  0
  189.1440  172.3550  140.1450 O   0  0  0  0  0  0  0  0  0  0  0  0
  195.4020  174.5610  144.9750 C   0  0  2  0  0  3  0  0  0  0  0  0
  192.4310  173.2910  141.0390 C   0  0  2  0  0  3  0  0  0  0  0  0
  187.9350  175.5580  141.0980 C   0  0  0  0  0  2  0  0  0  0  0  0
  188.2030  173.2590  140.1400 N   0  0  0  0  0  0  0  0  0  0  0  0
  193.6640  176.3900  144.7380 C   0  0  0  0  0  2  0  0  0  0  0  0
  192.2750  177.0630  142.8000 C   0  0  0  0  0  2  0  0  0  0  0  0
  188.5580  174.2020  141.0370 C   0  0  0  0  0  0  0  0  0  0  0  0
  192.1310  174.4850  141.8930 N   0  0  2  0  0  0  0  0  0  0  0  0
  188.9340  175.9860  143.3480 N   0  0  0  0  0  0  0  0  0  0  0  0
  193.4280  176.1700  143.2390 C   0  0  2  0  0  3  0  0  0  0  0  0
  196.0160  176.8780  144.6170 O   0  0  0  0  0  1  0  0  0  0  0  0
  193.1470  174.6740  142.9660 C   0  0  2  0  0  3  0  0  0  0  0  0
  187.7160  176.0190  142.5340 C   0  0  0  0  0  2  0  0  0  0  0  0
  189.4950  174.7630  145.4100 C   0  0  0  0  0  3  0  0  0  0  0  0
  188.7680  175.7710  144.7610 C   0  0  0  0  0  0  0  0  0  0  0  0
  187.8470  176.5300  145.5010 C   0  0  0  0  0  3  0  0  0  0  0  0
  186.7740  177.0290  147.5690 F   0  0  0  0  0  0  0  0  0  0  0  0
  188.4020  175.2940  147.5030 C   0  0  0  0  0  3  0  0  0  0  0  0
  187.6670  176.2950  146.8670 C   0  0  0  0  0  0  0  0  0  0  0  0
  189.3160  174.5280  146.7760 C   0  0  0  0  0  3  0  0  0  0  0  0
  197.7260  174.0180  144.9910 O   0  0  0  0  0  1  0  0  0  0  0  0
  196.6080  174.1710  145.8130 C   0  0  0  0  0  2  0  0  0  0  0  0
  192.6240  173.7400  139.5980 C   0  0  0  0  0  2  0  0  0  0  0  0
  194.0640  173.7450  139.2290 C   0  0  0  0  0  0  0  0  0  0  0  0
  194.6750  172.6510  139.1070 O   0  0  0  0  0  0  0  0  0  0  0  0
  194.7050  174.9550  138.9730 O   0  0  0  0  0  0  0  0  0  0  0  0
  195.9590  175.2760  139.5580 C   0  0  0  0  0  1  0  0  0  0  0  0
  1 22  1  0  0  0  0
  1  3  1  0  0  0  0
  3 11  1  0  0  0  0
  6  2  1  6  0  0  0
  6  9  1  0  0  0  0
  7 21  1  6  0  0  0
  8  5  1  0  0  0  0
  8  2  2  0  0  0  0
  9 19  1  0  0  0  0
  9  4  1  1  0  0  0
 10  8  1  0  0  0  0
 11  7  1  0  0  0  0
 11 32  1  1  0  0  0
 12 33  1  6  0  0  0
 12  5  1  0  0  0  0
 12 18  1  0  0  0  0
 13 23  1  0  0  0  0
 14 10  1  0  0  0  0
 14 17  2  0  0  0  0
 15  7  1  0  0  0  0
 16 20  1  0  0  0  0
 16  4  1  0  0  0  0
 17 13  1  0  0  0  0
 17  2  1  0  0  0  0
 18  6  1  0  0  0  0
 18 22  1  0  0  0  0
 19 25  1  0  0  0  0
 20 15  1  0  0  0  0
 22 20  1  0  0  0  0
 23 19  1  0  0  0  0
 24 30  1  0  0  0  0
 25 24  2  0  0  0  0
 25 26  1  0  0  0  0
 26 29  2  0  0  0  0
 29 28  1  0  0  0  0
 29 27  1  0  0  0  0
 30 28  2  0  0  0  0
 31 32  1  0  0  0  0
 34 33  1  0  0  0  0
 35 34  2  0  0  0  0
 36 34  1  0  0  0  0
 36 37  1  0  0  0  0
M  END
>  <MODEL>
8

>  <REMARK>
 VINA RESULT:      -6.9      2.064      5.764
  Name = 
  5 active torsions:
  status: ('A' for Active; 'I' for Inactive)
    1  A    between atoms: O_3  and  C_21
    2  A    between atoms: C_6  and  N_31
    3  A    between atoms: C_17  and  C_23
    4  A    between atoms: C_20  and  C_25
    5  A    between atoms: C_21  and  C_25
                            x       y       z     vdW  Elec       q    Type
                         _______ _______ _______ _____ _____    ______ ____

>  <TORSDO>
F 5

$$$$
=
 OpenBabel11052419553D

 37 42  0  0  1  0  0  0  0  0999 V2000
  192.6430  173.7260  140.8640 C   0  0  0  0  0  2  0  0  0  0  0  0
  191.3590  175.9700  144.9460 C   0  0  0  0  0  0  0  0  0  0  0  0
  192.4020  173.0580  139.5140 C   0  0  0  0  0  2  0  0  0  0  0  0
  188.7700  174.0160  143.0470 O   0  0  0  0  0  0  0  0  0  0  0  0
  193.5480  175.9790  143.8480 C   0  0  0  0  0  2  0  0  0  0  0  0
  190.7640  175.2700  143.7530 C   0  0  2  0  0  3  0  0  0  0  0  0
  189.9510  172.9830  139.0250 C   0  0  2  0  0  3  0  0  0  0  0  0
  192.6650  176.2960  144.9850 C   0  0  0  0  0  0  0  0  0  0  0  0
  189.3930  174.6530  144.1290 C   0  0  1  0  0  3  0  0  0  0  0  0
  192.9920  176.6890  146.1880 O   0  0  0  0  0  0  0  0  0  0  0  0
  191.2670  173.7070  138.7390 C   0  0  2  0  0  3  0  0  0  0  0  0
  193.1820  174.5520  143.3810 C   0  0  2  0  0  3  0  0  0  0  0  0
  189.6770  175.5890  146.8450 C   0  0  0  0  0  2  0  0  0  0  0  0
  191.9640  176.6020  146.9870 N   0  0  0  0  0  0  0  0  0  0  0  0
  189.3850  173.3350  140.3960 C   0  0  0  0  0  2  0  0  0  0  0  0
  189.4390  172.8120  142.8170 C   0  0  0  0  0  2  0  0  0  0  0  0
  190.9310  176.1420  146.2510 C   0  0  0  0  0  0  0  0  0  0  0  0
  191.7230  174.2760  143.1740 N   0  0  2  0  0  0  0  0  0  0  0  0
  188.5030  175.7130  144.6430 N   0  0  0  0  0  0  0  0  0  0  0  0
  190.3000  172.9620  141.5680 C   0  0  2  0  0  3  0  0  0  0  0  0
  190.0840  171.5960  138.8870 O   0  0  0  0  0  1  0  0  0  0  0  0
  191.3980  174.0360  141.7410 C   0  0  2  0  0  3  0  0  0  0  0  0
  188.4390  176.0290  146.0720 C   0  0  0  0  0  2  0  0  0  0  0  0
  188.4740  177.4210  142.8700 C   0  0  0  0  0  3  0  0  0  0  0  0
  187.7790  176.5790  143.7500 C   0  0  0  0  0  0  0  0  0  0  0  0
  186.3770  176.6310  143.7780 C   0  0  0  0  0  3  0  0  0  0  0  0
  184.3290  177.5420  142.9690 F   0  0  0  0  0  0  0  0  0  0  0  0
  186.3830  178.3250  142.0530 C   0  0  0  0  0  3  0  0  0  0  0  0
  185.6810  177.4970  142.9310 C   0  0  0  0  0  0  0  0  0  0  0  0
  187.7780  178.2870  142.0220 C   0  0  0  0  0  3  0  0  0  0  0  0
  190.7210  174.5320  136.5680 O   0  0  0  0  0  1  0  0  0  0  0  0
  191.5650  173.6550  137.2500 C   0  0  0  0  0  2  0  0  0  0  0  0
  193.7660  173.4970  144.3080 C   0  0  0  0  0  2  0  0  0  0  0  0
  195.1870  173.2180  143.9700 C   0  0  0  0  0  0  0  0  0  0  0  0
  195.4570  172.3720  143.0780 O   0  0  0  0  0  0  0  0  0  0  0  0
  196.1990  173.9310  144.6100 O   0  0  0  0  0  0  0  0  0  0  0  0
  197.0970  174.7660  143.8920 C   0  0  0  0  0  1  0  0  0  0  0  0
  1 22  1  0  0  0  0
  2  8  2  0  0  0  0
  2 17  1  0  0  0  0
  3  1  1  0  0  0  0
  5  8  1  0  0  0  0
  6  9  1  0  0  0  0
  6  2  1  1  0  0  0
  7 21  1  1  0  0  0
  7 15  1  0  0  0  0
  8 10  1  0  0  0  0
  9  4  1  6  0  0  0
  9 19  1  0  0  0  0
 10 14  1  0  0  0  0
 11 32  1  6  0  0  0
 11  7  1  0  0  0  0
 11  3  1  0  0  0  0
 12  5  1  0  0  0  0
 12 33  1  1  0  0  0
 15 20  1  0  0  0  0
 16  4  1  0  0  0  0
 17 13  1  0  0  0  0
 17 14  2  0  0  0  0
 18 12  1  0  0  0  0
 18  6  1  0  0  0  0
 19 23  1  0  0  0  0
 20 22  1  0  0  0  0
 20 16  1  0  0  0  0
 22 18  1  0  0  0  0
 23 13  1  0  0  0  0
 24 25  1  0  0  0  0
 25 26  2  0  0  0  0
 25 19  1  0  0  0  0
 28 29  2  0  0  0  0
 29 27  1  0  0  0  0
 29 26  1  0  0  0  0
 30 28  1  0  0  0  0
 30 24  2  0  0  0  0
 31 32  1  0  0  0  0
 34 33  1  0  0  0  0
 34 36  1  0  0  0  0
 35 34  2  0  0  0  0
 37 36  1  0  0  0  0
M  END
>  <MODEL>
9

>  <REMARK>
 VINA RESULT:      -6.9      1.646      1.944
  Name = 
  5 active torsions:
  status: ('A' for Active; 'I' for Inactive)
    1  A    between atoms: O_3  and  C_21
    2  A    between atoms: C_6  and  N_31
    3  A    between atoms: C_17  and  C_23
    4  A    between atoms: C_20  and  C_25
    5  A    between atoms: C_21  and  C_25
                            x       y       z     vdW  Elec       q    Type
                         _______ _______ _______ _____ _____    ______ ____

>  <TORSDO>
F 5

$$$$
