=
 OpenBabel11052418093D

 28 31  0  0  1  0  0  0  0  0999 V2000
  187.5070  178.1880  142.5240 C   0  0  1  0  0  3  0  0  0  0  0  0
  192.2670  176.6900  144.1110 C   0  0  0  0  0  3  0  0  0  0  0  0
  187.1010  177.2990  147.4040 O   0  0  0  0  0  1  0  0  0  0  0  0
  191.9120  175.9580  146.3990 C   0  0  0  0  0  0  0  0  0  0  0  0
  189.9770  176.8870  145.1130 C   0  0  0  0  0  0  0  0  0  0  0  0
  194.1160  175.8130  145.4010 C   0  0  0  0  0  0  0  0  0  0  0  0
  191.4010  176.4960  145.1980 C   0  0  0  0  0  0  0  0  0  0  0  0
  189.7660  176.4130  147.5080 N   0  0  0  0  0  2  0  0  0  0  0  0
  193.2640  175.6100  146.4880 C   0  0  0  0  0  3  0  0  0  0  0  0
  187.2940  177.7320  145.0270 C   0  0  0  0  0  0  0  0  0  0  0  0
  189.4160  177.3350  143.9120 C   0  0  0  0  0  3  0  0  0  0  0  0
  191.0080  175.6450  147.5570 C   0  0  0  0  0  2  0  0  0  0  0  0
  185.2400  178.1580  143.6550 C   0  0  0  0  0  2  0  0  0  0  0  0
  187.8590  177.2960  146.2370 C   0  0  0  0  0  0  0  0  0  0  0  0
  185.8940  178.2830  145.0240 C   0  0  0  0  0  2  0  0  0  0  0  0
  195.4910  175.4620  145.5010 N   0  0  0  0  0  1  0  0  0  0  0  0
  193.6180  176.3490  144.2120 C   0  0  0  0  0  3  0  0  0  0  0  0
  189.1880  176.8540  146.2740 C   0  0  0  0  0  0  0  0  0  0  0  0
  186.1120  178.8270  142.6050 C   0  0  0  0  0  2  0  0  0  0  0  0
  188.0790  177.7450  143.8530 C   0  0  0  0  0  0  0  0  0  0  0  0
  187.6740  177.1620  141.3870 C   0  0  2  0  0  3  0  0  0  0  0  0
  186.9360  177.5170  140.2550 O   0  0  0  0  0  1  0  0  0  0  0  0
  187.4890  175.6830  141.7510 C   0  0  0  0  0  2  0  0  0  0  0  0
  189.3750  173.9530  141.7520 N   0  0  0  0  0  0  0  0  0  0  0  0
  188.3220  174.6460  139.7850 O   0  0  0  0  0  0  0  0  0  0  0  0
  188.4180  174.7500  141.0370 C   0  0  0  0  0  0  0  0  0  0  0  0
  189.3110  173.8110  143.1980 C   0  0  0  0  0  1  0  0  0  0  0  0
  190.3790  173.1880  141.0330 C   0  0  0  0  0  1  0  0  0  0  0  0
  1 21  1  6  0  0  0
  1 19  1  0  0  0  0
  1 20  1  0  0  0  0
  2 17  2  0  0  0  0
  2  7  1  0  0  0  0
  4  9  1  0  0  0  0
  4 12  1  0  0  0  0
  5  7  1  0  0  0  0
  5 18  1  0  0  0  0
  6 16  1  0  0  0  0
  6  9  2  0  0  0  0
  7  4  2  0  0  0  0
  8 12  1  0  0  0  0
 10 14  1  0  0  0  0
 11  5  2  0  0  0  0
 13 15  1  0  0  0  0
 14 18  2  0  0  0  0
 14  3  1  0  0  0  0
 15 10  1  0  0  0  0
 17  6  1  0  0  0  0
 18  8  1  0  0  0  0
 19 13  1  0  0  0  0
 20 11  1  0  0  0  0
 20 10  2  0  0  0  0
 21 22  1  6  0  0  0
 21 23  1  0  0  0  0
 24 27  1  0  0  0  0
 25 26  2  0  0  0  0
 26 23  1  0  0  0  0
 26 24  1  0  0  0  0
 28 24  1  0  0  0  0
M  END
>  <MODEL>
1

>  <REMARK>
 VINA RESULT:      -8.1      0.000      0.000
  Name = 
  3 active torsions:
  status: ('A' for Active; 'I' for Inactive)
    1  A    between atoms: C_1  and  C_2
    2  A    between atoms: C_2  and  C_3
    3  A    between atoms: C_3  and  C_11
                            x       y       z     vdW  Elec       q    Type
                         _______ _______ _______ _____ _____    ______ ____

>  <TORSDO>
F 3

$$$$
=
 OpenBabel11052418093D

 28 31  0  0  1  0  0  0  0  0999 V2000
  187.0300  176.6340  146.6900 C   0  0  1  0  0  3  0  0  0  0  0  0
  188.3180  174.3090  142.1770 C   0  0  0  0  0  3  0  0  0  0  0  0
  184.8330  179.3000  143.1060 O   0  0  0  0  0  1  0  0  0  0  0  0
  187.5010  175.8430  140.4810 C   0  0  0  0  0  0  0  0  0  0  0  0
  187.0940  176.3790  142.8910 C   0  0  0  0  0  0  0  0  0  0  0  0
  188.6630  173.8160  139.8340 C   0  0  0  0  0  0  0  0  0  0  0  0
  187.6590  175.5020  141.8410 C   0  0  0  0  0  0  0  0  0  0  0  0
  186.0440  177.7150  141.1260 N   0  0  0  0  0  2  0  0  0  0  0  0
  188.0140  175.0040  139.4870 C   0  0  0  0  0  3  0  0  0  0  0  0
  185.9030  178.0050  144.8540 C   0  0  0  0  0  0  0  0  0  0  0  0
  187.3130  176.1210  144.2490 C   0  0  0  0  0  3  0  0  0  0  0  0
  186.8870  177.1520  140.0730 C   0  0  0  0  0  2  0  0  0  0  0  0
  185.9160  178.8480  147.2140 C   0  0  0  0  0  2  0  0  0  0  0  0
  185.6710  178.2570  143.4920 C   0  0  0  0  0  0  0  0  0  0  0  0
  185.1700  178.8150  145.8890 C   0  0  0  0  0  2  0  0  0  0  0  0
  189.1770  172.9640  138.8180 N   0  0  0  0  0  1  0  0  0  0  0  0
  188.8180  173.4700  141.1780 C   0  0  0  0  0  3  0  0  0  0  0  0
  186.2830  177.4610  142.5150 C   0  0  0  0  0  0  0  0  0  0  0  0
  186.1810  177.4300  147.6920 C   0  0  0  0  0  2  0  0  0  0  0  0
  186.7370  176.9310  145.2350 C   0  0  0  0  0  0  0  0  0  0  0  0
  188.5310  176.5680  147.0340 C   0  0  2  0  0  3  0  0  0  0  0  0
  189.2740  177.4910  146.2940 O   0  0  0  0  0  1  0  0  0  0  0  0
  189.1830  175.1790  147.0390 C   0  0  0  0  0  2  0  0  0  0  0  0
  191.5150  174.8690  146.0330 N   0  0  0  0  0  0  0  0  0  0  0  0
  191.1940  175.5460  148.2460 O   0  0  0  0  0  0  0  0  0  0  0  0
  190.6760  175.1990  147.1510 C   0  0  0  0  0  0  0  0  0  0  0  0
  190.9750  174.7660  144.6870 C   0  0  0  0  0  1  0  0  0  0  0  0
  192.9500  174.7250  146.2070 C   0  0  0  0  0  1  0  0  0  0  0  0
  1 21  1  1  0  0  0
  1 19  1  0  0  0  0
  3 14  1  0  0  0  0
  4  7  2  0  0  0  0
  5 11  1  0  0  0  0
  6 17  1  0  0  0  0
  7  2  1  0  0  0  0
  7  5  1  0  0  0  0
  8 18  1  0  0  0  0
  9  6  2  0  0  0  0
  9  4  1  0  0  0  0
 10 20  1  0  0  0  0
 10 15  1  0  0  0  0
 11 20  2  0  0  0  0
 12  4  1  0  0  0  0
 12  8  1  0  0  0  0
 13 19  1  0  0  0  0
 14 10  2  0  0  0  0
 15 13  1  0  0  0  0
 16  6  1  0  0  0  0
 17  2  2  0  0  0  0
 18  5  2  0  0  0  0
 18 14  1  0  0  0  0
 20  1  1  0  0  0  0
 21 22  1  6  0  0  0
 21 23  1  0  0  0  0
 23 26  1  0  0  0  0
 24 28  1  0  0  0  0
 24 26  1  0  0  0  0
 26 25  2  0  0  0  0
 27 24  1  0  0  0  0
M  END
>  <MODEL>
2

>  <REMARK>
 VINA RESULT:      -7.8      2.350      5.848
  Name = 
  3 active torsions:
  status: ('A' for Active; 'I' for Inactive)
    1  A    between atoms: C_1  and  C_2
    2  A    between atoms: C_2  and  C_3
    3  A    between atoms: C_3  and  C_11
                            x       y       z     vdW  Elec       q    Type
                         _______ _______ _______ _____ _____    ______ ____

>  <TORSDO>
F 3

$$$$
=
 OpenBabel11052418093D

 28 31  0  0  1  0  0  0  0  0999 V2000
  186.6810  178.7480  145.3810 C   0  0  1  0  0  3  0  0  0  0  0  0
  191.2850  177.4280  143.2620 C   0  0  0  0  0  3  0  0  0  0  0  0
  188.2030  174.6980  147.8400 O   0  0  0  0  0  1  0  0  0  0  0  0
  191.7920  175.2780  144.2710 C   0  0  0  0  0  0  0  0  0  0  0  0
  189.7120  176.4800  144.9710 C   0  0  0  0  0  0  0  0  0  0  0  0
  193.3000  176.2440  142.6370 C   0  0  0  0  0  0  0  0  0  0  0  0
  190.9370  176.3930  144.1450 C   0  0  0  0  0  0  0  0  0  0  0  0
  190.4410  174.4640  146.1560 N   0  0  0  0  0  2  0  0  0  0  0  0
  192.9620  175.2050  143.5080 C   0  0  0  0  0  3  0  0  0  0  0  0
  187.4580  176.6690  146.6440 C   0  0  0  0  0  0  0  0  0  0  0  0
  188.7950  177.5240  144.8040 C   0  0  0  0  0  3  0  0  0  0  0  0
  191.4170  174.1040  145.1300 C   0  0  0  0  0  2  0  0  0  0  0  0
  185.1410  177.5560  147.0010 C   0  0  0  0  0  2  0  0  0  0  0  0
  188.3840  175.6290  146.8220 C   0  0  0  0  0  0  0  0  0  0  0  0
  186.3200  176.8180  147.6170 C   0  0  0  0  0  2  0  0  0  0  0  0
  194.4940  176.1660  141.8690 N   0  0  0  0  0  1  0  0  0  0  0  0
  192.4610  177.3530  142.5110 C   0  0  0  0  0  3  0  0  0  0  0  0
  189.4940  175.5220  145.9730 C   0  0  0  0  0  0  0  0  0  0  0  0
  185.6010  178.9010  146.4620 C   0  0  0  0  0  2  0  0  0  0  0  0
  187.6630  177.6220  145.6210 C   0  0  0  0  0  0  0  0  0  0  0  0
  186.1560  178.8350  143.9350 C   0  0  2  0  0  3  0  0  0  0  0  0
  185.2840  179.9130  143.7630 O   0  0  0  0  0  1  0  0  0  0  0  0
  185.5990  177.5450  143.3190 C   0  0  0  0  0  2  0  0  0  0  0  0
  186.5560  177.1380  140.9800 N   0  0  0  0  0  0  0  0  0  0  0  0
  184.3960  177.9610  141.3150 O   0  0  0  0  0  0  0  0  0  0  0  0
  185.4800  177.5740  141.8250 C   0  0  0  0  0  0  0  0  0  0  0  0
  187.6910  176.4050  141.5190 C   0  0  0  0  0  1  0  0  0  0  0  0
  186.4890  177.3360  139.5420 C   0  0  0  0  0  1  0  0  0  0  0  0
  1 21  1  6  0  0  0
  1 20  1  0  0  0  0
  1 19  1  0  0  0  0
  2  7  1  0  0  0  0
  4 12  1  0  0  0  0
  5 18  1  0  0  0  0
  6  9  2  0  0  0  0
  7  4  2  0  0  0  0
  7  5  1  0  0  0  0
  9  4  1  0  0  0  0
 10 14  1  0  0  0  0
 10 15  1  0  0  0  0
 11  5  2  0  0  0  0
 11 20  1  0  0  0  0
 12  8  1  0  0  0  0
 13 15  1  0  0  0  0
 14  3  1  0  0  0  0
 16  6  1  0  0  0  0
 17  6  1  0  0  0  0
 17  2  2  0  0  0  0
 18  8  1  0  0  0  0
 18 14  2  0  0  0  0
 19 13  1  0  0  0  0
 20 10  2  0  0  0  0
 21 22  1  1  0  0  0
 23 21  1  0  0  0  0
 24 27  1  0  0  0  0
 24 26  1  0  0  0  0
 25 26  2  0  0  0  0
 26 23  1  0  0  0  0
 28 24  1  0  0  0  0
M  END
>  <MODEL>
3

>  <REMARK>
 VINA RESULT:      -7.8      2.354      3.167
  Name = 
  3 active torsions:
  status: ('A' for Active; 'I' for Inactive)
    1  A    between atoms: C_1  and  C_2
    2  A    between atoms: C_2  and  C_3
    3  A    between atoms: C_3  and  C_11
                            x       y       z     vdW  Elec       q    Type
                         _______ _______ _______ _____ _____    ______ ____

>  <TORSDO>
F 3

$$$$
=
 OpenBabel11052418093D

 28 31  0  0  1  0  0  0  0  0999 V2000
  188.0580  177.1630  142.1490 C   0  0  1  0  0  3  0  0  0  0  0  0
  193.1480  176.2850  143.0140 C   0  0  0  0  0  3  0  0  0  0  0  0
  188.6850  177.5160  147.0740 O   0  0  0  0  0  1  0  0  0  0  0  0
  193.3080  176.1400  145.4330 C   0  0  0  0  0  0  0  0  0  0  0  0
  191.0870  176.6450  144.3980 C   0  0  0  0  0  0  0  0  0  0  0  0
  195.2810  175.8280  144.0590 C   0  0  0  0  0  0  0  0  0  0  0  0
  192.5300  176.3390  144.2730 C   0  0  0  0  0  0  0  0  0  0  0  0
  191.3860  176.7800  146.8250 N   0  0  0  0  0  2  0  0  0  0  0  0
  194.6760  175.8740  145.3180 C   0  0  0  0  0  3  0  0  0  0  0  0
  188.3760  177.3440  144.6760 C   0  0  0  0  0  0  0  0  0  0  0  0
  190.2670  176.7560  143.2680 C   0  0  0  0  0  3  0  0  0  0  0  0
  192.6770  176.0950  146.7950 C   0  0  0  0  0  2  0  0  0  0  0  0
  186.0660  177.3370  143.7030 C   0  0  0  0  0  2  0  0  0  0  0  0
  189.2000  177.2460  145.8090 C   0  0  0  0  0  0  0  0  0  0  0  0
  186.9590  177.8260  144.8340 C   0  0  0  0  0  2  0  0  0  0  0  0
  196.6740  175.5630  143.9500 N   0  0  0  0  0  1  0  0  0  0  0  0
  194.5170  176.0300  142.9080 C   0  0  0  0  0  3  0  0  0  0  0  0
  190.5450  176.8760  145.6710 C   0  0  0  0  0  0  0  0  0  0  0  0
  186.6560  177.7520  142.3650 C   0  0  0  0  0  2  0  0  0  0  0  0
  188.9140  177.0890  143.3950 C   0  0  0  0  0  0  0  0  0  0  0  0
  188.0910  175.8910  141.2800 C   0  0  2  0  0  3  0  0  0  0  0  0
  187.4170  176.0720  140.0700 O   0  0  0  0  0  1  0  0  0  0  0  0
  187.6990  174.5740  141.9620 C   0  0  0  0  0  2  0  0  0  0  0  0
  189.5310  172.8180  142.2980 N   0  0  0  0  0  0  0  0  0  0  0  0
  188.1760  172.8550  140.3950 O   0  0  0  0  0  0  0  0  0  0  0  0
  188.4810  173.3820  141.4980 C   0  0  0  0  0  0  0  0  0  0  0  0
  189.7060  173.1970  143.6910 C   0  0  0  0  0  1  0  0  0  0  0  0
  190.3890  171.7770  141.7590 C   0  0  0  0  0  1  0  0  0  0  0  0
  1 21  1  1  0  0  0
  1 19  1  0  0  0  0
  1 20  1  0  0  0  0
  2  7  1  0  0  0  0
  4 12  1  0  0  0  0
  5 18  1  0  0  0  0
  6  9  2  0  0  0  0
  7  5  1  0  0  0  0
  7  4  2  0  0  0  0
  9  4  1  0  0  0  0
 10 15  1  0  0  0  0
 10 14  1  0  0  0  0
 11 20  1  0  0  0  0
 11  5  2  0  0  0  0
 12  8  1  0  0  0  0
 13 15  1  0  0  0  0
 14  3  1  0  0  0  0
 16  6  1  0  0  0  0
 17  2  2  0  0  0  0
 17  6  1  0  0  0  0
 18 14  2  0  0  0  0
 18  8  1  0  0  0  0
 19 13  1  0  0  0  0
 20 10  2  0  0  0  0
 21 22  1  6  0  0  0
 21 23  1  0  0  0  0
 24 27  1  0  0  0  0
 25 26  2  0  0  0  0
 26 23  1  0  0  0  0
 26 24  1  0  0  0  0
 28 24  1  0  0  0  0
M  END
>  <MODEL>
4

>  <REMARK>
 VINA RESULT:      -7.3      1.222      1.485
  Name = 
  3 active torsions:
  status: ('A' for Active; 'I' for Inactive)
    1  A    between atoms: C_1  and  C_2
    2  A    between atoms: C_2  and  C_3
    3  A    between atoms: C_3  and  C_11
                            x       y       z     vdW  Elec       q    Type
                         _______ _______ _______ _____ _____    ______ ____

>  <TORSDO>
F 3

$$$$
=
 OpenBabel11052418093D

 28 31  0  0  1  0  0  0  0  0999 V2000
  186.5030  178.0910  143.0080 C   0  0  1  0  0  3  0  0  0  0  0  0
  191.5070  176.7730  143.8120 C   0  0  0  0  0  3  0  0  0  0  0  0
  187.1570  178.1660  147.9420 O   0  0  0  0  0  1  0  0  0  0  0  0
  191.6560  176.5050  146.2220 C   0  0  0  0  0  0  0  0  0  0  0  0
  189.4820  177.2310  145.2190 C   0  0  0  0  0  0  0  0  0  0  0  0
  193.5980  176.1010  144.8270 C   0  0  0  0  0  0  0  0  0  0  0  0
  190.8950  176.8190  145.0750 C   0  0  0  0  0  0  0  0  0  0  0  0
  189.7920  177.2310  147.6490 N   0  0  0  0  0  2  0  0  0  0  0  0
  192.9990  176.1370  146.0890 C   0  0  0  0  0  3  0  0  0  0  0  0
  186.8350  178.1290  145.5400 C   0  0  0  0  0  0  0  0  0  0  0  0
  188.6730  177.4590  144.1000 C   0  0  0  0  0  3  0  0  0  0  0  0
  191.0240  176.4480  147.5830 C   0  0  0  0  0  2  0  0  0  0  0  0
  184.5310  178.3500  144.5770 C   0  0  0  0  0  2  0  0  0  0  0  0
  187.6480  177.9150  146.6640 C   0  0  0  0  0  0  0  0  0  0  0  0
  185.4610  178.7140  145.7260 C   0  0  0  0  0  2  0  0  0  0  0  0
  194.9650  175.7320  144.7010 N   0  0  0  0  0  1  0  0  0  0  0  0
  192.8520  176.4160  143.6900 C   0  0  0  0  0  3  0  0  0  0  0  0
  188.9590  177.4460  146.5040 C   0  0  0  0  0  0  0  0  0  0  0  0
  185.1510  178.7780  143.2570 C   0  0  0  0  0  2  0  0  0  0  0  0
  187.3500  177.8920  144.2470 C   0  0  0  0  0  0  0  0  0  0  0  0
  186.4340  176.8610  142.0820 C   0  0  2  0  0  3  0  0  0  0  0  0
  186.4790  175.6650  142.8030 O   0  0  0  0  0  1  0  0  0  0  0  0
  187.3880  176.8420  140.8800 C   0  0  0  0  0  2  0  0  0  0  0  0
  187.0670  175.9110  138.5180 N   0  0  0  0  0  0  0  0  0  0  0  0
  185.7660  177.6630  139.3540 O   0  0  0  0  0  0  0  0  0  0  0  0
  186.7030  176.8440  139.5480 C   0  0  0  0  0  0  0  0  0  0  0  0
  187.9140  174.7640  138.8020 C   0  0  0  0  0  1  0  0  0  0  0  0
  186.5150  176.0410  137.1800 C   0  0  0  0  0  1  0  0  0  0  0  0
  1 21  1  1  0  0  0
  1 19  1  0  0  0  0
  1 20  1  0  0  0  0
  2  7  1  0  0  0  0
  4 12  1  0  0  0  0
  5 18  1  0  0  0  0
  6  9  2  0  0  0  0
  7  5  1  0  0  0  0
  7  4  2  0  0  0  0
  9  4  1  0  0  0  0
 10 15  1  0  0  0  0
 10 14  1  0  0  0  0
 11 20  1  0  0  0  0
 11  5  2  0  0  0  0
 12  8  1  0  0  0  0
 13 15  1  0  0  0  0
 14  3  1  0  0  0  0
 16  6  1  0  0  0  0
 17  2  2  0  0  0  0
 17  6  1  0  0  0  0
 18 14  2  0  0  0  0
 18  8  1  0  0  0  0
 19 13  1  0  0  0  0
 20 10  2  0  0  0  0
 21 22  1  1  0  0  0
 23 21  1  0  0  0  0
 24 27  1  0  0  0  0
 24 26  1  0  0  0  0
 25 26  2  0  0  0  0
 26 23  1  0  0  0  0
 28 24  1  0  0  0  0
M  END
>  <MODEL>
5

>  <REMARK>
 VINA RESULT:      -7.3      1.729      2.192
  Name = 
  3 active torsions:
  status: ('A' for Active; 'I' for Inactive)
    1  A    between atoms: C_1  and  C_2
    2  A    between atoms: C_2  and  C_3
    3  A    between atoms: C_3  and  C_11
                            x       y       z     vdW  Elec       q    Type
                         _______ _______ _______ _____ _____    ______ ____

>  <TORSDO>
F 3

$$$$
=
 OpenBabel11052418093D

 28 31  0  0  1  0  0  0  0  0999 V2000
  186.7010  177.0850  144.8440 C   0  0  1  0  0  3  0  0  0  0  0  0
  189.1210  172.7650  143.1390 C   0  0  0  0  0  3  0  0  0  0  0  0
  186.6670  177.3730  139.8750 O   0  0  0  0  0  1  0  0  0  0  0  0
  189.3610  173.1390  140.7510 C   0  0  0  0  0  0  0  0  0  0  0  0
  188.1750  174.8570  142.1300 C   0  0  0  0  0  0  0  0  0  0  0  0
  190.2350  171.1160  141.7630 C   0  0  0  0  0  0  0  0  0  0  0  0
  188.9060  173.5760  142.0140 C   0  0  0  0  0  0  0  0  0  0  0  0
  188.1910  175.0200  139.6860 N   0  0  0  0  0  2  0  0  0  0  0  0
  190.0320  171.9170  140.6360 C   0  0  0  0  0  3  0  0  0  0  0  0
  186.6830  177.2370  142.2950 C   0  0  0  0  0  0  0  0  0  0  0  0
  187.7920  175.3660  143.3770 C   0  0  0  0  0  3  0  0  0  0  0  0
  189.2400  174.0130  139.5350 C   0  0  0  0  0  2  0  0  0  0  0  0
  185.9570  179.2030  143.6700 C   0  0  0  0  0  2  0  0  0  0  0  0
  187.0540  176.7220  141.0420 C   0  0  0  0  0  0  0  0  0  0  0  0
  185.7920  178.4480  142.3590 C   0  0  0  0  0  2  0  0  0  0  0  0
  190.9130  169.8720  141.6370 N   0  0  0  0  0  1  0  0  0  0  0  0
  189.7820  171.5410  143.0140 C   0  0  0  0  0  3  0  0  0  0  0  0
  187.8160  175.5480  140.9620 C   0  0  0  0  0  0  0  0  0  0  0  0
  185.7150  178.2630  144.8400 C   0  0  0  0  0  2  0  0  0  0  0  0
  187.0620  176.5560  143.4730 C   0  0  0  0  0  0  0  0  0  0  0  0
  187.9020  177.2600  145.7930 C   0  0  2  0  0  3  0  0  0  0  0  0
  187.5340  177.8900  146.9840 O   0  0  0  0  0  1  0  0  0  0  0  0
  189.1780  177.8670  145.1950 C   0  0  0  0  0  2  0  0  0  0  0  0
  191.2510  176.6220  144.3560 N   0  0  0  0  0  0  0  0  0  0  0  0
  190.7420  176.8010  146.6290 O   0  0  0  0  0  0  0  0  0  0  0  0
  190.4180  177.0620  145.4400 C   0  0  0  0  0  0  0  0  0  0  0  0
  191.0870  177.1550  143.0130 C   0  0  0  0  0  1  0  0  0  0  0  0
  192.3480  175.7010  144.5980 C   0  0  0  0  0  1  0  0  0  0  0  0
  1 21  1  6  0  0  0
  3 14  1  0  0  0  0
  4  7  1  0  0  0  0
  5 11  1  0  0  0  0
  6 17  2  0  0  0  0
  7  5  1  0  0  0  0
  7  2  2  0  0  0  0
  8 18  1  0  0  0  0
  9  4  2  0  0  0  0
  9  6  1  0  0  0  0
 10 15  1  0  0  0  0
 10 20  1  0  0  0  0
 11 20  2  0  0  0  0
 12  8  1  0  0  0  0
 12  4  1  0  0  0  0
 13 19  1  0  0  0  0
 14 10  2  0  0  0  0
 15 13  1  0  0  0  0
 16  6  1  0  0  0  0
 17  2  1  0  0  0  0
 18 14  1  0  0  0  0
 18  5  2  0  0  0  0
 19  1  1  0  0  0  0
 20  1  1  0  0  0  0
 21 22  1  1  0  0  0
 23 26  1  0  0  0  0
 23 21  1  0  0  0  0
 24 28  1  0  0  0  0
 24 26  1  0  0  0  0
 26 25  2  0  0  0  0
 27 24  1  0  0  0  0
M  END
>  <MODEL>
6

>  <REMARK>
 VINA RESULT:      -7.2      1.803      5.496
  Name = 
  3 active torsions:
  status: ('A' for Active; 'I' for Inactive)
    1  A    between atoms: C_1  and  C_2
    2  A    between atoms: C_2  and  C_3
    3  A    between atoms: C_3  and  C_11
                            x       y       z     vdW  Elec       q    Type
                         _______ _______ _______ _____ _____    ______ ____

>  <TORSDO>
F 3

$$$$
=
 OpenBabel11052418093D

 28 31  0  0  1  0  0  0  0  0999 V2000
  190.6580  175.4600  144.6840 C   0  0  1  0  0  3  0  0  0  0  0  0
  186.5490  177.2340  141.9640 C   0  0  0  0  0  3  0  0  0  0  0  0
  187.0210  176.1590  148.0090 O   0  0  0  0  0  1  0  0  0  0  0  0
  184.9480  177.8650  143.6790 C   0  0  0  0  0  0  0  0  0  0  0  0
  187.1250  176.8460  144.3750 C   0  0  0  0  0  0  0  0  0  0  0  0
  184.4210  178.1960  141.3360 C   0  0  0  0  0  0  0  0  0  0  0  0
  186.2060  177.3320  143.3220 C   0  0  0  0  0  0  0  0  0  0  0  0
  185.3490  177.2260  146.0180 N   0  0  0  0  0  2  0  0  0  0  0  0
  184.0690  178.3040  142.6830 C   0  0  0  0  0  3  0  0  0  0  0  0
  188.7950  175.8190  146.3920 C   0  0  0  0  0  0  0  0  0  0  0  0
  188.4150  176.3990  144.0640 C   0  0  0  0  0  3  0  0  0  0  0  0
  184.5730  178.0770  145.1170 C   0  0  0  0  0  2  0  0  0  0  0  0
  191.1200  175.2940  147.1690 C   0  0  0  0  0  2  0  0  0  0  0  0
  187.4970  176.2540  146.7040 C   0  0  0  0  0  0  0  0  0  0  0  0
  189.6320  175.1710  147.4620 C   0  0  0  0  0  2  0  0  0  0  0  0
  183.5190  178.6390  140.3290 N   0  0  0  0  0  1  0  0  0  0  0  0
  185.6610  177.6650  140.9760 C   0  0  0  0  0  3  0  0  0  0  0  0
  186.6740  176.7860  145.7020 C   0  0  0  0  0  0  0  0  0  0  0  0
  191.4230  174.7220  145.7930 C   0  0  0  0  0  2  0  0  0  0  0  0
  189.2600  175.8980  145.0610 C   0  0  0  0  0  0  0  0  0  0  0  0
  191.4820  176.5310  143.9430 C   0  0  2  0  0  3  0  0  0  0  0  0
  191.6080  176.2400  142.5830 O   0  0  0  0  0  1  0  0  0  0  0  0
  192.8240  176.9330  144.5700 C   0  0  0  0  0  2  0  0  0  0  0  0
  195.0720  175.7220  144.7440 N   0  0  0  0  0  0  0  0  0  0  0  0
  194.0680  176.1960  142.6880 O   0  0  0  0  0  0  0  0  0  0  0  0
  194.0180  176.2800  143.9440 C   0  0  0  0  0  0  0  0  0  0  0  0
  194.9090  175.5230  146.1750 C   0  0  0  0  0  1  0  0  0  0  0  0
  196.2970  175.2510  144.1220 C   0  0  0  0  0  1  0  0  0  0  0  0
  1 21  1  1  0  0  0
  1 20  1  0  0  0  0
  1 19  1  0  0  0  0
  2  7  1  0  0  0  0
  4 12  1  0  0  0  0
  5 18  1  0  0  0  0
  6  9  2  0  0  0  0
  7  4  2  0  0  0  0
  7  5  1  0  0  0  0
  9  4  1  0  0  0  0
 10 14  1  0  0  0  0
 10 15  1  0  0  0  0
 11  5  2  0  0  0  0
 11 20  1  0  0  0  0
 12  8  1  0  0  0  0
 13 15  1  0  0  0  0
 14  3  1  0  0  0  0
 16  6  1  0  0  0  0
 17  6  1  0  0  0  0
 17  2  2  0  0  0  0
 18  8  1  0  0  0  0
 18 14  2  0  0  0  0
 19 13  1  0  0  0  0
 20 10  2  0  0  0  0
 21 22  1  6  0  0  0
 21 23  1  0  0  0  0
 24 27  1  0  0  0  0
 25 26  2  0  0  0  0
 26 23  1  0  0  0  0
 26 24  1  0  0  0  0
 28 24  1  0  0  0  0
M  END
>  <MODEL>
7

>  <REMARK>
 VINA RESULT:      -7.2      2.604      6.517
  Name = 
  3 active torsions:
  status: ('A' for Active; 'I' for Inactive)
    1  A    between atoms: C_1  and  C_2
    2  A    between atoms: C_2  and  C_3
    3  A    between atoms: C_3  and  C_11
                            x       y       z     vdW  Elec       q    Type
                         _______ _______ _______ _____ _____    ______ ____

>  <TORSDO>
F 3

$$$$
=
 OpenBabel11052418093D

 28 31  0  0  1  0  0  0  0  0999 V2000
  190.3730  175.3180  144.8800 C   0  0  1  0  0  3  0  0  0  0  0  0
  186.4310  177.1240  141.9430 C   0  0  0  0  0  3  0  0  0  0  0  0
  186.7080  176.4370  148.0560 O   0  0  0  0  0  1  0  0  0  0  0  0
  184.8300  177.9550  143.5700 C   0  0  0  0  0  0  0  0  0  0  0  0
  186.9310  176.8690  144.3880 C   0  0  0  0  0  0  0  0  0  0  0  0
  184.3740  178.1550  141.1980 C   0  0  0  0  0  0  0  0  0  0  0  0
  186.0630  177.3320  143.2820 C   0  0  0  0  0  0  0  0  0  0  0  0
  185.1420  177.4550  145.9560 N   0  0  0  0  0  2  0  0  0  0  0  0
  183.9990  178.3730  142.5260 C   0  0  0  0  0  3  0  0  0  0  0  0
  188.4960  175.8920  146.5120 C   0  0  0  0  0  0  0  0  0  0  0  0
  188.2000  176.3330  144.1410 C   0  0  0  0  0  3  0  0  0  0  0  0
  184.4360  178.2840  144.9820 C   0  0  0  0  0  2  0  0  0  0  0  0
  190.7700  175.2960  147.3820 C   0  0  0  0  0  2  0  0  0  0  0  0
  187.2170  176.4170  146.7610 C   0  0  0  0  0  0  0  0  0  0  0  0
  189.2710  175.2740  147.6440 C   0  0  0  0  0  2  0  0  0  0  0  0
  183.5200  178.5770  140.1410 N   0  0  0  0  0  1  0  0  0  0  0  0
  185.5900  177.5350  140.9060 C   0  0  0  0  0  3  0  0  0  0  0  0
  186.4480  176.9240  145.7050 C   0  0  0  0  0  0  0  0  0  0  0  0
  191.0710  174.6170  146.0550 C   0  0  0  0  0  2  0  0  0  0  0  0
  188.9940  175.8560  145.1910 C   0  0  0  0  0  0  0  0  0  0  0  0
  191.2710  176.2910  144.0910 C   0  0  2  0  0  3  0  0  0  0  0  0
  190.9020  177.6220  144.2990 O   0  0  0  0  0  1  0  0  0  0  0  0
  191.4920  175.9830  142.6040 C   0  0  0  0  0  2  0  0  0  0  0  0
  190.4440  173.8160  141.7350 N   0  0  0  0  0  0  0  0  0  0  0  0
  192.6610  173.9210  142.4650 O   0  0  0  0  0  0  0  0  0  0  0  0
  191.5690  174.5220  142.2810 C   0  0  0  0  0  0  0  0  0  0  0  0
  189.2820  174.5250  141.2240 C   0  0  0  0  0  1  0  0  0  0  0  0
  190.4820  172.3710  141.5910 C   0  0  0  0  0  1  0  0  0  0  0  0
  1 21  1  1  0  0  0
  1 20  1  0  0  0  0
  1 19  1  0  0  0  0
  2  7  1  0  0  0  0
  4 12  1  0  0  0  0
  5 18  1  0  0  0  0
  6  9  2  0  0  0  0
  7  4  2  0  0  0  0
  7  5  1  0  0  0  0
  9  4  1  0  0  0  0
 10 14  1  0  0  0  0
 10 15  1  0  0  0  0
 11  5  2  0  0  0  0
 11 20  1  0  0  0  0
 12  8  1  0  0  0  0
 13 15  1  0  0  0  0
 14  3  1  0  0  0  0
 16  6  1  0  0  0  0
 17  6  1  0  0  0  0
 17  2  2  0  0  0  0
 18  8  1  0  0  0  0
 18 14  2  0  0  0  0
 19 13  1  0  0  0  0
 20 10  2  0  0  0  0
 21 22  1  6  0  0  0
 23 21  1  0  0  0  0
 24 26  1  0  0  0  0
 26 25  2  0  0  0  0
 26 23  1  0  0  0  0
 27 24  1  0  0  0  0
 28 24  1  0  0  0  0
M  END
>  <MODEL>
8

>  <REMARK>
 VINA RESULT:      -7.2      2.571      6.001
  Name = 
  3 active torsions:
  status: ('A' for Active; 'I' for Inactive)
    1  A    between atoms: C_1  and  C_2
    2  A    between atoms: C_2  and  C_3
    3  A    between atoms: C_3  and  C_11
                            x       y       z     vdW  Elec       q    Type
                         _______ _______ _______ _____ _____    ______ ____

>  <TORSDO>
F 3

$$$$
=
 OpenBabel11052418093D

 28 31  0  0  1  0  0  0  0  0999 V2000
  189.2550  175.2820  146.1140 C   0  0  1  0  0  3  0  0  0  0  0  0
  190.6100  171.6020  142.6420 C   0  0  0  0  0  3  0  0  0  0  0  0
  187.1730  176.6410  141.8020 O   0  0  0  0  0  1  0  0  0  0  0  0
  189.8510  172.5020  140.5180 C   0  0  0  0  0  0  0  0  0  0  0  0
  189.3990  173.7990  142.6100 C   0  0  0  0  0  0  0  0  0  0  0  0
  191.0000  170.3690  140.5980 C   0  0  0  0  0  0  0  0  0  0  0  0
  189.9750  172.6240  141.9180 C   0  0  0  0  0  0  0  0  0  0  0  0
  188.4050  174.4900  140.4800 N   0  0  0  0  0  2  0  0  0  0  0  0
  190.3740  171.3810  139.8660 C   0  0  0  0  0  3  0  0  0  0  0  0
  188.1860  175.9830  143.9030 C   0  0  0  0  0  0  0  0  0  0  0  0
  189.5840  173.9970  143.9830 C   0  0  0  0  0  3  0  0  0  0  0  0
  189.2640  173.6100  139.6900 C   0  0  0  0  0  2  0  0  0  0  0  0
  188.1590  177.5520  145.8580 C   0  0  0  0  0  2  0  0  0  0  0  0
  187.9870  175.7780  142.5280 C   0  0  0  0  0  0  0  0  0  0  0  0
  187.4410  177.0910  144.5980 C   0  0  0  0  0  2  0  0  0  0  0  0
  191.5240  169.2290  139.9290 N   0  0  0  0  0  1  0  0  0  0  0  0
  191.1210  170.4810  141.9850 C   0  0  0  0  0  3  0  0  0  0  0  0
  188.6100  174.7030  141.8800 C   0  0  0  0  0  0  0  0  0  0  0  0
  188.3940  176.3660  146.7800 C   0  0  0  0  0  2  0  0  0  0  0  0
  188.9970  175.0880  144.6350 C   0  0  0  0  0  0  0  0  0  0  0  0
  190.7460  175.3240  146.4990 C   0  0  2  0  0  3  0  0  0  0  0  0
  190.9300  175.1930  147.8780 O   0  0  0  0  0  1  0  0  0  0  0  0
  191.5820  176.4700  145.9150 C   0  0  0  0  0  2  0  0  0  0  0  0
  192.3660  176.4690  143.4790 N   0  0  0  0  0  0  0  0  0  0  0  0
  193.5340  175.3470  145.1630 O   0  0  0  0  0  0  0  0  0  0  0  0
  192.5400  176.0520  144.8420 C   0  0  0  0  0  0  0  0  0  0  0  0
  191.4260  177.5200  143.1250 C   0  0  0  0  0  1  0  0  0  0  0  0
  193.2010  175.9150  142.4270 C   0  0  0  0  0  1  0  0  0  0  0  0
  1 21  1  6  0  0  0
  1 19  1  0  0  0  0
  3 14  1  0  0  0  0
  4  7  1  0  0  0  0
  5 11  1  0  0  0  0
  6 17  2  0  0  0  0
  7  5  1  0  0  0  0
  7  2  2  0  0  0  0
  8 18  1  0  0  0  0
  9  4  2  0  0  0  0
  9  6  1  0  0  0  0
 10 15  1  0  0  0  0
 10 20  1  0  0  0  0
 11 20  2  0  0  0  0
 12  8  1  0  0  0  0
 12  4  1  0  0  0  0
 13 19  1  0  0  0  0
 14 10  2  0  0  0  0
 15 13  1  0  0  0  0
 16  6  1  0  0  0  0
 17  2  1  0  0  0  0
 18 14  1  0  0  0  0
 18  5  2  0  0  0  0
 20  1  1  0  0  0  0
 21 22  1  1  0  0  0
 23 21  1  0  0  0  0
 24 26  1  0  0  0  0
 26 25  2  0  0  0  0
 26 23  1  0  0  0  0
 27 24  1  0  0  0  0
 28 24  1  0  0  0  0
M  END
>  <MODEL>
9

>  <REMARK>
 VINA RESULT:      -6.9      2.509      5.909
  Name = 
  3 active torsions:
  status: ('A' for Active; 'I' for Inactive)
    1  A    between atoms: C_1  and  C_2
    2  A    between atoms: C_2  and  C_3
    3  A    between atoms: C_3  and  C_11
                            x       y       z     vdW  Elec       q    Type
                         _______ _______ _______ _____ _____    ______ ____

>  <TORSDO>
F 3

$$$$
