=
 OpenBabel11052418263D

 27 31  0  0  1  0  0  0  0  0999 V2000
  187.3270  176.6280  142.6030 N   0  0  0  0  0  2  0  0  0  0  0  0
  188.6410  176.4180  144.6230 C   0  0  0  0  0  0  0  0  0  0  0  0
  189.3830  174.4630  143.2360 N   0  0  0  0  0  0  0  0  0  0  0  0
  192.3990  176.5170  146.4340 N   0  0  0  0  0  2  0  0  0  0  0  0
  194.4890  175.6760  146.6900 O   0  0  0  0  0  0  0  0  0  0  0  0
  188.9560  177.3870  145.5920 C   0  0  0  0  0  3  0  0  0  0  0  0
  191.8840  174.5810  144.5300 C   0  0  0  0  0  3  0  0  0  0  0  0
  188.3640  173.4560  140.0220 C   0  0  0  0  0  0  0  0  0  0  0  0
  193.1290  174.6340  145.1580 C   0  0  0  0  0  3  0  0  0  0  0  0
  188.4240  172.2990  139.1970 N   0  0  0  0  0  1  0  0  0  0  0  0
  190.8860  175.5080  144.8620 C   0  0  0  0  0  0  0  0  0  0  0  0
  187.2630  176.3560  144.0260 C   0  0  1  0  0  3  0  0  0  0  0  0
  193.3710  175.6180  146.1170 C   0  0  0  0  0  0  0  0  0  0  0  0
  191.1770  176.4870  145.8370 C   0  0  0  0  0  0  0  0  0  0  0  0
  187.9100  175.7010  141.6930 C   0  0  0  0  0  0  0  0  0  0  0  0
  189.6260  175.4820  144.2290 C   0  0  0  0  0  0  0  0  0  0  0  0
  188.6950  173.3670  141.2760 N   0  0  0  0  0  0  0  0  0  0  0  0
  190.2120  177.4250  146.1920 C   0  0  0  0  0  3  0  0  0  0  0  0
  188.0810  174.7950  139.3910 C   0  0  0  0  0  2  0  0  0  0  0  0
  187.5940  175.7960  140.4010 C   0  0  0  0  0  3  0  0  0  0  0  0
  188.6620  174.5030  142.1500 C   0  0  0  0  0  0  0  0  0  0  0  0
  184.3010  178.8730  145.8740 C   0  0  0  0  0  3  0  0  0  0  0  0
  186.2380  177.2290  144.6920 C   0  0  0  0  0  0  0  0  0  0  0  0
  185.9480  178.4830  144.1420 C   0  0  0  0  0  3  0  0  0  0  0  0
  184.9830  179.3040  144.7330 C   0  0  0  0  0  3  0  0  0  0  0  0
  184.5820  177.6190  146.4250 C   0  0  0  0  0  3  0  0  0  0  0  0
  185.5460  176.7970  145.8350 C   0  0  0  0  0  3  0  0  0  0  0  0
  1 12  1  0  0  0  0
  2  6  1  0  0  0  0
  3 16  1  0  0  0  0
  6 18  2  0  0  0  0
  7 11  1  0  0  0  0
  7  9  2  0  0  0  0
  8 17  2  0  0  0  0
  9 13  1  0  0  0  0
 10  8  1  0  0  0  0
 11 14  2  0  0  0  0
 12  2  1  0  0  0  0
 12 23  1  1  0  0  0
 13  4  1  0  0  0  0
 13  5  2  0  0  0  0
 14 18  1  0  0  0  0
 14  4  1  0  0  0  0
 15 21  1  0  0  0  0
 15  1  1  0  0  0  0
 16  2  2  0  0  0  0
 16 11  1  0  0  0  0
 17 21  1  0  0  0  0
 19  8  1  0  0  0  0
 19 20  1  0  0  0  0
 20 15  2  0  0  0  0
 21  3  2  0  0  0  0
 22 26  1  0  0  0  0
 23 27  1  0  0  0  0
 24 23  2  0  0  0  0
 24 25  1  0  0  0  0
 25 22  2  0  0  0  0
 27 26  2  0  0  0  0
M  END
>  <MODEL>
1

>  <REMARK>
 VINA RESULT:      -8.5      0.000      0.000
  Name = 
  1 active torsions:
  status: ('A' for Active; 'I' for Inactive)
    1  A    between atoms: C_9  and  C_15
                            x       y       z     vdW  Elec       q    Type
                         _______ _______ _______ _____ _____    ______ ____

>  <TORSDO>
F 1

$$$$
=
 OpenBabel11052418263D

 27 31  0  0  1  0  0  0  0  0999 V2000
  190.3520  174.4070  143.4730 N   0  0  0  0  0  2  0  0  0  0  0  0
  189.3350  176.3550  144.4870 C   0  0  0  0  0  0  0  0  0  0  0  0
  188.1370  176.1440  142.2930 N   0  0  0  0  0  0  0  0  0  0  0  0
  185.9360  178.1270  146.1360 N   0  0  0  0  0  2  0  0  0  0  0  0
  183.8120  178.8930  145.9290 O   0  0  0  0  0  0  0  0  0  0  0  0
  189.3030  176.7490  145.8360 C   0  0  0  0  0  3  0  0  0  0  0  0
  185.8950  177.3750  143.4770 C   0  0  0  0  0  3  0  0  0  0  0  0
  188.5210  173.7670  139.7260 C   0  0  0  0  0  0  0  0  0  0  0  0
  184.7750  177.9770  144.0530 C   0  0  0  0  0  3  0  0  0  0  0  0
  188.1810  173.6150  138.3530 N   0  0  0  0  0  1  0  0  0  0  0  0
  187.0480  177.1490  144.2410 C   0  0  0  0  0  0  0  0  0  0  0  0
  190.5880  175.7750  143.8910 C   0  0  1  0  0  3  0  0  0  0  0  0
  184.8150  178.3490  145.3980 C   0  0  0  0  0  0  0  0  0  0  0  0
  187.0410  177.5420  145.5980 C   0  0  0  0  0  0  0  0  0  0  0  0
  189.5190  174.1030  142.3590 C   0  0  0  0  0  0  0  0  0  0  0  0
  188.1840  176.5290  143.6820 C   0  0  0  0  0  0  0  0  0  0  0  0
  188.3700  174.9250  140.2990 N   0  0  0  0  0  0  0  0  0  0  0  0
  188.1670  177.3330  146.3890 C   0  0  0  0  0  3  0  0  0  0  0  0
  188.8860  172.5490  140.5330 C   0  0  0  0  0  2  0  0  0  0  0  0
  189.6500  172.9100  141.7770 C   0  0  0  0  0  3  0  0  0  0  0  0
  188.6870  175.1310  141.6820 C   0  0  0  0  0  0  0  0  0  0  0  0
  194.1000  175.9690  146.3710 C   0  0  0  0  0  3  0  0  0  0  0  0
  191.8100  175.8660  144.7600 C   0  0  0  0  0  0  0  0  0  0  0  0
  192.0750  174.8400  145.6750 C   0  0  0  0  0  3  0  0  0  0  0  0
  193.2160  174.8920  146.4800 C   0  0  0  0  0  3  0  0  0  0  0  0
  193.8450  176.9930  145.4550 C   0  0  0  0  0  3  0  0  0  0  0  0
  192.7040  176.9420  144.6500 C   0  0  0  0  0  3  0  0  0  0  0  0
  1 12  1  0  0  0  0
  2  6  1  0  0  0  0
  3 16  1  0  0  0  0
  6 18  2  0  0  0  0
  7  9  2  0  0  0  0
  7 11  1  0  0  0  0
  8 17  2  0  0  0  0
  8 19  1  0  0  0  0
  9 13  1  0  0  0  0
 10  8  1  0  0  0  0
 11 14  2  0  0  0  0
 12  2  1  0  0  0  0
 12 23  1  1  0  0  0
 13  5  2  0  0  0  0
 13  4  1  0  0  0  0
 14  4  1  0  0  0  0
 14 18  1  0  0  0  0
 15  1  1  0  0  0  0
 16 11  1  0  0  0  0
 16  2  2  0  0  0  0
 17 21  1  0  0  0  0
 19 20  1  0  0  0  0
 20 15  2  0  0  0  0
 21  3  2  0  0  0  0
 21 15  1  0  0  0  0
 22 25  1  0  0  0  0
 23 24  1  0  0  0  0
 24 25  2  0  0  0  0
 26 22  2  0  0  0  0
 27 23  2  0  0  0  0
 27 26  1  0  0  0  0
M  END
>  <MODEL>
2

>  <REMARK>
 VINA RESULT:      -8.4      2.563      5.801
  Name = 
  1 active torsions:
  status: ('A' for Active; 'I' for Inactive)
    1  A    between atoms: C_9  and  C_15
                            x       y       z     vdW  Elec       q    Type
                         _______ _______ _______ _____ _____    ______ ____

>  <TORSDO>
F 1

$$$$
=
 OpenBabel11052418263D

 27 31  0  0  1  0  0  0  0  0999 V2000
  188.6610  176.4010  146.1180 N   0  0  0  0  0  2  0  0  0  0  0  0
  188.1890  176.1120  143.7620 C   0  0  0  0  0  0  0  0  0  0  0  0
  190.6960  176.1050  143.8620 N   0  0  0  0  0  0  0  0  0  0  0  0
  188.3480  173.6620  140.3890 N   0  0  0  0  0  2  0  0  0  0  0  0
  189.5390  172.5270  138.8280 O   0  0  0  0  0  0  0  0  0  0  0  0
  187.0140  175.6660  143.1320 C   0  0  0  0  0  3  0  0  0  0  0  0
  190.7140  174.4750  141.5630 C   0  0  0  0  0  3  0  0  0  0  0  0
  192.8490  176.4160  146.6280 C   0  0  0  0  0  0  0  0  0  0  0  0
  190.7370  173.6610  140.4290 C   0  0  0  0  0  3  0  0  0  0  0  0
  194.2170  176.7100  146.8880 N   0  0  0  0  0  1  0  0  0  0  0  0
  189.4920  174.8860  142.1120 C   0  0  0  0  0  0  0  0  0  0  0  0
  188.1160  177.0460  144.9390 C   0  0  1  0  0  3  0  0  0  0  0  0
  189.5320  173.2600  139.8500 C   0  0  0  0  0  0  0  0  0  0  0  0
  188.2980  174.4550  141.4930 C   0  0  0  0  0  0  0  0  0  0  0  0
  190.0550  176.1340  146.2430 C   0  0  0  0  0  0  0  0  0  0  0  0
  189.4470  175.6960  143.2660 C   0  0  0  0  0  0  0  0  0  0  0  0
  192.3710  176.5990  145.4330 N   0  0  0  0  0  0  0  0  0  0  0  0
  187.0660  174.8420  142.0110 C   0  0  0  0  0  3  0  0  0  0  0  0
  192.0270  175.7400  147.6940 C   0  0  0  0  0  2  0  0  0  0  0  0
  190.5530  175.9240  147.4620 C   0  0  0  0  0  3  0  0  0  0  0  0
  191.0040  176.3100  145.1130 C   0  0  0  0  0  0  0  0  0  0  0  0
  184.2260  178.6660  145.8130 C   0  0  0  0  0  3  0  0  0  0  0  0
  186.7540  177.6140  145.2210 C   0  0  0  0  0  0  0  0  0  0  0  0
  185.9640  177.0290  146.2170 C   0  0  0  0  0  3  0  0  0  0  0  0
  184.7020  177.5520  146.5110 C   0  0  0  0  0  3  0  0  0  0  0  0
  185.0130  179.2580  144.8210 C   0  0  0  0  0  3  0  0  0  0  0  0
  186.2750  178.7350  144.5260 C   0  0  0  0  0  3  0  0  0  0  0  0
  1 15  1  0  0  0  0
  2 12  1  0  0  0  0
  3 21  2  0  0  0  0
  4 14  1  0  0  0  0
  5 13  2  0  0  0  0
  6  2  2  0  0  0  0
  7 11  1  0  0  0  0
  8 10  1  0  0  0  0
  8 19  1  0  0  0  0
  9  7  2  0  0  0  0
 11 16  2  0  0  0  0
 12 23  1  1  0  0  0
 12  1  1  0  0  0  0
 13  4  1  0  0  0  0
 13  9  1  0  0  0  0
 14 18  2  0  0  0  0
 14 11  1  0  0  0  0
 15 20  2  0  0  0  0
 16  2  1  0  0  0  0
 16  3  1  0  0  0  0
 17  8  2  0  0  0  0
 18  6  1  0  0  0  0
 20 19  1  0  0  0  0
 21 17  1  0  0  0  0
 21 15  1  0  0  0  0
 22 25  1  0  0  0  0
 23 24  1  0  0  0  0
 24 25  2  0  0  0  0
 26 22  2  0  0  0  0
 27 26  1  0  0  0  0
 27 23  2  0  0  0  0
M  END
>  <MODEL>
3

>  <REMARK>
 VINA RESULT:      -8.4      2.361      5.461
  Name = 
  1 active torsions:
  status: ('A' for Active; 'I' for Inactive)
    1  A    between atoms: C_9  and  C_15
                            x       y       z     vdW  Elec       q    Type
                         _______ _______ _______ _____ _____    ______ ____

>  <TORSDO>
F 1

$$$$
=
 OpenBabel11052418263D

 27 31  0  0  1  0  0  0  0  0999 V2000
  190.4510  175.7510  142.5630 N   0  0  0  0  0  2  0  0  0  0  0  0
  188.2060  175.6150  143.4550 C   0  0  0  0  0  0  0  0  0  0  0  0
  189.6330  175.8820  145.5010 N   0  0  0  0  0  0  0  0  0  0  0  0
  185.0600  177.5030  145.4420 N   0  0  0  0  0  2  0  0  0  0  0  0
  184.2040  178.4860  147.2980 O   0  0  0  0  0  0  0  0  0  0  0  0
  186.9730  175.8400  142.8160 C   0  0  0  0  0  3  0  0  0  0  0  0
  187.4480  177.1210  146.7800 C   0  0  0  0  0  3  0  0  0  0  0  0
  193.1230  176.2240  145.7950 C   0  0  0  0  0  0  0  0  0  0  0  0
  186.3760  177.7420  147.4220 C   0  0  0  0  0  3  0  0  0  0  0  0
  194.1260  176.1090  146.7970 N   0  0  0  0  0  1  0  0  0  0  0  0
  187.3200  176.6850  145.4540 C   0  0  0  0  0  0  0  0  0  0  0  0
  189.3080  174.8780  142.7470 C   0  0  1  0  0  3  0  0  0  0  0  0
  185.1780  177.9270  146.7300 C   0  0  0  0  0  0  0  0  0  0  0  0
  186.0890  176.8940  144.7940 C   0  0  0  0  0  0  0  0  0  0  0  0
  191.2530  176.1680  143.6640 C   0  0  0  0  0  0  0  0  0  0  0  0
  188.3960  176.0680  144.7820 C   0  0  0  0  0  0  0  0  0  0  0  0
  191.9170  175.8080  146.0450 N   0  0  0  0  0  0  0  0  0  0  0  0
  185.9260  176.4760  143.4770 C   0  0  0  0  0  3  0  0  0  0  0  0
  193.4320  176.9770  144.5270 C   0  0  0  0  0  2  0  0  0  0  0  0
  192.4840  176.6160  143.4170 C   0  0  0  0  0  3  0  0  0  0  0  0
  190.8650  175.9090  145.0750 C   0  0  0  0  0  0  0  0  0  0  0  0
  188.2160  173.0750  138.9940 C   0  0  0  0  0  3  0  0  0  0  0  0
  188.9140  174.2320  141.4490 C   0  0  0  0  0  0  0  0  0  0  0  0
  188.5690  175.0420  140.3610 C   0  0  0  0  0  3  0  0  0  0  0  0
  188.2190  174.4650  139.1370 C   0  0  0  0  0  3  0  0  0  0  0  0
  188.5660  172.2600  140.0750 C   0  0  0  0  0  3  0  0  0  0  0  0
  188.9160  172.8360  141.2990 C   0  0  0  0  0  3  0  0  0  0  0  0
  1 12  1  0  0  0  0
  1 15  1  0  0  0  0
  2 16  1  0  0  0  0
  4 13  1  0  0  0  0
  6  2  2  0  0  0  0
  6 18  1  0  0  0  0
  7  9  2  0  0  0  0
  8 17  2  0  0  0  0
  8 10  1  0  0  0  0
 11  7  1  0  0  0  0
 12 23  1  6  0  0  0
 12  2  1  0  0  0  0
 13  5  2  0  0  0  0
 13  9  1  0  0  0  0
 14  4  1  0  0  0  0
 14 11  1  0  0  0  0
 15 21  1  0  0  0  0
 16 11  2  0  0  0  0
 16  3  1  0  0  0  0
 18 14  2  0  0  0  0
 19  8  1  0  0  0  0
 20 15  2  0  0  0  0
 20 19  1  0  0  0  0
 21  3  2  0  0  0  0
 21 17  1  0  0  0  0
 22 25  2  0  0  0  0
 22 26  1  0  0  0  0
 24 23  2  0  0  0  0
 25 24  1  0  0  0  0
 26 27  2  0  0  0  0
 27 23  1  0  0  0  0
M  END
>  <MODEL>
4

>  <REMARK>
 VINA RESULT:      -7.4      2.750      6.475
  Name = 
  1 active torsions:
  status: ('A' for Active; 'I' for Inactive)
    1  A    between atoms: C_9  and  C_15
                            x       y       z     vdW  Elec       q    Type
                         _______ _______ _______ _____ _____    ______ ____

>  <TORSDO>
F 1

$$$$
=
 OpenBabel11052418263D

 27 31  0  0  1  0  0  0  0  0999 V2000
  188.4670  175.2620  140.9280 N   0  0  0  0  0  2  0  0  0  0  0  0
  189.2070  175.8010  143.1680 C   0  0  0  0  0  0  0  0  0  0  0  0
  190.2400  173.5560  142.7340 N   0  0  0  0  0  0  0  0  0  0  0  0
  192.3680  176.7240  145.7320 N   0  0  0  0  0  2  0  0  0  0  0  0
  194.3010  176.1490  146.7680 O   0  0  0  0  0  0  0  0  0  0  0  0
  189.2810  177.0490  143.8110 C   0  0  0  0  0  3  0  0  0  0  0  0
  192.3220  174.2480  144.5050 C   0  0  0  0  0  3  0  0  0  0  0  0
  190.0690  171.5010  139.8830 C   0  0  0  0  0  0  0  0  0  0  0  0
  193.3620  174.5820  145.3730 C   0  0  0  0  0  3  0  0  0  0  0  0
  190.3160  170.1460  139.5280 N   0  0  0  0  0  1  0  0  0  0  0  0
  191.2930  175.1660  144.2500 C   0  0  0  0  0  0  0  0  0  0  0  0
  188.0310  175.4600  142.2970 C   0  0  1  0  0  3  0  0  0  0  0  0
  193.3680  175.8370  145.9830 C   0  0  0  0  0  0  0  0  0  0  0  0
  191.3420  176.4240  144.8900 C   0  0  0  0  0  0  0  0  0  0  0  0
  189.2460  174.1310  140.5520 C   0  0  0  0  0  0  0  0  0  0  0  0
  190.2400  174.8540  143.3650 C   0  0  0  0  0  0  0  0  0  0  0  0
  190.0610  171.8440  141.1370 N   0  0  0  0  0  0  0  0  0  0  0  0
  190.3390  177.3610  144.6610 C   0  0  0  0  0  3  0  0  0  0  0  0
  189.9890  172.5440  138.7980 C   0  0  0  0  0  2  0  0  0  0  0  0
  189.2790  173.7830  139.2650 C   0  0  0  0  0  3  0  0  0  0  0  0
  189.8270  173.1960  141.5510 C   0  0  0  0  0  0  0  0  0  0  0  0
  184.7370  178.2280  142.4090 C   0  0  0  0  0  3  0  0  0  0  0  0
  186.8870  176.4330  142.3580 C   0  0  0  0  0  0  0  0  0  0  0  0
  186.6220  177.2450  141.2500 C   0  0  0  0  0  3  0  0  0  0  0  0
  185.5510  178.1430  141.2760 C   0  0  0  0  0  3  0  0  0  0  0  0
  184.9930  177.4160  143.5170 C   0  0  0  0  0  3  0  0  0  0  0  0
  186.0640  176.5180  143.4920 C   0  0  0  0  0  3  0  0  0  0  0  0
  1 12  1  0  0  0  0
  2 16  2  0  0  0  0
  2  6  1  0  0  0  0
  3 16  1  0  0  0  0
  4 13  1  0  0  0  0
  6 18  2  0  0  0  0
  7  9  2  0  0  0  0
  8 17  2  0  0  0  0
  9 13  1  0  0  0  0
 10  8  1  0  0  0  0
 11  7  1  0  0  0  0
 11 14  2  0  0  0  0
 12 23  1  6  0  0  0
 12  2  1  0  0  0  0
 13  5  2  0  0  0  0
 14  4  1  0  0  0  0
 15  1  1  0  0  0  0
 15 21  1  0  0  0  0
 16 11  1  0  0  0  0
 17 21  1  0  0  0  0
 18 14  1  0  0  0  0
 19 20  1  0  0  0  0
 19  8  1  0  0  0  0
 20 15  2  0  0  0  0
 21  3  2  0  0  0  0
 22 26  1  0  0  0  0
 23 27  1  0  0  0  0
 24 25  1  0  0  0  0
 24 23  2  0  0  0  0
 25 22  2  0  0  0  0
 27 26  2  0  0  0  0
M  END
>  <MODEL>
5

>  <REMARK>
 VINA RESULT:      -7.3      1.638      2.179
  Name = 
  1 active torsions:
  status: ('A' for Active; 'I' for Inactive)
    1  A    between atoms: C_9  and  C_15
                            x       y       z     vdW  Elec       q    Type
                         _______ _______ _______ _____ _____    ______ ____

>  <TORSDO>
F 1

$$$$
=
 OpenBabel11052418263D

 27 31  0  0  1  0  0  0  0  0999 V2000
  188.6240  175.7370  142.5750 N   0  0  0  0  0  2  0  0  0  0  0  0
  190.5750  175.7860  144.0050 C   0  0  0  0  0  0  0  0  0  0  0  0
  191.0820  173.9380  142.3860 N   0  0  0  0  0  0  0  0  0  0  0  0
  194.6640  176.5190  144.4000 N   0  0  0  0  0  2  0  0  0  0  0  0
  196.8160  176.0230  143.8870 O   0  0  0  0  0  0  0  0  0  0  0  0
  191.0520  176.8160  144.8350 C   0  0  0  0  0  3  0  0  0  0  0  0
  193.8260  174.4790  142.7330 C   0  0  0  0  0  3  0  0  0  0  0  0
  189.1790  172.7030  139.6960 C   0  0  0  0  0  0  0  0  0  0  0  0
  195.1880  174.7420  142.8910 C   0  0  0  0  0  3  0  0  0  0  0  0
  189.1280  171.5490  138.8650 N   0  0  0  0  0  1  0  0  0  0  0  0
  192.8750  175.2460  143.4200 C   0  0  0  0  0  0  0  0  0  0  0  0
  189.1020  175.4940  143.9220 C   0  0  1  0  0  3  0  0  0  0  0  0
  195.5910  175.7760  143.7370 C   0  0  0  0  0  0  0  0  0  0  0  0
  193.3300  176.2830  144.2650 C   0  0  0  0  0  0  0  0  0  0  0  0
  188.9910  174.8900  141.4910 C   0  0  0  0  0  0  0  0  0  0  0  0
  191.4940  175.0070  143.2640 C   0  0  0  0  0  0  0  0  0  0  0  0
  189.9350  172.6980  140.7540 N   0  0  0  0  0  0  0  0  0  0  0  0
  192.4150  177.0660  144.9610 C   0  0  0  0  0  3  0  0  0  0  0  0
  188.4900  173.9640  139.2460 C   0  0  0  0  0  2  0  0  0  0  0  0
  188.2340  174.9020  140.3920 C   0  0  0  0  0  3  0  0  0  0  0  0
  190.0310  173.8370  141.6200 C   0  0  0  0  0  0  0  0  0  0  0  0
  186.7140  177.5450  146.8560 C   0  0  0  0  0  3  0  0  0  0  0  0
  188.2500  176.2110  144.9300 C   0  0  0  0  0  0  0  0  0  0  0  0
  188.2470  175.7690  146.2580 C   0  0  0  0  0  3  0  0  0  0  0  0
  187.4780  176.4330  147.2190 C   0  0  0  0  0  3  0  0  0  0  0  0
  186.7180  177.9960  145.5330 C   0  0  0  0  0  3  0  0  0  0  0  0
  187.4860  177.3330  144.5720 C   0  0  0  0  0  3  0  0  0  0  0  0
  1 12  1  0  0  0  0
  2  6  1  0  0  0  0
  3 16  1  0  0  0  0
  6 18  2  0  0  0  0
  7  9  2  0  0  0  0
  7 11  1  0  0  0  0
  8 17  2  0  0  0  0
  9 13  1  0  0  0  0
 10  8  1  0  0  0  0
 11 14  2  0  0  0  0
 12  2  1  0  0  0  0
 12 23  1  1  0  0  0
 13  5  2  0  0  0  0
 13  4  1  0  0  0  0
 14  4  1  0  0  0  0
 14 18  1  0  0  0  0
 15 21  1  0  0  0  0
 15  1  1  0  0  0  0
 16 11  1  0  0  0  0
 16  2  2  0  0  0  0
 17 21  1  0  0  0  0
 19  8  1  0  0  0  0
 19 20  1  0  0  0  0
 20 15  2  0  0  0  0
 21  3  2  0  0  0  0
 22 25  1  0  0  0  0
 23 24  1  0  0  0  0
 24 25  2  0  0  0  0
 26 22  2  0  0  0  0
 27 23  2  0  0  0  0
 27 26  1  0  0  0  0
M  END
>  <MODEL>
6

>  <REMARK>
 VINA RESULT:      -7.1      1.850      2.497
  Name = 
  1 active torsions:
  status: ('A' for Active; 'I' for Inactive)
    1  A    between atoms: C_9  and  C_15
                            x       y       z     vdW  Elec       q    Type
                         _______ _______ _______ _____ _____    ______ ____

>  <TORSDO>
F 1

$$$$
=
 OpenBabel11052418263D

 27 31  0  0  1  0  0  0  0  0999 V2000
  191.6680  173.6220  143.2030 N   0  0  0  0  0  2  0  0  0  0  0  0
  191.0690  175.5140  144.5880 C   0  0  0  0  0  0  0  0  0  0  0  0
  189.3580  175.5650  142.7530 N   0  0  0  0  0  0  0  0  0  0  0  0
  188.3090  177.2870  147.1670 N   0  0  0  0  0  2  0  0  0  0  0  0
  186.2580  178.1710  147.5580 O   0  0  0  0  0  0  0  0  0  0  0  0
  191.3950  175.7820  145.9290 C   0  0  0  0  0  3  0  0  0  0  0  0
  187.5650  176.7880  144.5520 C   0  0  0  0  0  3  0  0  0  0  0  0
  188.9350  173.4210  139.9950 C   0  0  0  0  0  0  0  0  0  0  0  0
  186.6660  177.3880  145.4360 C   0  0  0  0  0  3  0  0  0  0  0  0
  188.2600  173.4140  138.7430 N   0  0  0  0  0  1  0  0  0  0  0  0
  188.8520  176.4370  144.9850 C   0  0  0  0  0  0  0  0  0  0  0  0
  192.0940  174.9320  143.6540 C   0  0  1  0  0  3  0  0  0  0  0  0
  187.0600  177.6310  146.7520 C   0  0  0  0  0  0  0  0  0  0  0  0
  189.2050  176.7030  146.3260 C   0  0  0  0  0  0  0  0  0  0  0  0
  190.5680  173.4630  142.3120 C   0  0  0  0  0  0  0  0  0  0  0  0
  189.7710  175.8180  144.1130 C   0  0  0  0  0  0  0  0  0  0  0  0
  189.0110  174.5270  140.6760 N   0  0  0  0  0  0  0  0  0  0  0  0
  190.4730  176.3670  146.7910 C   0  0  0  0  0  3  0  0  0  0  0  0
  189.4010  172.1170  140.5880 C   0  0  0  0  0  2  0  0  0  0  0  0
  190.4690  172.3240  141.6250 C   0  0  0  0  0  3  0  0  0  0  0  0
  189.6700  174.5890  141.9470 C   0  0  0  0  0  0  0  0  0  0  0  0
  196.1010  174.8560  145.2230 C   0  0  0  0  0  3  0  0  0  0  0  0
  193.4950  174.8830  144.1950 C   0  0  0  0  0  0  0  0  0  0  0  0
  194.3500  175.9690  143.9750 C   0  0  0  0  0  3  0  0  0  0  0  0
  195.6510  175.9550  144.4860 C   0  0  0  0  0  3  0  0  0  0  0  0
  195.2500  173.7710  145.4510 C   0  0  0  0  0  3  0  0  0  0  0  0
  193.9500  173.7840  144.9410 C   0  0  0  0  0  3  0  0  0  0  0  0
  1 12  1  0  0  0  0
  2  6  1  0  0  0  0
  3 16  1  0  0  0  0
  6 18  2  0  0  0  0
  7 11  1  0  0  0  0
  7  9  2  0  0  0  0
  8 19  1  0  0  0  0
  8 17  2  0  0  0  0
  9 13  1  0  0  0  0
 10  8  1  0  0  0  0
 11 14  2  0  0  0  0
 12 23  1  1  0  0  0
 12  2  1  0  0  0  0
 13  4  1  0  0  0  0
 13  5  2  0  0  0  0
 14 18  1  0  0  0  0
 14  4  1  0  0  0  0
 15  1  1  0  0  0  0
 16  2  2  0  0  0  0
 16 11  1  0  0  0  0
 17 21  1  0  0  0  0
 19 20  1  0  0  0  0
 20 15  2  0  0  0  0
 21 15  1  0  0  0  0
 21  3  2  0  0  0  0
 22 26  1  0  0  0  0
 23 27  1  0  0  0  0
 24 23  2  0  0  0  0
 24 25  1  0  0  0  0
 25 22  2  0  0  0  0
 27 26  2  0  0  0  0
M  END
>  <MODEL>
7

>  <REMARK>
 VINA RESULT:      -7.0      2.433      5.984
  Name = 
  1 active torsions:
  status: ('A' for Active; 'I' for Inactive)
    1  A    between atoms: C_9  and  C_15
                            x       y       z     vdW  Elec       q    Type
                         _______ _______ _______ _____ _____    ______ ____

>  <TORSDO>
F 1

$$$$
=
 OpenBabel11052418263D

 27 31  0  0  1  0  0  0  0  0999 V2000
  189.5710  177.1700  143.5120 N   0  0  0  0  0  2  0  0  0  0  0  0
  190.1980  174.9640  142.7420 C   0  0  0  0  0  0  0  0  0  0  0  0
  187.7520  175.1000  142.2020 N   0  0  0  0  0  0  0  0  0  0  0  0
  190.7280  172.3460  139.5360 N   0  0  0  0  0  2  0  0  0  0  0  0
  189.8840  171.1520  137.8030 O   0  0  0  0  0  0  0  0  0  0  0  0
  191.4690  174.4540  142.4210 C   0  0  0  0  0  3  0  0  0  0  0  0
  188.1910  173.3030  140.0750 C   0  0  0  0  0  3  0  0  0  0  0  0
  185.4630  177.7210  142.7240 C   0  0  0  0  0  0  0  0  0  0  0  0
  188.3980  172.4200  139.0140 C   0  0  0  0  0  3  0  0  0  0  0  0
  184.0540  177.9160  142.7630 N   0  0  0  0  0  1  0  0  0  0  0  0
  189.2690  173.7090  140.8750 C   0  0  0  0  0  0  0  0  0  0  0  0
  190.0130  175.8570  143.9370 C   0  0  1  0  0  3  0  0  0  0  0  0
  189.6850  171.9480  138.7570 C   0  0  0  0  0  0  0  0  0  0  0  0
  190.5540  173.2050  140.5760 C   0  0  0  0  0  0  0  0  0  0  0  0
  188.2660  177.3810  142.9830 C   0  0  0  0  0  0  0  0  0  0  0  0
  189.0850  174.6120  141.9430 C   0  0  0  0  0  0  0  0  0  0  0  0
  185.9420  176.5120  142.6960 N   0  0  0  0  0  0  0  0  0  0  0  0
  191.6470  173.5870  141.3480 C   0  0  0  0  0  3  0  0  0  0  0  0
  186.3660  178.9130  142.5460 C   0  0  0  0  0  2  0  0  0  0  0  0
  187.7730  178.6200  142.9870 C   0  0  0  0  0  3  0  0  0  0  0  0
  187.3520  176.2580  142.6470 C   0  0  0  0  0  0  0  0  0  0  0  0
  193.4240  176.0880  146.5520 C   0  0  0  0  0  3  0  0  0  0  0  0
  191.2040  175.9610  144.8470 C   0  0  0  0  0  0  0  0  0  0  0  0
  191.2350  175.2000  146.0210 C   0  0  0  0  0  3  0  0  0  0  0  0
  192.3410  175.2650  146.8730 C   0  0  0  0  0  3  0  0  0  0  0  0
  193.4030  176.8460  145.3770 C   0  0  0  0  0  3  0  0  0  0  0  0
  192.2970  176.7820  144.5250 C   0  0  0  0  0  3  0  0  0  0  0  0
  1 12  1  0  0  0  0
  2 12  1  0  0  0  0
  3 21  2  0  0  0  0
  4 14  1  0  0  0  0
  5 13  2  0  0  0  0
  6  2  1  0  0  0  0
  7 11  1  0  0  0  0
  8 10  1  0  0  0  0
  9  7  2  0  0  0  0
 11 16  1  0  0  0  0
 12 23  1  6  0  0  0
 13  9  1  0  0  0  0
 13  4  1  0  0  0  0
 14 11  2  0  0  0  0
 14 18  1  0  0  0  0
 15 20  2  0  0  0  0
 15  1  1  0  0  0  0
 16  3  1  0  0  0  0
 16  2  2  0  0  0  0
 17  8  2  0  0  0  0
 18  6  2  0  0  0  0
 19  8  1  0  0  0  0
 19 20  1  0  0  0  0
 21 17  1  0  0  0  0
 21 15  1  0  0  0  0
 22 25  1  0  0  0  0
 23 24  1  0  0  0  0
 24 25  2  0  0  0  0
 26 22  2  0  0  0  0
 27 23  2  0  0  0  0
 27 26  1  0  0  0  0
M  END
>  <MODEL>
8

>  <REMARK>
 VINA RESULT:      -6.9      2.982      6.268
  Name = 
  1 active torsions:
  status: ('A' for Active; 'I' for Inactive)
    1  A    between atoms: C_9  and  C_15
                            x       y       z     vdW  Elec       q    Type
                         _______ _______ _______ _____ _____    ______ ____

>  <TORSDO>
F 1

$$$$
=
 OpenBabel11052418263D

 27 31  0  0  1  0  0  0  0  0999 V2000
  189.7480  175.1020  142.8130 N   0  0  0  0  0  2  0  0  0  0  0  0
  191.2460  174.9740  144.7090 C   0  0  0  0  0  0  0  0  0  0  0  0
  191.7760  172.8990  143.4030 N   0  0  0  0  0  0  0  0  0  0  0  0
  195.1650  175.0350  146.1420 N   0  0  0  0  0  2  0  0  0  0  0  0
  197.2380  174.1250  146.2580 O   0  0  0  0  0  0  0  0  0  0  0  0
  191.6890  175.9930  145.5720 C   0  0  0  0  0  3  0  0  0  0  0  0
  194.3950  172.9980  144.4400 C   0  0  0  0  0  3  0  0  0  0  0  0
  190.4120  171.7190  140.3820 C   0  0  0  0  0  0  0  0  0  0  0  0
  195.6970  173.0400  144.9420 C   0  0  0  0  0  3  0  0  0  0  0  0
  190.3490  170.5060  139.6410 N   0  0  0  0  0  1  0  0  0  0  0  0
  193.4690  173.9870  144.7980 C   0  0  0  0  0  0  0  0  0  0  0  0
  189.8140  174.9310  144.2520 C   0  0  1  0  0  3  0  0  0  0  0  0
  196.0670  174.0760  145.8000 C   0  0  0  0  0  0  0  0  0  0  0  0
  193.8890  175.0170  145.6680 C   0  0  0  0  0  0  0  0  0  0  0  0
  190.2050  174.0900  141.9220 C   0  0  0  0  0  0  0  0  0  0  0  0
  192.1530  173.9720  144.2910 C   0  0  0  0  0  0  0  0  0  0  0  0
  190.8610  171.7020  141.6020 N   0  0  0  0  0  0  0  0  0  0  0  0
  192.9980  176.0180  146.0440 C   0  0  0  0  0  3  0  0  0  0  0  0
  190.1170  173.0220  139.6860 C   0  0  0  0  0  2  0  0  0  0  0  0
  189.7680  174.1100  140.6620 C   0  0  0  0  0  3  0  0  0  0  0  0
  190.9540  172.8950  142.3900 C   0  0  0  0  0  0  0  0  0  0  0  0
  187.1330  177.6840  146.1900 C   0  0  0  0  0  3  0  0  0  0  0  0
  188.8920  175.8910  144.9480 C   0  0  0  0  0  0  0  0  0  0  0  0
  188.4200  177.0100  144.2530 C   0  0  0  0  0  3  0  0  0  0  0  0
  187.5450  177.9060  144.8730 C   0  0  0  0  0  3  0  0  0  0  0  0
  187.5960  176.5640  146.8880 C   0  0  0  0  0  3  0  0  0  0  0  0
  188.4710  175.6680  146.2690 C   0  0  0  0  0  3  0  0  0  0  0  0
  1 12  1  0  0  0  0
  2  6  1  0  0  0  0
  3 16  1  0  0  0  0
  6 18  2  0  0  0  0
  7 11  1  0  0  0  0
  7  9  2  0  0  0  0
  8 17  2  0  0  0  0
  9 13  1  0  0  0  0
 10  8  1  0  0  0  0
 11 14  2  0  0  0  0
 12  2  1  0  0  0  0
 12 23  1  1  0  0  0
 13  4  1  0  0  0  0
 13  5  2  0  0  0  0
 14 18  1  0  0  0  0
 14  4  1  0  0  0  0
 15 21  1  0  0  0  0
 15  1  1  0  0  0  0
 16  2  2  0  0  0  0
 16 11  1  0  0  0  0
 17 21  1  0  0  0  0
 19  8  1  0  0  0  0
 19 20  1  0  0  0  0
 20 15  2  0  0  0  0
 21  3  2  0  0  0  0
 22 26  1  0  0  0  0
 23 27  1  0  0  0  0
 24 25  1  0  0  0  0
 24 23  2  0  0  0  0
 25 22  2  0  0  0  0
 27 26  2  0  0  0  0
M  END
>  <MODEL>
9

>  <REMARK>
 VINA RESULT:      -6.9      2.048      2.961
  Name = 
  1 active torsions:
  status: ('A' for Active; 'I' for Inactive)
    1  A    between atoms: C_9  and  C_15
                            x       y       z     vdW  Elec       q    Type
                         _______ _______ _______ _____ _____    ______ ____

>  <TORSDO>
F 1

$$$$
