=
 OpenBabel11052418583D

 34 38  0  0  1  0  0  0  0  0999 V2000
  186.3990  177.4600  142.4980 C   0  0  0  0  0  0  0  0  0  0  0  0
  185.6190  177.6320  144.9740 C   0  0  1  0  0  3  0  0  0  0  0  0
  188.1020  177.0900  144.3300 C   0  0  2  0  0  3  0  0  0  0  0  0
  184.1010  178.2860  143.1310 C   0  0  0  0  0  2  0  0  0  0  0  0
  190.4330  176.4810  143.5330 C   0  0  1  0  0  3  0  0  0  0  0  0
  192.5640  175.5850  143.0410 O   0  0  0  0  0  0  0  0  0  0  0  0
  184.7420  178.7490  144.4270 C   0  0  0  0  0  2  0  0  0  0  0  0
  187.4510  177.6150  146.6640 C   0  0  0  0  0  3  0  0  0  0  0  0
  191.4550  172.8490  142.4290 O   0  0  0  0  0  0  0  0  0  0  0  0
  186.6140  177.0430  143.9350 C   0  0  2  0  0  3  0  0  0  0  0  0
  190.9540  174.3130  140.5220 O   0  0  0  0  0  0  0  0  0  0  0  0
  185.1550  178.1650  142.0370 C   0  0  0  0  0  2  0  0  0  0  0  0
  188.9190  176.2440  143.3110 C   0  0  1  0  0  0  0  0  0  0  0  0
  191.3570  175.4730  142.8910 C   0  0  0  0  0  0  0  0  0  0  0  0
  187.3570  177.2230  141.6040 C   0  0  0  0  0  3  0  0  0  0  0  0
  186.2480  178.0540  146.2760 C   0  0  0  0  0  3  0  0  0  0  0  0
  188.9990  173.9010  142.3070 C   0  0  0  0  0  2  0  0  0  0  0  0
  190.7390  174.0940  141.9920 S   0  0  0  0  0  0  0  0  0  0  0  0
  188.5710  174.7530  143.4960 C   0  0  0  0  0  2  0  0  0  0  0  0
  190.8420  177.9000  143.1540 C   0  0  0  0  0  1  0  0  0  0  0  0
  188.2530  176.6770  145.8070 C   0  0  2  0  0  3  0  0  0  0  0  0
  188.5840  176.6470  141.9710 O   0  0  0  0  0  0  0  0  0  0  0  0
  189.5930  176.7240  146.2110 O   0  0  0  0  0  0  0  0  0  0  0  0
  189.8810  175.4520  146.7140 C   0  0  2  0  0  3  0  0  0  0  0  0
  188.6450  174.8950  147.3960 C   0  0  0  0  0  1  0  0  0  0  0  0
  190.9700  175.5360  147.6740 N   0  0  0  0  0  2  0  0  0  0  0  0
  191.9810  176.4040  147.0940 C   0  0  0  0  0  2  0  0  0  0  0  0
  194.6320  177.4070  146.6600 F   0  0  0  0  0  0  0  0  0  0  0  0
  193.0810  175.5840  146.5090 C   0  0  0  0  0  0  0  0  0  0  0  0
  194.3650  176.1210  146.3220 C   0  0  0  0  0  0  0  0  0  0  0  0
  195.1210  174.0000  145.4250 C   0  0  0  0  0  3  0  0  0  0  0  0
  193.8450  173.4640  145.6120 C   0  0  0  0  0  3  0  0  0  0  0  0
  192.8260  174.2540  146.1530 C   0  0  0  0  0  3  0  0  0  0  0  0
  195.3800  175.3280  145.7790 C   0  0  0  0  0  3  0  0  0  0  0  0
  1 10  1  0  0  0  0
  2  7  1  6  0  0  0
  2 16  1  0  0  0  0
  3 21  1  0  0  0  0
  4  7  1  0  0  0  0
 10  3  1  0  0  0  0
 10  2  1  0  0  0  0
 11 18  2  0  0  0  0
 12  1  1  0  0  0  0
 12  4  1  0  0  0  0
 13 19  1  0  0  0  0
 13  5  1  0  0  0  0
 13  3  1  0  0  0  0
 14  6  2  0  0  0  0
 14  5  1  0  0  0  0
 15 22  1  0  0  0  0
 15  1  2  0  0  0  0
 16  8  2  0  0  0  0
 17 19  1  0  0  0  0
 18 17  1  0  0  0  0
 18  9  2  0  0  0  0
 18 14  1  0  0  0  0
 20  5  1  0  0  0  0
 21 23  1  0  0  0  0
 21  8  1  0  0  0  0
 22 13  1  0  0  0  0
 23 24  1  0  0  0  0
 24 25  1  0  0  0  0
 24 26  1  0  0  0  0
 27 26  1  0  0  0  0
 29 27  1  0  0  0  0
 30 29  1  0  0  0  0
 30 28  1  0  0  0  0
 31 32  2  0  0  0  0
 31 34  1  0  0  0  0
 32 33  1  0  0  0  0
 33 29  2  0  0  0  0
 34 30  2  0  0  0  0
M  END
>  <MODEL>
1

>  <REMARK>
 VINA RESULT:      -8.8      0.000      0.000
  Name = 
  5 active torsions:
  status: ('A' for Active; 'I' for Inactive)
    1  A    between atoms: C_3  and  C_13
    2  A    between atoms: C_3  and  N_17
    3  A    between atoms: O_5  and  C_18
    4  A    between atoms: O_5  and  C_31
    5  A    between atoms: N_17  and  C_18
                            x       y       z     vdW  Elec       q    Type
                         _______ _______ _______ _____ _____    ______ ____

>  <TORSDO>
F 5

$$$$
=
 OpenBabel11052418583D

 34 38  0  0  1  0  0  0  0  0999 V2000
  191.4780  172.3390  143.3230 C   0  0  0  0  0  0  0  0  0  0  0  0
  189.7550  171.8780  141.4300 C   0  0  1  0  0  3  0  0  0  0  0  0
  190.1230  174.2750  142.4240 C   0  0  2  0  0  3  0  0  0  0  0  0
  191.3370  170.1130  142.1440 C   0  0  0  0  0  2  0  0  0  0  0  0
  190.5350  176.5050  143.5620 C   0  0  1  0  0  3  0  0  0  0  0  0
  190.5090  178.5870  144.6820 O   0  0  0  0  0  0  0  0  0  0  0  0
  190.8170  170.8970  140.9540 C   0  0  0  0  0  2  0  0  0  0  0  0
  188.7600  173.9100  140.3850 C   0  0  0  0  0  3  0  0  0  0  0  0
  188.9060  177.5090  146.9970 O   0  0  0  0  0  0  0  0  0  0  0  0
  190.1950  172.7510  142.6370 C   0  0  2  0  0  3  0  0  0  0  0  0
  191.2180  176.7150  147.2400 O   0  0  0  0  0  0  0  0  0  0  0  0
  192.1500  171.0220  143.0590 C   0  0  0  0  0  2  0  0  0  0  0  0
  190.3500  174.9850  143.7900 C   0  0  1  0  0  0  0  0  0  0  0  0
  190.3950  177.3750  144.7890 C   0  0  0  0  0  0  0  0  0  0  0  0
  192.0580  173.1830  144.1750 C   0  0  0  0  0  3  0  0  0  0  0  0
  189.2000  172.6520  140.2630 C   0  0  0  0  0  3  0  0  0  0  0  0
  189.4380  175.0210  146.1710 C   0  0  0  0  0  2  0  0  0  0  0  0
  189.9990  176.6980  146.3620 S   0  0  0  0  0  0  0  0  0  0  0  0
  189.1400  174.7180  144.7080 C   0  0  0  0  0  2  0  0  0  0  0  0
  191.8390  176.8110  142.8340 C   0  0  0  0  0  1  0  0  0  0  0  0
  188.8070  174.6290  141.7030 C   0  0  2  0  0  3  0  0  0  0  0  0
  191.5410  174.4660  144.4100 O   0  0  0  0  0  0  0  0  0  0  0  0
  188.7100  176.0070  141.4740 O   0  0  0  0  0  0  0  0  0  0  0  0
  187.3450  176.2720  141.3420 C   0  0  2  0  0  3  0  0  0  0  0  0
  187.1610  177.6230  140.6750 C   0  0  0  0  0  1  0  0  0  0  0  0
  186.7160  176.2880  142.6530 N   0  0  0  0  0  2  0  0  0  0  0  0
  186.9900  177.5890  143.2400 C   0  0  0  0  0  2  0  0  0  0  0  0
  185.7570  180.0930  143.8950 F   0  0  0  0  0  0  0  0  0  0  0  0
  186.1410  177.7910  144.4490 C   0  0  0  0  0  0  0  0  0  0  0  0
  185.5550  179.0380  144.7230 C   0  0  0  0  0  0  0  0  0  0  0  0
  184.5390  178.1200  146.7230 C   0  0  0  0  0  3  0  0  0  0  0  0
  185.1200  176.8780  146.4500 C   0  0  0  0  0  3  0  0  0  0  0  0
  185.9200  176.7140  145.3160 C   0  0  0  0  0  3  0  0  0  0  0  0
  184.7570  179.1980  145.8600 C   0  0  0  0  0  3  0  0  0  0  0  0
  1 15  2  0  0  0  0
  2 16  1  6  0  0  0
  2 10  1  0  0  0  0
  3 10  1  0  0  0  0
  3 13  1  0  0  0  0
  4 12  1  0  0  0  0
  5 13  1  0  0  0  0
  5 14  1  0  0  0  0
  6 14  2  0  0  0  0
  7  2  1  0  0  0  0
  7  4  1  0  0  0  0
  8 21  1  0  0  0  0
 10  1  1  0  0  0  0
 12  1  1  0  0  0  0
 13 22  1  0  0  0  0
 13 19  1  0  0  0  0
 14 18  1  0  0  0  0
 15 22  1  0  0  0  0
 16  8  2  0  0  0  0
 17 18  1  0  0  0  0
 18  9  2  0  0  0  0
 18 11  2  0  0  0  0
 19 17  1  0  0  0  0
 20  5  1  0  0  0  0
 21  3  1  0  0  0  0
 23 21  1  0  0  0  0
 24 23  1  0  0  0  0
 24 26  1  0  0  0  0
 25 24  1  0  0  0  0
 26 27  1  0  0  0  0
 27 29  1  0  0  0  0
 28 30  1  0  0  0  0
 29 30  2  0  0  0  0
 29 33  1  0  0  0  0
 30 34  1  0  0  0  0
 32 31  1  0  0  0  0
 33 32  2  0  0  0  0
 34 31  2  0  0  0  0
M  END
>  <MODEL>
2

>  <REMARK>
 VINA RESULT:      -8.7      3.010      7.125
  Name = 
  5 active torsions:
  status: ('A' for Active; 'I' for Inactive)
    1  A    between atoms: C_3  and  C_13
    2  A    between atoms: C_3  and  N_17
    3  A    between atoms: O_5  and  C_18
    4  A    between atoms: O_5  and  C_31
    5  A    between atoms: N_17  and  C_18
                            x       y       z     vdW  Elec       q    Type
                         _______ _______ _______ _____ _____    ______ ____

>  <TORSDO>
F 5

$$$$
=
 OpenBabel11052418583D

 34 38  0  0  1  0  0  0  0  0999 V2000
  194.0330  173.6070  144.0770 C   0  0  0  0  0  0  0  0  0  0  0  0
  193.9080  175.8140  145.4480 C   0  0  1  0  0  3  0  0  0  0  0  0
  191.7570  174.5580  144.6310 C   0  0  2  0  0  3  0  0  0  0  0  0
  196.0710  174.6520  145.1350 C   0  0  0  0  0  2  0  0  0  0  0  0
  189.7860  173.2720  143.6820 C   0  0  1  0  0  3  0  0  0  0  0  0
  187.8390  172.4370  142.6350 O   0  0  0  0  0  0  0  0  0  0  0  0
  195.1130  175.2210  146.1650 C   0  0  0  0  0  2  0  0  0  0  0  0
  191.6290  176.4410  146.2390 C   0  0  0  0  0  3  0  0  0  0  0  0
  188.5640  173.6310  139.9630 O   0  0  0  0  0  0  0  0  0  0  0  0
  193.2520  174.8570  144.4150 C   0  0  2  0  0  3  0  0  0  0  0  0
  189.9670  171.6450  140.3120 O   0  0  0  0  0  0  0  0  0  0  0  0
  195.4670  173.4150  144.4810 C   0  0  0  0  0  2  0  0  0  0  0  0
  191.2090  173.8050  143.3850 C   0  0  1  0  0  0  0  0  0  0  0  0
  188.9780  172.8490  142.4780 C   0  0  0  0  0  0  0  0  0  0  0  0
  193.4250  172.6200  143.4210 C   0  0  0  0  0  3  0  0  0  0  0  0
  192.9510  176.4110  146.4460 C   0  0  0  0  0  3  0  0  0  0  0  0
  191.0550  174.0340  140.8500 C   0  0  0  0  0  2  0  0  0  0  0  0
  189.6060  173.0020  140.8430 S   0  0  0  0  0  0  0  0  0  0  0  0
  191.1870  174.7660  142.1800 C   0  0  0  0  0  2  0  0  0  0  0  0
  189.8070  172.1640  144.7290 C   0  0  0  0  0  1  0  0  0  0  0  0
  191.0210  175.8640  144.9920 C   0  0  2  0  0  3  0  0  0  0  0  0
  192.0640  172.6860  143.0840 O   0  0  0  0  0  0  0  0  0  0  0  0
  189.6590  175.6320  145.2160 O   0  0  0  0  0  0  0  0  0  0  0  0
  189.4410  175.9320  146.5640 C   0  0  2  0  0  3  0  0  0  0  0  0
  188.9790  174.6810  147.2850 C   0  0  0  0  0  1  0  0  0  0  0  0
  188.4240  176.9650  146.6810 N   0  0  0  0  0  2  0  0  0  0  0  0
  187.1760  176.3870  146.2110 C   0  0  0  0  0  2  0  0  0  0  0  0
  187.9180  178.0210  143.9750 F   0  0  0  0  0  0  0  0  0  0  0  0
  186.2990  177.4540  145.6520 C   0  0  0  0  0  0  0  0  0  0  0  0
  186.7070  178.2250  144.5510 C   0  0  0  0  0  0  0  0  0  0  0  0
  184.6090  179.4370  144.6220 C   0  0  0  0  0  3  0  0  0  0  0  0
  184.2010  178.6700  145.7160 C   0  0  0  0  0  3  0  0  0  0  0  0
  185.0440  177.6810  146.2310 C   0  0  0  0  0  3  0  0  0  0  0  0
  185.8610  179.2150  144.0400 C   0  0  0  0  0  3  0  0  0  0  0  0
  1 10  1  0  0  0  0
  1 12  1  0  0  0  0
  2  7  1  1  0  0  0
  2 16  1  0  0  0  0
  3 21  1  0  0  0  0
  4  7  1  0  0  0  0
  5 20  1  0  0  0  0
  8 16  2  0  0  0  0
  9 18  2  0  0  0  0
 10  3  1  0  0  0  0
 10  2  1  0  0  0  0
 11 18  2  0  0  0  0
 12  4  1  0  0  0  0
 13  5  1  0  0  0  0
 13  3  1  0  0  0  0
 14  6  2  0  0  0  0
 14  5  1  0  0  0  0
 15  1  2  0  0  0  0
 17 19  1  0  0  0  0
 18 17  1  0  0  0  0
 18 14  1  0  0  0  0
 19 13  1  0  0  0  0
 21 23  1  0  0  0  0
 21  8  1  0  0  0  0
 22 13  1  0  0  0  0
 22 15  1  0  0  0  0
 23 24  1  0  0  0  0
 24 26  1  0  0  0  0
 24 25  1  0  0  0  0
 27 26  1  0  0  0  0
 28 30  1  0  0  0  0
 29 27  1  0  0  0  0
 29 33  1  0  0  0  0
 30 29  2  0  0  0  0
 31 32  1  0  0  0  0
 32 33  2  0  0  0  0
 34 30  1  0  0  0  0
 34 31  2  0  0  0  0
M  END
>  <MODEL>
3

>  <REMARK>
 VINA RESULT:      -8.7      2.211      6.847
  Name = 
  5 active torsions:
  status: ('A' for Active; 'I' for Inactive)
    1  A    between atoms: C_3  and  C_13
    2  A    between atoms: C_3  and  N_17
    3  A    between atoms: O_5  and  C_18
    4  A    between atoms: O_5  and  C_31
    5  A    between atoms: N_17  and  C_18
                            x       y       z     vdW  Elec       q    Type
                         _______ _______ _______ _____ _____    ______ ____

>  <TORSDO>
F 5

$$$$
=
 OpenBabel11052418583D

 34 38  0  0  1  0  0  0  0  0999 V2000
  186.9480  176.5970  144.4220 C   0  0  0  0  0  0  0  0  0  0  0  0
  187.5610  177.0960  146.9000 C   0  0  1  0  0  3  0  0  0  0  0  0
  189.3900  176.6760  145.0700 C   0  0  2  0  0  3  0  0  0  0  0  0
  185.2220  177.3110  146.1180 C   0  0  0  0  0  2  0  0  0  0  0  0
  191.0240  176.1530  143.2000 C   0  0  1  0  0  3  0  0  0  0  0  0
  192.6950  175.3780  141.7180 O   0  0  0  0  0  0  0  0  0  0  0  0
  186.3620  178.0300  146.8160 C   0  0  0  0  0  2  0  0  0  0  0  0
  189.9810  177.5110  147.3290 C   0  0  0  0  0  3  0  0  0  0  0  0
  191.8840  172.4930  142.0480 O   0  0  0  0  0  0  0  0  0  0  0  0
  187.9460  176.4370  145.5470 C   0  0  2  0  0  3  0  0  0  0  0  0
  190.2330  173.5820  140.5900 O   0  0  0  0  0  0  0  0  0  0  0  0
  185.5530  177.1070  144.6440 C   0  0  0  0  0  2  0  0  0  0  0  0
  189.6780  175.7520  143.8520 C   0  0  1  0  0  0  0  0  0  0  0  0
  191.6230  175.1390  142.2540 C   0  0  0  0  0  0  0  0  0  0  0  0
  187.3210  176.3030  143.1770 C   0  0  0  0  0  3  0  0  0  0  0  0
  188.7010  177.7760  147.6130 C   0  0  0  0  0  3  0  0  0  0  0  0
  189.5950  173.2940  143.1770 C   0  0  0  0  0  2  0  0  0  0  0  0
  190.8560  173.5850  141.9570 S   0  0  0  0  0  0  0  0  0  0  0  0
  189.7220  174.2850  144.3270 C   0  0  0  0  0  2  0  0  0  0  0  0
  190.9420  177.5220  142.5350 C   0  0  0  0  0  1  0  0  0  0  0  0
  190.3550  176.5210  146.2620 C   0  0  2  0  0  3  0  0  0  0  0  0
  188.6320  175.9040  142.8740 O   0  0  0  0  0  0  0  0  0  0  0  0
  191.6810  176.7500  145.8740 O   0  0  0  0  0  0  0  0  0  0  0  0
  192.4710  176.1700  146.8700 C   0  0  2  0  0  3  0  0  0  0  0  0
  193.7920  176.9100  146.9520 C   0  0  0  0  0  1  0  0  0  0  0  0
  192.7160  174.7720  146.5550 N   0  0  0  0  0  2  0  0  0  0  0  0
  193.5800  174.7460  145.3860 C   0  0  0  0  0  2  0  0  0  0  0  0
  193.1400  171.9230  145.1420 F   0  0  0  0  0  0  0  0  0  0  0  0
  194.6570  173.7310  145.5720 C   0  0  0  0  0  0  0  0  0  0  0  0
  194.3910  172.3580  145.4360 C   0  0  0  0  0  0  0  0  0  0  0  0
  196.7150  171.8620  145.9100 C   0  0  0  0  0  3  0  0  0  0  0  0
  196.9820  173.2270  146.0440 C   0  0  0  0  0  3  0  0  0  0  0  0
  195.9540  174.1610  145.8760 C   0  0  0  0  0  3  0  0  0  0  0  0
  195.4210  171.4290  145.6070 C   0  0  0  0  0  3  0  0  0  0  0  0
  1 12  1  0  0  0  0
  1 10  1  0  0  0  0
  2  7  1  6  0  0  0
  2 16  1  0  0  0  0
  3 10  1  0  0  0  0
  3 21  1  0  0  0  0
  4  7  1  0  0  0  0
  5 13  1  0  0  0  0
  6 14  2  0  0  0  0
  8 16  2  0  0  0  0
 10  2  1  0  0  0  0
 11 18  2  0  0  0  0
 12  4  1  0  0  0  0
 13 19  1  0  0  0  0
 13  3  1  0  0  0  0
 14  5  1  0  0  0  0
 15  1  2  0  0  0  0
 17 19  1  0  0  0  0
 18  9  2  0  0  0  0
 18 14  1  0  0  0  0
 18 17  1  0  0  0  0
 20  5  1  0  0  0  0
 21  8  1  0  0  0  0
 22 15  1  0  0  0  0
 22 13  1  0  0  0  0
 23 21  1  0  0  0  0
 23 24  1  0  0  0  0
 24 25  1  0  0  0  0
 26 24  1  0  0  0  0
 27 29  1  0  0  0  0
 27 26  1  0  0  0  0
 28 30  1  0  0  0  0
 29 33  1  0  0  0  0
 30 29  2  0  0  0  0
 30 34  1  0  0  0  0
 31 32  1  0  0  0  0
 33 32  2  0  0  0  0
 34 31  2  0  0  0  0
M  END
>  <MODEL>
4

>  <REMARK>
 VINA RESULT:      -8.4      1.685      2.637
  Name = 
  5 active torsions:
  status: ('A' for Active; 'I' for Inactive)
    1  A    between atoms: C_3  and  C_13
    2  A    between atoms: C_3  and  N_17
    3  A    between atoms: O_5  and  C_18
    4  A    between atoms: O_5  and  C_31
    5  A    between atoms: N_17  and  C_18
                            x       y       z     vdW  Elec       q    Type
                         _______ _______ _______ _____ _____    ______ ____

>  <TORSDO>
F 5

$$$$
=
 OpenBabel11052418583D

 34 38  0  0  1  0  0  0  0  0999 V2000
  191.8110  172.5540  141.7840 C   0  0  0  0  0  0  0  0  0  0  0  0
  189.8880  172.4700  140.0340 C   0  0  1  0  0  3  0  0  0  0  0  0
  190.1010  174.4160  141.7780 C   0  0  2  0  0  3  0  0  0  0  0  0
  191.7710  170.8680  139.9070 C   0  0  0  0  0  2  0  0  0  0  0  0
  190.4000  176.1660  143.5910 C   0  0  1  0  0  3  0  0  0  0  0  0
  190.2850  177.7090  145.3780 O   0  0  0  0  0  0  0  0  0  0  0  0
  190.9790  171.9070  139.1350 C   0  0  0  0  0  2  0  0  0  0  0  0
  188.4970  174.5330  139.8900 C   0  0  0  0  0  3  0  0  0  0  0  0
  189.2070  175.6520  147.3020 O   0  0  0  0  0  0  0  0  0  0  0  0
  190.3970  172.9460  141.4230 C   0  0  2  0  0  3  0  0  0  0  0  0
  191.6100  175.2330  147.0120 O   0  0  0  0  0  0  0  0  0  0  0  0
  192.5950  171.5400  141.0000 C   0  0  0  0  0  2  0  0  0  0  0  0
  190.4450  174.6500  143.2770 C   0  0  1  0  0  0  0  0  0  0  0  0
  190.3430  176.5320  145.0550 C   0  0  0  0  0  0  0  0  0  0  0  0
  192.4050  173.1460  142.8190 C   0  0  0  0  0  3  0  0  0  0  0  0
  189.0680  173.4860  139.2830 C   0  0  0  0  0  3  0  0  0  0  0  0
  189.9140  173.7210  145.5910 C   0  0  0  0  0  2  0  0  0  0  0  0
  190.2830  175.3050  146.3130 S   0  0  0  0  0  0  0  0  0  0  0  0
  189.4340  173.8850  144.1550 C   0  0  0  0  0  2  0  0  0  0  0  0
  191.5270  176.9190  142.8940 C   0  0  0  0  0  1  0  0  0  0  0  0
  188.6560  174.7610  141.3670 C   0  0  2  0  0  3  0  0  0  0  0  0
  191.7730  174.1650  143.5480 O   0  0  0  0  0  0  0  0  0  0  0  0
  188.3520  176.0960  141.6570 O   0  0  0  0  0  0  0  0  0  0  0  0
  186.9770  176.1260  141.9030 C   0  0  2  0  0  3  0  0  0  0  0  0
  186.3720  177.3320  141.2110 C   0  0  0  0  0  1  0  0  0  0  0  0
  186.7340  176.2140  143.3350 N   0  0  0  0  0  2  0  0  0  0  0  0
  186.9560  177.5980  143.7180 C   0  0  0  0  0  2  0  0  0  0  0  0
  184.1520  178.1940  143.7160 F   0  0  0  0  0  0  0  0  0  0  0  0
  186.1860  177.9140  144.9550 C   0  0  0  0  0  0  0  0  0  0  0  0
  184.8110  178.1940  144.9010 C   0  0  0  0  0  0  0  0  0  0  0  0
  184.7760  178.4820  147.3080 C   0  0  0  0  0  3  0  0  0  0  0  0
  186.1440  178.2020  147.3630 C   0  0  0  0  0  3  0  0  0  0  0  0
  186.8480  177.9190  146.1890 C   0  0  0  0  0  3  0  0  0  0  0  0
  184.1110  178.4790  146.0780 C   0  0  0  0  0  3  0  0  0  0  0  0
  1 15  2  0  0  0  0
  2  7  1  6  0  0  0
  2 10  1  0  0  0  0
  3 13  1  0  0  0  0
  4 12  1  0  0  0  0
  5 14  1  0  0  0  0
  7  4  1  0  0  0  0
  8 21  1  0  0  0  0
 10  3  1  0  0  0  0
 10  1  1  0  0  0  0
 12  1  1  0  0  0  0
 13 22  1  0  0  0  0
 13  5  1  0  0  0  0
 13 19  1  0  0  0  0
 14  6  2  0  0  0  0
 14 18  1  0  0  0  0
 15 22  1  0  0  0  0
 16  8  2  0  0  0  0
 16  2  1  0  0  0  0
 17 18  1  0  0  0  0
 18 11  2  0  0  0  0
 18  9  2  0  0  0  0
 19 17  1  0  0  0  0
 20  5  1  0  0  0  0
 21 23  1  0  0  0  0
 21  3  1  0  0  0  0
 23 24  1  0  0  0  0
 24 26  1  0  0  0  0
 25 24  1  0  0  0  0
 26 27  1  0  0  0  0
 27 29  1  0  0  0  0
 28 30  1  0  0  0  0
 29 33  1  0  0  0  0
 30 29  2  0  0  0  0
 30 34  1  0  0  0  0
 31 32  1  0  0  0  0
 33 32  2  0  0  0  0
 34 31  2  0  0  0  0
M  END
>  <MODEL>
5

>  <REMARK>
 VINA RESULT:      -8.3      3.086      7.138
  Name = 
  5 active torsions:
  status: ('A' for Active; 'I' for Inactive)
    1  A    between atoms: C_3  and  C_13
    2  A    between atoms: C_3  and  N_17
    3  A    between atoms: O_5  and  C_18
    4  A    between atoms: O_5  and  C_31
    5  A    between atoms: N_17  and  C_18
                            x       y       z     vdW  Elec       q    Type
                         _______ _______ _______ _____ _____    ______ ____

>  <TORSDO>
F 5

$$$$
=
 OpenBabel11052418583D

 34 38  0  0  1  0  0  0  0  0999 V2000
  194.2440  174.9750  145.6890 C   0  0  0  0  0  0  0  0  0  0  0  0
  194.3750  173.1610  143.8300 C   0  0  1  0  0  3  0  0  0  0  0  0
  192.4980  174.9900  143.8620 C   0  0  2  0  0  3  0  0  0  0  0  0
  196.2120  173.4130  145.4690 C   0  0  0  0  0  2  0  0  0  0  0  0
  190.7010  176.7660  144.0970 C   0  0  1  0  0  3  0  0  0  0  0  0
  188.7610  178.1040  144.2880 O   0  0  0  0  0  0  0  0  0  0  0  0
  195.8740  173.3670  143.9900 C   0  0  0  0  0  2  0  0  0  0  0  0
  192.8320  173.5070  141.9030 C   0  0  0  0  0  3  0  0  0  0  0  0
  187.5960  176.3920  146.4800 O   0  0  0  0  0  0  0  0  0  0  0  0
  193.5080  174.1460  144.6610 C   0  0  2  0  0  3  0  0  0  0  0  0
  189.3820  177.7650  147.4590 O   0  0  0  0  0  0  0  0  0  0  0  0
  195.6620  174.6880  146.0960 C   0  0  0  0  0  2  0  0  0  0  0  0
  191.5530  175.7220  144.8580 C   0  0  1  0  0  0  0  0  0  0  0  0
  189.4920  177.2910  144.8350 C   0  0  0  0  0  0  0  0  0  0  0  0
  193.6300  176.0210  146.2400 C   0  0  0  0  0  3  0  0  0  0  0  0
  194.0130  173.0850  142.3700 C   0  0  0  0  0  3  0  0  0  0  0  0
  189.9850  175.2360  146.8100 C   0  0  0  0  0  2  0  0  0  0  0  0
  189.0620  176.7110  146.4380 S   0  0  0  0  0  0  0  0  0  0  0  0
  190.6470  174.6850  145.5520 C   0  0  0  0  0  2  0  0  0  0  0  0
  191.5530  177.9180  143.5770 C   0  0  0  0  0  1  0  0  0  0  0  0
  191.7970  174.0970  142.8180 C   0  0  2  0  0  3  0  0  0  0  0  0
  192.3380  176.4080  145.8510 O   0  0  0  0  0  0  0  0  0  0  0  0
  190.8820  174.8320  142.0560 O   0  0  0  0  0  0  0  0  0  0  0  0
  189.8010  173.9740  141.8330 C   0  0  2  0  0  3  0  0  0  0  0  0
  189.6560  173.7330  140.3420 C   0  0  0  0  0  1  0  0  0  0  0  0
  188.5810  174.5720  142.3500 N   0  0  0  0  0  2  0  0  0  0  0  0
  188.0440  175.4190  141.2980 C   0  0  0  0  0  2  0  0  0  0  0  0
  187.2520  177.8510  140.0020 F   0  0  0  0  0  0  0  0  0  0  0  0
  187.0320  176.3550  141.8640 C   0  0  0  0  0  0  0  0  0  0  0  0
  186.6740  177.5330  141.1870 C   0  0  0  0  0  0  0  0  0  0  0  0
  185.1100  178.0760  142.9570 C   0  0  0  0  0  3  0  0  0  0  0  0
  185.4640  176.9040  143.6320 C   0  0  0  0  0  3  0  0  0  0  0  0
  186.4230  176.0450  143.0870 C   0  0  0  0  0  3  0  0  0  0  0  0
  185.7160  178.3900  141.7370 C   0  0  0  0  0  3  0  0  0  0  0  0
  1 12  1  0  0  0  0
  1 15  2  0  0  0  0
  2 16  1  6  0  0  0
  2  7  1  0  0  0  0
  2 10  1  0  0  0  0
  3 10  1  0  0  0  0
  3 13  1  0  0  0  0
  4 12  1  0  0  0  0
  5 14  1  0  0  0  0
  5 13  1  0  0  0  0
  6 14  2  0  0  0  0
  7  4  1  0  0  0  0
  8 16  2  0  0  0  0
  8 21  1  0  0  0  0
 10  1  1  0  0  0  0
 13 19  1  0  0  0  0
 13 22  1  0  0  0  0
 14 18  1  0  0  0  0
 18  9  2  0  0  0  0
 18 17  1  0  0  0  0
 18 11  2  0  0  0  0
 19 17  1  0  0  0  0
 20  5  1  0  0  0  0
 21  3  1  0  0  0  0
 22 15  1  0  0  0  0
 23 21  1  0  0  0  0
 24 23  1  0  0  0  0
 24 26  1  0  0  0  0
 25 24  1  0  0  0  0
 27 29  1  0  0  0  0
 27 26  1  0  0  0  0
 28 30  1  0  0  0  0
 29 33  1  0  0  0  0
 30 34  1  0  0  0  0
 30 29  2  0  0  0  0
 31 32  1  0  0  0  0
 33 32  2  0  0  0  0
 34 31  2  0  0  0  0
M  END
>  <MODEL>
6

>  <REMARK>
 VINA RESULT:      -8.2      2.691      7.739
  Name = 
  5 active torsions:
  status: ('A' for Active; 'I' for Inactive)
    1  A    between atoms: C_3  and  C_13
    2  A    between atoms: C_3  and  N_17
    3  A    between atoms: O_5  and  C_18
    4  A    between atoms: O_5  and  C_31
    5  A    between atoms: N_17  and  C_18
                            x       y       z     vdW  Elec       q    Type
                         _______ _______ _______ _____ _____    ______ ____

>  <TORSDO>
F 5

$$$$
=
 OpenBabel11052418583D

 34 38  0  0  1  0  0  0  0  0999 V2000
  193.3150  174.6300  144.7970 C   0  0  0  0  0  0  0  0  0  0  0  0
  191.9730  176.7040  145.6120 C   0  0  1  0  0  3  0  0  0  0  0  0
  190.9070  174.8730  144.0670 C   0  0  2  0  0  3  0  0  0  0  0  0
  194.2220  176.2260  146.5280 C   0  0  0  0  0  2  0  0  0  0  0  0
  190.0640  173.0660  142.4990 C   0  0  1  0  0  3  0  0  0  0  0  0
  189.1730  171.6970  140.7890 O   0  0  0  0  0  0  0  0  0  0  0  0
  192.7710  176.4890  146.8890 C   0  0  0  0  0  2  0  0  0  0  0  0
  189.5270  176.6370  145.1330 C   0  0  0  0  0  3  0  0  0  0  0  0
  190.7920  173.0510  138.6350 O   0  0  0  0  0  0  0  0  0  0  0  0
  192.1810  175.5970  144.5420 C   0  0  2  0  0  3  0  0  0  0  0  0
  192.2920  171.5620  139.8880 O   0  0  0  0  0  0  0  0  0  0  0  0
  194.3570  174.8660  145.8530 C   0  0  0  0  0  2  0  0  0  0  0  0
  191.2580  173.9920  142.8340 C   0  0  1  0  0  0  0  0  0  0  0  0
  190.0940  172.4250  141.1310 C   0  0  0  0  0  0  0  0  0  0  0  0
  193.3840  173.5080  144.0830 C   0  0  0  0  0  3  0  0  0  0  0  0
  190.5320  176.9950  145.9420 C   0  0  0  0  0  3  0  0  0  0  0  0
  192.3230  174.1650  140.5240 C   0  0  0  0  0  2  0  0  0  0  0  0
  191.3840  172.7550  139.9830 S   0  0  0  0  0  0  0  0  0  0  0  0
  191.5900  174.9040  141.6360 C   0  0  0  0  0  2  0  0  0  0  0  0
  189.8460  172.0120  143.5790 C   0  0  0  0  0  1  0  0  0  0  0  0
  189.7840  175.9060  143.8450 C   0  0  2  0  0  3  0  0  0  0  0  0
  192.4020  173.1720  143.1390 O   0  0  0  0  0  0  0  0  0  0  0  0
  188.6000  175.2860  143.4300 O   0  0  0  0  0  0  0  0  0  0  0  0
  188.1250  176.0550  142.3640 C   0  0  2  0  0  3  0  0  0  0  0  0
  188.9210  177.3430  142.2850 C   0  0  0  0  0  1  0  0  0  0  0  0
  186.7180  176.3640  142.5680 N   0  0  0  0  0  2  0  0  0  0  0  0
  186.6420  177.7680  142.9350 C   0  0  0  0  0  2  0  0  0  0  0  0
  185.5650  180.2490  143.8880 F   0  0  0  0  0  0  0  0  0  0  0  0
  185.9650  177.9130  144.2560 C   0  0  0  0  0  0  0  0  0  0  0  0
  185.4500  179.1500  144.6750 C   0  0  0  0  0  0  0  0  0  0  0  0
  184.6850  178.1320  146.7380 C   0  0  0  0  0  3  0  0  0  0  0  0
  185.1970  176.9000  146.3220 C   0  0  0  0  0  3  0  0  0  0  0  0
  185.8360  176.7900  145.0830 C   0  0  0  0  0  3  0  0  0  0  0  0
  184.8130  179.2560  145.9160 C   0  0  0  0  0  3  0  0  0  0  0  0
  1 12  1  0  0  0  0
  2 16  1  1  0  0  0
  2  7  1  0  0  0  0
  3 10  1  0  0  0  0
  4  7  1  0  0  0  0
  5 13  1  0  0  0  0
  5 20  1  0  0  0  0
  6 14  2  0  0  0  0
  8 16  2  0  0  0  0
  9 18  2  0  0  0  0
 10  1  1  0  0  0  0
 10  2  1  0  0  0  0
 11 18  2  0  0  0  0
 12  4  1  0  0  0  0
 13 22  1  0  0  0  0
 13  3  1  0  0  0  0
 14  5  1  0  0  0  0
 15  1  2  0  0  0  0
 17 19  1  0  0  0  0
 18 17  1  0  0  0  0
 18 14  1  0  0  0  0
 19 13  1  0  0  0  0
 21  3  1  0  0  0  0
 21  8  1  0  0  0  0
 22 15  1  0  0  0  0
 23 21  1  0  0  0  0
 24 26  1  0  0  0  0
 24 23  1  0  0  0  0
 25 24  1  0  0  0  0
 26 27  1  0  0  0  0
 27 29  1  0  0  0  0
 28 30  1  0  0  0  0
 29 30  2  0  0  0  0
 29 33  1  0  0  0  0
 30 34  1  0  0  0  0
 32 31  1  0  0  0  0
 33 32  2  0  0  0  0
 34 31  2  0  0  0  0
M  END
>  <MODEL>
7

>  <REMARK>
 VINA RESULT:      -8.1      2.646      6.732
  Name = 
  5 active torsions:
  status: ('A' for Active; 'I' for Inactive)
    1  A    between atoms: C_3  and  C_13
    2  A    between atoms: C_3  and  N_17
    3  A    between atoms: O_5  and  C_18
    4  A    between atoms: O_5  and  C_31
    5  A    between atoms: N_17  and  C_18
                            x       y       z     vdW  Elec       q    Type
                         _______ _______ _______ _____ _____    ______ ____

>  <TORSDO>
F 5

$$$$
=
 OpenBabel11052418583D

 34 38  0  0  1  0  0  0  0  0999 V2000
  194.2650  175.0000  142.5080 C   0  0  0  0  0  0  0  0  0  0  0  0
  194.3850  176.5950  144.5600 C   0  0  1  0  0  3  0  0  0  0  0  0
  192.5580  174.7270  144.3520 C   0  0  2  0  0  3  0  0  0  0  0  0
  196.1950  176.5840  142.8710 C   0  0  0  0  0  2  0  0  0  0  0  0
  190.8040  172.9380  143.9470 C   0  0  1  0  0  3  0  0  0  0  0  0
  188.8970  171.5750  143.6380 O   0  0  0  0  0  0  0  0  0  0  0  0
  195.8860  176.4510  144.3510 C   0  0  0  0  0  2  0  0  0  0  0  0
  192.8930  175.9880  146.4610 C   0  0  0  0  0  3  0  0  0  0  0  0
  187.6420  173.4910  141.6770 O   0  0  0  0  0  0  0  0  0  0  0  0
  193.5280  175.6850  143.6370 C   0  0  2  0  0  3  0  0  0  0  0  0
  189.4440  172.2900  140.5170 O   0  0  0  0  0  0  0  0  0  0  0  0
  195.6660  175.3730  142.1120 C   0  0  0  0  0  2  0  0  0  0  0  0
  191.6130  174.0860  143.2950 C   0  0  1  0  0  0  0  0  0  0  0  0
  189.5950  172.4650  143.1750 C   0  0  0  0  0  0  0  0  0  0  0  0
  193.6680  174.0060  141.8520 C   0  0  0  0  0  3  0  0  0  0  0  0
  194.0520  176.4940  146.0250 C   0  0  0  0  0  3  0  0  0  0  0  0
  189.9930  174.7450  141.4390 C   0  0  0  0  0  2  0  0  0  0  0  0
  189.1180  173.2110  141.6570 S   0  0  0  0  0  0  0  0  0  0  0  0
  190.6650  175.1680  142.7400 C   0  0  0  0  0  2  0  0  0  0  0  0
  191.6980  171.7590  144.3170 C   0  0  0  0  0  1  0  0  0  0  0  0
  191.8550  175.4750  145.5030 C   0  0  2  0  0  3  0  0  0  0  0  0
  192.3960  173.5410  142.2170 O   0  0  0  0  0  0  0  0  0  0  0  0
  190.9750  174.6320  146.1920 O   0  0  0  0  0  0  0  0  0  0  0  0
  190.0220  175.4740  146.7720 C   0  0  2  0  0  3  0  0  0  0  0  0
  189.0440  174.6400  147.5770 C   0  0  0  0  0  1  0  0  0  0  0  0
  189.3050  176.1970  145.7330 N   0  0  0  0  0  2  0  0  0  0  0  0
  187.9130  176.2630  146.1470 C   0  0  0  0  0  2  0  0  0  0  0  0
  185.0580  176.5020  146.2530 F   0  0  0  0  0  0  0  0  0  0  0  0
  187.1170  177.0170  145.1360 C   0  0  0  0  0  0  0  0  0  0  0  0
  185.7190  177.1080  145.2350 C   0  0  0  0  0  0  0  0  0  0  0  0
  185.6640  178.4590  143.2240 C   0  0  0  0  0  3  0  0  0  0  0  0
  187.0560  178.3700  143.1240 C   0  0  0  0  0  3  0  0  0  0  0  0
  187.7810  177.6500  144.0780 C   0  0  0  0  0  3  0  0  0  0  0  0
  184.9970  177.8280  144.2780 C   0  0  0  0  0  3  0  0  0  0  0  0
  1 10  1  0  0  0  0
  2  7  1  1  0  0  0
  2 16  1  0  0  0  0
  3 21  1  0  0  0  0
  4  7  1  0  0  0  0
  5 20  1  0  0  0  0
 10  3  1  0  0  0  0
 10  2  1  0  0  0  0
 11 18  2  0  0  0  0
 12  1  1  0  0  0  0
 12  4  1  0  0  0  0
 13  5  1  0  0  0  0
 13  3  1  0  0  0  0
 14  6  2  0  0  0  0
 14  5  1  0  0  0  0
 15 22  1  0  0  0  0
 15  1  2  0  0  0  0
 16  8  2  0  0  0  0
 17 18  1  0  0  0  0
 17 19  1  0  0  0  0
 18  9  2  0  0  0  0
 18 14  1  0  0  0  0
 19 13  1  0  0  0  0
 21 23  1  0  0  0  0
 21  8  1  0  0  0  0
 22 13  1  0  0  0  0
 23 24  1  0  0  0  0
 24 25  1  0  0  0  0
 26 27  1  0  0  0  0
 26 24  1  0  0  0  0
 29 30  1  0  0  0  0
 29 27  1  0  0  0  0
 30 28  1  0  0  0  0
 31 34  1  0  0  0  0
 32 31  2  0  0  0  0
 32 33  1  0  0  0  0
 33 29  2  0  0  0  0
 34 30  2  0  0  0  0
M  END
>  <MODEL>
8

>  <REMARK>
 VINA RESULT:      -8.1      2.599      6.710
  Name = 
  5 active torsions:
  status: ('A' for Active; 'I' for Inactive)
    1  A    between atoms: C_3  and  C_13
    2  A    between atoms: C_3  and  N_17
    3  A    between atoms: O_5  and  C_18
    4  A    between atoms: O_5  and  C_31
    5  A    between atoms: N_17  and  C_18
                            x       y       z     vdW  Elec       q    Type
                         _______ _______ _______ _____ _____    ______ ____

>  <TORSDO>
F 5

$$$$
=
 OpenBabel11052418583D

 34 38  0  0  1  0  0  0  0  0999 V2000
  188.0340  177.9190  146.8890 C   0  0  0  0  0  0  0  0  0  0  0  0
  185.9690  178.1060  145.3180 C   0  0  1  0  0  3  0  0  0  0  0  0
  187.9850  176.5160  144.7860 C   0  0  2  0  0  3  0  0  0  0  0  0
  185.9590  179.1970  147.5400 C   0  0  0  0  0  2  0  0  0  0  0  0
  190.0550  175.1080  144.3760 C   0  0  1  0  0  3  0  0  0  0  0  0
  191.9950  173.9850  143.6250 O   0  0  0  0  0  0  0  0  0  0  0  0
  185.2130  178.2360  146.6320 C   0  0  0  0  0  2  0  0  0  0  0  0
  185.8730  176.4140  143.4900 C   0  0  0  0  0  3  0  0  0  0  0  0
  193.3720  176.5470  142.8320 O   0  0  0  0  0  0  0  0  0  0  0  0
  187.4810  177.7920  145.4870 C   0  0  2  0  0  3  0  0  0  0  0  0
  193.4690  176.3600  145.2790 O   0  0  0  0  0  0  0  0  0  0  0  0
  187.2690  178.5710  148.0050 C   0  0  0  0  0  2  0  0  0  0  0  0
  189.5390  176.4910  144.8430 C   0  0  1  0  0  0  0  0  0  0  0  0
  191.5210  175.0390  144.0200 C   0  0  0  0  0  0  0  0  0  0  0  0
  189.2350  177.4100  147.1610 C   0  0  0  0  0  3  0  0  0  0  0  0
  185.2360  177.1770  144.3850 C   0  0  0  0  0  3  0  0  0  0  0  0
  191.5590  177.9240  144.2360 C   0  0  0  0  0  2  0  0  0  0  0  0
  192.5570  176.4590  144.0900 S   0  0  0  0  0  0  0  0  0  0  0  0
  190.0980  177.6100  143.9410 C   0  0  0  0  0  2  0  0  0  0  0  0
  189.6920  174.0070  145.3670 C   0  0  0  0  0  1  0  0  0  0  0  0
  187.3710  176.4320  143.3740 C   0  0  2  0  0  3  0  0  0  0  0  0
  189.9760  176.7100  146.1970 O   0  0  0  0  0  0  0  0  0  0  0  0
  187.7900  175.2740  142.7090 O   0  0  0  0  0  0  0  0  0  0  0  0
  188.3360  175.7110  141.4990 C   0  0  2  0  0  3  0  0  0  0  0  0
  187.3780  176.6860  140.8430 C   0  0  0  0  0  1  0  0  0  0  0  0
  188.5540  174.5750  140.6160 N   0  0  0  0  0  2  0  0  0  0  0  0
  188.2770  173.3770  141.3920 C   0  0  0  0  0  2  0  0  0  0  0  0
  188.8410  171.5310  143.5120 F   0  0  0  0  0  0  0  0  0  0  0  0
  189.4780  172.4930  141.4090 C   0  0  0  0  0  0  0  0  0  0  0  0
  189.7070  171.6020  142.4700 C   0  0  0  0  0  0  0  0  0  0  0  0
  191.7380  170.8390  141.3900 C   0  0  0  0  0  3  0  0  0  0  0  0
  191.5120  171.7250  140.3330 C   0  0  0  0  0  3  0  0  0  0  0  0
  190.3840  172.5510  140.3430 C   0  0  0  0  0  3  0  0  0  0  0  0
  190.8370  170.7780  142.4570 C   0  0  0  0  0  3  0  0  0  0  0  0
  1 15  2  0  0  0  0
  1 12  1  0  0  0  0
  2 16  1  6  0  0  0
  2 10  1  0  0  0  0
  2  7  1  0  0  0  0
  3 13  1  0  0  0  0
  3 10  1  0  0  0  0
  4 12  1  0  0  0  0
  5 13  1  0  0  0  0
  5 20  1  0  0  0  0
  6 14  2  0  0  0  0
  7  4  1  0  0  0  0
  8 16  2  0  0  0  0
  9 18  2  0  0  0  0
 10  1  1  0  0  0  0
 13 22  1  0  0  0  0
 14 18  1  0  0  0  0
 14  5  1  0  0  0  0
 18 17  1  0  0  0  0
 18 11  2  0  0  0  0
 19 17  1  0  0  0  0
 19 13  1  0  0  0  0
 21  8  1  0  0  0  0
 21  3  1  0  0  0  0
 22 15  1  0  0  0  0
 23 21  1  0  0  0  0
 24 23  1  0  0  0  0
 25 24  1  0  0  0  0
 26 27  1  0  0  0  0
 26 24  1  0  0  0  0
 27 29  1  0  0  0  0
 29 30  1  0  0  0  0
 30 28  1  0  0  0  0
 31 34  1  0  0  0  0
 32 33  1  0  0  0  0
 32 31  2  0  0  0  0
 33 29  2  0  0  0  0
 34 30  2  0  0  0  0
M  END
>  <MODEL>
9

>  <REMARK>
 VINA RESULT:      -8.1      2.930      5.055
  Name = 
  5 active torsions:
  status: ('A' for Active; 'I' for Inactive)
    1  A    between atoms: C_3  and  C_13
    2  A    between atoms: C_3  and  N_17
    3  A    between atoms: O_5  and  C_18
    4  A    between atoms: O_5  and  C_31
    5  A    between atoms: N_17  and  C_18
                            x       y       z     vdW  Elec       q    Type
                         _______ _______ _______ _____ _____    ______ ____

>  <TORSDO>
F 5

$$$$
