=
 OpenBabel11052419163D

 32 37  0  0  1  0  0  0  0  0999 V2000
  189.6140  175.7620  144.7300 C   0  0  0  0  0  0  0  0  0  0  0  0
  187.3580  176.6370  144.2920 C   0  0  0  0  0  0  0  0  0  0  0  0
  190.5660  175.3150  145.6590 C   0  0  0  0  0  3  0  0  0  0  0  0
  188.3280  176.1300  145.1840 C   0  0  0  0  0  0  0  0  0  0  0  0
  186.1070  177.0740  144.7880 C   0  0  0  0  0  0  0  0  0  0  0  0
  184.8500  178.6890  140.4270 N   0  0  0  0  0  2  0  0  0  0  0  0
  187.6030  176.7000  142.9050 C   0  0  0  0  0  0  0  0  0  0  0  0
  184.3210  178.2150  141.7050 C   0  0  0  0  0  2  0  0  0  0  0  0
  185.4170  177.7060  142.6000 C   0  0  0  0  0  0  0  0  0  0  0  0
  188.0130  176.0140  146.5580 C   0  0  0  0  0  0  0  0  0  0  0  0
  185.1850  177.5940  143.9330 N   0  0  0  0  0  0  0  0  0  0  0  0
  186.7610  176.4140  147.0290 C   0  0  0  0  0  3  0  0  0  0  0  0
  188.9680  175.5350  147.4600 C   0  0  0  0  0  3  0  0  0  0  0  0
  188.8330  176.0480  142.3310 C   0  0  0  0  0  2  0  0  0  0  0  0
  190.0240  176.0390  143.3030 C   0  0  2  0  0  3  0  0  0  0  0  0
  186.6200  177.2230  142.0490 C   0  0  0  0  0  0  0  0  0  0  0  0
  185.8100  176.9460  146.1560 C   0  0  0  0  0  0  0  0  0  0  0  0
  190.2420  175.1850  147.0100 C   0  0  0  0  0  3  0  0  0  0  0  0
  185.5740  177.5890  139.7970 C   0  0  0  0  0  2  0  0  0  0  0  0
  186.8670  177.3240  140.5630 C   0  0  0  0  0  2  0  0  0  0  0  0
  184.4910  177.3850  146.7030 C   0  0  0  0  0  2  0  0  0  0  0  0
  184.6540  178.5570  147.4410 O   0  0  0  0  0  1  0  0  0  0  0  0
  191.1210  175.1610  142.8590 N   0  0  0  0  0  0  0  0  0  0  0  0
  192.3490  175.9520  142.6610 C   0  0  1  0  0  3  0  0  0  0  0  0
  192.0950  177.4360  142.8650 C   0  0  0  0  0  1  0  0  0  0  0  0
  193.5970  175.4400  143.4100 C   0  0  0  0  0  2  0  0  0  0  0  0
  194.0420  176.3570  144.5390 C   0  0  0  0  0  1  0  0  0  0  0  0
  190.7390  174.3570  141.6910 C   0  0  0  0  0  2  0  0  0  0  0  0
  191.2630  172.9390  141.8370 C   0  0  0  0  0  2  0  0  0  0  0  0
  190.5480  170.6050  142.0630 C   0  0  0  0  0  2  0  0  0  0  0  0
  189.7040  171.4380  142.8180 O   0  0  0  0  0  0  0  0  0  0  0  0
  190.1490  171.9450  141.5830 C   0  0  1  0  0  3  0  0  0  0  0  0
  1  4  2  0  0  0  0
  1  3  1  0  0  0  0
  2  5  1  0  0  0  0
  2  4  1  0  0  0  0
  3 18  2  0  0  0  0
  4 10  1  0  0  0  0
  5 17  1  0  0  0  0
  6  8  1  0  0  0  0
  7  2  2  0  0  0  0
  8  9  1  0  0  0  0
  9 11  1  0  0  0  0
 10 12  1  0  0  0  0
 10 13  2  0  0  0  0
 11  5  2  0  0  0  0
 14  7  1  0  0  0  0
 14 15  1  0  0  0  0
 15 23  1  6  0  0  0
 15  1  1  0  0  0  0
 16  9  2  0  0  0  0
 16  7  1  0  0  0  0
 17 21  1  0  0  0  0
 17 12  2  0  0  0  0
 18 13  1  0  0  0  0
 19  6  1  0  0  0  0
 19 20  1  0  0  0  0
 20 16  1  0  0  0  0
 21 22  1  0  0  0  0
 24 23  1  0  0  0  0
 24 25  1  1  0  0  0
 24 26  1  0  0  0  0
 26 27  1  0  0  0  0
 28 29  1  0  0  0  0
 28 23  1  0  0  0  0
 30 31  1  0  0  0  0
 32 29  1  1  0  0  0
 32 30  1  0  0  0  0
 32 31  1  0  0  0  0
M  END
>  <MODEL>
1

>  <REMARK>
 VINA RESULT:      -7.3      0.000      0.000
  Name = 
  7 active torsions:
  status: ('A' for Active; 'I' for Inactive)
    1  A    between atoms: C_3  and  C_22
    2  A    between atoms: C_13  and  C_29
    3  A    between atoms: C_15  and  C_20
    4  A    between atoms: C_15  and  C_26
    5  A    between atoms: N_16  and  C_20
    6  A    between atoms: N_16  and  C_22
    7  A    between atoms: N_16  and  C_27
                            x       y       z     vdW  Elec       q    Type
                         _______ _______ _______ _____ _____    ______ ____

>  <TORSDO>
F 7

$$$$
=
 OpenBabel11052419163D

 32 37  0  0  1  0  0  0  0  0999 V2000
  189.1540  176.8430  145.6580 C   0  0  0  0  0  0  0  0  0  0  0  0
  190.3320  175.0490  144.4560 C   0  0  0  0  0  0  0  0  0  0  0  0
  189.0670  177.6720  146.7870 C   0  0  0  0  0  3  0  0  0  0  0  0
  190.2350  175.9400  145.5470 C   0  0  0  0  0  0  0  0  0  0  0  0
  191.3810  174.1010  144.4140 C   0  0  0  0  0  0  0  0  0  0  0  0
  189.5020  172.0790  140.4650 N   0  0  0  0  0  2  0  0  0  0  0  0
  189.4110  175.0990  143.3900 C   0  0  0  0  0  0  0  0  0  0  0  0
  190.7440  172.2710  141.2130 C   0  0  0  0  0  2  0  0  0  0  0  0
  190.5520  173.2200  142.3640 C   0  0  0  0  0  0  0  0  0  0  0  0
  191.2240  175.9080  146.5590 C   0  0  0  0  0  0  0  0  0  0  0  0
  191.4540  173.2210  143.3780 N   0  0  0  0  0  0  0  0  0  0  0  0
  192.2750  174.9920  146.4860 C   0  0  0  0  0  3  0  0  0  0  0  0
  191.1330  176.7660  147.6580 C   0  0  0  0  0  3  0  0  0  0  0  0
  188.4200  176.2290  143.3060 C   0  0  0  0  0  2  0  0  0  0  0  0
  188.0030  176.7730  144.6820 C   0  0  2  0  0  3  0  0  0  0  0  0
  189.5290  174.1880  142.3270 C   0  0  0  0  0  0  0  0  0  0  0  0
  192.3570  174.0880  145.4250 C   0  0  0  0  0  0  0  0  0  0  0  0
  190.0560  177.6470  147.7710 C   0  0  0  0  0  3  0  0  0  0  0  0
  189.0450  173.3850  139.9990 C   0  0  0  0  0  2  0  0  0  0  0  0
  188.5420  174.2030  141.1850 C   0  0  0  0  0  2  0  0  0  0  0  0
  193.4840  173.1070  145.3950 C   0  0  0  0  0  2  0  0  0  0  0  0
  194.6520  173.7430  144.9760 O   0  0  0  0  0  1  0  0  0  0  0  0
  187.2690  178.0470  144.5970 N   0  0  0  0  0  0  0  0  0  0  0  0
  185.9550  177.9150  145.2520 C   0  0  1  0  0  3  0  0  0  0  0  0
  185.7290  176.5040  145.7670 C   0  0  0  0  0  1  0  0  0  0  0  0
  185.6180  179.0030  146.2930 C   0  0  0  0  0  2  0  0  0  0  0  0
  185.6450  178.4950  147.7270 C   0  0  0  0  0  1  0  0  0  0  0  0
  187.1960  178.5460  143.2180 C   0  0  0  0  0  2  0  0  0  0  0  0
  185.7460  178.7070  142.7940 C   0  0  0  0  0  2  0  0  0  0  0  0
  184.4390  178.3370  140.7540 C   0  0  0  0  0  2  0  0  0  0  0  0
  185.8120  178.2990  140.4540 O   0  0  0  0  0  0  0  0  0  0  0  0
  185.4190  177.7330  141.6810 C   0  0  1  0  0  3  0  0  0  0  0  0
  1  3  1  0  0  0  0
  2  4  1  0  0  0  0
  3 18  2  0  0  0  0
  4  1  2  0  0  0  0
  4 10  1  0  0  0  0
  5  2  1  0  0  0  0
  5 17  1  0  0  0  0
  6  8  1  0  0  0  0
  7  2  2  0  0  0  0
  8  9  1  0  0  0  0
  9 11  1  0  0  0  0
 10 13  2  0  0  0  0
 11  5  2  0  0  0  0
 12 10  1  0  0  0  0
 13 18  1  0  0  0  0
 14  7  1  0  0  0  0
 14 15  1  0  0  0  0
 15 23  1  6  0  0  0
 15  1  1  0  0  0  0
 16  9  2  0  0  0  0
 16  7  1  0  0  0  0
 17 12  2  0  0  0  0
 19  6  1  0  0  0  0
 19 20  1  0  0  0  0
 20 16  1  0  0  0  0
 21 17  1  0  0  0  0
 22 21  1  0  0  0  0
 23 24  1  0  0  0  0
 24 25  1  1  0  0  0
 24 26  1  0  0  0  0
 26 27  1  0  0  0  0
 28 23  1  0  0  0  0
 29 28  1  0  0  0  0
 30 32  1  0  0  0  0
 31 30  1  0  0  0  0
 31 32  1  0  0  0  0
 32 29  1  1  0  0  0
M  END
>  <MODEL>
2

>  <REMARK>
 VINA RESULT:      -7.0      2.451      6.470
  Name = 
  7 active torsions:
  status: ('A' for Active; 'I' for Inactive)
    1  A    between atoms: C_3  and  C_22
    2  A    between atoms: C_13  and  C_29
    3  A    between atoms: C_15  and  C_20
    4  A    between atoms: C_15  and  C_26
    5  A    between atoms: N_16  and  C_20
    6  A    between atoms: N_16  and  C_22
    7  A    between atoms: N_16  and  C_27
                            x       y       z     vdW  Elec       q    Type
                         _______ _______ _______ _____ _____    ______ ____

>  <TORSDO>
F 7

$$$$
=
 OpenBabel11052419163D

 32 37  0  0  1  0  0  0  0  0999 V2000
  190.2150  176.6850  145.0000 C   0  0  0  0  0  0  0  0  0  0  0  0
  187.9520  177.4410  144.4030 C   0  0  0  0  0  0  0  0  0  0  0  0
  191.1830  176.4690  145.9930 C   0  0  0  0  0  3  0  0  0  0  0  0
  188.9380  177.1580  145.3740 C   0  0  0  0  0  0  0  0  0  0  0  0
  186.7110  177.9910  144.8020 C   0  0  0  0  0  0  0  0  0  0  0  0
  185.3780  178.5190  140.2020 N   0  0  0  0  0  2  0  0  0  0  0  0
  188.1730  177.1680  143.0380 C   0  0  0  0  0  0  0  0  0  0  0  0
  184.8710  178.3680  141.5660 C   0  0  0  0  0  2  0  0  0  0  0  0
  185.9830  178.0830  142.5370 C   0  0  0  0  0  0  0  0  0  0  0  0
  188.6470  177.3760  146.7420 C   0  0  0  0  0  0  0  0  0  0  0  0
  185.7740  178.2950  143.8620 N   0  0  0  0  0  0  0  0  0  0  0  0
  187.4040  177.8840  147.1240 C   0  0  0  0  0  3  0  0  0  0  0  0
  189.6170  177.1230  147.7150 C   0  0  0  0  0  3  0  0  0  0  0  0
  189.3920  176.3910  142.6160 C   0  0  0  0  0  2  0  0  0  0  0  0
  190.6000  176.6100  143.5420 C   0  0  2  0  0  3  0  0  0  0  0  0
  187.1760  177.4750  142.0980 C   0  0  0  0  0  0  0  0  0  0  0  0
  186.4380  178.1960  146.1650 C   0  0  0  0  0  0  0  0  0  0  0  0
  190.8830  176.6680  147.3410 C   0  0  0  0  0  3  0  0  0  0  0  0
  186.0890  177.2960  139.8420 C   0  0  0  0  0  2  0  0  0  0  0  0
  187.3960  177.2160  140.6270 C   0  0  0  0  0  2  0  0  0  0  0  0
  185.1290  178.7600  146.6130 C   0  0  0  0  0  2  0  0  0  0  0  0
  184.1950  177.7330  146.7460 O   0  0  0  0  0  1  0  0  0  0  0  0
  191.6880  175.6450  143.3020 N   0  0  0  0  0  0  0  0  0  0  0  0
  192.9110  176.3590  142.8930 C   0  0  1  0  0  3  0  0  0  0  0  0
  193.9350  176.3970  144.0140 C   0  0  0  0  0  1  0  0  0  0  0  0
  193.5100  175.9290  141.5370 C   0  0  0  0  0  2  0  0  0  0  0  0
  194.9560  176.3630  141.3520 C   0  0  0  0  0  1  0  0  0  0  0  0
  191.2820  174.5820  142.3740 C   0  0  0  0  0  2  0  0  0  0  0  0
  191.2280  173.2470  143.0960 C   0  0  0  0  0  2  0  0  0  0  0  0
  189.3390  171.7790  143.6290 C   0  0  0  0  0  2  0  0  0  0  0  0
  190.0490  172.0880  144.8030 O   0  0  0  0  0  0  0  0  0  0  0  0
  189.9220  173.1190  143.8530 C   0  0  1  0  0  3  0  0  0  0  0  0
  1  4  2  0  0  0  0
  1  3  1  0  0  0  0
  2  5  1  0  0  0  0
  2  4  1  0  0  0  0
  3 18  2  0  0  0  0
  4 10  1  0  0  0  0
  5 17  1  0  0  0  0
  6  8  1  0  0  0  0
  7  2  2  0  0  0  0
  8  9  1  0  0  0  0
  9 11  1  0  0  0  0
 10 12  1  0  0  0  0
 10 13  2  0  0  0  0
 11  5  2  0  0  0  0
 14  7  1  0  0  0  0
 14 15  1  0  0  0  0
 15 23  1  1  0  0  0
 15  1  1  0  0  0  0
 16  9  2  0  0  0  0
 16  7  1  0  0  0  0
 17 21  1  0  0  0  0
 17 12  2  0  0  0  0
 18 13  1  0  0  0  0
 19  6  1  0  0  0  0
 19 20  1  0  0  0  0
 20 16  1  0  0  0  0
 21 22  1  0  0  0  0
 24 23  1  0  0  0  0
 24 25  1  1  0  0  0
 26 24  1  0  0  0  0
 27 26  1  0  0  0  0
 28 29  1  0  0  0  0
 28 23  1  0  0  0  0
 30 32  1  0  0  0  0
 30 31  1  0  0  0  0
 32 29  1  6  0  0  0
 32 31  1  0  0  0  0
M  END
>  <MODEL>
3

>  <REMARK>
 VINA RESULT:      -6.6      1.331      1.463
  Name = 
  7 active torsions:
  status: ('A' for Active; 'I' for Inactive)
    1  A    between atoms: C_3  and  C_22
    2  A    between atoms: C_13  and  C_29
    3  A    between atoms: C_15  and  C_20
    4  A    between atoms: C_15  and  C_26
    5  A    between atoms: N_16  and  C_20
    6  A    between atoms: N_16  and  C_22
    7  A    between atoms: N_16  and  C_27
                            x       y       z     vdW  Elec       q    Type
                         _______ _______ _______ _____ _____    ______ ____

>  <TORSDO>
F 7

$$$$
=
 OpenBabel11052419163D

 32 37  0  0  1  0  0  0  0  0999 V2000
  190.9270  175.4890  145.2180 C   0  0  0  0  0  0  0  0  0  0  0  0
  189.3620  175.3590  143.3240 C   0  0  0  0  0  0  0  0  0  0  0  0
  191.2100  175.9650  146.5070 C   0  0  0  0  0  3  0  0  0  0  0  0
  189.6690  175.7700  144.6400 C   0  0  0  0  0  0  0  0  0  0  0  0
  188.1250  175.7260  142.7440 C   0  0  0  0  0  0  0  0  0  0  0  0
  189.4600  173.8370  138.5170 N   0  0  0  0  0  2  0  0  0  0  0  0
  190.2600  174.5670  142.5800 C   0  0  0  0  0  0  0  0  0  0  0  0
  188.3000  174.1940  139.3350 C   0  0  0  0  0  2  0  0  0  0  0  0
  188.7140  174.6340  140.7120 C   0  0  0  0  0  0  0  0  0  0  0  0
  188.7080  176.4990  145.3800 C   0  0  0  0  0  0  0  0  0  0  0  0
  187.8450  175.3570  141.4640 N   0  0  0  0  0  0  0  0  0  0  0  0
  187.4770  176.8230  144.8080 C   0  0  0  0  0  3  0  0  0  0  0  0
  189.0020  176.9350  146.6760 C   0  0  0  0  0  3  0  0  0  0  0  0
  191.4790  173.9880  143.2460 C   0  0  0  0  0  2  0  0  0  0  0  0
  192.0220  174.8650  144.3860 C   0  0  2  0  0  3  0  0  0  0  0  0
  189.9280  174.1870  141.2690 C   0  0  0  0  0  0  0  0  0  0  0  0
  187.1820  176.4450  143.4960 C   0  0  0  0  0  0  0  0  0  0  0  0
  190.2510  176.6660  147.2380 C   0  0  0  0  0  3  0  0  0  0  0  0
  190.1950  172.7820  139.2070 C   0  0  0  0  0  2  0  0  0  0  0  0
  190.8820  173.3610  140.4410 C   0  0  0  0  0  2  0  0  0  0  0  0
  185.8620  176.8320  142.9110 C   0  0  0  0  0  2  0  0  0  0  0  0
  185.0910  177.4800  143.8760 O   0  0  0  0  0  1  0  0  0  0  0  0
  193.0250  174.1740  145.2140 N   0  0  0  0  0  0  0  0  0  0  0  0
  194.3340  174.8380  145.0780 C   0  0  1  0  0  3  0  0  0  0  0  0
  194.4580  175.5580  143.7460 C   0  0  0  0  0  1  0  0  0  0  0  0
  194.7680  175.7040  146.2800 C   0  0  0  0  0  2  0  0  0  0  0  0
  194.5700  177.1950  146.0510 C   0  0  0  0  0  1  0  0  0  0  0  0
  193.0610  172.7320  144.9410 C   0  0  0  0  0  2  0  0  0  0  0  0
  194.2320  172.0890  145.6620 C   0  0  0  0  0  2  0  0  0  0  0  0
  195.1520  169.8220  145.8040 C   0  0  0  0  0  2  0  0  0  0  0  0
  193.9070  169.7910  145.1540 O   0  0  0  0  0  0  0  0  0  0  0  0
  194.7350  170.8950  144.8780 C   0  0  1  0  0  3  0  0  0  0  0  0
  1  3  1  0  0  0  0
  2  4  1  0  0  0  0
  3 18  2  0  0  0  0
  4  1  2  0  0  0  0
  4 10  1  0  0  0  0
  5  2  1  0  0  0  0
  5 17  1  0  0  0  0
  6 19  1  0  0  0  0
  6  8  1  0  0  0  0
  7 14  1  0  0  0  0
  7  2  2  0  0  0  0
  8  9  1  0  0  0  0
  9 16  2  0  0  0  0
  9 11  1  0  0  0  0
 10 13  2  0  0  0  0
 11  5  2  0  0  0  0
 12 10  1  0  0  0  0
 13 18  1  0  0  0  0
 14 15  1  0  0  0  0
 15 23  1  1  0  0  0
 15  1  1  0  0  0  0
 16  7  1  0  0  0  0
 17 12  2  0  0  0  0
 19 20  1  0  0  0  0
 20 16  1  0  0  0  0
 21 17  1  0  0  0  0
 21 22  1  0  0  0  0
 24 25  1  6  0  0  0
 24 23  1  0  0  0  0
 24 26  1  0  0  0  0
 27 26  1  0  0  0  0
 28 23  1  0  0  0  0
 28 29  1  0  0  0  0
 31 30  1  0  0  0  0
 32 31  1  0  0  0  0
 32 29  1  1  0  0  0
 32 30  1  0  0  0  0
M  END
>  <MODEL>
4

>  <REMARK>
 VINA RESULT:      -6.5      2.664      4.000
  Name = 
  7 active torsions:
  status: ('A' for Active; 'I' for Inactive)
    1  A    between atoms: C_3  and  C_22
    2  A    between atoms: C_13  and  C_29
    3  A    between atoms: C_15  and  C_20
    4  A    between atoms: C_15  and  C_26
    5  A    between atoms: N_16  and  C_20
    6  A    between atoms: N_16  and  C_22
    7  A    between atoms: N_16  and  C_27
                            x       y       z     vdW  Elec       q    Type
                         _______ _______ _______ _____ _____    ______ ____

>  <TORSDO>
F 7

$$$$
=
 OpenBabel11052419163D

 32 37  0  0  1  0  0  0  0  0999 V2000
  191.0060  173.8760  143.7770 C   0  0  0  0  0  0  0  0  0  0  0  0
  189.4720  174.6930  142.0370 C   0  0  0  0  0  0  0  0  0  0  0  0
  191.9490  172.9230  144.1910 C   0  0  0  0  0  3  0  0  0  0  0  0
  190.4630  173.7880  142.4760 C   0  0  0  0  0  0  0  0  0  0  0  0
  188.8890  174.5300  140.7580 C   0  0  0  0  0  0  0  0  0  0  0  0
  185.7600  178.0850  141.6460 N   0  0  0  0  0  2  0  0  0  0  0  0
  189.0620  175.7740  142.8440 C   0  0  0  0  0  0  0  0  0  0  0  0
  186.4390  177.3520  140.5770 C   0  0  0  0  0  2  0  0  0  0  0  0
  187.4660  176.4030  141.1290 C   0  0  0  0  0  0  0  0  0  0  0  0
  190.9010  172.7620  141.6050 C   0  0  0  0  0  0  0  0  0  0  0  0
  187.9090  175.3820  140.3500 N   0  0  0  0  0  0  0  0  0  0  0  0
  190.3430  172.6360  140.3310 C   0  0  0  0  0  3  0  0  0  0  0  0
  191.8650  171.8440  142.0290 C   0  0  0  0  0  3  0  0  0  0  0  0
  189.8130  176.0920  144.1090 C   0  0  0  0  0  2  0  0  0  0  0  0
  190.4310  174.8530  144.7750 C   0  0  2  0  0  3  0  0  0  0  0  0
  188.0630  176.6460  142.3810 C   0  0  0  0  0  0  0  0  0  0  0  0
  189.3390  173.5090  139.9050 C   0  0  0  0  0  0  0  0  0  0  0  0
  192.3890  171.9250  143.3200 C   0  0  0  0  0  3  0  0  0  0  0  0
  186.7700  178.7970  142.4230 C   0  0  0  0  0  2  0  0  0  0  0  0
  187.5880  177.7970  143.2350 C   0  0  0  0  0  2  0  0  0  0  0  0
  188.7510  173.3250  138.5440 C   0  0  0  0  0  2  0  0  0  0  0  0
  189.5190  174.0100  137.6020 O   0  0  0  0  0  1  0  0  0  0  0  0
  191.3930  175.1920  145.8380 N   0  0  0  0  0  0  0  0  0  0  0  0
  190.6990  175.2750  147.1370 C   0  0  1  0  0  3  0  0  0  0  0  0
  190.7460  176.6820  147.7050 C   0  0  0  0  0  1  0  0  0  0  0  0
  189.2890  174.6480  147.1770 C   0  0  0  0  0  2  0  0  0  0  0  0
  188.1740  175.6800  147.2620 C   0  0  0  0  0  1  0  0  0  0  0  0
  192.1750  176.3900  145.5070 C   0  0  0  0  0  2  0  0  0  0  0  0
  193.6510  176.0430  145.4100 C   0  0  0  0  0  2  0  0  0  0  0  0
  195.5510  176.2530  143.8760 C   0  0  0  0  0  2  0  0  0  0  0  0
  194.9830  174.9720  143.7590 O   0  0  0  0  0  0  0  0  0  0  0  0
  194.0900  176.0410  143.9600 C   0  0  1  0  0  3  0  0  0  0  0  0
  1  3  1  0  0  0  0
  1 15  1  0  0  0  0
  2  4  1  0  0  0  0
  2  7  1  0  0  0  0
  4  1  2  0  0  0  0
  5  2  2  0  0  0  0
  6 19  1  0  0  0  0
  7 14  1  0  0  0  0
  8  9  1  0  0  0  0
  8  6  1  0  0  0  0
  9 16  1  0  0  0  0
 10 13  2  0  0  0  0
 10  4  1  0  0  0  0
 11  5  1  0  0  0  0
 11  9  2  0  0  0  0
 12 10  1  0  0  0  0
 13 18  1  0  0  0  0
 14 15  1  0  0  0  0
 15 23  1  1  0  0  0
 16  7  2  0  0  0  0
 16 20  1  0  0  0  0
 17 12  2  0  0  0  0
 17  5  1  0  0  0  0
 18  3  2  0  0  0  0
 19 20  1  0  0  0  0
 21 17  1  0  0  0  0
 22 21  1  0  0  0  0
 23 24  1  0  0  0  0
 24 26  1  0  0  0  0
 24 25  1  6  0  0  0
 26 27  1  0  0  0  0
 28 23  1  0  0  0  0
 29 28  1  0  0  0  0
 30 32  1  0  0  0  0
 31 30  1  0  0  0  0
 31 32  1  0  0  0  0
 32 29  1  1  0  0  0
M  END
>  <MODEL>
5

>  <REMARK>
 VINA RESULT:      -6.4      2.851      5.518
  Name = 
  7 active torsions:
  status: ('A' for Active; 'I' for Inactive)
    1  A    between atoms: C_3  and  C_22
    2  A    between atoms: C_13  and  C_29
    3  A    between atoms: C_15  and  C_20
    4  A    between atoms: C_15  and  C_26
    5  A    between atoms: N_16  and  C_20
    6  A    between atoms: N_16  and  C_22
    7  A    between atoms: N_16  and  C_27
                            x       y       z     vdW  Elec       q    Type
                         _______ _______ _______ _____ _____    ______ ____

>  <TORSDO>
F 7

$$$$
=
 OpenBabel11052419163D

 32 37  0  0  1  0  0  0  0  0999 V2000
  188.8390  174.8080  143.0770 C   0  0  0  0  0  0  0  0  0  0  0  0
  191.0530  173.9900  143.7690 C   0  0  0  0  0  0  0  0  0  0  0  0
  187.6350  174.5740  142.3950 C   0  0  0  0  0  3  0  0  0  0  0  0
  189.8050  173.7800  143.1420 C   0  0  0  0  0  0  0  0  0  0  0  0
  192.0320  172.9690  143.7480 C   0  0  0  0  0  0  0  0  0  0  0  0
  195.2470  175.8970  145.8210 N   0  0  0  0  0  2  0  0  0  0  0  0
  191.3380  175.1980  144.4390 C   0  0  0  0  0  0  0  0  0  0  0  0
  194.8900  174.4930  145.6190 C   0  0  0  0  0  2  0  0  0  0  0  0
  193.5590  174.3570  144.9340 C   0  0  0  0  0  0  0  0  0  0  0  0
  189.5310  172.5260  142.5470 C   0  0  0  0  0  0  0  0  0  0  0  0
  193.2460  173.1850  144.3240 N   0  0  0  0  0  0  0  0  0  0  0  0
  190.4920  171.5140  142.5650 C   0  0  0  0  0  3  0  0  0  0  0  0
  188.3110  172.3060  141.9020 C   0  0  0  0  0  3  0  0  0  0  0  0
  190.2450  176.2090  144.6590 C   0  0  0  0  0  2  0  0  0  0  0  0
  189.1790  176.2010  143.5520 C   0  0  2  0  0  3  0  0  0  0  0  0
  192.5940  175.3780  145.0410 C   0  0  0  0  0  0  0  0  0  0  0  0
  191.7390  171.7280  143.1570 C   0  0  0  0  0  0  0  0  0  0  0  0
  187.3640  173.3290  141.8270 C   0  0  0  0  0  3  0  0  0  0  0  0
  194.1870  176.5280  146.6030 C   0  0  0  0  0  2  0  0  0  0  0  0
  192.9350  176.6710  145.7420 C   0  0  0  0  0  2  0  0  0  0  0  0
  192.7500  170.6280  143.1350 C   0  0  0  0  0  2  0  0  0  0  0  0
  192.5930  169.8210  144.2610 O   0  0  0  0  0  1  0  0  0  0  0  0
  187.9770  176.9760  143.9070 N   0  0  0  0  0  0  0  0  0  0  0  0
  187.8960  178.1880  143.0710 C   0  0  1  0  0  3  0  0  0  0  0  0
  188.8490  178.1160  141.8920 C   0  0  0  0  0  1  0  0  0  0  0  0
  186.4710  178.6290  142.6770 C   0  0  0  0  0  2  0  0  0  0  0  0
  185.5550  177.4650  142.3290 C   0  0  0  0  0  1  0  0  0  0  0  0
  187.9040  177.2430  145.3490 C   0  0  0  0  0  2  0  0  0  0  0  0
  186.5080  176.9490  145.8680 C   0  0  0  0  0  2  0  0  0  0  0  0
  184.3720  177.9960  146.4570 C   0  0  0  0  0  2  0  0  0  0  0  0
  185.2610  178.0830  147.5420 O   0  0  0  0  0  0  0  0  0  0  0  0
  185.8160  178.2390  146.2590 C   0  0  1  0  0  3  0  0  0  0  0  0
  1  4  1  0  0  0  0
  1 15  1  0  0  0  0
  2  7  1  0  0  0  0
  3  1  2  0  0  0  0
  4  2  1  0  0  0  0
  5  2  2  0  0  0  0
  5 11  1  0  0  0  0
  6 19  1  0  0  0  0
  7 14  1  0  0  0  0
  7 16  2  0  0  0  0
  8  6  1  0  0  0  0
  9 16  1  0  0  0  0
  9  8  1  0  0  0  0
 10 12  1  0  0  0  0
 10  4  2  0  0  0  0
 11  9  2  0  0  0  0
 12 17  2  0  0  0  0
 13 10  1  0  0  0  0
 15 23  1  1  0  0  0
 15 14  1  0  0  0  0
 16 20  1  0  0  0  0
 17  5  1  0  0  0  0
 18 13  2  0  0  0  0
 18  3  1  0  0  0  0
 20 19  1  0  0  0  0
 21 17  1  0  0  0  0
 21 22  1  0  0  0  0
 23 28  1  0  0  0  0
 24 25  1  6  0  0  0
 24 23  1  0  0  0  0
 26 24  1  0  0  0  0
 27 26  1  0  0  0  0
 28 29  1  0  0  0  0
 30 31  1  0  0  0  0
 32 29  1  6  0  0  0
 32 30  1  0  0  0  0
 32 31  1  0  0  0  0
M  END
>  <MODEL>
6

>  <REMARK>
 VINA RESULT:      -6.3      2.075      7.694
  Name = 
  7 active torsions:
  status: ('A' for Active; 'I' for Inactive)
    1  A    between atoms: C_3  and  C_22
    2  A    between atoms: C_13  and  C_29
    3  A    between atoms: C_15  and  C_20
    4  A    between atoms: C_15  and  C_26
    5  A    between atoms: N_16  and  C_20
    6  A    between atoms: N_16  and  C_22
    7  A    between atoms: N_16  and  C_27
                            x       y       z     vdW  Elec       q    Type
                         _______ _______ _______ _____ _____    ______ ____

>  <TORSDO>
F 7

$$$$
=
 OpenBabel11052419163D

 32 37  0  0  1  0  0  0  0  0999 V2000
  189.0600  175.2860  142.9040 C   0  0  0  0  0  0  0  0  0  0  0  0
  187.2430  176.8010  143.5760 C   0  0  0  0  0  0  0  0  0  0  0  0
  189.6780  174.5300  141.8960 C   0  0  0  0  0  3  0  0  0  0  0  0
  187.9290  176.0680  142.5830 C   0  0  0  0  0  0  0  0  0  0  0  0
  186.0660  177.5100  143.2400 C   0  0  0  0  0  0  0  0  0  0  0  0
  185.3300  178.6400  147.8650 N   0  0  0  0  0  2  0  0  0  0  0  0
  187.7210  176.8570  144.9010 C   0  0  0  0  0  0  0  0  0  0  0  0
  185.0470  179.0550  146.4910 C   0  0  0  0  0  2  0  0  0  0  0  0
  185.8030  178.2180  145.4970 C   0  0  0  0  0  0  0  0  0  0  0  0
  187.4580  176.1000  141.2490 C   0  0  0  0  0  0  0  0  0  0  0  0
  185.3870  178.1870  144.2050 N   0  0  0  0  0  0  0  0  0  0  0  0
  186.3160  176.8340  140.9230 C   0  0  0  0  0  3  0  0  0  0  0  0
  188.1100  175.3640  140.2560 C   0  0  0  0  0  3  0  0  0  0  0  0
  189.0760  176.2920  145.2340 C   0  0  0  0  0  2  0  0  0  0  0  0
  189.4730  175.1030  144.3450 C   0  0  2  0  0  3  0  0  0  0  0  0
  187.0060  177.5840  145.8670 C   0  0  0  0  0  0  0  0  0  0  0  0
  185.6160  177.5340  141.9090 C   0  0  0  0  0  0  0  0  0  0  0  0
  189.2190  174.5810  140.5800 C   0  0  0  0  0  3  0  0  0  0  0  0
  186.7700  178.7390  148.0830 C   0  0  0  0  0  2  0  0  0  0  0  0
  187.4820  177.6400  147.2990 C   0  0  0  0  0  2  0  0  0  0  0  0
  184.3840  178.2880  141.5240 C   0  0  0  0  0  2  0  0  0  0  0  0
  184.2080  178.2280  140.1420 O   0  0  0  0  0  1  0  0  0  0  0  0
  190.8940  174.7390  144.4750 N   0  0  0  0  0  0  0  0  0  0  0  0
  191.0170  173.4010  145.0820 C   0  0  1  0  0  3  0  0  0  0  0  0
  189.7110  172.6300  145.0000 C   0  0  0  0  0  1  0  0  0  0  0  0
  192.2400  172.5750  144.6300 C   0  0  0  0  0  2  0  0  0  0  0  0
  192.1580  172.1210  143.1800 C   0  0  0  0  0  1  0  0  0  0  0  0
  191.6640  175.7780  145.1690 C   0  0  0  0  0  2  0  0  0  0  0  0
  192.6920  176.3860  144.2300 C   0  0  0  0  0  2  0  0  0  0  0  0
  194.7900  176.9360  145.3720 C   0  0  0  0  0  2  0  0  0  0  0  0
  194.1830  175.8320  145.9950 O   0  0  0  0  0  0  0  0  0  0  0  0
  194.0800  175.8990  144.5940 C   0  0  1  0  0  3  0  0  0  0  0  0
  1 15  1  0  0  0  0
  2  7  1  0  0  0  0
  3  1  2  0  0  0  0
  4  1  1  0  0  0  0
  4  2  1  0  0  0  0
  5  2  2  0  0  0  0
  5 11  1  0  0  0  0
  6 19  1  0  0  0  0
  7 14  1  0  0  0  0
  7 16  2  0  0  0  0
  8  6  1  0  0  0  0
  9 16  1  0  0  0  0
  9  8  1  0  0  0  0
 10  4  2  0  0  0  0
 11  9  2  0  0  0  0
 12 10  1  0  0  0  0
 12 17  2  0  0  0  0
 13 18  2  0  0  0  0
 13 10  1  0  0  0  0
 15 23  1  6  0  0  0
 15 14  1  0  0  0  0
 16 20  1  0  0  0  0
 17  5  1  0  0  0  0
 18  3  1  0  0  0  0
 20 19  1  0  0  0  0
 21 17  1  0  0  0  0
 22 21  1  0  0  0  0
 23 24  1  0  0  0  0
 23 28  1  0  0  0  0
 24 25  1  6  0  0  0
 26 24  1  0  0  0  0
 27 26  1  0  0  0  0
 29 28  1  0  0  0  0
 30 31  1  0  0  0  0
 32 29  1  1  0  0  0
 32 30  1  0  0  0  0
 32 31  1  0  0  0  0
M  END
>  <MODEL>
7

>  <REMARK>
 VINA RESULT:      -6.3      2.418      5.016
  Name = 
  7 active torsions:
  status: ('A' for Active; 'I' for Inactive)
    1  A    between atoms: C_3  and  C_22
    2  A    between atoms: C_13  and  C_29
    3  A    between atoms: C_15  and  C_20
    4  A    between atoms: C_15  and  C_26
    5  A    between atoms: N_16  and  C_20
    6  A    between atoms: N_16  and  C_22
    7  A    between atoms: N_16  and  C_27
                            x       y       z     vdW  Elec       q    Type
                         _______ _______ _______ _____ _____    ______ ____

>  <TORSDO>
F 7

$$$$
=
 OpenBabel11052419163D

 32 37  0  0  1  0  0  0  0  0999 V2000
  192.0270  175.2140  145.6330 C   0  0  0  0  0  0  0  0  0  0  0  0
  193.0880  173.2750  144.5550 C   0  0  0  0  0  0  0  0  0  0  0  0
  192.1580  176.3610  146.4320 C   0  0  0  0  0  3  0  0  0  0  0  0
  193.1800  174.4650  145.3090 C   0  0  0  0  0  0  0  0  0  0  0  0
  194.2490  172.5030  144.3150 C   0  0  0  0  0  0  0  0  0  0  0  0
  191.6180  169.0470  142.2300 N   0  0  0  0  0  2  0  0  0  0  0  0
  191.8580  172.8470  144.0150 C   0  0  0  0  0  0  0  0  0  0  0  0
  192.9580  169.6310  142.2950 C   0  0  0  0  0  2  0  0  0  0  0  0
  192.9720  170.8840  143.1260 C   0  0  0  0  0  0  0  0  0  0  0  0
  194.4460  174.8990  145.7680 C   0  0  0  0  0  0  0  0  0  0  0  0
  194.1530  171.3390  143.6170 N   0  0  0  0  0  0  0  0  0  0  0  0
  195.5890  174.1470  145.4920 C   0  0  0  0  0  3  0  0  0  0  0  0
  194.5550  176.0620  146.5350 C   0  0  0  0  0  3  0  0  0  0  0  0
  190.6570  173.7530  144.0730 C   0  0  0  0  0  2  0  0  0  0  0  0
  190.6550  174.6780  145.3010 C   0  0  2  0  0  3  0  0  0  0  0  0
  191.8000  171.6510  143.2810 C   0  0  0  0  0  0  0  0  0  0  0  0
  195.4990  172.9530  144.7740 C   0  0  0  0  0  0  0  0  0  0  0  0
  193.4110  176.7930  146.8650 C   0  0  0  0  0  3  0  0  0  0  0  0
  190.7100  170.0510  141.6840 C   0  0  0  0  0  2  0  0  0  0  0  0
  190.4920  171.1570  142.7130 C   0  0  0  0  0  2  0  0  0  0  0  0
  196.7420  172.1640  144.5210 C   0  0  0  0  0  2  0  0  0  0  0  0
  197.1600  171.5500  145.7020 O   0  0  0  0  0  1  0  0  0  0  0  0
  189.6460  175.7490  145.2100 N   0  0  0  0  0  0  0  0  0  0  0  0
  188.6110  175.5520  146.2420 C   0  0  1  0  0  3  0  0  0  0  0  0
  189.0510  174.5410  147.2870 C   0  0  0  0  0  1  0  0  0  0  0  0
  188.0270  176.8430  146.8520 C   0  0  0  0  0  2  0  0  0  0  0  0
  186.5070  176.9050  146.7900 C   0  0  0  0  0  1  0  0  0  0  0  0
  189.1110  175.8830  143.8500 C   0  0  0  0  0  2  0  0  0  0  0  0
  189.0740  177.3450  143.4420 C   0  0  0  0  0  2  0  0  0  0  0  0
  187.4100  178.2310  141.8750 C   0  0  0  0  0  2  0  0  0  0  0  0
  187.0080  176.9640  142.3330 O   0  0  0  0  0  0  0  0  0  0  0  0
  187.6400  177.8010  143.2710 C   0  0  1  0  0  3  0  0  0  0  0  0
  1  3  1  0  0  0  0
  2  4  1  0  0  0  0
  3 18  2  0  0  0  0
  4  1  2  0  0  0  0
  4 10  1  0  0  0  0
  5  2  1  0  0  0  0
  5 17  1  0  0  0  0
  6  8  1  0  0  0  0
  7 14  1  0  0  0  0
  7  2  2  0  0  0  0
  8  9  1  0  0  0  0
  9 16  2  0  0  0  0
  9 11  1  0  0  0  0
 10 13  2  0  0  0  0
 11  5  2  0  0  0  0
 12 10  1  0  0  0  0
 13 18  1  0  0  0  0
 14 15  1  0  0  0  0
 15 23  1  6  0  0  0
 15  1  1  0  0  0  0
 16  7  1  0  0  0  0
 17 12  2  0  0  0  0
 19  6  1  0  0  0  0
 19 20  1  0  0  0  0
 20 16  1  0  0  0  0
 21 17  1  0  0  0  0
 21 22  1  0  0  0  0
 23 24  1  0  0  0  0
 24 26  1  0  0  0  0
 24 25  1  1  0  0  0
 27 26  1  0  0  0  0
 28 23  1  0  0  0  0
 29 28  1  0  0  0  0
 30 31  1  0  0  0  0
 30 32  1  0  0  0  0
 31 32  1  0  0  0  0
 32 29  1  6  0  0  0
M  END
>  <MODEL>
8

>  <REMARK>
 VINA RESULT:      -6.2      3.015      7.863
  Name = 
  7 active torsions:
  status: ('A' for Active; 'I' for Inactive)
    1  A    between atoms: C_3  and  C_22
    2  A    between atoms: C_13  and  C_29
    3  A    between atoms: C_15  and  C_20
    4  A    between atoms: C_15  and  C_26
    5  A    between atoms: N_16  and  C_20
    6  A    between atoms: N_16  and  C_22
    7  A    between atoms: N_16  and  C_27
                            x       y       z     vdW  Elec       q    Type
                         _______ _______ _______ _____ _____    ______ ____

>  <TORSDO>
F 7

$$$$
=
 OpenBabel11052419163D

 32 37  0  0  1  0  0  0  0  0999 V2000
  189.0120  176.2800  143.6360 C   0  0  0  0  0  0  0  0  0  0  0  0
  189.4620  174.2710  142.2900 C   0  0  0  0  0  0  0  0  0  0  0  0
  188.3990  177.5380  143.7430 C   0  0  0  0  0  3  0  0  0  0  0  0
  188.8200  175.5170  142.4630 C   0  0  0  0  0  0  0  0  0  0  0  0
  189.3150  173.5680  141.0720 C   0  0  0  0  0  0  0  0  0  0  0  0
  192.5010  170.2510  142.5090 N   0  0  0  0  0  2  0  0  0  0  0  0
  190.2360  173.7000  143.3210 C   0  0  0  0  0  0  0  0  0  0  0  0
  191.3660  170.4860  141.6170 C   0  0  0  0  0  2  0  0  0  0  0  0
  190.7490  171.8370  141.8550 C   0  0  0  0  0  0  0  0  0  0  0  0
  187.9910  176.0180  141.4320 C   0  0  0  0  0  0  0  0  0  0  0  0
  189.9620  172.3830  140.8930 N   0  0  0  0  0  0  0  0  0  0  0  0
  187.8240  175.2960  140.2500 C   0  0  0  0  0  3  0  0  0  0  0  0
  187.3640  177.2600  141.5760 C   0  0  0  0  0  3  0  0  0  0  0  0
  190.2340  174.3210  144.6930 C   0  0  0  0  0  2  0  0  0  0  0  0
  190.0250  175.8430  144.6690 C   0  0  2  0  0  3  0  0  0  0  0  0
  190.8720  172.4660  143.1100 C   0  0  0  0  0  0  0  0  0  0  0  0
  188.4830  174.0790  140.0610 C   0  0  0  0  0  0  0  0  0  0  0  0
  187.5680  178.0170  142.7310 C   0  0  0  0  0  3  0  0  0  0  0  0
  192.0310  170.3790  143.8860 C   0  0  0  0  0  2  0  0  0  0  0  0
  191.7270  171.8440  144.1870 C   0  0  0  0  0  2  0  0  0  0  0  0
  188.2980  173.3480  138.7710 C   0  0  0  0  0  2  0  0  0  0  0  0
  188.1930  174.2620  137.7230 O   0  0  0  0  0  1  0  0  0  0  0  0
  189.7380  176.4040  146.0000 N   0  0  0  0  0  0  0  0  0  0  0  0
  190.9970  176.7910  146.6640 C   0  0  1  0  0  3  0  0  0  0  0  0
  191.1910  176.0410  147.9700 C   0  0  0  0  0  1  0  0  0  0  0  0
  192.2520  176.7840  145.7660 C   0  0  0  0  0  2  0  0  0  0  0  0
  193.5220  176.3950  146.5090 C   0  0  0  0  0  1  0  0  0  0  0  0
  188.8960  175.5080  146.8020 C   0  0  0  0  0  2  0  0  0  0  0  0
  187.4750  176.0410  146.8650 C   0  0  0  0  0  2  0  0  0  0  0  0
  186.2800  178.1710  146.6580 C   0  0  0  0  0  2  0  0  0  0  0  0
  186.3750  177.8080  148.0120 O   0  0  0  0  0  0  0  0  0  0  0  0
  187.4890  177.5180  147.2030 C   0  0  1  0  0  3  0  0  0  0  0  0
  1  3  1  0  0  0  0
  1 15  1  0  0  0  0
  2  4  1  0  0  0  0
  2  7  1  0  0  0  0
  4  1  2  0  0  0  0
  5  2  2  0  0  0  0
  6 19  1  0  0  0  0
  7 14  1  0  0  0  0
  8  9  1  0  0  0  0
  8  6  1  0  0  0  0
  9 16  1  0  0  0  0
 10 13  2  0  0  0  0
 10  4  1  0  0  0  0
 11  5  1  0  0  0  0
 11  9  2  0  0  0  0
 12 10  1  0  0  0  0
 13 18  1  0  0  0  0
 15 14  1  0  0  0  0
 15 23  1  1  0  0  0
 16  7  2  0  0  0  0
 16 20  1  0  0  0  0
 17 12  2  0  0  0  0
 17  5  1  0  0  0  0
 18  3  2  0  0  0  0
 19 20  1  0  0  0  0
 21 17  1  0  0  0  0
 22 21  1  0  0  0  0
 23 24  1  0  0  0  0
 23 28  1  0  0  0  0
 24 25  1  1  0  0  0
 26 27  1  0  0  0  0
 26 24  1  0  0  0  0
 28 29  1  0  0  0  0
 30 32  1  0  0  0  0
 30 31  1  0  0  0  0
 32 29  1  6  0  0  0
 32 31  1  0  0  0  0
M  END
>  <MODEL>
9

>  <REMARK>
 VINA RESULT:      -6.2      2.643      6.861
  Name = 
  7 active torsions:
  status: ('A' for Active; 'I' for Inactive)
    1  A    between atoms: C_3  and  C_22
    2  A    between atoms: C_13  and  C_29
    3  A    between atoms: C_15  and  C_20
    4  A    between atoms: C_15  and  C_26
    5  A    between atoms: N_16  and  C_20
    6  A    between atoms: N_16  and  C_22
    7  A    between atoms: N_16  and  C_27
                            x       y       z     vdW  Elec       q    Type
                         _______ _______ _______ _____ _____    ______ ____

>  <TORSDO>
F 7

$$$$
