=
 OpenBabel11052419483D

 55 61  0  0  1  0  0  0  0  0999 V2000
  190.2290  175.4350  147.2930 C   0  0  0  0  0  3  0  0  0  0  0  0
  192.3410  176.4920  145.7920 C   0  0  0  0  0  0  0  0  0  0  0  0
  191.0190  176.8130  145.4670 C   0  0  0  0  0  3  0  0  0  0  0  0
  191.5500  175.1150  147.6220 C   0  0  0  0  0  3  0  0  0  0  0  0
  189.9600  176.2930  146.2160 C   0  0  0  0  0  0  0  0  0  0  0  0
  192.6050  175.6420  146.8710 C   0  0  0  0  0  3  0  0  0  0  0  0
  188.5610  176.6360  145.8240 C   0  0  1  0  0  3  0  0  0  0  0  0
  186.2560  176.7060  146.7370 C   0  0  0  0  0  2  0  0  0  0  0  0
  185.0670  178.7990  147.3450 C   0  0  0  0  0  1  0  0  0  0  0  0
  186.2790  178.7660  145.1530 C   0  0  1  0  0  3  0  0  0  0  0  0
  187.7220  176.9830  147.0460 C   0  0  0  0  0  2  0  0  0  0  0  0
  185.3480  179.7160  144.4180 C   0  0  0  0  0  1  0  0  0  0  0  0
  185.5110  177.9260  146.1880 C   0  0  1  0  0  3  0  0  0  0  0  0
  187.1540  177.9830  144.1590 C   0  0  1  0  0  3  0  0  0  0  0  0
  188.5410  177.7370  144.7620 C   0  0  0  0  0  2  0  0  0  0  0  0
  185.3130  177.1650  142.6580 C   0  0  0  0  0  2  0  0  0  0  0  0
  186.1010  178.3870  140.6380 C   0  0  0  0  0  1  0  0  0  0  0  0
  187.3800  176.0850  142.5350 C   0  0  0  0  0  0  0  0  0  0  0  0
  187.0240  176.2450  141.3090 N   0  0  0  0  0  0  0  0  0  0  0  0
  185.8000  177.0180  141.2190 C   0  0  1  0  0  3  0  0  0  0  0  0
  186.4870  176.7350  143.5340 C   0  0  1  0  0  3  0  0  0  0  0  0
  188.5010  175.2810  142.9040 N   0  0  0  0  0  2  0  0  0  0  0  0
  189.5470  174.9220  141.9630 C   0  0  0  0  0  2  0  0  0  0  0  0
  191.8600  173.9930  142.0620 C   0  0  0  0  0  3  0  0  0  0  0  0
  192.6220  172.7000  143.9660 C   0  0  0  0  0  0  0  0  0  0  0  0
  190.3830  173.6400  143.9440 C   0  0  0  0  0  3  0  0  0  0  0  0
  191.3810  172.9000  144.5850 C   0  0  0  0  0  3  0  0  0  0  0  0
  192.8560  173.2510  142.7020 C   0  0  0  0  0  3  0  0  0  0  0  0
  190.6260  174.1910  142.6830 C   0  0  0  0  0  0  0  0  0  0  0  0
  193.6740  171.9170  144.6330 C   0  0  0  0  0  0  0  0  0  0  0  0
  194.3590  172.4240  145.5580 O   0  0  0  0  0  1  0  0  0  0  0  0
  193.9240  170.6040  144.2460 O   0  0  0  0  0  0  0  0  0  0  0  0
  193.4680  177.0360  144.9790 C   0  0  0  0  0  2  0  0  0  0  0  0
  194.2090  175.9200  144.2590 C   0  0  0  0  0  2  0  0  0  0  0  0
  195.5750  175.7000  144.8900 C   0  0  0  0  0  2  0  0  0  0  0  0
  196.5720  175.2070  143.8560 C   0  0  0  0  0  2  0  0  0  0  0  0
  196.7440  176.2270  142.7460 C   0  0  0  0  0  2  0  0  0  0  0  0
  194.5400  176.2310  140.9440 O   0  0  0  0  0  0  0  0  0  0  0  0
  195.5600  175.5690  140.6180 C   0  0  0  0  0  0  0  0  0  0  0  0
  196.7100  175.5450  141.4660 N   0  0  0  0  0  2  0  0  0  0  0  0
  196.8790  174.4470  139.0300 O   0  0  0  0  0  1  0  0  0  0  0  0
  195.5640  174.7940  139.3380 C   0  0  1  0  0  3  0  0  0  0  0  0
  193.7780  173.2570  138.2170 C   0  0  0  0  0  0  0  0  0  0  0  0
  194.4800  171.0870  139.3220 C   0  0  2  0  0  3  0  0  0  0  0  0
  193.8960  171.0050  136.8480 C   0  0  0  0  0  2  0  0  0  0  0  0
  193.5520  170.7540  140.3130 O   0  0  0  0  0  1  0  0  0  0  0  0
  194.3520  173.8450  136.9230 C   0  0  0  0  0  1  0  0  0  0  0  0
  192.3900  173.8340  138.4540 C   0  0  0  0  0  1  0  0  0  0  0  0
  195.3970  172.2360  139.7760 C   0  0  1  0  0  3  0  0  0  0  0  0
  194.6590  173.5460  139.4590 C   0  0  1  0  0  3  0  0  0  0  0  0
  192.5530  170.9920  137.5650 C   0  0  0  0  0  2  0  0  0  0  0  0
  193.7370  171.7230  138.1770 C   0  0  0  0  0  0  0  0  0  0  0  0
  196.0300  172.1980  141.1860 C   0  0  2  0  0  3  0  0  0  0  0  0
  197.4800  171.9060  141.1430 C   0  0  0  0  0  2  0  0  0  0  0  0
  196.5340  170.9290  141.5200 O   0  0  0  0  0  0  0  0  0  0  0  0
  1  4  1  0  0  0  0
  2  6  1  0  0  0  0
  3  2  2  0  0  0  0
  3  5  1  0  0  0  0
  5  1  2  0  0  0  0
  6  4  2  0  0  0  0
  7  5  1  1  0  0  0
  7 11  1  0  0  0  0
  8 11  1  0  0  0  0
 10 12  1  6  0  0  0
 10 13  1  0  0  0  0
 13  8  1  0  0  0  0
 13  9  1  1  0  0  0
 14 15  1  1  0  0  0
 14 10  1  0  0  0  0
 15  7  1  0  0  0  0
 18 22  1  0  0  0  0
 18 21  1  0  0  0  0
 19 18  2  0  0  0  0
 20 17  1  1  0  0  0
 20 19  1  0  0  0  0
 20 16  1  0  0  0  0
 21 16  1  6  0  0  0
 21 14  1  0  0  0  0
 23 29  1  0  0  0  0
 23 22  1  0  0  0  0
 24 29  2  0  0  0  0
 24 28  1  0  0  0  0
 25 27  1  0  0  0  0
 25 30  1  0  0  0  0
 26 27  2  0  0  0  0
 28 25  2  0  0  0  0
 29 26  1  0  0  0  0
 30 31  1  0  0  0  0
 32 30  2  0  0  0  0
 33  2  1  0  0  0  0
 34 35  1  0  0  0  0
 34 33  1  0  0  0  0
 36 35  1  0  0  0  0
 37 36  1  0  0  0  0
 39 38  2  0  0  0  0
 39 40  1  0  0  0  0
 40 37  1  0  0  0  0
 42 41  1  1  0  0  0
 42 39  1  0  0  0  0
 43 48  1  0  0  0  0
 43 50  1  0  0  0  0
 44 49  1  0  0  0  0
 44 46  1  1  0  0  0
 45 51  1  0  0  0  0
 45 52  1  0  0  0  0
 47 43  1  0  0  0  0
 49 53  1  1  0  0  0
 50 42  1  6  0  0  0
 50 49  1  0  0  0  0
 51 52  1  0  0  0  0
 52 43  1  0  0  0  0
 52 44  1  0  0  0  0
 53 54  1  6  0  0  0
 53 55  1  0  0  0  0
 54 55  1  0  0  0  0
M  END
>  <MODEL>
1

>  <REMARK>
 VINA RESULT:      -7.5      0.000      0.000
  Name = 
  14 active torsions:
  status: ('A' for Active; 'I' for Inactive)
    1  A    between atoms: C_2  and  C_44
    2  A    between atoms: C_8  and  N_22
    3  A    between atoms: C_8  and  C_35
    4  A    between atoms: C_10  and  C_32
    5  A    between atoms: C_11  and  C_38
    6  A    between atoms: C_20  and  C_50
    7  A    between atoms: C_26  and  C_45
    8  A    between atoms: C_27  and  C_54
    9  A    between atoms: C_33  and  N_36
   10  A    between atoms: C_33  and  C_52
   11  A    between atoms: C_35  and  C_43
   12  A    between atoms: C_42  and  C_50
   13  A    between atoms: C_43  and  C_51
   14  A    between atoms: C_51  and  C_54
                            x       y       z     vdW  Elec       q    Type
                         _______ _______ _______ _____ _____    ______ ____

>  <TORSDO>
F 14

$$$$
=
 OpenBabel11052419483D

 55 61  0  0  1  0  0  0  0  0999 V2000
  188.6150  174.3080  140.7930 C   0  0  0  0  0  3  0  0  0  0  0  0
  189.9040  173.2120  143.0230 C   0  0  0  0  0  0  0  0  0  0  0  0
  189.1050  174.3530  143.1630 C   0  0  0  0  0  3  0  0  0  0  0  0
  189.4110  173.1670  140.6510 C   0  0  0  0  0  3  0  0  0  0  0  0
  188.4550  174.9010  142.0540 C   0  0  0  0  0  0  0  0  0  0  0  0
  190.0560  172.6210  141.7650 C   0  0  0  0  0  3  0  0  0  0  0  0
  187.6310  176.1330  142.2370 C   0  0  1  0  0  3  0  0  0  0  0  0
  186.9070  178.1740  141.0280 C   0  0  0  0  0  2  0  0  0  0  0  0
  184.6180  178.5170  140.1310 C   0  0  0  0  0  1  0  0  0  0  0  0
  184.8120  177.6140  142.4590 C   0  0  1  0  0  3  0  0  0  0  0  0
  187.1620  176.6790  140.8950 C   0  0  0  0  0  2  0  0  0  0  0  0
  183.5360  178.2370  143.0000 C   0  0  0  0  0  1  0  0  0  0  0  0
  185.4590  178.5130  141.3920 C   0  0  1  0  0  3  0  0  0  0  0  0
  185.7260  177.1600  143.6090 C   0  0  1  0  0  3  0  0  0  0  0  0
  186.4770  175.8850  143.2090 C   0  0  0  0  0  2  0  0  0  0  0  0
  185.7290  179.3080  144.9120 C   0  0  0  0  0  2  0  0  0  0  0  0
  184.6270  178.3560  146.9300 C   0  0  0  0  0  1  0  0  0  0  0  0
  187.4100  177.7530  145.3720 C   0  0  0  0  0  0  0  0  0  0  0  0
  187.0110  178.1530  146.5290 N   0  0  0  0  0  0  0  0  0  0  0  0
  185.8740  179.0440  146.4080 C   0  0  1  0  0  3  0  0  0  0  0  0
  186.6120  178.2690  144.2250 C   0  0  1  0  0  3  0  0  0  0  0  0
  188.5720  176.9400  145.2050 N   0  0  0  0  0  2  0  0  0  0  0  0
  189.1530  176.1760  146.2950 C   0  0  0  0  0  2  0  0  0  0  0  0
  191.3850  175.2850  146.9650 C   0  0  0  0  0  3  0  0  0  0  0  0
  193.3850  175.8050  145.6970 C   0  0  0  0  0  0  0  0  0  0  0  0
  191.2240  176.6400  144.9690 C   0  0  0  0  0  3  0  0  0  0  0  0
  192.6060  176.5340  144.7880 C   0  0  0  0  0  3  0  0  0  0  0  0
  192.7660  175.1820  146.7860 C   0  0  0  0  0  3  0  0  0  0  0  0
  190.6130  176.0110  146.0560 C   0  0  0  0  0  0  0  0  0  0  0  0
  194.8400  175.6950  145.5160 C   0  0  0  0  0  0  0  0  0  0  0  0
  195.5330  175.0130  146.3150 O   0  0  0  0  0  1  0  0  0  0  0  0
  195.4680  176.3440  144.4580 O   0  0  0  0  0  0  0  0  0  0  0  0
  190.6100  172.6400  144.2060 C   0  0  0  0  0  2  0  0  0  0  0  0
  192.1060  172.9050  144.1280 C   0  0  0  0  0  2  0  0  0  0  0  0
  192.8850  171.6340  144.4310 C   0  0  0  0  0  2  0  0  0  0  0  0
  193.9160  171.8810  145.5170 C   0  0  0  0  0  2  0  0  0  0  0  0
  195.3220  171.7970  144.9520 C   0  0  0  0  0  2  0  0  0  0  0  0
  197.2240  173.5590  143.7750 O   0  0  0  0  0  0  0  0  0  0  0  0
  196.2800  173.1490  143.0500 C   0  0  0  0  0  0  0  0  0  0  0  0
  195.3050  172.2450  143.5710 N   0  0  0  0  0  2  0  0  0  0  0  0
  197.2770  173.1550  140.9220 O   0  0  0  0  0  1  0  0  0  0  0  0
  196.1730  173.6230  141.6350 C   0  0  1  0  0  3  0  0  0  0  0  0
  194.0330  174.2480  140.2780 C   0  0  0  0  0  0  0  0  0  0  0  0
  193.7290  172.0210  139.1080 C   0  0  2  0  0  3  0  0  0  0  0  0
  193.3800  174.1260  137.7250 C   0  0  0  0  0  2  0  0  0  0  0  0
  192.6620  171.3350  139.6950 O   0  0  0  0  0  1  0  0  0  0  0  0
  194.9030  175.4160  139.7970 C   0  0  0  0  0  1  0  0  0  0  0  0
  192.9670  174.7790  141.2260 C   0  0  0  0  0  1  0  0  0  0  0  0
  194.9800  171.9850  140.0040 C   0  0  1  0  0  3  0  0  0  0  0  0
  194.8450  173.1450  141.0030 C   0  0  1  0  0  3  0  0  0  0  0  0
  192.0820  173.9500  138.5010 C   0  0  0  0  0  2  0  0  0  0  0  0
  193.3990  173.4900  139.1040 C   0  0  0  0  0  0  0  0  0  0  0  0
  195.4210  170.6500  140.6490 C   0  0  2  0  0  3  0  0  0  0  0  0
  196.5800  170.0470  139.9550 C   0  0  0  0  0  2  0  0  0  0  0  0
  195.2690  169.5540  139.7840 O   0  0  0  0  0  0  0  0  0  0  0  0
  1  5  1  0  0  0  0
  2  3  1  0  0  0  0
  2 33  1  0  0  0  0
  4  1  2  0  0  0  0
  4  6  1  0  0  0  0
  5  3  2  0  0  0  0
  6  2  2  0  0  0  0
  7  5  1  6  0  0  0
  7 15  1  0  0  0  0
  8 13  1  0  0  0  0
 10 12  1  1  0  0  0
 10 14  1  0  0  0  0
 11  8  1  0  0  0  0
 11  7  1  0  0  0  0
 13  9  1  6  0  0  0
 13 10  1  0  0  0  0
 14 15  1  6  0  0  0
 14 21  1  0  0  0  0
 16 20  1  0  0  0  0
 18 19  2  0  0  0  0
 20 19  1  0  0  0  0
 20 17  1  6  0  0  0
 21 16  1  1  0  0  0
 21 18  1  0  0  0  0
 22 18  1  0  0  0  0
 22 23  1  0  0  0  0
 25 28  2  0  0  0  0
 26 29  1  0  0  0  0
 27 26  2  0  0  0  0
 27 25  1  0  0  0  0
 28 24  1  0  0  0  0
 29 23  1  0  0  0  0
 29 24  2  0  0  0  0
 30 25  1  0  0  0  0
 30 31  1  0  0  0  0
 32 30  2  0  0  0  0
 34 33  1  0  0  0  0
 34 35  1  0  0  0  0
 35 36  1  0  0  0  0
 37 36  1  0  0  0  0
 39 40  1  0  0  0  0
 39 38  2  0  0  0  0
 40 37  1  0  0  0  0
 42 41  1  6  0  0  0
 42 39  1  0  0  0  0
 43 50  1  0  0  0  0
 43 48  1  0  0  0  0
 44 46  1  1  0  0  0
 44 49  1  0  0  0  0
 45 51  1  0  0  0  0
 45 52  1  0  0  0  0
 47 43  1  0  0  0  0
 49 53  1  1  0  0  0
 49 50  1  0  0  0  0
 50 42  1  6  0  0  0
 51 52  1  0  0  0  0
 52 44  1  0  0  0  0
 52 43  1  0  0  0  0
 53 54  1  6  0  0  0
 55 54  1  0  0  0  0
 55 53  1  0  0  0  0
M  END
>  <MODEL>
2

>  <REMARK>
 VINA RESULT:      -7.4      1.787      4.188
  Name = 
  14 active torsions:
  status: ('A' for Active; 'I' for Inactive)
    1  A    between atoms: C_2  and  C_44
    2  A    between atoms: C_8  and  N_22
    3  A    between atoms: C_8  and  C_35
    4  A    between atoms: C_10  and  C_32
    5  A    between atoms: C_11  and  C_38
    6  A    between atoms: C_20  and  C_50
    7  A    between atoms: C_26  and  C_45
    8  A    between atoms: C_27  and  C_54
    9  A    between atoms: C_33  and  N_36
   10  A    between atoms: C_33  and  C_52
   11  A    between atoms: C_35  and  C_43
   12  A    between atoms: C_42  and  C_50
   13  A    between atoms: C_43  and  C_51
   14  A    between atoms: C_51  and  C_54
                            x       y       z     vdW  Elec       q    Type
                         _______ _______ _______ _____ _____    ______ ____

>  <TORSDO>
F 14

$$$$
=
 OpenBabel11052419483D

 55 61  0  0  1  0  0  0  0  0999 V2000
  190.6080  176.7770  147.2480 C   0  0  0  0  0  3  0  0  0  0  0  0
  191.7280  174.5070  146.0550 C   0  0  0  0  0  0  0  0  0  0  0  0
  190.4410  174.9230  145.7010 C   0  0  0  0  0  3  0  0  0  0  0  0
  191.8960  176.3640  147.6020 C   0  0  0  0  0  3  0  0  0  0  0  0
  189.8780  176.0590  146.2890 C   0  0  0  0  0  0  0  0  0  0  0  0
  192.4550  175.2290  147.0070 C   0  0  0  0  0  3  0  0  0  0  0  0
  188.4920  176.4590  145.9050 C   0  0  1  0  0  3  0  0  0  0  0  0
  186.1860  176.5630  146.8120 C   0  0  0  0  0  2  0  0  0  0  0  0
  185.0560  178.6650  147.4960 C   0  0  0  0  0  1  0  0  0  0  0  0
  186.2780  178.6810  145.3090 C   0  0  1  0  0  3  0  0  0  0  0  0
  187.6570  176.7830  147.1360 C   0  0  0  0  0  2  0  0  0  0  0  0
  185.3790  179.6870  144.6090 C   0  0  0  0  0  1  0  0  0  0  0  0
  185.4800  177.8250  146.3080 C   0  0  1  0  0  3  0  0  0  0  0  0
  187.1330  177.9120  144.2890 C   0  0  1  0  0  3  0  0  0  0  0  0
  188.5100  177.6010  144.8880 C   0  0  0  0  0  2  0  0  0  0  0  0
  185.1870  177.1910  142.8740 C   0  0  0  0  0  2  0  0  0  0  0  0
  185.7930  178.5960  140.9120 C   0  0  0  0  0  1  0  0  0  0  0  0
  187.2490  176.1640  142.4940 C   0  0  0  0  0  0  0  0  0  0  0  0
  186.7930  176.4230  141.3180 N   0  0  0  0  0  0  0  0  0  0  0  0
  185.5570  177.1770  141.3940 C   0  0  1  0  0  3  0  0  0  0  0  0
  186.4330  176.7090  143.6130 C   0  0  1  0  0  3  0  0  0  0  0  0
  188.4060  175.3530  142.7000 N   0  0  0  0  0  2  0  0  0  0  0  0
  189.3770  175.0960  141.6510 C   0  0  0  0  0  2  0  0  0  0  0  0
  191.0230  176.5910  142.7810 C   0  0  0  0  0  3  0  0  0  0  0  0
  193.3490  175.9500  143.0290 C   0  0  0  0  0  0  0  0  0  0  0  0
  191.7670  174.4340  141.9810 C   0  0  0  0  0  3  0  0  0  0  0  0
  193.0650  174.7240  142.4140 C   0  0  0  0  0  3  0  0  0  0  0  0
  192.3200  176.8820  143.2100 C   0  0  0  0  0  3  0  0  0  0  0  0
  190.7450  175.3670  142.1700 C   0  0  0  0  0  0  0  0  0  0  0  0
  194.7120  176.2640  143.4810 C   0  0  0  0  0  0  0  0  0  0  0  0
  194.9710  176.3680  144.7080 O   0  0  0  0  0  1  0  0  0  0  0  0
  195.7330  176.4500  142.5550 O   0  0  0  0  0  0  0  0  0  0  0  0
  192.3190  173.2830  145.4380 C   0  0  0  0  0  2  0  0  0  0  0  0
  193.8100  173.1940  145.7250 C   0  0  0  0  0  2  0  0  0  0  0  0
  194.4950  172.3090  144.6950 C   0  0  0  0  0  2  0  0  0  0  0  0
  193.9080  170.9080  144.7140 C   0  0  0  0  0  2  0  0  0  0  0  0
  193.2760  170.5730  143.3750 C   0  0  0  0  0  2  0  0  0  0  0  0
  193.1450  169.7450  140.6540 O   0  0  0  0  0  0  0  0  0  0  0  0
  194.0300  170.5850  140.9680 C   0  0  0  0  0  0  0  0  0  0  0  0
  194.1350  171.0600  142.3110 N   0  0  0  0  0  2  0  0  0  0  0  0
  194.5430  170.6520  138.6760 O   0  0  0  0  0  1  0  0  0  0  0  0
  194.9840  171.0800  139.9280 C   0  0  1  0  0  3  0  0  0  0  0  0
  196.5490  173.1580  140.1460 C   0  0  0  0  0  0  0  0  0  0  0  0
  195.1610  174.7550  138.7510 C   0  0  2  0  0  3  0  0  0  0  0  0
  197.6810  174.7900  138.4110 C   0  0  0  0  0  2  0  0  0  0  0  0
  194.5160  175.6620  139.5970 O   0  0  0  0  0  1  0  0  0  0  0  0
  197.6110  172.1820  139.6240 C   0  0  0  0  0  1  0  0  0  0  0  0
  196.8140  173.4410  141.6170 C   0  0  0  0  0  1  0  0  0  0  0  0
  194.4920  173.3710  138.7980 C   0  0  1  0  0  3  0  0  0  0  0  0
  195.1030  172.6200  139.9920 C   0  0  1  0  0  3  0  0  0  0  0  0
  197.4470  175.6110  139.6720 C   0  0  0  0  0  2  0  0  0  0  0  0
  196.5190  174.4570  139.3300 C   0  0  0  0  0  0  0  0  0  0  0  0
  192.9520  173.2620  138.7110 C   0  0  2  0  0  3  0  0  0  0  0  0
  192.4900  172.8850  137.3570 C   0  0  0  0  0  2  0  0  0  0  0  0
  192.3900  174.2080  137.8370 O   0  0  0  0  0  0  0  0  0  0  0  0
  1  4  1  0  0  0  0
  2  6  1  0  0  0  0
  3  2  2  0  0  0  0
  3  5  1  0  0  0  0
  5  1  2  0  0  0  0
  6  4  2  0  0  0  0
  7  5  1  1  0  0  0
  7 11  1  0  0  0  0
  8 11  1  0  0  0  0
 10 12  1  6  0  0  0
 10 13  1  0  0  0  0
 13  8  1  0  0  0  0
 13  9  1  1  0  0  0
 14 15  1  1  0  0  0
 14 10  1  0  0  0  0
 15  7  1  0  0  0  0
 18 22  1  0  0  0  0
 18 21  1  0  0  0  0
 19 20  1  0  0  0  0
 19 18  2  0  0  0  0
 20 17  1  1  0  0  0
 20 16  1  0  0  0  0
 21 16  1  6  0  0  0
 21 14  1  0  0  0  0
 23 29  1  0  0  0  0
 23 22  1  0  0  0  0
 24 28  1  0  0  0  0
 25 28  2  0  0  0  0
 25 30  1  0  0  0  0
 26 29  1  0  0  0  0
 26 27  2  0  0  0  0
 27 25  1  0  0  0  0
 29 24  2  0  0  0  0
 30 31  1  0  0  0  0
 32 30  2  0  0  0  0
 33 34  1  0  0  0  0
 33  2  1  0  0  0  0
 35 36  1  0  0  0  0
 35 34  1  0  0  0  0
 37 36  1  0  0  0  0
 38 39  2  0  0  0  0
 39 40  1  0  0  0  0
 40 37  1  0  0  0  0
 42 41  1  6  0  0  0
 42 39  1  0  0  0  0
 43 48  1  0  0  0  0
 44 49  1  0  0  0  0
 44 52  1  0  0  0  0
 44 46  1  1  0  0  0
 45 52  1  0  0  0  0
 45 51  1  0  0  0  0
 47 43  1  0  0  0  0
 49 53  1  1  0  0  0
 49 50  1  0  0  0  0
 50 42  1  6  0  0  0
 50 43  1  0  0  0  0
 52 51  1  0  0  0  0
 52 43  1  0  0  0  0
 53 54  1  6  0  0  0
 54 55  1  0  0  0  0
 55 53  1  0  0  0  0
M  END
>  <MODEL>
3

>  <REMARK>
 VINA RESULT:      -7.3      1.658      3.537
  Name = 
  14 active torsions:
  status: ('A' for Active; 'I' for Inactive)
    1  A    between atoms: C_2  and  C_44
    2  A    between atoms: C_8  and  N_22
    3  A    between atoms: C_8  and  C_35
    4  A    between atoms: C_10  and  C_32
    5  A    between atoms: C_11  and  C_38
    6  A    between atoms: C_20  and  C_50
    7  A    between atoms: C_26  and  C_45
    8  A    between atoms: C_27  and  C_54
    9  A    between atoms: C_33  and  N_36
   10  A    between atoms: C_33  and  C_52
   11  A    between atoms: C_35  and  C_43
   12  A    between atoms: C_42  and  C_50
   13  A    between atoms: C_43  and  C_51
   14  A    between atoms: C_51  and  C_54
                            x       y       z     vdW  Elec       q    Type
                         _______ _______ _______ _____ _____    ______ ____

>  <TORSDO>
F 14

$$$$
=
 OpenBabel11052419483D

 55 61  0  0  1  0  0  0  0  0999 V2000
  190.4070  176.8920  147.3660 C   0  0  0  0  0  3  0  0  0  0  0  0
  191.6140  174.6300  146.2450 C   0  0  0  0  0  0  0  0  0  0  0  0
  190.3360  175.0220  145.8320 C   0  0  0  0  0  3  0  0  0  0  0  0
  191.6860  176.5040  147.7790 C   0  0  0  0  0  3  0  0  0  0  0  0
  189.7310  176.1540  146.3850 C   0  0  0  0  0  0  0  0  0  0  0  0
  192.2880  175.3730  147.2200 C   0  0  0  0  0  3  0  0  0  0  0  0
  188.3550  176.5270  145.9390 C   0  0  1  0  0  3  0  0  0  0  0  0
  186.0040  176.5490  146.7260 C   0  0  0  0  0  2  0  0  0  0  0  0
  184.7840  178.6030  147.3990 C   0  0  0  0  0  1  0  0  0  0  0  0
  186.1160  178.7050  145.2800 C   0  0  1  0  0  3  0  0  0  0  0  0
  187.4500  176.7990  147.1320 C   0  0  0  0  0  2  0  0  0  0  0  0
  185.2270  179.7040  144.5580 C   0  0  0  0  0  1  0  0  0  0  0  0
  185.2910  177.8040  146.2160 C   0  0  1  0  0  3  0  0  0  0  0  0
  187.0430  177.9840  144.2890 C   0  0  1  0  0  3  0  0  0  0  0  0
  188.3950  177.6940  144.9500 C   0  0  0  0  0  2  0  0  0  0  0  0
  185.1690  177.2400  142.7900 C   0  0  0  0  0  2  0  0  0  0  0  0
  185.7760  178.7390  140.8980 C   0  0  0  0  0  1  0  0  0  0  0  0
  187.2810  176.3090  142.4360 C   0  0  0  0  0  0  0  0  0  0  0  0
  186.8490  176.5930  141.2570 N   0  0  0  0  0  0  0  0  0  0  0  0
  185.5830  177.2950  141.3220 C   0  0  1  0  0  3  0  0  0  0  0  0
  186.4110  176.7810  143.5490 C   0  0  1  0  0  3  0  0  0  0  0  0
  188.4630  175.5360  142.6490 N   0  0  0  0  0  2  0  0  0  0  0  0
  189.4730  175.3560  141.6220 C   0  0  0  0  0  2  0  0  0  0  0  0
  191.8790  174.8040  141.9840 C   0  0  0  0  0  3  0  0  0  0  0  0
  193.3040  176.2050  143.3570 C   0  0  0  0  0  0  0  0  0  0  0  0
  190.9840  176.8180  142.9790 C   0  0  0  0  0  3  0  0  0  0  0  0
  192.2290  177.0800  143.5590 C   0  0  0  0  0  3  0  0  0  0  0  0
  193.1210  175.0650  142.5660 C   0  0  0  0  0  3  0  0  0  0  0  0
  190.8120  175.6810  142.1860 C   0  0  0  0  0  0  0  0  0  0  0  0
  194.6140  176.4720  143.9700 C   0  0  0  0  0  0  0  0  0  0  0  0
  194.6970  177.1370  145.0350 O   0  0  0  0  0  1  0  0  0  0  0  0
  195.7770  175.9930  143.3770 O   0  0  0  0  0  0  0  0  0  0  0  0
  192.2500  173.4110  145.6650 C   0  0  0  0  0  2  0  0  0  0  0  0
  193.7670  173.5070  145.7260 C   0  0  0  0  0  2  0  0  0  0  0  0
  194.3980  172.2020  145.2660 C   0  0  0  0  0  2  0  0  0  0  0  0
  193.3760  171.3290  144.5600 C   0  0  0  0  0  2  0  0  0  0  0  0
  194.0080  170.0290  144.0970 C   0  0  0  0  0  2  0  0  0  0  0  0
  194.6730  170.5850  141.3850 O   0  0  0  0  0  0  0  0  0  0  0  0
  193.6580  169.8720  141.6040 C   0  0  0  0  0  0  0  0  0  0  0  0
  193.2830  169.5360  142.9410 N   0  0  0  0  0  2  0  0  0  0  0  0
  191.8230  168.5590  140.9480 O   0  0  0  0  0  1  0  0  0  0  0  0
  192.8350  169.3830  140.4550 C   0  0  1  0  0  3  0  0  0  0  0  0
  192.1580  170.3480  138.1260 C   0  0  0  0  0  0  0  0  0  0  0  0
  190.2490  171.8110  138.9240 C   0  0  2  0  0  3  0  0  0  0  0  0
  189.8900  170.4830  136.7850 C   0  0  0  0  0  2  0  0  0  0  0  0
  190.6560  173.1480  138.9060 O   0  0  0  0  0  1  0  0  0  0  0  0
  192.0690  168.8660  137.7430 C   0  0  0  0  0  1  0  0  0  0  0  0
  193.3790  170.9620  137.4570 C   0  0  0  0  0  1  0  0  0  0  0  0
  190.8700  171.0520  140.1100 C   0  0  1  0  0  3  0  0  0  0  0  0
  192.2590  170.5750  139.6560 C   0  0  1  0  0  3  0  0  0  0  0  0
  190.7050  171.6950  136.3590 C   0  0  0  0  0  2  0  0  0  0  0  0
  190.8810  171.1110  137.7500 C   0  0  0  0  0  0  0  0  0  0  0  0
  190.8560  171.6910  141.5190 C   0  0  2  0  0  3  0  0  0  0  0  0
  190.0430  170.9140  142.4800 C   0  0  0  0  0  2  0  0  0  0  0  0
  189.5750  172.1170  141.9080 O   0  0  0  0  0  0  0  0  0  0  0  0
  1  4  1  0  0  0  0
  2  6  1  0  0  0  0
  3  2  2  0  0  0  0
  3  5  1  0  0  0  0
  5  1  2  0  0  0  0
  6  4  2  0  0  0  0
  7  5  1  1  0  0  0
  7 11  1  0  0  0  0
  8 11  1  0  0  0  0
 10 12  1  6  0  0  0
 10 13  1  0  0  0  0
 13  8  1  0  0  0  0
 13  9  1  1  0  0  0
 14 15  1  1  0  0  0
 14 10  1  0  0  0  0
 15  7  1  0  0  0  0
 18 22  1  0  0  0  0
 18 21  1  0  0  0  0
 19 20  1  0  0  0  0
 19 18  2  0  0  0  0
 20 17  1  1  0  0  0
 20 16  1  0  0  0  0
 21 16  1  6  0  0  0
 21 14  1  0  0  0  0
 23 29  1  0  0  0  0
 23 22  1  0  0  0  0
 24 29  2  0  0  0  0
 24 28  1  0  0  0  0
 25 27  1  0  0  0  0
 25 30  1  0  0  0  0
 26 27  2  0  0  0  0
 28 25  2  0  0  0  0
 29 26  1  0  0  0  0
 30 31  1  0  0  0  0
 32 30  2  0  0  0  0
 33 34  1  0  0  0  0
 33  2  1  0  0  0  0
 35 34  1  0  0  0  0
 36 35  1  0  0  0  0
 37 36  1  0  0  0  0
 38 39  2  0  0  0  0
 39 40  1  0  0  0  0
 40 37  1  0  0  0  0
 42 41  1  1  0  0  0
 42 39  1  0  0  0  0
 43 50  1  0  0  0  0
 44 46  1  1  0  0  0
 44 49  1  0  0  0  0
 45 52  1  0  0  0  0
 47 43  1  0  0  0  0
 48 43  1  0  0  0  0
 49 53  1  1  0  0  0
 50 49  1  0  0  0  0
 50 42  1  1  0  0  0
 51 45  1  0  0  0  0
 51 52  1  0  0  0  0
 52 43  1  0  0  0  0
 52 44  1  0  0  0  0
 53 55  1  0  0  0  0
 53 54  1  1  0  0  0
 55 54  1  0  0  0  0
M  END
>  <MODEL>
4

>  <REMARK>
 VINA RESULT:      -7.2      2.221      3.725
  Name = 
  14 active torsions:
  status: ('A' for Active; 'I' for Inactive)
    1  A    between atoms: C_2  and  C_44
    2  A    between atoms: C_8  and  N_22
    3  A    between atoms: C_8  and  C_35
    4  A    between atoms: C_10  and  C_32
    5  A    between atoms: C_11  and  C_38
    6  A    between atoms: C_20  and  C_50
    7  A    between atoms: C_26  and  C_45
    8  A    between atoms: C_27  and  C_54
    9  A    between atoms: C_33  and  N_36
   10  A    between atoms: C_33  and  C_52
   11  A    between atoms: C_35  and  C_43
   12  A    between atoms: C_42  and  C_50
   13  A    between atoms: C_43  and  C_51
   14  A    between atoms: C_51  and  C_54
                            x       y       z     vdW  Elec       q    Type
                         _______ _______ _______ _____ _____    ______ ____

>  <TORSDO>
F 14

$$$$
=
 OpenBabel11052419483D

 55 61  0  0  1  0  0  0  0  0999 V2000
  188.8300  174.2180  143.3970 C   0  0  0  0  0  3  0  0  0  0  0  0
  189.8090  173.5370  140.8660 C   0  0  0  0  0  0  0  0  0  0  0  0
  189.0280  174.6860  141.0310 C   0  0  0  0  0  3  0  0  0  0  0  0
  189.6130  173.0700  143.2350 C   0  0  0  0  0  3  0  0  0  0  0  0
  188.5410  175.0340  142.2940 C   0  0  0  0  0  0  0  0  0  0  0  0
  190.1010  172.7290  141.9700 C   0  0  0  0  0  3  0  0  0  0  0  0
  187.6890  176.2530  142.4280 C   0  0  1  0  0  3  0  0  0  0  0  0
  187.0160  178.2910  141.1860 C   0  0  0  0  0  2  0  0  0  0  0  0
  184.7860  178.6070  140.1420 C   0  0  0  0  0  1  0  0  0  0  0  0
  184.8390  177.6910  142.4720 C   0  0  1  0  0  3  0  0  0  0  0  0
  187.3010  176.8000  141.0620 C   0  0  0  0  0  2  0  0  0  0  0  0
  183.5210  178.2910  142.9310 C   0  0  0  0  0  1  0  0  0  0  0  0
  185.5420  178.6060  141.4550 C   0  0  1  0  0  3  0  0  0  0  0  0
  185.6820  177.2420  143.6770 C   0  0  1  0  0  3  0  0  0  0  0  0
  186.4770  175.9810  143.3210 C   0  0  0  0  0  2  0  0  0  0  0  0
  185.5680  179.3450  145.0470 C   0  0  0  0  0  2  0  0  0  0  0  0
  184.4360  178.2920  146.9960 C   0  0  0  0  0  1  0  0  0  0  0  0
  187.2860  177.8340  145.5130 C   0  0  0  0  0  0  0  0  0  0  0  0
  186.8370  178.1820  146.6680 N   0  0  0  0  0  0  0  0  0  0  0  0
  185.6750  179.0380  146.5380 C   0  0  1  0  0  3  0  0  0  0  0  0
  186.5090  178.3600  144.3570 C   0  0  1  0  0  3  0  0  0  0  0  0
  188.4810  177.0670  145.3590 N   0  0  0  0  0  2  0  0  0  0  0  0
  189.0530  176.2880  146.4430 C   0  0  0  0  0  2  0  0  0  0  0  0
  191.2590  175.3000  147.0600 C   0  0  0  0  0  3  0  0  0  0  0  0
  193.2850  175.8860  145.8620 C   0  0  0  0  0  0  0  0  0  0  0  0
  191.1490  176.8220  145.1840 C   0  0  0  0  0  3  0  0  0  0  0  0
  192.5310  176.7040  145.0100 C   0  0  0  0  0  3  0  0  0  0  0  0
  192.6410  175.1860  146.8880 C   0  0  0  0  0  3  0  0  0  0  0  0
  190.5130  176.1150  146.2070 C   0  0  0  0  0  0  0  0  0  0  0  0
  194.7400  175.7630  145.6890 C   0  0  0  0  0  0  0  0  0  0  0  0
  195.4100  175.0030  146.4350 O   0  0  0  0  0  1  0  0  0  0  0  0
  195.3930  176.4860  144.6960 O   0  0  0  0  0  0  0  0  0  0  0  0
  190.3130  173.1600  139.5130 C   0  0  0  0  0  2  0  0  0  0  0  0
  189.1600  172.9010  138.5550 C   0  0  0  0  0  2  0  0  0  0  0  0
  189.4930  171.7420  137.6280 C   0  0  0  0  0  2  0  0  0  0  0  0
  189.6970  170.4620  138.4180 C   0  0  0  0  0  2  0  0  0  0  0  0
  190.9650  169.7540  137.9760 C   0  0  0  0  0  2  0  0  0  0  0  0
  193.1910  171.5270  137.8850 O   0  0  0  0  0  0  0  0  0  0  0  0
  193.0760  170.7840  138.8950 C   0  0  0  0  0  0  0  0  0  0  0  0
  191.9690  169.8890  139.0150 N   0  0  0  0  0  2  0  0  0  0  0  0
  195.2980  171.3270  139.4300 O   0  0  0  0  0  1  0  0  0  0  0  0
  194.1120  170.8330  139.9730 C   0  0  1  0  0  3  0  0  0  0  0  0
  193.7700  171.0460  142.5520 C   0  0  0  0  0  0  0  0  0  0  0  0
  194.1090  173.5520  142.7170 C   0  0  2  0  0  3  0  0  0  0  0  0
  195.1880  172.1040  144.5080 C   0  0  0  0  0  2  0  0  0  0  0  0
  192.8710  174.1710  142.9120 O   0  0  0  0  0  1  0  0  0  0  0  0
  194.8670  169.9750  142.6000 C   0  0  0  0  0  1  0  0  0  0  0  0
  192.4420  170.4150  142.9420 C   0  0  0  0  0  1  0  0  0  0  0  0
  194.2800  173.0870  141.2600 C   0  0  1  0  0  3  0  0  0  0  0  0
  193.6230  171.7010  141.1550 C   0  0  1  0  0  3  0  0  0  0  0  0
  193.7310  172.2240  144.9310 C   0  0  0  0  0  2  0  0  0  0  0  0
  194.1000  172.2400  143.4570 C   0  0  0  0  0  0  0  0  0  0  0  0
  193.9120  174.0450  140.1040 C   0  0  2  0  0  3  0  0  0  0  0  0
  195.1070  174.6420  139.4680 C   0  0  0  0  0  2  0  0  0  0  0  0
  194.2930  175.3730  140.3580 O   0  0  0  0  0  0  0  0  0  0  0  0
  2  3  2  0  0  0  0
  2  6  1  0  0  0  0
  3  5  1  0  0  0  0
  4  1  1  0  0  0  0
  5  1  2  0  0  0  0
  6  4  2  0  0  0  0
  7  5  1  6  0  0  0
  7 15  1  0  0  0  0
  8 13  1  0  0  0  0
 10 12  1  1  0  0  0
 10 14  1  0  0  0  0
 11  8  1  0  0  0  0
 11  7  1  0  0  0  0
 13  9  1  6  0  0  0
 13 10  1  0  0  0  0
 14 15  1  6  0  0  0
 14 21  1  0  0  0  0
 16 20  1  0  0  0  0
 18 19  2  0  0  0  0
 20 19  1  0  0  0  0
 20 17  1  6  0  0  0
 21 16  1  1  0  0  0
 21 18  1  0  0  0  0
 22 18  1  0  0  0  0
 22 23  1  0  0  0  0
 25 28  2  0  0  0  0
 26 29  1  0  0  0  0
 27 26  2  0  0  0  0
 27 25  1  0  0  0  0
 28 24  1  0  0  0  0
 29 23  1  0  0  0  0
 29 24  2  0  0  0  0
 30 25  1  0  0  0  0
 30 31  1  0  0  0  0
 32 30  2  0  0  0  0
 33  2  1  0  0  0  0
 34 33  1  0  0  0  0
 35 36  1  0  0  0  0
 35 34  1  0  0  0  0
 37 36  1  0  0  0  0
 37 40  1  0  0  0  0
 38 39  2  0  0  0  0
 39 40  1  0  0  0  0
 39 42  1  0  0  0  0
 42 41  1  6  0  0  0
 43 47  1  0  0  0  0
 43 48  1  0  0  0  0
 43 52  1  0  0  0  0
 44 46  1  6  0  0  0
 44 52  1  0  0  0  0
 45 51  1  0  0  0  0
 49 53  1  6  0  0  0
 49 44  1  0  0  0  0
 50 42  1  6  0  0  0
 50 49  1  0  0  0  0
 50 43  1  0  0  0  0
 52 45  1  0  0  0  0
 52 51  1  0  0  0  0
 53 54  1  6  0  0  0
 53 55  1  0  0  0  0
 54 55  1  0  0  0  0
M  END
>  <MODEL>
5

>  <REMARK>
 VINA RESULT:      -7.1      2.138      5.434
  Name = 
  14 active torsions:
  status: ('A' for Active; 'I' for Inactive)
    1  A    between atoms: C_2  and  C_44
    2  A    between atoms: C_8  and  N_22
    3  A    between atoms: C_8  and  C_35
    4  A    between atoms: C_10  and  C_32
    5  A    between atoms: C_11  and  C_38
    6  A    between atoms: C_20  and  C_50
    7  A    between atoms: C_26  and  C_45
    8  A    between atoms: C_27  and  C_54
    9  A    between atoms: C_33  and  N_36
   10  A    between atoms: C_33  and  C_52
   11  A    between atoms: C_35  and  C_43
   12  A    between atoms: C_42  and  C_50
   13  A    between atoms: C_43  and  C_51
   14  A    between atoms: C_51  and  C_54
                            x       y       z     vdW  Elec       q    Type
                         _______ _______ _______ _____ _____    ______ ____

>  <TORSDO>
F 14

$$$$
=
 OpenBabel11052419483D

 55 61  0  0  1  0  0  0  0  0999 V2000
  191.8060  176.3330  146.8440 C   0  0  0  0  0  3  0  0  0  0  0  0
  194.1530  176.6270  145.3480 C   0  0  0  0  0  0  0  0  0  0  0  0
  192.9230  176.4600  144.7010 C   0  0  0  0  0  3  0  0  0  0  0  0
  193.0340  176.5030  147.4930 C   0  0  0  0  0  3  0  0  0  0  0  0
  191.7480  176.3180  145.4420 C   0  0  0  0  0  0  0  0  0  0  0  0
  194.2060  176.6480  146.7450 C   0  0  0  0  0  3  0  0  0  0  0  0
  190.4580  176.1150  144.7190 C   0  0  1  0  0  3  0  0  0  0  0  0
  188.0230  176.5250  144.9500 C   0  0  0  0  0  2  0  0  0  0  0  0
  186.7850  178.2780  143.7030 C   0  0  0  0  0  1  0  0  0  0  0  0
  188.3940  176.8670  142.4010 C   0  0  1  0  0  3  0  0  0  0  0  0
  189.4070  177.1130  145.1860 C   0  0  0  0  0  2  0  0  0  0  0  0
  187.6420  176.9080  141.0810 C   0  0  0  0  0  1  0  0  0  0  0  0
  187.4240  176.9080  143.5950 C   0  0  1  0  0  3  0  0  0  0  0  0
  189.4260  175.7270  142.4060 C   0  0  1  0  0  3  0  0  0  0  0  0
  190.6660  176.1440  143.2030 C   0  0  0  0  0  2  0  0  0  0  0  0
  187.6840  174.0040  141.8510 C   0  0  0  0  0  2  0  0  0  0  0  0
  188.4290  173.6670  139.5010 C   0  0  0  0  0  1  0  0  0  0  0  0
  189.8240  173.2500  142.4020 C   0  0  0  0  0  0  0  0  0  0  0  0
  189.4860  172.5490  141.3760 N   0  0  0  0  0  0  0  0  0  0  0  0
  188.2140  172.9900  140.8410 C   0  0  1  0  0  3  0  0  0  0  0  0
  188.8640  174.3300  142.7620 C   0  0  1  0  0  3  0  0  0  0  0  0
  190.9900  172.9600  143.1730 N   0  0  0  0  0  2  0  0  0  0  0  0
  192.0820  172.1480  142.6620 C   0  0  0  0  0  2  0  0  0  0  0  0
  193.2430  172.7730  144.7800 C   0  0  0  0  0  3  0  0  0  0  0  0
  195.6320  173.1880  144.8350 C   0  0  0  0  0  0  0  0  0  0  0  0
  194.5550  172.5170  142.7640 C   0  0  0  0  0  3  0  0  0  0  0  0
  195.7060  172.8760  143.4710 C   0  0  0  0  0  3  0  0  0  0  0  0
  194.3940  173.1340  145.4850 C   0  0  0  0  0  3  0  0  0  0  0  0
  193.3230  172.4610  143.4210 C   0  0  0  0  0  0  0  0  0  0  0  0
  196.8380  173.5720  145.5830 C   0  0  0  0  0  0  0  0  0  0  0  0
  196.8890  173.4260  146.8310 O   0  0  0  0  0  1  0  0  0  0  0  0
  197.9390  174.1010  144.9170 O   0  0  0  0  0  0  0  0  0  0  0  0
  195.4080  176.7620  144.5520 C   0  0  0  0  0  2  0  0  0  0  0  0
  195.1530  176.4730  143.0800 C   0  0  0  0  0  2  0  0  0  0  0  0
  196.4700  176.3700  142.3250 C   0  0  0  0  0  2  0  0  0  0  0  0
  196.2730  175.6690  140.9930 C   0  0  0  0  0  2  0  0  0  0  0  0
  194.7980  175.4430  140.7180 C   0  0  0  0  0  2  0  0  0  0  0  0
  192.4240  174.1670  139.8000 O   0  0  0  0  0  0  0  0  0  0  0  0
  193.4370  174.1220  139.0540 C   0  0  0  0  0  0  0  0  0  0  0  0
  194.6530  174.7630  139.4440 N   0  0  0  0  0  2  0  0  0  0  0  0
  194.4210  172.4710  137.7040 O   0  0  0  0  0  1  0  0  0  0  0  0
  193.3690  173.3840  137.7550 C   0  0  1  0  0  3  0  0  0  0  0  0
  191.2850  172.9320  136.2500 C   0  0  0  0  0  0  0  0  0  0  0  0
  190.7760  170.5980  137.0950 C   0  0  2  0  0  3  0  0  0  0  0  0
  190.6070  170.9980  134.5890 C   0  0  0  0  0  2  0  0  0  0  0  0
  189.6560  170.6450  137.9300 O   0  0  0  0  0  1  0  0  0  0  0  0
  192.2530  173.2980  135.1180 C   0  0  0  0  0  1  0  0  0  0  0  0
  190.2770  174.0580  136.4270 C   0  0  0  0  0  1  0  0  0  0  0  0
  192.0240  171.1580  137.8000 C   0  0  1  0  0  3  0  0  0  0  0  0
  191.9990  172.6830  137.6020 C   0  0  1  0  0  3  0  0  0  0  0  0
  189.3040  171.5410  135.1590 C   0  0  0  0  0  2  0  0  0  0  0  0
  190.5780  171.5960  135.9850 C   0  0  0  0  0  0  0  0  0  0  0  0
  192.3480  170.7190  139.2460 C   0  0  2  0  0  3  0  0  0  0  0  0
  193.5320  169.8340  139.3130 C   0  0  0  0  0  2  0  0  0  0  0  0
  192.2190  169.3320  139.4330 O   0  0  0  0  0  0  0  0  0  0  0  0
  1  4  1  0  0  0  0
  2  6  1  0  0  0  0
  3  2  2  0  0  0  0
  3  5  1  0  0  0  0
  5  1  2  0  0  0  0
  6  4  2  0  0  0  0
  7 11  1  0  0  0  0
  7  5  1  1  0  0  0
  8 11  1  0  0  0  0
 10 12  1  6  0  0  0
 10 14  1  0  0  0  0
 10 13  1  0  0  0  0
 13  9  1  1  0  0  0
 13  8  1  0  0  0  0
 14 21  1  0  0  0  0
 14 15  1  1  0  0  0
 15  7  1  0  0  0  0
 18 21  1  0  0  0  0
 18 22  1  0  0  0  0
 19 18  2  0  0  0  0
 20 17  1  6  0  0  0
 20 19  1  0  0  0  0
 20 16  1  0  0  0  0
 21 16  1  6  0  0  0
 23 22  1  0  0  0  0
 23 29  1  0  0  0  0
 24 28  1  0  0  0  0
 25 28  2  0  0  0  0
 25 30  1  0  0  0  0
 26 29  1  0  0  0  0
 26 27  2  0  0  0  0
 27 25  1  0  0  0  0
 29 24  2  0  0  0  0
 30 31  1  0  0  0  0
 32 30  2  0  0  0  0
 33  2  1  0  0  0  0
 34 33  1  0  0  0  0
 35 34  1  0  0  0  0
 36 35  1  0  0  0  0
 37 36  1  0  0  0  0
 39 40  1  0  0  0  0
 39 38  2  0  0  0  0
 40 37  1  0  0  0  0
 42 41  1  1  0  0  0
 42 39  1  0  0  0  0
 43 48  1  0  0  0  0
 43 50  1  0  0  0  0
 44 49  1  0  0  0  0
 44 46  1  1  0  0  0
 45 51  1  0  0  0  0
 45 52  1  0  0  0  0
 47 43  1  0  0  0  0
 49 53  1  1  0  0  0
 50 42  1  6  0  0  0
 50 49  1  0  0  0  0
 51 52  1  0  0  0  0
 52 43  1  0  0  0  0
 52 44  1  0  0  0  0
 53 54  1  6  0  0  0
 53 55  1  0  0  0  0
 54 55  1  0  0  0  0
M  END
>  <MODEL>
6

>  <REMARK>
 VINA RESULT:      -7.0      2.156      3.553
  Name = 
  14 active torsions:
  status: ('A' for Active; 'I' for Inactive)
    1  A    between atoms: C_2  and  C_44
    2  A    between atoms: C_8  and  N_22
    3  A    between atoms: C_8  and  C_35
    4  A    between atoms: C_10  and  C_32
    5  A    between atoms: C_11  and  C_38
    6  A    between atoms: C_20  and  C_50
    7  A    between atoms: C_26  and  C_45
    8  A    between atoms: C_27  and  C_54
    9  A    between atoms: C_33  and  N_36
   10  A    between atoms: C_33  and  C_52
   11  A    between atoms: C_35  and  C_43
   12  A    between atoms: C_42  and  C_50
   13  A    between atoms: C_43  and  C_51
   14  A    between atoms: C_51  and  C_54
                            x       y       z     vdW  Elec       q    Type
                         _______ _______ _______ _____ _____    ______ ____

>  <TORSDO>
F 14

$$$$
=
 OpenBabel11052419483D

 55 61  0  0  1  0  0  0  0  0999 V2000
  188.6310  174.5310  140.7030 C   0  0  0  0  0  3  0  0  0  0  0  0
  189.5640  173.1400  142.9450 C   0  0  0  0  0  0  0  0  0  0  0  0
  188.7720  174.2820  143.1060 C   0  0  0  0  0  3  0  0  0  0  0  0
  189.4210  173.3880  140.5390 C   0  0  0  0  0  3  0  0  0  0  0  0
  188.2990  174.9770  141.9900 C   0  0  0  0  0  0  0  0  0  0  0  0
  189.8880  172.6940  141.6600 C   0  0  0  0  0  3  0  0  0  0  0  0
  187.4780  176.2070  142.2000 C   0  0  1  0  0  3  0  0  0  0  0  0
  186.7680  178.2820  141.0430 C   0  0  0  0  0  2  0  0  0  0  0  0
  184.4870  178.6570  140.1390 C   0  0  0  0  0  1  0  0  0  0  0  0
  184.6610  177.6900  142.4430 C   0  0  1  0  0  3  0  0  0  0  0  0
  187.0190  176.7900  140.8710 C   0  0  0  0  0  2  0  0  0  0  0  0
  183.3820  178.3010  142.9910 C   0  0  0  0  0  1  0  0  0  0  0  0
  185.3190  178.6160  141.4050 C   0  0  1  0  0  3  0  0  0  0  0  0
  185.5660  177.2020  143.5860 C   0  0  1  0  0  3  0  0  0  0  0  0
  186.3160  175.9360  143.1580 C   0  0  0  0  0  2  0  0  0  0  0  0
  185.5650  179.3160  144.9420 C   0  0  0  0  0  2  0  0  0  0  0  0
  184.4370  178.3210  146.9250 C   0  0  0  0  0  1  0  0  0  0  0  0
  187.2330  177.7420  145.3810 C   0  0  0  0  0  0  0  0  0  0  0  0
  186.8240  178.1150  146.5430 N   0  0  0  0  0  0  0  0  0  0  0  0
  185.6930  179.0150  146.4330 C   0  0  1  0  0  3  0  0  0  0  0  0
  186.4500  178.2910  144.2390 C   0  0  1  0  0  3  0  0  0  0  0  0
  188.3930  176.9290  145.2060 N   0  0  0  0  0  2  0  0  0  0  0  0
  188.9590  176.1350  146.2820 C   0  0  0  0  0  2  0  0  0  0  0  0
  191.0470  176.6940  145.0360 C   0  0  0  0  0  3  0  0  0  0  0  0
  193.2260  176.0070  145.8490 C   0  0  0  0  0  0  0  0  0  0  0  0
  191.2260  175.4980  147.1300 C   0  0  0  0  0  3  0  0  0  0  0  0
  192.6140  175.4410  146.9760 C   0  0  0  0  0  3  0  0  0  0  0  0
  192.4340  176.6340  144.8810 C   0  0  0  0  0  3  0  0  0  0  0  0
  190.4430  176.1300  146.1610 C   0  0  0  0  0  0  0  0  0  0  0  0
  194.6850  175.9450  145.6780 C   0  0  0  0  0  0  0  0  0  0  0  0
  195.2810  176.7950  144.9680 O   0  0  0  0  0  0  0  0  0  0  0  0
  195.4230  174.9440  146.3000 O   0  0  0  0  0  1  0  0  0  0  0  0
  190.0820  172.4110  144.1400 C   0  0  0  0  0  2  0  0  0  0  0  0
  191.4050  172.9990  144.6060 C   0  0  0  0  0  2  0  0  0  0  0  0
  192.5600  172.3830  143.8320 C   0  0  0  0  0  2  0  0  0  0  0  0
  193.4480  173.4630  143.2410 C   0  0  0  0  0  2  0  0  0  0  0  0
  194.3070  172.9000  142.1240 C   0  0  0  0  0  2  0  0  0  0  0  0
  193.9890  174.8290  140.0540 O   0  0  0  0  0  0  0  0  0  0  0  0
  193.3550  173.7460  139.9470 C   0  0  0  0  0  0  0  0  0  0  0  0
  193.4880  172.7270  140.9380 N   0  0  0  0  0  2  0  0  0  0  0  0
  192.6790  174.5390  137.8410 O   0  0  0  0  0  1  0  0  0  0  0  0
  192.4470  173.5320  138.7780 C   0  0  1  0  0  3  0  0  0  0  0  0
  191.3860  171.4290  137.6530 C   0  0  0  0  0  0  0  0  0  0  0  0
  193.3730  170.7970  136.2110 C   0  0  2  0  0  3  0  0  0  0  0  0
  191.0650  170.6530  135.1520 C   0  0  0  0  0  2  0  0  0  0  0  0
  194.0050  169.6800  136.7640 O   0  0  0  0  0  1  0  0  0  0  0  0
  190.2730  172.4160  137.2830 C   0  0  0  0  0  1  0  0  0  0  0  0
  190.8750  170.4810  138.7280 C   0  0  0  0  0  1  0  0  0  0  0  0
  193.6830  172.0720  137.0150 C   0  0  1  0  0  3  0  0  0  0  0  0
  192.6690  172.1280  138.1700 C   0  0  1  0  0  3  0  0  0  0  0  0
  191.1960  169.3790  135.9760 C   0  0  0  0  0  2  0  0  0  0  0  0
  191.8890  170.6530  136.4280 C   0  0  0  0  0  0  0  0  0  0  0  0
  195.1380  172.3710  137.4440 C   0  0  2  0  0  3  0  0  0  0  0  0
  195.7090  173.5300  136.7230 C   0  0  0  0  0  2  0  0  0  0  0  0
  196.0580  172.2020  136.3940 O   0  0  0  0  0  0  0  0  0  0  0  0
  1  5  1  0  0  0  0
  2  3  1  0  0  0  0
  2 33  1  0  0  0  0
  4  1  2  0  0  0  0
  4  6  1  0  0  0  0
  5  3  2  0  0  0  0
  6  2  2  0  0  0  0
  7  5  1  6  0  0  0
  7 15  1  0  0  0  0
  8 13  1  0  0  0  0
 10 12  1  1  0  0  0
 10 14  1  0  0  0  0
 11  8  1  0  0  0  0
 11  7  1  0  0  0  0
 13  9  1  6  0  0  0
 13 10  1  0  0  0  0
 14 15  1  6  0  0  0
 14 21  1  0  0  0  0
 16 20  1  0  0  0  0
 18 19  2  0  0  0  0
 20 19  1  0  0  0  0
 20 17  1  6  0  0  0
 21 16  1  1  0  0  0
 21 18  1  0  0  0  0
 22 18  1  0  0  0  0
 22 23  1  0  0  0  0
 24 29  1  0  0  0  0
 25 27  2  0  0  0  0
 27 26  1  0  0  0  0
 28 24  2  0  0  0  0
 28 25  1  0  0  0  0
 29 23  1  0  0  0  0
 29 26  2  0  0  0  0
 30 25  1  0  0  0  0
 30 32  1  0  0  0  0
 31 30  2  0  0  0  0
 33 34  1  0  0  0  0
 35 34  1  0  0  0  0
 36 35  1  0  0  0  0
 37 36  1  0  0  0  0
 39 38  2  0  0  0  0
 39 40  1  0  0  0  0
 40 37  1  0  0  0  0
 42 41  1  6  0  0  0
 42 39  1  0  0  0  0
 43 50  1  0  0  0  0
 43 48  1  0  0  0  0
 44 52  1  0  0  0  0
 44 46  1  1  0  0  0
 44 49  1  0  0  0  0
 45 51  1  0  0  0  0
 45 52  1  0  0  0  0
 47 43  1  0  0  0  0
 49 53  1  1  0  0  0
 49 50  1  0  0  0  0
 50 42  1  6  0  0  0
 51 52  1  0  0  0  0
 52 43  1  0  0  0  0
 53 54  1  6  0  0  0
 55 54  1  0  0  0  0
 55 53  1  0  0  0  0
M  END
>  <MODEL>
7

>  <REMARK>
 VINA RESULT:      -6.9      2.082      4.401
  Name = 
  14 active torsions:
  status: ('A' for Active; 'I' for Inactive)
    1  A    between atoms: C_2  and  C_44
    2  A    between atoms: C_8  and  N_22
    3  A    between atoms: C_8  and  C_35
    4  A    between atoms: C_10  and  C_32
    5  A    between atoms: C_11  and  C_38
    6  A    between atoms: C_20  and  C_50
    7  A    between atoms: C_26  and  C_45
    8  A    between atoms: C_27  and  C_54
    9  A    between atoms: C_33  and  N_36
   10  A    between atoms: C_33  and  C_52
   11  A    between atoms: C_35  and  C_43
   12  A    between atoms: C_42  and  C_50
   13  A    between atoms: C_43  and  C_51
   14  A    between atoms: C_51  and  C_54
                            x       y       z     vdW  Elec       q    Type
                         _______ _______ _______ _____ _____    ______ ____

>  <TORSDO>
F 14

$$$$
=
 OpenBabel11052419483D

 55 61  0  0  1  0  0  0  0  0999 V2000
  193.5490  175.3730  141.1900 C   0  0  0  0  0  3  0  0  0  0  0  0
  193.4580  173.2100  142.9630 C   0  0  0  0  0  0  0  0  0  0  0  0
  193.6760  172.9910  141.5990 C   0  0  0  0  0  3  0  0  0  0  0  0
  193.3330  175.5950  142.5540 C   0  0  0  0  0  3  0  0  0  0  0  0
  193.7280  174.0670  140.7100 C   0  0  0  0  0  0  0  0  0  0  0  0
  193.2860  174.5140  143.4400 C   0  0  0  0  0  3  0  0  0  0  0  0
  193.9370  173.7940  139.2570 C   0  0  1  0  0  3  0  0  0  0  0  0
  193.5250  172.0590  137.5340 C   0  0  0  0  0  2  0  0  0  0  0  0
  191.7830  172.2360  135.7740 C   0  0  0  0  0  1  0  0  0  0  0  0
  193.2070  174.2560  136.1830 C   0  0  1  0  0  3  0  0  0  0  0  0
  192.9350  172.7700  138.7440 C   0  0  0  0  0  2  0  0  0  0  0  0
  193.1780  174.7870  134.7600 C   0  0  0  0  0  1  0  0  0  0  0  0
  193.1540  172.7180  136.2030 C   0  0  1  0  0  3  0  0  0  0  0  0
  194.3470  174.9050  136.9840 C   0  0  1  0  0  3  0  0  0  0  0  0
  193.9230  175.0910  138.4450 C   0  0  0  0  0  2  0  0  0  0  0  0
  196.2400  174.5360  135.3740 C   0  0  0  0  0  2  0  0  0  0  0  0
  196.7470  176.9520  135.0540 C   0  0  0  0  0  1  0  0  0  0  0  0
  196.7760  174.9500  137.6090 C   0  0  0  0  0  0  0  0  0  0  0  0
  197.5970  175.6800  136.9360 N   0  0  0  0  0  0  0  0  0  0  0  0
  197.3050  175.6200  135.5180 C   0  0  1  0  0  3  0  0  0  0  0  0
  195.7410  174.2610  136.7900 C   0  0  1  0  0  3  0  0  0  0  0  0
  196.9040  174.7600  139.0180 N   0  0  0  0  0  2  0  0  0  0  0  0
  197.6780  175.6560  139.8590 C   0  0  0  0  0  2  0  0  0  0  0  0
  197.4540  174.0060  141.7170 C   0  0  0  0  0  3  0  0  0  0  0  0
  196.7940  174.6960  143.9460 C   0  0  0  0  0  0  0  0  0  0  0  0
  197.0640  176.3460  142.1850 C   0  0  0  0  0  3  0  0  0  0  0  0
  196.7570  176.0270  143.5110 C   0  0  0  0  0  3  0  0  0  0  0  0
  197.1440  173.6880  143.0410 C   0  0  0  0  0  3  0  0  0  0  0  0
  197.4180  175.3340  141.2890 C   0  0  0  0  0  0  0  0  0  0  0  0
  196.4660  174.3530  145.3380 C   0  0  0  0  0  0  0  0  0  0  0  0
  195.6310  175.0360  145.9840 O   0  0  0  0  0  1  0  0  0  0  0  0
  197.0780  173.2680  145.9570 O   0  0  0  0  0  0  0  0  0  0  0  0
  193.3850  172.0560  143.9070 C   0  0  0  0  0  2  0  0  0  0  0  0
  192.0520  172.0330  144.6380 C   0  0  0  0  0  2  0  0  0  0  0  0
  190.9060  171.9250  143.6450 C   0  0  0  0  0  2  0  0  0  0  0  0
  189.7200  172.7580  144.0980 C   0  0  0  0  0  2  0  0  0  0  0  0
  189.9690  173.3420  145.4760 C   0  0  0  0  0  2  0  0  0  0  0  0
  188.6900  174.7460  147.5970 O   0  0  0  0  0  0  0  0  0  0  0  0
  188.9680  175.3920  146.5520 C   0  0  0  0  0  0  0  0  0  0  0  0
  189.6320  174.7540  145.4600 N   0  0  0  0  0  2  0  0  0  0  0  0
  189.7200  177.5690  146.0850 O   0  0  0  0  0  1  0  0  0  0  0  0
  188.5910  176.8360  146.4510 C   0  0  1  0  0  3  0  0  0  0  0  0
  186.1740  177.7170  146.0090 C   0  0  0  0  0  0  0  0  0  0  0  0
  186.5010  178.3520  143.5780 C   0  0  2  0  0  3  0  0  0  0  0  0
  185.1900  179.9650  145.0430 C   0  0  0  0  0  2  0  0  0  0  0  0
  185.8670  177.4060  142.7670 O   0  0  0  0  0  1  0  0  0  0  0  0
  186.4710  178.6000  147.2270 C   0  0  0  0  0  1  0  0  0  0  0  0
  185.1640  176.6490  146.4030 C   0  0  0  0  0  1  0  0  0  0  0  0
  187.8120  177.7990  144.1640 C   0  0  1  0  0  3  0  0  0  0  0  0
  187.4380  177.0250  145.4390 C   0  0  1  0  0  3  0  0  0  0  0  0
  184.1930  178.8760  144.6740 C   0  0  0  0  0  2  0  0  0  0  0  0
  185.6680  178.5420  144.8180 C   0  0  0  0  0  0  0  0  0  0  0  0
  188.8050  177.0510  143.2450 C   0  0  2  0  0  3  0  0  0  0  0  0
  190.0120  177.8550  142.9500 C   0  0  0  0  0  2  0  0  0  0  0  0
  188.9790  177.6860  142.0040 O   0  0  0  0  0  0  0  0  0  0  0  0
  1  4  1  0  0  0  0
  2  6  1  0  0  0  0
  2 33  1  0  0  0  0
  3  2  2  0  0  0  0
  4  6  2  0  0  0  0
  5  1  2  0  0  0  0
  5  3  1  0  0  0  0
  7  5  1  1  0  0  0
  8 11  1  0  0  0  0
 10 12  1  6  0  0  0
 10 13  1  0  0  0  0
 10 14  1  0  0  0  0
 11  7  1  0  0  0  0
 13  9  1  1  0  0  0
 13  8  1  0  0  0  0
 14 15  1  1  0  0  0
 15  7  1  0  0  0  0
 16 20  1  0  0  0  0
 18 22  1  0  0  0  0
 19 18  2  0  0  0  0
 20 17  1  1  0  0  0
 20 19  1  0  0  0  0
 21 16  1  6  0  0  0
 21 14  1  0  0  0  0
 21 18  1  0  0  0  0
 22 23  1  0  0  0  0
 23 29  1  0  0  0  0
 24 28  1  0  0  0  0
 25 30  1  0  0  0  0
 26 27  2  0  0  0  0
 27 25  1  0  0  0  0
 28 25  2  0  0  0  0
 29 24  2  0  0  0  0
 29 26  1  0  0  0  0
 30 32  2  0  0  0  0
 30 31  1  0  0  0  0
 33 34  1  0  0  0  0
 35 36  1  0  0  0  0
 35 34  1  0  0  0  0
 36 37  1  0  0  0  0
 39 38  2  0  0  0  0
 40 37  1  0  0  0  0
 40 39  1  0  0  0  0
 42 41  1  6  0  0  0
 42 39  1  0  0  0  0
 43 48  1  0  0  0  0
 43 47  1  0  0  0  0
 44 46  1  6  0  0  0
 44 49  1  0  0  0  0
 44 52  1  0  0  0  0
 49 53  1  6  0  0  0
 49 50  1  0  0  0  0
 50 43  1  0  0  0  0
 50 42  1  1  0  0  0
 51 52  1  0  0  0  0
 51 45  1  0  0  0  0
 52 45  1  0  0  0  0
 52 43  1  0  0  0  0
 53 54  1  1  0  0  0
 55 54  1  0  0  0  0
 55 53  1  0  0  0  0
M  END
>  <MODEL>
8

>  <REMARK>
 VINA RESULT:      -6.9      2.669      9.673
  Name = 
  14 active torsions:
  status: ('A' for Active; 'I' for Inactive)
    1  A    between atoms: C_2  and  C_44
    2  A    between atoms: C_8  and  N_22
    3  A    between atoms: C_8  and  C_35
    4  A    between atoms: C_10  and  C_32
    5  A    between atoms: C_11  and  C_38
    6  A    between atoms: C_20  and  C_50
    7  A    between atoms: C_26  and  C_45
    8  A    between atoms: C_27  and  C_54
    9  A    between atoms: C_33  and  N_36
   10  A    between atoms: C_33  and  C_52
   11  A    between atoms: C_35  and  C_43
   12  A    between atoms: C_42  and  C_50
   13  A    between atoms: C_43  and  C_51
   14  A    between atoms: C_51  and  C_54
                            x       y       z     vdW  Elec       q    Type
                         _______ _______ _______ _____ _____    ______ ____

>  <TORSDO>
F 14

$$$$
=
 OpenBabel11052419483D

 55 61  0  0  1  0  0  0  0  0999 V2000
  189.0930  174.6650  140.8340 C   0  0  0  0  0  3  0  0  0  0  0  0
  189.7180  173.1090  143.0750 C   0  0  0  0  0  0  0  0  0  0  0  0
  188.9050  174.2400  143.2090 C   0  0  0  0  0  3  0  0  0  0  0  0
  189.9030  173.5330  140.6970 C   0  0  0  0  0  3  0  0  0  0  0  0
  188.5850  175.0170  142.0930 C   0  0  0  0  0  0  0  0  0  0  0  0
  190.2170  172.7570  141.8170 C   0  0  0  0  0  3  0  0  0  0  0  0
  187.7360  176.2320  142.2790 C   0  0  1  0  0  3  0  0  0  0  0  0
  187.0150  178.2880  141.0960 C   0  0  0  0  0  2  0  0  0  0  0  0
  184.7480  178.6160  140.1380 C   0  0  0  0  0  1  0  0  0  0  0  0
  184.8870  177.6620  142.4500 C   0  0  1  0  0  3  0  0  0  0  0  0
  187.2980  176.8010  140.9370 C   0  0  0  0  0  2  0  0  0  0  0  0
  183.5850  178.2510  142.9660 C   0  0  0  0  0  1  0  0  0  0  0  0
  185.5510  178.5960  141.4230 C   0  0  1  0  0  3  0  0  0  0  0  0
  185.7740  177.1960  143.6160 C   0  0  1  0  0  3  0  0  0  0  0  0
  186.5580  175.9430  143.2110 C   0  0  0  0  0  2  0  0  0  0  0  0
  185.7030  179.3160  144.9610 C   0  0  0  0  0  2  0  0  0  0  0  0
  184.5470  178.3090  146.9210 C   0  0  0  0  0  1  0  0  0  0  0  0
  187.3890  177.7760  145.4460 C   0  0  0  0  0  0  0  0  0  0  0  0
  186.9460  178.1470  146.5970 N   0  0  0  0  0  0  0  0  0  0  0  0
  185.8020  179.0250  146.4550 C   0  0  1  0  0  3  0  0  0  0  0  0
  186.6230  178.3040  144.2840 C   0  0  1  0  0  3  0  0  0  0  0  0
  188.5680  176.9830  145.3030 N   0  0  0  0  0  2  0  0  0  0  0  0
  189.1230  176.2050  146.3960 C   0  0  0  0  0  2  0  0  0  0  0  0
  191.1410  176.3800  144.9410 C   0  0  0  0  0  3  0  0  0  0  0  0
  193.2680  175.4280  145.6100 C   0  0  0  0  0  0  0  0  0  0  0  0
  191.3470  175.2910  147.0890 C   0  0  0  0  0  3  0  0  0  0  0  0
  192.6920  175.0220  146.8210 C   0  0  0  0  0  3  0  0  0  0  0  0
  192.4840  176.1090  144.6720 C   0  0  0  0  0  3  0  0  0  0  0  0
  190.5730  175.9750  146.1500 C   0  0  0  0  0  0  0  0  0  0  0  0
  194.6810  175.1430  145.3190 C   0  0  0  0  0  0  0  0  0  0  0  0
  195.4930  174.9180  146.2540 O   0  0  0  0  0  1  0  0  0  0  0  0
  195.1370  175.1190  144.0050 O   0  0  0  0  0  0  0  0  0  0  0  0
  190.0720  172.2910  144.2720 C   0  0  0  0  0  2  0  0  0  0  0  0
  191.5370  172.4690  144.6390 C   0  0  0  0  0  2  0  0  0  0  0  0
  192.3340  171.2340  144.2480 C   0  0  0  0  0  2  0  0  0  0  0  0
  193.3330  171.5620  143.1530 C   0  0  0  0  0  2  0  0  0  0  0  0
  193.5450  170.3670  142.2430 C   0  0  0  0  0  2  0  0  0  0  0  0
  191.7910  170.2370  140.0040 O   0  0  0  0  0  0  0  0  0  0  0  0
  192.9380  170.7220  139.8200 C   0  0  0  0  0  0  0  0  0  0  0  0
  193.8580  170.8380  140.9070 N   0  0  0  0  0  2  0  0  0  0  0  0
  193.0420  170.1580  137.5420 O   0  0  0  0  0  1  0  0  0  0  0  0
  193.3430  171.1710  138.4520 C   0  0  1  0  0  3  0  0  0  0  0  0
  193.5850  173.6710  137.7410 C   0  0  0  0  0  0  0  0  0  0  0  0
  191.4670  173.8190  136.3580 C   0  0  2  0  0  3  0  0  0  0  0  0
  193.5550  174.9280  135.4220 C   0  0  0  0  0  2  0  0  0  0  0  0
  190.5020  174.5380  137.0690 O   0  0  0  0  0  1  0  0  0  0  0  0
  194.9610  173.2060  137.2490 C   0  0  0  0  0  1  0  0  0  0  0  0
  193.7650  174.5360  138.9790 C   0  0  0  0  0  1  0  0  0  0  0  0
  191.6350  172.3970  136.9210 C   0  0  1  0  0  3  0  0  0  0  0  0
  192.6350  172.4950  138.0850 C   0  0  1  0  0  3  0  0  0  0  0  0
  193.0140  175.9170  136.4460 C   0  0  0  0  0  2  0  0  0  0  0  0
  192.8140  174.4250  136.6480 C   0  0  0  0  0  0  0  0  0  0  0  0
  190.3840  171.5470  137.2390 C   0  0  2  0  0  3  0  0  0  0  0  0
  190.0670  170.5870  136.1590 C   0  0  0  0  0  2  0  0  0  0  0  0
  189.3290  171.7760  136.3390 O   0  0  0  0  0  0  0  0  0  0  0  0
  1  5  1  0  0  0  0
  2  3  1  0  0  0  0
  2 33  1  0  0  0  0
  4  1  2  0  0  0  0
  4  6  1  0  0  0  0
  5  3  2  0  0  0  0
  6  2  2  0  0  0  0
  7  5  1  6  0  0  0
  7 15  1  0  0  0  0
  8 13  1  0  0  0  0
 10 12  1  1  0  0  0
 10 14  1  0  0  0  0
 11  8  1  0  0  0  0
 11  7  1  0  0  0  0
 13  9  1  6  0  0  0
 13 10  1  0  0  0  0
 14 15  1  6  0  0  0
 14 21  1  0  0  0  0
 16 20  1  0  0  0  0
 18 19  2  0  0  0  0
 20 19  1  0  0  0  0
 20 17  1  6  0  0  0
 21 16  1  1  0  0  0
 21 18  1  0  0  0  0
 22 18  1  0  0  0  0
 22 23  1  0  0  0  0
 24 29  1  0  0  0  0
 25 27  2  0  0  0  0
 27 26  1  0  0  0  0
 28 24  2  0  0  0  0
 28 25  1  0  0  0  0
 29 23  1  0  0  0  0
 29 26  2  0  0  0  0
 30 25  1  0  0  0  0
 30 31  1  0  0  0  0
 32 30  2  0  0  0  0
 33 34  1  0  0  0  0
 35 34  1  0  0  0  0
 36 35  1  0  0  0  0
 37 36  1  0  0  0  0
 39 38  2  0  0  0  0
 39 40  1  0  0  0  0
 40 37  1  0  0  0  0
 42 41  1  6  0  0  0
 42 39  1  0  0  0  0
 43 50  1  0  0  0  0
 43 48  1  0  0  0  0
 44 52  1  0  0  0  0
 44 49  1  0  0  0  0
 44 46  1  1  0  0  0
 45 51  1  0  0  0  0
 45 52  1  0  0  0  0
 47 43  1  0  0  0  0
 49 53  1  1  0  0  0
 49 50  1  0  0  0  0
 50 42  1  6  0  0  0
 51 52  1  0  0  0  0
 52 43  1  0  0  0  0
 53 54  1  6  0  0  0
 54 55  1  0  0  0  0
 55 53  1  0  0  0  0
M  END
>  <MODEL>
9

>  <REMARK>
 VINA RESULT:      -6.6      2.246      4.932
  Name = 
  14 active torsions:
  status: ('A' for Active; 'I' for Inactive)
    1  A    between atoms: C_2  and  C_44
    2  A    between atoms: C_8  and  N_22
    3  A    between atoms: C_8  and  C_35
    4  A    between atoms: C_10  and  C_32
    5  A    between atoms: C_11  and  C_38
    6  A    between atoms: C_20  and  C_50
    7  A    between atoms: C_26  and  C_45
    8  A    between atoms: C_27  and  C_54
    9  A    between atoms: C_33  and  N_36
   10  A    between atoms: C_33  and  C_52
   11  A    between atoms: C_35  and  C_43
   12  A    between atoms: C_42  and  C_50
   13  A    between atoms: C_43  and  C_51
   14  A    between atoms: C_51  and  C_54
                            x       y       z     vdW  Elec       q    Type
                         _______ _______ _______ _____ _____    ______ ____

>  <TORSDO>
F 14

$$$$
