=
 OpenBabel11052421243D

 43 47  0  0  1  0  0  0  0  0999 V2000
  189.9270  173.6370  142.9730 N   0  0  0  0  0  0  0  0  0  0  0  0
  188.5570  174.3620  141.1760 C   0  0  2  0  0  3  0  0  0  0  0  0
  188.4370  172.1330  142.0010 O   0  0  0  0  0  1  0  0  0  0  0  0
  188.6050  173.4610  142.3990 C   0  0  1  0  0  3  0  0  0  0  0  0
  190.3400  172.9500  144.1690 C   0  0  0  0  0  0  0  0  0  0  0  0
  189.4630  172.5400  144.9760 O   0  0  0  0  0  0  0  0  0  0  0  0
  190.7660  174.5450  142.2040 C   0  0  1  0  0  3  0  0  0  0  0  0
  189.9990  174.7980  140.9190 C   0  0  0  0  0  2  0  0  0  0  0  0
  194.4750  172.2310  145.0490 C   0  0  0  0  0  0  0  0  0  0  0  0
  192.4940  171.7070  143.7530 C   0  0  0  0  0  0  0  0  0  0  0  0
  193.7640  173.2090  145.7470 C   0  0  0  0  0  3  0  0  0  0  0  0
  196.1550  171.9320  145.4310 Cl  0  0  0  0  0  0  0  0  0  0  0  0
  191.7670  172.6880  144.4590 C   0  0  0  0  0  0  0  0  0  0  0  0
  193.8410  171.4830  144.0550 C   0  0  0  0  0  3  0  0  0  0  0  0
  192.4180  173.4360  145.4520 C   0  0  0  0  0  3  0  0  0  0  0  0
  191.8880  170.9370  142.7670 O   0  0  0  0  0  1  0  0  0  0  0  0
  187.6450  175.5290  141.4360 C   0  0  0  0  0  0  0  0  0  0  0  0
  186.8570  175.5440  142.6280 N   0  0  0  0  0  2  0  0  0  0  0  0
  187.5430  176.4680  140.5990 O   0  0  0  0  0  0  0  0  0  0  0  0
  185.9870  176.6550  142.9700 C   0  0  0  0  0  2  0  0  0  0  0  0
  186.7910  177.7040  143.7140 C   0  0  0  0  0  2  0  0  0  0  0  0
  186.3910  177.7480  145.1540 C   0  0  0  0  0  0  0  0  0  0  0  0
  186.5850  176.9890  147.4530 C   0  0  0  0  0  3  0  0  0  0  0  0
  185.3710  178.6230  145.5410 C   0  0  0  0  0  3  0  0  0  0  0  0
  184.9580  178.6810  146.8740 C   0  0  0  0  0  3  0  0  0  0  0  0
  187.0130  176.9300  146.1200 C   0  0  0  0  0  0  0  0  0  0  0  0
  185.5620  177.8620  147.8290 C   0  0  0  0  0  3  0  0  0  0  0  0
  188.1280  175.9980  145.7500 C   0  0  0  0  0  2  0  0  0  0  0  0
  189.3160  176.2070  146.6310 C   0  0  0  0  0  0  0  0  0  0  0  0
  191.4860  176.6160  148.3100 C   0  0  0  0  0  3  0  0  0  0  0  0
  190.8560  177.6860  147.6710 C   0  0  0  0  0  3  0  0  0  0  0  0
  191.0120  175.3210  148.0980 C   0  0  0  0  0  3  0  0  0  0  0  0
  189.7930  177.4620  146.8530 N   0  0  0  0  0  0  0  0  0  0  0  0
  189.9190  175.1110  147.2550 C   0  0  0  0  0  3  0  0  0  0  0  0
  190.9310  175.8770  142.9330 C   0  0  0  0  0  2  0  0  0  0  0  0
  194.1780  176.9020  144.7420 C   0  0  1  0  0  3  0  0  0  0  0  0
  195.1090  175.9810  143.9880 C   0  0  0  0  0  0  0  0  0  0  0  0
  196.1970  175.6660  144.4450 O   0  0  0  0  0  0  0  0  0  0  0  0
  193.2760  175.1490  142.5280 C   0  0  0  0  0  2  0  0  0  0  0  0
  192.7270  176.4530  144.5770 C   0  0  0  0  0  2  0  0  0  0  0  0
  192.3920  176.2520  143.0990 C   0  0  2  0  0  3  0  0  0  0  0  0
  194.5130  176.9730  146.2230 C   0  0  0  0  0  1  0  0  0  0  0  0
  194.7450  175.5590  142.5950 C   0  0  0  0  0  2  0  0  0  0  0  0
  1  5  1  0  0  0  0
  2 17  1  1  0  0  0
  2  4  1  0  0  0  0
  4  3  1  6  0  0  0
  4  1  1  0  0  0  0
  5 13  1  0  0  0  0
  5  6  2  0  0  0  0
  7 35  1  1  0  0  0
  7  1  1  0  0  0  0
  8  2  1  0  0  0  0
  8  7  1  0  0  0  0
  9 12  1  0  0  0  0
  9 11  1  0  0  0  0
 10 14  1  0  0  0  0
 10 13  2  0  0  0  0
 13 15  1  0  0  0  0
 14  9  2  0  0  0  0
 15 11  2  0  0  0  0
 16 10  1  0  0  0  0
 17 18  1  0  0  0  0
 18 20  1  0  0  0  0
 19 17  2  0  0  0  0
 20 21  1  0  0  0  0
 21 22  1  0  0  0  0
 22 24  2  0  0  0  0
 22 26  1  0  0  0  0
 23 27  1  0  0  0  0
 24 25  1  0  0  0  0
 25 27  2  0  0  0  0
 26 23  2  0  0  0  0
 28 26  1  0  0  0  0
 28 29  1  0  0  0  0
 29 33  2  0  0  0  0
 29 34  1  0  0  0  0
 31 30  2  0  0  0  0
 32 30  1  0  0  0  0
 33 31  1  0  0  0  0
 34 32  2  0  0  0  0
 36 42  1  1  0  0  0
 37 38  2  0  0  0  0
 37 36  1  0  0  0  0
 39 43  1  0  0  0  0
 39 41  1  0  0  0  0
 40 36  1  0  0  0  0
 41 35  1  1  0  0  0
 41 40  1  0  0  0  0
 43 37  1  0  0  0  0
M  END
>  <MODEL>
1

>  <REMARK>
 VINA RESULT:      -8.1      0.000      0.000
  Name = 
  9 active torsions:
  status: ('A' for Active; 'I' for Inactive)
    1  A    between atoms: C_1  and  C_34
    2  A    between atoms: C_1  and  C_35
    3  A    between atoms: C_2  and  C_13
    4  A    between atoms: C_3  and  C_4
    5  A    between atoms: C_3  and  C_12
    6  A    between atoms: N_6  and  C_12
    7  A    between atoms: C_11  and  C_14
    8  A    between atoms: C_14  and  C_41
    9  A    between atoms: C_21  and  C_30
                            x       y       z     vdW  Elec       q    Type
                         _______ _______ _______ _____ _____    ______ ____

>  <TORSDO>
F 9

$$$$
=
 OpenBabel11052421243D

 43 47  0  0  1  0  0  0  0  0999 V2000
  190.3310  173.3250  142.9010 N   0  0  0  0  0  0  0  0  0  0  0  0
  188.7960  173.9910  141.2180 C   0  0  2  0  0  3  0  0  0  0  0  0
  188.9760  171.7180  141.8990 O   0  0  0  0  0  1  0  0  0  0  0  0
  189.0100  173.0290  142.3760 C   0  0  1  0  0  3  0  0  0  0  0  0
  190.8810  172.6210  144.0300 C   0  0  0  0  0  0  0  0  0  0  0  0
  190.0990  172.0630  144.8460 O   0  0  0  0  0  0  0  0  0  0  0  0
  191.0190  174.3710  142.1580 C   0  0  1  0  0  3  0  0  0  0  0  0
  190.1640  174.6080  140.9280 C   0  0  0  0  0  2  0  0  0  0  0  0
  195.1090  172.3370  144.6830 C   0  0  0  0  0  0  0  0  0  0  0  0
  193.1640  171.8090  143.3350 C   0  0  0  0  0  0  0  0  0  0  0  0
  194.3020  173.0400  145.5790 C   0  0  0  0  0  3  0  0  0  0  0  0
  196.8290  172.2090  144.9710 Cl  0  0  0  0  0  0  0  0  0  0  0  0
  192.3410  172.5120  144.2400 C   0  0  0  0  0  0  0  0  0  0  0  0
  194.5410  171.7230  143.5640 C   0  0  0  0  0  3  0  0  0  0  0  0
  192.9260  173.1280  145.3560 C   0  0  0  0  0  3  0  0  0  0  0  0
  192.6270  171.1770  142.2200 O   0  0  0  0  0  1  0  0  0  0  0  0
  187.7700  175.0240  141.5940 C   0  0  0  0  0  0  0  0  0  0  0  0
  187.6650  176.2160  140.8130 N   0  0  0  0  0  2  0  0  0  0  0  0
  187.0340  174.8660  142.6070 O   0  0  0  0  0  0  0  0  0  0  0  0
  186.6710  177.2390  141.0860 C   0  0  0  0  0  2  0  0  0  0  0  0
  187.2650  178.2730  142.0220 C   0  0  0  0  0  2  0  0  0  0  0  0
  186.5870  178.2260  143.3540 C   0  0  0  0  0  0  0  0  0  0  0  0
  186.6240  177.9450  145.7660 C   0  0  0  0  0  3  0  0  0  0  0  0
  185.2000  178.4010  143.4070 C   0  0  0  0  0  3  0  0  0  0  0  0
  184.5280  178.3470  144.6310 C   0  0  0  0  0  3  0  0  0  0  0  0
  187.3090  178.0060  144.5450 C   0  0  0  0  0  0  0  0  0  0  0  0
  185.2390  178.1150  145.8090 C   0  0  0  0  0  3  0  0  0  0  0  0
  188.8000  177.8400  144.5330 C   0  0  0  0  0  2  0  0  0  0  0  0
  189.2430  176.9020  145.6070 C   0  0  0  0  0  0  0  0  0  0  0  0
  190.1010  175.1300  147.5620 C   0  0  0  0  0  3  0  0  0  0  0  0
  189.2030  174.7310  146.5710 C   0  0  0  0  0  3  0  0  0  0  0  0
  190.5730  176.4430  147.5650 C   0  0  0  0  0  3  0  0  0  0  0  0
  188.7960  175.6160  145.6220 N   0  0  0  0  0  0  0  0  0  0  0  0
  190.1440  177.3370  146.5820 C   0  0  0  0  0  3  0  0  0  0  0  0
  191.0670  175.6660  142.9650 C   0  0  0  0  0  2  0  0  0  0  0  0
  194.2640  176.8130  144.7910 C   0  0  1  0  0  3  0  0  0  0  0  0
  195.2520  176.0930  143.9030 C   0  0  0  0  0  0  0  0  0  0  0  0
  196.3860  175.8450  144.2860 O   0  0  0  0  0  0  0  0  0  0  0  0
  193.4550  175.2480  142.4060 C   0  0  0  0  0  2  0  0  0  0  0  0
  192.8620  176.2330  144.6150 C   0  0  0  0  0  2  0  0  0  0  0  0
  192.4870  176.1740  143.1340 C   0  0  2  0  0  3  0  0  0  0  0  0
  194.6510  176.7430  146.2590 C   0  0  0  0  0  1  0  0  0  0  0  0
  194.8760  175.8030  142.4800 C   0  0  0  0  0  2  0  0  0  0  0  0
  1  5  1  0  0  0  0
  2 17  1  1  0  0  0
  2  4  1  0  0  0  0
  4  3  1  6  0  0  0
  4  1  1  0  0  0  0
  5 13  1  0  0  0  0
  5  6  2  0  0  0  0
  7  1  1  0  0  0  0
  7 35  1  1  0  0  0
  8  2  1  0  0  0  0
  8  7  1  0  0  0  0
  9 12  1  0  0  0  0
  9 11  1  0  0  0  0
 10 14  1  0  0  0  0
 10 13  2  0  0  0  0
 13 15  1  0  0  0  0
 14  9  2  0  0  0  0
 15 11  2  0  0  0  0
 16 10  1  0  0  0  0
 17 19  2  0  0  0  0
 18 20  1  0  0  0  0
 18 17  1  0  0  0  0
 20 21  1  0  0  0  0
 21 22  1  0  0  0  0
 22 24  2  0  0  0  0
 22 26  1  0  0  0  0
 23 27  1  0  0  0  0
 24 25  1  0  0  0  0
 25 27  2  0  0  0  0
 26 23  2  0  0  0  0
 28 26  1  0  0  0  0
 28 29  1  0  0  0  0
 29 33  2  0  0  0  0
 29 34  1  0  0  0  0
 30 32  1  0  0  0  0
 31 30  2  0  0  0  0
 33 31  1  0  0  0  0
 34 32  2  0  0  0  0
 36 42  1  1  0  0  0
 37 38  2  0  0  0  0
 37 36  1  0  0  0  0
 39 43  1  0  0  0  0
 39 41  1  0  0  0  0
 40 36  1  0  0  0  0
 41 35  1  1  0  0  0
 41 40  1  0  0  0  0
 43 37  1  0  0  0  0
M  END
>  <MODEL>
2

>  <REMARK>
 VINA RESULT:      -8.0      1.083      1.444
  Name = 
  9 active torsions:
  status: ('A' for Active; 'I' for Inactive)
    1  A    between atoms: C_1  and  C_34
    2  A    between atoms: C_1  and  C_35
    3  A    between atoms: C_2  and  C_13
    4  A    between atoms: C_3  and  C_4
    5  A    between atoms: C_3  and  C_12
    6  A    between atoms: N_6  and  C_12
    7  A    between atoms: C_11  and  C_14
    8  A    between atoms: C_14  and  C_41
    9  A    between atoms: C_21  and  C_30
                            x       y       z     vdW  Elec       q    Type
                         _______ _______ _______ _____ _____    ______ ____

>  <TORSDO>
F 9

$$$$
=
 OpenBabel11052421243D

 43 47  0  0  1  0  0  0  0  0999 V2000
  190.6350  173.2540  143.0890 N   0  0  0  0  0  0  0  0  0  0  0  0
  189.1840  173.1690  141.2130 C   0  0  2  0  0  3  0  0  0  0  0  0
  188.8530  171.7550  143.0980 O   0  0  0  0  0  1  0  0  0  0  0  0
  189.2450  173.0420  142.7270 C   0  0  1  0  0  3  0  0  0  0  0  0
  191.0820  173.2290  144.4570 C   0  0  0  0  0  0  0  0  0  0  0  0
  190.2530  173.4600  145.3780 O   0  0  0  0  0  0  0  0  0  0  0  0
  191.4990  173.4670  141.9350 C   0  0  1  0  0  3  0  0  0  0  0  0
  190.6340  173.1460  140.7310 C   0  0  0  0  0  2  0  0  0  0  0  0
  195.1500  172.3550  145.4950 C   0  0  0  0  0  0  0  0  0  0  0  0
  193.0180  171.6200  144.6040 C   0  0  0  0  0  0  0  0  0  0  0  0
  194.6290  173.6350  145.6940 C   0  0  0  0  0  3  0  0  0  0  0  0
  196.8030  172.0040  145.9420 Cl  0  0  0  0  0  0  0  0  0  0  0  0
  192.4830  172.9090  144.8090 C   0  0  0  0  0  0  0  0  0  0  0  0
  194.3460  171.3510  144.9510 C   0  0  0  0  0  3  0  0  0  0  0  0
  193.3040  173.9090  145.3520 C   0  0  0  0  0  3  0  0  0  0  0  0
  192.2390  170.5970  144.0770 O   0  0  0  0  0  1  0  0  0  0  0  0
  188.4760  174.4410  140.8340 C   0  0  0  0  0  0  0  0  0  0  0  0
  188.0270  175.3210  141.8660 N   0  0  0  0  0  2  0  0  0  0  0  0
  188.2450  174.7160  139.6250 O   0  0  0  0  0  0  0  0  0  0  0  0
  187.3760  176.5870  141.5800 C   0  0  0  0  0  2  0  0  0  0  0  0
  187.3470  177.4270  142.8410 C   0  0  0  0  0  2  0  0  0  0  0  0
  188.6850  177.4190  143.5080 C   0  0  0  0  0  0  0  0  0  0  0  0
  190.1660  176.7890  145.3270 C   0  0  0  0  0  3  0  0  0  0  0  0
  189.7420  178.1060  142.9010 C   0  0  0  0  0  3  0  0  0  0  0  0
  191.0030  178.1360  143.5020 C   0  0  0  0  0  3  0  0  0  0  0  0
  188.9000  176.7450  144.7280 C   0  0  0  0  0  0  0  0  0  0  0  0
  191.2140  177.4810  144.7160 C   0  0  0  0  0  3  0  0  0  0  0  0
  187.8000  175.9770  145.3980 C   0  0  0  0  0  2  0  0  0  0  0  0
  186.8790  176.8920  146.1350 C   0  0  0  0  0  0  0  0  0  0  0  0
  185.1890  178.6390  147.4730 C   0  0  0  0  0  3  0  0  0  0  0  0
  186.5600  178.6150  147.7390 C   0  0  0  0  0  3  0  0  0  0  0  0
  184.6650  177.7680  146.5170 C   0  0  0  0  0  3  0  0  0  0  0  0
  187.3690  177.7510  147.0710 N   0  0  0  0  0  0  0  0  0  0  0  0
  185.5140  176.8880  145.8400 C   0  0  0  0  0  3  0  0  0  0  0  0
  191.9260  174.9300  141.8430 C   0  0  0  0  0  2  0  0  0  0  0  0
  195.5070  176.1130  142.6480 C   0  0  1  0  0  3  0  0  0  0  0  0
  196.1970  174.7910  142.4070 C   0  0  0  0  0  0  0  0  0  0  0  0
  197.2960  174.5520  142.8850 O   0  0  0  0  0  0  0  0  0  0  0  0
  194.0800  173.6910  141.7050 C   0  0  0  0  0  2  0  0  0  0  0  0
  194.0050  175.9090  142.8360 C   0  0  0  0  0  2  0  0  0  0  0  0
  193.4300  175.0700  141.6940 C   0  0  2  0  0  3  0  0  0  0  0  0
  196.0650  176.8420  143.8600 C   0  0  0  0  0  1  0  0  0  0  0  0
  195.5820  173.8100  141.4530 C   0  0  0  0  0  2  0  0  0  0  0  0
  1  5  1  0  0  0  0
  2 17  1  1  0  0  0
  2  4  1  0  0  0  0
  4  1  1  0  0  0  0
  4  3  1  6  0  0  0
  5 13  1  0  0  0  0
  5  6  2  0  0  0  0
  7 35  1  6  0  0  0
  7  1  1  0  0  0  0
  8  2  1  0  0  0  0
  8  7  1  0  0  0  0
  9 11  1  0  0  0  0
  9 12  1  0  0  0  0
 10 13  2  0  0  0  0
 10 14  1  0  0  0  0
 13 15  1  0  0  0  0
 14  9  2  0  0  0  0
 15 11  2  0  0  0  0
 16 10  1  0  0  0  0
 17 18  1  0  0  0  0
 19 17  2  0  0  0  0
 20 18  1  0  0  0  0
 20 21  1  0  0  0  0
 21 22  1  0  0  0  0
 22 26  1  0  0  0  0
 24 25  1  0  0  0  0
 24 22  2  0  0  0  0
 25 27  2  0  0  0  0
 26 23  2  0  0  0  0
 26 28  1  0  0  0  0
 27 23  1  0  0  0  0
 28 29  1  0  0  0  0
 29 33  1  0  0  0  0
 30 31  1  0  0  0  0
 32 30  2  0  0  0  0
 33 31  2  0  0  0  0
 34 29  2  0  0  0  0
 34 32  1  0  0  0  0
 36 40  1  0  0  0  0
 36 42  1  1  0  0  0
 37 36  1  0  0  0  0
 37 38  2  0  0  0  0
 41 39  1  0  0  0  0
 41 35  1  1  0  0  0
 41 40  1  0  0  0  0
 43 39  1  0  0  0  0
 43 37  1  0  0  0  0
M  END
>  <MODEL>
3

>  <REMARK>
 VINA RESULT:      -7.9      1.590      2.960
  Name = 
  9 active torsions:
  status: ('A' for Active; 'I' for Inactive)
    1  A    between atoms: C_1  and  C_34
    2  A    between atoms: C_1  and  C_35
    3  A    between atoms: C_2  and  C_13
    4  A    between atoms: C_3  and  C_4
    5  A    between atoms: C_3  and  C_12
    6  A    between atoms: N_6  and  C_12
    7  A    between atoms: C_11  and  C_14
    8  A    between atoms: C_14  and  C_41
    9  A    between atoms: C_21  and  C_30
                            x       y       z     vdW  Elec       q    Type
                         _______ _______ _______ _____ _____    ______ ____

>  <TORSDO>
F 9

$$$$
=
 OpenBabel11052421243D

 43 47  0  0  1  0  0  0  0  0999 V2000
  192.9740  176.1900  145.4720 N   0  0  0  0  0  0  0  0  0  0  0  0
  195.1040  176.0680  144.4320 C   0  0  2  0  0  3  0  0  0  0  0  0
  194.4930  177.9270  145.7860 O   0  0  0  0  0  1  0  0  0  0  0  0
  194.3680  176.5410  145.6750 C   0  0  1  0  0  3  0  0  0  0  0  0
  191.9640  176.4670  146.4600 C   0  0  0  0  0  0  0  0  0  0  0  0
  192.3040  176.6070  147.6650 O   0  0  0  0  0  0  0  0  0  0  0  0
  192.7260  175.5640  144.1810 C   0  0  1  0  0  3  0  0  0  0  0  0
  194.0210  175.7290  143.4080 C   0  0  0  0  0  2  0  0  0  0  0  0
  187.8500  176.9510  145.3520 C   0  0  0  0  0  0  0  0  0  0  0  0
  189.5410  175.7940  146.6470 C   0  0  0  0  0  0  0  0  0  0  0  0
  188.8310  177.7760  144.8010 C   0  0  0  0  0  3  0  0  0  0  0  0
  186.1780  177.1430  144.8770 Cl  0  0  0  0  0  0  0  0  0  0  0  0
  190.5400  176.6190  146.0890 C   0  0  0  0  0  0  0  0  0  0  0  0
  188.2040  175.9630  146.2730 C   0  0  0  0  0  3  0  0  0  0  0  0
  190.1680  177.6120  145.1690 C   0  0  0  0  0  3  0  0  0  0  0  0
  189.8640  174.7940  147.5560 O   0  0  0  0  0  1  0  0  0  0  0  0
  195.9650  174.8810  144.7680 C   0  0  0  0  0  0  0  0  0  0  0  0
  196.6080  174.1670  143.7110 N   0  0  0  0  0  2  0  0  0  0  0  0
  196.0920  174.4920  145.9610 O   0  0  0  0  0  0  0  0  0  0  0  0
  197.4900  173.0400  143.9570 C   0  0  0  0  0  2  0  0  0  0  0  0
  197.0490  171.8680  143.1030 C   0  0  0  0  0  2  0  0  0  0  0  0
  195.8360  171.2190  143.6880 C   0  0  0  0  0  0  0  0  0  0  0  0
  193.6650  170.1500  143.4710 C   0  0  0  0  0  3  0  0  0  0  0  0
  195.7400  171.1060  145.0790 C   0  0  0  0  0  3  0  0  0  0  0  0
  194.6140  170.5210  145.6640 C   0  0  0  0  0  3  0  0  0  0  0  0
  194.7940  170.7270  142.8740 C   0  0  0  0  0  0  0  0  0  0  0  0
  193.5760  170.0470  144.8610 C   0  0  0  0  0  3  0  0  0  0  0  0
  194.8700  170.8060  141.3790 C   0  0  0  0  0  2  0  0  0  0  0  0
  193.7750  171.6600  140.8300 C   0  0  0  0  0  0  0  0  0  0  0  0
  191.7040  173.2280  139.8570 C   0  0  0  0  0  3  0  0  0  0  0  0
  191.6760  171.8380  139.7320 C   0  0  0  0  0  3  0  0  0  0  0  0
  192.7930  173.8340  140.4840 C   0  0  0  0  0  3  0  0  0  0  0  0
  192.7020  171.0890  140.2160 N   0  0  0  0  0  0  0  0  0  0  0  0
  193.8360  173.0480  140.9760 C   0  0  0  0  0  3  0  0  0  0  0  0
  192.4540  174.0710  144.3480 C   0  0  0  0  0  2  0  0  0  0  0  0
  188.9400  174.4490  142.8040 C   0  0  1  0  0  3  0  0  0  0  0  0
  188.7710  173.0100  142.3760 C   0  0  0  0  0  0  0  0  0  0  0  0
  187.9680  172.6970  141.5100 O   0  0  0  0  0  0  0  0  0  0  0  0
  190.9540  172.3460  143.3650 C   0  0  0  0  0  2  0  0  0  0  0  0
  190.4110  174.7590  143.0760 C   0  0  0  0  0  2  0  0  0  0  0  0
  191.0140  173.7200  144.0220 C   0  0  2  0  0  3  0  0  0  0  0  0
  188.4090  175.4260  141.7680 C   0  0  0  0  0  1  0  0  0  0  0  0
  189.5020  171.9360  143.1250 C   0  0  0  0  0  2  0  0  0  0  0  0
  1  4  1  0  0  0  0
  1  5  1  0  0  0  0
  2 17  1  1  0  0  0
  2  4  1  0  0  0  0
  4  3  1  6  0  0  0
  5  6  2  0  0  0  0
  7 35  1  1  0  0  0
  7  1  1  0  0  0  0
  8  7  1  0  0  0  0
  8  2  1  0  0  0  0
  9 14  1  0  0  0  0
 10 16  1  0  0  0  0
 11 15  1  0  0  0  0
 11  9  2  0  0  0  0
 12  9  1  0  0  0  0
 13  5  1  0  0  0  0
 13 10  1  0  0  0  0
 14 10  2  0  0  0  0
 15 13  2  0  0  0  0
 17 19  2  0  0  0  0
 18 20  1  0  0  0  0
 18 17  1  0  0  0  0
 21 22  1  0  0  0  0
 21 20  1  0  0  0  0
 22 24  1  0  0  0  0
 23 27  2  0  0  0  0
 24 25  2  0  0  0  0
 26 23  1  0  0  0  0
 26 22  2  0  0  0  0
 27 25  1  0  0  0  0
 28 26  1  0  0  0  0
 29 34  1  0  0  0  0
 29 28  1  0  0  0  0
 30 32  1  0  0  0  0
 31 30  2  0  0  0  0
 31 33  1  0  0  0  0
 32 34  2  0  0  0  0
 33 29  2  0  0  0  0
 36 42  1  6  0  0  0
 36 40  1  0  0  0  0
 37 36  1  0  0  0  0
 37 43  1  0  0  0  0
 38 37  2  0  0  0  0
 39 41  1  0  0  0  0
 40 41  1  0  0  0  0
 41 35  1  6  0  0  0
 43 39  1  0  0  0  0
M  END
>  <MODEL>
4

>  <REMARK>
 VINA RESULT:      -7.6      2.988      8.323
  Name = 
  9 active torsions:
  status: ('A' for Active; 'I' for Inactive)
    1  A    between atoms: C_1  and  C_34
    2  A    between atoms: C_1  and  C_35
    3  A    between atoms: C_2  and  C_13
    4  A    between atoms: C_3  and  C_4
    5  A    between atoms: C_3  and  C_12
    6  A    between atoms: N_6  and  C_12
    7  A    between atoms: C_11  and  C_14
    8  A    between atoms: C_14  and  C_41
    9  A    between atoms: C_21  and  C_30
                            x       y       z     vdW  Elec       q    Type
                         _______ _______ _______ _____ _____    ______ ____

>  <TORSDO>
F 9

$$$$
=
 OpenBabel11052421243D

 43 47  0  0  1  0  0  0  0  0999 V2000
  194.8000  175.1410  144.2080 N   0  0  0  0  0  0  0  0  0  0  0  0
  193.5930  174.7460  146.2130 C   0  0  2  0  0  3  0  0  0  0  0  0
  195.9630  174.5400  146.1340 O   0  0  0  0  0  1  0  0  0  0  0  0
  194.8940  175.2950  145.6490 C   0  0  1  0  0  3  0  0  0  0  0  0
  195.8490  175.5720  143.3220 C   0  0  0  0  0  0  0  0  0  0  0  0
  196.6510  176.4650  143.7080 O   0  0  0  0  0  0  0  0  0  0  0  0
  193.5640  174.4970  143.7830 C   0  0  1  0  0  3  0  0  0  0  0  0
  192.9180  174.0010  145.0620 C   0  0  0  0  0  2  0  0  0  0  0  0
  196.3910  173.7900  139.4600 C   0  0  0  0  0  0  0  0  0  0  0  0
  195.5820  175.6300  140.8160 C   0  0  0  0  0  0  0  0  0  0  0  0
  196.8410  173.1370  140.6080 C   0  0  0  0  0  3  0  0  0  0  0  0
  196.5980  173.0440  137.8920 Cl  0  0  0  0  0  0  0  0  0  0  0  0
  196.0270  174.9730  141.9810 C   0  0  0  0  0  0  0  0  0  0  0  0
  195.7630  175.0330  139.5640 C   0  0  0  0  0  3  0  0  0  0  0  0
  196.6620  173.7270  141.8610 C   0  0  0  0  0  3  0  0  0  0  0  0
  194.9410  176.8610  140.8880 O   0  0  0  0  0  1  0  0  0  0  0  0
  192.7480  175.8730  146.7390 C   0  0  0  0  0  0  0  0  0  0  0  0
  191.3270  175.7930  146.6150 N   0  0  0  0  0  2  0  0  0  0  0  0
  193.2800  176.8960  147.2500 O   0  0  0  0  0  0  0  0  0  0  0  0
  190.4410  176.8180  147.1370 C   0  0  0  0  0  2  0  0  0  0  0  0
  189.0860  176.6930  146.4680 C   0  0  0  0  0  2  0  0  0  0  0  0
  189.1540  177.1700  145.0530 C   0  0  0  0  0  0  0  0  0  0  0  0
  188.2180  177.3940  142.8230 C   0  0  0  0  0  3  0  0  0  0  0  0
  190.3030  177.8450  144.6260 C   0  0  0  0  0  3  0  0  0  0  0  0
  190.4100  178.2910  143.3060 C   0  0  0  0  0  3  0  0  0  0  0  0
  188.0960  176.9500  144.1460 C   0  0  0  0  0  0  0  0  0  0  0  0
  189.3700  178.0620  142.4040 C   0  0  0  0  0  3  0  0  0  0  0  0
  186.8380  176.2540  144.5720 C   0  0  0  0  0  2  0  0  0  0  0  0
  185.7900  177.2380  144.9750 C   0  0  0  0  0  0  0  0  0  0  0  0
  183.8010  179.0290  145.7040 C   0  0  0  0  0  3  0  0  0  0  0  0
  184.1580  178.8530  144.3660 C   0  0  0  0  0  3  0  0  0  0  0  0
  184.4580  178.2890  146.6880 C   0  0  0  0  0  3  0  0  0  0  0  0
  185.1360  177.9690  144.0310 N   0  0  0  0  0  0  0  0  0  0  0  0
  185.4580  177.3860  146.3240 C   0  0  0  0  0  3  0  0  0  0  0  0
  192.6240  175.5090  143.1320 C   0  0  0  0  0  2  0  0  0  0  0  0
  191.8580  173.1100  140.2120 C   0  0  1  0  0  3  0  0  0  0  0  0
  190.3980  172.8910  140.5300 C   0  0  0  0  0  0  0  0  0  0  0  0
  189.7950  171.9170  140.1060 O   0  0  0  0  0  0  0  0  0  0  0  0
  190.4660  174.4800  142.4420 C   0  0  0  0  0  2  0  0  0  0  0  0
  192.5930  173.6800  141.4240 C   0  0  0  0  0  2  0  0  0  0  0  0
  191.8540  174.9010  141.9740 C   0  0  2  0  0  3  0  0  0  0  0  0
  192.5490  171.8310  139.7680 C   0  0  0  0  0  1  0  0  0  0  0  0
  189.6440  173.9610  141.2650 C   0  0  0  0  0  2  0  0  0  0  0  0
  1  4  1  0  0  0  0
  2 17  1  6  0  0  0
  4  3  1  1  0  0  0
  4  2  1  0  0  0  0
  5  6  2  0  0  0  0
  5  1  1  0  0  0  0
  7 35  1  1  0  0  0
  7  1  1  0  0  0  0
  7  8  1  0  0  0  0
  8  2  1  0  0  0  0
  9 14  2  0  0  0  0
  9 11  1  0  0  0  0
 10 16  1  0  0  0  0
 10 13  2  0  0  0  0
 11 15  2  0  0  0  0
 12  9  1  0  0  0  0
 13  5  1  0  0  0  0
 14 10  1  0  0  0  0
 15 13  1  0  0  0  0
 17 19  2  0  0  0  0
 18 17  1  0  0  0  0
 18 20  1  0  0  0  0
 21 20  1  0  0  0  0
 22 21  1  0  0  0  0
 23 26  1  0  0  0  0
 24 22  1  0  0  0  0
 25 24  2  0  0  0  0
 26 28  1  0  0  0  0
 26 22  2  0  0  0  0
 27 23  2  0  0  0  0
 27 25  1  0  0  0  0
 28 29  1  0  0  0  0
 29 34  1  0  0  0  0
 30 32  1  0  0  0  0
 31 30  2  0  0  0  0
 33 31  1  0  0  0  0
 33 29  2  0  0  0  0
 34 32  2  0  0  0  0
 36 42  1  1  0  0  0
 36 37  1  0  0  0  0
 36 40  1  0  0  0  0
 37 43  1  0  0  0  0
 38 37  2  0  0  0  0
 40 41  1  0  0  0  0
 41 39  1  0  0  0  0
 41 35  1  1  0  0  0
 43 39  1  0  0  0  0
M  END
>  <MODEL>
5

>  <REMARK>
 VINA RESULT:      -7.5      2.601      6.068
  Name = 
  9 active torsions:
  status: ('A' for Active; 'I' for Inactive)
    1  A    between atoms: C_1  and  C_34
    2  A    between atoms: C_1  and  C_35
    3  A    between atoms: C_2  and  C_13
    4  A    between atoms: C_3  and  C_4
    5  A    between atoms: C_3  and  C_12
    6  A    between atoms: N_6  and  C_12
    7  A    between atoms: C_11  and  C_14
    8  A    between atoms: C_14  and  C_41
    9  A    between atoms: C_21  and  C_30
                            x       y       z     vdW  Elec       q    Type
                         _______ _______ _______ _____ _____    ______ ____

>  <TORSDO>
F 9

$$$$
=
 OpenBabel11052421243D

 43 47  0  0  1  0  0  0  0  0999 V2000
  193.8180  175.5210  144.5380 N   0  0  0  0  0  0  0  0  0  0  0  0
  192.5590  174.9990  146.4810 C   0  0  2  0  0  3  0  0  0  0  0  0
  194.9380  175.0530  146.5260 O   0  0  0  0  0  1  0  0  0  0  0  0
  193.8200  175.6860  145.9810 C   0  0  1  0  0  3  0  0  0  0  0  0
  194.8590  176.0630  143.7050 C   0  0  0  0  0  0  0  0  0  0  0  0
  195.5370  177.0390  144.1260 O   0  0  0  0  0  0  0  0  0  0  0  0
  192.6840  174.7450  144.0540 C   0  0  1  0  0  3  0  0  0  0  0  0
  192.0300  174.1830  145.3020 C   0  0  0  0  0  2  0  0  0  0  0  0
  195.7390  174.4300  139.8390 C   0  0  0  0  0  0  0  0  0  0  0  0
  195.8440  174.2520  142.2540 C   0  0  0  0  0  0  0  0  0  0  0  0
  195.0670  175.6480  139.9540 C   0  0  0  0  0  3  0  0  0  0  0  0
  196.1120  173.7850  138.2570 Cl  0  0  0  0  0  0  0  0  0  0  0  0
  195.1710  175.4850  142.3790 C   0  0  0  0  0  0  0  0  0  0  0  0
  196.1270  173.7340  140.9860 C   0  0  0  0  0  3  0  0  0  0  0  0
  194.7830  176.1710  141.2180 C   0  0  0  0  0  3  0  0  0  0  0  0
  196.2540  173.5420  143.3770 O   0  0  0  0  0  1  0  0  0  0  0  0
  191.5690  176.0270  146.9550 C   0  0  0  0  0  0  0  0  0  0  0  0
  190.3440  176.1940  146.2400 N   0  0  0  0  0  2  0  0  0  0  0  0
  191.8270  176.7630  147.9470 O   0  0  0  0  0  0  0  0  0  0  0  0
  189.3200  177.1330  146.6610 C   0  0  0  0  0  2  0  0  0  0  0  0
  188.0340  176.3770  146.9350 C   0  0  0  0  0  2  0  0  0  0  0  0
  186.8480  177.2460  146.6690 C   0  0  0  0  0  0  0  0  0  0  0  0
  185.0000  177.9780  145.2720 C   0  0  0  0  0  3  0  0  0  0  0  0
  186.4930  178.2070  147.6220 C   0  0  0  0  0  3  0  0  0  0  0  0
  185.4000  179.0500  147.4030 C   0  0  0  0  0  3  0  0  0  0  0  0
  186.0880  177.1220  145.4870 C   0  0  0  0  0  0  0  0  0  0  0  0
  184.6560  178.9380  146.2270 C   0  0  0  0  0  3  0  0  0  0  0  0
  186.4200  176.0880  144.4530 C   0  0  0  0  0  2  0  0  0  0  0  0
  186.9470  176.7240  143.2090 C   0  0  0  0  0  0  0  0  0  0  0  0
  187.8800  177.9440  140.8990 C   0  0  0  0  0  3  0  0  0  0  0  0
  186.7490  177.1260  140.8760 C   0  0  0  0  0  3  0  0  0  0  0  0
  188.5490  178.1490  142.1060 C   0  0  0  0  0  3  0  0  0  0  0  0
  186.3090  176.5380  142.0210 N   0  0  0  0  0  0  0  0  0  0  0  0
  188.0810  177.5380  143.2710 C   0  0  0  0  0  3  0  0  0  0  0  0
  191.6740  175.6470  143.3490 C   0  0  0  0  0  2  0  0  0  0  0  0
  191.6420  173.2930  140.2950 C   0  0  1  0  0  3  0  0  0  0  0  0
  190.1540  173.0290  140.2810 C   0  0  0  0  0  0  0  0  0  0  0  0
  189.6890  172.0480  139.7200 O   0  0  0  0  0  0  0  0  0  0  0  0
  189.7530  174.5760  142.1860 C   0  0  0  0  0  2  0  0  0  0  0  0
  192.0750  173.8560  141.6470 C   0  0  0  0  0  2  0  0  0  0  0  0
  191.1960  175.0440  142.0410 C   0  0  2  0  0  3  0  0  0  0  0  0
  192.4520  172.0430  139.9930 C   0  0  0  0  0  1  0  0  0  0  0  0
  189.2250  174.0610  140.8490 C   0  0  0  0  0  2  0  0  0  0  0  0
  1  4  1  0  0  0  0
  2 17  1  6  0  0  0
  4  2  1  0  0  0  0
  4  3  1  1  0  0  0
  5  6  2  0  0  0  0
  5  1  1  0  0  0  0
  7 35  1  1  0  0  0
  7  1  1  0  0  0  0
  7  8  1  0  0  0  0
  8  2  1  0  0  0  0
  9 11  2  0  0  0  0
  9 14  1  0  0  0  0
 10 13  1  0  0  0  0
 10 16  1  0  0  0  0
 11 15  1  0  0  0  0
 12  9  1  0  0  0  0
 13  5  1  0  0  0  0
 14 10  2  0  0  0  0
 15 13  2  0  0  0  0
 17 19  2  0  0  0  0
 18 20  1  0  0  0  0
 18 17  1  0  0  0  0
 20 21  1  0  0  0  0
 22 21  1  0  0  0  0
 22 24  1  0  0  0  0
 23 26  1  0  0  0  0
 23 27  2  0  0  0  0
 25 24  2  0  0  0  0
 26 22  2  0  0  0  0
 27 25  1  0  0  0  0
 28 26  1  0  0  0  0
 29 34  1  0  0  0  0
 29 28  1  0  0  0  0
 30 32  1  0  0  0  0
 31 30  2  0  0  0  0
 31 33  1  0  0  0  0
 32 34  2  0  0  0  0
 33 29  2  0  0  0  0
 36 42  1  1  0  0  0
 36 40  1  0  0  0  0
 37 36  1  0  0  0  0
 37 43  1  0  0  0  0
 38 37  2  0  0  0  0
 40 41  1  0  0  0  0
 41 39  1  0  0  0  0
 41 35  1  1  0  0  0
 43 39  1  0  0  0  0
M  END
>  <MODEL>
6

>  <REMARK>
 VINA RESULT:      -7.5      2.358      5.550
  Name = 
  9 active torsions:
  status: ('A' for Active; 'I' for Inactive)
    1  A    between atoms: C_1  and  C_34
    2  A    between atoms: C_1  and  C_35
    3  A    between atoms: C_2  and  C_13
    4  A    between atoms: C_3  and  C_4
    5  A    between atoms: C_3  and  C_12
    6  A    between atoms: N_6  and  C_12
    7  A    between atoms: C_11  and  C_14
    8  A    between atoms: C_14  and  C_41
    9  A    between atoms: C_21  and  C_30
                            x       y       z     vdW  Elec       q    Type
                         _______ _______ _______ _____ _____    ______ ____

>  <TORSDO>
F 9

$$$$
=
 OpenBabel11052421243D

 43 47  0  0  1  0  0  0  0  0999 V2000
  189.5940  176.1440  143.6550 N   0  0  0  0  0  0  0  0  0  0  0  0
  190.9940  174.3140  144.2230 C   0  0  2  0  0  3  0  0  0  0  0  0
  190.6540  174.9540  141.9570 O   0  0  0  0  0  1  0  0  0  0  0  0
  190.8100  175.4640  143.2470 C   0  0  1  0  0  3  0  0  0  0  0  0
  189.1020  177.3100  142.9690 C   0  0  0  0  0  0  0  0  0  0  0  0
  189.9060  178.0170  142.3060 O   0  0  0  0  0  0  0  0  0  0  0  0
  188.9400  175.5090  144.7920 C   0  0  1  0  0  3  0  0  0  0  0  0
  189.6740  174.1960  144.9860 C   0  0  0  0  0  2  0  0  0  0  0  0
  184.9650  178.4310  143.0940 C   0  0  0  0  0  0  0  0  0  0  0  0
  186.6940  176.9080  142.3410 C   0  0  0  0  0  0  0  0  0  0  0  0
  185.9240  179.1980  143.7570 C   0  0  0  0  0  3  0  0  0  0  0  0
  183.2830  178.9100  143.1340 Cl  0  0  0  0  0  0  0  0  0  0  0  0
  187.6700  177.6820  143.0010 C   0  0  0  0  0  0  0  0  0  0  0  0
  185.3490  177.2890  142.3880 C   0  0  0  0  0  3  0  0  0  0  0  0
  187.2690  178.8240  143.7110 C   0  0  0  0  0  3  0  0  0  0  0  0
  187.0470  175.7730  141.6190 O   0  0  0  0  0  1  0  0  0  0  0  0
  192.1570  174.5960  145.1340 C   0  0  0  0  0  0  0  0  0  0  0  0
  192.6610  175.9300  145.2260 N   0  0  0  0  0  2  0  0  0  0  0  0
  192.7110  173.6660  145.7820 O   0  0  0  0  0  0  0  0  0  0  0  0
  193.7510  176.2900  146.1150 C   0  0  0  0  0  2  0  0  0  0  0  0
  194.9590  176.6800  145.2870 C   0  0  0  0  0  2  0  0  0  0  0  0
  195.8870  175.5180  145.1320 C   0  0  0  0  0  0  0  0  0  0  0  0
  197.5650  174.2690  143.8980 C   0  0  0  0  0  3  0  0  0  0  0  0
  195.9040  174.5360  146.1280 C   0  0  0  0  0  3  0  0  0  0  0  0
  196.7450  173.4260  146.0100 C   0  0  0  0  0  3  0  0  0  0  0  0
  196.7320  175.3900  144.0100 C   0  0  0  0  0  0  0  0  0  0  0  0
  197.5720  173.2900  144.8940 C   0  0  0  0  0  3  0  0  0  0  0  0
  196.7620  176.4340  142.9340 C   0  0  0  0  0  2  0  0  0  0  0  0
  196.1190  175.9320  141.6830 C   0  0  0  0  0  0  0  0  0  0  0  0
  194.9030  175.0540  139.3490 C   0  0  0  0  0  3  0  0  0  0  0  0
  194.1620  175.2650  140.5140 C   0  0  0  0  0  3  0  0  0  0  0  0
  196.2770  175.2910  139.3640 C   0  0  0  0  0  3  0  0  0  0  0  0
  194.7790  175.6960  141.6460 N   0  0  0  0  0  0  0  0  0  0  0  0
  196.8930  175.7340  140.5360 C   0  0  0  0  0  3  0  0  0  0  0  0
  189.1180  176.3490  146.0550 C   0  0  0  0  0  2  0  0  0  0  0  0
  186.4060  178.4120  147.8610 C   0  0  1  0  0  3  0  0  0  0  0  0
  185.2250  177.8920  147.0760 C   0  0  0  0  0  0  0  0  0  0  0  0
  184.1740  178.5130  147.0240 O   0  0  0  0  0  0  0  0  0  0  0  0
  186.6460  176.3240  145.7700 C   0  0  0  0  0  2  0  0  0  0  0  0
  187.7120  178.1240  147.1210 C   0  0  0  0  0  2  0  0  0  0  0  0
  187.7890  176.6490  146.7240 C   0  0  2  0  0  3  0  0  0  0  0  0
  186.3070  179.9050  148.1300 C   0  0  0  0  0  1  0  0  0  0  0  0
  185.3010  176.5240  146.4650 C   0  0  0  0  0  2  0  0  0  0  0  0
  1  7  1  0  0  0  0
  2  8  1  0  0  0  0
  2 17  1  1  0  0  0
  4  3  1  6  0  0  0
  4  1  1  0  0  0  0
  4  2  1  0  0  0  0
  5 13  1  0  0  0  0
  5  1  1  0  0  0  0
  6  5  2  0  0  0  0
  7  8  1  0  0  0  0
  7 35  1  1  0  0  0
  9 12  1  0  0  0  0
  9 11  1  0  0  0  0
 10 14  1  0  0  0  0
 10 13  2  0  0  0  0
 13 15  1  0  0  0  0
 14  9  2  0  0  0  0
 15 11  2  0  0  0  0
 16 10  1  0  0  0  0
 17 18  1  0  0  0  0
 17 19  2  0  0  0  0
 18 20  1  0  0  0  0
 21 20  1  0  0  0  0
 22 21  1  0  0  0  0
 22 24  1  0  0  0  0
 23 26  1  0  0  0  0
 23 27  2  0  0  0  0
 25 24  2  0  0  0  0
 26 22  2  0  0  0  0
 27 25  1  0  0  0  0
 28 26  1  0  0  0  0
 29 28  1  0  0  0  0
 30 32  2  0  0  0  0
 30 31  1  0  0  0  0
 31 33  2  0  0  0  0
 32 34  1  0  0  0  0
 33 29  1  0  0  0  0
 34 29  2  0  0  0  0
 36 42  1  6  0  0  0
 37 36  1  0  0  0  0
 38 37  2  0  0  0  0
 39 43  1  0  0  0  0
 39 41  1  0  0  0  0
 40 36  1  0  0  0  0
 41 35  1  6  0  0  0
 41 40  1  0  0  0  0
 43 37  1  0  0  0  0
M  END
>  <MODEL>
7

>  <REMARK>
 VINA RESULT:      -7.4      3.373      8.661
  Name = 
  9 active torsions:
  status: ('A' for Active; 'I' for Inactive)
    1  A    between atoms: C_1  and  C_34
    2  A    between atoms: C_1  and  C_35
    3  A    between atoms: C_2  and  C_13
    4  A    between atoms: C_3  and  C_4
    5  A    between atoms: C_3  and  C_12
    6  A    between atoms: N_6  and  C_12
    7  A    between atoms: C_11  and  C_14
    8  A    between atoms: C_14  and  C_41
    9  A    between atoms: C_21  and  C_30
                            x       y       z     vdW  Elec       q    Type
                         _______ _______ _______ _____ _____    ______ ____

>  <TORSDO>
F 9

$$$$
=
 OpenBabel11052421243D

 43 47  0  0  1  0  0  0  0  0999 V2000
  188.9800  174.6050  141.7170 N   0  0  0  0  0  0  0  0  0  0  0  0
  190.2720  172.6150  141.7280 C   0  0  2  0  0  3  0  0  0  0  0  0
  188.0770  172.6590  140.8120 O   0  0  0  0  0  1  0  0  0  0  0  0
  189.2470  173.4100  140.9370 C   0  0  1  0  0  3  0  0  0  0  0  0
  188.0620  175.6210  141.2720 C   0  0  0  0  0  0  0  0  0  0  0  0
  187.8110  175.7250  140.0410 O   0  0  0  0  0  0  0  0  0  0  0  0
  189.7120  174.6400  142.9760 C   0  0  1  0  0  3  0  0  0  0  0  0
  190.3240  173.2580  143.1140 C   0  0  0  0  0  2  0  0  0  0  0  0
  186.0660  178.2030  144.0530 C   0  0  0  0  0  0  0  0  0  0  0  0
  187.7810  177.8720  142.3720 C   0  0  0  0  0  0  0  0  0  0  0  0
  185.6630  176.8740  143.9090 C   0  0  0  0  0  3  0  0  0  0  0  0
  185.2580  179.2410  145.2050 Cl  0  0  0  0  0  0  0  0  0  0  0  0
  187.3850  176.5260  142.2260 C   0  0  0  0  0  0  0  0  0  0  0  0
  187.1220  178.7000  143.2860 C   0  0  0  0  0  3  0  0  0  0  0  0
  186.3190  176.0420  142.9990 C   0  0  0  0  0  3  0  0  0  0  0  0
  188.8370  178.3920  141.6330 O   0  0  0  0  0  1  0  0  0  0  0  0
  191.6030  172.6560  141.0290 C   0  0  0  0  0  0  0  0  0  0  0  0
  192.7580  173.0760  141.7560 N   0  0  0  0  0  2  0  0  0  0  0  0
  191.6990  172.3610  139.8060 O   0  0  0  0  0  0  0  0  0  0  0  0
  194.0840  173.1000  141.1640 C   0  0  0  0  0  2  0  0  0  0  0  0
  195.0620  172.4300  142.1080 C   0  0  0  0  0  2  0  0  0  0  0  0
  195.2320  173.2430  143.3510 C   0  0  0  0  0  0  0  0  0  0  0  0
  194.9800  173.5730  145.7450 C   0  0  0  0  0  3  0  0  0  0  0  0
  195.8090  174.5140  143.2480 C   0  0  0  0  0  3  0  0  0  0  0  0
  195.9690  175.3100  144.3850 C   0  0  0  0  0  3  0  0  0  0  0  0
  194.8230  172.7620  144.6120 C   0  0  0  0  0  0  0  0  0  0  0  0
  195.5510  174.8420  145.6320 C   0  0  0  0  0  3  0  0  0  0  0  0
  194.2240  171.3960  144.7680 C   0  0  0  0  0  2  0  0  0  0  0  0
  195.1060  170.5160  145.5910 C   0  0  0  0  0  0  0  0  0  0  0  0
  196.7250  168.8320  147.0880 C   0  0  0  0  0  3  0  0  0  0  0  0
  195.3400  168.8480  147.2660 C   0  0  0  0  0  3  0  0  0  0  0  0
  197.3000  169.6790  146.1400 C   0  0  0  0  0  3  0  0  0  0  0  0
  194.5660  169.6800  146.5210 N   0  0  0  0  0  0  0  0  0  0  0  0
  196.4870  170.5270  145.3830 C   0  0  0  0  0  3  0  0  0  0  0  0
  190.8460  175.6610  142.9130 C   0  0  0  0  0  2  0  0  0  0  0  0
  189.8170  177.3540  146.2220 C   0  0  1  0  0  3  0  0  0  0  0  0
  190.9320  176.7910  147.0720 C   0  0  0  0  0  0  0  0  0  0  0  0
  190.8380  176.7400  148.2890 O   0  0  0  0  0  0  0  0  0  0  0  0
  191.9710  175.6330  145.1330 C   0  0  0  0  0  2  0  0  0  0  0  0
  189.6640  176.5480  144.9340 C   0  0  0  0  0  2  0  0  0  0  0  0
  191.0130  176.4000  144.2290 C   0  0  2  0  0  3  0  0  0  0  0  0
  188.4870  177.3760  146.9570 C   0  0  0  0  0  1  0  0  0  0  0  0
  192.2290  176.4150  146.4180 C   0  0  0  0  0  2  0  0  0  0  0  0
  1  7  1  0  0  0  0
  2 17  1  6  0  0  0
  2  8  1  0  0  0  0
  4  3  1  1  0  0  0
  4  1  1  0  0  0  0
  4  2  1  0  0  0  0
  5  1  1  0  0  0  0
  5 13  1  0  0  0  0
  6  5  2  0  0  0  0
  7 35  1  6  0  0  0
  7  8  1  0  0  0  0
  9 12  1  0  0  0  0
 10 14  1  0  0  0  0
 11  9  1  0  0  0  0
 13 10  2  0  0  0  0
 13 15  1  0  0  0  0
 14  9  2  0  0  0  0
 15 11  2  0  0  0  0
 16 10  1  0  0  0  0
 17 18  1  0  0  0  0
 19 17  2  0  0  0  0
 20 18  1  0  0  0  0
 20 21  1  0  0  0  0
 21 22  1  0  0  0  0
 22 26  1  0  0  0  0
 24 22  2  0  0  0  0
 24 25  1  0  0  0  0
 25 27  2  0  0  0  0
 26 28  1  0  0  0  0
 26 23  2  0  0  0  0
 27 23  1  0  0  0  0
 28 29  1  0  0  0  0
 29 33  1  0  0  0  0
 30 31  1  0  0  0  0
 32 30  2  0  0  0  0
 33 31  2  0  0  0  0
 34 29  2  0  0  0  0
 34 32  1  0  0  0  0
 36 42  1  1  0  0  0
 36 37  1  0  0  0  0
 37 38  2  0  0  0  0
 39 43  1  0  0  0  0
 40 36  1  0  0  0  0
 41 35  1  6  0  0  0
 41 40  1  0  0  0  0
 41 39  1  0  0  0  0
 43 37  1  0  0  0  0
M  END
>  <MODEL>
8

>  <REMARK>
 VINA RESULT:      -7.2      3.111      7.478
  Name = 
  9 active torsions:
  status: ('A' for Active; 'I' for Inactive)
    1  A    between atoms: C_1  and  C_34
    2  A    between atoms: C_1  and  C_35
    3  A    between atoms: C_2  and  C_13
    4  A    between atoms: C_3  and  C_4
    5  A    between atoms: C_3  and  C_12
    6  A    between atoms: N_6  and  C_12
    7  A    between atoms: C_11  and  C_14
    8  A    between atoms: C_14  and  C_41
    9  A    between atoms: C_21  and  C_30
                            x       y       z     vdW  Elec       q    Type
                         _______ _______ _______ _____ _____    ______ ____

>  <TORSDO>
F 9

$$$$
=
 OpenBabel11052421243D

 43 47  0  0  1  0  0  0  0  0999 V2000
  192.4050  176.0940  146.0090 N   0  0  0  0  0  0  0  0  0  0  0  0
  194.4420  176.4480  144.8440 C   0  0  2  0  0  3  0  0  0  0  0  0
  194.1120  177.2920  147.0440 O   0  0  0  0  0  1  0  0  0  0  0  0
  193.8370  176.2020  146.2170 C   0  0  1  0  0  3  0  0  0  0  0  0
  191.4910  175.8390  147.0910 C   0  0  0  0  0  0  0  0  0  0  0  0
  191.9170  175.2770  148.1360 O   0  0  0  0  0  0  0  0  0  0  0  0
  192.0140  176.2930  144.6190 C   0  0  1  0  0  3  0  0  0  0  0  0
  193.2690  176.7840  143.9230 C   0  0  0  0  0  2  0  0  0  0  0  0
  187.3880  177.0710  146.8880 C   0  0  0  0  0  0  0  0  0  0  0  0
  189.0410  175.2970  146.8480 C   0  0  0  0  0  0  0  0  0  0  0  0
  188.4010  178.0150  147.0640 C   0  0  0  0  0  3  0  0  0  0  0  0
  185.7210  177.5860  146.7850 Cl  0  0  0  0  0  0  0  0  0  0  0  0
  190.0700  176.2450  147.0190 C   0  0  0  0  0  0  0  0  0  0  0  0
  187.7080  175.7150  146.7800 C   0  0  0  0  0  3  0  0  0  0  0  0
  189.7340  177.6030  147.1310 C   0  0  0  0  0  3  0  0  0  0  0  0
  189.3280  173.9420  146.7250 O   0  0  0  0  0  1  0  0  0  0  0  0
  195.1940  175.2270  144.3900 C   0  0  0  0  0  0  0  0  0  0  0  0
  196.0910  174.5850  145.2980 N   0  0  0  0  0  2  0  0  0  0  0  0
  195.0690  174.7920  143.2120 O   0  0  0  0  0  0  0  0  0  0  0  0
  196.8180  173.3770  144.9480 C   0  0  0  0  0  2  0  0  0  0  0  0
  196.8170  172.4350  146.1370 C   0  0  0  0  0  2  0  0  0  0  0  0
  196.5070  171.0400  145.7000 C   0  0  0  0  0  0  0  0  0  0  0  0
  194.9480  169.3090  145.0090 C   0  0  0  0  0  3  0  0  0  0  0  0
  197.5550  170.1180  145.6050 C   0  0  0  0  0  3  0  0  0  0  0  0
  197.3030  168.7990  145.2170 C   0  0  0  0  0  3  0  0  0  0  0  0
  195.1920  170.6360  145.3890 C   0  0  0  0  0  0  0  0  0  0  0  0
  196.0000  168.3940  144.9220 C   0  0  0  0  0  3  0  0  0  0  0  0
  194.0450  171.6000  145.4540 C   0  0  0  0  0  2  0  0  0  0  0  0
  193.2320  171.5510  144.2020 C   0  0  0  0  0  0  0  0  0  0  0  0
  191.6960  171.5110  141.8920 C   0  0  0  0  0  3  0  0  0  0  0  0
  191.1340  171.2250  143.1380 C   0  0  0  0  0  3  0  0  0  0  0  0
  193.0540  171.8230  141.8130 C   0  0  0  0  0  3  0  0  0  0  0  0
  191.9060  171.2510  144.2570 N   0  0  0  0  0  0  0  0  0  0  0  0
  193.8300  171.8450  142.9740 C   0  0  0  0  0  3  0  0  0  0  0  0
  191.5990  174.9690  143.9810 C   0  0  0  0  0  2  0  0  0  0  0  0
  188.1690  176.4850  143.0810 C   0  0  1  0  0  3  0  0  0  0  0  0
  188.0810  175.9250  141.6810 C   0  0  0  0  0  0  0  0  0  0  0  0
  187.3430  176.4230  140.8440 O   0  0  0  0  0  0  0  0  0  0  0  0
  190.2270  174.6920  141.9230 C   0  0  0  0  0  2  0  0  0  0  0  0
  189.6080  176.4350  143.5910 C   0  0  0  0  0  2  0  0  0  0  0  0
  190.1940  175.0350  143.4080 C   0  0  2  0  0  3  0  0  0  0  0  0
  187.6600  177.9150  143.1640 C   0  0  0  0  0  1  0  0  0  0  0  0
  188.8090  174.6540  141.3570 C   0  0  0  0  0  2  0  0  0  0  0  0
  1  4  1  0  0  0  0
  1  5  1  0  0  0  0
  2 17  1  6  0  0  0
  2  4  1  0  0  0  0
  4  3  1  1  0  0  0
  5  6  2  0  0  0  0
  7 35  1  6  0  0  0
  7  1  1  0  0  0  0
  8  7  1  0  0  0  0
  8  2  1  0  0  0  0
  9 11  1  0  0  0  0
 10 13  2  0  0  0  0
 11 15  2  0  0  0  0
 12  9  1  0  0  0  0
 13  5  1  0  0  0  0
 13 15  1  0  0  0  0
 14 10  1  0  0  0  0
 14  9  2  0  0  0  0
 16 10  1  0  0  0  0
 17 18  1  0  0  0  0
 19 17  2  0  0  0  0
 20 18  1  0  0  0  0
 20 21  1  0  0  0  0
 22 21  1  0  0  0  0
 23 26  1  0  0  0  0
 24 22  1  0  0  0  0
 25 24  2  0  0  0  0
 26 28  1  0  0  0  0
 26 22  2  0  0  0  0
 27 23  2  0  0  0  0
 27 25  1  0  0  0  0
 29 33  1  0  0  0  0
 29 28  1  0  0  0  0
 30 31  1  0  0  0  0
 31 33  2  0  0  0  0
 32 30  2  0  0  0  0
 32 34  1  0  0  0  0
 34 29  2  0  0  0  0
 36 42  1  6  0  0  0
 36 40  1  0  0  0  0
 37 36  1  0  0  0  0
 38 37  2  0  0  0  0
 39 41  1  0  0  0  0
 41 40  1  0  0  0  0
 41 35  1  6  0  0  0
 43 37  1  0  0  0  0
 43 39  1  0  0  0  0
M  END
>  <MODEL>
9

>  <REMARK>
 VINA RESULT:      -7.1      2.940      8.329
  Name = 
  9 active torsions:
  status: ('A' for Active; 'I' for Inactive)
    1  A    between atoms: C_1  and  C_34
    2  A    between atoms: C_1  and  C_35
    3  A    between atoms: C_2  and  C_13
    4  A    between atoms: C_3  and  C_4
    5  A    between atoms: C_3  and  C_12
    6  A    between atoms: N_6  and  C_12
    7  A    between atoms: C_11  and  C_14
    8  A    between atoms: C_14  and  C_41
    9  A    between atoms: C_21  and  C_30
                            x       y       z     vdW  Elec       q    Type
                         _______ _______ _______ _____ _____    ______ ____

>  <TORSDO>
F 9

$$$$
