=
 OpenBabel11052418253D

 27 30  0  0  1  0  0  0  0  0999 V2000
  192.1490  174.1830  145.3980 C   0  0  0  0  0  2  0  0  0  0  0  0
  190.5530  176.1190  145.7670 C   0  0  0  0  0  0  0  0  0  0  0  0
  189.8340  175.3610  143.4950 N   0  0  0  0  0  2  0  0  0  0  0  0
  186.7940  177.7540  146.4740 C   0  0  0  0  0  3  0  0  0  0  0  0
  184.4400  178.2420  145.7950 C   0  0  0  0  0  1  0  0  0  0  0  0
  190.2490  176.7840  146.9160 N   0  0  0  0  0  0  0  0  0  0  0  0
  187.2740  176.4520  144.0430 C   0  0  0  0  0  3  0  0  0  0  0  0
  189.9540  173.3090  141.3150 C   0  0  0  0  0  2  0  0  0  0  0  0
  186.0170  177.0050  144.3050 C   0  0  0  0  0  3  0  0  0  0  0  0
  190.0980  171.6740  142.0930 S   0  0  0  0  0  0  0  0  0  0  0  0
  188.3000  176.5450  144.9940 C   0  0  0  0  0  0  0  0  0  0  0  0
  191.8850  175.6110  145.5900 N   0  0  0  0  0  0  0  0  0  0  0  0
  185.7780  177.6550  145.5200 C   0  0  0  0  0  0  0  0  0  0  0  0
  188.0510  177.2020  146.2150 C   0  0  0  0  0  0  0  0  0  0  0  0
  191.4440  173.5960  144.1760 C   0  0  1  0  0  3  0  0  0  0  0  0
  189.5700  175.9990  144.7570 C   0  0  0  0  0  0  0  0  0  0  0  0
  191.1180  174.2100  141.7050 C   0  0  0  0  0  2  0  0  0  0  0  0
  189.0410  177.3020  147.1360 N   0  0  0  0  0  0  0  0  0  0  0  0
  189.2800  172.2910  143.5910 C   0  0  0  0  0  2  0  0  0  0  0  0
  190.2830  172.7120  144.6610 C   0  0  0  0  0  2  0  0  0  0  0  0
  191.0830  174.6900  143.1580 C   0  0  1  0  0  3  0  0  0  0  0  0
  193.0210  176.4950  145.8070 C   0  0  0  0  0  2  0  0  0  0  0  0
  195.2730  175.4760  145.4920 C   0  0  0  0  0  3  0  0  0  0  0  0
  194.2100  175.7090  146.2710 C   0  0  0  0  0  3  0  0  0  0  0  0
  195.3870  175.9670  144.0810 C   0  0  0  0  0  2  0  0  0  0  0  0
  196.8120  175.8160  143.5840 C   0  0  0  0  0  2  0  0  0  0  0  0
  197.3090  177.0650  143.2150 O   0  0  0  0  0  1  0  0  0  0  0  0
  1 12  1  0  0  0  0
  2  6  1  0  0  0  0
  3 16  1  0  0  0  0
  6 18  2  0  0  0  0
  7  9  2  0  0  0  0
  7 11  1  0  0  0  0
  8 17  1  0  0  0  0
  8 10  1  0  0  0  0
  9 13  1  0  0  0  0
 10 19  1  0  0  0  0
 11 14  2  0  0  0  0
 12  2  1  0  0  0  0
 12 22  1  0  0  0  0
 13  5  1  0  0  0  0
 13  4  2  0  0  0  0
 14  4  1  0  0  0  0
 14 18  1  0  0  0  0
 15 20  1  1  0  0  0
 15  1  1  0  0  0  0
 16 11  1  0  0  0  0
 16  2  2  0  0  0  0
 19 20  1  0  0  0  0
 21 17  1  6  0  0  0
 21  3  1  0  0  0  0
 21 15  1  0  0  0  0
 22 24  1  0  0  0  0
 23 24  2  0  0  0  0
 25 23  1  0  0  0  0
 26 25  1  0  0  0  0
 27 26  1  0  0  0  0
M  END
>  <MODEL>
1

>  <REMARK>
 VINA RESULT:      -7.1      0.000      0.000
  Name = 
  4 active torsions:
  status: ('A' for Active; 'I' for Inactive)
    1  A    between atoms: C_7  and  C_11
    2  A    between atoms: C_7  and  C_25
    3  A    between atoms: C_9  and  N_15
    4  A    between atoms: C_9  and  C_27
                            x       y       z     vdW  Elec       q    Type
                         _______ _______ _______ _____ _____    ______ ____

>  <TORSDO>
F 4

$$$$
=
 OpenBabel11052418253D

 27 30  0  0  1  0  0  0  0  0999 V2000
  190.5350  175.1000  141.8560 C   0  0  0  0  0  2  0  0  0  0  0  0
  188.2940  175.3230  143.0210 C   0  0  0  0  0  0  0  0  0  0  0  0
  189.8380  175.3570  144.9880 N   0  0  0  0  0  2  0  0  0  0  0  0
  185.4160  177.4200  145.1720 C   0  0  0  0  0  3  0  0  0  0  0  0
  184.6190  178.5830  147.2340 C   0  0  0  0  0  1  0  0  0  0  0  0
  187.0750  175.6340  142.5020 N   0  0  0  0  0  0  0  0  0  0  0  0
  187.8620  176.8240  146.3970 C   0  0  0  0  0  3  0  0  0  0  0  0
  192.6300  175.5420  146.0590 C   0  0  0  0  0  2  0  0  0  0  0  0
  186.8810  177.5330  147.0980 C   0  0  0  0  0  3  0  0  0  0  0  0
  193.5690  176.6650  144.9810 S   0  0  0  0  0  0  0  0  0  0  0  0
  187.6280  176.4100  145.0780 C   0  0  0  0  0  0  0  0  0  0  0  0
  189.2200  174.5700  142.2220 N   0  0  0  0  0  0  0  0  0  0  0  0
  185.6600  177.8300  146.4860 C   0  0  0  0  0  0  0  0  0  0  0  0
  186.3950  176.7130  144.4690 C   0  0  0  0  0  0  0  0  0  0  0  0
  191.4040  175.4490  143.0630 C   0  0  1  0  0  3  0  0  0  0  0  0
  188.5940  175.6990  144.3530 C   0  0  0  0  0  0  0  0  0  0  0  0
  192.0920  174.3500  145.2780 C   0  0  0  0  0  2  0  0  0  0  0  0
  186.1590  176.3080  143.1960 N   0  0  0  0  0  0  0  0  0  0  0  0
  192.0400  177.5140  144.4980 C   0  0  0  0  0  2  0  0  0  0  0  0
  191.4770  176.9800  143.1840 C   0  0  0  0  0  2  0  0  0  0  0  0
  190.9490  174.6910  144.3190 C   0  0  1  0  0  3  0  0  0  0  0  0
  188.7760  173.3390  141.5850 C   0  0  0  0  0  2  0  0  0  0  0  0
  189.8580  171.3800  142.6800 C   0  0  0  0  0  3  0  0  0  0  0  0
  188.8100  172.2050  142.5630 C   0  0  0  0  0  3  0  0  0  0  0  0
  191.0980  171.4970  141.8470 C   0  0  0  0  0  2  0  0  0  0  0  0
  192.3250  171.5720  142.7360 C   0  0  0  0  0  2  0  0  0  0  0  0
  192.0290  171.0250  143.9830 O   0  0  0  0  0  1  0  0  0  0  0  0
  1 12  1  0  0  0  0
  2 16  1  0  0  0  0
  4 13  2  0  0  0  0
  6  2  2  0  0  0  0
  6 18  1  0  0  0  0
  7  9  2  0  0  0  0
 10  8  1  0  0  0  0
 11  7  1  0  0  0  0
 12  2  1  0  0  0  0
 13  9  1  0  0  0  0
 13  5  1  0  0  0  0
 14 11  1  0  0  0  0
 14  4  1  0  0  0  0
 15  1  1  6  0  0  0
 15 20  1  0  0  0  0
 15 21  1  0  0  0  0
 16  3  1  0  0  0  0
 16 11  2  0  0  0  0
 17  8  1  0  0  0  0
 18 14  2  0  0  0  0
 19 10  1  0  0  0  0
 20 19  1  0  0  0  0
 21  3  1  0  0  0  0
 21 17  1  1  0  0  0
 22 12  1  0  0  0  0
 22 24  1  0  0  0  0
 24 23  2  0  0  0  0
 25 23  1  0  0  0  0
 25 26  1  0  0  0  0
 26 27  1  0  0  0  0
M  END
>  <MODEL>
2

>  <REMARK>
 VINA RESULT:      -7.1      2.716      4.697
  Name = 
  4 active torsions:
  status: ('A' for Active; 'I' for Inactive)
    1  A    between atoms: C_7  and  C_11
    2  A    between atoms: C_7  and  C_25
    3  A    between atoms: C_9  and  N_15
    4  A    between atoms: C_9  and  C_27
                            x       y       z     vdW  Elec       q    Type
                         _______ _______ _______ _____ _____    ______ ____

>  <TORSDO>
F 4

$$$$
=
 OpenBabel11052418253D

 27 30  0  0  1  0  0  0  0  0999 V2000
  190.9810  174.5430  142.1120 C   0  0  0  0  0  2  0  0  0  0  0  0
  188.6180  174.9560  142.9360 C   0  0  0  0  0  0  0  0  0  0  0  0
  189.9160  175.3940  145.0290 N   0  0  0  0  0  2  0  0  0  0  0  0
  185.5230  177.3890  144.2790 C   0  0  0  0  0  3  0  0  0  0  0  0
  184.4950  178.9180  145.9650 C   0  0  0  0  0  1  0  0  0  0  0  0
  187.4730  175.1420  142.2250 N   0  0  0  0  0  0  0  0  0  0  0  0
  187.7990  177.0780  145.8790 C   0  0  0  0  0  3  0  0  0  0  0  0
  192.5620  175.8250  146.3670 C   0  0  0  0  0  2  0  0  0  0  0  0
  186.7480  177.8950  146.3070 C   0  0  0  0  0  3  0  0  0  0  0  0
  193.6330  176.7300  145.2110 S   0  0  0  0  0  0  0  0  0  0  0  0
  187.7210  176.4120  144.6480 C   0  0  0  0  0  0  0  0  0  0  0  0
  189.6260  174.0760  142.4150 N   0  0  0  0  0  0  0  0  0  0  0  0
  185.6110  178.0500  145.5070 C   0  0  0  0  0  0  0  0  0  0  0  0
  186.5720  176.5730  143.8490 C   0  0  0  0  0  0  0  0  0  0  0  0
  191.7020  175.1330  143.3230 C   0  0  1  0  0  3  0  0  0  0  0  0
  188.7600  175.5870  144.1950 C   0  0  0  0  0  0  0  0  0  0  0  0
  192.1100  174.4960  145.7750 C   0  0  0  0  0  2  0  0  0  0  0  0
  186.4870  175.9250  142.6610 N   0  0  0  0  0  0  0  0  0  0  0  0
  192.1810  177.4460  144.3930 C   0  0  0  0  0  2  0  0  0  0  0  0
  191.7740  176.6590  143.1510 C   0  0  0  0  0  2  0  0  0  0  0  0
  191.0930  174.6270  144.6390 C   0  0  1  0  0  3  0  0  0  0  0  0
  189.2510  172.7370  141.9810 C   0  0  0  0  0  2  0  0  0  0  0  0
  189.6400  172.3300  139.5550 C   0  0  0  0  0  3  0  0  0  0  0  0
  190.0900  172.3130  140.8150 C   0  0  0  0  0  3  0  0  0  0  0  0
  188.2560  172.7640  139.1770 C   0  0  0  0  0  2  0  0  0  0  0  0
  188.2860  174.1580  138.5810 C   0  0  0  0  0  2  0  0  0  0  0  0
  189.0630  174.1530  137.4250 O   0  0  0  0  0  1  0  0  0  0  0  0
  1 12  1  0  0  0  0
  2 16  1  0  0  0  0
  4 13  2  0  0  0  0
  6 18  1  0  0  0  0
  6  2  2  0  0  0  0
  7  9  2  0  0  0  0
 10  8  1  0  0  0  0
 11  7  1  0  0  0  0
 12  2  1  0  0  0  0
 13  5  1  0  0  0  0
 13  9  1  0  0  0  0
 14  4  1  0  0  0  0
 14 11  1  0  0  0  0
 15  1  1  6  0  0  0
 15 21  1  0  0  0  0
 16 11  2  0  0  0  0
 16  3  1  0  0  0  0
 17  8  1  0  0  0  0
 18 14  2  0  0  0  0
 19 10  1  0  0  0  0
 20 15  1  0  0  0  0
 20 19  1  0  0  0  0
 21  3  1  0  0  0  0
 21 17  1  1  0  0  0
 22 12  1  0  0  0  0
 23 24  2  0  0  0  0
 24 22  1  0  0  0  0
 25 23  1  0  0  0  0
 26 25  1  0  0  0  0
 27 26  1  0  0  0  0
M  END
>  <MODEL>
3

>  <REMARK>
 VINA RESULT:      -7.1      3.020      5.345
  Name = 
  4 active torsions:
  status: ('A' for Active; 'I' for Inactive)
    1  A    between atoms: C_7  and  C_11
    2  A    between atoms: C_7  and  C_25
    3  A    between atoms: C_9  and  N_15
    4  A    between atoms: C_9  and  C_27
                            x       y       z     vdW  Elec       q    Type
                         _______ _______ _______ _____ _____    ______ ____

>  <TORSDO>
F 4

$$$$
=
 OpenBabel11052418253D

 27 30  0  0  1  0  0  0  0  0999 V2000
  190.6880  175.0140  141.9630 C   0  0  0  0  0  2  0  0  0  0  0  0
  188.4370  175.3040  143.0950 C   0  0  0  0  0  0  0  0  0  0  0  0
  189.9500  175.2820  145.0860 N   0  0  0  0  0  2  0  0  0  0  0  0
  185.5940  177.4850  145.2100 C   0  0  0  0  0  3  0  0  0  0  0  0
  184.8020  178.6640  147.2640 C   0  0  0  0  0  1  0  0  0  0  0  0
  187.2370  175.6560  142.5580 N   0  0  0  0  0  0  0  0  0  0  0  0
  188.0000  176.8070  146.4700 C   0  0  0  0  0  3  0  0  0  0  0  0
  192.7300  175.3740  146.2000 C   0  0  0  0  0  2  0  0  0  0  0  0
  187.0320  177.5430  147.1580 C   0  0  0  0  0  3  0  0  0  0  0  0
  193.7210  176.4700  145.1410 S   0  0  0  0  0  0  0  0  0  0  0  0
  187.7740  176.4050  145.1460 C   0  0  0  0  0  0  0  0  0  0  0  0
  189.3500  174.5250  142.3070 N   0  0  0  0  0  0  0  0  0  0  0  0
  185.8300  177.8820  146.5290 C   0  0  0  0  0  0  0  0  0  0  0  0
  186.5600  176.7490  144.5190 C   0  0  0  0  0  0  0  0  0  0  0  0
  191.5490  175.3310  143.1850 C   0  0  1  0  0  3  0  0  0  0  0  0
  188.7280  175.6650  144.4320 C   0  0  0  0  0  0  0  0  0  0  0  0
  192.1660  174.2030  145.4060 C   0  0  0  0  0  2  0  0  0  0  0  0
  186.3320  176.3570  143.2410 N   0  0  0  0  0  0  0  0  0  0  0  0
  192.2280  177.3690  144.6380 C   0  0  0  0  0  2  0  0  0  0  0  0
  191.6680  176.8590  143.3140 C   0  0  0  0  0  2  0  0  0  0  0  0
  191.0500  174.5830  144.4310 C   0  0  1  0  0  3  0  0  0  0  0  0
  188.8780  173.3110  141.6580 C   0  0  0  0  0  2  0  0  0  0  0  0
  190.0660  171.2470  142.3870 C   0  0  0  0  0  3  0  0  0  0  0  0
  189.0750  172.1290  142.5580 C   0  0  0  0  0  3  0  0  0  0  0  0
  191.0750  171.3400  141.2830 C   0  0  0  0  0  2  0  0  0  0  0  0
  190.8220  170.2620  140.2460 C   0  0  0  0  0  2  0  0  0  0  0  0
  190.2310  170.8300  139.1190 O   0  0  0  0  0  1  0  0  0  0  0  0
  1 12  1  0  0  0  0
  2 16  1  0  0  0  0
  4 13  2  0  0  0  0
  6  2  2  0  0  0  0
  6 18  1  0  0  0  0
  7  9  2  0  0  0  0
 10  8  1  0  0  0  0
 11  7  1  0  0  0  0
 12  2  1  0  0  0  0
 13  9  1  0  0  0  0
 13  5  1  0  0  0  0
 14 11  1  0  0  0  0
 14  4  1  0  0  0  0
 15  1  1  6  0  0  0
 15 20  1  0  0  0  0
 15 21  1  0  0  0  0
 16  3  1  0  0  0  0
 16 11  2  0  0  0  0
 17  8  1  0  0  0  0
 18 14  2  0  0  0  0
 19 10  1  0  0  0  0
 20 19  1  0  0  0  0
 21  3  1  0  0  0  0
 21 17  1  1  0  0  0
 22 12  1  0  0  0  0
 22 24  1  0  0  0  0
 23 24  2  0  0  0  0
 25 23  1  0  0  0  0
 26 25  1  0  0  0  0
 27 26  1  0  0  0  0
M  END
>  <MODEL>
4

>  <REMARK>
 VINA RESULT:      -7.0      2.970      4.987
  Name = 
  4 active torsions:
  status: ('A' for Active; 'I' for Inactive)
    1  A    between atoms: C_7  and  C_11
    2  A    between atoms: C_7  and  C_25
    3  A    between atoms: C_9  and  N_15
    4  A    between atoms: C_9  and  C_27
                            x       y       z     vdW  Elec       q    Type
                         _______ _______ _______ _____ _____    ______ ____

>  <TORSDO>
F 4

$$$$
=
 OpenBabel11052418253D

 27 30  0  0  1  0  0  0  0  0999 V2000
  189.1140  175.7300  143.6740 C   0  0  0  0  0  2  0  0  0  0  0  0
  191.0750  175.4890  145.2640 C   0  0  0  0  0  0  0  0  0  0  0  0
  191.0240  173.2030  144.2520 N   0  0  0  0  0  2  0  0  0  0  0  0
  195.1200  175.0730  146.1390 C   0  0  0  0  0  3  0  0  0  0  0  0
  197.2620  173.7890  146.1010 C   0  0  0  0  0  1  0  0  0  0  0  0
  191.7850  176.4510  145.9140 N   0  0  0  0  0  0  0  0  0  0  0  0
  193.7920  172.9860  144.8290 C   0  0  0  0  0  3  0  0  0  0  0  0
  189.9660  171.3480  142.1490 C   0  0  0  0  0  2  0  0  0  0  0  0
  195.1530  172.8710  145.1290 C   0  0  0  0  0  3  0  0  0  0  0  0
  189.7360  172.3060  140.6220 S   0  0  0  0  0  0  0  0  0  0  0  0
  193.0860  174.1450  145.1800 C   0  0  0  0  0  0  0  0  0  0  0  0
  189.6740  175.6990  145.0270 N   0  0  0  0  0  0  0  0  0  0  0  0
  195.8160  173.9140  145.7830 C   0  0  0  0  0  0  0  0  0  0  0  0
  193.7610  175.1910  145.8400 C   0  0  0  0  0  0  0  0  0  0  0  0
  189.3550  174.4410  142.8900 C   0  0  1  0  0  3  0  0  0  0  0  0
  191.7210  174.2860  144.8910 C   0  0  0  0  0  0  0  0  0  0  0  0
  189.1280  171.9160  143.2880 C   0  0  0  0  0  2  0  0  0  0  0  0
  193.0820  176.3110  146.1890 N   0  0  0  0  0  0  0  0  0  0  0  0
  191.0150  173.4830  141.1420 C   0  0  0  0  0  2  0  0  0  0  0  0
  190.4220  174.7160  141.8170 C   0  0  0  0  0  2  0  0  0  0  0  0
  189.6290  173.2570  143.8290 C   0  0  1  0  0  3  0  0  0  0  0  0
  188.8140  176.0950  146.1330 C   0  0  0  0  0  2  0  0  0  0  0  0
  187.0390  177.8260  145.8890 C   0  0  0  0  0  3  0  0  0  0  0  0
  188.3360  177.5020  145.9430 C   0  0  0  0  0  3  0  0  0  0  0  0
  185.9320  176.8230  146.0050 C   0  0  0  0  0  2  0  0  0  0  0  0
  184.6680  177.4900  146.5130 C   0  0  0  0  0  2  0  0  0  0  0  0
  184.8940  178.8560  146.6690 O   0  0  0  0  0  1  0  0  0  0  0  0
  1 12  1  0  0  0  0
  2  6  1  0  0  0  0
  3 16  1  0  0  0  0
  6 18  2  0  0  0  0
  7  9  2  0  0  0  0
  7 11  1  0  0  0  0
  8 17  1  0  0  0  0
  9 13  1  0  0  0  0
 10 19  1  0  0  0  0
 10  8  1  0  0  0  0
 11 14  2  0  0  0  0
 12  2  1  0  0  0  0
 12 22  1  0  0  0  0
 13  5  1  0  0  0  0
 13  4  2  0  0  0  0
 14  4  1  0  0  0  0
 14 18  1  0  0  0  0
 15 20  1  6  0  0  0
 15  1  1  0  0  0  0
 15 21  1  0  0  0  0
 16 11  1  0  0  0  0
 16  2  2  0  0  0  0
 19 20  1  0  0  0  0
 21 17  1  6  0  0  0
 21  3  1  0  0  0  0
 23 24  2  0  0  0  0
 23 25  1  0  0  0  0
 24 22  1  0  0  0  0
 25 26  1  0  0  0  0
 26 27  1  0  0  0  0
M  END
>  <MODEL>
5

>  <REMARK>
 VINA RESULT:      -6.9      2.890      6.827
  Name = 
  4 active torsions:
  status: ('A' for Active; 'I' for Inactive)
    1  A    between atoms: C_7  and  C_11
    2  A    between atoms: C_7  and  C_25
    3  A    between atoms: C_9  and  N_15
    4  A    between atoms: C_9  and  C_27
                            x       y       z     vdW  Elec       q    Type
                         _______ _______ _______ _____ _____    ______ ____

>  <TORSDO>
F 4

$$$$
=
 OpenBabel11052418253D

 27 30  0  0  1  0  0  0  0  0999 V2000
  189.8190  173.9330  145.1670 C   0  0  0  0  0  2  0  0  0  0  0  0
  188.4210  175.9650  144.5720 C   0  0  0  0  0  0  0  0  0  0  0  0
  189.5730  175.5480  142.3920 N   0  0  0  0  0  2  0  0  0  0  0  0
  185.2860  177.8750  142.6160 C   0  0  0  0  0  3  0  0  0  0  0  0
  184.1400  178.6700  140.5450 C   0  0  0  0  0  1  0  0  0  0  0  0
  187.3730  176.5200  145.2400 N   0  0  0  0  0  0  0  0  0  0  0  0
  187.3900  176.8180  141.1020 C   0  0  0  0  0  3  0  0  0  0  0  0
  191.2570  173.7570  140.6780 C   0  0  0  0  0  2  0  0  0  0  0  0
  186.3230  177.4610  140.4670 C   0  0  0  0  0  3  0  0  0  0  0  0
  190.8170  172.0370  141.0650 S   0  0  0  0  0  0  0  0  0  0  0  0
  187.4130  176.6990  142.4990 C   0  0  0  0  0  0  0  0  0  0  0  0
  189.4780  175.3490  145.3260 N   0  0  0  0  0  0  0  0  0  0  0  0
  185.2720  177.9880  141.2230 C   0  0  0  0  0  0  0  0  0  0  0  0
  186.3510  177.2340  143.2540 C   0  0  0  0  0  0  0  0  0  0  0  0
  190.2200  173.5640  143.7400 C   0  0  1  0  0  3  0  0  0  0  0  0
  188.4710  176.0600  143.1610 C   0  0  0  0  0  0  0  0  0  0  0  0
  191.7690  174.4870  141.9130 C   0  0  0  0  0  2  0  0  0  0  0  0
  186.3700  177.1280  144.6050 N   0  0  0  0  0  0  0  0  0  0  0  0
  189.1620  172.5570  141.5970 C   0  0  0  0  0  2  0  0  0  0  0  0
  189.0790  172.7510  143.1080 C   0  0  0  0  0  2  0  0  0  0  0  0
  190.6900  174.7970  142.9530 C   0  0  1  0  0  3  0  0  0  0  0  0
  190.0960  176.0840  146.4200 C   0  0  0  0  0  2  0  0  0  0  0  0
  192.4890  175.4320  146.6590 C   0  0  0  0  0  3  0  0  0  0  0  0
  191.2100  175.2820  147.0220 C   0  0  0  0  0  3  0  0  0  0  0  0
  192.9420  176.4060  145.6140 C   0  0  0  0  0  2  0  0  0  0  0  0
  194.4330  176.6560  145.7390 C   0  0  0  0  0  2  0  0  0  0  0  0
  195.0790  175.4640  146.0620 O   0  0  0  0  0  1  0  0  0  0  0  0
  1 12  1  0  0  0  0
  2  6  1  0  0  0  0
  2 12  1  0  0  0  0
  3 21  1  0  0  0  0
  3 16  1  0  0  0  0
  4 14  1  0  0  0  0
  5 13  1  0  0  0  0
  7 11  1  0  0  0  0
  8 10  1  0  0  0  0
  8 17  1  0  0  0  0
  9  7  2  0  0  0  0
  9 13  1  0  0  0  0
 10 19  1  0  0  0  0
 11 16  1  0  0  0  0
 11 14  2  0  0  0  0
 12 22  1  0  0  0  0
 13  4  2  0  0  0  0
 14 18  1  0  0  0  0
 15 20  1  6  0  0  0
 15  1  1  0  0  0  0
 16  2  2  0  0  0  0
 18  6  2  0  0  0  0
 19 20  1  0  0  0  0
 21 17  1  6  0  0  0
 21 15  1  0  0  0  0
 22 24  1  0  0  0  0
 23 24  2  0  0  0  0
 25 26  1  0  0  0  0
 25 23  1  0  0  0  0
 26 27  1  0  0  0  0
M  END
>  <MODEL>
6

>  <REMARK>
 VINA RESULT:      -6.8      2.130      2.926
  Name = 
  4 active torsions:
  status: ('A' for Active; 'I' for Inactive)
    1  A    between atoms: C_7  and  C_11
    2  A    between atoms: C_7  and  C_25
    3  A    between atoms: C_9  and  N_15
    4  A    between atoms: C_9  and  C_27
                            x       y       z     vdW  Elec       q    Type
                         _______ _______ _______ _____ _____    ______ ____

>  <TORSDO>
F 4

$$$$
=
 OpenBabel11052418253D

 27 30  0  0  1  0  0  0  0  0999 V2000
  190.9530  175.2860  142.4760 C   0  0  0  0  0  2  0  0  0  0  0  0
  188.4770  175.6820  142.0940 C   0  0  0  0  0  0  0  0  0  0  0  0
  188.5290  175.4840  144.5860 N   0  0  0  0  0  2  0  0  0  0  0  0
  185.0050  177.9640  142.2900 C   0  0  0  0  0  3  0  0  0  0  0  0
  183.1940  179.1160  143.5680 C   0  0  0  0  0  1  0  0  0  0  0  0
  187.8340  176.1320  140.9820 N   0  0  0  0  0  0  0  0  0  0  0  0
  186.1870  177.0820  144.6690 C   0  0  0  0  0  3  0  0  0  0  0  0
  190.1240  175.3510  147.1190 C   0  0  0  0  0  2  0  0  0  0  0  0
  185.0230  177.8540  144.7100 C   0  0  0  0  0  3  0  0  0  0  0  0
  191.5810  176.4170  146.9200 S   0  0  0  0  0  0  0  0  0  0  0  0
  186.7700  176.7450  143.4390 C   0  0  0  0  0  0  0  0  0  0  0  0
  189.6550  174.8740  141.9370 N   0  0  0  0  0  0  0  0  0  0  0  0
  184.4330  178.2950  143.5210 C   0  0  0  0  0  0  0  0  0  0  0  0
  186.1690  177.1920  142.2460 C   0  0  0  0  0  0  0  0  0  0  0  0
  190.9400  175.4990  143.9890 C   0  0  1  0  0  3  0  0  0  0  0  0
  187.9380  175.9720  143.3690 C   0  0  0  0  0  0  0  0  0  0  0  0
  190.0980  174.2500  146.0670 C   0  0  0  0  0  2  0  0  0  0  0  0
  186.7230  176.8650  141.0530 N   0  0  0  0  0  0  0  0  0  0  0  0
  190.6990  177.4320  145.7020 C   0  0  0  0  0  2  0  0  0  0  0  0
  191.0100  177.0090  144.2690 C   0  0  0  0  0  2  0  0  0  0  0  0
  189.7810  174.7400  144.6520 C   0  0  1  0  0  3  0  0  0  0  0  0
  189.6160  173.7190  141.0520 C   0  0  0  0  0  2  0  0  0  0  0  0
  189.7630  171.6290  142.4000 C   0  0  0  0  0  3  0  0  0  0  0  0
  189.0210  172.5400  141.7600 C   0  0  0  0  0  3  0  0  0  0  0  0
  191.2590  171.6850  142.4730 C   0  0  0  0  0  2  0  0  0  0  0  0
  191.7400  171.1970  143.8260 C   0  0  0  0  0  2  0  0  0  0  0  0
  192.3790  172.2390  144.4950 O   0  0  0  0  0  1  0  0  0  0  0  0
  2 16  1  0  0  0  0
  3 21  1  0  0  0  0
  4 13  2  0  0  0  0
  6 18  1  0  0  0  0
  6  2  2  0  0  0  0
  7  9  2  0  0  0  0
 10  8  1  0  0  0  0
 11  7  1  0  0  0  0
 12  2  1  0  0  0  0
 12  1  1  0  0  0  0
 13  5  1  0  0  0  0
 13  9  1  0  0  0  0
 14  4  1  0  0  0  0
 14 11  1  0  0  0  0
 15  1  1  6  0  0  0
 15 20  1  0  0  0  0
 15 21  1  0  0  0  0
 16 11  2  0  0  0  0
 16  3  1  0  0  0  0
 17  8  1  0  0  0  0
 18 14  2  0  0  0  0
 19 10  1  0  0  0  0
 20 19  1  0  0  0  0
 21 17  1  1  0  0  0
 22 24  1  0  0  0  0
 22 12  1  0  0  0  0
 23 25  1  0  0  0  0
 24 23  2  0  0  0  0
 25 26  1  0  0  0  0
 26 27  1  0  0  0  0
M  END
>  <MODEL>
7

>  <REMARK>
 VINA RESULT:      -6.7      3.152      4.929
  Name = 
  4 active torsions:
  status: ('A' for Active; 'I' for Inactive)
    1  A    between atoms: C_7  and  C_11
    2  A    between atoms: C_7  and  C_25
    3  A    between atoms: C_9  and  N_15
    4  A    between atoms: C_9  and  C_27
                            x       y       z     vdW  Elec       q    Type
                         _______ _______ _______ _____ _____    ______ ____

>  <TORSDO>
F 4

$$$$
=
 OpenBabel11052418253D

 27 30  0  0  1  0  0  0  0  0999 V2000
  190.0990  177.2350  143.8290 C   0  0  0  0  0  2  0  0  0  0  0  0
  190.5020  174.9950  142.7100 C   0  0  0  0  0  0  0  0  0  0  0  0
  188.0290  175.2170  142.4120 N   0  0  0  0  0  2  0  0  0  0  0  0
  190.7330  172.4810  139.4040 C   0  0  0  0  0  3  0  0  0  0  0  0
  189.6980  171.2690  137.4810 C   0  0  0  0  0  1  0  0  0  0  0  0
  191.6710  174.4290  142.3020 N   0  0  0  0  0  0  0  0  0  0  0  0
  188.2460  173.5350  140.1380 C   0  0  0  0  0  3  0  0  0  0  0  0
  185.5660  176.9170  142.5640 C   0  0  0  0  0  2  0  0  0  0  0  0
  188.3490  172.6920  139.0280 C   0  0  0  0  0  3  0  0  0  0  0  0
  186.0290  178.6150  142.1120 S   0  0  0  0  0  0  0  0  0  0  0  0
  189.3850  173.8590  140.8890 C   0  0  0  0  0  0  0  0  0  0  0  0
  190.5040  175.8280  143.8800 N   0  0  0  0  0  0  0  0  0  0  0  0
  189.5910  172.1660  138.6620 C   0  0  0  0  0  0  0  0  0  0  0  0
  190.6330  173.3230  140.5140 C   0  0  0  0  0  0  0  0  0  0  0  0
  188.6710  177.4360  143.3270 C   0  0  1  0  0  3  0  0  0  0  0  0
  189.3100  174.7020  142.0070 C   0  0  0  0  0  0  0  0  0  0  0  0
  186.3500  176.4370  143.7790 C   0  0  0  0  0  2  0  0  0  0  0  0
  191.7370  173.6260  141.2400 N   0  0  0  0  0  0  0  0  0  0  0  0
  187.4200  177.9950  141.1250 C   0  0  0  0  0  2  0  0  0  0  0  0
  188.7320  178.0150  141.9040 C   0  0  0  0  0  2  0  0  0  0  0  0
  187.8300  176.1620  143.5040 C   0  0  1  0  0  3  0  0  0  0  0  0
  191.1120  175.3340  145.1080 C   0  0  0  0  0  2  0  0  0  0  0  0
  189.3650  175.0860  146.8660 C   0  0  0  0  0  3  0  0  0  0  0  0
  190.1160  174.5440  145.9010 C   0  0  0  0  0  3  0  0  0  0  0  0
  189.4420  176.5300  147.2600 C   0  0  0  0  0  2  0  0  0  0  0  0
  188.1410  177.2370  146.9300 C   0  0  0  0  0  2  0  0  0  0  0  0
  187.0680  176.4110  147.2590 O   0  0  0  0  0  1  0  0  0  0  0  0
  1 12  1  0  0  0  0
  2 12  1  0  0  0  0
  3 21  1  0  0  0  0
  4 14  1  0  0  0  0
  5 13  1  0  0  0  0
  6  2  1  0  0  0  0
  7 11  1  0  0  0  0
  8 17  1  0  0  0  0
  9  7  2  0  0  0  0
 10  8  1  0  0  0  0
 11 16  1  0  0  0  0
 12 22  1  0  0  0  0
 13  9  1  0  0  0  0
 13  4  2  0  0  0  0
 14 11  2  0  0  0  0
 14 18  1  0  0  0  0
 15 20  1  6  0  0  0
 15 21  1  0  0  0  0
 15  1  1  0  0  0  0
 16  3  1  0  0  0  0
 16  2  2  0  0  0  0
 18  6  2  0  0  0  0
 19 20  1  0  0  0  0
 19 10  1  0  0  0  0
 21 17  1  6  0  0  0
 22 24  1  0  0  0  0
 23 25  1  0  0  0  0
 24 23  2  0  0  0  0
 26 27  1  0  0  0  0
 26 25  1  0  0  0  0
M  END
>  <MODEL>
8

>  <REMARK>
 VINA RESULT:      -6.7      3.630      6.609
  Name = 
  4 active torsions:
  status: ('A' for Active; 'I' for Inactive)
    1  A    between atoms: C_7  and  C_11
    2  A    between atoms: C_7  and  C_25
    3  A    between atoms: C_9  and  N_15
    4  A    between atoms: C_9  and  C_27
                            x       y       z     vdW  Elec       q    Type
                         _______ _______ _______ _____ _____    ______ ____

>  <TORSDO>
F 4

$$$$
=
 OpenBabel11052418253D

 27 30  0  0  1  0  0  0  0  0999 V2000
  190.7950  172.3870  143.8750 C   0  0  0  0  0  2  0  0  0  0  0  0
  190.1520  174.5030  145.1160 C   0  0  0  0  0  0  0  0  0  0  0  0
  189.4230  175.0940  142.7980 N   0  0  0  0  0  2  0  0  0  0  0  0
  187.4020  177.1790  146.7240 C   0  0  0  0  0  3  0  0  0  0  0  0
  185.5700  178.8600  146.4940 C   0  0  0  0  0  1  0  0  0  0  0  0
  190.0410  174.7220  146.4550 N   0  0  0  0  0  0  0  0  0  0  0  0
  187.5330  176.8710  143.9450 C   0  0  0  0  0  3  0  0  0  0  0  0
  188.8820  174.2350  139.9790 C   0  0  0  0  0  2  0  0  0  0  0  0
  186.6130  177.7600  144.5090 C   0  0  0  0  0  3  0  0  0  0  0  0
  188.2300  172.5400  140.0260 S   0  0  0  0  0  0  0  0  0  0  0  0
  188.3930  176.1280  144.7660 C   0  0  0  0  0  0  0  0  0  0  0  0
  191.1490  173.5840  144.6420 N   0  0  0  0  0  0  0  0  0  0  0  0
  186.5480  177.9130  145.8970 C   0  0  0  0  0  0  0  0  0  0  0  0
  188.3220  176.2890  146.1640 C   0  0  0  0  0  0  0  0  0  0  0  0
  190.0400  172.6970  142.5830 C   0  0  1  0  0  3  0  0  0  0  0  0
  189.3240  175.2290  144.2270 C   0  0  0  0  0  0  0  0  0  0  0  0
  190.2720  174.3080  140.5990 C   0  0  0  0  0  2  0  0  0  0  0  0
  189.1560  175.5790  146.9630 N   0  0  0  0  0  0  0  0  0  0  0  0
  187.6010  172.8050  141.7070 C   0  0  0  0  0  2  0  0  0  0  0  0
  188.5690  172.2920  142.7690 C   0  0  0  0  0  2  0  0  0  0  0  0
  190.2920  174.1400  142.1200 C   0  0  1  0  0  3  0  0  0  0  0  0
  192.5240  173.7240  145.0980 C   0  0  0  0  0  2  0  0  0  0  0  0
  193.7650  175.4690  143.8260 C   0  0  0  0  0  3  0  0  0  0  0  0
  193.4000  174.1910  143.9760 C   0  0  0  0  0  3  0  0  0  0  0  0
  193.3350  176.5650  144.7520 C   0  0  0  0  0  2  0  0  0  0  0  0
  194.5240  177.0910  145.5340 C   0  0  0  0  0  2  0  0  0  0  0  0
  194.1960  177.1610  146.8870 O   0  0  0  0  0  1  0  0  0  0  0  0
  1 12  1  0  0  0  0
  2  6  1  0  0  0  0
  3 16  1  0  0  0  0
  6 18  2  0  0  0  0
  7  9  2  0  0  0  0
  7 11  1  0  0  0  0
  8 10  1  0  0  0  0
  8 17  1  0  0  0  0
  9 13  1  0  0  0  0
 10 19  1  0  0  0  0
 11 14  2  0  0  0  0
 12 22  1  0  0  0  0
 12  2  1  0  0  0  0
 13  5  1  0  0  0  0
 13  4  2  0  0  0  0
 14  4  1  0  0  0  0
 14 18  1  0  0  0  0
 15 20  1  1  0  0  0
 15  1  1  0  0  0  0
 16 11  1  0  0  0  0
 16  2  2  0  0  0  0
 19 20  1  0  0  0  0
 21 17  1  6  0  0  0
 21 15  1  0  0  0  0
 21  3  1  0  0  0  0
 23 24  2  0  0  0  0
 23 25  1  0  0  0  0
 24 22  1  0  0  0  0
 25 26  1  0  0  0  0
 26 27  1  0  0  0  0
M  END
>  <MODEL>
9

>  <REMARK>
 VINA RESULT:      -6.7      1.735      2.168
  Name = 
  4 active torsions:
  status: ('A' for Active; 'I' for Inactive)
    1  A    between atoms: C_7  and  C_11
    2  A    between atoms: C_7  and  C_25
    3  A    between atoms: C_9  and  N_15
    4  A    between atoms: C_9  and  C_27
                            x       y       z     vdW  Elec       q    Type
                         _______ _______ _______ _____ _____    ______ ____

>  <TORSDO>
F 4

$$$$
