=
 OpenBabel11052418473D

 34 40  0  0  1  0  0  0  0  0999 V2000
  189.2020  173.9000  141.3970 C   0  0  0  0  0  0  0  0  0  0  0  0
  191.6180  173.5750  141.9060 C   0  0  0  0  0  0  0  0  0  0  0  0
  190.1960  174.9300  143.3710 N   0  0  0  0  0  0  0  0  0  0  0  0
  191.2550  176.1220  145.1590 C   0  0  0  0  0  0  0  0  0  0  0  0
  190.6590  172.7390  139.8600 C   0  0  0  0  0  3  0  0  0  0  0  0
  191.7710  173.0320  140.7310 N   0  0  0  0  0  0  0  0  0  0  0  0
  192.6670  174.7130  143.7380 C   0  0  0  0  0  0  0  0  0  0  0  0
  190.2380  173.7780  142.4770 C   0  0  1  0  0  3  0  0  0  0  0  0
  193.8670  175.0660  144.5830 C   0  0  2  0  0  3  0  0  0  0  0  0
  192.4680  176.4160  146.0000 C   0  0  0  0  0  2  0  0  0  0  0  0
  189.4210  173.1630  140.1480 C   0  0  0  0  0  3  0  0  0  0  0  0
  188.9470  175.5770  143.6440 C   0  0  0  0  0  0  0  0  0  0  0  0
  188.1270  174.6100  141.5880 N   0  0  0  0  0  0  0  0  0  0  0  0
  192.7650  173.9330  142.6960 N   0  0  0  0  0  0  0  0  0  0  0  0
  189.9780  176.6870  145.5110 N   0  0  0  0  0  0  0  0  0  0  0  0
  188.8750  176.4670  144.8410 C   0  0  0  0  0  0  0  0  0  0  0  0
  193.6860  176.3940  145.1810 N   0  0  0  0  0  2  0  0  0  0  0  0
  191.3560  175.2670  144.1340 C   0  0  0  0  0  0  0  0  0  0  0  0
  187.9450  175.4180  142.7670 C   0  0  0  0  0  3  0  0  0  0  0  0
  185.8690  178.7870  145.1020 C   0  0  0  0  0  0  0  0  0  0  0  0
  185.2170  178.2600  146.2190 C   0  0  0  0  0  3  0  0  0  0  0  0
  187.6190  177.1070  145.3140 C   0  0  0  0  0  0  0  0  0  0  0  0
  185.7570  177.1580  146.8850 C   0  0  0  0  0  3  0  0  0  0  0  0
  187.0590  178.2120  144.6510 C   0  0  0  0  0  3  0  0  0  0  0  0
  186.9490  176.5840  146.4320 C   0  0  0  0  0  3  0  0  0  0  0  0
  185.1920  180.1660  144.2630 Cl  0  0  0  0  0  0  0  0  0  0  0  0
  195.1510  175.0540  143.7610 C   0  0  0  0  0  2  0  0  0  0  0  0
  197.8260  176.0170  142.8740 C   0  0  0  0  0  1  0  0  0  0  0  0
  196.3170  175.1450  144.6410 N   0  0  0  0  0  0  0  0  0  0  0  0
  197.5650  174.9150  143.8880 C   0  0  1  0  0  3  0  0  0  0  0  0
  196.9410  172.4540  144.0760 C   0  0  0  0  0  2  0  0  0  0  0  0
  196.9110  172.8500  145.5460 C   0  0  0  0  0  2  0  0  0  0  0  0
  196.1430  174.1690  145.7340 C   0  0  0  0  0  2  0  0  0  0  0  0
  197.6330  173.5270  143.2330 C   0  0  0  0  0  2  0  0  0  0  0  0
  1 13  2  0  0  0  0
  2  8  1  0  0  0  0
  2 14  1  0  0  0  0
  3 12  1  0  0  0  0
  3 18  1  0  0  0  0
  4 15  1  0  0  0  0
  4 10  1  0  0  0  0
  5 11  2  0  0  0  0
  5  6  1  0  0  0  0
  6  2  2  0  0  0  0
  7 18  1  0  0  0  0
  7  9  1  0  0  0  0
  8  1  1  6  0  0  0
  8  3  1  0  0  0  0
  9 27  1  6  0  0  0
  9 17  1  0  0  0  0
 11  1  1  0  0  0  0
 12 16  1  0  0  0  0
 13 19  1  0  0  0  0
 14  7  2  0  0  0  0
 16 22  1  0  0  0  0
 16 15  2  0  0  0  0
 17 10  1  0  0  0  0
 18  4  2  0  0  0  0
 19 12  2  0  0  0  0
 20 21  1  0  0  0  0
 21 23  2  0  0  0  0
 22 25  2  0  0  0  0
 24 20  2  0  0  0  0
 24 22  1  0  0  0  0
 25 23  1  0  0  0  0
 26 20  1  0  0  0  0
 27 29  1  0  0  0  0
 29 33  1  0  0  0  0
 30 28  1  6  0  0  0
 30 29  1  0  0  0  0
 31 32  1  0  0  0  0
 32 33  1  0  0  0  0
 34 30  1  0  0  0  0
 34 31  1  0  0  0  0
M  END
>  <MODEL>
1

>  <REMARK>
 VINA RESULT:      -8.6      0.000      0.000
  Name = 
  3 active torsions:
  status: ('A' for Active; 'I' for Inactive)
    1  A    between atoms: C_3  and  N_13
    2  A    between atoms: C_3  and  C_17
    3  A    between atoms: C_12  and  C_28
                            x       y       z     vdW  Elec       q    Type
                         _______ _______ _______ _____ _____    ______ ____

>  <TORSDO>
F 3

$$$$
=
 OpenBabel11052418473D

 34 40  0  0  1  0  0  0  0  0999 V2000
  190.6290  174.0170  141.6240 C   0  0  0  0  0  0  0  0  0  0  0  0
  188.9810  175.6140  142.5930 C   0  0  0  0  0  0  0  0  0  0  0  0
  191.0020  174.9900  143.8290 N   0  0  0  0  0  0  0  0  0  0  0  0
  191.2150  175.7720  146.0840 C   0  0  0  0  0  0  0  0  0  0  0  0
  188.5380  174.4860  140.5110 C   0  0  0  0  0  3  0  0  0  0  0  0
  188.1590  175.3210  141.6260 N   0  0  0  0  0  0  0  0  0  0  0  0
  189.2270  176.4540  144.8250 C   0  0  0  0  0  0  0  0  0  0  0  0
  190.4330  175.2170  142.5060 C   0  0  1  0  0  3  0  0  0  0  0  0
  188.7620  177.2720  146.0060 C   0  0  2  0  0  3  0  0  0  0  0  0
  190.7370  176.6310  147.2220 C   0  0  0  0  0  2  0  0  0  0  0  0
  189.7070  173.8350  140.4970 C   0  0  0  0  0  3  0  0  0  0  0  0
  192.1740  174.1780  143.9730 C   0  0  0  0  0  0  0  0  0  0  0  0
  191.6110  173.1910  141.8410 N   0  0  0  0  0  0  0  0  0  0  0  0
  188.5270  176.3720  143.7270 N   0  0  0  0  0  0  0  0  0  0  0  0
  192.4550  175.0490  146.1960 N   0  0  0  0  0  0  0  0  0  0  0  0
  192.9460  174.2950  145.2450 C   0  0  0  0  0  0  0  0  0  0  0  0
  189.2700  176.6870  147.2530 N   0  0  0  0  0  2  0  0  0  0  0  0
  190.5210  175.7500  144.9390 C   0  0  0  0  0  0  0  0  0  0  0  0
  192.4610  173.3010  142.9990 C   0  0  0  0  0  3  0  0  0  0  0  0
  195.5580  171.5790  145.7920 C   0  0  0  0  0  0  0  0  0  0  0  0
  196.7230  172.3420  145.8980 C   0  0  0  0  0  3  0  0  0  0  0  0
  194.2420  173.6060  145.4860 C   0  0  0  0  0  0  0  0  0  0  0  0
  196.6560  173.7330  145.7960 C   0  0  0  0  0  3  0  0  0  0  0  0
  194.3270  172.2070  145.5840 C   0  0  0  0  0  3  0  0  0  0  0  0
  195.4230  174.3600  145.5870 C   0  0  0  0  0  3  0  0  0  0  0  0
  195.6390  169.8360  145.9160 Cl  0  0  0  0  0  0  0  0  0  0  0  0
  187.2410  177.3480  146.0680 C   0  0  0  0  0  2  0  0  0  0  0  0
  186.9500  179.1960  148.3850 C   0  0  0  0  0  1  0  0  0  0  0  0
  186.7970  178.7380  145.9510 N   0  0  0  0  0  0  0  0  0  0  0  0
  186.0570  179.1590  147.1560 C   0  0  1  0  0  3  0  0  0  0  0  0
  184.1150  177.8850  146.1120 C   0  0  0  0  0  2  0  0  0  0  0  0
  184.4600  178.8310  144.9690 C   0  0  0  0  0  2  0  0  0  0  0  0
  185.9790  178.8560  144.7290 C   0  0  0  0  0  2  0  0  0  0  0  0
  184.7900  178.3280  147.4120 C   0  0  0  0  0  2  0  0  0  0  0  0
  1 13  2  0  0  0  0
  2 14  1  0  0  0  0
  3 12  1  0  0  0  0
  3 18  1  0  0  0  0
  4 15  1  0  0  0  0
  4 10  1  0  0  0  0
  5  6  1  0  0  0  0
  6  2  2  0  0  0  0
  7 18  1  0  0  0  0
  7  9  1  0  0  0  0
  8  1  1  6  0  0  0
  8  2  1  0  0  0  0
  8  3  1  0  0  0  0
  9 27  1  1  0  0  0
  9 17  1  0  0  0  0
 10 17  1  0  0  0  0
 11  5  2  0  0  0  0
 11  1  1  0  0  0  0
 12 16  1  0  0  0  0
 13 19  1  0  0  0  0
 14  7  2  0  0  0  0
 16 22  1  0  0  0  0
 16 15  2  0  0  0  0
 18  4  2  0  0  0  0
 19 12  2  0  0  0  0
 20 21  1  0  0  0  0
 20 26  1  0  0  0  0
 22 24  1  0  0  0  0
 22 25  2  0  0  0  0
 23 21  2  0  0  0  0
 24 20  2  0  0  0  0
 25 23  1  0  0  0  0
 29 27  1  0  0  0  0
 29 30  1  0  0  0  0
 30 34  1  0  0  0  0
 30 28  1  1  0  0  0
 31 34  1  0  0  0  0
 32 31  1  0  0  0  0
 33 32  1  0  0  0  0
 33 29  1  0  0  0  0
M  END
>  <MODEL>
2

>  <REMARK>
 VINA RESULT:      -8.5      3.013      8.293
  Name = 
  3 active torsions:
  status: ('A' for Active; 'I' for Inactive)
    1  A    between atoms: C_3  and  N_13
    2  A    between atoms: C_3  and  C_17
    3  A    between atoms: C_12  and  C_28
                            x       y       z     vdW  Elec       q    Type
                         _______ _______ _______ _____ _____    ______ ____

>  <TORSDO>
F 3

$$$$
=
 OpenBabel11052418473D

 34 40  0  0  1  0  0  0  0  0999 V2000
  188.9680  174.3390  141.1040 C   0  0  0  0  0  0  0  0  0  0  0  0
  191.3450  173.7490  141.5590 C   0  0  0  0  0  0  0  0  0  0  0  0
  190.0220  174.9950  143.2040 N   0  0  0  0  0  0  0  0  0  0  0  0
  191.1560  175.8300  145.1420 C   0  0  0  0  0  0  0  0  0  0  0  0
  190.3420  173.2920  139.4170 C   0  0  0  0  0  3  0  0  0  0  0  0
  191.4650  173.3660  140.3200 N   0  0  0  0  0  0  0  0  0  0  0  0
  192.4630  174.5250  143.5330 C   0  0  0  0  0  0  0  0  0  0  0  0
  189.9790  173.9810  142.1550 C   0  0  1  0  0  3  0  0  0  0  0  0
  193.6790  174.6550  144.4190 C   0  0  2  0  0  3  0  0  0  0  0  0
  192.3800  175.9020  146.0140 C   0  0  0  0  0  2  0  0  0  0  0  0
  189.1400  173.7710  139.7630 C   0  0  0  0  0  3  0  0  0  0  0  0
  188.8270  175.6970  143.5670 C   0  0  0  0  0  0  0  0  0  0  0  0
  187.9530  175.1020  141.3950 N   0  0  0  0  0  0  0  0  0  0  0  0
  192.5080  173.8950  142.3910 N   0  0  0  0  0  0  0  0  0  0  0  0
  189.9260  176.4430  145.5720 N   0  0  0  0  0  0  0  0  0  0  0  0
  188.8160  176.4110  144.8780 C   0  0  0  0  0  0  0  0  0  0  0  0
  193.6010  175.8960  145.2000 N   0  0  0  0  0  2  0  0  0  0  0  0
  191.1980  175.1240  144.0050 C   0  0  0  0  0  0  0  0  0  0  0  0
  187.8250  175.7470  142.6770 C   0  0  0  0  0  3  0  0  0  0  0  0
  185.8540  178.7610  145.3200 C   0  0  0  0  0  0  0  0  0  0  0  0
  185.3070  178.2860  146.5140 C   0  0  0  0  0  3  0  0  0  0  0  0
  187.6110  177.0790  145.4390 C   0  0  0  0  0  0  0  0  0  0  0  0
  185.9040  177.2090  147.1730 C   0  0  0  0  0  3  0  0  0  0  0  0
  186.9960  178.1590  144.7850 C   0  0  0  0  0  3  0  0  0  0  0  0
  187.0460  176.6080  146.6360 C   0  0  0  0  0  3  0  0  0  0  0  0
  185.1060  180.1080  144.4900 Cl  0  0  0  0  0  0  0  0  0  0  0  0
  194.9670  174.6540  143.6020 C   0  0  0  0  0  2  0  0  0  0  0  0
  196.6150  173.8980  145.9640 C   0  0  0  0  0  1  0  0  0  0  0  0
  195.6530  173.3690  143.7380 N   0  0  0  0  0  0  0  0  0  0  0  0
  196.8960  173.5140  144.5200 C   0  0  1  0  0  3  0  0  0  0  0  0
  197.8700  174.4160  142.3480 C   0  0  0  0  0  2  0  0  0  0  0  0
  197.3390  173.0730  141.8650 C   0  0  0  0  0  2  0  0  0  0  0  0
  195.9090  172.8410  142.3840 C   0  0  0  0  0  2  0  0  0  0  0  0
  197.9100  174.4720  143.8760 C   0  0  0  0  0  2  0  0  0  0  0  0
  1 13  2  0  0  0  0
  2  8  1  0  0  0  0
  2 14  1  0  0  0  0
  3 12  1  0  0  0  0
  3 18  1  0  0  0  0
  4 15  1  0  0  0  0
  4 10  1  0  0  0  0
  5 11  2  0  0  0  0
  5  6  1  0  0  0  0
  6  2  2  0  0  0  0
  7 18  1  0  0  0  0
  7  9  1  0  0  0  0
  8  1  1  6  0  0  0
  8  3  1  0  0  0  0
  9 27  1  6  0  0  0
  9 17  1  0  0  0  0
 11  1  1  0  0  0  0
 12 16  1  0  0  0  0
 13 19  1  0  0  0  0
 14  7  2  0  0  0  0
 16 22  1  0  0  0  0
 16 15  2  0  0  0  0
 17 10  1  0  0  0  0
 18  4  2  0  0  0  0
 19 12  2  0  0  0  0
 20 21  1  0  0  0  0
 21 23  2  0  0  0  0
 22 25  2  0  0  0  0
 24 20  2  0  0  0  0
 24 22  1  0  0  0  0
 25 23  1  0  0  0  0
 26 20  1  0  0  0  0
 27 29  1  0  0  0  0
 29 30  1  0  0  0  0
 30 28  1  1  0  0  0
 31 34  1  0  0  0  0
 32 31  1  0  0  0  0
 32 33  1  0  0  0  0
 33 29  1  0  0  0  0
 34 30  1  0  0  0  0
M  END
>  <MODEL>
3

>  <REMARK>
 VINA RESULT:      -8.1      0.748      1.366
  Name = 
  3 active torsions:
  status: ('A' for Active; 'I' for Inactive)
    1  A    between atoms: C_3  and  N_13
    2  A    between atoms: C_3  and  C_17
    3  A    between atoms: C_12  and  C_28
                            x       y       z     vdW  Elec       q    Type
                         _______ _______ _______ _____ _____    ______ ____

>  <TORSDO>
F 3

$$$$
=
 OpenBabel11052418473D

 34 40  0  0  1  0  0  0  0  0999 V2000
  188.8220  173.6150  141.3130 C   0  0  0  0  0  0  0  0  0  0  0  0
  191.2200  173.2400  141.8710 C   0  0  0  0  0  0  0  0  0  0  0  0
  189.9200  174.9770  143.0120 N   0  0  0  0  0  0  0  0  0  0  0  0
  191.0910  176.4510  144.4940 C   0  0  0  0  0  0  0  0  0  0  0  0
  190.1670  172.0490  140.0610 C   0  0  0  0  0  3  0  0  0  0  0  0
  191.3140  172.4450  140.8430 N   0  0  0  0  0  0  0  0  0  0  0  0
  192.3780  174.6710  143.4080 C   0  0  0  0  0  0  0  0  0  0  0  0
  189.8670  173.6580  142.3900 C   0  0  1  0  0  3  0  0  0  0  0  0
  193.6150  175.1140  144.1510 C   0  0  2  0  0  3  0  0  0  0  0  0
  192.3370  176.8350  145.2450 C   0  0  0  0  0  2  0  0  0  0  0  0
  188.9670  172.6110  140.2530 C   0  0  0  0  0  3  0  0  0  0  0  0
  188.7240  175.7540  143.1420 C   0  0  0  0  0  0  0  0  0  0  0  0
  187.8020  174.4240  141.3480 N   0  0  0  0  0  0  0  0  0  0  0  0
  192.4030  173.6790  142.5610 N   0  0  0  0  0  0  0  0  0  0  0  0
  189.8630  177.1670  144.7180 N   0  0  0  0  0  0  0  0  0  0  0  0
  188.7350  176.8850  144.1160 C   0  0  0  0  0  0  0  0  0  0  0  0
  193.5360  176.5500  144.4470 N   0  0  0  0  0  2  0  0  0  0  0  0
  191.1150  175.3890  143.6780 C   0  0  0  0  0  0  0  0  0  0  0  0
  187.6970  175.4790  142.3240 C   0  0  0  0  0  3  0  0  0  0  0  0
  185.8600  178.4930  146.0240 C   0  0  0  0  0  0  0  0  0  0  0  0
  185.2870  179.2890  145.0300 C   0  0  0  0  0  3  0  0  0  0  0  0
  187.5340  177.6990  144.4440 C   0  0  0  0  0  0  0  0  0  0  0  0
  185.8330  179.2970  143.7440 C   0  0  0  0  0  3  0  0  0  0  0  0
  186.9780  177.7070  145.7330 C   0  0  0  0  0  3  0  0  0  0  0  0
  186.9510  178.5100  143.4550 C   0  0  0  0  0  3  0  0  0  0  0  0
  185.1810  178.4840  147.6370 Cl  0  0  0  0  0  0  0  0  0  0  0  0
  194.8790  174.8340  143.3470 C   0  0  0  0  0  2  0  0  0  0  0  0
  194.3270  175.7410  140.5650 C   0  0  0  0  0  1  0  0  0  0  0  0
  195.4020  176.0760  142.7760 N   0  0  0  0  0  0  0  0  0  0  0  0
  195.6290  175.9360  141.3250 C   0  0  1  0  0  3  0  0  0  0  0  0
  197.7580  174.7250  142.0200 C   0  0  0  0  0  2  0  0  0  0  0  0
  197.9390  176.0370  142.7710 C   0  0  0  0  0  2  0  0  0  0  0  0
  196.6410  176.4260  143.4980 C   0  0  0  0  0  2  0  0  0  0  0  0
  196.6490  174.8420  140.9720 C   0  0  0  0  0  2  0  0  0  0  0  0
  1 13  2  0  0  0  0
  2  8  1  0  0  0  0
  2 14  1  0  0  0  0
  3 12  1  0  0  0  0
  3 18  1  0  0  0  0
  4 15  1  0  0  0  0
  4 10  1  0  0  0  0
  5 11  2  0  0  0  0
  5  6  1  0  0  0  0
  6  2  2  0  0  0  0
  7 18  1  0  0  0  0
  7  9  1  0  0  0  0
  8  1  1  6  0  0  0
  8  3  1  0  0  0  0
  9 27  1  6  0  0  0
  9 17  1  0  0  0  0
 11  1  1  0  0  0  0
 12 16  1  0  0  0  0
 13 19  1  0  0  0  0
 14  7  2  0  0  0  0
 16 22  1  0  0  0  0
 16 15  2  0  0  0  0
 17 10  1  0  0  0  0
 18  4  2  0  0  0  0
 19 12  2  0  0  0  0
 20 26  1  0  0  0  0
 21 20  2  0  0  0  0
 22 24  2  0  0  0  0
 23 21  1  0  0  0  0
 24 20  1  0  0  0  0
 25 23  2  0  0  0  0
 25 22  1  0  0  0  0
 29 27  1  0  0  0  0
 29 33  1  0  0  0  0
 30 28  1  6  0  0  0
 30 29  1  0  0  0  0
 31 32  1  0  0  0  0
 32 33  1  0  0  0  0
 34 30  1  0  0  0  0
 34 31  1  0  0  0  0
M  END
>  <MODEL>
4

>  <REMARK>
 VINA RESULT:      -8.0      1.443      2.006
  Name = 
  3 active torsions:
  status: ('A' for Active; 'I' for Inactive)
    1  A    between atoms: C_3  and  N_13
    2  A    between atoms: C_3  and  C_17
    3  A    between atoms: C_12  and  C_28
                            x       y       z     vdW  Elec       q    Type
                         _______ _______ _______ _____ _____    ______ ____

>  <TORSDO>
F 3

$$$$
=
 OpenBabel11052418473D

 34 40  0  0  1  0  0  0  0  0999 V2000
  191.6500  176.2340  145.7750 C   0  0  0  0  0  0  0  0  0  0  0  0
  192.2670  174.3460  144.2710 C   0  0  0  0  0  0  0  0  0  0  0  0
  190.1130  175.4910  144.0330 N   0  0  0  0  0  0  0  0  0  0  0  0
  188.5340  174.5810  142.4780 C   0  0  0  0  0  0  0  0  0  0  0  0
  193.6760  174.9660  146.1240 C   0  0  0  0  0  3  0  0  0  0  0  0
  193.2940  174.1010  145.0340 N   0  0  0  0  0  0  0  0  0  0  0  0
  190.7130  173.4770  142.6650 C   0  0  0  0  0  0  0  0  0  0  0  0
  191.5170  175.6480  144.3990 C   0  0  1  0  0  3  0  0  0  0  0  0
  190.3110  172.5050  141.5820 C   0  0  2  0  0  3  0  0  0  0  0  0
  188.1880  173.6190  141.3750 C   0  0  0  0  0  2  0  0  0  0  0  0
  192.8940  175.9820  146.5110 C   0  0  0  0  0  3  0  0  0  0  0  0
  189.1410  176.4300  144.5110 C   0  0  0  0  0  0  0  0  0  0  0  0
  190.7010  176.9710  146.2750 N   0  0  0  0  0  0  0  0  0  0  0  0
  191.8730  173.4050  143.2580 N   0  0  0  0  0  0  0  0  0  0  0  0
  187.5920  175.5960  142.8730 N   0  0  0  0  0  0  0  0  0  0  0  0
  187.8240  176.4790  143.8110 C   0  0  0  0  0  0  0  0  0  0  0  0
  188.8530  172.3270  141.5830 N   0  0  0  0  0  2  0  0  0  0  0  0
  189.7520  174.5390  143.0320 C   0  0  0  0  0  0  0  0  0  0  0  0
  189.4360  177.1450  145.6070 C   0  0  0  0  0  3  0  0  0  0  0  0
  185.0260  178.3670  145.5720 C   0  0  0  0  0  0  0  0  0  0  0  0
  184.8080  179.4210  144.6810 C   0  0  0  0  0  3  0  0  0  0  0  0
  186.7670  177.4800  144.1190 C   0  0  0  0  0  0  0  0  0  0  0  0
  185.5660  179.5110  143.5120 C   0  0  0  0  0  3  0  0  0  0  0  0
  186.0020  177.4060  145.2940 C   0  0  0  0  0  3  0  0  0  0  0  0
  186.5420  178.5490  143.2350 C   0  0  0  0  0  3  0  0  0  0  0  0
  184.0810  178.2530  147.0410 Cl  0  0  0  0  0  0  0  0  0  0  0  0
  190.9840  171.1510  141.7700 C   0  0  0  0  0  2  0  0  0  0  0  0
  190.8170  168.1800  141.6390 C   0  0  0  0  0  1  0  0  0  0  0  0
  190.9540  170.3910  140.5200 N   0  0  0  0  0  0  0  0  0  0  0  0
  191.5960  169.0730  140.6870 C   0  0  1  0  0  3  0  0  0  0  0  0
  193.7720  170.3760  140.4710 C   0  0  0  0  0  2  0  0  0  0  0  0
  193.0740  170.8090  139.1890 C   0  0  0  0  0  2  0  0  0  0  0  0
  191.6140  171.2000  139.4760 C   0  0  0  0  0  2  0  0  0  0  0  0
  193.0750  169.1650  141.0940 C   0  0  0  0  0  2  0  0  0  0  0  0
  1 13  2  0  0  0  0
  1 11  1  0  0  0  0
  2  6  2  0  0  0  0
  3  8  1  0  0  0  0
  3 12  1  0  0  0  0
  4 15  1  0  0  0  0
  4 18  2  0  0  0  0
  5 11  2  0  0  0  0
  6  5  1  0  0  0  0
  7 18  1  0  0  0  0
  7 14  2  0  0  0  0
  8  2  1  1  0  0  0
  8  1  1  0  0  0  0
  9 17  1  0  0  0  0
  9 27  1  1  0  0  0
  9  7  1  0  0  0  0
 10 17  1  0  0  0  0
 10  4  1  0  0  0  0
 12 19  2  0  0  0  0
 14  2  1  0  0  0  0
 15 16  2  0  0  0  0
 16 22  1  0  0  0  0
 16 12  1  0  0  0  0
 18  3  1  0  0  0  0
 19 13  1  0  0  0  0
 20 26  1  0  0  0  0
 21 20  2  0  0  0  0
 22 24  2  0  0  0  0
 23 21  1  0  0  0  0
 24 20  1  0  0  0  0
 25 23  2  0  0  0  0
 25 22  1  0  0  0  0
 29 30  1  0  0  0  0
 29 27  1  0  0  0  0
 30 34  1  0  0  0  0
 30 28  1  1  0  0  0
 31 34  1  0  0  0  0
 32 33  1  0  0  0  0
 32 31  1  0  0  0  0
 33 29  1  0  0  0  0
M  END
>  <MODEL>
5

>  <REMARK>
 VINA RESULT:      -7.9      2.390      5.300
  Name = 
  3 active torsions:
  status: ('A' for Active; 'I' for Inactive)
    1  A    between atoms: C_3  and  N_13
    2  A    between atoms: C_3  and  C_17
    3  A    between atoms: C_12  and  C_28
                            x       y       z     vdW  Elec       q    Type
                         _______ _______ _______ _____ _____    ______ ____

>  <TORSDO>
F 3

$$$$
=
 OpenBabel11052418473D

 34 40  0  0  1  0  0  0  0  0999 V2000
  188.6390  174.2750  140.3870 C   0  0  0  0  0  0  0  0  0  0  0  0
  190.5390  173.0900  141.4780 C   0  0  0  0  0  0  0  0  0  0  0  0
  189.1840  174.7070  142.7240 N   0  0  0  0  0  0  0  0  0  0  0  0
  189.8960  175.2840  144.9380 C   0  0  0  0  0  0  0  0  0  0  0  0
  190.1060  172.8340  139.1220 C   0  0  0  0  0  3  0  0  0  0  0  0
  190.9020  172.6410  140.3100 N   0  0  0  0  0  0  0  0  0  0  0  0
  191.2110  173.6160  143.7180 C   0  0  0  0  0  0  0  0  0  0  0  0
  189.1740  173.7010  141.6670 C   0  0  1  0  0  3  0  0  0  0  0  0
  192.1120  173.4510  144.9190 C   0  0  2  0  0  3  0  0  0  0  0  0
  190.7920  175.0610  146.1250 C   0  0  0  0  0  2  0  0  0  0  0  0
  189.0290  173.6300  139.1290 C   0  0  0  0  0  3  0  0  0  0  0  0
  188.1680  175.7160  142.7600 C   0  0  0  0  0  0  0  0  0  0  0  0
  187.8250  175.2920  140.4060 N   0  0  0  0  0  0  0  0  0  0  0  0
  191.4110  172.9520  142.6120 N   0  0  0  0  0  0  0  0  0  0  0  0
  188.8040  176.2200  145.0230 N   0  0  0  0  0  0  0  0  0  0  0  0
  187.9730  176.4580  144.0400 C   0  0  0  0  0  0  0  0  0  0  0  0
  192.1480  174.6970  145.6950 N   0  0  0  0  0  2  0  0  0  0  0  0
  190.0710  174.5490  143.8330 C   0  0  0  0  0  0  0  0  0  0  0  0
  187.5130  175.9970  141.6230 C   0  0  0  0  0  3  0  0  0  0  0  0
  185.0660  178.3550  145.6040 C   0  0  0  0  0  0  0  0  0  0  0  0
  184.8560  179.3590  144.6560 C   0  0  0  0  0  3  0  0  0  0  0  0
  186.8810  177.4450  144.2600 C   0  0  0  0  0  0  0  0  0  0  0  0
  185.6550  179.4130  143.5120 C   0  0  0  0  0  3  0  0  0  0  0  0
  186.0740  177.4070  145.4090 C   0  0  0  0  0  3  0  0  0  0  0  0
  186.6630  178.4640  143.3180 C   0  0  0  0  0  3  0  0  0  0  0  0
  184.0690  178.2860  147.0410 Cl  0  0  0  0  0  0  0  0  0  0  0  0
  193.5300  173.0750  144.5050 C   0  0  0  0  0  2  0  0  0  0  0  0
  195.5350  174.9080  145.7230 C   0  0  0  0  0  1  0  0  0  0  0  0
  194.3300  172.7390  145.6830 N   0  0  0  0  0  0  0  0  0  0  0  0
  195.6500  173.3960  145.6290 C   0  0  1  0  0  3  0  0  0  0  0  0
  196.2490  171.5160  144.0200 C   0  0  0  0  0  2  0  0  0  0  0  0
  195.7680  170.7020  145.2140 C   0  0  0  0  0  2  0  0  0  0  0  0
  194.4450  171.2690  145.7550 C   0  0  0  0  0  2  0  0  0  0  0  0
  196.4880  172.9750  144.4120 C   0  0  0  0  0  2  0  0  0  0  0  0
  1 13  2  0  0  0  0
  2  8  1  0  0  0  0
  2 14  1  0  0  0  0
  3 12  1  0  0  0  0
  3 18  1  0  0  0  0
  4 15  1  0  0  0  0
  4 10  1  0  0  0  0
  5 11  2  0  0  0  0
  5  6  1  0  0  0  0
  6  2  2  0  0  0  0
  7 18  1  0  0  0  0
  7  9  1  0  0  0  0
  8  1  1  6  0  0  0
  8  3  1  0  0  0  0
  9 27  1  6  0  0  0
  9 17  1  0  0  0  0
 11  1  1  0  0  0  0
 12 16  1  0  0  0  0
 13 19  1  0  0  0  0
 14  7  2  0  0  0  0
 16 22  1  0  0  0  0
 16 15  2  0  0  0  0
 17 10  1  0  0  0  0
 18  4  2  0  0  0  0
 19 12  2  0  0  0  0
 20 26  1  0  0  0  0
 21 20  2  0  0  0  0
 22 24  2  0  0  0  0
 23 21  1  0  0  0  0
 24 20  1  0  0  0  0
 25 23  2  0  0  0  0
 25 22  1  0  0  0  0
 27 29  1  0  0  0  0
 29 33  1  0  0  0  0
 30 29  1  0  0  0  0
 30 28  1  6  0  0  0
 31 34  1  0  0  0  0
 31 32  1  0  0  0  0
 32 33  1  0  0  0  0
 34 30  1  0  0  0  0
M  END
>  <MODEL>
6

>  <REMARK>
 VINA RESULT:      -7.8      1.720      2.166
  Name = 
  3 active torsions:
  status: ('A' for Active; 'I' for Inactive)
    1  A    between atoms: C_3  and  N_13
    2  A    between atoms: C_3  and  C_17
    3  A    between atoms: C_12  and  C_28
                            x       y       z     vdW  Elec       q    Type
                         _______ _______ _______ _____ _____    ______ ____

>  <TORSDO>
F 3

$$$$
=
 OpenBabel11052418473D

 34 40  0  0  1  0  0  0  0  0999 V2000
  192.4410  176.2710  145.8720 C   0  0  0  0  0  0  0  0  0  0  0  0
  193.1320  174.9580  143.8720 C   0  0  0  0  0  0  0  0  0  0  0  0
  190.8350  175.7810  144.1040 N   0  0  0  0  0  0  0  0  0  0  0  0
  189.2300  175.0760  142.4710 C   0  0  0  0  0  0  0  0  0  0  0  0
  194.6390  175.2820  145.7230 C   0  0  0  0  0  3  0  0  0  0  0  0
  194.2580  174.6830  144.4670 N   0  0  0  0  0  0  0  0  0  0  0  0
  191.5410  174.3090  142.2000 C   0  0  0  0  0  0  0  0  0  0  0  0
  192.2380  176.0500  144.4010 C   0  0  1  0  0  3  0  0  0  0  0  0
  191.1540  173.6020  140.9230 C   0  0  2  0  0  3  0  0  0  0  0  0
  188.8950  174.3920  141.1730 C   0  0  0  0  0  2  0  0  0  0  0  0
  193.7780  176.0300  146.4250 C   0  0  0  0  0  3  0  0  0  0  0  0
  189.8070  176.4020  144.8850 C   0  0  0  0  0  0  0  0  0  0  0  0
  191.4630  176.6990  146.6190 N   0  0  0  0  0  0  0  0  0  0  0  0
  192.7570  174.2640  142.6700 N   0  0  0  0  0  0  0  0  0  0  0  0
  188.2120  175.7960  143.1910 N   0  0  0  0  0  0  0  0  0  0  0  0
  188.4270  176.4290  144.3160 C   0  0  0  0  0  0  0  0  0  0  0  0
  189.7410  173.2080  140.9740 N   0  0  0  0  0  2  0  0  0  0  0  0
  190.4950  175.0780  142.9070 C   0  0  0  0  0  0  0  0  0  0  0  0
  190.1220  176.8440  146.1110 C   0  0  0  0  0  3  0  0  0  0  0  0
  185.6460  178.9400  144.9950 C   0  0  0  0  0  0  0  0  0  0  0  0
  185.1080  178.4330  146.1800 C   0  0  0  0  0  3  0  0  0  0  0  0
  187.2890  177.1420  144.9570 C   0  0  0  0  0  0  0  0  0  0  0  0
  185.6520  177.2830  146.7560 C   0  0  0  0  0  3  0  0  0  0  0  0
  186.7270  178.2950  144.3860 C   0  0  0  0  0  3  0  0  0  0  0  0
  186.7330  176.6400  146.1450 C   0  0  0  0  0  3  0  0  0  0  0  0
  184.9650  180.3780  144.2680 Cl  0  0  0  0  0  0  0  0  0  0  0  0
  192.0130  172.3650  140.6880 C   0  0  0  0  0  2  0  0  0  0  0  0
  190.8260  169.9750  142.0080 C   0  0  0  0  0  1  0  0  0  0  0  0
  191.2450  171.3410  139.9790 N   0  0  0  0  0  0  0  0  0  0  0  0
  191.4210  170.0190  140.6100 C   0  0  1  0  0  3  0  0  0  0  0  0
  193.6380  169.9860  139.3600 C   0  0  0  0  0  2  0  0  0  0  0  0
  192.6830  170.2400  138.2020 C   0  0  0  0  0  2  0  0  0  0  0  0
  191.6740  171.3420  138.5670 C   0  0  0  0  0  2  0  0  0  0  0  0
  192.8790  169.5340  140.6090 C   0  0  0  0  0  2  0  0  0  0  0  0
  1 11  1  0  0  0  0
  1 13  2  0  0  0  0
  2  6  2  0  0  0  0
  3  8  1  0  0  0  0
  3 12  1  0  0  0  0
  4 18  2  0  0  0  0
  4 15  1  0  0  0  0
  5 11  2  0  0  0  0
  6  5  1  0  0  0  0
  7 14  2  0  0  0  0
  7 18  1  0  0  0  0
  8  2  1  1  0  0  0
  8  1  1  0  0  0  0
  9 27  1  1  0  0  0
  9 17  1  0  0  0  0
  9  7  1  0  0  0  0
 10  4  1  0  0  0  0
 12 19  2  0  0  0  0
 14  2  1  0  0  0  0
 15 16  2  0  0  0  0
 16 12  1  0  0  0  0
 16 22  1  0  0  0  0
 17 10  1  0  0  0  0
 18  3  1  0  0  0  0
 19 13  1  0  0  0  0
 20 21  1  0  0  0  0
 21 23  2  0  0  0  0
 22 25  2  0  0  0  0
 24 22  1  0  0  0  0
 24 20  2  0  0  0  0
 25 23  1  0  0  0  0
 26 20  1  0  0  0  0
 29 30  1  0  0  0  0
 29 27  1  0  0  0  0
 30 28  1  1  0  0  0
 31 34  1  0  0  0  0
 32 33  1  0  0  0  0
 32 31  1  0  0  0  0
 33 29  1  0  0  0  0
 34 30  1  0  0  0  0
M  END
>  <MODEL>
7

>  <REMARK>
 VINA RESULT:      -7.8      1.894      5.122
  Name = 
  3 active torsions:
  status: ('A' for Active; 'I' for Inactive)
    1  A    between atoms: C_3  and  N_13
    2  A    between atoms: C_3  and  C_17
    3  A    between atoms: C_12  and  C_28
                            x       y       z     vdW  Elec       q    Type
                         _______ _______ _______ _____ _____    ______ ____

>  <TORSDO>
F 3

$$$$
=
 OpenBabel11052418473D

 34 40  0  0  1  0  0  0  0  0999 V2000
  191.2230  173.1570  141.3960 C   0  0  0  0  0  0  0  0  0  0  0  0
  189.6270  174.8000  142.3750 C   0  0  0  0  0  0  0  0  0  0  0  0
  191.5800  174.0340  143.6430 N   0  0  0  0  0  0  0  0  0  0  0  0
  191.7660  174.7280  145.9280 C   0  0  0  0  0  0  0  0  0  0  0  0
  189.1900  173.7660  140.2440 C   0  0  0  0  0  3  0  0  0  0  0  0
  188.8200  174.5810  141.3760 N   0  0  0  0  0  0  0  0  0  0  0  0
  189.8510  175.5500  144.6420 C   0  0  0  0  0  0  0  0  0  0  0  0
  191.0600  174.3340  142.3130 C   0  0  1  0  0  3  0  0  0  0  0  0
  189.3930  176.3500  145.8380 C   0  0  2  0  0  3  0  0  0  0  0  0
  191.2980  175.5710  147.0830 C   0  0  0  0  0  2  0  0  0  0  0  0
  190.3260  173.0580  140.2390 C   0  0  0  0  0  3  0  0  0  0  0  0
  192.7070  173.1600  143.7890 C   0  0  0  0  0  0  0  0  0  0  0  0
  192.1570  172.2750  141.6090 N   0  0  0  0  0  0  0  0  0  0  0  0
  189.1790  175.5410  143.5230 N   0  0  0  0  0  0  0  0  0  0  0  0
  192.9660  173.9410  146.0480 N   0  0  0  0  0  0  0  0  0  0  0  0
  193.4460  173.1960  145.0850 C   0  0  0  0  0  0  0  0  0  0  0  0
  189.8360  175.6990  147.0770 N   0  0  0  0  0  2  0  0  0  0  0  0
  191.1050  174.7790  144.7650 C   0  0  0  0  0  0  0  0  0  0  0  0
  192.9780  172.3040  142.7930 C   0  0  0  0  0  3  0  0  0  0  0  0
  195.8680  170.3950  145.9730 C   0  0  0  0  0  0  0  0  0  0  0  0
  197.0970  171.0220  145.7570 C   0  0  0  0  0  3  0  0  0  0  0  0
  194.7000  172.4350  145.3360 C   0  0  0  0  0  0  0  0  0  0  0  0
  197.1350  172.3510  145.3300 C   0  0  0  0  0  3  0  0  0  0  0  0
  194.6780  171.0970  145.7600 C   0  0  0  0  0  3  0  0  0  0  0  0
  195.9440  173.0510  145.1170 C   0  0  0  0  0  3  0  0  0  0  0  0
  195.8160  168.7290  146.5050 Cl  0  0  0  0  0  0  0  0  0  0  0  0
  187.8760  176.5000  145.8620 C   0  0  0  0  0  2  0  0  0  0  0  0
  186.3300  177.9220  147.9710 C   0  0  0  0  0  1  0  0  0  0  0  0
  187.5040  177.9130  145.7860 N   0  0  0  0  0  0  0  0  0  0  0  0
  186.2230  178.1590  146.4740 C   0  0  1  0  0  3  0  0  0  0  0  0
  185.1790  177.2150  144.3530 C   0  0  0  0  0  2  0  0  0  0  0  0
  186.0360  178.3250  143.7580 C   0  0  0  0  0  2  0  0  0  0  0  0
  187.4500  178.2960  144.3610 C   0  0  0  0  0  2  0  0  0  0  0  0
  185.0470  177.3770  145.8680 C   0  0  0  0  0  2  0  0  0  0  0  0
  1 13  2  0  0  0  0
  2 14  1  0  0  0  0
  3 12  1  0  0  0  0
  3 18  1  0  0  0  0
  4 15  1  0  0  0  0
  4 10  1  0  0  0  0
  5  6  1  0  0  0  0
  6  2  2  0  0  0  0
  7 18  1  0  0  0  0
  7  9  1  0  0  0  0
  8  1  1  6  0  0  0
  8  2  1  0  0  0  0
  8  3  1  0  0  0  0
  9 27  1  1  0  0  0
  9 17  1  0  0  0  0
 11  5  2  0  0  0  0
 11  1  1  0  0  0  0
 12 16  1  0  0  0  0
 13 19  1  0  0  0  0
 14  7  2  0  0  0  0
 16 22  1  0  0  0  0
 16 15  2  0  0  0  0
 17 10  1  0  0  0  0
 18  4  2  0  0  0  0
 19 12  2  0  0  0  0
 20 26  1  0  0  0  0
 21 20  2  0  0  0  0
 22 24  2  0  0  0  0
 23 21  1  0  0  0  0
 24 20  1  0  0  0  0
 25 23  2  0  0  0  0
 25 22  1  0  0  0  0
 29 27  1  0  0  0  0
 29 30  1  0  0  0  0
 30 28  1  1  0  0  0
 31 34  1  0  0  0  0
 32 31  1  0  0  0  0
 32 33  1  0  0  0  0
 33 29  1  0  0  0  0
 34 30  1  0  0  0  0
M  END
>  <MODEL>
8

>  <REMARK>
 VINA RESULT:      -7.8      3.208      8.253
  Name = 
  3 active torsions:
  status: ('A' for Active; 'I' for Inactive)
    1  A    between atoms: C_3  and  N_13
    2  A    between atoms: C_3  and  C_17
    3  A    between atoms: C_12  and  C_28
                            x       y       z     vdW  Elec       q    Type
                         _______ _______ _______ _____ _____    ______ ____

>  <TORSDO>
F 3

$$$$
=
 OpenBabel11052418473D

 34 40  0  0  1  0  0  0  0  0999 V2000
  190.0000  173.5550  140.6410 C   0  0  0  0  0  0  0  0  0  0  0  0
  188.6180  175.3570  141.6650 C   0  0  0  0  0  0  0  0  0  0  0  0
  190.3460  174.2050  142.9660 N   0  0  0  0  0  0  0  0  0  0  0  0
  190.4910  174.6990  145.3060 C   0  0  0  0  0  0  0  0  0  0  0  0
  188.1630  174.5580  139.4380 C   0  0  0  0  0  3  0  0  0  0  0  0
  187.8520  175.3390  140.6110 N   0  0  0  0  0  0  0  0  0  0  0  0
  188.8100  175.9020  143.9920 C   0  0  0  0  0  0  0  0  0  0  0  0
  189.9630  174.6760  141.6400 C   0  0  1  0  0  3  0  0  0  0  0  0
  188.4060  176.6780  145.2220 C   0  0  2  0  0  3  0  0  0  0  0  0
  190.0860  175.5220  146.4990 C   0  0  0  0  0  2  0  0  0  0  0  0
  189.1740  173.6810  139.4360 C   0  0  0  0  0  3  0  0  0  0  0  0
  191.3130  173.1560  143.1010 C   0  0  0  0  0  0  0  0  0  0  0  0
  190.7730  172.5240  140.8320 N   0  0  0  0  0  0  0  0  0  0  0  0
  188.2170  176.0770  142.8420 N   0  0  0  0  0  0  0  0  0  0  0  0
  191.5460  173.7260  145.4250 N   0  0  0  0  0  0  0  0  0  0  0  0
  191.9650  172.9830  144.4320 C   0  0  0  0  0  0  0  0  0  0  0  0
  188.6640  175.8800  146.4270 N   0  0  0  0  0  2  0  0  0  0  0  0
  189.9210  174.9350  144.1180 C   0  0  0  0  0  0  0  0  0  0  0  0
  191.5120  172.3390  142.0560 C   0  0  0  0  0  3  0  0  0  0  0  0
  195.3590  171.5220  145.3520 C   0  0  0  0  0  0  0  0  0  0  0  0
  195.1160  170.1560  145.1980 C   0  0  0  0  0  3  0  0  0  0  0  0
  193.0690  172.0180  144.6860 C   0  0  0  0  0  0  0  0  0  0  0  0
  193.8540  169.7140  144.7930 C   0  0  0  0  0  3  0  0  0  0  0  0
  194.3410  172.4460  145.1010 C   0  0  0  0  0  3  0  0  0  0  0  0
  192.8370  170.6400  144.5420 C   0  0  0  0  0  3  0  0  0  0  0  0
  196.9370  172.0790  145.8630 Cl  0  0  0  0  0  0  0  0  0  0  0  0
  186.9320  177.0630  145.1800 C   0  0  0  0  0  2  0  0  0  0  0  0
  186.3000  178.3870  147.7710 C   0  0  0  0  0  1  0  0  0  0  0  0
  186.7810  178.5100  145.3400 N   0  0  0  0  0  0  0  0  0  0  0  0
  185.8060  178.8250  146.4020 C   0  0  1  0  0  3  0  0  0  0  0  0
  184.0630  178.2970  144.6240 C   0  0  0  0  0  2  0  0  0  0  0  0
  184.8760  179.3580  143.8940 C   0  0  0  0  0  2  0  0  0  0  0  0
  186.3810  179.0760  144.0370 C   0  0  0  0  0  2  0  0  0  0  0  0
  184.3990  178.2790  146.1160 C   0  0  0  0  0  2  0  0  0  0  0  0
  1 13  2  0  0  0  0
  2 14  1  0  0  0  0
  3 12  1  0  0  0  0
  3 18  1  0  0  0  0
  4 15  1  0  0  0  0
  4 10  1  0  0  0  0
  5  6  1  0  0  0  0
  6  2  2  0  0  0  0
  7 18  1  0  0  0  0
  7  9  1  0  0  0  0
  8  1  1  6  0  0  0
  8  2  1  0  0  0  0
  8  3  1  0  0  0  0
  9 27  1  6  0  0  0
  9 17  1  0  0  0  0
 11  5  2  0  0  0  0
 11  1  1  0  0  0  0
 12 16  1  0  0  0  0
 13 19  1  0  0  0  0
 14  7  2  0  0  0  0
 16 22  1  0  0  0  0
 16 15  2  0  0  0  0
 17 10  1  0  0  0  0
 18  4  2  0  0  0  0
 19 12  2  0  0  0  0
 20 26  1  0  0  0  0
 21 20  1  0  0  0  0
 22 24  1  0  0  0  0
 23 21  2  0  0  0  0
 24 20  2  0  0  0  0
 25 22  2  0  0  0  0
 25 23  1  0  0  0  0
 27 29  1  0  0  0  0
 29 30  1  0  0  0  0
 30 28  1  1  0  0  0
 31 34  1  0  0  0  0
 32 33  1  0  0  0  0
 32 31  1  0  0  0  0
 33 29  1  0  0  0  0
 34 30  1  0  0  0  0
M  END
>  <MODEL>
9

>  <REMARK>
 VINA RESULT:      -7.7      3.356      8.246
  Name = 
  3 active torsions:
  status: ('A' for Active; 'I' for Inactive)
    1  A    between atoms: C_3  and  N_13
    2  A    between atoms: C_3  and  C_17
    3  A    between atoms: C_12  and  C_28
                            x       y       z     vdW  Elec       q    Type
                         _______ _______ _______ _____ _____    ______ ____

>  <TORSDO>
F 3

$$$$
