=
 OpenBabel11052421313D

 32 38  0  0  1  0  0  0  0  0999 V2000
  195.3400  176.1940  145.0580 N   0  0  0  0  0  0  0  0  0  0  0  0
  190.2230  176.1060  145.1530 C   0  0  2  0  0  3  0  0  0  0  0  0
  189.1080  174.2470  140.7270 C   0  0  0  0  0  2  0  0  0  0  0  0
  187.8480  173.9730  141.2850 O   0  0  0  0  0  0  0  0  0  0  0  0
  188.4290  177.2870  146.3270 C   0  0  0  0  0  0  0  0  0  0  0  0
  187.0750  177.6580  146.3870 C   0  0  0  0  0  0  0  0  0  0  0  0
  192.5620  176.4060  145.7880 C   0  0  0  0  0  0  0  0  0  0  0  0
  192.0570  175.3370  143.6870 N   0  0  0  0  0  0  0  0  0  0  0  0
  184.3660  178.3870  146.4990 C   0  0  0  0  0  3  0  0  0  0  0  0
  194.3560  176.0510  143.9770 C   0  0  0  0  0  2  0  0  0  0  0  0
  190.1660  174.1950  141.8280 C   0  0  0  0  0  2  0  0  0  0  0  0
  190.6740  175.0970  144.1150 C   0  0  2  0  0  3  0  0  0  0  0  0
  189.7750  175.0350  142.9670 N   0  0  2  0  0  0  0  0  0  0  0  0
  187.9950  176.1080  144.2160 C   0  0  0  0  0  0  0  0  0  0  0  0
  185.2420  178.7940  147.5080 C   0  0  0  0  0  3  0  0  0  0  0  0
  194.9110  177.1990  146.0440 C   0  0  0  0  0  2  0  0  0  0  0  0
  192.9530  175.8510  144.4760 C   0  0  0  0  0  0  0  0  0  0  0  0
  186.5910  178.4310  147.4530 C   0  0  0  0  0  3  0  0  0  0  0  0
  193.6140  176.8100  146.7660 C   0  0  0  0  0  2  0  0  0  0  0  0
  187.4590  175.1350  141.9740 C   0  0  0  0  0  2  0  0  0  0  0  0
  188.3970  175.4160  143.1270 C   0  0  1  0  0  3  0  0  0  0  0  0
  186.6510  176.4970  144.3100 C   0  0  0  0  0  3  0  0  0  0  0  0
  191.2740  176.5420  146.0990 C   0  0  0  0  0  3  0  0  0  0  0  0
  189.2650  177.7070  147.3600 O   0  0  0  0  0  1  0  0  0  0  0  0
  184.8380  177.6180  145.4320 C   0  0  0  0  0  3  0  0  0  0  0  0
  188.9160  176.4890  145.2440 C   0  0  0  0  0  0  0  0  0  0  0  0
  186.1860  177.2530  145.3740 C   0  0  0  0  0  0  0  0  0  0  0  0
  195.5680  174.8980  145.6940 C   0  0  0  0  0  2  0  0  0  0  0  0
  196.9410  172.8470  145.5780 C   0  0  0  0  0  0  0  0  0  0  0  0
  196.3380  173.9860  144.7580 C   0  0  2  0  0  3  0  0  0  0  0  0
  197.7370  174.0370  145.0470 C   0  0  0  0  0  2  0  0  0  0  0  0
  196.8510  171.8000  146.1980 O   0  0  0  0  0  0  0  0  0  0  0  0
  1 28  1  0  0  0  0
  1 16  1  0  0  0  0
  2 26  1  0  0  0  0
  2 23  1  1  0  0  0
  3  4  1  0  0  0  0
  3 11  1  0  0  0  0
  4 20  1  0  0  0  0
  5  6  1  0  0  0  0
  5 24  1  0  0  0  0
  6 18  1  0  0  0  0
  7 23  2  0  0  0  0
  7 19  1  0  0  0  0
  8 17  2  0  0  0  0
  9 15  1  0  0  0  0
 10 17  1  0  0  0  0
 10  1  1  0  0  0  0
 12  8  1  6  0  0  0
 12  2  1  0  0  0  0
 13 11  1  1  0  0  0
 13 21  1  0  0  0  0
 13 12  1  0  0  0  0
 14 22  2  0  0  0  0
 14 26  1  0  0  0  0
 16 19  1  0  0  0  0
 17  7  1  0  0  0  0
 18 15  2  0  0  0  0
 21 20  1  6  0  0  0
 21 14  1  0  0  0  0
 22 27  1  0  0  0  0
 25  9  2  0  0  0  0
 26  5  2  0  0  0  0
 27 25  1  0  0  0  0
 27  6  2  0  0  0  0
 29 32  2  0  0  0  0
 30 31  1  0  0  0  0
 30 29  1  0  0  0  0
 30 28  1  1  0  0  0
 31 29  1  0  0  0  0
M  END
>  <MODEL>
1

>  <REMARK>
 VINA RESULT:      -9.6      0.000      0.000
  Name = 
  2 active torsions:
  status: ('A' for Active; 'I' for Inactive)
    1  A    between atoms: N_2  and  C_24
    2  A    between atoms: C_10  and  C_24
                            x       y       z     vdW  Elec       q    Type
                         _______ _______ _______ _____ _____    ______ ____

>  <TORSDO>
F 2

$$$$
=
 OpenBabel11052421313D

 32 38  0  0  1  0  0  0  0  0999 V2000
  195.3420  175.6530  144.9810 N   0  0  0  0  0  0  0  0  0  0  0  0
  190.3270  175.7510  143.9570 C   0  0  2  0  0  3  0  0  0  0  0  0
  190.1010  173.5840  139.5370 C   0  0  0  0  0  2  0  0  0  0  0  0
  188.7380  173.3990  139.8230 O   0  0  0  0  0  0  0  0  0  0  0  0
  188.3850  177.0830  144.6230 C   0  0  0  0  0  0  0  0  0  0  0  0
  187.0710  177.5050  144.3590 C   0  0  0  0  0  0  0  0  0  0  0  0
  192.4870  176.0190  145.0670 C   0  0  0  0  0  0  0  0  0  0  0  0
  192.3930  174.8040  142.9870 N   0  0  0  0  0  0  0  0  0  0  0  0
  184.4430  178.3340  143.8220 C   0  0  0  0  0  3  0  0  0  0  0  0
  194.6090  175.4580  143.7230 C   0  0  0  0  0  2  0  0  0  0  0  0
  190.8920  173.5840  140.8440 C   0  0  0  0  0  2  0  0  0  0  0  0
  190.9400  174.6470  143.1170 C   0  0  2  0  0  3  0  0  0  0  0  0
  190.3070  174.5240  141.8080 N   0  0  2  0  0  0  0  0  0  0  0  0
  188.3580  175.7550  142.5570 C   0  0  0  0  0  0  0  0  0  0  0  0
  185.1000  178.7890  144.9680 C   0  0  0  0  0  3  0  0  0  0  0  0
  194.7620  176.7490  145.7760 C   0  0  0  0  0  2  0  0  0  0  0  0
  193.1230  175.3480  143.9150 C   0  0  0  0  0  0  0  0  0  0  0  0
  186.4080  178.3770  145.2360 C   0  0  0  0  0  3  0  0  0  0  0  0
  193.3220  176.4640  146.2210 C   0  0  0  0  0  2  0  0  0  0  0  0
  188.2690  174.6260  140.3260 C   0  0  0  0  0  2  0  0  0  0  0  0
  188.9490  174.9650  141.6340 C   0  0  1  0  0  3  0  0  0  0  0  0
  187.0460  176.1960  142.3260 C   0  0  0  0  0  3  0  0  0  0  0  0
  191.1710  176.2240  145.0770 C   0  0  0  0  0  3  0  0  0  0  0  0
  188.9990  177.5550  145.7820 O   0  0  0  0  0  1  0  0  0  0  0  0
  185.0950  177.4660  142.9420 C   0  0  0  0  0  3  0  0  0  0  0  0
  189.0530  176.1850  143.7320 C   0  0  0  0  0  0  0  0  0  0  0  0
  186.4030  177.0510  143.2070 C   0  0  0  0  0  0  0  0  0  0  0  0
  195.3610  174.4050  145.7410 C   0  0  0  0  0  2  0  0  0  0  0  0
  197.2780  173.1940  144.7620 C   0  0  0  0  0  0  0  0  0  0  0  0
  196.7920  173.9650  145.9870 C   0  0  2  0  0  3  0  0  0  0  0  0
  196.8680  172.5410  146.0800 C   0  0  0  0  0  2  0  0  0  0  0  0
  197.6730  173.1390  143.6080 O   0  0  0  0  0  0  0  0  0  0  0  0
  1 28  1  0  0  0  0
  1 16  1  0  0  0  0
  2 23  1  1  0  0  0
  3  4  1  0  0  0  0
  3 11  1  0  0  0  0
  4 20  1  0  0  0  0
  5 24  1  0  0  0  0
  6  5  1  0  0  0  0
  6 18  1  0  0  0  0
  7 23  2  0  0  0  0
  7 19  1  0  0  0  0
  8 17  2  0  0  0  0
  9 15  1  0  0  0  0
 10 17  1  0  0  0  0
 10  1  1  0  0  0  0
 12  8  1  6  0  0  0
 12  2  1  0  0  0  0
 13 11  1  1  0  0  0
 13 12  1  0  0  0  0
 14 26  1  0  0  0  0
 15 18  2  0  0  0  0
 16 19  1  0  0  0  0
 17  7  1  0  0  0  0
 21 20  1  6  0  0  0
 21 13  1  0  0  0  0
 21 14  1  0  0  0  0
 22 14  2  0  0  0  0
 22 27  1  0  0  0  0
 25 27  1  0  0  0  0
 25  9  2  0  0  0  0
 26  2  1  0  0  0  0
 26  5  2  0  0  0  0
 27  6  2  0  0  0  0
 29 30  1  0  0  0  0
 29 31  1  0  0  0  0
 30 28  1  6  0  0  0
 30 31  1  0  0  0  0
 32 29  2  0  0  0  0
M  END
>  <MODEL>
2

>  <REMARK>
 VINA RESULT:      -9.0      1.339      1.668
  Name = 
  2 active torsions:
  status: ('A' for Active; 'I' for Inactive)
    1  A    between atoms: N_2  and  C_24
    2  A    between atoms: C_10  and  C_24
                            x       y       z     vdW  Elec       q    Type
                         _______ _______ _______ _____ _____    ______ ____

>  <TORSDO>
F 2

$$$$
=
 OpenBabel11052421313D

 32 38  0  0  1  0  0  0  0  0999 V2000
  190.0460  172.4620  139.4900 N   0  0  0  0  0  0  0  0  0  0  0  0
  188.8230  175.6670  143.2900 C   0  0  2  0  0  3  0  0  0  0  0  0
  192.4820  174.9450  146.5120 C   0  0  0  0  0  2  0  0  0  0  0  0
  192.0860  176.1740  147.0640 O   0  0  0  0  0  0  0  0  0  0  0  0
  186.7980  176.7340  144.1560 C   0  0  0  0  0  0  0  0  0  0  0  0
  186.1400  177.3770  145.2190 C   0  0  0  0  0  0  0  0  0  0  0  0
  188.8000  174.4310  141.1830 C   0  0  0  0  0  0  0  0  0  0  0  0
  190.6910  174.1790  142.6580 N   0  0  0  0  0  0  0  0  0  0  0  0
  184.8400  178.6660  147.3480 C   0  0  0  0  0  3  0  0  0  0  0  0
  190.5200  172.5400  140.8790 C   0  0  0  0  0  2  0  0  0  0  0  0
  192.1700  174.9440  145.0160 C   0  0  0  0  0  2  0  0  0  0  0  0
  190.3100  175.3920  143.3910 C   0  0  2  0  0  3  0  0  0  0  0  0
  190.7770  175.3360  144.7730 N   0  0  2  0  0  0  0  0  0  0  0  0
  188.7990  176.4960  145.5590 C   0  0  0  0  0  0  0  0  0  0  0  0
  184.1700  178.4640  146.1380 C   0  0  0  0  0  3  0  0  0  0  0  0
  188.5950  172.6980  139.4050 C   0  0  0  0  0  2  0  0  0  0  0  0
  190.0620  173.7810  141.5920 C   0  0  0  0  0  0  0  0  0  0  0  0
  184.8170  177.8230  145.0780 C   0  0  0  0  0  3  0  0  0  0  0  0
  188.1920  174.1060  139.8600 C   0  0  0  0  0  2  0  0  0  0  0  0
  190.6850  176.1310  147.1640 C   0  0  0  0  0  2  0  0  0  0  0  0
  190.0510  176.0430  145.7930 C   0  0  1  0  0  3  0  0  0  0  0  0
  188.1120  177.1430  146.5980 C   0  0  0  0  0  3  0  0  0  0  0  0
  188.2080  175.3070  141.9930 C   0  0  0  0  0  3  0  0  0  0  0  0
  186.0950  176.5620  142.9650 O   0  0  0  0  0  1  0  0  0  0  0  0
  186.1580  178.2260  147.4980 C   0  0  0  0  0  3  0  0  0  0  0  0
  188.1510  176.2920  144.3000 C   0  0  0  0  0  0  0  0  0  0  0  0
  186.8080  177.5840  146.4400 C   0  0  0  0  0  0  0  0  0  0  0  0
  190.7830  173.4150  138.6630 C   0  0  0  0  0  2  0  0  0  0  0  0
  191.6710  173.8480  136.3990 C   0  0  0  0  0  0  0  0  0  0  0  0
  190.6420  173.0510  137.1970 C   0  0  2  0  0  3  0  0  0  0  0  0
  190.1810  174.1760  136.4450 C   0  0  0  0  0  2  0  0  0  0  0  0
  192.8130  174.0660  136.0260 O   0  0  0  0  0  0  0  0  0  0  0  0
  1 10  1  0  0  0  0
  2 23  1  6  0  0  0
  2 12  1  0  0  0  0
  2 26  1  0  0  0  0
  3  4  1  0  0  0  0
  4 20  1  0  0  0  0
  5 26  2  0  0  0  0
  5  6  1  0  0  0  0
  6 27  1  0  0  0  0
  7 17  1  0  0  0  0
  7 23  2  0  0  0  0
  9 25  1  0  0  0  0
 10 17  1  0  0  0  0
 11  3  1  0  0  0  0
 12  8  1  1  0  0  0
 12 13  1  0  0  0  0
 13 11  1  6  0  0  0
 13 21  1  0  0  0  0
 14 21  1  0  0  0  0
 14 22  2  0  0  0  0
 15  9  2  0  0  0  0
 16  1  1  0  0  0  0
 16 19  1  0  0  0  0
 17  8  2  0  0  0  0
 18  6  2  0  0  0  0
 18 15  1  0  0  0  0
 19  7  1  0  0  0  0
 21 20  1  1  0  0  0
 24  5  1  0  0  0  0
 26 14  1  0  0  0  0
 27 22  1  0  0  0  0
 27 25  2  0  0  0  0
 28  1  1  0  0  0  0
 29 31  1  0  0  0  0
 29 30  1  0  0  0  0
 30 28  1  1  0  0  0
 31 30  1  0  0  0  0
 32 29  2  0  0  0  0
M  END
>  <MODEL>
3

>  <REMARK>
 VINA RESULT:      -8.9      2.557      6.057
  Name = 
  2 active torsions:
  status: ('A' for Active; 'I' for Inactive)
    1  A    between atoms: N_2  and  C_24
    2  A    between atoms: C_10  and  C_24
                            x       y       z     vdW  Elec       q    Type
                         _______ _______ _______ _____ _____    ______ ____

>  <TORSDO>
F 2

$$$$
=
 OpenBabel11052421313D

 32 38  0  0  1  0  0  0  0  0999 V2000
  192.5890  175.5430  144.8490 N   0  0  0  0  0  0  0  0  0  0  0  0
  187.9860  177.5680  143.8870 C   0  0  2  0  0  3  0  0  0  0  0  0
  186.0850  178.0830  148.4050 C   0  0  0  0  0  2  0  0  0  0  0  0
  185.1890  178.9800  147.8020 O   0  0  0  0  0  0  0  0  0  0  0  0
  186.4030  177.6210  142.0220 C   0  0  0  0  0  0  0  0  0  0  0  0
  185.0900  177.8280  141.5680 C   0  0  0  0  0  0  0  0  0  0  0  0
  190.2340  176.6490  143.6150 C   0  0  0  0  0  0  0  0  0  0  0  0
  189.4020  177.0450  145.8430 N   0  0  0  0  0  0  0  0  0  0  0  0
  182.4630  178.2520  140.6720 C   0  0  0  0  0  3  0  0  0  0  0  0
  191.3920  175.6670  145.6930 C   0  0  0  0  0  2  0  0  0  0  0  0
  187.4070  178.1050  147.6400 C   0  0  0  0  0  2  0  0  0  0  0  0
  188.3440  177.9150  145.3190 C   0  0  2  0  0  3  0  0  0  0  0  0
  187.1820  177.9160  146.2020 N   0  0  2  0  0  0  0  0  0  0  0  0
  185.6650  178.0810  144.3180 C   0  0  0  0  0  0  0  0  0  0  0  0
  183.4670  177.9170  139.7600 C   0  0  0  0  0  3  0  0  0  0  0  0
  192.2350  175.1720  143.4690 C   0  0  0  0  0  2  0  0  0  0  0  0
  190.3270  176.5340  145.0850 C   0  0  0  0  0  0  0  0  0  0  0  0
  184.7750  177.7060  140.2050 C   0  0  0  0  0  3  0  0  0  0  0  0
  191.3880  176.2390  142.7640 C   0  0  0  0  0  2  0  0  0  0  0  0
  184.7350  178.3580  146.6250 C   0  0  0  0  0  2  0  0  0  0  0  0
  185.8760  178.1580  145.6510 C   0  0  1  0  0  3  0  0  0  0  0  0
  184.3660  178.2820  143.8290 C   0  0  0  0  0  3  0  0  0  0  0  0
  189.1220  177.1200  143.0510 C   0  0  0  0  0  3  0  0  0  0  0  0
  187.3750  177.2970  141.0760 O   0  0  0  0  0  1  0  0  0  0  0  0
  182.7660  178.3750  142.0310 C   0  0  0  0  0  3  0  0  0  0  0  0
  186.7220  177.7580  143.4100 C   0  0  0  0  0  0  0  0  0  0  0  0
  184.0730  178.1660  142.4790 C   0  0  0  0  0  0  0  0  0  0  0  0
  193.3470  176.7910  144.8810 C   0  0  0  0  0  2  0  0  0  0  0  0
  195.6620  175.9540  144.6680 C   0  0  0  0  0  0  0  0  0  0  0  0
  194.6540  176.5890  145.6240 C   0  0  2  0  0  3  0  0  0  0  0  0
  194.9330  175.1960  145.7750 C   0  0  0  0  0  2  0  0  0  0  0  0
  196.4380  176.0080  143.7280 O   0  0  0  0  0  0  0  0  0  0  0  0
  1 28  1  0  0  0  0
  1 10  1  0  0  0  0
  2 23  1  6  0  0  0
  2 12  1  0  0  0  0
  4  3  1  0  0  0  0
  5 26  1  0  0  0  0
  6  5  2  0  0  0  0
  6 27  1  0  0  0  0
  7 17  1  0  0  0  0
  9 25  2  0  0  0  0
 11  3  1  0  0  0  0
 12  8  1  1  0  0  0
 12 13  1  0  0  0  0
 13 11  1  1  0  0  0
 14 21  1  0  0  0  0
 15 18  2  0  0  0  0
 15  9  1  0  0  0  0
 16  1  1  0  0  0  0
 17 10  1  0  0  0  0
 17  8  2  0  0  0  0
 18  6  1  0  0  0  0
 19 16  1  0  0  0  0
 19  7  1  0  0  0  0
 20  4  1  0  0  0  0
 21 13  1  0  0  0  0
 21 20  1  1  0  0  0
 22 14  1  0  0  0  0
 23  7  2  0  0  0  0
 24  5  1  0  0  0  0
 25 27  1  0  0  0  0
 26  2  1  0  0  0  0
 26 14  2  0  0  0  0
 27 22  2  0  0  0  0
 29 30  1  0  0  0  0
 29 31  1  0  0  0  0
 30 28  1  6  0  0  0
 30 31  1  0  0  0  0
 32 29  2  0  0  0  0
M  END
>  <MODEL>
4

>  <REMARK>
 VINA RESULT:      -8.4      2.760      5.009
  Name = 
  2 active torsions:
  status: ('A' for Active; 'I' for Inactive)
    1  A    between atoms: N_2  and  C_24
    2  A    between atoms: C_10  and  C_24
                            x       y       z     vdW  Elec       q    Type
                         _______ _______ _______ _____ _____    ______ ____

>  <TORSDO>
F 2

$$$$
=
 OpenBabel11052421313D

 32 38  0  0  1  0  0  0  0  0999 V2000
  185.7770  177.4980  146.5340 N   0  0  0  0  0  0  0  0  0  0  0  0
  190.2420  176.0520  144.4870 C   0  0  2  0  0  3  0  0  0  0  0  0
  188.8240  173.6910  140.4000 C   0  0  0  0  0  2  0  0  0  0  0  0
  190.1480  173.8770  139.9700 O   0  0  0  0  0  0  0  0  0  0  0  0
  192.5170  175.6090  145.2730 C   0  0  0  0  0  0  0  0  0  0  0  0
  193.7660  175.0060  145.0530 C   0  0  0  0  0  0  0  0  0  0  0  0
  188.5620  177.0390  145.9620 C   0  0  0  0  0  0  0  0  0  0  0  0
  187.8450  176.0410  143.8880 N   0  0  0  0  0  0  0  0  0  0  0  0
  196.2610  173.8010  144.5980 C   0  0  0  0  0  3  0  0  0  0  0  0
  186.0880  176.5080  145.4930 C   0  0  0  0  0  2  0  0  0  0  0  0
  188.4340  174.8380  141.3310 C   0  0  0  0  0  2  0  0  0  0  0  0
  189.2170  176.0740  143.3700 C   0  0  2  0  0  3  0  0  0  0  0  0
  189.4330  175.0130  142.3910 N   0  0  2  0  0  0  0  0  0  0  0  0
  191.7170  174.6950  143.1380 C   0  0  0  0  0  0  0  0  0  0  0  0
  196.0440  174.5410  145.7630 C   0  0  0  0  0  3  0  0  0  0  0  0
  186.7580  177.4470  147.6310 C   0  0  0  0  0  2  0  0  0  0  0  0
  187.5170  176.5610  145.0340 C   0  0  0  0  0  0  0  0  0  0  0  0
  194.8020  175.1420  145.9900 C   0  0  0  0  0  3  0  0  0  0  0  0
  188.1770  177.8110  147.1790 C   0  0  0  0  0  2  0  0  0  0  0  0
  190.9710  173.5270  141.0550 C   0  0  0  0  0  2  0  0  0  0  0  0
  190.7530  174.4680  142.2190 C   0  0  1  0  0  3  0  0  0  0  0  0
  192.9780  174.1080  142.9520 C   0  0  0  0  0  3  0  0  0  0  0  0
  189.8450  176.7820  145.7120 C   0  0  0  0  0  3  0  0  0  0  0  0
  192.3470  176.3460  146.4440 O   0  0  0  0  0  1  0  0  0  0  0  0
  195.2360  173.6590  143.6590 C   0  0  0  0  0  3  0  0  0  0  0  0
  191.4670  175.4780  144.3100 C   0  0  0  0  0  0  0  0  0  0  0  0
  193.9930  174.2590  143.8830 C   0  0  0  0  0  0  0  0  0  0  0  0
  185.7170  178.8330  145.9440 C   0  0  0  0  0  2  0  0  0  0  0  0
  185.5670  179.2570  143.5150 C   0  0  0  0  0  0  0  0  0  0  0  0
  184.7780  178.8350  144.7520 C   0  0  2  0  0  3  0  0  0  0  0  0
  184.5940  180.1660  144.2630 C   0  0  0  0  0  2  0  0  0  0  0  0
  186.3710  179.0400  142.6230 O   0  0  0  0  0  0  0  0  0  0  0  0
  1 16  1  0  0  0  0
  2 23  1  6  0  0  0
  3 11  1  0  0  0  0
  4  3  1  0  0  0  0
  4 20  1  0  0  0  0
  5 24  1  0  0  0  0
  6  5  1  0  0  0  0
  6 18  1  0  0  0  0
  7 19  1  0  0  0  0
  8 17  2  0  0  0  0
  9 15  1  0  0  0  0
 10  1  1  0  0  0  0
 12  8  1  1  0  0  0
 12  2  1  0  0  0  0
 13 11  1  6  0  0  0
 13 12  1  0  0  0  0
 14 26  1  0  0  0  0
 15 18  2  0  0  0  0
 17 10  1  0  0  0  0
 17  7  1  0  0  0  0
 19 16  1  0  0  0  0
 21 20  1  1  0  0  0
 21 13  1  0  0  0  0
 21 14  1  0  0  0  0
 22 14  2  0  0  0  0
 22 27  1  0  0  0  0
 23  7  2  0  0  0  0
 25 27  1  0  0  0  0
 25  9  2  0  0  0  0
 26  2  1  0  0  0  0
 26  5  2  0  0  0  0
 27  6  2  0  0  0  0
 28  1  1  0  0  0  0
 29 31  1  0  0  0  0
 29 30  1  0  0  0  0
 30 28  1  1  0  0  0
 31 30  1  0  0  0  0
 32 29  2  0  0  0  0
M  END
>  <MODEL>
5

>  <REMARK>
 VINA RESULT:      -8.1      2.182      7.797
  Name = 
  2 active torsions:
  status: ('A' for Active; 'I' for Inactive)
    1  A    between atoms: N_2  and  C_24
    2  A    between atoms: C_10  and  C_24
                            x       y       z     vdW  Elec       q    Type
                         _______ _______ _______ _____ _____    ______ ____

>  <TORSDO>
F 2

$$$$
=
 OpenBabel11052421313D

 32 38  0  0  1  0  0  0  0  0999 V2000
  192.2900  172.3550  141.5270 N   0  0  0  0  0  0  0  0  0  0  0  0
  188.4790  175.2970  143.2660 C   0  0  2  0  0  3  0  0  0  0  0  0
  186.6660  177.2530  139.1210 C   0  0  0  0  0  2  0  0  0  0  0  0
  185.5250  177.5370  139.8890 O   0  0  0  0  0  0  0  0  0  0  0  0
  187.8960  176.4300  145.3560 C   0  0  0  0  0  0  0  0  0  0  0  0
  187.1540  177.4240  146.0160 C   0  0  0  0  0  0  0  0  0  0  0  0
  190.3570  173.7390  143.1520 C   0  0  0  0  0  0  0  0  0  0  0  0
  189.3870  174.5430  141.0960 N   0  0  0  0  0  0  0  0  0  0  0  0
  185.6580  179.4090  147.3240 C   0  0  0  0  0  3  0  0  0  0  0  0
  191.5370  173.4420  140.8840 C   0  0  0  0  0  2  0  0  0  0  0  0
  187.3400  175.9960  139.6720 C   0  0  0  0  0  2  0  0  0  0  0  0
  188.1860  174.9920  141.8100 C   0  0  2  0  0  3  0  0  0  0  0  0
  187.5540  176.1110  141.1190 N   0  0  2  0  0  0  0  0  0  0  0  0
  186.9060  177.1310  143.2200 C   0  0  0  0  0  0  0  0  0  0  0  0
  186.5150  178.5820  148.0550 C   0  0  0  0  0  3  0  0  0  0  0  0
  192.5990  172.6740  142.9310 C   0  0  0  0  0  2  0  0  0  0  0  0
  190.3450  173.8880  141.6820 C   0  0  0  0  0  0  0  0  0  0  0  0
  187.2600  177.5940  147.4050 C   0  0  0  0  0  3  0  0  0  0  0  0
  191.3420  172.8240  143.7980 C   0  0  0  0  0  2  0  0  0  0  0  0
  185.9870  178.0870  141.0980 C   0  0  0  0  0  2  0  0  0  0  0  0
  186.7950  177.0700  141.8750 C   0  0  1  0  0  3  0  0  0  0  0  0
  186.1790  178.1110  143.9130 C   0  0  0  0  0  3  0  0  0  0  0  0
  189.4870  174.4180  143.8980 C   0  0  0  0  0  3  0  0  0  0  0  0
  188.7310  175.6230  146.1260 O   0  0  0  0  0  1  0  0  0  0  0  0
  185.5460  179.2480  145.9400 C   0  0  0  0  0  3  0  0  0  0  0  0
  187.7760  176.2530  143.9410 C   0  0  0  0  0  0  0  0  0  0  0  0
  186.2890  178.2600  145.2860 C   0  0  0  0  0  0  0  0  0  0  0  0
  191.5390  171.1060  141.4240 C   0  0  0  0  0  2  0  0  0  0  0  0
  190.4260  170.5060  139.3020 C   0  0  0  0  0  0  0  0  0  0  0  0
  191.7520  170.4800  140.0590 C   0  0  2  0  0  3  0  0  0  0  0  0
  191.0200  169.2570  139.9500 C   0  0  0  0  0  2  0  0  0  0  0  0
  189.5520  171.0840  138.6770 O   0  0  0  0  0  0  0  0  0  0  0  0
  1 16  1  0  0  0  0
  2 23  1  1  0  0  0
  2 26  1  0  0  0  0
  3 11  1  0  0  0  0
  3  4  1  0  0  0  0
  4 20  1  0  0  0  0
  5  6  1  0  0  0  0
  5 24  1  0  0  0  0
  6 18  1  0  0  0  0
  7 19  1  0  0  0  0
  7 23  2  0  0  0  0
  8 17  2  0  0  0  0
  9 15  1  0  0  0  0
 10  1  1  0  0  0  0
 10 17  1  0  0  0  0
 12  8  1  6  0  0  0
 12  2  1  0  0  0  0
 13 11  1  6  0  0  0
 13 12  1  0  0  0  0
 13 21  1  0  0  0  0
 14 22  2  0  0  0  0
 14 26  1  0  0  0  0
 16 19  1  0  0  0  0
 17  7  1  0  0  0  0
 18 15  2  0  0  0  0
 21 20  1  6  0  0  0
 21 14  1  0  0  0  0
 22 27  1  0  0  0  0
 25  9  2  0  0  0  0
 26  5  2  0  0  0  0
 27 25  1  0  0  0  0
 27  6  2  0  0  0  0
 28  1  1  0  0  0  0
 29 31  1  0  0  0  0
 29 30  1  0  0  0  0
 30 28  1  1  0  0  0
 31 30  1  0  0  0  0
 32 29  2  0  0  0  0
M  END
>  <MODEL>
6

>  <REMARK>
 VINA RESULT:      -8.0      3.543      4.728
  Name = 
  2 active torsions:
  status: ('A' for Active; 'I' for Inactive)
    1  A    between atoms: N_2  and  C_24
    2  A    between atoms: C_10  and  C_24
                            x       y       z     vdW  Elec       q    Type
                         _______ _______ _______ _____ _____    ______ ____

>  <TORSDO>
F 2

$$$$
=
 OpenBabel11052421313D

 32 38  0  0  1  0  0  0  0  0999 V2000
  186.8510  178.4290  144.0020 N   0  0  0  0  0  0  0  0  0  0  0  0
  189.1210  174.1230  142.4180 C   0  0  2  0  0  3  0  0  0  0  0  0
  193.0380  173.8280  145.3930 C   0  0  0  0  0  2  0  0  0  0  0  0
  193.0830  172.4770  145.0140 O   0  0  0  0  0  0  0  0  0  0  0  0
  189.1980  172.7830  140.3710 C   0  0  0  0  0  0  0  0  0  0  0  0
  189.8540  171.8120  139.5970 C   0  0  0  0  0  0  0  0  0  0  0  0
  187.5560  175.9850  142.6540 C   0  0  0  0  0  0  0  0  0  0  0  0
  189.3650  175.7800  144.2350 N   0  0  0  0  0  0  0  0  0  0  0  0
  191.1710  169.8620  138.0630 C   0  0  0  0  0  3  0  0  0  0  0  0
  188.2050  177.9090  144.2350 C   0  0  0  0  0  2  0  0  0  0  0  0
  191.5910  174.3150  145.3450 C   0  0  0  0  0  2  0  0  0  0  0  0
  189.5860  174.3840  143.8370 C   0  0  2  0  0  3  0  0  0  0  0  0
  190.9750  173.9930  144.0530 N   0  0  2  0  0  0  0  0  0  0  0  0
  190.9580  172.5920  142.0740 C   0  0  0  0  0  0  0  0  0  0  0  0
  189.9850  170.4360  137.5970 C   0  0  0  0  0  3  0  0  0  0  0  0
  186.4200  178.2020  142.6130 C   0  0  0  0  0  2  0  0  0  0  0  0
  188.3830  176.4920  143.7680 C   0  0  0  0  0  0  0  0  0  0  0  0
  189.3290  171.4070  138.3600 C   0  0  0  0  0  3  0  0  0  0  0  0
  186.3160  176.7130  142.2570 C   0  0  0  0  0  2  0  0  0  0  0  0
  192.9230  172.4520  143.6170 C   0  0  0  0  0  2  0  0  0  0  0  0
  191.5580  172.9720  143.2240 C   0  0  1  0  0  3  0  0  0  0  0  0
  191.5840  171.6240  141.2750 C   0  0  0  0  0  3  0  0  0  0  0  0
  187.9150  174.8770  142.0070 C   0  0  0  0  0  3  0  0  0  0  0  0
  188.0140  173.3230  139.8720 O   0  0  0  0  0  1  0  0  0  0  0  0
  191.7020  170.2590  139.2930 C   0  0  0  0  0  3  0  0  0  0  0  0
  189.7310  173.1850  141.6370 C   0  0  0  0  0  0  0  0  0  0  0  0
  191.0480  171.2290  140.0590 C   0  0  0  0  0  0  0  0  0  0  0  0
  185.9180  177.8200  144.9480 C   0  0  0  0  0  2  0  0  0  0  0  0
  185.8480  178.6640  147.2690 C   0  0  0  0  0  0  0  0  0  0  0  0
  185.3230  178.8840  145.8520 C   0  0  2  0  0  3  0  0  0  0  0  0
  184.4410  178.2910  146.8080 C   0  0  0  0  0  2  0  0  0  0  0  0
  186.7250  178.7240  148.1150 O   0  0  0  0  0  0  0  0  0  0  0  0
  1 10  1  0  0  0  0
  1 28  1  0  0  0  0
  2 23  1  1  0  0  0
  2 12  1  0  0  0  0
  4  3  1  0  0  0  0
  5 26  1  0  0  0  0
  6 27  1  0  0  0  0
  6  5  2  0  0  0  0
  7 17  1  0  0  0  0
  9 25  2  0  0  0  0
 11  3  1  0  0  0  0
 12 13  1  0  0  0  0
 12  8  1  6  0  0  0
 13 11  1  1  0  0  0
 14 21  1  0  0  0  0
 15  9  1  0  0  0  0
 15 18  2  0  0  0  0
 16  1  1  0  0  0  0
 17 10  1  0  0  0  0
 17  8  2  0  0  0  0
 18  6  1  0  0  0  0
 19 16  1  0  0  0  0
 19  7  1  0  0  0  0
 20  4  1  0  0  0  0
 21 20  1  6  0  0  0
 21 13  1  0  0  0  0
 22 14  1  0  0  0  0
 23  7  2  0  0  0  0
 24  5  1  0  0  0  0
 25 27  1  0  0  0  0
 26 14  2  0  0  0  0
 26  2  1  0  0  0  0
 27 22  2  0  0  0  0
 29 32  2  0  0  0  0
 30 28  1  6  0  0  0
 30 31  1  0  0  0  0
 30 29  1  0  0  0  0
 31 29  1  0  0  0  0
M  END
>  <MODEL>
7

>  <REMARK>
 VINA RESULT:      -7.9      2.678      8.623
  Name = 
  2 active torsions:
  status: ('A' for Active; 'I' for Inactive)
    1  A    between atoms: N_2  and  C_24
    2  A    between atoms: C_10  and  C_24
                            x       y       z     vdW  Elec       q    Type
                         _______ _______ _______ _____ _____    ______ ____

>  <TORSDO>
F 2

$$$$
=
 OpenBabel11052421313D

 32 38  0  0  1  0  0  0  0  0999 V2000
  186.9810  178.2890  144.2980 N   0  0  0  0  0  0  0  0  0  0  0  0
  188.8780  174.3490  141.6360 C   0  0  2  0  0  3  0  0  0  0  0  0
  192.3750  172.6160  144.6440 C   0  0  0  0  0  2  0  0  0  0  0  0
  192.2980  171.4450  143.8740 O   0  0  0  0  0  0  0  0  0  0  0  0
  189.0200  173.6720  139.2880 C   0  0  0  0  0  0  0  0  0  0  0  0
  189.6360  172.8830  138.3020 C   0  0  0  0  0  0  0  0  0  0  0  0
  187.5320  176.2700  142.3190 C   0  0  0  0  0  0  0  0  0  0  0  0
  189.1160  175.3450  143.8840 N   0  0  0  0  0  0  0  0  0  0  0  0
  190.8700  171.2960  136.3420 C   0  0  0  0  0  3  0  0  0  0  0  0
  188.2290  177.5290  144.4540 C   0  0  0  0  0  2  0  0  0  0  0  0
  191.0110  173.3050  144.6460 C   0  0  0  0  0  2  0  0  0  0  0  0
  189.2090  174.1110  143.0960 C   0  0  2  0  0  3  0  0  0  0  0  0
  190.5090  173.4710  143.2770 N   0  0  2  0  0  0  0  0  0  0  0  0
  190.5430  172.7310  140.9690 C   0  0  0  0  0  0  0  0  0  0  0  0
  189.8220  172.1510  135.9910 C   0  0  0  0  0  3  0  0  0  0  0  0
  186.6840  178.5450  142.8790 C   0  0  0  0  0  2  0  0  0  0  0  0
  188.2850  176.3010  143.5900 C   0  0  0  0  0  0  0  0  0  0  0  0
  189.2070  172.9410  136.9670 C   0  0  0  0  0  3  0  0  0  0  0  0
  186.4410  177.2590  142.0790 C   0  0  0  0  0  2  0  0  0  0  0  0
  192.2930  171.8540  142.5290 C   0  0  0  0  0  2  0  0  0  0  0  0
  191.0530  172.6640  142.2190 C   0  0  1  0  0  3  0  0  0  0  0  0
  191.1340  171.9570  139.9580 C   0  0  0  0  0  3  0  0  0  0  0  0
  187.8250  175.3600  141.3920 C   0  0  0  0  0  3  0  0  0  0  0  0
  187.9730  174.5040  138.8960 O   0  0  0  0  0  1  0  0  0  0  0  0
  191.3060  171.2320  137.6680 C   0  0  0  0  0  3  0  0  0  0  0  0
  189.4530  173.6010  140.6500 C   0  0  0  0  0  0  0  0  0  0  0  0
  190.6920  172.0200  138.6460 C   0  0  0  0  0  0  0  0  0  0  0  0
  185.8830  177.5750  144.9450 C   0  0  0  0  0  2  0  0  0  0  0  0
  185.3150  178.9450  146.9200 C   0  0  0  0  0  0  0  0  0  0  0  0
  184.8780  178.5630  145.5080 C   0  0  2  0  0  3  0  0  0  0  0  0
  184.1700  177.9840  146.6070 C   0  0  0  0  0  2  0  0  0  0  0  0
  186.0370  179.5440  147.7010 O   0  0  0  0  0  0  0  0  0  0  0  0
  1 10  1  0  0  0  0
  1 28  1  0  0  0  0
  2 23  1  1  0  0  0
  2 12  1  0  0  0  0
  3 11  1  0  0  0  0
  4  3  1  0  0  0  0
  5 26  1  0  0  0  0
  6 27  1  0  0  0  0
  6  5  2  0  0  0  0
  7 17  1  0  0  0  0
  9 25  2  0  0  0  0
 12 13  1  0  0  0  0
 12  8  1  1  0  0  0
 13 11  1  1  0  0  0
 14 21  1  0  0  0  0
 15  9  1  0  0  0  0
 15 18  2  0  0  0  0
 16  1  1  0  0  0  0
 17  8  2  0  0  0  0
 17 10  1  0  0  0  0
 18  6  1  0  0  0  0
 19  7  1  0  0  0  0
 19 16  1  0  0  0  0
 20  4  1  0  0  0  0
 21 20  1  6  0  0  0
 21 13  1  0  0  0  0
 22 14  1  0  0  0  0
 23  7  2  0  0  0  0
 24  5  1  0  0  0  0
 25 27  1  0  0  0  0
 26 14  2  0  0  0  0
 26  2  1  0  0  0  0
 27 22  2  0  0  0  0
 29 32  2  0  0  0  0
 30 28  1  1  0  0  0
 30 31  1  0  0  0  0
 30 29  1  0  0  0  0
 31 29  1  0  0  0  0
M  END
>  <MODEL>
8

>  <REMARK>
 VINA RESULT:      -7.7      3.109      8.773
  Name = 
  2 active torsions:
  status: ('A' for Active; 'I' for Inactive)
    1  A    between atoms: N_2  and  C_24
    2  A    between atoms: C_10  and  C_24
                            x       y       z     vdW  Elec       q    Type
                         _______ _______ _______ _____ _____    ______ ____

>  <TORSDO>
F 2

$$$$
=
 OpenBabel11052421313D

 32 38  0  0  1  0  0  0  0  0999 V2000
  186.7200  177.2800  145.4000 N   0  0  0  0  0  0  0  0  0  0  0  0
  191.2820  175.4210  144.0080 C   0  0  2  0  0  3  0  0  0  0  0  0
  190.1560  172.6640  140.0810 C   0  0  0  0  0  2  0  0  0  0  0  0
  191.5240  172.7430  139.7750 O   0  0  0  0  0  0  0  0  0  0  0  0
  193.4400  174.9770  145.0730 C   0  0  0  0  0  0  0  0  0  0  0  0
  194.6710  174.3000  145.0550 C   0  0  0  0  0  0  0  0  0  0  0  0
  189.5190  176.6410  145.1790 C   0  0  0  0  0  0  0  0  0  0  0  0
  188.9600  175.4410  143.1640 N   0  0  0  0  0  0  0  0  0  0  0  0
  197.1310  172.9460  145.0010 C   0  0  0  0  0  3  0  0  0  0  0  0
  187.0790  176.1650  144.5130 C   0  0  0  0  0  2  0  0  0  0  0  0
  189.7360  173.9270  140.8320 C   0  0  0  0  0  2  0  0  0  0  0  0
  190.3770  175.3570  142.7930 C   0  0  2  0  0  3  0  0  0  0  0  0
  190.6320  174.1810  141.9660 N   0  0  2  0  0  0  0  0  0  0  0  0
  192.8100  173.8560  142.9810 C   0  0  0  0  0  0  0  0  0  0  0  0
  196.8380  173.8250  146.0480 C   0  0  0  0  0  3  0  0  0  0  0  0
  187.5820  177.3160  146.5930 C   0  0  0  0  0  2  0  0  0  0  0  0
  188.5480  176.1040  144.2040 C   0  0  0  0  0  0  0  0  0  0  0  0
  195.6140  174.4990  146.0750 C   0  0  0  0  0  3  0  0  0  0  0  0
  189.0570  177.5650  146.2550 C   0  0  0  0  0  2  0  0  0  0  0  0
  192.2140  172.4870  140.9730 C   0  0  0  0  0  2  0  0  0  0  0  0
  191.9310  173.5650  141.9960 C   0  0  1  0  0  3  0  0  0  0  0  0
  194.0500  173.1990  142.9940 C   0  0  0  0  0  3  0  0  0  0  0  0
  190.8050  176.3040  145.0950 C   0  0  0  0  0  3  0  0  0  0  0  0
  193.1940  175.8500  146.1310 O   0  0  0  0  0  1  0  0  0  0  0  0
  196.1980  172.7400  143.9810 C   0  0  0  0  0  3  0  0  0  0  0  0
  192.4870  174.7790  144.0250 C   0  0  0  0  0  0  0  0  0  0  0  0
  194.9730  173.4130  144.0050 C   0  0  0  0  0  0  0  0  0  0  0  0
  186.7910  178.5400  144.6620 C   0  0  0  0  0  2  0  0  0  0  0  0
  184.5160  178.5530  145.6240 C   0  0  0  0  0  0  0  0  0  0  0  0
  185.6180  179.4280  145.0330 C   0  0  2  0  0  3  0  0  0  0  0  0
  184.4870  179.1310  144.2110 C   0  0  0  0  0  2  0  0  0  0  0  0
  184.0360  177.8860  146.5270 O   0  0  0  0  0  0  0  0  0  0  0  0
  1 16  1  0  0  0  0
  2 26  1  0  0  0  0
  2 23  1  6  0  0  0
  3 11  1  0  0  0  0
  4  3  1  0  0  0  0
  4 20  1  0  0  0  0
  5 24  1  0  0  0  0
  6  5  1  0  0  0  0
  6 18  1  0  0  0  0
  7 19  1  0  0  0  0
  8 17  2  0  0  0  0
  9 15  1  0  0  0  0
 10  1  1  0  0  0  0
 12  8  1  1  0  0  0
 12  2  1  0  0  0  0
 13 11  1  6  0  0  0
 13 21  1  0  0  0  0
 13 12  1  0  0  0  0
 14 22  2  0  0  0  0
 14 26  1  0  0  0  0
 15 18  2  0  0  0  0
 17 10  1  0  0  0  0
 17  7  1  0  0  0  0
 19 16  1  0  0  0  0
 21 20  1  1  0  0  0
 21 14  1  0  0  0  0
 22 27  1  0  0  0  0
 23  7  2  0  0  0  0
 25 27  1  0  0  0  0
 25  9  2  0  0  0  0
 26  5  2  0  0  0  0
 27  6  2  0  0  0  0
 28  1  1  0  0  0  0
 29 32  2  0  0  0  0
 30 28  1  6  0  0  0
 30 29  1  0  0  0  0
 31 30  1  0  0  0  0
 31 29  1  0  0  0  0
M  END
>  <MODEL>
9

>  <REMARK>
 VINA RESULT:      -7.7      2.253      8.082
  Name = 
  2 active torsions:
  status: ('A' for Active; 'I' for Inactive)
    1  A    between atoms: N_2  and  C_24
    2  A    between atoms: C_10  and  C_24
                            x       y       z     vdW  Elec       q    Type
                         _______ _______ _______ _____ _____    ______ ____

>  <TORSDO>
F 2

$$$$
