=
 OpenBabel11052417523D

 31 36  0  0  1  0  0  0  0  0999 V2000
  194.3470  174.6280  144.0930 C   0  0  2  0  0  3  0  0  0  0  0  0
  190.6410  174.5610  143.1340 N   0  0  0  0  0  0  0  0  0  0  0  0
  190.6020  174.1790  141.7150 C   0  0  1  0  0  3  0  0  0  0  0  0
  190.9490  172.1280  140.4700 C   0  0  0  0  0  0  0  0  0  0  0  0
  191.8530  174.3250  143.9340 C   0  0  1  0  0  3  0  0  0  0  0  0
  194.0670  174.1340  145.4510 N   0  0  0  0  0  2  0  0  0  0  0  0
  191.2700  172.8950  141.4740 N   0  0  0  0  0  0  0  0  0  0  0  0
  189.7210  175.9200  145.0710 C   0  0  2  0  0  3  0  0  0  0  0  0
  195.2820  175.8220  144.1370 C   0  0  0  0  0  1  0  0  0  0  0  0
  188.2330  174.8030  141.7560 N   0  0  0  0  0  0  0  0  0  0  0  0
  191.7170  170.8790  140.2260 C   0  0  0  0  0  1  0  0  0  0  0  0
  191.0820  176.1080  145.3750 O   0  0  0  0  0  0  0  0  0  0  0  0
  189.5750  175.3680  143.6750 C   0  0  0  0  0  0  0  0  0  0  0  0
  193.0800  174.9720  143.2950 C   0  0  0  0  0  2  0  0  0  0  0  0
  189.8060  172.4310  139.6460 N   0  0  0  0  0  0  0  0  0  0  0  0
  191.6880  174.8380  145.3840 C   0  0  2  0  0  3  0  0  0  0  0  0
  193.0390  174.9510  146.1030 C   0  0  0  0  0  2  0  0  0  0  0  0
  188.4170  175.4670  143.0130 C   0  0  0  0  0  3  0  0  0  0  0  0
  189.1980  174.1600  141.1720 C   0  0  0  0  0  0  0  0  0  0  0  0
  188.9600  173.3650  139.9660 C   0  0  0  0  0  3  0  0  0  0  0  0
  189.0210  177.1900  145.2000 N   0  0  0  0  0  2  0  0  0  0  0  0
  184.2160  179.0220  144.5090 C   0  0  0  0  0  0  0  0  0  0  0  0
  186.6520  178.6870  143.9650 C   0  0  0  0  0  2  0  0  0  0  0  0
  185.8510  176.9660  147.1170 N   0  0  0  0  0  0  0  0  0  0  0  0
  187.2650  176.5970  147.0360 C   0  0  0  0  0  2  0  0  0  0  0  0
  183.1720  179.1230  143.8850 O   0  0  0  0  0  0  0  0  0  0  0  0
  187.7220  177.2850  145.7860 C   0  0  0  0  0  0  0  0  0  0  0  0
  185.4720  179.6680  143.9730 C   0  0  0  0  0  2  0  0  0  0  0  0
  185.5680  177.7190  146.1070 C   0  0  0  0  0  0  0  0  0  0  0  0
  186.7160  177.9560  145.2680 C   0  0  0  0  0  0  0  0  0  0  0  0
  184.2220  178.3190  145.8440 C   0  0  0  0  0  2  0  0  0  0  0  0
  1  9  1  1  0  0  0
  1  6  1  0  0  0  0
  2 13  1  0  0  0  0
  2  5  1  0  0  0  0
  3 19  1  1  0  0  0
  3  2  1  0  0  0  0
  4  7  2  0  0  0  0
  5 14  1  6  0  0  0
  5 16  1  0  0  0  0
  6 17  1  0  0  0  0
  7  3  1  0  0  0  0
  8 21  1  6  0  0  0
  8 12  1  0  0  0  0
 10 18  1  0  0  0  0
 11  4  1  0  0  0  0
 12 16  1  0  0  0  0
 13  8  1  0  0  0  0
 14  1  1  0  0  0  0
 15 20  2  0  0  0  0
 15  4  1  0  0  0  0
 16 17  1  6  0  0  0
 18 13  2  0  0  0  0
 19 10  2  0  0  0  0
 20 19  1  0  0  0  0
 21 27  1  0  0  0  0
 22 31  1  0  0  0  0
 23 28  1  0  0  0  0
 23 30  1  0  0  0  0
 25 24  1  0  0  0  0
 26 22  2  0  0  0  0
 27 25  1  0  0  0  0
 28 22  1  0  0  0  0
 29 24  2  0  0  0  0
 30 27  2  0  0  0  0
 30 29  1  0  0  0  0
 31 29  1  0  0  0  0
M  END
>  <MODEL>
1

>  <REMARK>
 VINA RESULT:      -8.3      0.000      0.000
  Name = 
  2 active torsions:
  status: ('A' for Active; 'I' for Inactive)
    1  A    between atoms: C_9  and  N_23
    2  A    between atoms: C_15  and  N_23
                            x       y       z     vdW  Elec       q    Type
                         _______ _______ _______ _____ _____    ______ ____

>  <TORSDO>
F 2

$$$$
=
 OpenBabel11052417523D

 31 36  0  0  1  0  0  0  0  0999 V2000
  191.0220  172.7880  141.3800 C   0  0  2  0  0  3  0  0  0  0  0  0
  191.3910  175.3310  144.2180 N   0  0  0  0  0  0  0  0  0  0  0  0
  192.6540  174.9980  144.8910 C   0  0  1  0  0  3  0  0  0  0  0  0
  195.0070  175.2570  144.3710 C   0  0  0  0  0  0  0  0  0  0  0  0
  191.1100  174.8160  142.8690 C   0  0  1  0  0  3  0  0  0  0  0  0
  190.3890  173.7770  140.4930 N   0  0  0  0  0  2  0  0  0  0  0  0
  193.7920  175.0190  143.9650 N   0  0  0  0  0  0  0  0  0  0  0  0
  188.9840  176.1290  144.3290 C   0  0  2  0  0  3  0  0  0  0  0  0
  190.2400  171.4880  141.3820 C   0  0  0  0  0  1  0  0  0  0  0  0
  191.9600  176.5490  146.6570 N   0  0  0  0  0  0  0  0  0  0  0  0
  196.1320  175.1810  143.4020 C   0  0  0  0  0  1  0  0  0  0  0  0
  188.7670  175.0960  143.3990 O   0  0  0  0  0  0  0  0  0  0  0  0
  190.3400  175.9720  144.9690 C   0  0  0  0  0  0  0  0  0  0  0  0
  191.2200  173.2930  142.8170 C   0  0  0  0  0  2  0  0  0  0  0  0
  195.2640  175.6770  145.7250 N   0  0  0  0  0  0  0  0  0  0  0  0
  189.7130  175.2540  142.3700 C   0  0  2  0  0  3  0  0  0  0  0  0
  189.2570  174.4270  141.1600 C   0  0  0  0  0  2  0  0  0  0  0  0
  190.6250  176.5680  146.1320 C   0  0  0  0  0  3  0  0  0  0  0  0
  192.9150  175.8890  146.0770 C   0  0  0  0  0  0  0  0  0  0  0  0
  194.3000  175.9980  146.5370 C   0  0  0  0  0  3  0  0  0  0  0  0
  187.9310  176.0970  145.3350 N   0  0  0  0  0  2  0  0  0  0  0  0
  183.9750  178.3280  142.8270 C   0  0  0  0  0  0  0  0  0  0  0  0
  185.9420  176.7810  143.1100 C   0  0  0  0  0  2  0  0  0  0  0  0
  185.4690  178.7400  146.1880 N   0  0  0  0  0  0  0  0  0  0  0  0
  186.6150  177.9430  146.6280 C   0  0  0  0  0  2  0  0  0  0  0  0
  182.8970  178.2990  142.2560 O   0  0  0  0  0  0  0  0  0  0  0  0
  186.9310  177.1130  145.4200 C   0  0  0  0  0  0  0  0  0  0  0  0
  185.1890  177.7230  142.1610 C   0  0  0  0  0  2  0  0  0  0  0  0
  185.1950  178.4210  144.9680 C   0  0  0  0  0  0  0  0  0  0  0  0
  186.1000  177.4260  144.4500 C   0  0  0  0  0  0  0  0  0  0  0  0
  184.0970  179.0340  144.1550 C   0  0  0  0  0  2  0  0  0  0  0  0
  1  9  1  1  0  0  0
  1 14  1  0  0  0  0
  2  3  1  0  0  0  0
  2 13  1  0  0  0  0
  3  7  1  6  0  0  0
  3 19  1  0  0  0  0
  4 15  1  0  0  0  0
  5 14  1  1  0  0  0
  5  2  1  0  0  0  0
  6 17  1  0  0  0  0
  6  1  1  0  0  0  0
  7  4  2  0  0  0  0
  8 13  1  0  0  0  0
  8 21  1  1  0  0  0
 11  4  1  0  0  0  0
 12  8  1  0  0  0  0
 13 18  2  0  0  0  0
 15 20  2  0  0  0  0
 16 17  1  6  0  0  0
 16  5  1  0  0  0  0
 16 12  1  0  0  0  0
 18 10  1  0  0  0  0
 19 20  1  0  0  0  0
 19 10  2  0  0  0  0
 21 27  1  0  0  0  0
 22 31  1  0  0  0  0
 23 30  1  0  0  0  0
 24 25  1  0  0  0  0
 26 22  2  0  0  0  0
 27 25  1  0  0  0  0
 28 22  1  0  0  0  0
 28 23  1  0  0  0  0
 29 24  2  0  0  0  0
 30 29  1  0  0  0  0
 30 27  2  0  0  0  0
 31 29  1  0  0  0  0
M  END
>  <MODEL>
2

>  <REMARK>
 VINA RESULT:      -8.2      1.637      4.396
  Name = 
  2 active torsions:
  status: ('A' for Active; 'I' for Inactive)
    1  A    between atoms: C_9  and  N_23
    2  A    between atoms: C_15  and  N_23
                            x       y       z     vdW  Elec       q    Type
                         _______ _______ _______ _____ _____    ______ ____

>  <TORSDO>
F 2

$$$$
=
 OpenBabel11052417523D

 31 36  0  0  1  0  0  0  0  0999 V2000
  195.2930  175.2530  144.6420 C   0  0  2  0  0  3  0  0  0  0  0  0
  191.6160  174.2780  144.2070 N   0  0  0  0  0  0  0  0  0  0  0  0
  191.5970  173.2500  143.1560 C   0  0  1  0  0  3  0  0  0  0  0  0
  192.2200  170.9110  143.0170 C   0  0  0  0  0  0  0  0  0  0  0  0
  192.8720  174.6100  144.8970 C   0  0  1  0  0  3  0  0  0  0  0  0
  195.1310  175.4540  146.0920 N   0  0  0  0  0  2  0  0  0  0  0  0
  192.4470  172.1040  143.4930 N   0  0  0  0  0  0  0  0  0  0  0  0
  190.5520  176.2860  145.3380 C   0  0  2  0  0  3  0  0  0  0  0  0
  196.0340  176.4190  144.0160 C   0  0  0  0  0  1  0  0  0  0  0  0
  189.1620  173.5220  143.1280 N   0  0  0  0  0  0  0  0  0  0  0  0
  193.1640  169.8060  143.3250 C   0  0  0  0  0  1  0  0  0  0  0  0
  191.8760  176.7620  145.3770 O   0  0  0  0  0  0  0  0  0  0  0  0
  190.4550  175.1100  144.3990 C   0  0  0  0  0  0  0  0  0  0  0  0
  193.9660  175.0070  143.9080 C   0  0  0  0  0  2  0  0  0  0  0  0
  191.0210  170.6330  142.2680 N   0  0  0  0  0  0  0  0  0  0  0  0
  192.6710  175.7420  145.9320 C   0  0  2  0  0  3  0  0  0  0  0  0
  194.0090  176.3540  146.3710 C   0  0  0  0  0  2  0  0  0  0  0  0
  189.2770  174.7320  143.8890 C   0  0  0  0  0  3  0  0  0  0  0  0
  190.1980  172.7990  142.8310 C   0  0  0  0  0  0  0  0  0  0  0  0
  190.0510  171.4940  142.1830 C   0  0  0  0  0  3  0  0  0  0  0  0
  189.6690  177.3620  144.9110 N   0  0  0  0  0  2  0  0  0  0  0  0
  184.7380  178.4780  143.7470 C   0  0  0  0  0  0  0  0  0  0  0  0
  187.2000  178.1910  143.3010 C   0  0  0  0  0  2  0  0  0  0  0  0
  186.5050  177.4940  146.8460 N   0  0  0  0  0  0  0  0  0  0  0  0
  187.9450  177.2370  146.8670 C   0  0  0  0  0  2  0  0  0  0  0  0
  183.6970  178.2910  143.1380 O   0  0  0  0  0  0  0  0  0  0  0  0
  188.3600  177.5300  145.4560 C   0  0  0  0  0  0  0  0  0  0  0  0
  185.9420  179.0230  143.0160 C   0  0  0  0  0  2  0  0  0  0  0  0
  186.1730  177.8630  145.6540 C   0  0  0  0  0  0  0  0  0  0  0  0
  187.3080  177.9180  144.7670 C   0  0  0  0  0  0  0  0  0  0  0  0
  184.7850  178.2360  145.2350 C   0  0  0  0  0  2  0  0  0  0  0  0
  1  9  1  6  0  0  0
  1  6  1  0  0  0  0
  2 13  1  0  0  0  0
  2  5  1  0  0  0  0
  3 19  1  1  0  0  0
  3  7  1  0  0  0  0
  3  2  1  0  0  0  0
  4 11  1  0  0  0  0
  4  7  2  0  0  0  0
  5 14  1  6  0  0  0
  5 16  1  0  0  0  0
  6 17  1  0  0  0  0
  8 21  1  6  0  0  0
  8 12  1  0  0  0  0
 10 18  1  0  0  0  0
 12 16  1  0  0  0  0
 13  8  1  0  0  0  0
 14  1  1  0  0  0  0
 15  4  1  0  0  0  0
 16 17  1  6  0  0  0
 18 13  2  0  0  0  0
 19 10  2  0  0  0  0
 20 15  2  0  0  0  0
 20 19  1  0  0  0  0
 21 27  1  0  0  0  0
 22 31  1  0  0  0  0
 23 30  1  0  0  0  0
 24 25  1  0  0  0  0
 26 22  2  0  0  0  0
 27 25  1  0  0  0  0
 28 23  1  0  0  0  0
 28 22  1  0  0  0  0
 29 24  2  0  0  0  0
 30 27  2  0  0  0  0
 30 29  1  0  0  0  0
 31 29  1  0  0  0  0
M  END
>  <MODEL>
3

>  <REMARK>
 VINA RESULT:      -8.1      1.582      1.752
  Name = 
  2 active torsions:
  status: ('A' for Active; 'I' for Inactive)
    1  A    between atoms: C_9  and  N_23
    2  A    between atoms: C_15  and  N_23
                            x       y       z     vdW  Elec       q    Type
                         _______ _______ _______ _____ _____    ______ ____

>  <TORSDO>
F 2

$$$$
=
 OpenBabel11052417523D

 31 36  0  0  1  0  0  0  0  0999 V2000
  193.3160  173.9190  144.0380 C   0  0  2  0  0  3  0  0  0  0  0  0
  190.0940  174.2390  141.9960 N   0  0  0  0  0  0  0  0  0  0  0  0
  190.3660  173.5740  140.7140 C   0  0  1  0  0  3  0  0  0  0  0  0
  190.5910  171.2760  139.9740 C   0  0  0  0  0  0  0  0  0  0  0  0
  190.9580  173.9880  143.1600 C   0  0  1  0  0  3  0  0  0  0  0  0
  192.5740  173.7750  145.3020 N   0  0  0  0  0  2  0  0  0  0  0  0
  190.7820  172.1790  140.8950 N   0  0  0  0  0  0  0  0  0  0  0  0
  188.9910  176.1070  143.3140 C   0  0  2  0  0  3  0  0  0  0  0  0
  194.4380  174.9300  144.1850 C   0  0  0  0  0  1  0  0  0  0  0  0
  188.2690  174.5610  139.9170 N   0  0  0  0  0  0  0  0  0  0  0  0
  191.1100  169.8990  140.1780 C   0  0  0  0  0  1  0  0  0  0  0  0
  190.2230  176.1370  143.9930 O   0  0  0  0  0  0  0  0  0  0  0  0
  189.1200  175.3010  142.0460 C   0  0  0  0  0  0  0  0  0  0  0  0
  192.4230  174.2810  142.8420 C   0  0  0  0  0  2  0  0  0  0  0  0
  189.8130  171.5750  138.7990 N   0  0  0  0  0  0  0  0  0  0  0  0
  190.5160  174.8190  144.3880 C   0  0  2  0  0  3  0  0  0  0  0  0
  191.6080  174.8650  145.4650 C   0  0  0  0  0  2  0  0  0  0  0  0
  188.2380  175.4390  141.0500 C   0  0  0  0  0  3  0  0  0  0  0  0
  189.1960  173.6640  139.7710 C   0  0  0  0  0  0  0  0  0  0  0  0
  189.1340  172.6780  138.6900 C   0  0  0  0  0  3  0  0  0  0  0  0
  188.5740  177.4710  143.0190 N   0  0  0  0  0  2  0  0  0  0  0  0
  184.8580  178.0800  146.5880 C   0  0  0  0  0  0  0  0  0  0  0  0
  187.0900  177.3310  145.6930 C   0  0  0  0  0  2  0  0  0  0  0  0
  185.1550  178.9150  142.9950 N   0  0  0  0  0  0  0  0  0  0  0  0
  186.3650  178.6130  142.2280 C   0  0  0  0  0  3  0  0  0  0  0  0
  184.4250  178.5210  147.6400 O   0  0  0  0  0  0  0  0  0  0  0  0
  187.2340  177.9160  143.2310 C   0  0  0  0  0  0  0  0  0  0  0  0
  185.9050  176.9920  146.6090 C   0  0  0  0  0  2  0  0  0  0  0  0
  185.3130  178.4720  144.1970 C   0  0  2  0  0  3  0  0  0  0  0  0
  186.5880  177.8240  144.3740 C   0  0  0  0  0  0  0  0  0  0  0  0
  184.2860  178.5720  145.2810 C   0  0  0  0  0  2  0  0  0  0  0  0
  1  9  1  1  0  0  0
  1  6  1  0  0  0  0
  2 13  1  0  0  0  0
  2  5  1  0  0  0  0
  3 19  1  6  0  0  0
  3  7  1  0  0  0  0
  3  2  1  0  0  0  0
  4 11  1  0  0  0  0
  4  7  2  0  0  0  0
  5 14  1  6  0  0  0
  5 16  1  0  0  0  0
  6 17  1  0  0  0  0
  8 21  1  6  0  0  0
  8 12  1  0  0  0  0
 10 18  1  0  0  0  0
 12 16  1  0  0  0  0
 13  8  1  0  0  0  0
 14  1  1  0  0  0  0
 15  4  1  0  0  0  0
 16 17  1  1  0  0  0
 18 13  2  0  0  0  0
 19 10  2  0  0  0  0
 20 15  2  0  0  0  0
 20 19  1  0  0  0  0
 21 27  1  0  0  0  0
 22 28  1  0  0  0  0
 22 26  2  0  0  0  0
 23 28  1  0  0  0  0
 24 29  1  0  0  0  0
 25 24  2  0  0  0  0
 25 27  1  0  0  0  0
 27 30  2  0  0  0  0
 29 30  1  0  0  0  0
 29 31  1  6  0  0  0
 30 23  1  0  0  0  0
 31 22  1  0  0  0  0
M  END
>  <MODEL>
4

>  <REMARK>
 VINA RESULT:      -8.0      1.622      2.198
  Name = 
  2 active torsions:
  status: ('A' for Active; 'I' for Inactive)
    1  A    between atoms: C_9  and  N_23
    2  A    between atoms: C_15  and  N_23
                            x       y       z     vdW  Elec       q    Type
                         _______ _______ _______ _____ _____    ______ ____

>  <TORSDO>
F 2

$$$$
=
 OpenBabel11052417523D

 31 36  0  0  1  0  0  0  0  0999 V2000
  191.3500  171.7720  140.5480 C   0  0  2  0  0  3  0  0  0  0  0  0
  190.7030  175.0140  142.4800 N   0  0  0  0  0  0  0  0  0  0  0  0
  191.8110  175.1360  143.4380 C   0  0  1  0  0  3  0  0  0  0  0  0
  194.1630  175.7070  143.2930 C   0  0  0  0  0  0  0  0  0  0  0  0
  190.8140  174.1050  141.3280 C   0  0  1  0  0  3  0  0  0  0  0  0
  190.8080  172.3350  139.3000 N   0  0  0  0  0  2  0  0  0  0  0  0
  193.1170  175.1290  142.7700 N   0  0  0  0  0  0  0  0  0  0  0  0
  188.2490  175.3150  141.9070 C   0  0  2  0  0  3  0  0  0  0  0  0
  190.7750  170.3930  140.8110 C   0  0  0  0  0  1  0  0  0  0  0  0
  190.5230  176.9390  144.4840 N   0  0  0  0  0  0  0  0  0  0  0  0
  195.4790  175.5950  142.6130 C   0  0  0  0  0  1  0  0  0  0  0  0
  188.3960  174.0460  141.3180 O   0  0  0  0  0  0  0  0  0  0  0  0
  189.4300  175.6120  142.7960 C   0  0  0  0  0  0  0  0  0  0  0  0
  191.1410  172.6790  141.7700 C   0  0  0  0  0  2  0  0  0  0  0  0
  194.0410  176.5230  144.4750 N   0  0  0  0  0  0  0  0  0  0  0  0
  189.5220  174.1020  140.4770 C   0  0  2  0  0  3  0  0  0  0  0  0
  189.4750  172.9030  139.5210 C   0  0  0  0  0  2  0  0  0  0  0  0
  189.3560  176.5470  143.7500 C   0  0  0  0  0  3  0  0  0  0  0  0
  191.6680  176.3490  144.3170 C   0  0  0  0  0  0  0  0  0  0  0  0
  192.8820  176.8530  144.9610 C   0  0  0  0  0  3  0  0  0  0  0  0
  187.0080  175.3490  142.6690 N   0  0  0  0  0  2  0  0  0  0  0  0
  184.9130  178.5100  146.2100 C   0  0  0  0  0  0  0  0  0  0  0  0
  186.0870  176.4430  145.3760 C   0  0  0  0  0  2  0  0  0  0  0  0
  185.2240  178.6010  142.5230 N   0  0  0  0  0  0  0  0  0  0  0  0
  185.8890  177.5310  141.7770 C   0  0  0  0  0  3  0  0  0  0  0  0
  184.9740  179.2300  147.1930 O   0  0  0  0  0  0  0  0  0  0  0  0
  186.2610  176.5530  142.8490 C   0  0  0  0  0  0  0  0  0  0  0  0
  185.0660  177.0160  146.3690 C   0  0  0  0  0  2  0  0  0  0  0  0
  185.2200  178.2830  143.7740 C   0  0  2  0  0  3  0  0  0  0  0  0
  185.8390  177.0030  144.0110 C   0  0  0  0  0  0  0  0  0  0  0  0
  184.6120  179.1130  144.8610 C   0  0  0  0  0  2  0  0  0  0  0  0
  1  9  1  1  0  0  0
  1 14  1  0  0  0  0
  2 13  1  0  0  0  0
  2  3  1  0  0  0  0
  3  7  1  6  0  0  0
  3 19  1  0  0  0  0
  4 15  1  0  0  0  0
  5 14  1  1  0  0  0
  5  2  1  0  0  0  0
  6 17  1  0  0  0  0
  6  1  1  0  0  0  0
  7  4  2  0  0  0  0
  8 21  1  1  0  0  0
  8 13  1  0  0  0  0
 11  4  1  0  0  0  0
 12  8  1  0  0  0  0
 13 18  2  0  0  0  0
 15 20  2  0  0  0  0
 16 17  1  6  0  0  0
 16 12  1  0  0  0  0
 16  5  1  0  0  0  0
 18 10  1  0  0  0  0
 19 10  2  0  0  0  0
 19 20  1  0  0  0  0
 21 27  1  0  0  0  0
 22 28  1  0  0  0  0
 22 26  2  0  0  0  0
 23 28  1  0  0  0  0
 24 29  1  0  0  0  0
 25 24  2  0  0  0  0
 25 27  1  0  0  0  0
 27 30  2  0  0  0  0
 29 30  1  0  0  0  0
 29 31  1  6  0  0  0
 30 23  1  0  0  0  0
 31 22  1  0  0  0  0
M  END
>  <MODEL>
5

>  <REMARK>
 VINA RESULT:      -7.9      2.051      4.619
  Name = 
  2 active torsions:
  status: ('A' for Active; 'I' for Inactive)
    1  A    between atoms: C_9  and  N_23
    2  A    between atoms: C_15  and  N_23
                            x       y       z     vdW  Elec       q    Type
                         _______ _______ _______ _____ _____    ______ ____

>  <TORSDO>
F 2

$$$$
=
 OpenBabel11052417523D

 31 36  0  0  1  0  0  0  0  0999 V2000
  193.0970  175.5370  145.8450 C   0  0  2  0  0  3  0  0  0  0  0  0
  190.1320  174.7870  143.5420 N   0  0  0  0  0  0  0  0  0  0  0  0
  190.6590  173.9130  142.4840 C   0  0  1  0  0  3  0  0  0  0  0  0
  191.3390  171.5910  142.3430 C   0  0  0  0  0  0  0  0  0  0  0  0
  190.8800  174.9700  144.7950 C   0  0  1  0  0  3  0  0  0  0  0  0
  192.2430  175.5470  147.0440 N   0  0  0  0  0  2  0  0  0  0  0  0
  191.2700  172.6970  143.0300 N   0  0  0  0  0  0  0  0  0  0  0  0
  188.5930  176.6670  144.2780 C   0  0  2  0  0  3  0  0  0  0  0  0
  194.0150  176.7450  145.8280 C   0  0  0  0  0  1  0  0  0  0  0  0
  188.5400  174.2900  141.3110 N   0  0  0  0  0  0  0  0  0  0  0  0
  192.0450  170.4150  142.9160 C   0  0  0  0  0  1  0  0  0  0  0  0
  189.7140  177.0770  145.0230 O   0  0  0  0  0  0  0  0  0  0  0  0
  189.0010  175.6350  143.2570 C   0  0  0  0  0  0  0  0  0  0  0  0
  192.3060  175.4500  144.5310 C   0  0  0  0  0  2  0  0  0  0  0  0
  190.6680  171.4680  141.0740 N   0  0  0  0  0  0  0  0  0  0  0  0
  190.1670  175.9590  145.7470 C   0  0  2  0  0  3  0  0  0  0  0  0
  191.1010  176.4480  146.8630 C   0  0  0  0  0  2  0  0  0  0  0  0
  188.2330  175.3800  142.1920 C   0  0  0  0  0  3  0  0  0  0  0  0
  189.6110  173.5700  141.4600 C   0  0  0  0  0  0  0  0  0  0  0  0
  189.8380  172.3730  140.6490 C   0  0  0  0  0  3  0  0  0  0  0  0
  187.9990  177.8280  143.6290 N   0  0  0  0  0  2  0  0  0  0  0  0
  183.4700  178.2910  141.1390 C   0  0  0  0  0  0  0  0  0  0  0  0
  185.9510  177.9120  141.3540 C   0  0  0  0  0  2  0  0  0  0  0  0
  184.5270  178.6220  144.6710 N   0  0  0  0  0  0  0  0  0  0  0  0
  185.9170  178.4270  145.0840 C   0  0  0  0  0  2  0  0  0  0  0  0
  182.5630  177.8590  140.4490 O   0  0  0  0  0  0  0  0  0  0  0  0
  186.6200  178.1620  143.7870 C   0  0  0  0  0  0  0  0  0  0  0  0
  184.8260  178.5400  140.5200 C   0  0  0  0  0  2  0  0  0  0  0  0
  184.4600  178.4940  143.3880 C   0  0  0  0  0  0  0  0  0  0  0  0
  185.7500  178.2290  142.8020 C   0  0  0  0  0  0  0  0  0  0  0  0
  183.2080  178.6440  142.5830 C   0  0  0  0  0  2  0  0  0  0  0  0
  1  9  1  6  0  0  0
  1  6  1  0  0  0  0
  2  5  1  0  0  0  0
  3 19  1  6  0  0  0
  3  7  1  0  0  0  0
  3  2  1  0  0  0  0
  4 11  1  0  0  0  0
  4  7  2  0  0  0  0
  5 14  1  6  0  0  0
  5 16  1  0  0  0  0
  8 21  1  6  0  0  0
  8 12  1  0  0  0  0
 10 19  2  0  0  0  0
 10 18  1  0  0  0  0
 12 16  1  0  0  0  0
 13  2  1  0  0  0  0
 13  8  1  0  0  0  0
 14  1  1  0  0  0  0
 15  4  1  0  0  0  0
 16 17  1  1  0  0  0
 17  6  1  0  0  0  0
 18 13  2  0  0  0  0
 20 15  2  0  0  0  0
 20 19  1  0  0  0  0
 21 27  1  0  0  0  0
 22 31  1  0  0  0  0
 23 30  1  0  0  0  0
 24 25  1  0  0  0  0
 26 22  2  0  0  0  0
 27 25  1  0  0  0  0
 28 22  1  0  0  0  0
 28 23  1  0  0  0  0
 29 24  2  0  0  0  0
 30 29  1  0  0  0  0
 30 27  2  0  0  0  0
 31 29  1  0  0  0  0
M  END
>  <MODEL>
6

>  <REMARK>
 VINA RESULT:      -7.9      1.965      2.324
  Name = 
  2 active torsions:
  status: ('A' for Active; 'I' for Inactive)
    1  A    between atoms: C_9  and  N_23
    2  A    between atoms: C_15  and  N_23
                            x       y       z     vdW  Elec       q    Type
                         _______ _______ _______ _____ _____    ______ ____

>  <TORSDO>
F 2

$$$$
=
 OpenBabel11052417523D

 31 36  0  0  1  0  0  0  0  0999 V2000
  191.5210  171.6740  141.5210 C   0  0  2  0  0  3  0  0  0  0  0  0
  192.4130  174.7160  143.6670 N   0  0  0  0  0  0  0  0  0  0  0  0
  193.5310  174.2890  144.5210 C   0  0  1  0  0  3  0  0  0  0  0  0
  195.8910  173.8510  144.1830 C   0  0  0  0  0  0  0  0  0  0  0  0
  192.0600  173.9440  142.4660 C   0  0  1  0  0  3  0  0  0  0  0  0
  191.1840  172.5140  140.3600 N   0  0  0  0  0  2  0  0  0  0  0  0
  194.6690  173.8020  143.7330 N   0  0  0  0  0  0  0  0  0  0  0  0
  190.2770  176.0490  143.3450 C   0  0  2  0  0  3  0  0  0  0  0  0
  190.4410  170.6370  141.7670 C   0  0  0  0  0  1  0  0  0  0  0  0
  193.1840  176.3660  145.7740 N   0  0  0  0  0  0  0  0  0  0  0  0
  196.9940  173.2660  143.3770 C   0  0  0  0  0  1  0  0  0  0  0  0
  189.8420  174.8870  142.6810 O   0  0  0  0  0  0  0  0  0  0  0  0
  191.5300  175.7560  144.1320 C   0  0  0  0  0  0  0  0  0  0  0  0
  191.7900  172.4790  142.8010 C   0  0  0  0  0  2  0  0  0  0  0  0
  196.1980  174.5400  145.4110 N   0  0  0  0  0  0  0  0  0  0  0  0
  190.8320  174.5460  141.7410 C   0  0  2  0  0  3  0  0  0  0  0  0
  190.2270  173.5590  140.7340 C   0  0  0  0  0  2  0  0  0  0  0  0
  191.9140  176.5540  145.1350 C   0  0  0  0  0  3  0  0  0  0  0  0
  193.9640  175.3740  145.4700 C   0  0  0  0  0  0  0  0  0  0  0  0
  195.3170  175.2770  146.0210 C   0  0  0  0  0  3  0  0  0  0  0  0
  189.2160  176.5260  144.2210 N   0  0  0  0  0  2  0  0  0  0  0  0
  184.5250  178.3670  145.4570 C   0  0  0  0  0  0  0  0  0  0  0  0
  186.6640  177.0860  145.8170 C   0  0  0  0  0  2  0  0  0  0  0  0
  186.6670  178.5550  142.4440 N   0  0  0  0  0  0  0  0  0  0  0  0
  187.9830  177.9170  142.3900 C   0  0  0  0  0  3  0  0  0  0  0  0
  183.7680  179.0400  146.1360 O   0  0  0  0  0  0  0  0  0  0  0  0
  188.0840  177.2390  143.7230 C   0  0  0  0  0  0  0  0  0  0  0  0
  185.1460  177.1210  146.0440 C   0  0  0  0  0  2  0  0  0  0  0  0
  186.1300  178.2860  143.5870 C   0  0  2  0  0  3  0  0  0  0  0  0
  186.9760  177.4490  144.4000 C   0  0  0  0  0  0  0  0  0  0  0  0
  184.7720  178.7440  144.0170 C   0  0  0  0  0  2  0  0  0  0  0  0
  1  9  1  1  0  0  0
  1 14  1  0  0  0  0
  2 13  1  0  0  0  0
  2  3  1  0  0  0  0
  3  7  1  6  0  0  0
  3 19  1  0  0  0  0
  4 15  1  0  0  0  0
  5 14  1  1  0  0  0
  5  2  1  0  0  0  0
  6 17  1  0  0  0  0
  6  1  1  0  0  0  0
  7  4  2  0  0  0  0
  8 13  1  0  0  0  0
  8 21  1  1  0  0  0
 11  4  1  0  0  0  0
 12  8  1  0  0  0  0
 13 18  2  0  0  0  0
 15 20  2  0  0  0  0
 16 17  1  6  0  0  0
 16  5  1  0  0  0  0
 16 12  1  0  0  0  0
 18 10  1  0  0  0  0
 19 10  2  0  0  0  0
 19 20  1  0  0  0  0
 22 28  1  0  0  0  0
 22 26  2  0  0  0  0
 23 28  1  0  0  0  0
 24 29  1  0  0  0  0
 25 24  2  0  0  0  0
 25 27  1  0  0  0  0
 27 21  1  0  0  0  0
 27 30  2  0  0  0  0
 29 31  1  6  0  0  0
 29 30  1  0  0  0  0
 30 23  1  0  0  0  0
 31 22  1  0  0  0  0
M  END
>  <MODEL>
7

>  <REMARK>
 VINA RESULT:      -7.8      1.823      4.657
  Name = 
  2 active torsions:
  status: ('A' for Active; 'I' for Inactive)
    1  A    between atoms: C_9  and  N_23
    2  A    between atoms: C_15  and  N_23
                            x       y       z     vdW  Elec       q    Type
                         _______ _______ _______ _____ _____    ______ ____

>  <TORSDO>
F 2

$$$$
=
 OpenBabel11052417523D

 31 36  0  0  1  0  0  0  0  0999 V2000
  193.5660  175.0170  145.3350 C   0  0  2  0  0  3  0  0  0  0  0  0
  190.6270  174.4180  142.9560 N   0  0  0  0  0  0  0  0  0  0  0  0
  191.1450  173.5420  141.8950 C   0  0  1  0  0  3  0  0  0  0  0  0
  191.7410  171.1980  141.7280 C   0  0  0  0  0  0  0  0  0  0  0  0
  191.3530  174.5510  144.2280 C   0  0  1  0  0  3  0  0  0  0  0  0
  192.6860  175.0390  146.5150 N   0  0  0  0  0  2  0  0  0  0  0  0
  191.6970  172.2940  142.4330 N   0  0  0  0  0  0  0  0  0  0  0  0
  189.1430  176.3410  143.6900 C   0  0  2  0  0  3  0  0  0  0  0  0
  194.5280  176.1900  145.3600 C   0  0  0  0  0  1  0  0  0  0  0  0
  189.0680  174.0170  140.6830 N   0  0  0  0  0  0  0  0  0  0  0  0
  192.3900  169.9870  142.2950 C   0  0  0  0  0  1  0  0  0  0  0  0
  190.2610  176.6960  144.4670 O   0  0  0  0  0  0  0  0  0  0  0  0
  189.5350  175.3110  142.6610 C   0  0  0  0  0  0  0  0  0  0  0  0
  192.8020  174.9820  144.0030 C   0  0  0  0  0  2  0  0  0  0  0  0
  191.0940  171.1210  140.4430 N   0  0  0  0  0  0  0  0  0  0  0  0
  190.6560  175.5500  145.1810 C   0  0  2  0  0  3  0  0  0  0  0  0
  191.5820  175.9850  146.3250 C   0  0  0  0  0  2  0  0  0  0  0  0
  188.7820  175.1030  141.5750 C   0  0  0  0  0  3  0  0  0  0  0  0
  190.1070  173.2560  140.8420 C   0  0  0  0  0  0  0  0  0  0  0  0
  190.3080  172.0640  140.0150 C   0  0  0  0  0  3  0  0  0  0  0  0
  188.6070  177.5340  143.0490 N   0  0  0  0  0  2  0  0  0  0  0  0
  184.8330  178.0820  146.5680 C   0  0  0  0  0  0  0  0  0  0  0  0
  187.0890  177.3690  145.7040 C   0  0  0  0  0  2  0  0  0  0  0  0
  185.1660  178.9230  142.9790 N   0  0  0  0  0  0  0  0  0  0  0  0
  186.3900  178.6400  142.2290 C   0  0  0  0  0  3  0  0  0  0  0  0
  184.3790  178.5150  147.6140 O   0  0  0  0  0  0  0  0  0  0  0  0
  187.2570  177.9580  143.2440 C   0  0  0  0  0  0  0  0  0  0  0  0
  185.8980  177.0110  146.6030 C   0  0  0  0  0  2  0  0  0  0  0  0
  185.3140  178.4820  144.1830 C   0  0  2  0  0  3  0  0  0  0  0  0
  186.5970  177.8550  144.3770 C   0  0  0  0  0  0  0  0  0  0  0  0
  184.2710  178.5650  145.2540 C   0  0  0  0  0  2  0  0  0  0  0  0
  1  9  1  6  0  0  0
  1  6  1  0  0  0  0
  2  5  1  0  0  0  0
  3 19  1  6  0  0  0
  3  7  1  0  0  0  0
  3  2  1  0  0  0  0
  4 11  1  0  0  0  0
  4  7  2  0  0  0  0
  5 14  1  6  0  0  0
  5 16  1  0  0  0  0
  8 21  1  6  0  0  0
  8 12  1  0  0  0  0
 10 19  2  0  0  0  0
 10 18  1  0  0  0  0
 12 16  1  0  0  0  0
 13  2  1  0  0  0  0
 13  8  1  0  0  0  0
 14  1  1  0  0  0  0
 15  4  1  0  0  0  0
 16 17  1  1  0  0  0
 17  6  1  0  0  0  0
 18 13  2  0  0  0  0
 20 15  2  0  0  0  0
 20 19  1  0  0  0  0
 21 27  1  0  0  0  0
 22 28  1  0  0  0  0
 22 26  2  0  0  0  0
 23 28  1  0  0  0  0
 24 29  1  0  0  0  0
 25 24  2  0  0  0  0
 25 27  1  0  0  0  0
 27 30  2  0  0  0  0
 29 30  1  0  0  0  0
 29 31  1  6  0  0  0
 30 23  1  0  0  0  0
 31 22  1  0  0  0  0
M  END
>  <MODEL>
8

>  <REMARK>
 VINA RESULT:      -7.8      1.673      2.213
  Name = 
  2 active torsions:
  status: ('A' for Active; 'I' for Inactive)
    1  A    between atoms: C_9  and  N_23
    2  A    between atoms: C_15  and  N_23
                            x       y       z     vdW  Elec       q    Type
                         _______ _______ _______ _____ _____    ______ ____

>  <TORSDO>
F 2

$$$$
=
 OpenBabel11052417523D

 31 36  0  0  1  0  0  0  0  0999 V2000
  192.8060  171.4950  142.6120 C   0  0  2  0  0  3  0  0  0  0  0  0
  189.7560  173.3250  141.1950 N   0  0  0  0  0  0  0  0  0  0  0  0
  189.9140  173.2940  139.7340 C   0  0  1  0  0  3  0  0  0  0  0  0
  189.6860  171.6050  138.0090 C   0  0  0  0  0  0  0  0  0  0  0  0
  190.5280  172.4060  142.0450 C   0  0  1  0  0  3  0  0  0  0  0  0
  192.0250  170.9250  143.7210 N   0  0  0  0  0  2  0  0  0  0  0  0
  190.0360  171.9240  139.2240 N   0  0  0  0  0  0  0  0  0  0  0  0
  189.0270  174.5390  143.3020 C   0  0  2  0  0  3  0  0  0  0  0  0
  194.1050  172.0920  143.1190 C   0  0  0  0  0  1  0  0  0  0  0  0
  188.0760  174.9120  139.6400 N   0  0  0  0  0  0  0  0  0  0  0  0
  189.9110  170.2200  137.5200 C   0  0  0  0  0  1  0  0  0  0  0  0
  190.2250  174.0180  143.8230 O   0  0  0  0  0  0  0  0  0  0  0  0
  189.0160  174.4050  141.8000 C   0  0  0  0  0  0  0  0  0  0  0  0
  192.0290  172.5320  141.7870 C   0  0  0  0  0  2  0  0  0  0  0  0
  189.0070  172.5550  137.1650 N   0  0  0  0  0  0  0  0  0  0  0  0
  190.2380  172.6390  143.5470 C   0  0  2  0  0  3  0  0  0  0  0  0
  191.2950  171.9740  144.4390 C   0  0  0  0  0  2  0  0  0  0  0  0
  188.2000  175.1530  141.0480 C   0  0  0  0  0  3  0  0  0  0  0  0
  188.8050  174.0290  139.0290 C   0  0  0  0  0  0  0  0  0  0  0  0
  188.5670  173.6890  137.6250 C   0  0  0  0  0  3  0  0  0  0  0  0
  188.8990  175.9350  143.6970 N   0  0  0  0  0  2  0  0  0  0  0  0
  185.0020  178.7360  145.6690 C   0  0  0  0  0  0  0  0  0  0  0  0
  186.5310  177.8680  143.8650 C   0  0  0  0  0  2  0  0  0  0  0  0
  187.5370  176.4560  147.1100 N   0  0  0  0  0  0  0  0  0  0  0  0
  188.5390  175.7890  146.2770 C   0  0  0  0  0  3  0  0  0  0  0  0
  183.8250  179.0410  145.7650 O   0  0  0  0  0  0  0  0  0  0  0  0
  188.2500  176.3240  144.9080 C   0  0  0  0  0  0  0  0  0  0  0  0
  185.7620  179.0800  144.4100 C   0  0  0  0  0  2  0  0  0  0  0  0
  186.8230  177.2210  146.3540 C   0  0  2  0  0  3  0  0  0  0  0  0
  187.2540  177.1810  144.9790 C   0  0  0  0  0  0  0  0  0  0  0  0
  185.7030  178.0890  146.8380 C   0  0  0  0  0  2  0  0  0  0  0  0
  1  9  1  1  0  0  0
  1  6  1  0  0  0  0
  2 13  1  0  0  0  0
  2  5  1  0  0  0  0
  3 19  1  6  0  0  0
  3  2  1  0  0  0  0
  4  7  2  0  0  0  0
  5 14  1  1  0  0  0
  5 16  1  0  0  0  0
  6 17  1  0  0  0  0
  7  3  1  0  0  0  0
  8 21  1  6  0  0  0
  8 12  1  0  0  0  0
 10 18  1  0  0  0  0
 11  4  1  0  0  0  0
 13  8  1  0  0  0  0
 14  1  1  0  0  0  0
 15 20  2  0  0  0  0
 15  4  1  0  0  0  0
 16 12  1  0  0  0  0
 16 17  1  1  0  0  0
 18 13  2  0  0  0  0
 19 10  2  0  0  0  0
 20 19  1  0  0  0  0
 21 27  1  0  0  0  0
 22 26  2  0  0  0  0
 22 31  1  0  0  0  0
 23 28  1  0  0  0  0
 23 30  1  0  0  0  0
 25 24  2  0  0  0  0
 27 30  2  0  0  0  0
 27 25  1  0  0  0  0
 28 22  1  0  0  0  0
 29 31  1  1  0  0  0
 29 24  1  0  0  0  0
 30 29  1  0  0  0  0
M  END
>  <MODEL>
9

>  <REMARK>
 VINA RESULT:      -7.7      2.094      2.527
  Name = 
  2 active torsions:
  status: ('A' for Active; 'I' for Inactive)
    1  A    between atoms: C_9  and  N_23
    2  A    between atoms: C_15  and  N_23
                            x       y       z     vdW  Elec       q    Type
                         _______ _______ _______ _____ _____    ______ ____

>  <TORSDO>
F 2

$$$$
