=
 OpenBabel11052418233D

 27 30  0  0  1  0  0  0  0  0999 V2000
  191.4050  176.3600  143.7710 C   0  0  2  0  0  3  0  0  0  0  0  0
  188.8800  176.4470  143.6240 C   0  0  1  0  0  3  0  0  0  0  0  0
  188.7190  175.4610  145.9870 C   0  0  0  0  0  2  0  0  0  0  0  0
  184.9410  177.8660  144.4200 C   0  0  0  0  0  3  0  0  0  0  0  0
  183.3640  179.0290  145.8270 O   0  0  0  0  0  1  0  0  0  0  0  0
  187.7220  175.8910  142.7890 C   0  0  0  0  0  2  0  0  0  0  0  0
  186.8000  177.8730  146.5090 C   0  0  0  0  0  3  0  0  0  0  0  0
  189.8700  174.7160  147.9250 O   0  0  0  0  0  1  0  0  0  0  0  0
  185.5410  178.4520  146.6900 C   0  0  0  0  0  3  0  0  0  0  0  0
  192.2990  175.4280  147.0520 F   0  0  0  0  0  0  0  0  0  0  0  0
  188.5070  176.6850  145.1030 C   0  0  2  0  0  3  0  0  0  0  0  0
  190.1370  175.6850  143.4660 N   0  0  0  0  0  0  0  0  0  0  0  0
  184.6130  178.4500  145.6470 C   0  0  0  0  0  0  0  0  0  0  0  0
  186.1940  177.2740  144.2370 C   0  0  0  0  0  0  0  0  0  0  0  0
  187.1360  177.2790  145.2860 C   0  0  0  0  0  0  0  0  0  0  0  0
  189.9270  175.6610  146.8990 C   0  0  1  0  0  3  0  0  0  0  0  0
  186.5290  176.7070  142.9680 N   0  0  0  0  0  2  0  0  0  0  0  0
  191.2570  175.5240  146.1480 C   0  0  1  0  0  3  0  0  0  0  0  0
  191.5040  176.7330  145.2510 C   0  0  0  0  0  2  0  0  0  0  0  0
  190.3320  171.4890  142.7470 C   0  0  0  0  0  3  0  0  0  0  0  0
  190.1830  174.2590  143.2250 C   0  0  0  0  0  0  0  0  0  0  0  0
  189.7300  173.3390  144.1870 C   0  0  0  0  0  3  0  0  0  0  0  0
  189.8010  171.9640  143.9490 C   0  0  0  0  0  3  0  0  0  0  0  0
  190.7930  172.3890  141.7850 C   0  0  0  0  0  3  0  0  0  0  0  0
  190.7220  173.7650  142.0240 C   0  0  0  0  0  3  0  0  0  0  0  0
  191.5940  177.5840  142.8870 C   0  0  0  0  0  2  0  0  0  0  0  0
  191.4000  178.7450  143.6360 O   0  0  0  0  0  1  0  0  0  0  0  0
  1 26  1  6  0  0  0
  1 19  1  0  0  0  0
  2  6  1  1  0  0  0
  2 11  1  0  0  0  0
  3 16  1  0  0  0  0
  4 13  1  0  0  0  0
  6 17  1  0  0  0  0
  7  9  1  0  0  0  0
 11 15  1  0  0  0  0
 11  3  1  1  0  0  0
 12  2  1  0  0  0  0
 12  1  1  0  0  0  0
 13  5  1  0  0  0  0
 13  9  2  0  0  0  0
 14  4  2  0  0  0  0
 14 15  1  0  0  0  0
 15  7  2  0  0  0  0
 16  8  1  1  0  0  0
 17 14  1  0  0  0  0
 18 16  1  0  0  0  0
 18 10  1  1  0  0  0
 19 18  1  0  0  0  0
 20 23  1  0  0  0  0
 21 12  1  0  0  0  0
 21 22  1  0  0  0  0
 23 22  2  0  0  0  0
 24 25  1  0  0  0  0
 24 20  2  0  0  0  0
 25 21  2  0  0  0  0
 26 27  1  0  0  0  0
M  END
>  <MODEL>
1

>  <REMARK>
 VINA RESULT:      -7.6      0.000      0.000
  Name = 
  2 active torsions:
  status: ('A' for Active; 'I' for Inactive)
    1  A    between atoms: C_1  and  C_18
    2  A    between atoms: C_9  and  N_15
                            x       y       z     vdW  Elec       q    Type
                         _______ _______ _______ _____ _____    ______ ____

>  <TORSDO>
F 2

$$$$
=
 OpenBabel11052418233D

 27 30  0  0  1  0  0  0  0  0999 V2000
  192.6030  176.0120  145.4970 C   0  0  2  0  0  3  0  0  0  0  0  0
  190.6110  176.3150  143.9650 C   0  0  1  0  0  3  0  0  0  0  0  0
  189.0910  175.2770  145.7510 C   0  0  0  0  0  2  0  0  0  0  0  0
  186.9920  178.0370  142.5120 C   0  0  0  0  0  3  0  0  0  0  0  0
  184.9610  179.2860  142.8710 O   0  0  0  0  0  1  0  0  0  0  0  0
  190.1000  175.8850  142.5860 C   0  0  0  0  0  2  0  0  0  0  0  0
  187.3430  177.8250  145.2790 C   0  0  0  0  0  3  0  0  0  0  0  0
  188.9040  174.3800  147.9410 O   0  0  0  0  0  1  0  0  0  0  0  0
  186.2340  178.5030  144.7640 C   0  0  0  0  0  3  0  0  0  0  0  0
  191.4350  174.9110  148.6370 F   0  0  0  0  0  0  0  0  0  0  0  0
  189.4800  176.5400  144.9920 C   0  0  2  0  0  3  0  0  0  0  0  0
  191.6950  175.4560  144.4850 N   0  0  0  0  0  0  0  0  0  0  0  0
  186.0600  178.6090  143.3820 C   0  0  0  0  0  0  0  0  0  0  0  0
  188.0960  177.3470  143.0220 C   0  0  0  0  0  0  0  0  0  0  0  0
  188.2790  177.2420  144.4160 C   0  0  0  0  0  0  0  0  0  0  0  0
  189.5810  175.3460  147.1960 C   0  0  1  0  0  3  0  0  0  0  0  0
  189.0590  176.7930  142.1230 N   0  0  0  0  0  2  0  0  0  0  0  0
  191.0930  175.1210  147.3130 C   0  0  1  0  0  3  0  0  0  0  0  0
  191.8670  176.3310  146.8000 C   0  0  0  0  0  2  0  0  0  0  0  0
  192.0360  171.2800  143.7080 C   0  0  0  0  0  3  0  0  0  0  0  0
  191.7940  174.0380  144.2090 C   0  0  0  0  0  0  0  0  0  0  0  0
  190.7390  173.1590  144.5090 C   0  0  0  0  0  3  0  0  0  0  0  0
  190.8570  171.7900  144.2570 C   0  0  0  0  0  3  0  0  0  0  0  0
  193.0960  172.1390  143.4110 C   0  0  0  0  0  3  0  0  0  0  0  0
  192.9760  173.5090  143.6630 C   0  0  0  0  0  3  0  0  0  0  0  0
  193.3210  177.2420  144.9630 C   0  0  0  0  0  2  0  0  0  0  0  0
  194.5010  177.4510  145.6770 O   0  0  0  0  0  1  0  0  0  0  0  0
  1 26  1  6  0  0  0
  1 19  1  0  0  0  0
  2  6  1  6  0  0  0
  2 12  1  0  0  0  0
  2 11  1  0  0  0  0
  3 16  1  0  0  0  0
  4 14  2  0  0  0  0
  4 13  1  0  0  0  0
  5 13  1  0  0  0  0
  9  7  1  0  0  0  0
 11  3  1  6  0  0  0
 12  1  1  0  0  0  0
 13  9  2  0  0  0  0
 14 15  1  0  0  0  0
 15 11  1  0  0  0  0
 15  7  2  0  0  0  0
 16 18  1  0  0  0  0
 16  8  1  1  0  0  0
 17  6  1  0  0  0  0
 17 14  1  0  0  0  0
 18 10  1  1  0  0  0
 19 18  1  0  0  0  0
 20 23  1  0  0  0  0
 21 12  1  0  0  0  0
 21 22  1  0  0  0  0
 23 22  2  0  0  0  0
 24 25  1  0  0  0  0
 24 20  2  0  0  0  0
 25 21  2  0  0  0  0
 26 27  1  0  0  0  0
M  END
>  <MODEL>
2

>  <REMARK>
 VINA RESULT:      -7.4      1.823      2.130
  Name = 
  2 active torsions:
  status: ('A' for Active; 'I' for Inactive)
    1  A    between atoms: C_1  and  C_18
    2  A    between atoms: C_9  and  N_15
                            x       y       z     vdW  Elec       q    Type
                         _______ _______ _______ _____ _____    ______ ____

>  <TORSDO>
F 2

$$$$
=
 OpenBabel11052418233D

 27 30  0  0  1  0  0  0  0  0999 V2000
  190.7790  173.2820  144.1680 C   0  0  2  0  0  3  0  0  0  0  0  0
  189.5020  174.7080  145.8240 C   0  0  1  0  0  3  0  0  0  0  0  0
  189.8330  176.7500  144.3080 C   0  0  0  0  0  2  0  0  0  0  0  0
  186.2260  176.9450  147.3830 C   0  0  0  0  0  3  0  0  0  0  0  0
  184.2070  178.2270  147.0630 O   0  0  0  0  0  1  0  0  0  0  0  0
  189.5640  175.1740  147.2820 C   0  0  0  0  0  2  0  0  0  0  0  0
  186.7440  177.0900  144.6380 C   0  0  0  0  0  3  0  0  0  0  0  0
  190.6770  177.6020  142.2590 O   0  0  0  0  0  1  0  0  0  0  0  0
  185.6030  177.6980  145.1680 C   0  0  0  0  0  3  0  0  0  0  0  0
  191.4110  175.2170  141.2880 F   0  0  0  0  0  0  0  0  0  0  0  0
  188.8460  175.7390  144.8810 C   0  0  2  0  0  3  0  0  0  0  0  0
  190.7930  174.2030  145.3120 N   0  0  0  0  0  0  0  0  0  0  0  0
  185.3440  177.6250  146.5380 C   0  0  0  0  0  0  0  0  0  0  0  0
  187.3750  176.3450  146.8600 C   0  0  0  0  0  0  0  0  0  0  0  0
  187.6370  176.4120  145.4760 C   0  0  0  0  0  0  0  0  0  0  0  0
  190.0850  176.4730  142.8270 C   0  0  1  0  0  3  0  0  0  0  0  0
  188.2530  175.6260  147.7290 N   0  0  0  0  0  2  0  0  0  0  0  0
  190.9860  175.2530  142.6040 C   0  0  1  0  0  3  0  0  0  0  0  0
  190.2380  173.9590  142.9070 C   0  0  0  0  0  2  0  0  0  0  0  0
  194.5950  175.7120  146.5080 C   0  0  0  0  0  3  0  0  0  0  0  0
  192.0780  174.7160  145.7380 C   0  0  0  0  0  0  0  0  0  0  0  0
  192.1890  175.9510  146.4010 C   0  0  0  0  0  3  0  0  0  0  0  0
  193.4390  176.4450  146.7860 C   0  0  0  0  0  3  0  0  0  0  0  0
  194.5020  174.4870  145.8450 C   0  0  0  0  0  3  0  0  0  0  0  0
  193.2510  173.9940  145.4600 C   0  0  0  0  0  3  0  0  0  0  0  0
  189.9860  172.0260  144.4940 C   0  0  0  0  0  2  0  0  0  0  0  0
  188.9920  171.8290  143.5360 O   0  0  0  0  0  1  0  0  0  0  0  0
  1 26  1  1  0  0  0
  1 12  1  0  0  0  0
  2  6  1  1  0  0  0
  6 17  1  0  0  0  0
  7  9  2  0  0  0  0
  7 15  1  0  0  0  0
  9 13  1  0  0  0  0
 11  3  1  1  0  0  0
 11 15  1  0  0  0  0
 11  2  1  0  0  0  0
 12 21  1  0  0  0  0
 12  2  1  0  0  0  0
 13  5  1  0  0  0  0
 13  4  2  0  0  0  0
 14  4  1  0  0  0  0
 14 17  1  0  0  0  0
 15 14  2  0  0  0  0
 16  8  1  1  0  0  0
 16  3  1  0  0  0  0
 18 10  1  6  0  0  0
 18 16  1  0  0  0  0
 18 19  1  0  0  0  0
 19  1  1  0  0  0  0
 20 23  1  0  0  0  0
 21 22  1  0  0  0  0
 22 23  2  0  0  0  0
 24 20  2  0  0  0  0
 25 21  2  0  0  0  0
 25 24  1  0  0  0  0
 27 26  1  0  0  0  0
M  END
>  <MODEL>
3

>  <REMARK>
 VINA RESULT:      -7.4      2.382      4.291
  Name = 
  2 active torsions:
  status: ('A' for Active; 'I' for Inactive)
    1  A    between atoms: C_1  and  C_18
    2  A    between atoms: C_9  and  N_15
                            x       y       z     vdW  Elec       q    Type
                         _______ _______ _______ _____ _____    ______ ____

>  <TORSDO>
F 2

$$$$
=
 OpenBabel11052418233D

 27 30  0  0  1  0  0  0  0  0999 V2000
  190.4980  174.6830  145.4850 C   0  0  2  0  0  3  0  0  0  0  0  0
  188.3270  175.9730  145.3110 C   0  0  1  0  0  3  0  0  0  0  0  0
  189.5550  177.8530  144.0710 C   0  0  0  0  0  2  0  0  0  0  0  0
  184.8590  177.6020  143.4450 C   0  0  0  0  0  3  0  0  0  0  0  0
  183.6850  178.3670  141.4820 O   0  0  0  0  0  1  0  0  0  0  0  0
  187.2490  176.6030  146.1980 C   0  0  0  0  0  2  0  0  0  0  0  0
  187.2450  177.5450  141.9880 C   0  0  0  0  0  3  0  0  0  0  0  0
  191.5920  178.6320  143.1340 O   0  0  0  0  0  1  0  0  0  0  0  0
  186.0570  177.9450  141.3700 C   0  0  0  0  0  3  0  0  0  0  0  0
  192.9510  176.3710  143.5940 F   0  0  0  0  0  0  0  0  0  0  0  0
  188.5360  176.7230  143.9780 C   0  0  2  0  0  3  0  0  0  0  0  0
  189.5950  175.7070  146.0240 N   0  0  0  0  0  0  0  0  0  0  0  0
  184.8650  177.9730  142.0980 C   0  0  0  0  0  0  0  0  0  0  0  0
  186.0460  177.2120  144.0710 C   0  0  0  0  0  0  0  0  0  0  0  0
  187.2500  177.1770  143.3390 C   0  0  0  0  0  0  0  0  0  0  0  0
  190.8460  177.4730  143.3500 C   0  0  1  0  0  3  0  0  0  0  0  0
  186.0210  176.8050  145.4410 N   0  0  0  0  0  2  0  0  0  0  0  0
  191.6840  176.4620  144.1410 C   0  0  1  0  0  3  0  0  0  0  0  0
  191.0430  175.0780  144.1100 C   0  0  0  0  0  2  0  0  0  0  0  0
  191.1170  178.1440  149.1720 C   0  0  0  0  0  3  0  0  0  0  0  0
  190.0940  176.5340  147.1020 C   0  0  0  0  0  0  0  0  0  0  0  0
  189.4690  177.7460  147.4450 C   0  0  0  0  0  3  0  0  0  0  0  0
  189.9750  178.5440  148.4740 C   0  0  0  0  0  3  0  0  0  0  0  0
  191.7530  176.9470  148.8390 C   0  0  0  0  0  3  0  0  0  0  0  0
  191.2460  176.1490  147.8090 C   0  0  0  0  0  3  0  0  0  0  0  0
  189.8080  173.3290  145.4280 C   0  0  0  0  0  2  0  0  0  0  0  0
  189.7560  172.8760  144.1090 O   0  0  0  0  0  1  0  0  0  0  0  0
  1 26  1  6  0  0  0
  1 12  1  0  0  0  0
  2 12  1  0  0  0  0
  2  6  1  1  0  0  0
  4 14  1  0  0  0  0
  5 13  1  0  0  0  0
  7 15  1  0  0  0  0
  9  7  2  0  0  0  0
  9 13  1  0  0  0  0
 11  3  1  1  0  0  0
 11  2  1  0  0  0  0
 12 21  1  0  0  0  0
 13  4  2  0  0  0  0
 14 17  1  0  0  0  0
 15 11  1  0  0  0  0
 15 14  2  0  0  0  0
 16  8  1  1  0  0  0
 16  3  1  0  0  0  0
 16 18  1  0  0  0  0
 17  6  1  0  0  0  0
 18 10  1  6  0  0  0
 19 18  1  0  0  0  0
 19  1  1  0  0  0  0
 21 22  2  0  0  0  0
 21 25  1  0  0  0  0
 22 23  1  0  0  0  0
 23 20  2  0  0  0  0
 24 20  1  0  0  0  0
 25 24  2  0  0  0  0
 27 26  1  0  0  0  0
M  END
>  <MODEL>
4

>  <REMARK>
 VINA RESULT:      -7.0      2.250      4.677
  Name = 
  2 active torsions:
  status: ('A' for Active; 'I' for Inactive)
    1  A    between atoms: C_1  and  C_18
    2  A    between atoms: C_9  and  N_15
                            x       y       z     vdW  Elec       q    Type
                         _______ _______ _______ _____ _____    ______ ____

>  <TORSDO>
F 2

$$$$
=
 OpenBabel11052418233D

 27 30  0  0  1  0  0  0  0  0999 V2000
  194.7300  176.2840  144.8280 C   0  0  2  0  0  3  0  0  0  0  0  0
  192.3270  176.8910  144.3160 C   0  0  1  0  0  3  0  0  0  0  0  0
  191.6840  174.4110  144.4380 C   0  0  0  0  0  2  0  0  0  0  0  0
  188.1870  177.5500  145.0870 C   0  0  0  0  0  3  0  0  0  0  0  0
  186.1960  177.1490  146.3880 O   0  0  0  0  0  1  0  0  0  0  0  0
  191.4790  177.5570  143.2280 C   0  0  0  0  0  2  0  0  0  0  0  0
  189.4540  175.4190  146.3820 C   0  0  0  0  0  3  0  0  0  0  0  0
  192.3860  172.1820  144.8590 O   0  0  0  0  0  1  0  0  0  0  0  0
  188.1360  175.7520  146.7070 C   0  0  0  0  0  3  0  0  0  0  0  0
  194.8680  172.8480  145.6120 F   0  0  0  0  0  0  0  0  0  0  0  0
  191.5730  175.7860  145.0870 C   0  0  2  0  0  3  0  0  0  0  0  0
  193.6560  176.4530  143.8410 N   0  0  0  0  0  0  0  0  0  0  0  0
  187.5040  176.8170  146.0610 C   0  0  0  0  0  0  0  0  0  0  0  0
  189.5010  177.2140  144.7490 C   0  0  0  0  0  0  0  0  0  0  0  0
  190.1450  176.1440  145.4020 C   0  0  0  0  0  0  0  0  0  0  0  0
  192.5980  173.5030  145.2570 C   0  0  1  0  0  3  0  0  0  0  0  0
  190.2000  177.9910  143.7740 N   0  0  0  0  0  2  0  0  0  0  0  0
  194.0800  173.8580  145.0900 C   0  0  1  0  0  3  0  0  0  0  0  0
  194.4160  175.1570  145.8150 C   0  0  0  0  0  2  0  0  0  0  0  0
  194.4570  175.0600  139.8940 C   0  0  0  0  0  3  0  0  0  0  0  0
  193.9100  175.9880  142.4940 C   0  0  0  0  0  0  0  0  0  0  0  0
  193.0270  175.1070  141.8450 C   0  0  0  0  0  3  0  0  0  0  0  0
  193.2960  174.6490  140.5530 C   0  0  0  0  0  3  0  0  0  0  0  0
  195.3480  175.9280  140.5280 C   0  0  0  0  0  3  0  0  0  0  0  0
  195.0770  176.3870  141.8210 C   0  0  0  0  0  3  0  0  0  0  0  0
  195.0030  177.5890  145.5610 C   0  0  0  0  0  2  0  0  0  0  0  0
  194.5370  177.5040  146.8730 O   0  0  0  0  0  1  0  0  0  0  0  0
  1 26  1  1  0  0  0
  1 19  1  0  0  0  0
  2  6  1  6  0  0  0
  2 11  1  0  0  0  0
  3 16  1  0  0  0  0
  4 13  1  0  0  0  0
  6 17  1  0  0  0  0
  7  9  1  0  0  0  0
 11  3  1  6  0  0  0
 11 15  1  0  0  0  0
 12  2  1  0  0  0  0
 12  1  1  0  0  0  0
 13  5  1  0  0  0  0
 13  9  2  0  0  0  0
 14  4  2  0  0  0  0
 14 15  1  0  0  0  0
 15  7  2  0  0  0  0
 16  8  1  6  0  0  0
 17 14  1  0  0  0  0
 18 16  1  0  0  0  0
 18 10  1  1  0  0  0
 18 19  1  0  0  0  0
 20 24  2  0  0  0  0
 20 23  1  0  0  0  0
 21 12  1  0  0  0  0
 22 21  1  0  0  0  0
 23 22  2  0  0  0  0
 24 25  1  0  0  0  0
 25 21  2  0  0  0  0
 26 27  1  0  0  0  0
M  END
>  <MODEL>
5

>  <REMARK>
 VINA RESULT:      -7.0      2.966      4.120
  Name = 
  2 active torsions:
  status: ('A' for Active; 'I' for Inactive)
    1  A    between atoms: C_1  and  C_18
    2  A    between atoms: C_9  and  N_15
                            x       y       z     vdW  Elec       q    Type
                         _______ _______ _______ _____ _____    ______ ____

>  <TORSDO>
F 2

$$$$
=
 OpenBabel11052418233D

 27 30  0  0  1  0  0  0  0  0999 V2000
  189.1770  173.4070  144.3930 C   0  0  2  0  0  3  0  0  0  0  0  0
  191.1060  174.7150  143.4070 C   0  0  1  0  0  3  0  0  0  0  0  0
  191.3660  175.9820  145.6220 C   0  0  0  0  0  2  0  0  0  0  0  0
  195.1600  175.8690  142.7760 C   0  0  0  0  0  3  0  0  0  0  0  0
  197.4500  176.0160  143.5210 O   0  0  0  0  0  1  0  0  0  0  0  0
  191.4200  175.6790  142.2590 C   0  0  0  0  0  2  0  0  0  0  0  0
  194.3710  175.1600  145.3640 C   0  0  0  0  0  3  0  0  0  0  0  0
  190.6380  176.2570  147.8650 O   0  0  0  0  0  1  0  0  0  0  0  0
  195.7170  175.4150  145.0880 C   0  0  0  0  0  3  0  0  0  0  0  0
  188.9370  174.1890  147.8230 F   0  0  0  0  0  0  0  0  0  0  0  0
  191.9680  174.9600  144.6640 C   0  0  2  0  0  3  0  0  0  0  0  0
  189.6640  174.6130  143.7130 N   0  0  0  0  0  0  0  0  0  0  0  0
  196.1110  175.7680  143.7950 C   0  0  0  0  0  0  0  0  0  0  0  0
  193.8110  175.6270  143.0500 C   0  0  0  0  0  0  0  0  0  0  0  0
  193.4090  175.2660  144.3510 C   0  0  0  0  0  0  0  0  0  0  0  0
  190.8320  175.2920  146.8750 C   0  0  1  0  0  3  0  0  0  0  0  0
  192.8520  175.7040  141.9920 N   0  0  0  0  0  2  0  0  0  0  0  0
  189.5170  174.5470  146.6190 C   0  0  1  0  0  3  0  0  0  0  0  0
  189.7570  173.2810  145.8030 C   0  0  0  0  0  2  0  0  0  0  0  0
  186.8860  177.8180  143.2900 C   0  0  0  0  0  3  0  0  0  0  0  0
  188.7360  175.7150  143.5650 C   0  0  0  0  0  0  0  0  0  0  0  0
  188.8270  176.8620  144.3740 C   0  0  0  0  0  3  0  0  0  0  0  0
  187.9100  177.9070  144.2350 C   0  0  0  0  0  3  0  0  0  0  0  0
  186.7780  176.6830  142.4840 C   0  0  0  0  0  3  0  0  0  0  0  0
  187.6960  175.6370  142.6240 C   0  0  0  0  0  3  0  0  0  0  0  0
  189.4750  172.1630  143.5690 C   0  0  0  0  0  2  0  0  0  0  0  0
  188.7990  172.2270  142.3500 O   0  0  0  0  0  1  0  0  0  0  0  0
  1 26  1  6  0  0  0
  1 19  1  0  0  0  0
  2  6  1  6  0  0  0
  2 12  1  0  0  0  0
  2 11  1  0  0  0  0
  3 16  1  0  0  0  0
  4 14  2  0  0  0  0
  4 13  1  0  0  0  0
  5 13  1  0  0  0  0
  9  7  1  0  0  0  0
 11  3  1  6  0  0  0
 12  1  1  0  0  0  0
 13  9  2  0  0  0  0
 14 15  1  0  0  0  0
 15 11  1  0  0  0  0
 15  7  2  0  0  0  0
 16  8  1  1  0  0  0
 17  6  1  0  0  0  0
 17 14  1  0  0  0  0
 18 16  1  0  0  0  0
 18 10  1  1  0  0  0
 19 18  1  0  0  0  0
 20 23  1  0  0  0  0
 21 12  1  0  0  0  0
 21 22  1  0  0  0  0
 23 22  2  0  0  0  0
 24 25  1  0  0  0  0
 24 20  2  0  0  0  0
 25 21  2  0  0  0  0
 27 26  1  0  0  0  0
M  END
>  <MODEL>
6

>  <REMARK>
 VINA RESULT:      -6.8      2.786      6.485
  Name = 
  2 active torsions:
  status: ('A' for Active; 'I' for Inactive)
    1  A    between atoms: C_1  and  C_18
    2  A    between atoms: C_9  and  N_15
                            x       y       z     vdW  Elec       q    Type
                         _______ _______ _______ _____ _____    ______ ____

>  <TORSDO>
F 2

$$$$
=
 OpenBabel11052418233D

 27 30  0  0  1  0  0  0  0  0999 V2000
  189.8720  177.8710  144.1250 C   0  0  2  0  0  3  0  0  0  0  0  0
  189.7520  175.3540  144.3600 C   0  0  1  0  0  3  0  0  0  0  0  0
  187.9670  175.2770  142.5200 C   0  0  0  0  0  2  0  0  0  0  0  0
  190.3840  171.2710  143.3090 C   0  0  0  0  0  3  0  0  0  0  0  0
  190.7950  169.5590  141.6610 O   0  0  0  0  0  1  0  0  0  0  0  0
  189.4250  174.2750  145.3960 C   0  0  0  0  0  2  0  0  0  0  0  0
  189.8200  173.0950  141.2650 C   0  0  0  0  0  3  0  0  0  0  0  0
  186.6890  176.4820  140.9230 O   0  0  0  0  0  1  0  0  0  0  0  0
  190.1650  171.7770  140.9520 C   0  0  0  0  0  3  0  0  0  0  0  0
  187.9090  178.8260  141.3560 F   0  0  0  0  0  0  0  0  0  0  0  0
  189.4000  174.9400  142.9150 C   0  0  2  0  0  3  0  0  0  0  0  0
  189.2300  176.6900  144.7160 N   0  0  0  0  0  0  0  0  0  0  0  0
  190.4480  170.8670  141.9730 C   0  0  0  0  0  0  0  0  0  0  0  0
  190.0270  172.5850  143.6280 C   0  0  0  0  0  0  0  0  0  0  0  0
  189.7470  173.5080  142.6010 C   0  0  0  0  0  0  0  0  0  0  0  0
  187.9420  176.4450  141.5360 C   0  0  1  0  0  3  0  0  0  0  0  0
  189.9960  172.9950  144.9970 N   0  0  0  0  0  2  0  0  0  0  0  0
  188.2210  177.7900  142.2170 C   0  0  1  0  0  3  0  0  0  0  0  0
  189.6910  177.9110  142.6060 C   0  0  0  0  0  2  0  0  0  0  0  0
  185.5940  177.2430  146.8700 C   0  0  0  0  0  3  0  0  0  0  0  0
  188.0000  176.8980  145.4510 C   0  0  0  0  0  0  0  0  0  0  0  0
  188.0110  177.3470  146.7830 C   0  0  0  0  0  3  0  0  0  0  0  0
  186.8160  177.5220  147.4870 C   0  0  0  0  0  3  0  0  0  0  0  0
  185.5680  176.7890  145.5500 C   0  0  0  0  0  3  0  0  0  0  0  0
  186.7640  176.6150  144.8460 C   0  0  0  0  0  3  0  0  0  0  0  0
  191.3450  177.9310  144.4990 C   0  0  0  0  0  2  0  0  0  0  0  0
  192.1280  177.5430  143.4120 O   0  0  0  0  0  1  0  0  0  0  0  0
  1 26  1  6  0  0  0
  1 12  1  0  0  0  0
  2 12  1  0  0  0  0
  2  6  1  1  0  0  0
  4 14  1  0  0  0  0
  5 13  1  0  0  0  0
  7 15  1  0  0  0  0
  9  7  2  0  0  0  0
  9 13  1  0  0  0  0
 11  3  1  1  0  0  0
 11  2  1  0  0  0  0
 12 21  1  0  0  0  0
 13  4  2  0  0  0  0
 14 17  1  0  0  0  0
 15 11  1  0  0  0  0
 15 14  2  0  0  0  0
 16  8  1  1  0  0  0
 16 18  1  0  0  0  0
 16  3  1  0  0  0  0
 17  6  1  0  0  0  0
 18 10  1  6  0  0  0
 18 19  1  0  0  0  0
 19  1  1  0  0  0  0
 20 23  1  0  0  0  0
 21 22  1  0  0  0  0
 22 23  2  0  0  0  0
 24 20  2  0  0  0  0
 25 21  2  0  0  0  0
 25 24  1  0  0  0  0
 27 26  1  0  0  0  0
M  END
>  <MODEL>
7

>  <REMARK>
 VINA RESULT:      -6.8      2.825      6.396
  Name = 
  2 active torsions:
  status: ('A' for Active; 'I' for Inactive)
    1  A    between atoms: C_1  and  C_18
    2  A    between atoms: C_9  and  N_15
                            x       y       z     vdW  Elec       q    Type
                         _______ _______ _______ _____ _____    ______ ____

>  <TORSDO>
F 2

$$$$
=
 OpenBabel11052418233D

 27 30  0  0  1  0  0  0  0  0999 V2000
  189.3550  173.4110  142.7290 C   0  0  2  0  0  3  0  0  0  0  0  0
  188.9390  175.0940  144.5730 C   0  0  1  0  0  3  0  0  0  0  0  0
  188.1770  176.8080  142.8230 C   0  0  0  0  0  2  0  0  0  0  0  0
  186.6730  177.4930  147.2700 C   0  0  0  0  0  3  0  0  0  0  0  0
  184.6320  178.6250  147.8780 O   0  0  0  0  0  1  0  0  0  0  0  0
  189.6810  175.8390  145.6870 C   0  0  0  0  0  2  0  0  0  0  0  0
  185.6830  177.1120  144.6830 C   0  0  0  0  0  3  0  0  0  0  0  0
  187.7290  177.2670  140.5370 O   0  0  0  0  0  1  0  0  0  0  0  0
  184.9090  177.7780  145.6370 C   0  0  0  0  0  3  0  0  0  0  0  0
  188.1600  174.7610  139.6980 F   0  0  0  0  0  0  0  0  0  0  0  0
  187.7650  175.9000  143.9770 C   0  0  2  0  0  3  0  0  0  0  0  0
  189.8360  174.5380  143.5380 N   0  0  0  0  0  0  0  0  0  0  0  0
  185.4030  177.9670  146.9300 C   0  0  0  0  0  0  0  0  0  0  0  0
  187.4570  176.8380  146.3160 C   0  0  0  0  0  0  0  0  0  0  0  0
  186.9590  176.6390  145.0120 C   0  0  0  0  0  0  0  0  0  0  0  0
  187.6650  176.2540  141.4960 C   0  0  1  0  0  3  0  0  0  0  0  0
  188.7410  176.3300  146.6850 N   0  0  0  0  0  2  0  0  0  0  0  0
  188.4720  175.0420  141.0160 C   0  0  1  0  0  3  0  0  0  0  0  0
  188.1600  173.8100  141.8600 C   0  0  0  0  0  2  0  0  0  0  0  0
  193.4900  176.3510  142.3020 C   0  0  0  0  0  3  0  0  0  0  0  0
  191.0780  175.1630  143.1360 C   0  0  0  0  0  0  0  0  0  0  0  0
  191.2140  176.5630  143.0960 C   0  0  0  0  0  3  0  0  0  0  0  0
  192.4120  177.1520  142.6850 C   0  0  0  0  0  3  0  0  0  0  0  0
  193.3680  174.9600  142.3290 C   0  0  0  0  0  3  0  0  0  0  0  0
  192.1690  174.3710  142.7410 C   0  0  0  0  0  3  0  0  0  0  0  0
  189.0120  172.2190  143.6100 C   0  0  0  0  0  2  0  0  0  0  0  0
  190.1190  171.8640  144.3820 O   0  0  0  0  0  1  0  0  0  0  0  0
  1 12  1  0  0  0  0
  1 26  1  1  0  0  0
  2  6  1  1  0  0  0
  6 17  1  0  0  0  0
  7 15  2  0  0  0  0
  7  9  1  0  0  0  0
  9 13  2  0  0  0  0
 11  3  1  6  0  0  0
 11  2  1  0  0  0  0
 11 15  1  0  0  0  0
 12  2  1  0  0  0  0
 13  4  1  0  0  0  0
 13  5  1  0  0  0  0
 14 17  1  0  0  0  0
 14  4  2  0  0  0  0
 15 14  1  0  0  0  0
 16  8  1  6  0  0  0
 16  3  1  0  0  0  0
 18 10  1  6  0  0  0
 18 16  1  0  0  0  0
 18 19  1  0  0  0  0
 19  1  1  0  0  0  0
 20 24  2  0  0  0  0
 20 23  1  0  0  0  0
 21 12  1  0  0  0  0
 22 21  1  0  0  0  0
 23 22  2  0  0  0  0
 24 25  1  0  0  0  0
 25 21  2  0  0  0  0
 26 27  1  0  0  0  0
M  END
>  <MODEL>
8

>  <REMARK>
 VINA RESULT:      -6.8      2.589      4.394
  Name = 
  2 active torsions:
  status: ('A' for Active; 'I' for Inactive)
    1  A    between atoms: C_1  and  C_18
    2  A    between atoms: C_9  and  N_15
                            x       y       z     vdW  Elec       q    Type
                         _______ _______ _______ _____ _____    ______ ____

>  <TORSDO>
F 2

$$$$
=
 OpenBabel11052418233D

 27 30  0  0  1  0  0  0  0  0999 V2000
  187.8750  176.6030  142.2230 C   0  0  2  0  0  3  0  0  0  0  0  0
  190.1190  176.8000  143.3760 C   0  0  1  0  0  3  0  0  0  0  0  0
  190.1020  174.2740  143.8200 C   0  0  0  0  0  2  0  0  0  0  0  0
  194.3350  176.4150  143.8700 C   0  0  0  0  0  3  0  0  0  0  0  0
  196.4300  175.3440  143.3370 O   0  0  0  0  0  1  0  0  0  0  0  0
  190.7800  177.4960  144.5700 C   0  0  0  0  0  2  0  0  0  0  0  0
  192.9600  174.3620  142.5590 C   0  0  0  0  0  3  0  0  0  0  0  0
  188.9870  172.1990  143.5220 O   0  0  0  0  0  1  0  0  0  0  0  0
  194.3560  174.3400  142.6240 C   0  0  0  0  0  3  0  0  0  0  0  0
  187.0670  173.1820  141.9340 F   0  0  0  0  0  0  0  0  0  0  0  0
  190.7400  175.4240  143.0500 C   0  0  2  0  0  3  0  0  0  0  0  0
  188.6440  176.7570  143.4640 N   0  0  0  0  0  0  0  0  0  0  0  0
  195.0430  175.3650  143.2770 C   0  0  0  0  0  0  0  0  0  0  0  0
  192.9380  176.4360  143.8190 C   0  0  0  0  0  0  0  0  0  0  0  0
  192.2420  175.4050  143.1550 C   0  0  0  0  0  0  0  0  0  0  0  0
  189.2430  173.4180  142.8920 C   0  0  1  0  0  3  0  0  0  0  0  0
  192.2270  177.5300  144.4010 N   0  0  0  0  0  2  0  0  0  0  0  0
  187.9170  174.0970  142.5290 C   0  0  1  0  0  3  0  0  0  0  0  0
  188.1420  175.2510  141.5570 C   0  0  0  0  0  2  0  0  0  0  0  0
  186.4710  176.4160  147.1150 C   0  0  0  0  0  3  0  0  0  0  0  0
  187.9200  176.6530  144.7130 C   0  0  0  0  0  0  0  0  0  0  0  0
  188.5340  176.1560  145.8760 C   0  0  0  0  0  3  0  0  0  0  0  0
  187.8160  176.0410  147.0690 C   0  0  0  0  0  3  0  0  0  0  0  0
  185.8460  176.9050  145.9670 C   0  0  0  0  0  3  0  0  0  0  0  0
  186.5650  177.0200  144.7730 C   0  0  0  0  0  3  0  0  0  0  0  0
  188.1610  177.7480  141.2630 C   0  0  0  0  0  2  0  0  0  0  0  0
  187.0870  177.9160  140.3890 O   0  0  0  0  0  1  0  0  0  0  0  0
  1 26  1  6  0  0  0
  1 12  1  0  0  0  0
  2 12  1  0  0  0  0
  2  6  1  1  0  0  0
  7  9  2  0  0  0  0
  7 15  1  0  0  0  0
  9 13  1  0  0  0  0
 11 15  1  0  0  0  0
 11  2  1  0  0  0  0
 11  3  1  1  0  0  0
 12 21  1  0  0  0  0
 13  5  1  0  0  0  0
 13  4  2  0  0  0  0
 14  4  1  0  0  0  0
 14 17  1  0  0  0  0
 15 14  2  0  0  0  0
 16  8  1  1  0  0  0
 16  3  1  0  0  0  0
 17  6  1  0  0  0  0
 18 10  1  6  0  0  0
 18 16  1  0  0  0  0
 19  1  1  0  0  0  0
 19 18  1  0  0  0  0
 21 25  2  0  0  0  0
 21 22  1  0  0  0  0
 22 23  2  0  0  0  0
 23 20  1  0  0  0  0
 24 20  2  0  0  0  0
 25 24  1  0  0  0  0
 27 26  1  0  0  0  0
M  END
>  <MODEL>
9

>  <REMARK>
 VINA RESULT:      -6.8      2.974      6.576
  Name = 
  2 active torsions:
  status: ('A' for Active; 'I' for Inactive)
    1  A    between atoms: C_1  and  C_18
    2  A    between atoms: C_9  and  N_15
                            x       y       z     vdW  Elec       q    Type
                         _______ _______ _______ _____ _____    ______ ____

>  <TORSDO>
F 2

$$$$
