=
 OpenBabel11052420393D

 34 40  0  0  1  0  0  0  0  0999 V2000
  188.7010  177.7090  143.4510 C   0  0  1  0  0  3  0  0  0  0  0  0
  188.4890  177.0230  145.9870 C   0  0  1  0  0  3  0  0  0  0  0  0
  188.4190  174.7480  140.2800 C   0  0  2  0  0  3  0  0  0  0  0  0
  186.6930  178.3800  144.9080 C   0  0  0  0  0  0  0  0  0  0  0  0
  187.5140  174.2820  142.6460 C   0  0  0  0  0  2  0  0  0  0  0  0
  191.5910  174.6040  141.9890 N   0  0  0  0  0  0  0  0  0  0  0  0
  187.5700  176.6860  141.7360 C   0  0  1  0  0  0  0  0  0  0  0  0
  188.8550  176.9570  142.2640 O   0  0  0  0  0  0  0  0  0  0  0  0
  186.5330  177.0820  142.7890 C   0  0  2  0  0  3  0  0  0  0  0  0
  191.0360  173.3360  141.6400 C   0  0  0  0  0  0  0  0  0  0  0  0
  184.4600  178.6660  142.8250 C   0  0  0  0  0  2  0  0  0  0  0  0
  191.5180  175.9700  142.5910 C   0  0  2  0  0  3  0  0  0  0  0  0
  191.7850  172.4450  141.1580 O   0  0  0  0  0  0  0  0  0  0  0  0
  188.8600  173.2960  140.4330 C   0  0  0  0  0  2  0  0  0  0  0  0
  185.1400  177.4360  142.2210 C   0  0  0  0  0  2  0  0  0  0  0  0
  187.4060  177.5300  140.4670 C   0  0  0  0  0  1  0  0  0  0  0  0
  185.4380  179.1800  145.0640 C   0  0  0  0  0  2  0  0  0  0  0  0
  187.2490  178.1600  143.5330 C   0  0  2  0  0  3  0  0  0  0  0  0
  192.7360  175.5520  142.0960 C   0  0  0  0  0  2  0  0  0  0  0  0
  184.2730  178.5320  144.3300 C   0  0  0  0  0  2  0  0  0  0  0  0
  189.6430  177.5910  147.2630 S   0  0  0  0  0  0  0  0  0  0  0  0
  190.9970  176.7710  146.3850 C   0  0  2  0  0  3  0  0  0  0  0  0
  188.9490  173.8530  142.9420 C   0  0  0  0  0  2  0  0  0  0  0  0
  190.7530  176.9250  144.8720 C   0  0  2  0  0  0  0  0  0  0  0  0
  189.5690  173.0680  141.7730 C   0  0  2  0  0  3  0  0  0  0  0  0
  191.4970  175.8170  144.1030 C   0  0  0  0  0  2  0  0  0  0  0  0
  187.4410  175.1840  141.3950 C   0  0  1  0  0  3  0  0  0  0  0  0
  187.8160  174.9160  139.0320 O   0  0  0  0  0  1  0  0  0  0  0  0
  187.2590  177.8730  146.0000 C   0  0  0  0  0  3  0  0  0  0  0  0
  191.3290  178.2860  144.4820 C   0  0  0  0  0  1  0  0  0  0  0  0
  189.2190  176.8640  144.6430 C   0  0  2  0  0  3  0  0  0  0  0  0
  191.1330  175.3550  146.8820 C   0  0  0  0  0  0  0  0  0  0  0  0
  192.2550  174.8960  147.2280 O   0  0  0  0  0  1  0  0  0  0  0  0
  190.0100  174.5410  146.9400 O   0  0  0  0  0  0  0  0  0  0  0  0
  1  8  1  6  0  0  0
  1 18  1  0  0  0  0
  1 31  1  0  0  0  0
  2 29  1  6  0  0  0
  2 21  1  0  0  0  0
  3 28  1  6  0  0  0
  3 14  1  0  0  0  0
  3 27  1  0  0  0  0
  4 17  1  0  0  0  0
  4 29  2  0  0  0  0
  5 23  1  0  0  0  0
  6 19  1  0  0  0  0
  6 12  1  0  0  0  0
  7 16  1  6  0  0  0
  7  8  1  0  0  0  0
  7  9  1  0  0  0  0
  9 15  1  6  0  0  0
  9 18  1  0  0  0  0
 10 25  1  0  0  0  0
 10  6  1  0  0  0  0
 11 20  1  0  0  0  0
 12 19  1  1  0  0  0
 12 26  1  0  0  0  0
 13 10  2  0  0  0  0
 15 11  1  0  0  0  0
 18  4  1  1  0  0  0
 20 17  1  0  0  0  0
 22 32  1  6  0  0  0
 22 21  1  0  0  0  0
 24 30  1  6  0  0  0
 24 22  1  0  0  0  0
 25 14  1  6  0  0  0
 25 23  1  0  0  0  0
 26 24  1  0  0  0  0
 27  7  1  0  0  0  0
 27  5  1  1  0  0  0
 31 24  1  0  0  0  0
 31  2  1  0  0  0  0
 32 34  2  0  0  0  0
 32 33  1  0  0  0  0
M  END
>  <MODEL>
1

>  <REMARK>
 VINA RESULT:      -8.7      0.000      0.000
  Name = 
  1 active torsions:
  status: ('A' for Active; 'I' for Inactive)
    1  A    between atoms: C_3  and  C_25
                            x       y       z     vdW  Elec       q    Type
                         _______ _______ _______ _____ _____    ______ ____

>  <TORSDO>
F 1

$$$$
=
 OpenBabel11052420393D

 34 40  0  0  1  0  0  0  0  0999 V2000
  189.7860  174.1970  144.0990 C   0  0  1  0  0  3  0  0  0  0  0  0
  190.0670  174.5540  141.5030 C   0  0  1  0  0  3  0  0  0  0  0  0
  192.3290  176.2710  146.9520 C   0  0  2  0  0  3  0  0  0  0  0  0
  188.0300  175.4090  142.6660 C   0  0  0  0  0  0  0  0  0  0  0  0
  192.0600  177.1030  144.5280 C   0  0  0  0  0  2  0  0  0  0  0  0
  194.0570  173.5600  145.3180 N   0  0  0  0  0  0  0  0  0  0  0  0
  190.1450  175.8260  145.6750 C   0  0  1  0  0  0  0  0  0  0  0  0
  190.5820  174.5630  145.2090 O   0  0  0  0  0  0  0  0  0  0  0  0
  189.1760  176.4030  144.6410 C   0  0  2  0  0  3  0  0  0  0  0  0
  194.8390  174.7360  145.5250 C   0  0  0  0  0  0  0  0  0  0  0  0
  186.7210  177.2830  144.7100 C   0  0  0  0  0  2  0  0  0  0  0  0
  192.8330  172.8380  144.8530 C   0  0  2  0  0  3  0  0  0  0  0  0
  196.0250  174.6250  145.9350 O   0  0  0  0  0  0  0  0  0  0  0  0
  193.7720  176.6730  146.6660 C   0  0  0  0  0  2  0  0  0  0  0  0
  188.1610  177.4230  145.2050 C   0  0  0  0  0  2  0  0  0  0  0  0
  189.4390  175.6050  147.0170 C   0  0  0  0  0  1  0  0  0  0  0  0
  186.6670  176.0160  142.5580 C   0  0  0  0  0  2  0  0  0  0  0  0
  188.6130  175.1640  144.0260 C   0  0  2  0  0  3  0  0  0  0  0  0
  193.8800  172.0800  145.3350 C   0  0  0  0  0  2  0  0  0  0  0  0
  186.6260  177.3990  143.1950 C   0  0  0  0  0  2  0  0  0  0  0  0
  190.1320  173.1830  140.3200 S   0  0  0  0  0  0  0  0  0  0  0  0
  191.6160  172.5570  141.1460 C   0  0  2  0  0  3  0  0  0  0  0  0
  193.1800  176.1090  144.2280 C   0  0  0  0  0  2  0  0  0  0  0  0
  191.4590  172.7920  142.6600 C   0  0  2  0  0  0  0  0  0  0  0  0
  194.2550  176.1010  145.3280 C   0  0  2  0  0  3  0  0  0  0  0  0
  192.8440  172.8240  143.3340 C   0  0  0  0  0  2  0  0  0  0  0  0
  191.3550  176.7710  145.8610 C   0  0  1  0  0  3  0  0  0  0  0  0
  191.9480  176.7800  148.1940 O   0  0  0  0  0  1  0  0  0  0  0  0
  188.6860  175.1250  141.5440 C   0  0  0  0  0  3  0  0  0  0  0  0
  190.6630  171.6040  143.1980 C   0  0  0  0  0  1  0  0  0  0  0  0
  190.6920  174.1280  142.8420 C   0  0  2  0  0  3  0  0  0  0  0  0
  192.8390  173.1690  140.5150 C   0  0  0  0  0  0  0  0  0  0  0  0
  192.8880  174.4040  140.2640 O   0  0  0  0  0  1  0  0  0  0  0  0
  193.9170  172.3570  140.1880 O   0  0  0  0  0  0  0  0  0  0  0  0
  1  8  1  1  0  0  0
  2 29  1  1  0  0  0
  2 31  1  0  0  0  0
  3 28  1  1  0  0  0
  6 19  1  0  0  0  0
  6 10  1  0  0  0  0
  7 27  1  0  0  0  0
  7 16  1  1  0  0  0
  8  7  1  0  0  0  0
  9 15  1  1  0  0  0
  9  7  1  0  0  0  0
 10 13  2  0  0  0  0
 11 15  1  0  0  0  0
 12 26  1  6  0  0  0
 12  6  1  0  0  0  0
 12 19  1  0  0  0  0
 14  3  1  0  0  0  0
 17  4  1  0  0  0  0
 17 20  1  0  0  0  0
 18  4  1  6  0  0  0
 18  1  1  0  0  0  0
 18  9  1  0  0  0  0
 20 11  1  0  0  0  0
 21 22  1  0  0  0  0
 21  2  1  0  0  0  0
 22 32  1  6  0  0  0
 22 24  1  0  0  0  0
 23  5  1  0  0  0  0
 24 31  1  0  0  0  0
 24 30  1  1  0  0  0
 24 26  1  0  0  0  0
 25 23  1  6  0  0  0
 25 10  1  0  0  0  0
 25 14  1  0  0  0  0
 27  5  1  6  0  0  0
 27  3  1  0  0  0  0
 29  4  2  0  0  0  0
 31  1  1  0  0  0  0
 33 32  1  0  0  0  0
 34 32  2  0  0  0  0
M  END
>  <MODEL>
2

>  <REMARK>
 VINA RESULT:      -8.6      2.617      5.791
  Name = 
  1 active torsions:
  status: ('A' for Active; 'I' for Inactive)
    1  A    between atoms: C_3  and  C_25
                            x       y       z     vdW  Elec       q    Type
                         _______ _______ _______ _____ _____    ______ ____

>  <TORSDO>
F 1

$$$$
=
 OpenBabel11052420393D

 34 40  0  0  1  0  0  0  0  0999 V2000
  190.1370  176.4270  143.7390 C   0  0  1  0  0  3  0  0  0  0  0  0
  190.6690  175.0210  145.9040 C   0  0  1  0  0  3  0  0  0  0  0  0
  188.7370  174.5180  140.0930 C   0  0  2  0  0  3  0  0  0  0  0  0
  188.7080  176.5670  145.8710 C   0  0  0  0  0  0  0  0  0  0  0  0
  188.5710  173.3450  142.3810 C   0  0  0  0  0  2  0  0  0  0  0  0
  192.2660  173.9980  140.6250 N   0  0  0  0  0  0  0  0  0  0  0  0
  188.4830  175.9100  142.2350 C   0  0  1  0  0  0  0  0  0  0  0  0
  189.8810  176.0630  142.3980 O   0  0  0  0  0  0  0  0  0  0  0  0
  187.8390  175.9420  143.6230 C   0  0  2  0  0  3  0  0  0  0  0  0
  191.5610  172.8680  140.1120 C   0  0  0  0  0  0  0  0  0  0  0  0
  185.9680  177.3660  144.7520 C   0  0  0  0  0  2  0  0  0  0  0  0
  192.4570  175.1240  141.5900 C   0  0  2  0  0  3  0  0  0  0  0  0
  192.0770  172.1870  139.1870 O   0  0  0  0  0  0  0  0  0  0  0  0
  189.1220  173.1020  139.6750 C   0  0  0  0  0  2  0  0  0  0  0  0
  186.3610  176.3940  143.6400 C   0  0  0  0  0  2  0  0  0  0  0  0
  187.9870  177.0820  141.3800 C   0  0  0  0  0  1  0  0  0  0  0  0
  187.6080  177.2380  146.6300 C   0  0  0  0  0  2  0  0  0  0  0  0
  188.8070  176.7800  144.3900 C   0  0  2  0  0  3  0  0  0  0  0  0
  193.4400  174.9160  140.6460 C   0  0  0  0  0  2  0  0  0  0  0  0
  186.2400  176.7910  146.1350 C   0  0  0  0  0  2  0  0  0  0  0  0
  192.1870  175.2340  146.8700 S   0  0  0  0  0  0  0  0  0  0  0  0
  193.1610  174.7580  145.4200 C   0  0  2  0  0  3  0  0  0  0  0  0
  190.0020  172.9020  142.0830 C   0  0  0  0  0  2  0  0  0  0  0  0
  192.4770  175.3390  144.1690 C   0  0  2  0  0  0  0  0  0  0  0  0
  190.1910  172.5180  140.6060 C   0  0  2  0  0  3  0  0  0  0  0  0
  192.8880  174.5340  142.9220 C   0  0  0  0  0  2  0  0  0  0  0  0
  188.1720  174.5700  141.5300 C   0  0  1  0  0  3  0  0  0  0  0  0
  187.7940  175.0200  139.1960 O   0  0  0  0  0  1  0  0  0  0  0  0
  189.5510  175.7840  146.5400 C   0  0  0  0  0  3  0  0  0  0  0  0
  192.9830  176.7760  144.0330 C   0  0  0  0  0  1  0  0  0  0  0  0
  190.9460  175.2900  144.4150 C   0  0  2  0  0  3  0  0  0  0  0  0
  193.3620  173.2650  145.4180 C   0  0  0  0  0  0  0  0  0  0  0  0
  194.4650  172.7600  145.7630 O   0  0  0  0  0  1  0  0  0  0  0  0
  192.3240  172.4370  145.0130 O   0  0  0  0  0  0  0  0  0  0  0  0
  1  8  1  6  0  0  0
  1 18  1  0  0  0  0
  1 31  1  0  0  0  0
  2 29  1  1  0  0  0
  2 21  1  0  0  0  0
  3 28  1  6  0  0  0
  3 27  1  0  0  0  0
  4 29  2  0  0  0  0
  4 17  1  0  0  0  0
  6 19  1  0  0  0  0
  6 12  1  0  0  0  0
  7 16  1  6  0  0  0
  7  8  1  0  0  0  0
  7  9  1  0  0  0  0
  9 15  1  6  0  0  0
  9 18  1  0  0  0  0
 10 25  1  0  0  0  0
 10  6  1  0  0  0  0
 11 20  1  0  0  0  0
 12 19  1  6  0  0  0
 12 26  1  0  0  0  0
 13 10  2  0  0  0  0
 14  3  1  0  0  0  0
 15 11  1  0  0  0  0
 18  4  1  1  0  0  0
 20 17  1  0  0  0  0
 22 32  1  6  0  0  0
 22 21  1  0  0  0  0
 23  5  1  0  0  0  0
 24 30  1  6  0  0  0
 24 31  1  0  0  0  0
 24 22  1  0  0  0  0
 25 14  1  6  0  0  0
 25 23  1  0  0  0  0
 26 24  1  0  0  0  0
 27  7  1  0  0  0  0
 27  5  1  1  0  0  0
 31  2  1  0  0  0  0
 32 33  1  0  0  0  0
 34 32  2  0  0  0  0
M  END
>  <MODEL>
3

>  <REMARK>
 VINA RESULT:      -8.1      1.702      2.312
  Name = 
  1 active torsions:
  status: ('A' for Active; 'I' for Inactive)
    1  A    between atoms: C_3  and  C_25
                            x       y       z     vdW  Elec       q    Type
                         _______ _______ _______ _____ _____    ______ ____

>  <TORSDO>
F 1

$$$$
=
 OpenBabel11052420393D

 34 40  0  0  1  0  0  0  0  0999 V2000
  190.6160  173.5600  142.7420 C   0  0  1  0  0  3  0  0  0  0  0  0
  193.0130  174.5160  142.2020 C   0  0  1  0  0  3  0  0  0  0  0  0
  187.2820  176.2020  143.6430 C   0  0  2  0  0  3  0  0  0  0  0  0
  191.6770  173.4100  140.4050 C   0  0  0  0  0  0  0  0  0  0  0  0
  189.3870  177.0520  142.4240 C   0  0  0  0  0  2  0  0  0  0  0  0
  189.5820  175.9310  146.4080 N   0  0  0  0  0  0  0  0  0  0  0  0
  188.6510  174.6010  142.1740 C   0  0  1  0  0  0  0  0  0  0  0  0
  189.4420  174.1530  143.2590 O   0  0  0  0  0  0  0  0  0  0  0  0
  189.4960  174.5040  140.9010 C   0  0  2  0  0  3  0  0  0  0  0  0
  189.0540  177.2390  146.1890 C   0  0  0  0  0  0  0  0  0  0  0  0
  189.2090  173.3350  138.5870 C   0  0  0  0  0  2  0  0  0  0  0  0
  190.2370  174.6660  145.9560 C   0  0  2  0  0  3  0  0  0  0  0  0
  188.6800  177.9280  147.1750 O   0  0  0  0  0  0  0  0  0  0  0  0
  187.4340  177.5580  144.3260 C   0  0  0  0  0  2  0  0  0  0  0  0
  188.6820  174.3560  139.5960 C   0  0  0  0  0  2  0  0  0  0  0  0
  187.4270  173.6820  142.0840 C   0  0  0  0  0  1  0  0  0  0  0  0
  191.6260  172.8700  139.0110 C   0  0  0  0  0  2  0  0  0  0  0  0
  190.4310  173.3910  141.2400 C   0  0  2  0  0  3  0  0  0  0  0  0
  189.9730  174.8050  147.3030 C   0  0  0  0  0  2  0  0  0  0  0  0
  190.6350  173.6450  138.1540 C   0  0  0  0  0  2  0  0  0  0  0  0
  194.5250  173.8730  142.9640 S   0  0  0  0  0  0  0  0  0  0  0  0
  193.8900  174.3440  144.5920 C   0  0  2  0  0  3  0  0  0  0  0  0
  189.9390  177.2390  143.8360 C   0  0  0  0  0  2  0  0  0  0  0  0
  192.3710  174.0910  144.6070 C   0  0  2  0  0  0  0  0  0  0  0  0
  188.8740  177.7810  144.8040 C   0  0  2  0  0  3  0  0  0  0  0  0
  191.7020  174.9660  145.6860 C   0  0  0  0  0  2  0  0  0  0  0  0
  188.2020  176.0610  142.4090 C   0  0  1  0  0  3  0  0  0  0  0  0
  185.9520  176.0270  143.2620 O   0  0  0  0  0  1  0  0  0  0  0  0
  192.8280  173.9080  140.8480 C   0  0  0  0  0  3  0  0  0  0  0  0
  192.1860  172.6170  144.9660 C   0  0  0  0  0  1  0  0  0  0  0  0
  191.8360  174.4080  143.1860 C   0  0  2  0  0  3  0  0  0  0  0  0
  194.3190  175.7530  144.9110 C   0  0  0  0  0  0  0  0  0  0  0  0
  194.2860  176.6540  144.0300 O   0  0  0  0  0  0  0  0  0  0  0  0
  194.7750  176.0560  146.1870 O   0  0  0  0  0  1  0  0  0  0  0  0
  1 31  1  0  0  0  0
  1  8  1  6  0  0  0
  2 29  1  6  0  0  0
  2 21  1  0  0  0  0
  2 31  1  0  0  0  0
  3 28  1  6  0  0  0
  3 14  1  0  0  0  0
  4 29  2  0  0  0  0
  5 23  1  0  0  0  0
  6 19  1  0  0  0  0
  7 16  1  6  0  0  0
  7 27  1  0  0  0  0
  7  8  1  0  0  0  0
  9 15  1  6  0  0  0
  9 18  1  0  0  0  0
  9  7  1  0  0  0  0
 10  6  1  0  0  0  0
 10 13  2  0  0  0  0
 11 15  1  0  0  0  0
 12 26  1  1  0  0  0
 12  6  1  0  0  0  0
 12 19  1  0  0  0  0
 14 25  1  0  0  0  0
 17  4  1  0  0  0  0
 18  4  1  6  0  0  0
 18  1  1  0  0  0  0
 20 11  1  0  0  0  0
 20 17  1  0  0  0  0
 21 22  1  0  0  0  0
 22 24  1  0  0  0  0
 22 32  1  6  0  0  0
 24 30  1  1  0  0  0
 24 26  1  0  0  0  0
 25 23  1  6  0  0  0
 25 10  1  0  0  0  0
 27  5  1  1  0  0  0
 27  3  1  0  0  0  0
 31 24  1  0  0  0  0
 32 34  1  0  0  0  0
 33 32  2  0  0  0  0
M  END
>  <MODEL>
4

>  <REMARK>
 VINA RESULT:      -7.6      2.604      5.753
  Name = 
  1 active torsions:
  status: ('A' for Active; 'I' for Inactive)
    1  A    between atoms: C_3  and  C_25
                            x       y       z     vdW  Elec       q    Type
                         _______ _______ _______ _____ _____    ______ ____

>  <TORSDO>
F 1

$$$$
=
 OpenBabel11052420393D

 34 40  0  0  1  0  0  0  0  0999 V2000
  191.2730  176.2570  143.6630 C   0  0  1  0  0  3  0  0  0  0  0  0
  192.1950  174.9400  145.7520 C   0  0  1  0  0  3  0  0  0  0  0  0
  188.9200  174.2660  140.5980 C   0  0  2  0  0  3  0  0  0  0  0  0
  190.4000  176.6500  146.0490 C   0  0  0  0  0  0  0  0  0  0  0  0
  189.2110  173.2510  142.9480 C   0  0  0  0  0  2  0  0  0  0  0  0
  192.4270  173.4660  140.3460 N   0  0  0  0  0  0  0  0  0  0  0  0
  189.2780  175.8010  142.6250 C   0  0  1  0  0  0  0  0  0  0  0  0
  190.6820  175.8370  142.4500 O   0  0  0  0  0  0  0  0  0  0  0  0
  188.9820  175.9720  144.1170 C   0  0  2  0  0  3  0  0  0  0  0  0
  191.5410  172.3750  140.0980 C   0  0  0  0  0  0  0  0  0  0  0  0
  187.5380  177.6220  145.5290 C   0  0  0  0  0  2  0  0  0  0  0  0
  192.9210  174.6260  141.1490 C   0  0  2  0  0  3  0  0  0  0  0  0
  191.7730  171.5970  139.1360 O   0  0  0  0  0  0  0  0  0  0  0  0
  189.0910  172.7990  140.2150 C   0  0  0  0  0  2  0  0  0  0  0  0
  187.5870  176.5540  144.4360 C   0  0  0  0  0  2  0  0  0  0  0  0
  188.6820  176.9590  141.8170 C   0  0  0  0  0  1  0  0  0  0  0  0
  189.5600  177.4610  146.9850 C   0  0  0  0  0  2  0  0  0  0  0  0
  190.1620  176.7650  144.5730 C   0  0  2  0  0  3  0  0  0  0  0  0
  193.6370  174.2750  140.0240 C   0  0  0  0  0  2  0  0  0  0  0  0
  188.0850  177.1080  146.8530 C   0  0  0  0  0  2  0  0  0  0  0  0
  193.9090  175.0740  146.3250 S   0  0  0  0  0  0  0  0  0  0  0  0
  194.4770  174.4280  144.7320 C   0  0  2  0  0  3  0  0  0  0  0  0
  190.4950  172.6650  142.3650 C   0  0  0  0  0  2  0  0  0  0  0  0
  193.5620  174.9930  143.6300 C   0  0  2  0  0  0  0  0  0  0  0  0
  190.3040  172.1790  140.9190 C   0  0  2  0  0  3  0  0  0  0  0  0
  193.6100  174.0810  142.3880 C   0  0  0  0  0  2  0  0  0  0  0  0
  188.7130  174.4540  142.1170 C   0  0  1  0  0  3  0  0  0  0  0  0
  187.8310  174.7960  139.9040 O   0  0  0  0  0  1  0  0  0  0  0  0
  191.3170  175.8360  146.5660 C   0  0  0  0  0  3  0  0  0  0  0  0
  194.1250  176.3670  143.2690 C   0  0  0  0  0  1  0  0  0  0  0  0
  192.1330  175.0950  144.2230 C   0  0  2  0  0  3  0  0  0  0  0  0
  194.5630  172.9250  144.8010 C   0  0  0  0  0  0  0  0  0  0  0  0
  193.6470  172.2490  145.3420 O   0  0  0  0  0  1  0  0  0  0  0  0
  195.6770  172.2800  144.2780 O   0  0  0  0  0  0  0  0  0  0  0  0
  1  8  1  6  0  0  0
  1 31  1  0  0  0  0
  1 18  1  0  0  0  0
  2 21  1  0  0  0  0
  2 29  1  1  0  0  0
  3 28  1  6  0  0  0
  3 27  1  0  0  0  0
  4 29  2  0  0  0  0
  4 17  1  0  0  0  0
  6 12  1  0  0  0  0
  7 16  1  6  0  0  0
  7  9  1  0  0  0  0
  8  7  1  0  0  0  0
  9 15  1  6  0  0  0
  9 18  1  0  0  0  0
 10  6  1  0  0  0  0
 10 25  1  0  0  0  0
 11 20  1  0  0  0  0
 12 19  1  6  0  0  0
 12 26  1  0  0  0  0
 13 10  2  0  0  0  0
 14  3  1  0  0  0  0
 15 11  1  0  0  0  0
 18  4  1  1  0  0  0
 19  6  1  0  0  0  0
 20 17  1  0  0  0  0
 22 32  1  1  0  0  0
 22 21  1  0  0  0  0
 23  5  1  0  0  0  0
 24 30  1  6  0  0  0
 24 31  1  0  0  0  0
 24 22  1  0  0  0  0
 25 14  1  6  0  0  0
 25 23  1  0  0  0  0
 26 24  1  0  0  0  0
 27  7  1  0  0  0  0
 27  5  1  1  0  0  0
 31  2  1  0  0  0  0
 32 33  1  0  0  0  0
 34 32  2  0  0  0  0
M  END
>  <MODEL>
5

>  <REMARK>
 VINA RESULT:      -7.5      2.163      3.380
  Name = 
  1 active torsions:
  status: ('A' for Active; 'I' for Inactive)
    1  A    between atoms: C_3  and  C_25
                            x       y       z     vdW  Elec       q    Type
                         _______ _______ _______ _____ _____    ______ ____

>  <TORSDO>
F 1

$$$$
=
 OpenBabel11052420393D

 34 40  0  0  1  0  0  0  0  0999 V2000
  192.3780  175.8690  143.7940 C   0  0  1  0  0  3  0  0  0  0  0  0
  193.5050  174.0580  145.3430 C   0  0  1  0  0  3  0  0  0  0  0  0
  188.9020  174.9140  141.3640 C   0  0  2  0  0  3  0  0  0  0  0  0
  192.2890  175.9870  146.3610 C   0  0  0  0  0  0  0  0  0  0  0  0
  189.5770  173.4640  143.3840 C   0  0  0  0  0  2  0  0  0  0  0  0
  191.9390  173.5470  139.9820 N   0  0  0  0  0  0  0  0  0  0  0  0
  190.1280  175.9750  143.3560 C   0  0  1  0  0  0  0  0  0  0  0  0
  191.4040  175.7860  142.7730 O   0  0  0  0  0  0  0  0  0  0  0  0
  190.2900  175.9310  144.8760 C   0  0  2  0  0  3  0  0  0  0  0  0
  190.7970  172.6960  139.8850 C   0  0  0  0  0  0  0  0  0  0  0  0
  189.6890  177.5400  146.8390 C   0  0  0  0  0  2  0  0  0  0  0  0
  192.8780  174.4360  140.7290 C   0  0  2  0  0  3  0  0  0  0  0  0
  190.5810  172.0710  138.8130 O   0  0  0  0  0  0  0  0  0  0  0  0
  188.6290  173.5320  140.7790 C   0  0  0  0  0  2  0  0  0  0  0  0
  189.2000  176.6920  145.6650 C   0  0  0  0  0  2  0  0  0  0  0  0
  189.6140  177.3470  142.9040 C   0  0  0  0  0  1  0  0  0  0  0  0
  191.9380  176.7590  147.5930 C   0  0  0  0  0  2  0  0  0  0  0  0
  191.6970  176.4030  145.0470 C   0  0  2  0  0  3  0  0  0  0  0  0
  193.1680  174.1660  139.4090 C   0  0  0  0  0  2  0  0  0  0  0  0
  190.4410  176.7100  147.8690 C   0  0  0  0  0  2  0  0  0  0  0  0
  195.2940  173.7740  145.3870 S   0  0  0  0  0  0  0  0  0  0  0  0
  195.2540  173.3270  143.6330 C   0  0  2  0  0  3  0  0  0  0  0  0
  190.4920  172.7670  142.3790 C   0  0  0  0  0  2  0  0  0  0  0  0
  194.2280  174.2350  142.9290 C   0  0  2  0  0  0  0  0  0  0  0  0
  189.8150  172.5870  141.0100 C   0  0  2  0  0  3  0  0  0  0  0  0
  193.7330  173.5640  141.6330 C   0  0  0  0  0  2  0  0  0  0  0  0
  189.1590  174.8650  142.8870 C   0  0  1  0  0  3  0  0  0  0  0  0
  187.8160  175.7480  141.0950 O   0  0  0  0  0  1  0  0  0  0  0  0
  193.1030  174.9410  146.4800 C   0  0  0  0  0  3  0  0  0  0  0  0
  194.9680  175.5260  142.5790 C   0  0  0  0  0  1  0  0  0  0  0  0
  193.0720  174.4900  143.9320 C   0  0  2  0  0  3  0  0  0  0  0  0
  195.0140  171.8460  143.4980 C   0  0  0  0  0  0  0  0  0  0  0  0
  194.1200  171.2710  144.1750 O   0  0  0  0  0  1  0  0  0  0  0  0
  195.8020  171.1040  142.6270 O   0  0  0  0  0  0  0  0  0  0  0  0
  1  8  1  6  0  0  0
  1 31  1  0  0  0  0
  1 18  1  0  0  0  0
  2 21  1  0  0  0  0
  2 29  1  1  0  0  0
  3 28  1  1  0  0  0
  3 27  1  0  0  0  0
  4 29  2  0  0  0  0
  4 17  1  0  0  0  0
  6 12  1  0  0  0  0
  7 16  1  6  0  0  0
  7  9  1  0  0  0  0
  8  7  1  0  0  0  0
  9 18  1  0  0  0  0
  9 15  1  1  0  0  0
 10  6  1  0  0  0  0
 10 25  1  0  0  0  0
 11 20  1  0  0  0  0
 12 19  1  6  0  0  0
 12 26  1  0  0  0  0
 13 10  2  0  0  0  0
 14  3  1  0  0  0  0
 15 11  1  0  0  0  0
 17 20  1  0  0  0  0
 18  4  1  1  0  0  0
 19  6  1  0  0  0  0
 22 32  1  1  0  0  0
 22 21  1  0  0  0  0
 23  5  1  0  0  0  0
 24 30  1  6  0  0  0
 24 22  1  0  0  0  0
 24 31  1  0  0  0  0
 25 14  1  6  0  0  0
 25 23  1  0  0  0  0
 26 24  1  0  0  0  0
 27  7  1  0  0  0  0
 27  5  1  6  0  0  0
 31  2  1  0  0  0  0
 32 33  1  0  0  0  0
 34 32  2  0  0  0  0
M  END
>  <MODEL>
6

>  <REMARK>
 VINA RESULT:      -7.4      2.906      4.682
  Name = 
  1 active torsions:
  status: ('A' for Active; 'I' for Inactive)
    1  A    between atoms: C_3  and  C_25
                            x       y       z     vdW  Elec       q    Type
                         _______ _______ _______ _____ _____    ______ ____

>  <TORSDO>
F 1

$$$$
=
 OpenBabel11052420393D

 34 40  0  0  1  0  0  0  0  0999 V2000
  191.4650  175.4210  142.6590 C   0  0  1  0  0  3  0  0  0  0  0  0
  189.5290  175.1230  144.4240 C   0  0  1  0  0  3  0  0  0  0  0  0
  195.0410  172.9520  142.7910 C   0  0  2  0  0  3  0  0  0  0  0  0
  189.1520  174.4860  142.0390 C   0  0  0  0  0  0  0  0  0  0  0  0
  192.8670  172.2440  143.9780 C   0  0  0  0  0  2  0  0  0  0  0  0
  195.0480  175.4840  145.3580 N   0  0  0  0  0  0  0  0  0  0  0  0
  192.7670  173.7070  141.8660 C   0  0  1  0  0  0  0  0  0  0  0  0
  192.7850  174.9220  142.5910 O   0  0  0  0  0  0  0  0  0  0  0  0
  191.3060  173.2900  141.6770 C   0  0  2  0  0  3  0  0  0  0  0  0
  195.5590  174.2150  145.7630 C   0  0  0  0  0  0  0  0  0  0  0  0
  189.8070  172.7170  139.6210 C   0  0  0  0  0  2  0  0  0  0  0  0
  194.0210  176.3670  144.7250 C   0  0  2  0  0  3  0  0  0  0  0  0
  196.6040  174.1640  146.4640 O   0  0  0  0  0  0  0  0  0  0  0  0
  195.6340  172.3850  144.0770 C   0  0  0  0  0  2  0  0  0  0  0  0
  191.0460  172.3840  140.4530 C   0  0  0  0  0  2  0  0  0  0  0  0
  193.4360  173.9670  140.5110 C   0  0  0  0  0  1  0  0  0  0  0  0
  188.1910  174.0540  140.9770 C   0  0  0  0  0  2  0  0  0  0  0  0
  190.6070  174.6090  141.6980 C   0  0  2  0  0  3  0  0  0  0  0  0
  195.1060  176.9740  145.3220 C   0  0  0  0  0  2  0  0  0  0  0  0
  188.5320  172.6660  140.4520 C   0  0  0  0  0  2  0  0  0  0  0  0
  188.7660  176.5150  145.2960 S   0  0  0  0  0  0  0  0  0  0  0  0
  190.3730  176.9250  146.0220 C   0  0  2  0  0  3  0  0  0  0  0  0
  193.3980  173.1020  145.1240 C   0  0  0  0  0  2  0  0  0  0  0  0
  191.4600  176.6580  144.9640 C   0  0  2  0  0  0  0  0  0  0  0  0
  194.9150  172.9400  145.3130 C   0  0  2  0  0  3  0  0  0  0  0  0
  192.8200  176.4320  145.6530 C   0  0  0  0  0  2  0  0  0  0  0  0
  193.5410  172.6140  142.6390 C   0  0  1  0  0  3  0  0  0  0  0  0
  195.7500  172.4520  141.6990 O   0  0  0  0  0  1  0  0  0  0  0  0
  188.6790  174.7250  143.2590 C   0  0  0  0  0  3  0  0  0  0  0  0
  191.5340  177.9160  144.1000 C   0  0  0  0  0  1  0  0  0  0  0  0
  191.0110  175.4210  144.1420 C   0  0  2  0  0  3  0  0  0  0  0  0
  190.5370  176.1890  147.3260 C   0  0  0  0  0  0  0  0  0  0  0  0
  190.0750  175.0250  147.4750 O   0  0  0  0  0  0  0  0  0  0  0  0
  191.1910  176.8090  148.3820 O   0  0  0  0  0  1  0  0  0  0  0  0
  1  8  1  1  0  0  0
  1 31  1  0  0  0  0
  2 29  1  6  0  0  0
  2 21  1  0  0  0  0
  3 28  1  6  0  0  0
  3 14  1  0  0  0  0
  4 29  2  0  0  0  0
  5 23  1  0  0  0  0
  6 10  1  0  0  0  0
  7 16  1  6  0  0  0
  7  8  1  0  0  0  0
  7 27  1  0  0  0  0
  9 15  1  6  0  0  0
  9 18  1  0  0  0  0
  9  7  1  0  0  0  0
 10 13  2  0  0  0  0
 11 20  1  0  0  0  0
 11 15  1  0  0  0  0
 12 19  1  1  0  0  0
 12  6  1  0  0  0  0
 12 26  1  0  0  0  0
 17  4  1  0  0  0  0
 18  4  1  1  0  0  0
 18  1  1  0  0  0  0
 19  6  1  0  0  0  0
 20 17  1  0  0  0  0
 21 22  1  0  0  0  0
 22 32  1  1  0  0  0
 23 25  1  0  0  0  0
 24 30  1  6  0  0  0
 24 26  1  0  0  0  0
 24 22  1  0  0  0  0
 25 14  1  6  0  0  0
 25 10  1  0  0  0  0
 27  3  1  0  0  0  0
 27  5  1  1  0  0  0
 31  2  1  0  0  0  0
 31 24  1  0  0  0  0
 32 33  2  0  0  0  0
 32 34  1  0  0  0  0
M  END
>  <MODEL>
7

>  <REMARK>
 VINA RESULT:      -7.4      3.080      5.448
  Name = 
  1 active torsions:
  status: ('A' for Active; 'I' for Inactive)
    1  A    between atoms: C_3  and  C_25
                            x       y       z     vdW  Elec       q    Type
                         _______ _______ _______ _____ _____    ______ ____

>  <TORSDO>
F 1

$$$$
=
 OpenBabel11052420393D

 34 40  0  0  1  0  0  0  0  0999 V2000
  192.5610  173.3830  144.6180 C   0  0  1  0  0  3  0  0  0  0  0  0
  190.1720  173.4210  143.5040 C   0  0  1  0  0  3  0  0  0  0  0  0
  195.7980  175.8600  143.1060 C   0  0  2  0  0  3  0  0  0  0  0  0
  190.4950  174.3610  145.7940 C   0  0  0  0  0  0  0  0  0  0  0  0
  193.3330  176.3770  142.5600 C   0  0  0  0  0  2  0  0  0  0  0  0
  195.1660  173.0120  140.9850 N   0  0  0  0  0  0  0  0  0  0  0  0
  193.9490  175.2040  144.7630 C   0  0  1  0  0  0  0  0  0  0  0  0
  193.8130  173.9040  144.2200 O   0  0  0  0  0  0  0  0  0  0  0  0
  192.5930  175.6220  145.3360 C   0  0  2  0  0  3  0  0  0  0  0  0
  195.4660  174.2240  140.2930 C   0  0  0  0  0  0  0  0  0  0  0  0
  191.7520  176.4410  147.6650 C   0  0  0  0  0  2  0  0  0  0  0  0
  194.4250  172.2070  142.0020 C   0  0  2  0  0  3  0  0  0  0  0  0
  196.2480  174.1960  139.3060 O   0  0  0  0  0  0  0  0  0  0  0  0
  195.9460  176.2610  141.6410 C   0  0  0  0  0  2  0  0  0  0  0  0
  192.6650  176.6780  146.4620 C   0  0  0  0  0  2  0  0  0  0  0  0
  195.0070  175.1330  145.8710 C   0  0  0  0  0  1  0  0  0  0  0  0
  189.8770  174.9150  147.0390 C   0  0  0  0  0  2  0  0  0  0  0  0
  191.9900  174.3030  145.6890 C   0  0  2  0  0  3  0  0  0  0  0  0
  195.3110  171.5420  141.1810 C   0  0  0  0  0  2  0  0  0  0  0  0
  190.2860  176.3650  147.2620 C   0  0  0  0  0  2  0  0  0  0  0  0
  189.2560  171.9160  143.0820 S   0  0  0  0  0  0  0  0  0  0  0  0
  190.5900  171.4360  141.9560 C   0  0  2  0  0  3  0  0  0  0  0  0
  193.5400  175.3820  141.4190 C   0  0  0  0  0  2  0  0  0  0  0  0
  191.9300  171.8540  142.5920 C   0  0  2  0  0  0  0  0  0  0  0  0
  194.9200  175.5390  140.7600 C   0  0  2  0  0  3  0  0  0  0  0  0
  193.0060  172.0050  141.4990 C   0  0  0  0  0  2  0  0  0  0  0  0
  194.3970  176.1950  143.6650 C   0  0  1  0  0  3  0  0  0  0  0  0
  196.7750  176.5090  143.8600 O   0  0  0  0  0  1  0  0  0  0  0  0
  189.6910  173.9570  144.8150 C   0  0  0  0  0  3  0  0  0  0  0  0
  192.3260  170.7210  143.5390 C   0  0  0  0  0  1  0  0  0  0  0  0
  191.6840  173.1810  143.3550 C   0  0  2  0  0  3  0  0  0  0  0  0
  190.3170  171.9960  140.5850 C   0  0  0  0  0  0  0  0  0  0  0  0
  189.9210  173.1840  140.4380 O   0  0  0  0  0  1  0  0  0  0  0  0
  190.4860  171.1850  139.4700 O   0  0  0  0  0  0  0  0  0  0  0  0
  1  8  1  6  0  0  0
  1 18  1  0  0  0  0
  2 29  1  1  0  0  0
  3 27  1  0  0  0  0
  3 28  1  1  0  0  0
  4 17  1  0  0  0  0
  6 19  1  0  0  0  0
  6 12  1  0  0  0  0
  7  9  1  0  0  0  0
  7 16  1  1  0  0  0
  8  7  1  0  0  0  0
  9 18  1  0  0  0  0
  9 15  1  1  0  0  0
 10 25  1  0  0  0  0
 10  6  1  0  0  0  0
 12 19  1  6  0  0  0
 13 10  2  0  0  0  0
 14  3  1  0  0  0  0
 15 11  1  0  0  0  0
 17 20  1  0  0  0  0
 18  4  1  6  0  0  0
 20 11  1  0  0  0  0
 21  2  1  0  0  0  0
 22 32  1  6  0  0  0
 22 24  1  0  0  0  0
 22 21  1  0  0  0  0
 23  5  1  0  0  0  0
 24 31  1  0  0  0  0
 24 30  1  1  0  0  0
 25 23  1  1  0  0  0
 25 14  1  0  0  0  0
 26 12  1  0  0  0  0
 26 24  1  0  0  0  0
 27  5  1  6  0  0  0
 27  7  1  0  0  0  0
 29  4  2  0  0  0  0
 31  2  1  0  0  0  0
 31  1  1  0  0  0  0
 33 32  1  0  0  0  0
 34 32  2  0  0  0  0
M  END
>  <MODEL>
8

>  <REMARK>
 VINA RESULT:      -7.3      4.033      6.714
  Name = 
  1 active torsions:
  status: ('A' for Active; 'I' for Inactive)
    1  A    between atoms: C_3  and  C_25
                            x       y       z     vdW  Elec       q    Type
                         _______ _______ _______ _____ _____    ______ ____

>  <TORSDO>
F 1

$$$$
=
 OpenBabel11052420393D

 34 40  0  0  1  0  0  0  0  0999 V2000
  193.5970  173.7280  143.0750 C   0  0  1  0  0  3  0  0  0  0  0  0
  192.1120  171.5500  143.0720 C   0  0  1  0  0  3  0  0  0  0  0  0
  193.4030  176.5870  146.3440 C   0  0  2  0  0  3  0  0  0  0  0  0
  194.5870  171.3710  143.3470 C   0  0  0  0  0  0  0  0  0  0  0  0
  192.5680  174.1660  146.6170 C   0  0  0  0  0  2  0  0  0  0  0  0
  190.5360  176.8190  144.1700 N   0  0  0  0  0  0  0  0  0  0  0  0
  194.4640  174.6980  144.9650 C   0  0  1  0  0  0  0  0  0  0  0  0
  193.5850  174.8950  143.8730 O   0  0  0  0  0  0  0  0  0  0  0  0
  194.8660  173.2220  144.9900 C   0  0  2  0  0  3  0  0  0  0  0  0
  190.2500  176.9640  145.5610 C   0  0  0  0  0  0  0  0  0  0  0  0
  197.1330  171.9320  144.9630 C   0  0  0  0  0  2  0  0  0  0  0  0
  191.1540  176.1210  143.0030 C   0  0  2  0  0  3  0  0  0  0  0  0
  189.4520  177.8620  145.9380 O   0  0  0  0  0  0  0  0  0  0  0  0
  192.1470  176.8500  147.1690 C   0  0  0  0  0  2  0  0  0  0  0  0
  196.2220  172.9330  145.6730 C   0  0  0  0  0  2  0  0  0  0  0  0
  195.6900  175.5910  144.7380 C   0  0  0  0  0  1  0  0  0  0  0  0
  195.7970  170.4940  143.4180 C   0  0  0  0  0  2  0  0  0  0  0  0
  194.7470  172.8490  143.5490 C   0  0  2  0  0  3  0  0  0  0  0  0
  190.3660  177.2230  142.7450 C   0  0  0  0  0  2  0  0  0  0  0  0
  196.4620  170.5770  144.7860 C   0  0  0  0  0  2  0  0  0  0  0  0
  191.1520  171.0130  141.6320 S   0  0  0  0  0  0  0  0  0  0  0  0
  190.2050  172.5540  141.7060 C   0  0  2  0  0  3  0  0  0  0  0  0
  191.2660  174.7150  146.0380 C   0  0  0  0  0  2  0  0  0  0  0  0
  191.1620  173.6880  142.1200 C   0  0  2  0  0  0  0  0  0  0  0  0
  190.9350  176.1130  146.5860 C   0  0  2  0  0  3  0  0  0  0  0  0
  190.3640  174.8500  142.7410 C   0  0  0  0  0  2  0  0  0  0  0  0
  193.7630  175.0860  146.2880 C   0  0  1  0  0  3  0  0  0  0  0  0
  194.4670  177.3080  146.8880 O   0  0  0  0  0  1  0  0  0  0  0  0
  193.4060  170.8020  143.1270 C   0  0  0  0  0  3  0  0  0  0  0  0
  191.8380  174.1680  140.8360 C   0  0  0  0  0  1  0  0  0  0  0  0
  192.1860  173.0850  143.1170 C   0  0  2  0  0  3  0  0  0  0  0  0
  189.0010  172.3630  142.5900 C   0  0  0  0  0  0  0  0  0  0  0  0
  189.1240  171.9160  143.7630 O   0  0  0  0  0  1  0  0  0  0  0  0
  187.7380  172.6660  142.0990 O   0  0  0  0  0  0  0  0  0  0  0  0
  1 31  1  0  0  0  0
  1 18  1  0  0  0  0
  1  8  1  1  0  0  0
  2 31  1  0  0  0  0
  2 29  1  6  0  0  0
  3 28  1  1  0  0  0
  3 14  1  0  0  0  0
  4 17  1  0  0  0  0
  6 10  1  0  0  0  0
  7 16  1  6  0  0  0
  7  9  1  0  0  0  0
  7 27  1  0  0  0  0
  8  7  1  0  0  0  0
  9 15  1  6  0  0  0
 10 13  2  0  0  0  0
 10 25  1  0  0  0  0
 11 15  1  0  0  0  0
 12 26  1  6  0  0  0
 12  6  1  0  0  0  0
 17 20  1  0  0  0  0
 18  4  1  1  0  0  0
 18  9  1  0  0  0  0
 19 12  1  0  0  0  0
 19  6  1  0  0  0  0
 20 11  1  0  0  0  0
 21 22  1  0  0  0  0
 21  2  1  0  0  0  0
 22 24  1  0  0  0  0
 22 32  1  1  0  0  0
 23  5  1  0  0  0  0
 24 30  1  6  0  0  0
 24 26  1  0  0  0  0
 24 31  1  0  0  0  0
 25 23  1  6  0  0  0
 25 14  1  0  0  0  0
 27  3  1  0  0  0  0
 27  5  1  6  0  0  0
 29  4  2  0  0  0  0
 32 33  1  0  0  0  0
 34 32  2  0  0  0  0
M  END
>  <MODEL>
9

>  <REMARK>
 VINA RESULT:      -7.2      3.611      8.076
  Name = 
  1 active torsions:
  status: ('A' for Active; 'I' for Inactive)
    1  A    between atoms: C_3  and  C_25
                            x       y       z     vdW  Elec       q    Type
                         _______ _______ _______ _____ _____    ______ ____

>  <TORSDO>
F 1

$$$$
