=
 OpenBabel11052417363D

 25 27  0  0  1  0  0  0  0  0999 V2000
  189.1170  176.0560  144.3730 C   0  0  1  0  0  0  0  0  0  0  0  0
  188.0990  176.6320  143.4100 C   0  0  0  0  0  0  0  0  0  0  0  0
  189.9280  174.5040  142.7150 C   0  0  0  0  0  2  0  0  0  0  0  0
  188.6710  175.9990  145.8380 C   0  0  0  0  0  2  0  0  0  0  0  0
  191.4470  174.0930  145.1220 C   0  0  0  0  0  1  0  0  0  0  0  0
  188.9700  175.0130  141.6280 C   0  0  0  0  0  2  0  0  0  0  0  0
  189.2840  174.7110  146.3790 C   0  0  2  0  0  3  0  0  0  0  0  0
  190.2320  175.0020  147.5350 C   0  0  0  0  0  1  0  0  0  0  0  0
  187.1960  176.7710  141.1610 C   0  0  0  0  0  0  0  0  0  0  0  0
  187.1200  176.3220  139.7410 C   0  0  0  0  0  1  0  0  0  0  0  0
  187.2430  177.6710  143.7920 C   0  0  0  0  0  3  0  0  0  0  0  0
  189.2790  174.6470  144.0190 N   0  0  1  0  0  0  0  0  0  0  0  0
  189.9150  174.0030  145.1670 C   0  0  1  0  0  3  0  0  0  0  0  0
  186.3710  177.7700  141.5750 N   0  0  0  0  0  0  0  0  0  0  0  0
  186.3780  178.2300  142.8540 C   0  0  0  0  0  0  0  0  0  0  0  0
  188.0920  176.1770  142.0690 C   0  0  0  0  0  0  0  0  0  0  0  0
  190.3680  176.7280  144.2480 O   0  0  0  0  0  0  0  0  0  0  0  0
  190.3890  177.8740  145.0640 C   0  0  0  0  0  1  0  0  0  0  0  0
  185.4440  179.3140  143.2590 C   0  0  0  0  0  2  0  0  0  0  0  0
  185.5820  179.5910  144.7460 C   0  0  0  0  0  2  0  0  0  0  0  0
  184.4230  178.9710  145.5140 C   0  0  0  0  0  2  0  0  0  0  0  0
  184.8990  178.1090  146.6780 C   0  0  0  0  0  0  0  0  0  0  0  0
  184.2100  178.4760  147.8180 F   0  0  0  0  0  0  0  0  0  0  0  0
  184.6580  176.7730  146.4190 F   0  0  0  0  0  0  0  0  0  0  0  0
  186.2520  178.3010  146.8900 F   0  0  0  0  0  0  0  0  0  0  0  0
  1 17  1  6  0  0  0
  1  4  1  0  0  0  0
  2 11  1  0  0  0  0
  2  1  1  0  0  0  0
  4  7  1  0  0  0  0
  6 16  1  0  0  0  0
  6  3  1  0  0  0  0
  7  8  1  1  0  0  0
  9 14  2  0  0  0  0
  9 16  1  0  0  0  0
 10  9  1  0  0  0  0
 12  3  1  6  0  0  0
 12  1  1  0  0  0  0
 12 13  1  0  0  0  0
 13  5  1  6  0  0  0
 13  7  1  0  0  0  0
 14 15  1  0  0  0  0
 15 19  1  0  0  0  0
 15 11  2  0  0  0  0
 16  2  2  0  0  0  0
 17 18  1  0  0  0  0
 19 20  1  0  0  0  0
 20 21  1  0  0  0  0
 21 22  1  0  0  0  0
 22 25  1  0  0  0  0
 22 23  1  0  0  0  0
 24 22  1  0  0  0  0
M  END
>  <MODEL>
1

>  <REMARK>
 VINA RESULT:      -7.1      0.000      0.000
  Name = 
  5 active torsions:
  status: ('A' for Active; 'I' for Inactive)
    1  A    between atoms: C_1  and  O_17
    2  A    between atoms: C_2  and  C_21
    3  A    between atoms: C_6  and  C_15
    4  A    between atoms: C_6  and  C_23
    5  A    between atoms: C_15  and  C_21
                            x       y       z     vdW  Elec       q    Type
                         _______ _______ _______ _____ _____    ______ ____

>  <TORSDO>
F 5

$$$$
=
 OpenBabel11052417363D

 25 27  0  0  1  0  0  0  0  0999 V2000
  190.1020  176.0530  145.2380 C   0  0  1  0  0  0  0  0  0  0  0  0
  188.9680  175.7670  144.2740 C   0  0  0  0  0  0  0  0  0  0  0  0
  191.3570  174.1500  144.4540 C   0  0  0  0  0  2  0  0  0  0  0  0
  189.6790  176.6380  146.5900 C   0  0  0  0  0  2  0  0  0  0  0  0
  192.9050  175.4390  146.5060 C   0  0  0  0  0  1  0  0  0  0  0  0
  190.3020  173.7600  143.4080 C   0  0  0  0  0  2  0  0  0  0  0  0
  190.6440  176.0190  147.5970 C   0  0  2  0  0  3  0  0  0  0  0  0
  191.4490  177.0960  148.3120 C   0  0  0  0  0  1  0  0  0  0  0  0
  188.0870  174.4970  142.4030 C   0  0  0  0  0  0  0  0  0  0  0  0
  188.1640  173.3840  141.4130 C   0  0  0  0  0  1  0  0  0  0  0  0
  187.8370  176.5880  144.2180 C   0  0  0  0  0  3  0  0  0  0  0  0
  190.6820  174.7610  145.5990 N   0  0  1  0  0  0  0  0  0  0  0  0
  191.4690  174.9860  146.8100 C   0  0  1  0  0  3  0  0  0  0  0  0
  186.9970  175.3090  142.3890 N   0  0  0  0  0  0  0  0  0  0  0  0
  186.8530  176.3410  143.2630 C   0  0  0  0  0  0  0  0  0  0  0  0
  189.1110  174.7080  143.3440 C   0  0  0  0  0  0  0  0  0  0  0  0
  191.0950  176.8690  144.6210 O   0  0  0  0  0  0  0  0  0  0  0  0
  190.6130  178.1790  144.4490 C   0  0  0  0  0  1  0  0  0  0  0  0
  185.6330  177.1900  143.2150 C   0  0  0  0  0  2  0  0  0  0  0  0
  185.7790  178.3620  144.1700 C   0  0  0  0  0  2  0  0  0  0  0  0
  184.6000  178.4170  145.1310 C   0  0  0  0  0  2  0  0  0  0  0  0
  184.9440  177.8380  146.4990 C   0  0  0  0  0  0  0  0  0  0  0  0
  186.2780  178.0730  146.7620 F   0  0  0  0  0  0  0  0  0  0  0  0
  184.1790  178.4380  147.4830 F   0  0  0  0  0  0  0  0  0  0  0  0
  184.7170  176.4730  146.5080 F   0  0  0  0  0  0  0  0  0  0  0  0
  1 17  1  6  0  0  0
  1 12  1  0  0  0  0
  1  4  1  0  0  0  0
  2  1  1  0  0  0  0
  4  7  1  0  0  0  0
  6  3  1  0  0  0  0
  7  8  1  6  0  0  0
  9 16  1  0  0  0  0
 10  9  1  0  0  0  0
 11  2  1  0  0  0  0
 12  3  1  6  0  0  0
 12 13  1  0  0  0  0
 13  5  1  6  0  0  0
 13  7  1  0  0  0  0
 14  9  2  0  0  0  0
 14 15  1  0  0  0  0
 15 11  2  0  0  0  0
 16  6  1  0  0  0  0
 16  2  2  0  0  0  0
 18 17  1  0  0  0  0
 19 15  1  0  0  0  0
 19 20  1  0  0  0  0
 20 21  1  0  0  0  0
 21 22  1  0  0  0  0
 22 25  1  0  0  0  0
 22 23  1  0  0  0  0
 22 24  1  0  0  0  0
M  END
>  <MODEL>
2

>  <REMARK>
 VINA RESULT:      -6.9      1.463      2.069
  Name = 
  5 active torsions:
  status: ('A' for Active; 'I' for Inactive)
    1  A    between atoms: C_1  and  O_17
    2  A    between atoms: C_2  and  C_21
    3  A    between atoms: C_6  and  C_15
    4  A    between atoms: C_6  and  C_23
    5  A    between atoms: C_15  and  C_21
                            x       y       z     vdW  Elec       q    Type
                         _______ _______ _______ _____ _____    ______ ____

>  <TORSDO>
F 5

$$$$
=
 OpenBabel11052417363D

 25 27  0  0  1  0  0  0  0  0999 V2000
  188.5830  177.0110  144.0940 C   0  0  1  0  0  0  0  0  0  0  0  0
  187.1390  177.4660  144.0570 C   0  0  0  0  0  0  0  0  0  0  0  0
  188.6090  177.0110  146.5040 C   0  0  0  0  0  2  0  0  0  0  0  0
  189.4670  177.5490  142.9630 C   0  0  0  0  0  2  0  0  0  0  0  0
  191.2080  176.1800  145.5980 C   0  0  0  0  0  1  0  0  0  0  0  0
  187.1390  177.4420  146.6180 C   0  0  0  0  0  2  0  0  0  0  0  0
  190.8290  177.7770  143.6110 C   0  0  2  0  0  3  0  0  0  0  0  0
  191.9020  176.9320  142.9370 C   0  0  0  0  0  1  0  0  0  0  0  0
  185.0690  177.9430  145.2330 C   0  0  0  0  0  0  0  0  0  0  0  0
  184.2730  178.1170  146.4810 C   0  0  0  0  0  1  0  0  0  0  0  0
  186.4680  177.6610  142.8450 C   0  0  0  0  0  3  0  0  0  0  0  0
  189.1790  177.5990  145.2920 N   0  0  1  0  0  0  0  0  0  0  0  0
  190.6290  177.5170  145.1150 C   0  0  1  0  0  3  0  0  0  0  0  0
  184.4560  178.1360  144.0340 N   0  0  0  0  0  0  0  0  0  0  0  0
  185.1170  178.0000  142.8540 C   0  0  0  0  0  0  0  0  0  0  0  0
  186.4310  177.5930  145.2780 C   0  0  0  0  0  0  0  0  0  0  0  0
  188.6630  175.5890  144.1670 O   0  0  0  0  0  0  0  0  0  0  0  0
  188.6790  175.0340  142.8750 C   0  0  0  0  0  1  0  0  0  0  0  0
  184.4020  178.2390  141.5710 C   0  0  0  0  0  2  0  0  0  0  0  0
  182.9010  178.2150  141.8010 C   0  0  0  0  0  2  0  0  0  0  0  0
  182.1610  178.0640  140.4800 C   0  0  0  0  0  2  0  0  0  0  0  0
  180.6720  178.3630  140.6150 C   0  0  0  0  0  0  0  0  0  0  0  0
  180.4780  179.7270  140.5180 F   0  0  0  0  0  0  0  0  0  0  0  0
  179.9600  177.7360  139.6090 F   0  0  0  0  0  0  0  0  0  0  0  0
  180.2100  177.9300  141.8450 F   0  0  0  0  0  0  0  0  0  0  0  0
  1 17  1  1  0  0  0
  1 12  1  0  0  0  0
  2  1  1  0  0  0  0
  2 16  1  0  0  0  0
  3  6  1  0  0  0  0
  4  7  1  0  0  0  0
  4  1  1  0  0  0  0
  7  8  1  6  0  0  0
  7 13  1  0  0  0  0
  9 16  2  0  0  0  0
  9 10  1  0  0  0  0
 11 15  1  0  0  0  0
 11  2  2  0  0  0  0
 12  3  1  1  0  0  0
 13 12  1  0  0  0  0
 13  5  1  6  0  0  0
 14  9  1  0  0  0  0
 15 14  2  0  0  0  0
 16  6  1  0  0  0  0
 18 17  1  0  0  0  0
 19 20  1  0  0  0  0
 19 15  1  0  0  0  0
 21 22  1  0  0  0  0
 21 20  1  0  0  0  0
 22 25  1  0  0  0  0
 23 22  1  0  0  0  0
 24 22  1  0  0  0  0
M  END
>  <MODEL>
3

>  <REMARK>
 VINA RESULT:      -6.8      3.437      4.827
  Name = 
  5 active torsions:
  status: ('A' for Active; 'I' for Inactive)
    1  A    between atoms: C_1  and  O_17
    2  A    between atoms: C_2  and  C_21
    3  A    between atoms: C_6  and  C_15
    4  A    between atoms: C_6  and  C_23
    5  A    between atoms: C_15  and  C_21
                            x       y       z     vdW  Elec       q    Type
                         _______ _______ _______ _____ _____    ______ ____

>  <TORSDO>
F 5

$$$$
=
 OpenBabel11052417363D

 25 27  0  0  1  0  0  0  0  0999 V2000
  189.9860  176.3230  144.6000 C   0  0  1  0  0  0  0  0  0  0  0  0
  188.6380  176.9510  144.8870 C   0  0  0  0  0  0  0  0  0  0  0  0
  190.0720  175.3090  146.7860 C   0  0  0  0  0  2  0  0  0  0  0  0
  190.9190  177.1540  143.7130 C   0  0  0  0  0  2  0  0  0  0  0  0
  192.4710  174.5740  145.3830 C   0  0  0  0  0  1  0  0  0  0  0  0
  188.6970  175.8570  147.2020 C   0  0  0  0  0  2  0  0  0  0  0  0
  192.3160  176.8930  144.2690 C   0  0  2  0  0  3  0  0  0  0  0  0
  193.2150  176.2650  143.2120 C   0  0  0  0  0  1  0  0  0  0  0  0
  186.7070  177.1800  146.3400 C   0  0  0  0  0  0  0  0  0  0  0  0
  185.9820  176.9270  147.6180 C   0  0  0  0  0  1  0  0  0  0  0  0
  187.9790  177.7290  143.9290 C   0  0  0  0  0  3  0  0  0  0  0  0
  190.7020  176.2630  145.8730 N   0  0  1  0  0  0  0  0  0  0  0  0
  192.1120  176.0590  145.5460 C   0  0  1  0  0  3  0  0  0  0  0  0
  186.1050  177.9430  145.3880 N   0  0  0  0  0  0  0  0  0  0  0  0
  186.7050  178.2220  144.2000 C   0  0  0  0  0  0  0  0  0  0  0  0
  187.9920  176.6550  146.1120 C   0  0  0  0  0  0  0  0  0  0  0  0
  189.8280  175.0060  144.0780 O   0  0  0  0  0  0  0  0  0  0  0  0
  189.6990  175.0490  142.6780 C   0  0  0  0  0  1  0  0  0  0  0  0
  186.0090  179.0740  143.2000 C   0  0  0  0  0  2  0  0  0  0  0  0
  185.0890  178.2220  142.3420 C   0  0  0  0  0  2  0  0  0  0  0  0
  185.4680  178.3400  140.8730 C   0  0  0  0  0  2  0  0  0  0  0  0
  186.6010  177.3930  140.4930 C   0  0  0  0  0  0  0  0  0  0  0  0
  187.8020  178.0660  140.6000 F   0  0  0  0  0  0  0  0  0  0  0  0
  186.6220  176.3000  141.3400 F   0  0  0  0  0  0  0  0  0  0  0  0
  186.4420  176.9620  139.1880 F   0  0  0  0  0  0  0  0  0  0  0  0
  1 17  1  6  0  0  0
  1  2  1  0  0  0  0
  1 12  1  0  0  0  0
  2 16  1  0  0  0  0
  3  6  1  0  0  0  0
  4  7  1  0  0  0  0
  4  1  1  0  0  0  0
  7  8  1  6  0  0  0
  7 13  1  0  0  0  0
  9 10  1  0  0  0  0
 11 15  1  0  0  0  0
 11  2  2  0  0  0  0
 12  3  1  1  0  0  0
 13  5  1  6  0  0  0
 13 12  1  0  0  0  0
 14  9  1  0  0  0  0
 15 14  2  0  0  0  0
 16  9  2  0  0  0  0
 16  6  1  0  0  0  0
 18 17  1  0  0  0  0
 19 15  1  0  0  0  0
 20 19  1  0  0  0  0
 21 20  1  0  0  0  0
 22 23  1  0  0  0  0
 22 21  1  0  0  0  0
 22 24  1  0  0  0  0
 25 22  1  0  0  0  0
M  END
>  <MODEL>
4

>  <REMARK>
 VINA RESULT:      -6.7      2.843      4.476
  Name = 
  5 active torsions:
  status: ('A' for Active; 'I' for Inactive)
    1  A    between atoms: C_1  and  O_17
    2  A    between atoms: C_2  and  C_21
    3  A    between atoms: C_6  and  C_15
    4  A    between atoms: C_6  and  C_23
    5  A    between atoms: C_15  and  C_21
                            x       y       z     vdW  Elec       q    Type
                         _______ _______ _______ _____ _____    ______ ____

>  <TORSDO>
F 5

$$$$
=
 OpenBabel11052417363D

 25 27  0  0  1  0  0  0  0  0999 V2000
  187.3560  176.9890  143.6020 C   0  0  1  0  0  0  0  0  0  0  0  0
  188.2450  175.9010  144.1710 C   0  0  0  0  0  0  0  0  0  0  0  0
  186.9500  177.9170  145.7900 C   0  0  0  0  0  2  0  0  0  0  0  0
  186.5190  176.5790  142.3860 C   0  0  0  0  0  2  0  0  0  0  0  0
  185.5140  179.5130  143.8780 C   0  0  0  0  0  1  0  0  0  0  0  0
  187.8500  176.8930  146.4990 C   0  0  0  0  0  2  0  0  0  0  0  0
  185.1980  177.3240  142.5550 C   0  0  2  0  0  3  0  0  0  0  0  0
  184.9460  178.2600  141.3810 C   0  0  0  0  0  1  0  0  0  0  0  0
  189.4250  174.9470  146.0650 C   0  0  0  0  0  0  0  0  0  0  0  0
  189.7580  174.8890  147.5170 C   0  0  0  0  0  1  0  0  0  0  0  0
  188.8580  174.9560  143.3420 C   0  0  0  0  0  3  0  0  0  0  0  0
  186.3470  177.2810  144.6180 N   0  0  1  0  0  0  0  0  0  0  0  0
  185.2700  177.9980  143.9370 C   0  0  1  0  0  3  0  0  0  0  0  0
  189.9910  174.0370  145.2280 N   0  0  0  0  0  0  0  0  0  0  0  0
  189.7330  174.0230  143.8930 C   0  0  0  0  0  0  0  0  0  0  0  0
  188.5390  175.9140  145.5560 C   0  0  0  0  0  0  0  0  0  0  0  0
  188.1120  178.1650  143.3240 O   0  0  0  0  0  0  0  0  0  0  0  0
  188.6510  178.1040  142.0270 C   0  0  0  0  0  1  0  0  0  0  0  0
  190.3670  172.9950  143.0250 C   0  0  0  0  0  2  0  0  0  0  0  0
  190.4180  173.4870  141.5890 C   0  0  0  0  0  2  0  0  0  0  0  0
  189.6910  172.5190  140.6670 C   0  0  0  0  0  2  0  0  0  0  0  0
  188.2810  172.9920  140.3300 C   0  0  0  0  0  0  0  0  0  0  0  0
  187.8490  172.3400  139.1920 F   0  0  0  0  0  0  0  0  0  0  0  0
  187.4140  172.7030  141.3690 F   0  0  0  0  0  0  0  0  0  0  0  0
  188.2800  174.3550  140.0950 F   0  0  0  0  0  0  0  0  0  0  0  0
  1 17  1  6  0  0  0
  1  2  1  0  0  0  0
  1 12  1  0  0  0  0
  2 16  1  0  0  0  0
  3  6  1  0  0  0  0
  4  7  1  0  0  0  0
  4  1  1  0  0  0  0
  7  8  1  6  0  0  0
  7 13  1  0  0  0  0
  9 10  1  0  0  0  0
 11 15  1  0  0  0  0
 11  2  2  0  0  0  0
 12  3  1  1  0  0  0
 13  5  1  6  0  0  0
 13 12  1  0  0  0  0
 14  9  1  0  0  0  0
 15 14  2  0  0  0  0
 16  9  2  0  0  0  0
 16  6  1  0  0  0  0
 18 17  1  0  0  0  0
 19 15  1  0  0  0  0
 20 19  1  0  0  0  0
 21 20  1  0  0  0  0
 22 21  1  0  0  0  0
 22 24  1  0  0  0  0
 23 22  1  0  0  0  0
 25 22  1  0  0  0  0
M  END
>  <MODEL>
5

>  <REMARK>
 VINA RESULT:      -6.7      3.246      6.568
  Name = 
  5 active torsions:
  status: ('A' for Active; 'I' for Inactive)
    1  A    between atoms: C_1  and  O_17
    2  A    between atoms: C_2  and  C_21
    3  A    between atoms: C_6  and  C_15
    4  A    between atoms: C_6  and  C_23
    5  A    between atoms: C_15  and  C_21
                            x       y       z     vdW  Elec       q    Type
                         _______ _______ _______ _____ _____    ______ ____

>  <TORSDO>
F 5

$$$$
=
 OpenBabel11052417363D

 25 27  0  0  1  0  0  0  0  0999 V2000
  186.9880  177.0340  144.2500 C   0  0  1  0  0  0  0  0  0  0  0  0
  188.1980  176.1740  144.5530 C   0  0  0  0  0  0  0  0  0  0  0  0
  186.7970  176.1250  142.0250 C   0  0  0  0  0  2  0  0  0  0  0  0
  186.9960  178.4230  144.8960 C   0  0  0  0  0  2  0  0  0  0  0  0
  184.6820  178.0400  142.3760 C   0  0  0  0  0  1  0  0  0  0  0  0
  187.9900  175.1750  142.2040 C   0  0  0  0  0  2  0  0  0  0  0  0
  186.3430  179.3350  143.8610 C   0  0  2  0  0  3  0  0  0  0  0  0
  185.0850  179.9840  144.4220 C   0  0  0  0  0  1  0  0  0  0  0  0
  189.6990  174.3780  143.9080 C   0  0  0  0  0  0  0  0  0  0  0  0
  190.2110  173.3760  142.9300 C   0  0  0  0  0  1  0  0  0  0  0  0
  188.8340  176.2270  145.7980 C   0  0  0  0  0  3  0  0  0  0  0  0
  187.0320  177.3310  142.8190 N   0  0  1  0  0  0  0  0  0  0  0  0
  186.1380  178.4690  142.6060 C   0  0  1  0  0  3  0  0  0  0  0  0
  190.2990  174.4690  145.1250 N   0  0  0  0  0  0  0  0  0  0  0  0
  189.8920  175.3610  146.0670 C   0  0  0  0  0  0  0  0  0  0  0  0
  188.6220  175.2260  143.5900 C   0  0  0  0  0  0  0  0  0  0  0  0
  185.7830  176.3370  144.5580 O   0  0  0  0  0  0  0  0  0  0  0  0
  185.3640  176.6420  145.8650 C   0  0  0  0  0  1  0  0  0  0  0  0
  190.5940  175.4300  147.3760 C   0  0  0  0  0  2  0  0  0  0  0  0
  191.6080  176.5610  147.3640 C   0  0  0  0  0  2  0  0  0  0  0  0
  192.9370  176.0800  146.7990 C   0  0  0  0  0  2  0  0  0  0  0  0
  193.1820  176.5940  145.3840 C   0  0  0  0  0  0  0  0  0  0  0  0
  193.3510  175.5160  144.5390 F   0  0  0  0  0  0  0  0  0  0  0  0
  192.1020  177.3400  144.9480 F   0  0  0  0  0  0  0  0  0  0  0  0
  194.3240  177.3740  145.3530 F   0  0  0  0  0  0  0  0  0  0  0  0
  1  2  1  0  0  0  0
  1 17  1  1  0  0  0
  1  4  1  0  0  0  0
  2 11  1  0  0  0  0
  3  6  1  0  0  0  0
  6 16  1  0  0  0  0
  7  8  1  1  0  0  0
  7  4  1  0  0  0  0
  9 14  2  0  0  0  0
 10  9  1  0  0  0  0
 11 15  2  0  0  0  0
 12  3  1  6  0  0  0
 12  1  1  0  0  0  0
 13  5  1  1  0  0  0
 13 12  1  0  0  0  0
 13  7  1  0  0  0  0
 14 15  1  0  0  0  0
 15 19  1  0  0  0  0
 16  9  1  0  0  0  0
 16  2  2  0  0  0  0
 17 18  1  0  0  0  0
 20 19  1  0  0  0  0
 21 20  1  0  0  0  0
 22 21  1  0  0  0  0
 23 22  1  0  0  0  0
 24 22  1  0  0  0  0
 25 22  1  0  0  0  0
M  END
>  <MODEL>
6

>  <REMARK>
 VINA RESULT:      -6.4      3.090      6.084
  Name = 
  5 active torsions:
  status: ('A' for Active; 'I' for Inactive)
    1  A    between atoms: C_1  and  O_17
    2  A    between atoms: C_2  and  C_21
    3  A    between atoms: C_6  and  C_15
    4  A    between atoms: C_6  and  C_23
    5  A    between atoms: C_15  and  C_21
                            x       y       z     vdW  Elec       q    Type
                         _______ _______ _______ _____ _____    ______ ____

>  <TORSDO>
F 5

$$$$
=
 OpenBabel11052417363D

 25 27  0  0  1  0  0  0  0  0999 V2000
  191.1990  175.7120  144.1860 C   0  0  1  0  0  0  0  0  0  0  0  0
  189.8280  175.4380  143.6000 C   0  0  0  0  0  0  0  0  0  0  0  0
  192.2150  174.0070  142.8180 C   0  0  0  0  0  2  0  0  0  0  0  0
  191.2080  176.1170  145.6640 C   0  0  0  0  0  2  0  0  0  0  0  0
  194.2840  175.1960  144.4230 C   0  0  0  0  0  1  0  0  0  0  0  0
  190.8970  173.6450  142.1170 C   0  0  0  0  0  2  0  0  0  0  0  0
  192.4710  175.4760  146.2330 C   0  0  2  0  0  3  0  0  0  0  0  0
  193.4170  176.5340  146.7860 C   0  0  0  0  0  1  0  0  0  0  0  0
  188.4480  174.3030  141.9580 C   0  0  0  0  0  0  0  0  0  0  0  0
  188.2500  173.3090  140.8640 C   0  0  0  0  0  1  0  0  0  0  0  0
  188.7050  176.1680  144.0050 C   0  0  0  0  0  3  0  0  0  0  0  0
  191.9180  174.4400  144.1840 N   0  0  1  0  0  0  0  0  0  0  0  0
  193.0430  174.6000  145.1050 C   0  0  1  0  0  3  0  0  0  0  0  0
  187.3780  175.0230  142.3880 N   0  0  0  0  0  0  0  0  0  0  0  0
  187.4780  175.9430  143.3840 C   0  0  0  0  0  0  0  0  0  0  0  0
  189.7100  174.4970  142.5490 C   0  0  0  0  0  0  0  0  0  0  0  0
  191.9050  176.6640  143.3950 O   0  0  0  0  0  0  0  0  0  0  0  0
  191.5210  177.9710  143.7440 C   0  0  0  0  0  1  0  0  0  0  0  0
  186.2730  176.6920  143.8270 C   0  0  0  0  0  2  0  0  0  0  0  0
  186.4690  177.2000  145.2450 C   0  0  0  0  0  2  0  0  0  0  0  0
  185.1590  177.1470  146.0180 C   0  0  0  0  0  2  0  0  0  0  0  0
  184.6820  178.5320  146.4420 C   0  0  0  0  0  0  0  0  0  0  0  0
  183.5330  178.8430  145.7430 F   0  0  0  0  0  0  0  0  0  0  0  0
  184.4040  178.5530  147.7960 F   0  0  0  0  0  0  0  0  0  0  0  0
  185.6520  179.4760  146.1560 F   0  0  0  0  0  0  0  0  0  0  0  0
  1 17  1  6  0  0  0
  1  4  1  0  0  0  0
  2 11  1  0  0  0  0
  2  1  1  0  0  0  0
  4  7  1  0  0  0  0
  6 16  1  0  0  0  0
  6  3  1  0  0  0  0
  7  8  1  6  0  0  0
  9 14  2  0  0  0  0
  9 16  1  0  0  0  0
 10  9  1  0  0  0  0
 12  3  1  6  0  0  0
 12  1  1  0  0  0  0
 12 13  1  0  0  0  0
 13  5  1  6  0  0  0
 13  7  1  0  0  0  0
 14 15  1  0  0  0  0
 15 19  1  0  0  0  0
 15 11  2  0  0  0  0
 16  2  2  0  0  0  0
 17 18  1  0  0  0  0
 19 20  1  0  0  0  0
 20 21  1  0  0  0  0
 21 22  1  0  0  0  0
 22 24  1  0  0  0  0
 23 22  1  0  0  0  0
 25 22  1  0  0  0  0
M  END
>  <MODEL>
7

>  <REMARK>
 VINA RESULT:      -6.4      1.917      2.537
  Name = 
  5 active torsions:
  status: ('A' for Active; 'I' for Inactive)
    1  A    between atoms: C_1  and  O_17
    2  A    between atoms: C_2  and  C_21
    3  A    between atoms: C_6  and  C_15
    4  A    between atoms: C_6  and  C_23
    5  A    between atoms: C_15  and  C_21
                            x       y       z     vdW  Elec       q    Type
                         _______ _______ _______ _____ _____    ______ ____

>  <TORSDO>
F 5

$$$$
=
 OpenBabel11052417363D

 25 27  0  0  1  0  0  0  0  0999 V2000
  190.7320  175.7850  144.7210 C   0  0  1  0  0  0  0  0  0  0  0  0
  189.2540  176.1120  144.7960 C   0  0  0  0  0  0  0  0  0  0  0  0
  190.9350  175.7750  147.1230 C   0  0  0  0  0  2  0  0  0  0  0  0
  191.4790  176.4060  143.5360 C   0  0  0  0  0  2  0  0  0  0  0  0
  193.5230  175.1800  146.0200 C   0  0  0  0  0  1  0  0  0  0  0  0
  189.4450  176.0740  147.3490 C   0  0  0  0  0  2  0  0  0  0  0  0
  192.8610  176.7490  144.0860 C   0  0  2  0  0  3  0  0  0  0  0  0
  193.9500  176.0050  143.3250 C   0  0  0  0  0  1  0  0  0  0  0  0
  187.2430  176.3990  146.1250 C   0  0  0  0  0  0  0  0  0  0  0  0
  186.5290  176.4950  147.4300 C   0  0  0  0  0  1  0  0  0  0  0  0
  188.4810  176.2550  143.6390 C   0  0  0  0  0  3  0  0  0  0  0  0
  191.3610  176.4170  145.8800 N   0  0  1  0  0  0  0  0  0  0  0  0
  192.7950  176.4640  145.5970 C   0  0  1  0  0  3  0  0  0  0  0  0
  186.5290  176.5440  144.9770 N   0  0  0  0  0  0  0  0  0  0  0  0
  187.1100  176.4740  143.7490 C   0  0  0  0  0  0  0  0  0  0  0  0
  188.6300  176.1700  146.0660 C   0  0  0  0  0  0  0  0  0  0  0  0
  190.9400  174.3760  144.7710 O   0  0  0  0  0  0  0  0  0  0  0  0
  190.8950  173.8300  143.4760 C   0  0  0  0  0  1  0  0  0  0  0  0
  186.2850  176.6550  142.5260 C   0  0  0  0  0  2  0  0  0  0  0  0
  185.2020  177.6900  142.7790 C   0  0  0  0  0  2  0  0  0  0  0  0
  185.8120  179.0770  142.9210 C   0  0  0  0  0  2  0  0  0  0  0  0
  185.3890  179.7630  144.2150 C   0  0  0  0  0  0  0  0  0  0  0  0
  186.3010  179.4540  145.2050 F   0  0  0  0  0  0  0  0  0  0  0  0
  185.3580  181.1350  144.0470 F   0  0  0  0  0  0  0  0  0  0  0  0
  184.1380  179.3180  144.6020 F   0  0  0  0  0  0  0  0  0  0  0  0
  1 17  1  1  0  0  0
  1  2  1  0  0  0  0
  1 12  1  0  0  0  0
  2 16  1  0  0  0  0
  3  6  1  0  0  0  0
  4  7  1  0  0  0  0
  4  1  1  0  0  0  0
  7  8  1  6  0  0  0
  7 13  1  0  0  0  0
  9 10  1  0  0  0  0
 11 15  1  0  0  0  0
 11  2  2  0  0  0  0
 12  3  1  1  0  0  0
 13 12  1  0  0  0  0
 13  5  1  6  0  0  0
 14  9  1  0  0  0  0
 15 14  2  0  0  0  0
 16  9  2  0  0  0  0
 16  6  1  0  0  0  0
 18 17  1  0  0  0  0
 19 20  1  0  0  0  0
 19 15  1  0  0  0  0
 20 21  1  0  0  0  0
 21 22  1  0  0  0  0
 22 25  1  0  0  0  0
 22 23  1  0  0  0  0
 24 22  1  0  0  0  0
M  END
>  <MODEL>
8

>  <REMARK>
 VINA RESULT:      -6.4      2.227      3.954
  Name = 
  5 active torsions:
  status: ('A' for Active; 'I' for Inactive)
    1  A    between atoms: C_1  and  O_17
    2  A    between atoms: C_2  and  C_21
    3  A    between atoms: C_6  and  C_15
    4  A    between atoms: C_6  and  C_23
    5  A    between atoms: C_15  and  C_21
                            x       y       z     vdW  Elec       q    Type
                         _______ _______ _______ _____ _____    ______ ____

>  <TORSDO>
F 5

$$$$
=
 OpenBabel11052417363D

 25 27  0  0  1  0  0  0  0  0999 V2000
  189.5120  174.2840  142.5770 C   0  0  1  0  0  0  0  0  0  0  0  0
  188.7860  175.4570  143.2050 C   0  0  0  0  0  0  0  0  0  0  0  0
  188.5560  174.7450  140.4130 C   0  0  0  0  0  2  0  0  0  0  0  0
  189.6900  173.0640  143.4870 C   0  0  0  0  0  2  0  0  0  0  0  0
  190.2590  172.4440  140.1490 C   0  0  0  0  0  1  0  0  0  0  0  0
  187.7870  175.9800  140.9060 C   0  0  0  0  0  2  0  0  0  0  0  0
  189.5460  171.8630  142.5560 C   0  0  2  0  0  3  0  0  0  0  0  0
  190.8140  171.0190  142.5550 C   0  0  0  0  0  1  0  0  0  0  0  0
  187.4140  177.4430  142.9500 C   0  0  0  0  0  0  0  0  0  0  0  0
  186.5760  178.3700  142.1360 C   0  0  0  0  0  1  0  0  0  0  0  0
  188.9410  175.7670  144.5600 C   0  0  0  0  0  3  0  0  0  0  0  0
  188.6510  173.7810  141.5090 N   0  0  1  0  0  0  0  0  0  0  0  0
  189.1300  172.4370  141.1900 C   0  0  1  0  0  3  0  0  0  0  0  0
  187.5780  177.7030  144.2740 N   0  0  0  0  0  0  0  0  0  0  0  0
  188.3230  176.9010  145.0820 C   0  0  0  0  0  0  0  0  0  0  0  0
  188.0230  176.3130  142.3740 C   0  0  0  0  0  0  0  0  0  0  0  0
  190.7620  174.6970  142.0310 O   0  0  0  0  0  0  0  0  0  0  0  0
  191.7710  174.6190  143.0070 C   0  0  0  0  0  1  0  0  0  0  0  0
  188.4570  177.2230  146.5270 C   0  0  0  0  0  2  0  0  0  0  0  0
  187.1410  176.9640  147.2410 C   0  0  0  0  0  2  0  0  0  0  0  0
  186.4090  178.2730  147.5020 C   0  0  0  0  0  2  0  0  0  0  0  0
  185.0950  178.3620  146.7330 C   0  0  0  0  0  0  0  0  0  0  0  0
  184.0680  178.5900  147.6260 F   0  0  0  0  0  0  0  0  0  0  0  0
  185.1390  179.4020  145.8230 F   0  0  0  0  0  0  0  0  0  0  0  0
  184.8550  177.1750  146.0640 F   0  0  0  0  0  0  0  0  0  0  0  0
  1 17  1  6  0  0  0
  1  2  1  0  0  0  0
  1  4  1  0  0  0  0
  2 11  1  0  0  0  0
  3  6  1  0  0  0  0
  6 16  1  0  0  0  0
  7  8  1  6  0  0  0
  7  4  1  0  0  0  0
  9 14  2  0  0  0  0
 10  9  1  0  0  0  0
 11 15  2  0  0  0  0
 12  3  1  6  0  0  0
 12  1  1  0  0  0  0
 13  5  1  6  0  0  0
 13 12  1  0  0  0  0
 13  7  1  0  0  0  0
 14 15  1  0  0  0  0
 15 19  1  0  0  0  0
 16  9  1  0  0  0  0
 16  2  2  0  0  0  0
 17 18  1  0  0  0  0
 19 20  1  0  0  0  0
 20 21  1  0  0  0  0
 22 21  1  0  0  0  0
 22 23  1  0  0  0  0
 24 22  1  0  0  0  0
 25 22  1  0  0  0  0
M  END
>  <MODEL>
9

>  <REMARK>
 VINA RESULT:      -6.2      1.911      3.339
  Name = 
  5 active torsions:
  status: ('A' for Active; 'I' for Inactive)
    1  A    between atoms: C_1  and  O_17
    2  A    between atoms: C_2  and  C_21
    3  A    between atoms: C_6  and  C_15
    4  A    between atoms: C_6  and  C_23
    5  A    between atoms: C_15  and  C_21
                            x       y       z     vdW  Elec       q    Type
                         _______ _______ _______ _____ _____    ______ ____

>  <TORSDO>
F 5

$$$$
