=
 OpenBabel11052419523D

 37 43  0  0  1  0  0  0  0  0999 V2000
  189.6680  174.4510  146.1190 C   0  0  0  0  0  2  0  0  0  0  0  0
  185.3340  178.3440  145.0360 C   0  0  0  0  0  2  0  0  0  0  0  0
  187.7820  176.1340  141.9880 C   0  0  0  0  0  0  0  0  0  0  0  0
  190.6640  175.5490  146.5090 C   0  0  2  0  0  3  0  0  0  0  0  0
  189.9910  173.0510  142.1030 O   0  0  0  0  0  0  0  0  0  0  0  0
  186.7670  178.1160  143.0340 C   0  0  0  0  0  0  0  0  0  0  0  0
  188.5610  175.0600  142.4030 C   0  0  0  0  0  0  0  0  0  0  0  0
  187.5310  176.9500  143.1480 C   0  0  2  0  0  3  0  0  0  0  0  0
  188.9890  173.8780  141.5440 C   0  0  1  0  0  3  0  0  0  0  0  0
  186.3020  178.4640  141.8010 N   0  0  0  0  0  0  0  0  0  0  0  0
  192.0580  175.2350  145.9780 C   0  0  0  0  0  2  0  0  0  0  0  0
  188.1520  176.3640  144.2340 C   0  0  0  0  0  0  0  0  0  0  0  0
  186.6860  176.5680  146.2190 C   0  0  0  0  0  2  0  0  0  0  0  0
  187.5340  175.8590  139.5270 O   0  0  0  0  0  0  0  0  0  0  0  0
  186.5530  177.7250  140.6790 C   0  0  0  0  0  3  0  0  0  0  0  0
  188.0580  176.8670  145.6390 C   0  0  0  0  0  2  0  0  0  0  0  0
  192.0220  175.0710  144.4600 C   0  0  0  0  0  2  0  0  0  0  0  0
  191.0650  173.8530  142.5190 C   0  0  0  0  0  2  0  0  0  0  0  0
  187.2980  176.5360  140.7300 C   0  0  0  0  0  0  0  0  0  0  0  0
  188.8070  175.2040  143.7830 C   0  0  0  0  0  0  0  0  0  0  0  0
  186.4390  178.9800  144.2070 C   0  0  0  0  0  2  0  0  0  0  0  0
  189.2510  174.2390  140.0790 C   0  0  2  0  0  3  0  0  0  0  0  0
  185.8780  177.8500  146.3710 C   0  0  0  0  0  2  0  0  0  0  0  0
  191.0700  173.9410  144.0440 C   0  0  2  0  0  0  0  0  0  0  0  0
  189.6430  174.2170  144.5990 C   0  0  1  0  0  3  0  0  0  0  0  0
  187.9110  174.4950  139.4160 C   0  0  0  0  0  2  0  0  0  0  0  0
  191.3070  173.3790  138.9470 C   0  0  0  0  0  3  0  0  0  0  0  0
  189.9810  173.1570  139.3360 C   0  0  0  0  0  0  0  0  0  0  0  0
  189.3680  171.9300  139.0370 C   0  0  0  0  0  3  0  0  0  0  0  0
  189.4810  169.7560  138.0680 F   0  0  0  0  0  0  0  0  0  0  0  0
  191.3990  171.1660  137.9670 C   0  0  0  0  0  3  0  0  0  0  0  0
  190.0760  170.9380  138.3540 C   0  0  0  0  0  0  0  0  0  0  0  0
  192.0150  172.3860  138.2630 C   0  0  0  0  0  3  0  0  0  0  0  0
  191.5630  172.5960  144.5980 C   0  0  0  0  0  2  0  0  0  0  0  0
  192.8290  172.2740  144.0990 O   0  0  0  0  0  1  0  0  0  0  0  0
  191.3700  176.8720  148.1380 C   0  0  0  0  0  1  0  0  0  0  0  0
  190.7090  175.6660  147.9000 O   0  0  0  0  0  0  0  0  0  0  0  0
  1  4  1  0  0  0  0
  2 23  1  0  0  0  0
  3  7  2  0  0  0  0
  4 37  1  1  0  0  0
  5 18  1  0  0  0  0
  6  8  1  0  0  0  0
  6 21  1  0  0  0  0
  7 20  1  0  0  0  0
  8  3  1  6  0  0  0
  8 12  1  0  0  0  0
  9  5  1  1  0  0  0
  9  7  1  0  0  0  0
 10  6  2  0  0  0  0
 11  4  1  0  0  0  0
 12 16  1  0  0  0  0
 13 23  1  0  0  0  0
 14 19  1  0  0  0  0
 15 19  2  0  0  0  0
 15 10  1  0  0  0  0
 16 13  1  0  0  0  0
 17 11  1  0  0  0  0
 18 24  1  0  0  0  0
 19  3  1  0  0  0  0
 20 12  2  0  0  0  0
 20 25  1  0  0  0  0
 21  2  1  0  0  0  0
 22 28  1  6  0  0  0
 22  9  1  0  0  0  0
 24 17  1  0  0  0  0
 24 34  1  1  0  0  0
 24 25  1  0  0  0  0
 25  1  1  1  0  0  0
 26 14  1  0  0  0  0
 26 22  1  0  0  0  0
 27 28  1  0  0  0  0
 29 28  2  0  0  0  0
 30 32  1  0  0  0  0
 31 33  1  0  0  0  0
 31 32  2  0  0  0  0
 32 29  1  0  0  0  0
 33 27  2  0  0  0  0
 35 34  1  0  0  0  0
 37 36  1  0  0  0  0
M  END
>  <MODEL>
1

>  <REMARK>
 VINA RESULT:      -8.8      0.000      0.000
  Name = 
  3 active torsions:
  status: ('A' for Active; 'I' for Inactive)
    1  A    between atoms: C_5  and  O_23
    2  A    between atoms: C_6  and  C_31
    3  A    between atoms: C_11  and  C_33
                            x       y       z     vdW  Elec       q    Type
                         _______ _______ _______ _____ _____    ______ ____

>  <TORSDO>
F 3

$$$$
=
 OpenBabel11052419523D

 37 43  0  0  1  0  0  0  0  0999 V2000
  190.3640  175.0380  147.0970 C   0  0  0  0  0  2  0  0  0  0  0  0
  185.3040  177.8740  145.8870 C   0  0  0  0  0  2  0  0  0  0  0  0
  188.1120  176.0060  142.9200 C   0  0  0  0  0  0  0  0  0  0  0  0
  191.1170  176.3420  147.3860 C   0  0  2  0  0  3  0  0  0  0  0  0
  190.9120  173.4570  143.1740 O   0  0  0  0  0  0  0  0  0  0  0  0
  186.7240  177.8060  143.8640 C   0  0  0  0  0  0  0  0  0  0  0  0
  189.1020  175.1460  143.3830 C   0  0  0  0  0  0  0  0  0  0  0  0
  187.7140  176.8320  144.0320 C   0  0  2  0  0  3  0  0  0  0  0  0
  189.7520  174.0210  142.5900 C   0  0  1  0  0  3  0  0  0  0  0  0
  186.1800  177.9640  142.6250 N   0  0  0  0  0  0  0  0  0  0  0  0
  192.5380  176.2840  146.8370 C   0  0  0  0  0  2  0  0  0  0  0  0
  188.4590  176.4630  145.1350 C   0  0  0  0  0  0  0  0  0  0  0  0
  187.0100  176.5000  147.1440 C   0  0  0  0  0  2  0  0  0  0  0  0
  187.8910  175.5150  140.4910 O   0  0  0  0  0  0  0  0  0  0  0  0
  186.5620  177.2160  141.5460 C   0  0  0  0  0  3  0  0  0  0  0  0
  188.2830  177.0320  146.5070 C   0  0  0  0  0  2  0  0  0  0  0  0
  192.5150  176.0100  145.3350 C   0  0  0  0  0  2  0  0  0  0  0  0
  191.8020  174.4900  143.5050 C   0  0  0  0  0  2  0  0  0  0  0  0
  187.5370  176.2110  141.6530 C   0  0  0  0  0  0  0  0  0  0  0  0
  189.3320  175.4340  144.7420 C   0  0  0  0  0  0  0  0  0  0  0  0
  186.2410  178.6630  144.9860 C   0  0  0  0  0  2  0  0  0  0  0  0
  189.9130  174.3240  141.0980 C   0  0  2  0  0  3  0  0  0  0  0  0
  185.9580  177.5960  147.2340 C   0  0  0  0  0  2  0  0  0  0  0  0
  191.8110  174.6830  145.0200 C   0  0  2  0  0  0  0  0  0  0  0  0
  190.3660  174.6980  145.5970 C   0  0  1  0  0  3  0  0  0  0  0  0
  188.5390  174.2530  140.4580 C   0  0  0  0  0  2  0  0  0  0  0  0
  192.0890  173.8260  139.9720 C   0  0  0  0  0  3  0  0  0  0  0  0
  190.8400  173.3660  140.4070 C   0  0  0  0  0  0  0  0  0  0  0  0
  190.4870  172.0240  140.2010 C   0  0  0  0  0  3  0  0  0  0  0  0
  191.0300  169.8580  139.3660 F   0  0  0  0  0  0  0  0  0  0  0  0
  192.6190  171.6180  139.1310 C   0  0  0  0  0  3  0  0  0  0  0  0
  191.3750  171.1520  139.5640 C   0  0  0  0  0  0  0  0  0  0  0  0
  192.9760  172.9540  139.3350 C   0  0  0  0  0  3  0  0  0  0  0  0
  192.5790  173.5100  145.6460 C   0  0  0  0  0  2  0  0  0  0  0  0
  193.8780  173.4220  145.1370 O   0  0  0  0  0  1  0  0  0  0  0  0
  191.5020  177.9070  148.9030 C   0  0  0  0  0  1  0  0  0  0  0  0
  191.1570  176.5610  148.7640 O   0  0  0  0  0  0  0  0  0  0  0  0
  1  4  1  0  0  0  0
  2 23  1  0  0  0  0
  3  7  2  0  0  0  0
  4 37  1  1  0  0  0
  5 18  1  0  0  0  0
  6  8  1  0  0  0  0
  6 21  1  0  0  0  0
  7 20  1  0  0  0  0
  8  3  1  6  0  0  0
  8 12  1  0  0  0  0
  9  5  1  1  0  0  0
  9  7  1  0  0  0  0
 10  6  2  0  0  0  0
 11  4  1  0  0  0  0
 12 16  1  0  0  0  0
 13 23  1  0  0  0  0
 14 19  1  0  0  0  0
 15 19  2  0  0  0  0
 15 10  1  0  0  0  0
 16 13  1  0  0  0  0
 17 11  1  0  0  0  0
 18 24  1  0  0  0  0
 19  3  1  0  0  0  0
 20 12  2  0  0  0  0
 20 25  1  0  0  0  0
 21  2  1  0  0  0  0
 22 28  1  6  0  0  0
 22  9  1  0  0  0  0
 24 17  1  0  0  0  0
 24 25  1  0  0  0  0
 24 34  1  1  0  0  0
 25  1  1  1  0  0  0
 26 14  1  0  0  0  0
 26 22  1  0  0  0  0
 27 28  1  0  0  0  0
 29 28  2  0  0  0  0
 30 32  1  0  0  0  0
 31 33  1  0  0  0  0
 31 32  2  0  0  0  0
 32 29  1  0  0  0  0
 33 27  2  0  0  0  0
 35 34  1  0  0  0  0
 37 36  1  0  0  0  0
M  END
>  <MODEL>
2

>  <REMARK>
 VINA RESULT:      -8.8      1.186      1.310
  Name = 
  3 active torsions:
  status: ('A' for Active; 'I' for Inactive)
    1  A    between atoms: C_5  and  O_23
    2  A    between atoms: C_6  and  C_31
    3  A    between atoms: C_11  and  C_33
                            x       y       z     vdW  Elec       q    Type
                         _______ _______ _______ _____ _____    ______ ____

>  <TORSDO>
F 3

$$$$
=
 OpenBabel11052419523D

 37 43  0  0  1  0  0  0  0  0999 V2000
  192.8080  176.3190  145.2780 C   0  0  0  0  0  2  0  0  0  0  0  0
  193.2000  173.7600  139.9480 C   0  0  0  0  0  2  0  0  0  0  0  0
  189.4720  175.3110  141.9150 C   0  0  0  0  0  0  0  0  0  0  0  0
  192.9590  174.9840  146.0160 C   0  0  2  0  0  3  0  0  0  0  0  0
  188.7960  177.6850  144.7970 O   0  0  0  0  0  0  0  0  0  0  0  0
  190.8650  173.6470  140.7550 C   0  0  0  0  0  0  0  0  0  0  0  0
  189.5930  176.1260  143.0340 C   0  0  2  0  0  3  0  0  0  0  0  0
  190.6970  174.5620  141.7990 C   0  0  0  0  0  0  0  0  0  0  0  0
  188.5870  177.1710  143.4950 C   0  0  1  0  0  3  0  0  0  0  0  0
  189.8340  173.4680  139.8820 N   0  0  0  0  0  0  0  0  0  0  0  0
  192.0390  174.9260  147.2310 C   0  0  0  0  0  2  0  0  0  0  0  0
  191.5310  174.9320  142.8370 C   0  0  0  0  0  0  0  0  0  0  0  0
  193.8570  175.0770  142.0000 C   0  0  0  0  0  2  0  0  0  0  0  0
  187.1700  175.7060  141.0550 O   0  0  0  0  0  0  0  0  0  0  0  0
  188.6490  174.1420  139.9880 C   0  0  0  0  0  3  0  0  0  0  0  0
  192.9300  174.4370  143.0200 C   0  0  0  0  0  2  0  0  0  0  0  0
  190.5870  175.1340  146.8070 C   0  0  0  0  0  2  0  0  0  0  0  0
  188.9330  176.6130  145.6930 C   0  0  0  0  0  2  0  0  0  0  0  0
  188.4250  175.0860  141.0030 C   0  0  0  0  0  0  0  0  0  0  0  0
  190.8530  175.8850  143.6170 C   0  0  0  0  0  0  0  0  0  0  0  0
  192.1260  172.8730  140.5600 C   0  0  0  0  0  2  0  0  0  0  0  0
  187.1280  176.7910  143.2220 C   0  0  2  0  0  3  0  0  0  0  0  0
  194.2980  174.0550  140.9610 C   0  0  0  0  0  2  0  0  0  0  0  0
  190.3970  176.4880  146.1100 C   0  0  2  0  0  0  0  0  0  0  0  0
  191.3470  176.5910  144.8820 C   0  0  1  0  0  3  0  0  0  0  0  0
  186.8850  176.9210  141.7300 C   0  0  0  0  0  2  0  0  0  0  0  0
  185.9310  178.9650  143.5240 C   0  0  0  0  0  3  0  0  0  0  0  0
  186.1540  177.6570  143.9680 C   0  0  0  0  0  0  0  0  0  0  0  0
  185.4580  177.1770  145.0890 C   0  0  0  0  0  3  0  0  0  0  0  0
  183.8800  177.5370  146.8390 F   0  0  0  0  0  0  0  0  0  0  0  0
  184.3310  179.3080  145.3100 C   0  0  0  0  0  3  0  0  0  0  0  0
  184.5490  178.0030  145.7580 C   0  0  0  0  0  0  0  0  0  0  0  0
  185.0220  179.7890  144.1940 C   0  0  0  0  0  3  0  0  0  0  0  0
  190.7180  177.6370  147.0780 C   0  0  0  0  0  2  0  0  0  0  0  0
  189.6080  177.9640  147.8640 O   0  0  0  0  0  1  0  0  0  0  0  0
  194.9760  175.8730  145.8180 C   0  0  0  0  0  1  0  0  0  0  0  0
  194.2840  174.8240  146.4250 O   0  0  0  0  0  0  0  0  0  0  0  0
  1  4  1  0  0  0  0
  2 21  1  0  0  0  0
  2 23  1  0  0  0  0
  4 37  1  1  0  0  0
  4 11  1  0  0  0  0
  5 18  1  0  0  0  0
  6  8  1  0  0  0  0
  7  3  1  6  0  0  0
  7  9  1  0  0  0  0
  7 20  1  0  0  0  0
  8  3  2  0  0  0  0
  8 12  1  0  0  0  0
  9  5  1  1  0  0  0
 10 15  1  0  0  0  0
 10  6  2  0  0  0  0
 12 16  1  0  0  0  0
 12 20  2  0  0  0  0
 13 16  1  0  0  0  0
 14 26  1  0  0  0  0
 15 19  2  0  0  0  0
 17 11  1  0  0  0  0
 18 24  1  0  0  0  0
 19 14  1  0  0  0  0
 19  3  1  0  0  0  0
 20 25  1  0  0  0  0
 21  6  1  0  0  0  0
 22  9  1  0  0  0  0
 22 28  1  1  0  0  0
 23 13  1  0  0  0  0
 24 17  1  0  0  0  0
 24 34  1  1  0  0  0
 25  1  1  1  0  0  0
 25 24  1  0  0  0  0
 26 22  1  0  0  0  0
 27 28  2  0  0  0  0
 27 33  1  0  0  0  0
 28 29  1  0  0  0  0
 29 32  2  0  0  0  0
 31 32  1  0  0  0  0
 32 30  1  0  0  0  0
 33 31  2  0  0  0  0
 34 35  1  0  0  0  0
 36 37  1  0  0  0  0
M  END
>  <MODEL>
3

>  <REMARK>
 VINA RESULT:      -8.7      3.020      6.715
  Name = 
  3 active torsions:
  status: ('A' for Active; 'I' for Inactive)
    1  A    between atoms: C_5  and  O_23
    2  A    between atoms: C_6  and  C_31
    3  A    between atoms: C_11  and  C_33
                            x       y       z     vdW  Elec       q    Type
                         _______ _______ _______ _____ _____    ______ ____

>  <TORSDO>
F 3

$$$$
=
 OpenBabel11052419523D

 37 43  0  0  1  0  0  0  0  0999 V2000
  189.5630  175.5390  146.1680 C   0  0  0  0  0  2  0  0  0  0  0  0
  184.8920  178.6410  144.2530 C   0  0  0  0  0  2  0  0  0  0  0  0
  187.7420  176.2490  141.7370 C   0  0  0  0  0  0  0  0  0  0  0  0
  190.4060  176.8000  146.3940 C   0  0  2  0  0  3  0  0  0  0  0  0
  190.2700  173.5190  142.4790 O   0  0  0  0  0  0  0  0  0  0  0  0
  186.4530  178.2460  142.3770 C   0  0  0  0  0  0  0  0  0  0  0  0
  188.6100  175.3630  142.3650 C   0  0  0  0  0  0  0  0  0  0  0  0
  187.3350  177.2160  142.7240 C   0  0  2  0  0  3  0  0  0  0  0  0
  189.2160  174.1120  141.7450 C   0  0  1  0  0  3  0  0  0  0  0  0
  186.0250  178.3190  141.0860 N   0  0  0  0  0  0  0  0  0  0  0  0
  191.8550  176.5680  145.9780 C   0  0  0  0  0  2  0  0  0  0  0  0
  187.9540  176.9040  143.9190 C   0  0  0  0  0  0  0  0  0  0  0  0
  186.3630  177.2700  145.7810 C   0  0  0  0  0  2  0  0  0  0  0  0
  187.6680  175.5280  139.3570 O   0  0  0  0  0  0  0  0  0  0  0  0
  186.4210  177.4330  140.1220 C   0  0  0  0  0  3  0  0  0  0  0  0
  187.7250  177.6260  145.2080 C   0  0  0  0  0  2  0  0  0  0  0  0
  191.9240  176.1420  144.5140 C   0  0  0  0  0  2  0  0  0  0  0  0
  191.2220  174.5040  142.7850 C   0  0  0  0  0  2  0  0  0  0  0  0
  187.2890  176.3680  140.4110 C   0  0  0  0  0  0  0  0  0  0  0  0
  188.7590  175.7710  143.7050 C   0  0  0  0  0  0  0  0  0  0  0  0
  185.9640  179.2520  143.3650 C   0  0  0  0  0  2  0  0  0  0  0  0
  189.5200  174.2440  140.2500 C   0  0  2  0  0  3  0  0  0  0  0  0
  185.4100  178.4520  145.6730 C   0  0  0  0  0  2  0  0  0  0  0  0
  191.1300  174.8520  144.2690 C   0  0  2  0  0  0  0  0  0  0  0  0
  189.6520  175.0460  144.7140 C   0  0  1  0  0  3  0  0  0  0  0  0
  188.2000  174.2210  139.5030 C   0  0  0  0  0  2  0  0  0  0  0  0
  189.9010  171.8440  139.6630 C   0  0  0  0  0  3  0  0  0  0  0  0
  190.4080  173.1460  139.7380 C   0  0  0  0  0  0  0  0  0  0  0  0
  191.7250  173.4020  139.3260 C   0  0  0  0  0  3  0  0  0  0  0  0
  193.7950  172.6120  138.4480 F   0  0  0  0  0  0  0  0  0  0  0  0
  192.0130  171.0640  138.7730 C   0  0  0  0  0  3  0  0  0  0  0  0
  192.5250  172.3620  138.8450 C   0  0  0  0  0  0  0  0  0  0  0  0
  190.7020  170.8050  139.1820 C   0  0  0  0  0  3  0  0  0  0  0  0
  191.7370  173.6910  145.0710 C   0  0  0  0  0  2  0  0  0  0  0  0
  193.0600  173.4470  144.6900 O   0  0  0  0  0  1  0  0  0  0  0  0
  191.4830  176.5580  148.3130 C   0  0  0  0  0  1  0  0  0  0  0  0
  190.3580  177.1570  147.7420 O   0  0  0  0  0  0  0  0  0  0  0  0
  1  4  1  0  0  0  0
  2 23  1  0  0  0  0
  3  7  2  0  0  0  0
  4 37  1  1  0  0  0
  5 18  1  0  0  0  0
  6  8  1  0  0  0  0
  6 21  1  0  0  0  0
  7 20  1  0  0  0  0
  8  3  1  6  0  0  0
  8 12  1  0  0  0  0
  9  7  1  1  0  0  0
  9  5  1  0  0  0  0
 10  6  2  0  0  0  0
 11  4  1  0  0  0  0
 12 16  1  0  0  0  0
 14 26  1  0  0  0  0
 14 19  1  0  0  0  0
 15 19  2  0  0  0  0
 15 10  1  0  0  0  0
 16 13  1  0  0  0  0
 17 11  1  0  0  0  0
 18 24  1  0  0  0  0
 19  3  1  0  0  0  0
 20 12  2  0  0  0  0
 20 25  1  0  0  0  0
 21  2  1  0  0  0  0
 22 28  1  6  0  0  0
 22  9  1  0  0  0  0
 23 13  1  0  0  0  0
 24 17  1  0  0  0  0
 24 25  1  0  0  0  0
 24 34  1  1  0  0  0
 25  1  1  1  0  0  0
 26 22  1  0  0  0  0
 27 28  1  0  0  0  0
 29 28  2  0  0  0  0
 30 32  1  0  0  0  0
 31 32  2  0  0  0  0
 31 33  1  0  0  0  0
 32 29  1  0  0  0  0
 33 27  2  0  0  0  0
 35 34  1  0  0  0  0
 37 36  1  0  0  0  0
M  END
>  <MODEL>
4

>  <REMARK>
 VINA RESULT:      -8.7      1.192      1.438
  Name = 
  3 active torsions:
  status: ('A' for Active; 'I' for Inactive)
    1  A    between atoms: C_5  and  O_23
    2  A    between atoms: C_6  and  C_31
    3  A    between atoms: C_11  and  C_33
                            x       y       z     vdW  Elec       q    Type
                         _______ _______ _______ _____ _____    ______ ____

>  <TORSDO>
F 3

$$$$
=
 OpenBabel11052419523D

 37 43  0  0  1  0  0  0  0  0999 V2000
  191.2100  170.9530  142.8910 C   0  0  0  0  0  2  0  0  0  0  0  0
  196.3180  171.9030  145.7390 C   0  0  0  0  0  2  0  0  0  0  0  0
  192.7780  174.6620  145.5810 C   0  0  0  0  0  0  0  0  0  0  0  0
  191.8310  171.2430  141.5190 C   0  0  2  0  0  3  0  0  0  0  0  0
  189.1220  174.2220  144.6660 O   0  0  0  0  0  0  0  0  0  0  0  0
  195.1540  174.0540  145.3800 C   0  0  0  0  0  0  0  0  0  0  0  0
  191.5670  174.1730  145.1060 C   0  0  0  0  0  0  0  0  0  0  0  0
  193.8140  173.8030  145.0670 C   0  0  0  0  0  0  0  0  0  0  0  0
  190.1850  174.6970  145.4710 C   0  0  1  0  0  3  0  0  0  0  0  0
  195.4440  175.1410  146.1500 N   0  0  0  0  0  2  0  0  0  0  0  0
  190.8660  172.0300  140.6400 C   0  0  0  0  0  2  0  0  0  0  0  0
  193.2210  172.8190  144.3000 C   0  0  0  0  0  0  0  0  0  0  0  0
  194.3750  170.6660  144.7040 C   0  0  0  0  0  2  0  0  0  0  0  0
  192.2070  176.7210  146.8570 O   0  0  0  0  0  0  0  0  0  0  0  0
  194.4830  175.9900  146.6230 C   0  0  0  0  0  3  0  0  0  0  0  0
  193.9540  171.6850  143.6580 C   0  0  0  0  0  2  0  0  0  0  0  0
  190.4680  173.3350  141.3250 C   0  0  0  0  0  2  0  0  0  0  0  0
  189.4520  174.4170  143.3160 C   0  0  0  0  0  2  0  0  0  0  0  0
  193.1200  175.7830  146.3600 C   0  0  0  0  0  0  0  0  0  0  0  0
  191.8330  173.0480  144.3020 C   0  0  0  0  0  0  0  0  0  0  0  0
  196.2670  173.1770  144.9110 C   0  0  0  0  0  2  0  0  0  0  0  0
  190.1360  176.2090  145.7060 C   0  0  2  0  0  3  0  0  0  0  0  0
  195.8830  170.7010  144.9100 C   0  0  0  0  0  2  0  0  0  0  0  0
  189.7960  173.0720  142.6800 C   0  0  2  0  0  0  0  0  0  0  0  0
  190.7450  172.2410  143.5910 C   0  0  1  0  0  3  0  0  0  0  0  0
  190.8160  176.4960  147.0310 C   0  0  0  0  0  2  0  0  0  0  0  0
  187.8840  176.3740  146.7800 C   0  0  0  0  0  3  0  0  0  0  0  0
  188.7340  176.7470  145.7330 C   0  0  0  0  0  0  0  0  0  0  0  0
  188.2660  177.6220  144.7390 C   0  0  0  0  0  3  0  0  0  0  0  0
  186.5110  178.9580  143.8360 F   0  0  0  0  0  0  0  0  0  0  0  0
  186.1150  177.7370  145.8440 C   0  0  0  0  0  3  0  0  0  0  0  0
  186.9590  178.1150  144.7960 C   0  0  0  0  0  0  0  0  0  0  0  0
  186.5770  176.8670  146.8360 C   0  0  0  0  0  3  0  0  0  0  0  0
  188.4900  172.2880  142.4850 C   0  0  0  0  0  2  0  0  0  0  0  0
  187.5320  173.0530  141.8120 O   0  0  0  0  0  1  0  0  0  0  0  0
  191.0470  169.2190  141.0850 C   0  0  0  0  0  1  0  0  0  0  0  0
  192.1590  170.0400  140.8920 O   0  0  0  0  0  0  0  0  0  0  0  0
  3 19  1  0  0  0  0
  4 37  1  6  0  0  0
  4  1  1  0  0  0  0
  6 10  1  0  0  0  0
  7  9  1  0  0  0  0
  7  3  2  0  0  0  0
  8  6  2  0  0  0  0
  8  3  1  0  0  0  0
  9  5  1  6  0  0  0
  9 22  1  0  0  0  0
 10 15  1  0  0  0  0
 11 17  1  0  0  0  0
 11  4  1  0  0  0  0
 12 20  2  0  0  0  0
 12  8  1  0  0  0  0
 13 23  1  0  0  0  0
 14 26  1  0  0  0  0
 16 12  1  0  0  0  0
 16 13  1  0  0  0  0
 17 24  1  0  0  0  0
 18  5  1  0  0  0  0
 19 15  2  0  0  0  0
 19 14  1  0  0  0  0
 20  7  1  0  0  0  0
 21  6  1  0  0  0  0
 21  2  1  0  0  0  0
 22 28  1  1  0  0  0
 22 26  1  0  0  0  0
 23  2  1  0  0  0  0
 24 34  1  6  0  0  0
 24 18  1  0  0  0  0
 24 25  1  0  0  0  0
 25  1  1  6  0  0  0
 25 20  1  0  0  0  0
 27 33  1  0  0  0  0
 28 27  2  0  0  0  0
 29 32  2  0  0  0  0
 29 28  1  0  0  0  0
 30 32  1  0  0  0  0
 31 33  2  0  0  0  0
 32 31  1  0  0  0  0
 35 34  1  0  0  0  0
 37 36  1  0  0  0  0
M  END
>  <MODEL>
5

>  <REMARK>
 VINA RESULT:      -8.6      3.458      8.090
  Name = 
  3 active torsions:
  status: ('A' for Active; 'I' for Inactive)
    1  A    between atoms: C_5  and  O_23
    2  A    between atoms: C_6  and  C_31
    3  A    between atoms: C_11  and  C_33
                            x       y       z     vdW  Elec       q    Type
                         _______ _______ _______ _____ _____    ______ ____

>  <TORSDO>
F 3

$$$$
=
 OpenBabel11052419523D

 37 43  0  0  1  0  0  0  0  0999 V2000
  189.6890  174.1670  140.8530 C   0  0  0  0  0  2  0  0  0  0  0  0
  186.7340  177.9090  144.3730 C   0  0  0  0  0  2  0  0  0  0  0  0
  190.7540  176.0720  145.1770 C   0  0  0  0  0  0  0  0  0  0  0  0
  188.7820  172.9860  141.2170 C   0  0  2  0  0  3  0  0  0  0  0  0
  193.3630  174.3700  143.0100 O   0  0  0  0  0  0  0  0  0  0  0  0
  188.4270  176.6840  145.6950 C   0  0  0  0  0  0  0  0  0  0  0  0
  191.4240  175.4420  144.1340 C   0  0  0  0  0  0  0  0  0  0  0  0
  189.3570  176.1050  144.8250 C   0  0  0  0  0  0  0  0  0  0  0  0
  192.9320  175.2700  144.0140 C   0  0  1  0  0  3  0  0  0  0  0  0
  188.8770  177.1800  146.8820 N   0  0  0  0  0  2  0  0  0  0  0  0
  189.5920  171.7020  141.3610 C   0  0  0  0  0  2  0  0  0  0  0  0
  189.2060  175.5030  143.5900 C   0  0  0  0  0  0  0  0  0  0  0  0
  187.5360  176.7660  142.2680 C   0  0  0  0  0  2  0  0  0  0  0  0
  192.4920  176.5440  146.8930 O   0  0  0  0  0  0  0  0  0  0  0  0
  190.1920  177.1320  147.2540 C   0  0  0  0  0  3  0  0  0  0  0  0
  187.9140  175.4110  142.8430 C   0  0  0  0  0  2  0  0  0  0  0  0
  190.6800  171.8770  142.4180 C   0  0  0  0  0  2  0  0  0  0  0  0
  192.6750  173.1560  143.1620 C   0  0  0  0  0  2  0  0  0  0  0  0
  191.1760  176.5810  146.4180 C   0  0  0  0  0  0  0  0  0  0  0  0
  190.4740  175.0740  143.1620 C   0  0  0  0  0  0  0  0  0  0  0  0
  186.9740  176.7840  145.3680 C   0  0  0  0  0  2  0  0  0  0  0  0
  193.6430  175.0660  145.3550 C   0  0  2  0  0  3  0  0  0  0  0  0
  186.3420  177.3500  143.0110 C   0  0  0  0  0  2  0  0  0  0  0  0
  191.6340  173.0220  142.0510 C   0  0  2  0  0  0  0  0  0  0  0  0
  190.8330  174.3430  141.8660 C   0  0  1  0  0  3  0  0  0  0  0  0
  193.6500  176.3950  146.0850 C   0  0  0  0  0  2  0  0  0  0  0  0
  195.9660  175.3480  144.4750 C   0  0  0  0  0  3  0  0  0  0  0  0
  195.0520  174.5710  145.1950 C   0  0  0  0  0  0  0  0  0  0  0  0
  195.4710  173.3560  145.7620 C   0  0  0  0  0  3  0  0  0  0  0  0
  197.1910  171.7540  146.1530 F   0  0  0  0  0  0  0  0  0  0  0  0
  197.6980  173.7070  144.8840 C   0  0  0  0  0  3  0  0  0  0  0  0
  196.7910  172.9260  145.6050 C   0  0  0  0  0  0  0  0  0  0  0  0
  197.2860  174.9170  144.3190 C   0  0  0  0  0  3  0  0  0  0  0  0
  192.3710  172.7050  140.7420 C   0  0  0  0  0  2  0  0  0  0  0  0
  193.1420  171.5450  140.8600 O   0  0  0  0  0  1  0  0  0  0  0  0
  188.5340  172.6670  139.0410 C   0  0  0  0  0  1  0  0  0  0  0  0
  187.8130  172.8180  140.2270 O   0  0  0  0  0  0  0  0  0  0  0  0
  1  4  1  0  0  0  0
  2 21  1  0  0  0  0
  3 19  1  0  0  0  0
  4 37  1  6  0  0  0
  4 11  1  0  0  0  0
  5 18  1  0  0  0  0
  6 10  1  0  0  0  0
  7  3  2  0  0  0  0
  8  3  1  0  0  0  0
  8  6  2  0  0  0  0
  9  5  1  6  0  0  0
  9  7  1  0  0  0  0
  9 22  1  0  0  0  0
 10 15  1  0  0  0  0
 11 17  1  0  0  0  0
 12  8  1  0  0  0  0
 13 16  1  0  0  0  0
 13 23  1  0  0  0  0
 16 12  1  0  0  0  0
 19 14  1  0  0  0  0
 19 15  2  0  0  0  0
 20 12  2  0  0  0  0
 20  7  1  0  0  0  0
 21  6  1  0  0  0  0
 22 28  1  6  0  0  0
 22 26  1  0  0  0  0
 23  2  1  0  0  0  0
 24 34  1  6  0  0  0
 24 17  1  0  0  0  0
 24 18  1  0  0  0  0
 25  1  1  1  0  0  0
 25 24  1  0  0  0  0
 25 20  1  0  0  0  0
 26 14  1  0  0  0  0
 27 28  1  0  0  0  0
 28 29  2  0  0  0  0
 31 32  2  0  0  0  0
 32 29  1  0  0  0  0
 32 30  1  0  0  0  0
 33 27  2  0  0  0  0
 33 31  1  0  0  0  0
 34 35  1  0  0  0  0
 36 37  1  0  0  0  0
M  END
>  <MODEL>
6

>  <REMARK>
 VINA RESULT:      -8.3      3.159      6.225
  Name = 
  3 active torsions:
  status: ('A' for Active; 'I' for Inactive)
    1  A    between atoms: C_5  and  O_23
    2  A    between atoms: C_6  and  C_31
    3  A    between atoms: C_11  and  C_33
                            x       y       z     vdW  Elec       q    Type
                         _______ _______ _______ _____ _____    ______ ____

>  <TORSDO>
F 3

$$$$
=
 OpenBabel11052419523D

 37 43  0  0  1  0  0  0  0  0999 V2000
  193.9330  175.8480  144.0060 C   0  0  0  0  0  2  0  0  0  0  0  0
  192.7800  173.7970  138.5680 C   0  0  0  0  0  2  0  0  0  0  0  0
  189.7710  174.9980  141.6790 C   0  0  0  0  0  0  0  0  0  0  0  0
  194.3160  174.4600  144.5330 C   0  0  2  0  0  3  0  0  0  0  0  0
  189.9360  177.0720  144.8520 O   0  0  0  0  0  0  0  0  0  0  0  0
  190.7880  173.5090  140.0050 C   0  0  0  0  0  0  0  0  0  0  0  0
  190.2040  175.7140  142.7890 C   0  0  2  0  0  3  0  0  0  0  0  0
  190.9210  174.3180  141.1380 C   0  0  0  0  0  0  0  0  0  0  0  0
  189.3610  176.6680  143.6240 C   0  0  1  0  0  3  0  0  0  0  0  0
  189.5490  173.3630  139.4570 N   0  0  0  0  0  0  0  0  0  0  0  0
  193.7960  174.2530  145.9510 C   0  0  0  0  0  2  0  0  0  0  0  0
  192.0170  174.6300  141.9180 C   0  0  0  0  0  0  0  0  0  0  0  0
  193.9910  174.9520  140.4580 C   0  0  0  0  0  2  0  0  0  0  0  0
  187.3130  175.3660  141.5700 O   0  0  0  0  0  0  0  0  0  0  0  0
  188.4370  173.9710  139.9700 C   0  0  0  0  0  3  0  0  0  0  0  0
  193.4160  174.1830  141.6360 C   0  0  0  0  0  2  0  0  0  0  0  0
  192.2810  174.4330  145.9910 C   0  0  0  0  0  2  0  0  0  0  0  0
  190.3480  175.9310  145.5590 C   0  0  0  0  0  2  0  0  0  0  0  0
  188.5060  174.8100  141.0940 C   0  0  0  0  0  0  0  0  0  0  0  0
  191.5830  175.4780  142.9530 C   0  0  0  0  0  0  0  0  0  0  0  0
  191.9490  172.8120  139.3750 C   0  0  0  0  0  2  0  0  0  0  0  0
  187.8930  176.2500  143.7510 C   0  0  2  0  0  3  0  0  0  0  0  0
  194.1230  174.0480  139.2400 C   0  0  0  0  0  2  0  0  0  0  0  0
  191.8720  175.8350  145.5170 C   0  0  2  0  0  0  0  0  0  0  0  0
  192.4160  176.0890  144.0820 C   0  0  1  0  0  3  0  0  0  0  0  0
  187.2200  176.5020  142.4160 C   0  0  0  0  0  2  0  0  0  0  0  0
  186.6660  178.2770  144.5500 C   0  0  0  0  0  3  0  0  0  0  0  0
  187.1680  177.0010  144.8310 C   0  0  0  0  0  0  0  0  0  0  0  0
  186.9740  176.4460  146.1060 C   0  0  0  0  0  3  0  0  0  0  0  0
  186.1010  176.6250  148.3160 F   0  0  0  0  0  0  0  0  0  0  0  0
  185.7880  178.4380  146.8010 C   0  0  0  0  0  3  0  0  0  0  0  0
  186.2860  177.1640  147.0880 C   0  0  0  0  0  0  0  0  0  0  0  0
  185.9780  178.9940  145.5330 C   0  0  0  0  0  3  0  0  0  0  0  0
  192.4440  176.9050  146.4580 C   0  0  0  0  0  2  0  0  0  0  0  0
  191.9480  176.7580  147.7570 O   0  0  0  0  0  1  0  0  0  0  0  0
  196.0680  174.2120  145.8630 C   0  0  0  0  0  1  0  0  0  0  0  0
  195.7050  174.3230  144.5190 O   0  0  0  0  0  0  0  0  0  0  0  0
  1  4  1  0  0  0  0
  2 23  1  0  0  0  0
  2 21  1  0  0  0  0
  4 37  1  1  0  0  0
  4 11  1  0  0  0  0
  5 18  1  0  0  0  0
  6  8  1  0  0  0  0
  7  3  1  6  0  0  0
  7 20  1  0  0  0  0
  7  9  1  0  0  0  0
  8  3  2  0  0  0  0
  8 12  1  0  0  0  0
  9 22  1  0  0  0  0
  9  5  1  1  0  0  0
 10 15  1  0  0  0  0
 10  6  2  0  0  0  0
 11 17  1  0  0  0  0
 12 20  2  0  0  0  0
 13 16  1  0  0  0  0
 14 26  1  0  0  0  0
 15 19  2  0  0  0  0
 16 12  1  0  0  0  0
 19 14  1  0  0  0  0
 19  3  1  0  0  0  0
 20 25  1  0  0  0  0
 21  6  1  0  0  0  0
 22 28  1  1  0  0  0
 23 13  1  0  0  0  0
 24 18  1  0  0  0  0
 24 17  1  0  0  0  0
 24 34  1  1  0  0  0
 25  1  1  1  0  0  0
 25 24  1  0  0  0  0
 26 22  1  0  0  0  0
 27 28  2  0  0  0  0
 27 33  1  0  0  0  0
 28 29  1  0  0  0  0
 29 32  2  0  0  0  0
 31 32  1  0  0  0  0
 32 30  1  0  0  0  0
 33 31  2  0  0  0  0
 34 35  1  0  0  0  0
 37 36  1  0  0  0  0
M  END
>  <MODEL>
7

>  <REMARK>
 VINA RESULT:      -8.3      2.979      6.852
  Name = 
  3 active torsions:
  status: ('A' for Active; 'I' for Inactive)
    1  A    between atoms: C_5  and  O_23
    2  A    between atoms: C_6  and  C_31
    3  A    between atoms: C_11  and  C_33
                            x       y       z     vdW  Elec       q    Type
                         _______ _______ _______ _____ _____    ______ ____

>  <TORSDO>
F 3

$$$$
=
 OpenBabel11052419523D

 37 43  0  0  1  0  0  0  0  0999 V2000
  187.5890  176.6120  146.9570 C   0  0  0  0  0  2  0  0  0  0  0  0
  184.1910  178.2710  142.3950 C   0  0  0  0  0  2  0  0  0  0  0  0
  187.9300  175.7900  142.1960 C   0  0  0  0  0  0  0  0  0  0  0  0
  188.2070  178.0070  147.1050 C   0  0  2  0  0  3  0  0  0  0  0  0
  189.9300  173.8150  144.7450 O   0  0  0  0  0  0  0  0  0  0  0  0
  186.4380  177.6460  141.5740 C   0  0  0  0  0  0  0  0  0  0  0  0
  188.4480  175.2620  143.3730 C   0  0  2  0  0  3  0  0  0  0  0  0
  187.0970  176.9070  142.5620 C   0  0  0  0  0  0  0  0  0  0  0  0
  189.3010  174.0060  143.4920 C   0  0  1  0  0  3  0  0  0  0  0  0
  186.6320  177.2960  140.2720 N   0  0  0  0  0  0  0  0  0  0  0  0
  189.6930  177.9130  147.4300 C   0  0  0  0  0  2  0  0  0  0  0  0
  187.1230  177.0350  143.9380 C   0  0  0  0  0  0  0  0  0  0  0  0
  184.8560  177.6230  144.7440 C   0  0  0  0  0  2  0  0  0  0  0  0
  188.9510  174.4520  140.3640 O   0  0  0  0  0  0  0  0  0  0  0  0
  187.4420  176.2610  139.8950 C   0  0  0  0  0  3  0  0  0  0  0  0
  186.3200  178.0310  144.7130 C   0  0  0  0  0  2  0  0  0  0  0  0
  190.4240  177.1250  146.3450 C   0  0  0  0  0  2  0  0  0  0  0  0
  190.6160  174.9880  145.0940 C   0  0  0  0  0  2  0  0  0  0  0  0
  188.1170  175.4710  140.8390 C   0  0  0  0  0  0  0  0  0  0  0  0
  187.9690  176.0350  144.4490 C   0  0  0  0  0  0  0  0  0  0  0  0
  185.5310  178.7870  141.8940 C   0  0  0  0  0  2  0  0  0  0  0  0
  190.2390  173.7780  142.3030 C   0  0  2  0  0  3  0  0  0  0  0  0
  184.0220  178.5600  143.8810 C   0  0  0  0  0  2  0  0  0  0  0  0
  189.8590  175.7040  146.2110 C   0  0  2  0  0  0  0  0  0  0  0  0
  188.3330  175.7660  145.9100 C   0  0  1  0  0  3  0  0  0  0  0  0
  189.3960  173.3380  141.1220 C   0  0  0  0  0  2  0  0  0  0  0  0
  190.9220  171.3960  142.6290 C   0  0  0  0  0  3  0  0  0  0  0  0
  191.2920  172.7440  142.5850 C   0  0  0  0  0  0  0  0  0  0  0  0
  192.6340  173.1020  142.7910 C   0  0  0  0  0  3  0  0  0  0  0  0
  194.8860  172.4660  143.2390 F   0  0  0  0  0  0  0  0  0  0  0  0
  193.2170  170.7720  143.0850 C   0  0  0  0  0  3  0  0  0  0  0  0
  193.5930  172.1170  143.0410 C   0  0  0  0  0  0  0  0  0  0  0  0
  191.8820  170.4110  142.8790 C   0  0  0  0  0  3  0  0  0  0  0  0
  190.0730  174.9180  147.5130 C   0  0  0  0  0  2  0  0  0  0  0  0
  191.4160  174.9360  147.9020 O   0  0  0  0  0  1  0  0  0  0  0  0
  186.2190  178.2880  148.0380 C   0  0  0  0  0  1  0  0  0  0  0  0
  187.5500  178.7020  148.1210 O   0  0  0  0  0  0  0  0  0  0  0  0
  1  4  1  0  0  0  0
  2 23  1  0  0  0  0
  3  8  2  0  0  0  0
  4 11  1  0  0  0  0
  4 37  1  1  0  0  0
  5 18  1  0  0  0  0
  6 21  1  0  0  0  0
  6  8  1  0  0  0  0
  7  3  1  1  0  0  0
  7  9  1  0  0  0  0
  7 20  1  0  0  0  0
  8 12  1  0  0  0  0
  9  5  1  1  0  0  0
 10  6  2  0  0  0  0
 12 20  2  0  0  0  0
 12 16  1  0  0  0  0
 14 19  1  0  0  0  0
 14 26  1  0  0  0  0
 15 10  1  0  0  0  0
 15 19  2  0  0  0  0
 16 13  1  0  0  0  0
 17 11  1  0  0  0  0
 18 24  1  0  0  0  0
 19  3  1  0  0  0  0
 20 25  1  0  0  0  0
 21  2  1  0  0  0  0
 22 28  1  1  0  0  0
 22  9  1  0  0  0  0
 23 13  1  0  0  0  0
 24 17  1  0  0  0  0
 24 34  1  1  0  0  0
 25 24  1  0  0  0  0
 25  1  1  1  0  0  0
 26 22  1  0  0  0  0
 27 33  1  0  0  0  0
 28 27  2  0  0  0  0
 28 29  1  0  0  0  0
 29 32  2  0  0  0  0
 32 31  1  0  0  0  0
 32 30  1  0  0  0  0
 33 31  2  0  0  0  0
 34 35  1  0  0  0  0
 36 37  1  0  0  0  0
M  END
>  <MODEL>
8

>  <REMARK>
 VINA RESULT:      -7.9      2.303      3.488
  Name = 
  3 active torsions:
  status: ('A' for Active; 'I' for Inactive)
    1  A    between atoms: C_5  and  O_23
    2  A    between atoms: C_6  and  C_31
    3  A    between atoms: C_11  and  C_33
                            x       y       z     vdW  Elec       q    Type
                         _______ _______ _______ _____ _____    ______ ____

>  <TORSDO>
F 3

$$$$
=
 OpenBabel11052419523D

 37 43  0  0  1  0  0  0  0  0999 V2000
  194.5930  175.5340  143.3770 C   0  0  0  0  0  2  0  0  0  0  0  0
  193.1410  172.9420  138.2500 C   0  0  0  0  0  2  0  0  0  0  0  0
  190.3170  174.2990  141.4680 C   0  0  0  0  0  0  0  0  0  0  0  0
  195.0820  174.2180  143.9930 C   0  0  2  0  0  3  0  0  0  0  0  0
  190.6150  176.6620  144.4220 O   0  0  0  0  0  0  0  0  0  0  0  0
  191.2790  172.7050  139.8580 C   0  0  0  0  0  0  0  0  0  0  0  0
  190.7950  175.1320  142.4730 C   0  0  2  0  0  3  0  0  0  0  0  0
  191.4550  173.6210  140.9010 C   0  0  0  0  0  0  0  0  0  0  0  0
  189.9710  176.1220  143.2830 C   0  0  1  0  0  3  0  0  0  0  0  0
  190.0110  172.4570  139.4250 N   0  0  0  0  0  0  0  0  0  0  0  0
  194.6800  174.1210  145.4610 C   0  0  0  0  0  2  0  0  0  0  0  0
  192.5890  174.0490  141.5630 C   0  0  0  0  0  0  0  0  0  0  0  0
  194.4310  174.3180  139.9290 C   0  0  0  0  0  2  0  0  0  0  0  0
  187.8420  174.5510  141.5210 O   0  0  0  0  0  0  0  0  0  0  0  0
  188.9110  173.0630  139.9680 C   0  0  0  0  0  3  0  0  0  0  0  0
  193.9840  173.6370  141.2120 C   0  0  0  0  0  2  0  0  0  0  0  0
  193.1640  174.2410  145.6040 C   0  0  0  0  0  2  0  0  0  0  0  0
  191.1340  175.6100  145.1920 C   0  0  0  0  0  2  0  0  0  0  0  0
  189.0230  174.0040  141.0030 C   0  0  0  0  0  0  0  0  0  0  0  0
  192.1930  174.9700  142.5480 C   0  0  0  0  0  0  0  0  0  0  0  0
  192.4220  172.0020  139.2040 C   0  0  0  0  0  2  0  0  0  0  0  0
  188.5390  175.6570  143.5620 C   0  0  2  0  0  3  0  0  0  0  0  0
  194.5170  173.3110  138.7900 C   0  0  0  0  0  2  0  0  0  0  0  0
  192.6530  175.5740  145.0400 C   0  0  2  0  0  0  0  0  0  0  0  0
  193.0760  175.7170  143.5500 C   0  0  1  0  0  3  0  0  0  0  0  0
  187.7560  175.7550  142.2670 C   0  0  0  0  0  2  0  0  0  0  0  0
  187.8420  175.9940  145.9390 C   0  0  0  0  0  3  0  0  0  0  0  0
  187.8600  176.4730  144.6240 C   0  0  0  0  0  0  0  0  0  0  0  0
  187.2560  177.7050  144.3280 C   0  0  0  0  0  3  0  0  0  0  0  0
  186.0600  179.6360  145.0500 F   0  0  0  0  0  0  0  0  0  0  0  0
  186.6250  177.9630  146.6500 C   0  0  0  0  0  3  0  0  0  0  0  0
  186.6410  178.4480  145.3390 C   0  0  0  0  0  0  0  0  0  0  0  0
  187.2250  176.7370  146.9500 C   0  0  0  0  0  3  0  0  0  0  0  0
  193.2410  176.7500  145.8340 C   0  0  0  0  0  2  0  0  0  0  0  0
  192.8050  176.7350  147.1630 O   0  0  0  0  0  1  0  0  0  0  0  0
  196.8560  175.3550  143.3170 C   0  0  0  0  0  1  0  0  0  0  0  0
  196.4710  174.1390  143.8830 O   0  0  0  0  0  0  0  0  0  0  0  0
  1  4  1  0  0  0  0
  2 23  1  0  0  0  0
  2 21  1  0  0  0  0
  4 37  1  1  0  0  0
  4 11  1  0  0  0  0
  5 18  1  0  0  0  0
  6  8  1  0  0  0  0
  7  3  1  6  0  0  0
  7 20  1  0  0  0  0
  7  9  1  0  0  0  0
  8  3  2  0  0  0  0
  8 12  1  0  0  0  0
  9 22  1  0  0  0  0
  9  5  1  1  0  0  0
 10  6  2  0  0  0  0
 10 15  1  0  0  0  0
 11 17  1  0  0  0  0
 12 20  2  0  0  0  0
 13 16  1  0  0  0  0
 14 26  1  0  0  0  0
 15 19  2  0  0  0  0
 16 12  1  0  0  0  0
 19  3  1  0  0  0  0
 19 14  1  0  0  0  0
 20 25  1  0  0  0  0
 21  6  1  0  0  0  0
 22 28  1  1  0  0  0
 23 13  1  0  0  0  0
 24 18  1  0  0  0  0
 24 17  1  0  0  0  0
 24 34  1  1  0  0  0
 25  1  1  1  0  0  0
 25 24  1  0  0  0  0
 26 22  1  0  0  0  0
 27 33  1  0  0  0  0
 28 27  2  0  0  0  0
 29 28  1  0  0  0  0
 29 32  2  0  0  0  0
 30 32  1  0  0  0  0
 31 33  2  0  0  0  0
 32 31  1  0  0  0  0
 34 35  1  0  0  0  0
 36 37  1  0  0  0  0
M  END
>  <MODEL>
9

>  <REMARK>
 VINA RESULT:      -7.9      3.181      7.064
  Name = 
  3 active torsions:
  status: ('A' for Active; 'I' for Inactive)
    1  A    between atoms: C_5  and  O_23
    2  A    between atoms: C_6  and  C_31
    3  A    between atoms: C_11  and  C_33
                            x       y       z     vdW  Elec       q    Type
                         _______ _______ _______ _____ _____    ______ ____

>  <TORSDO>
F 3

$$$$
