=
 OpenBabel11052420323D

 34 40  0  0  1  0  0  0  0  0999 V2000
  191.7760  176.6270  144.2200 C   0  0  0  0  0  0  0  0  0  0  0  0
  195.4140  175.8280  143.8900 C   0  0  0  0  0  3  0  0  0  0  0  0
  196.4280  175.3550  140.5100 C   0  0  0  0  0  0  0  0  0  0  0  0
  194.0590  176.2650  145.8430 C   0  0  0  0  0  3  0  0  0  0  0  0
  189.2970  177.2440  145.3970 N   0  0  0  0  0  0  0  0  0  0  0  0
  190.5580  176.8240  143.3990 C   0  0  0  0  0  3  0  0  0  0  0  0
  190.4550  177.0600  146.2190 C   0  0  0  0  0  0  0  0  0  0  0  0
  191.4970  177.0040  148.4050 C   0  0  0  0  0  3  0  0  0  0  0  0
  197.3330  175.1000  139.6750 O   0  0  0  0  0  0  0  0  0  0  0  0
  190.3620  177.1860  147.6070 C   0  0  0  0  0  3  0  0  0  0  0  0
  189.3780  177.1190  143.9670 C   0  0  0  0  0  0  0  0  0  0  0  0
  192.8320  176.5700  146.4290 C   0  0  0  0  0  0  0  0  0  0  0  0
  191.6890  176.7520  145.6200 C   0  0  1  0  0  3  0  0  0  0  0  0
  192.7290  176.6970  147.8170 C   0  0  0  0  0  3  0  0  0  0  0  0
  195.5090  175.7020  142.5060 C   0  0  0  0  0  0  0  0  0  0  0  0
  194.8180  175.6660  140.0940 S   0  0  0  0  0  0  0  0  0  0  0  0
  196.6560  175.4080  141.8430 N   0  0  0  0  0  2  0  0  0  0  0  0
  194.3920  175.8790  141.7040 C   0  0  0  0  0  0  0  0  0  0  0  0
  194.1660  176.1360  144.4560 C   0  0  0  0  0  0  0  0  0  0  0  0
  193.1410  176.1850  142.2300 C   0  0  0  0  0  3  0  0  0  0  0  0
  193.0170  176.3180  143.6280 C   0  0  0  0  0  0  0  0  0  0  0  0
  187.0610  177.3880  140.9720 C   0  0  0  0  0  3  0  0  0  0  0  0
  186.9440  177.6160  143.7630 C   0  0  0  0  0  3  0  0  0  0  0  0
  183.4740  178.1790  141.4550 C   0  0  0  0  0  0  0  0  0  0  0  0
  184.6940  177.8770  140.8310 C   0  0  0  0  0  3  0  0  0  0  0  0
  185.8490  177.6890  141.5940 C   0  0  0  0  0  0  0  0  0  0  0  0
  184.5760  178.1040  143.6230 C   0  0  0  0  0  3  0  0  0  0  0  0
  185.7890  177.8040  143.0010 C   0  0  0  0  0  0  0  0  0  0  0  0
  183.4240  178.2910  142.8540 C   0  0  0  0  0  3  0  0  0  0  0  0
  188.1660  177.3130  143.1430 C   0  0  0  0  0  0  0  0  0  0  0  0
  188.2140  177.2020  141.7420 C   0  0  0  0  0  3  0  0  0  0  0  0
  182.2610  178.3760  140.6470 C   0  0  0  0  0  0  0  0  0  0  0  0
  181.9660  177.5640  139.7290 O   0  0  0  0  0  0  0  0  0  0  0  0
  181.4270  179.4620  140.8870 O   0  0  0  0  0  1  0  0  0  0  0  0
  2 19  1  0  0  0  0
  3 17  1  0  0  0  0
  4 12  1  0  0  0  0
  5  7  2  0  0  0  0
  6 11  2  0  0  0  0
  6  1  1  0  0  0  0
  7 10  1  0  0  0  0
  9  3  2  0  0  0  0
 10  8  2  0  0  0  0
 11  5  1  0  0  0  0
 12 14  2  0  0  0  0
 13  1  1  1  0  0  0
 13  7  1  0  0  0  0
 13 12  1  0  0  0  0
 14  8  1  0  0  0  0
 15  2  2  0  0  0  0
 16  3  1  0  0  0  0
 16 18  1  0  0  0  0
 17 15  1  0  0  0  0
 18 20  2  0  0  0  0
 18 15  1  0  0  0  0
 19  4  2  0  0  0  0
 20 21  1  0  0  0  0
 21  1  2  0  0  0  0
 21 19  1  0  0  0  0
 22 26  2  0  0  0  0
 22 31  1  0  0  0  0
 24 29  1  0  0  0  0
 25 24  2  0  0  0  0
 25 26  1  0  0  0  0
 26 28  1  0  0  0  0
 28 27  1  0  0  0  0
 28 23  2  0  0  0  0
 29 27  2  0  0  0  0
 30 23  1  0  0  0  0
 30 11  1  0  0  0  0
 31 30  2  0  0  0  0
 32 34  1  0  0  0  0
 32 24  1  0  0  0  0
 33 32  2  0  0  0  0
M  END
>  <MODEL>
1

>  <REMARK>
 VINA RESULT:      -8.7      0.000      0.000
  Name = 
  2 active torsions:
  status: ('A' for Active; 'I' for Inactive)
    1  A    between atoms: C_7  and  C_11
    2  A    between atoms: C_18  and  C_30
                            x       y       z     vdW  Elec       q    Type
                         _______ _______ _______ _____ _____    ______ ____

>  <TORSDO>
F 2

$$$$
=
 OpenBabel11052420323D

 34 40  0  0  1  0  0  0  0  0999 V2000
  190.6050  176.8170  143.9280 C   0  0  0  0  0  0  0  0  0  0  0  0
  186.9800  177.6650  144.2710 C   0  0  0  0  0  3  0  0  0  0  0  0
  185.3350  178.0140  141.1320 C   0  0  0  0  0  0  0  0  0  0  0  0
  188.6830  177.2860  145.9430 C   0  0  0  0  0  3  0  0  0  0  0  0
  193.2600  176.2060  144.6310 N   0  0  0  0  0  0  0  0  0  0  0  0
  191.6400  176.5650  142.8970 C   0  0  0  0  0  3  0  0  0  0  0  0
  192.2850  176.4450  145.6520 C   0  0  0  0  0  0  0  0  0  0  0  0
  191.6860  176.6100  147.9930 C   0  0  0  0  0  3  0  0  0  0  0  0
  184.2880  178.2500  140.4770 O   0  0  0  0  0  0  0  0  0  0  0  0
  192.6430  176.3750  147.0000 C   0  0  0  0  0  3  0  0  0  0  0  0
  192.9050  176.2740  143.2400 C   0  0  0  0  0  0  0  0  0  0  0  0
  189.9980  176.9840  146.2940 C   0  0  0  0  0  0  0  0  0  0  0  0
  190.9610  176.7490  145.2890 C   0  0  1  0  0  3  0  0  0  0  0  0
  190.3660  176.9130  147.6410 C   0  0  0  0  0  3  0  0  0  0  0  0
  186.6200  177.7340  142.9270 C   0  0  0  0  0  0  0  0  0  0  0  0
  186.8320  177.6580  140.4280 S   0  0  0  0  0  0  0  0  0  0  0  0
  185.3690  178.0210  142.4860 N   0  0  0  0  0  2  0  0  0  0  0  0
  187.5590  177.5050  141.9330 C   0  0  0  0  0  0  0  0  0  0  0  0
  188.3110  177.3590  144.5990 C   0  0  0  0  0  0  0  0  0  0  0  0
  188.8850  177.1990  142.2210 C   0  0  0  0  0  3  0  0  0  0  0  0
  189.2770  177.1220  143.5730 C   0  0  0  0  0  0  0  0  0  0  0  0
  196.2440  176.1240  141.4400 C   0  0  0  0  0  3  0  0  0  0  0  0
  193.5650  175.4370  140.9860 C   0  0  0  0  0  3  0  0  0  0  0  0
  196.4580  174.7100  138.0220 C   0  0  0  0  0  0  0  0  0  0  0  0
  196.8300  175.2970  139.2400 C   0  0  0  0  0  3  0  0  0  0  0  0
  195.8720  175.5400  140.2280 C   0  0  0  0  0  0  0  0  0  0  0  0
  194.1500  174.6090  138.7870 C   0  0  0  0  0  3  0  0  0  0  0  0
  194.5220  175.1940  139.9990 C   0  0  0  0  0  0  0  0  0  0  0  0
  195.1140  174.3690  137.8030 C   0  0  0  0  0  3  0  0  0  0  0  0
  193.9330  176.0240  142.2070 C   0  0  0  0  0  0  0  0  0  0  0  0
  195.2800  176.3650  142.4230 C   0  0  0  0  0  3  0  0  0  0  0  0
  197.4710  174.4570  136.9860 C   0  0  0  0  0  0  0  0  0  0  0  0
  197.9230  173.2950  136.8040 O   0  0  0  0  0  1  0  0  0  0  0  0
  197.9410  175.5000  136.1960 O   0  0  0  0  0  0  0  0  0  0  0  0
  2 19  1  0  0  0  0
  3 17  1  0  0  0  0
  4 12  1  0  0  0  0
  5  7  2  0  0  0  0
  6 11  2  0  0  0  0
  6  1  1  0  0  0  0
  7 10  1  0  0  0  0
  9  3  2  0  0  0  0
 10  8  2  0  0  0  0
 11  5  1  0  0  0  0
 12 14  2  0  0  0  0
 13  1  1  6  0  0  0
 13  7  1  0  0  0  0
 13 12  1  0  0  0  0
 14  8  1  0  0  0  0
 15  2  2  0  0  0  0
 16  3  1  0  0  0  0
 16 18  1  0  0  0  0
 17 15  1  0  0  0  0
 18 20  2  0  0  0  0
 18 15  1  0  0  0  0
 19  4  2  0  0  0  0
 20 21  1  0  0  0  0
 21  1  2  0  0  0  0
 21 19  1  0  0  0  0
 22 31  1  0  0  0  0
 23 30  1  0  0  0  0
 24 25  2  0  0  0  0
 25 26  1  0  0  0  0
 26 22  2  0  0  0  0
 27 28  1  0  0  0  0
 28 26  1  0  0  0  0
 28 23  2  0  0  0  0
 29 24  1  0  0  0  0
 29 27  2  0  0  0  0
 30 31  2  0  0  0  0
 30 11  1  0  0  0  0
 32 24  1  0  0  0  0
 33 32  1  0  0  0  0
 34 32  2  0  0  0  0
M  END
>  <MODEL>
2

>  <REMARK>
 VINA RESULT:      -8.6      2.435      9.097
  Name = 
  2 active torsions:
  status: ('A' for Active; 'I' for Inactive)
    1  A    between atoms: C_7  and  C_11
    2  A    between atoms: C_18  and  C_30
                            x       y       z     vdW  Elec       q    Type
                         _______ _______ _______ _____ _____    ______ ____

>  <TORSDO>
F 2

$$$$
=
 OpenBabel11052420323D

 34 40  0  0  1  0  0  0  0  0999 V2000
  189.5180  175.7690  143.8930 C   0  0  0  0  0  0  0  0  0  0  0  0
  192.2570  173.6460  142.4890 C   0  0  0  0  0  3  0  0  0  0  0  0
  191.5090  172.3870  139.2440 C   0  0  0  0  0  0  0  0  0  0  0  0
  192.0780  174.8080  144.6000 C   0  0  0  0  0  3  0  0  0  0  0  0
  188.0890  177.4100  145.6760 N   0  0  0  0  0  0  0  0  0  0  0  0
  188.1730  176.2920  143.5550 C   0  0  0  0  0  3  0  0  0  0  0  0
  189.3870  176.9220  146.0340 C   0  0  0  0  0  0  0  0  0  0  0  0
  191.2190  176.7760  147.6110 C   0  0  0  0  0  3  0  0  0  0  0  0
  191.8450  171.7060  138.2410 O   0  0  0  0  0  0  0  0  0  0  0  0
  189.9510  177.2570  147.2670 C   0  0  0  0  0  3  0  0  0  0  0  0
  187.4970  177.0740  144.4100 C   0  0  0  0  0  0  0  0  0  0  0  0
  191.3720  175.6210  145.4860 C   0  0  0  0  0  0  0  0  0  0  0  0
  190.0920  176.1030  145.1350 C   0  0  1  0  0  3  0  0  0  0  0  0
  191.9280  175.9610  146.7230 C   0  0  0  0  0  3  0  0  0  0  0  0
  191.6960  173.3120  141.2590 C   0  0  0  0  0  0  0  0  0  0  0  0
  190.0390  173.2120  139.3770 S   0  0  0  0  0  0  0  0  0  0  0  0
  192.3040  172.5290  140.3310 N   0  0  0  0  0  2  0  0  0  0  0  0
  190.4400  173.7800  140.9060 C   0  0  0  0  0  0  0  0  0  0  0  0
  191.5260  174.4660  143.3640 C   0  0  0  0  0  0  0  0  0  0  0  0
  189.6880  174.5940  141.7470 C   0  0  0  0  0  3  0  0  0  0  0  0
  190.2320  174.9480  142.9980 C   0  0  0  0  0  0  0  0  0  0  0  0
  184.0770  178.6970  144.7010 C   0  0  0  0  0  3  0  0  0  0  0  0
  185.6740  177.4640  142.7550 C   0  0  0  0  0  3  0  0  0  0  0  0
  181.8630  178.9220  141.7400 C   0  0  0  0  0  0  0  0  0  0  0  0
  182.3390  179.0510  143.0530 C   0  0  0  0  0  3  0  0  0  0  0  0
  183.6050  178.5680  143.3940 C   0  0  0  0  0  0  0  0  0  0  0  0
  183.9360  177.8180  141.1060 C   0  0  0  0  0  3  0  0  0  0  0  0
  184.4090  177.9470  142.4130 C   0  0  0  0  0  0  0  0  0  0  0  0
  182.6680  178.3030  140.7710 C   0  0  0  0  0  3  0  0  0  0  0  0
  186.1550  177.5910  144.0670 C   0  0  0  0  0  0  0  0  0  0  0  0
  185.3450  178.2110  145.0360 C   0  0  0  0  0  3  0  0  0  0  0  0
  180.5290  179.4320  141.3860 C   0  0  0  0  0  0  0  0  0  0  0  0
  179.5080  179.0400  142.0120 O   0  0  0  0  0  1  0  0  0  0  0  0
  180.3820  180.3530  140.3550 O   0  0  0  0  0  0  0  0  0  0  0  0
  2 19  1  0  0  0  0
  3 16  1  0  0  0  0
  3 17  1  0  0  0  0
  4 12  1  0  0  0  0
  5  7  2  0  0  0  0
  6  1  1  0  0  0  0
  6 11  2  0  0  0  0
  7 10  1  0  0  0  0
  9  3  2  0  0  0  0
 10  8  2  0  0  0  0
 11  5  1  0  0  0  0
 12 14  2  0  0  0  0
 13  1  1  1  0  0  0
 13 12  1  0  0  0  0
 13  7  1  0  0  0  0
 14  8  1  0  0  0  0
 15  2  2  0  0  0  0
 16 18  1  0  0  0  0
 17 15  1  0  0  0  0
 18 15  1  0  0  0  0
 18 20  2  0  0  0  0
 19  4  2  0  0  0  0
 20 21  1  0  0  0  0
 21 19  1  0  0  0  0
 21  1  2  0  0  0  0
 22 31  1  0  0  0  0
 23 30  1  0  0  0  0
 24 25  2  0  0  0  0
 25 26  1  0  0  0  0
 26 22  2  0  0  0  0
 27 28  1  0  0  0  0
 28 23  2  0  0  0  0
 28 26  1  0  0  0  0
 29 27  2  0  0  0  0
 29 24  1  0  0  0  0
 30 11  1  0  0  0  0
 30 31  2  0  0  0  0
 32 24  1  0  0  0  0
 32 33  1  0  0  0  0
 34 32  2  0  0  0  0
M  END
>  <MODEL>
3

>  <REMARK>
 VINA RESULT:      -8.4      2.609      3.340
  Name = 
  2 active torsions:
  status: ('A' for Active; 'I' for Inactive)
    1  A    between atoms: C_7  and  C_11
    2  A    between atoms: C_18  and  C_30
                            x       y       z     vdW  Elec       q    Type
                         _______ _______ _______ _____ _____    ______ ____

>  <TORSDO>
F 2

$$$$
=
 OpenBabel11052420323D

 34 40  0  0  1  0  0  0  0  0999 V2000
  194.2280  175.1230  142.4630 C   0  0  0  0  0  0  0  0  0  0  0  0
  196.6590  174.1750  139.7850 C   0  0  0  0  0  3  0  0  0  0  0  0
  195.3820  174.7070  136.5040 C   0  0  0  0  0  0  0  0  0  0  0  0
  196.8410  174.0850  142.1930 C   0  0  0  0  0  3  0  0  0  0  0  0
  193.1380  175.5400  145.0230 N   0  0  0  0  0  0  0  0  0  0  0  0
  192.8610  175.6670  142.6430 C   0  0  0  0  0  3  0  0  0  0  0  0
  194.4620  175.0130  144.8850 C   0  0  0  0  0  0  0  0  0  0  0  0
  196.5130  174.1890  145.8750 C   0  0  0  0  0  3  0  0  0  0  0  0
  195.5390  174.6530  135.2570 O   0  0  0  0  0  0  0  0  0  0  0  0
  195.2200  174.7040  146.0170 C   0  0  0  0  0  3  0  0  0  0  0  0
  192.3470  175.8630  143.8670 C   0  0  0  0  0  0  0  0  0  0  0  0
  196.3030  174.2900  143.4620 C   0  0  0  0  0  0  0  0  0  0  0  0
  194.9970  174.8090  143.6010 C   0  0  1  0  0  3  0  0  0  0  0  0
  197.0530  173.9830  144.6010 C   0  0  0  0  0  3  0  0  0  0  0  0
  195.9040  174.4830  138.6550 C   0  0  0  0  0  0  0  0  0  0  0  0
  193.9720  175.2620  137.2560 S   0  0  0  0  0  0  0  0  0  0  0  0
  196.3390  174.3190  137.3800 N   0  0  0  0  0  2  0  0  0  0  0  0
  194.6210  174.9930  138.7810 C   0  0  0  0  0  0  0  0  0  0  0  0
  196.0940  174.3900  141.0530 C   0  0  0  0  0  0  0  0  0  0  0  0
  194.0310  175.2190  140.0200 C   0  0  0  0  0  3  0  0  0  0  0  0
  194.7720  174.9160  141.1800 C   0  0  0  0  0  0  0  0  0  0  0  0
  189.1290  177.7840  143.2630 C   0  0  0  0  0  3  0  0  0  0  0  0
  190.2290  176.0480  145.1690 C   0  0  0  0  0  3  0  0  0  0  0  0
  186.3450  177.5690  145.6980 C   0  0  0  0  0  0  0  0  0  0  0  0
  187.0940  177.9280  144.5680 C   0  0  0  0  0  3  0  0  0  0  0  0
  188.3850  177.4250  144.3880 C   0  0  0  0  0  0  0  0  0  0  0  0
  188.1940  176.1920  146.4740 C   0  0  0  0  0  3  0  0  0  0  0  0
  188.9390  176.5510  145.3490 C   0  0  0  0  0  0  0  0  0  0  0  0
  186.9030  176.6990  146.6470 C   0  0  0  0  0  3  0  0  0  0  0  0
  190.9820  176.4050  144.0400 C   0  0  0  0  0  0  0  0  0  0  0  0
  190.4200  177.2770  143.0900 C   0  0  0  0  0  3  0  0  0  0  0  0
  184.9860  178.1020  145.8810 C   0  0  0  0  0  0  0  0  0  0  0  0
  184.4960  178.2210  147.0370 O   0  0  0  0  0  1  0  0  0  0  0  0
  184.2260  178.4800  144.7790 O   0  0  0  0  0  0  0  0  0  0  0  0
  1  6  1  0  0  0  0
  2 19  1  0  0  0  0
  3 16  1  0  0  0  0
  3 17  1  0  0  0  0
  4 12  1  0  0  0  0
  6 11  2  0  0  0  0
  7  5  2  0  0  0  0
  7 10  1  0  0  0  0
  8 10  2  0  0  0  0
  9  3  2  0  0  0  0
 11 30  1  0  0  0  0
 11  5  1  0  0  0  0
 12 13  1  0  0  0  0
 12 14  2  0  0  0  0
 13  1  1  6  0  0  0
 13  7  1  0  0  0  0
 14  8  1  0  0  0  0
 15 18  1  0  0  0  0
 15  2  2  0  0  0  0
 16 18  1  0  0  0  0
 17 15  1  0  0  0  0
 18 20  2  0  0  0  0
 19 21  1  0  0  0  0
 19  4  2  0  0  0  0
 20 21  1  0  0  0  0
 21  1  2  0  0  0  0
 22 26  1  0  0  0  0
 23 28  1  0  0  0  0
 24 32  1  0  0  0  0
 24 29  1  0  0  0  0
 25 24  2  0  0  0  0
 26 25  1  0  0  0  0
 26 28  2  0  0  0  0
 27 29  2  0  0  0  0
 28 27  1  0  0  0  0
 30 23  2  0  0  0  0
 31 22  2  0  0  0  0
 31 30  1  0  0  0  0
 32 33  1  0  0  0  0
 34 32  2  0  0  0  0
M  END
>  <MODEL>
4

>  <REMARK>
 VINA RESULT:      -8.4      3.011      4.515
  Name = 
  2 active torsions:
  status: ('A' for Active; 'I' for Inactive)
    1  A    between atoms: C_7  and  C_11
    2  A    between atoms: C_18  and  C_30
                            x       y       z     vdW  Elec       q    Type
                         _______ _______ _______ _____ _____    ______ ____

>  <TORSDO>
F 2

$$$$
=
 OpenBabel11052420323D

 34 40  0  0  1  0  0  0  0  0999 V2000
  194.6860  175.0790  142.5820 C   0  0  0  0  0  0  0  0  0  0  0  0
  197.1120  174.1910  139.8780 C   0  0  0  0  0  3  0  0  0  0  0  0
  195.8480  174.8430  136.6140 C   0  0  0  0  0  0  0  0  0  0  0  0
  197.2880  174.0210  142.2820 C   0  0  0  0  0  3  0  0  0  0  0  0
  193.5960  175.4230  145.1520 N   0  0  0  0  0  0  0  0  0  0  0  0
  193.3250  175.6310  142.7760 C   0  0  0  0  0  3  0  0  0  0  0  0
  194.9140  174.8870  144.9990 C   0  0  0  0  0  0  0  0  0  0  0  0
  196.9540  174.0080  145.9650 C   0  0  0  0  0  3  0  0  0  0  0  0
  196.0070  174.8290  135.3670 O   0  0  0  0  0  0  0  0  0  0  0  0
  195.6660  174.5320  146.1220 C   0  0  0  0  0  3  0  0  0  0  0  0
  192.8110  175.7930  144.0050 C   0  0  0  0  0  0  0  0  0  0  0  0
  196.7500  174.1900  143.5570 C   0  0  0  0  0  0  0  0  0  0  0  0
  195.4500  174.7190  143.7100 C   0  0  1  0  0  3  0  0  0  0  0  0
  197.4940  173.8370  144.6860 C   0  0  0  0  0  3  0  0  0  0  0  0
  196.3640  174.5440  138.7580 C   0  0  0  0  0  0  0  0  0  0  0  0
  194.4430  175.3900  137.3820 S   0  0  0  0  0  0  0  0  0  0  0  0
  196.7990  174.4170  137.4780 N   0  0  0  0  0  2  0  0  0  0  0  0
  195.0860  175.0640  138.8980 C   0  0  0  0  0  0  0  0  0  0  0  0
  196.5470  174.3710  141.1510 C   0  0  0  0  0  0  0  0  0  0  0  0
  194.4960  175.2560  140.1430 C   0  0  0  0  0  3  0  0  0  0  0  0
  195.2310  174.9070  141.2940 C   0  0  0  0  0  0  0  0  0  0  0  0
  189.5870  176.9550  145.6380 C   0  0  0  0  0  3  0  0  0  0  0  0
  190.7200  176.7880  143.0800 C   0  0  0  0  0  3  0  0  0  0  0  0
  186.8520  178.3600  143.5720 C   0  0  0  0  0  0  0  0  0  0  0  0
  187.5790  177.9180  144.6870 C   0  0  0  0  0  3  0  0  0  0  0  0
  188.8640  177.3950  144.5280 C   0  0  0  0  0  0  0  0  0  0  0  0
  188.7130  177.7520  142.1280 C   0  0  0  0  0  3  0  0  0  0  0  0
  189.4360  177.3110  143.2390 C   0  0  0  0  0  0  0  0  0  0  0  0
  187.4270  178.2740  142.2940 C   0  0  0  0  0  3  0  0  0  0  0  0
  191.4520  176.3440  144.1930 C   0  0  0  0  0  0  0  0  0  0  0  0
  190.8730  176.4320  145.4720 C   0  0  0  0  0  3  0  0  0  0  0  0
  185.4980  178.9100  143.7450 C   0  0  0  0  0  0  0  0  0  0  0  0
  185.3350  180.1190  144.0630 O   0  0  0  0  0  1  0  0  0  0  0  0
  184.3840  178.1000  143.5600 O   0  0  0  0  0  0  0  0  0  0  0  0
  1  6  1  0  0  0  0
  2 19  1  0  0  0  0
  3 16  1  0  0  0  0
  3 17  1  0  0  0  0
  4 12  1  0  0  0  0
  6 11  2  0  0  0  0
  7  5  2  0  0  0  0
  7 10  1  0  0  0  0
  8 10  2  0  0  0  0
  9  3  2  0  0  0  0
 11 30  1  0  0  0  0
 11  5  1  0  0  0  0
 12 13  1  0  0  0  0
 12 14  2  0  0  0  0
 13  1  1  6  0  0  0
 13  7  1  0  0  0  0
 14  8  1  0  0  0  0
 15 18  1  0  0  0  0
 15  2  2  0  0  0  0
 16 18  1  0  0  0  0
 17 15  1  0  0  0  0
 18 20  2  0  0  0  0
 19 21  1  0  0  0  0
 19  4  2  0  0  0  0
 20 21  1  0  0  0  0
 21  1  2  0  0  0  0
 23 28  2  0  0  0  0
 23 30  1  0  0  0  0
 24 32  1  0  0  0  0
 24 25  2  0  0  0  0
 26 25  1  0  0  0  0
 26 22  2  0  0  0  0
 27 29  2  0  0  0  0
 27 28  1  0  0  0  0
 28 26  1  0  0  0  0
 29 24  1  0  0  0  0
 30 31  2  0  0  0  0
 31 22  1  0  0  0  0
 32 33  1  0  0  0  0
 34 32  2  0  0  0  0
M  END
>  <MODEL>
5

>  <REMARK>
 VINA RESULT:      -8.4      2.475      4.523
  Name = 
  2 active torsions:
  status: ('A' for Active; 'I' for Inactive)
    1  A    between atoms: C_7  and  C_11
    2  A    between atoms: C_18  and  C_30
                            x       y       z     vdW  Elec       q    Type
                         _______ _______ _______ _____ _____    ______ ____

>  <TORSDO>
F 2

$$$$
=
 OpenBabel11052420323D

 34 40  0  0  1  0  0  0  0  0999 V2000
  192.8430  173.3660  143.3690 C   0  0  0  0  0  0  0  0  0  0  0  0
  194.2010  171.1550  140.6770 C   0  0  0  0  0  3  0  0  0  0  0  0
  191.6850  169.9870  138.4440 C   0  0  0  0  0  0  0  0  0  0  0  0
  195.3050  172.2850  142.5050 C   0  0  0  0  0  3  0  0  0  0  0  0
  192.7570  175.0340  145.6330 N   0  0  0  0  0  0  0  0  0  0  0  0
  191.5690  173.9520  143.8500 C   0  0  0  0  0  3  0  0  0  0  0  0
  194.0040  174.4850  145.1940 C   0  0  0  0  0  0  0  0  0  0  0  0
  196.3990  174.2330  145.4520 C   0  0  0  0  0  3  0  0  0  0  0  0
  191.3600  169.3110  137.4340 O   0  0  0  0  0  0  0  0  0  0  0  0
  195.1840  174.7730  145.8850 C   0  0  0  0  0  3  0  0  0  0  0  0
  191.5350  174.7460  144.9310 C   0  0  0  0  0  0  0  0  0  0  0  0
  195.2650  173.1110  143.6270 C   0  0  0  0  0  0  0  0  0  0  0  0
  194.0360  173.6530  144.0620 C   0  0  2  0  0  3  0  0  0  0  0  0
  196.4400  173.4040  144.3250 C   0  0  0  0  0  3  0  0  0  0  0  0
  193.0250  170.8670  139.9870 C   0  0  0  0  0  0  0  0  0  0  0  0
  190.5900  170.8720  139.3820 S   0  0  0  0  0  0  0  0  0  0  0  0
  192.9620  170.0750  138.8860 N   0  0  0  0  0  2  0  0  0  0  0  0
  191.8140  171.3940  140.4060 C   0  0  0  0  0  0  0  0  0  0  0  0
  194.1330  171.9890  141.8040 C   0  0  0  0  0  0  0  0  0  0  0  0
  191.7110  172.2240  141.5170 C   0  0  0  0  0  3  0  0  0  0  0  0
  192.8840  172.5320  142.2340 C   0  0  0  0  0  0  0  0  0  0  0  0
  188.4890  175.4860  147.0720 C   0  0  0  0  0  3  0  0  0  0  0  0
  189.6000  176.2890  144.6280 C   0  0  0  0  0  3  0  0  0  0  0  0
  185.9750  177.9620  145.9450 C   0  0  0  0  0  0  0  0  0  0  0  0
  186.6310  177.0000  146.7270 C   0  0  0  0  0  3  0  0  0  0  0  0
  187.8360  176.4420  146.2930 C   0  0  0  0  0  0  0  0  0  0  0  0
  187.7430  177.8040  144.2820 C   0  0  0  0  0  3  0  0  0  0  0  0
  188.3970  176.8470  145.0610 C   0  0  0  0  0  0  0  0  0  0  0  0
  186.5380  178.3590  144.7220 C   0  0  0  0  0  3  0  0  0  0  0  0
  190.2610  175.3260  145.4070 C   0  0  0  0  0  0  0  0  0  0  0  0
  189.6940  174.9310  146.6320 C   0  0  0  0  0  3  0  0  0  0  0  0
  184.7060  178.5460  146.4070 C   0  0  0  0  0  0  0  0  0  0  0  0
  184.4520  178.6310  147.6390 O   0  0  0  0  0  1  0  0  0  0  0  0
  183.7720  179.0110  145.4870 O   0  0  0  0  0  0  0  0  0  0  0  0
  1  6  1  0  0  0  0
  2 19  1  0  0  0  0
  3 17  1  0  0  0  0
  3 16  1  0  0  0  0
  4 12  1  0  0  0  0
  6 11  2  0  0  0  0
  7  5  2  0  0  0  0
  7 10  1  0  0  0  0
  8 10  2  0  0  0  0
  9  3  2  0  0  0  0
 11 30  1  0  0  0  0
 11  5  1  0  0  0  0
 12 13  1  0  0  0  0
 12 14  2  0  0  0  0
 13  1  1  6  0  0  0
 13  7  1  0  0  0  0
 14  8  1  0  0  0  0
 15 18  1  0  0  0  0
 15  2  2  0  0  0  0
 16 18  1  0  0  0  0
 17 15  1  0  0  0  0
 18 20  2  0  0  0  0
 19 21  1  0  0  0  0
 19  4  2  0  0  0  0
 20 21  1  0  0  0  0
 21  1  2  0  0  0  0
 23 28  2  0  0  0  0
 23 30  1  0  0  0  0
 24 32  1  0  0  0  0
 24 25  2  0  0  0  0
 26 25  1  0  0  0  0
 26 22  2  0  0  0  0
 27 29  2  0  0  0  0
 27 28  1  0  0  0  0
 28 26  1  0  0  0  0
 29 24  1  0  0  0  0
 30 31  2  0  0  0  0
 31 22  1  0  0  0  0
 32 33  1  0  0  0  0
 34 32  2  0  0  0  0
M  END
>  <MODEL>
6

>  <REMARK>
 VINA RESULT:      -8.3      4.070      5.402
  Name = 
  2 active torsions:
  status: ('A' for Active; 'I' for Inactive)
    1  A    between atoms: C_7  and  C_11
    2  A    between atoms: C_18  and  C_30
                            x       y       z     vdW  Elec       q    Type
                         _______ _______ _______ _____ _____    ______ ____

>  <TORSDO>
F 2

$$$$
=
 OpenBabel11052420323D

 34 40  0  0  1  0  0  0  0  0999 V2000
  194.7180  174.0010  143.9030 C   0  0  0  0  0  0  0  0  0  0  0  0
  197.5920  171.6100  143.9830 C   0  0  0  0  0  3  0  0  0  0  0  0
  197.3010  169.1800  146.5690 C   0  0  0  0  0  0  0  0  0  0  0  0
  197.1290  173.4810  142.5260 C   0  0  0  0  0  3  0  0  0  0  0  0
  193.0760  176.1410  143.1050 N   0  0  0  0  0  0  0  0  0  0  0  0
  193.4460  174.3020  144.6020 C   0  0  0  0  0  3  0  0  0  0  0  0
  194.2980  175.8770  142.4080 C   0  0  0  0  0  0  0  0  0  0  0  0
  195.8780  176.4160  140.6540 C   0  0  0  0  0  3  0  0  0  0  0  0
  197.7660  168.1810  147.1760 O   0  0  0  0  0  0  0  0  0  0  0  0
  194.6820  176.6780  141.3300 C   0  0  0  0  0  3  0  0  0  0  0  0
  192.6680  175.3250  144.2160 C   0  0  0  0  0  0  0  0  0  0  0  0
  196.3170  174.5430  142.1290 C   0  0  0  0  0  0  0  0  0  0  0  0
  195.1110  174.8050  142.8150 C   0  0  1  0  0  3  0  0  0  0  0  0
  196.6940  175.3500  141.0520 C   0  0  0  0  0  3  0  0  0  0  0  0
  197.2100  170.8100  145.0570 C   0  0  0  0  0  0  0  0  0  0  0  0
  195.8430  169.9370  146.9720 S   0  0  0  0  0  0  0  0  0  0  0  0
  197.9310  169.7570  145.5180 N   0  0  0  0  0  2  0  0  0  0  0  0
  196.0280  171.0600  145.7380 C   0  0  0  0  0  0  0  0  0  0  0  0
  196.7570  172.6730  143.6020 C   0  0  0  0  0  0  0  0  0  0  0  0
  195.1770  172.1030  145.3880 C   0  0  0  0  0  3  0  0  0  0  0  0
  195.5390  172.9280  144.3040 C   0  0  0  0  0  0  0  0  0  0  0  0
  189.8950  175.3090  146.8090 C   0  0  0  0  0  3  0  0  0  0  0  0
  190.4800  176.5130  144.3460 C   0  0  0  0  0  3  0  0  0  0  0  0
  186.8640  177.3800  146.3100 C   0  0  0  0  0  0  0  0  0  0  0  0
  187.7810  176.4880  146.8850 C   0  0  0  0  0  3  0  0  0  0  0  0
  188.9830  176.1970  146.2360 C   0  0  0  0  0  0  0  0  0  0  0  0
  188.3660  177.6930  144.4220 C   0  0  0  0  0  3  0  0  0  0  0  0
  189.2780  176.8040  144.9950 C   0  0  0  0  0  0  0  0  0  0  0  0
  187.1640  177.9790  145.0760 C   0  0  0  0  0  3  0  0  0  0  0  0
  191.4000  175.6210  144.9180 C   0  0  0  0  0  0  0  0  0  0  0  0
  191.0960  175.0220  146.1540 C   0  0  0  0  0  3  0  0  0  0  0  0
  185.5990  177.6830  146.9980 C   0  0  0  0  0  0  0  0  0  0  0  0
  185.5780  177.8700  148.2440 O   0  0  0  0  0  1  0  0  0  0  0  0
  184.4120  177.7640  146.2780 O   0  0  0  0  0  0  0  0  0  0  0  0
  1 21  1  0  0  0  0
  1  6  2  0  0  0  0
  2 15  1  0  0  0  0
  3 16  1  0  0  0  0
  3  9  2  0  0  0  0
  4 19  1  0  0  0  0
  5 11  2  0  0  0  0
  7 13  1  0  0  0  0
  7  5  1  0  0  0  0
  8 14  2  0  0  0  0
  8 10  1  0  0  0  0
 10  7  2  0  0  0  0
 11  6  1  0  0  0  0
 11 30  1  0  0  0  0
 12  4  2  0  0  0  0
 13 12  1  1  0  0  0
 13  1  1  0  0  0  0
 14 12  1  0  0  0  0
 15 17  1  0  0  0  0
 15 18  2  0  0  0  0
 17  3  1  0  0  0  0
 18 16  1  0  0  0  0
 19  2  2  0  0  0  0
 19 21  1  0  0  0  0
 20 18  1  0  0  0  0
 21 20  2  0  0  0  0
 23 30  2  0  0  0  0
 23 28  1  0  0  0  0
 24 25  1  0  0  0  0
 24 32  1  0  0  0  0
 26 22  1  0  0  0  0
 26 25  2  0  0  0  0
 27 28  2  0  0  0  0
 27 29  1  0  0  0  0
 28 26  1  0  0  0  0
 29 24  2  0  0  0  0
 30 31  1  0  0  0  0
 31 22  2  0  0  0  0
 32 33  1  0  0  0  0
 34 32  2  0  0  0  0
M  END
>  <MODEL>
7

>  <REMARK>
 VINA RESULT:      -8.3      4.200      6.222
  Name = 
  2 active torsions:
  status: ('A' for Active; 'I' for Inactive)
    1  A    between atoms: C_7  and  C_11
    2  A    between atoms: C_18  and  C_30
                            x       y       z     vdW  Elec       q    Type
                         _______ _______ _______ _____ _____    ______ ____

>  <TORSDO>
F 2

$$$$
=
 OpenBabel11052420323D

 34 40  0  0  1  0  0  0  0  0999 V2000
  187.4700  177.3810  144.0590 C   0  0  0  0  0  0  0  0  0  0  0  0
  184.9260  177.7940  141.3500 C   0  0  0  0  0  3  0  0  0  0  0  0
  186.0610  176.6050  138.1920 C   0  0  0  0  0  0  0  0  0  0  0  0
  184.8470  178.3650  143.6970 C   0  0  0  0  0  3  0  0  0  0  0  0
  188.6690  177.4770  146.6020 N   0  0  0  0  0  0  0  0  0  0  0  0
  188.8440  176.8730  144.2860 C   0  0  0  0  0  3  0  0  0  0  0  0
  187.3400  177.9760  146.4170 C   0  0  0  0  0  0  0  0  0  0  0  0
  185.3340  178.9990  147.3080 C   0  0  0  0  0  3  0  0  0  0  0  0
  185.8500  176.4080  136.9680 O   0  0  0  0  0  0  0  0  0  0  0  0
  186.6320  178.5120  147.4950 C   0  0  0  0  0  3  0  0  0  0  0  0
  189.4100  176.9220  145.5020 C   0  0  0  0  0  0  0  0  0  0  0  0
  185.4400  178.4150  144.9580 C   0  0  0  0  0  0  0  0  0  0  0  0
  186.7500  177.9230  145.1430 C   0  0  1  0  0  3  0  0  0  0  0  0
  184.7390  178.9500  146.0420 C   0  0  0  0  0  3  0  0  0  0  0  0
  185.6310  177.2590  140.2740 C   0  0  0  0  0  0  0  0  0  0  0  0
  187.5010  176.1990  138.9800 S   0  0  0  0  0  0  0  0  0  0  0  0
  185.1420  177.1680  139.0120 N   0  0  0  0  0  2  0  0  0  0  0  0
  186.9190  176.7740  140.4460 C   0  0  0  0  0  0  0  0  0  0  0  0
  185.5450  177.8320  142.6100 C   0  0  0  0  0  0  0  0  0  0  0  0
  187.5620  176.7960  141.6790 C   0  0  0  0  0  3  0  0  0  0  0  0
  186.8710  177.3310  142.7850 C   0  0  0  0  0  0  0  0  0  0  0  0
  192.5810  175.7320  147.2170 C   0  0  0  0  0  3  0  0  0  0  0  0
  191.6030  176.1280  144.6210 C   0  0  0  0  0  3  0  0  0  0  0  0
  195.5080  174.6840  145.2040 C   0  0  0  0  0  0  0  0  0  0  0  0
  194.6910  174.9690  146.3070 C   0  0  0  0  0  3  0  0  0  0  0  0
  193.3930  175.4490  146.1180 C   0  0  0  0  0  0  0  0  0  0  0  0
  193.7120  175.3640  143.7100 C   0  0  0  0  0  3  0  0  0  0  0  0
  192.9000  175.6480  144.8090 C   0  0  0  0  0  0  0  0  0  0  0  0
  195.0110  174.8840  143.9070 C   0  0  0  0  0  3  0  0  0  0  0  0
  190.7810  176.4140  145.7220 C   0  0  0  0  0  0  0  0  0  0  0  0
  191.2820  176.2120  147.0200 C   0  0  0  0  0  3  0  0  0  0  0  0
  196.8750  174.1790  145.4090 C   0  0  0  0  0  0  0  0  0  0  0  0
  197.2050  173.6570  146.5080 O   0  0  0  0  0  1  0  0  0  0  0  0
  197.8170  174.2720  144.3910 O   0  0  0  0  0  0  0  0  0  0  0  0
  1  6  1  0  0  0  0
  2 19  1  0  0  0  0
  3 16  1  0  0  0  0
  3 17  1  0  0  0  0
  4 12  1  0  0  0  0
  6 11  2  0  0  0  0
  7  5  2  0  0  0  0
  7 10  1  0  0  0  0
  8 10  2  0  0  0  0
  9  3  2  0  0  0  0
 11 30  1  0  0  0  0
 11  5  1  0  0  0  0
 12 13  1  0  0  0  0
 12 14  2  0  0  0  0
 13  1  1  6  0  0  0
 13  7  1  0  0  0  0
 14  8  1  0  0  0  0
 15 18  1  0  0  0  0
 15  2  2  0  0  0  0
 16 18  1  0  0  0  0
 17 15  1  0  0  0  0
 18 20  2  0  0  0  0
 19 21  1  0  0  0  0
 19  4  2  0  0  0  0
 20 21  1  0  0  0  0
 21  1  2  0  0  0  0
 23 28  2  0  0  0  0
 23 30  1  0  0  0  0
 24 32  1  0  0  0  0
 24 25  2  0  0  0  0
 26 25  1  0  0  0  0
 26 22  2  0  0  0  0
 27 29  2  0  0  0  0
 27 28  1  0  0  0  0
 28 26  1  0  0  0  0
 29 24  1  0  0  0  0
 30 31  2  0  0  0  0
 31 22  1  0  0  0  0
 32 33  1  0  0  0  0
 34 32  2  0  0  0  0
M  END
>  <MODEL>
8

>  <REMARK>
 VINA RESULT:      -8.2      2.968      9.285
  Name = 
  2 active torsions:
  status: ('A' for Active; 'I' for Inactive)
    1  A    between atoms: C_7  and  C_11
    2  A    between atoms: C_18  and  C_30
                            x       y       z     vdW  Elec       q    Type
                         _______ _______ _______ _____ _____    ______ ____

>  <TORSDO>
F 2

$$$$
=
 OpenBabel11052420323D

 34 40  0  0  1  0  0  0  0  0999 V2000
  186.3750  177.0890  143.6280 C   0  0  0  0  0  0  0  0  0  0  0  0
  183.2270  179.0410  144.1420 C   0  0  0  0  0  3  0  0  0  0  0  0
  181.1400  179.0890  141.2570 C   0  0  0  0  0  0  0  0  0  0  0  0
  185.0730  178.5900  145.6360 C   0  0  0  0  0  3  0  0  0  0  0  0
  188.8710  175.9030  144.1540 N   0  0  0  0  0  0  0  0  0  0  0  0
  187.0870  176.2950  142.5980 C   0  0  0  0  0  3  0  0  0  0  0  0
  188.2100  176.6640  145.1710 C   0  0  0  0  0  0  0  0  0  0  0  0
  188.1480  177.5670  147.4180 C   0  0  0  0  0  3  0  0  0  0  0  0
  180.0800  179.4610  140.6920 O   0  0  0  0  0  0  0  0  0  0  0  0
  188.7980  176.8210  146.4290 C   0  0  0  0  0  3  0  0  0  0  0  0
  188.2770  175.7320  142.8560 C   0  0  0  0  0  0  0  0  0  0  0  0
  186.3100  178.0030  145.8990 C   0  0  0  0  0  0  0  0  0  0  0  0
  186.9630  177.2520  144.8980 C   0  0  1  0  0  3  0  0  0  0  0  0
  186.9060  178.1560  147.1540 C   0  0  0  0  0  3  0  0  0  0  0  0
  182.6400  178.8840  142.8890 C   0  0  0  0  0  0  0  0  0  0  0  0
  182.3270  178.1410  140.5130 S   0  0  0  0  0  0  0  0  0  0  0  0
  181.4410  179.4160  142.5370 N   0  0  0  0  0  2  0  0  0  0  0  0
  183.2740  178.1490  141.8990 C   0  0  0  0  0  0  0  0  0  0  0  0
  184.4740  178.4400  144.3830 C   0  0  0  0  0  0  0  0  0  0  0  0
  184.5080  177.5410  142.1030 C   0  0  0  0  0  3  0  0  0  0  0  0
  185.1250  177.6820  143.3620 C   0  0  0  0  0  0  0  0  0  0  0  0
  190.9760  173.7900  141.0230 C   0  0  0  0  0  3  0  0  0  0  0  0
  188.3150  174.5850  140.6430 C   0  0  0  0  0  3  0  0  0  0  0  0
  190.2860  172.3390  137.6850 C   0  0  0  0  0  0  0  0  0  0  0  0
  190.9570  172.6930  138.8640 C   0  0  0  0  0  3  0  0  0  0  0  0
  190.3060  173.4390  139.8500 C   0  0  0  0  0  0  0  0  0  0  0  0
  188.2950  173.4860  138.4850 C   0  0  0  0  0  3  0  0  0  0  0  0
  188.9650  173.8390  139.6590 C   0  0  0  0  0  0  0  0  0  0  0  0
  188.9530  172.7400  137.5030 C   0  0  0  0  0  3  0  0  0  0  0  0
  188.9830  174.9410  141.8250 C   0  0  0  0  0  0  0  0  0  0  0  0
  190.3180  174.5380  142.0050 C   0  0  0  0  0  3  0  0  0  0  0  0
  190.9770  171.5530  136.6510 C   0  0  0  0  0  0  0  0  0  0  0  0
  190.3470  170.7020  135.9670 O   0  0  0  0  0  0  0  0  0  0  0  0
  192.3350  171.7410  136.4180 O   0  0  0  0  0  1  0  0  0  0  0  0
  2 19  1  0  0  0  0
  3 17  1  0  0  0  0
  4 12  1  0  0  0  0
  5  7  2  0  0  0  0
  6 11  2  0  0  0  0
  6  1  1  0  0  0  0
  7 10  1  0  0  0  0
  9  3  2  0  0  0  0
 10  8  2  0  0  0  0
 11  5  1  0  0  0  0
 12 14  2  0  0  0  0
 13  1  1  6  0  0  0
 13  7  1  0  0  0  0
 13 12  1  0  0  0  0
 14  8  1  0  0  0  0
 15  2  2  0  0  0  0
 16  3  1  0  0  0  0
 16 18  1  0  0  0  0
 17 15  1  0  0  0  0
 18 20  2  0  0  0  0
 18 15  1  0  0  0  0
 19  4  2  0  0  0  0
 20 21  1  0  0  0  0
 21  1  2  0  0  0  0
 21 19  1  0  0  0  0
 22 31  1  0  0  0  0
 23 30  1  0  0  0  0
 24 25  2  0  0  0  0
 25 26  1  0  0  0  0
 26 22  2  0  0  0  0
 27 28  1  0  0  0  0
 28 26  1  0  0  0  0
 28 23  2  0  0  0  0
 29 24  1  0  0  0  0
 29 27  2  0  0  0  0
 30 31  2  0  0  0  0
 30 11  1  0  0  0  0
 32 24  1  0  0  0  0
 33 32  2  0  0  0  0
 34 32  1  0  0  0  0
M  END
>  <MODEL>
9

>  <REMARK>
 VINA RESULT:      -8.1      4.464      9.196
  Name = 
  2 active torsions:
  status: ('A' for Active; 'I' for Inactive)
    1  A    between atoms: C_7  and  C_11
    2  A    between atoms: C_18  and  C_30
                            x       y       z     vdW  Elec       q    Type
                         _______ _______ _______ _____ _____    ______ ____

>  <TORSDO>
F 2

$$$$
