=
 OpenBabel11052417453D

 31 35  0  0  1  0  0  0  0  0999 V2000
  190.7090  177.1550  147.7810 C   0  0  0  0  0  0  0  0  0  0  0  0
  188.4170  176.4530  144.7920 C   0  0  0  0  0  0  0  0  0  0  0  0
  187.1630  177.0900  145.0490 C   0  0  0  0  0  0  0  0  0  0  0  0
  185.4910  177.4440  146.9210 C   0  0  0  0  0  2  0  0  0  0  0  0
  189.5300  176.3590  145.8000 C   0  0  0  0  0  0  0  0  0  0  0  0
  191.6930  176.1820  147.5990 C   0  0  0  0  0  3  0  0  0  0  0  0
  186.8990  177.6990  146.4070 C   0  0  0  0  0  2  0  0  0  0  0  0
  189.9540  175.1650  143.2210 C   0  0  2  0  0  3  0  0  0  0  0  0
  190.7900  178.0120  148.8260 F   0  0  0  0  0  0  0  0  0  0  0  0
  186.4850  176.6300  142.7510 C   0  0  0  0  0  3  0  0  0  0  0  0
  184.5520  178.5700  146.4940 C   0  0  0  0  0  2  0  0  0  0  0  0
  190.4880  174.4530  144.4610 C   0  0  0  0  0  2  0  0  0  0  0  0
  188.6390  175.8520  143.5250 C   0  0  0  0  0  0  0  0  0  0  0  0
  189.6420  177.2440  146.8850 C   0  0  0  0  0  3  0  0  0  0  0  0
  184.7450  178.9830  145.0350 C   0  0  0  0  0  2  0  0  0  0  0  0
  190.5510  175.4030  145.6110 C   0  0  0  0  0  0  0  0  0  0  0  0
  191.6140  175.3080  146.5140 C   0  0  0  0  0  3  0  0  0  0  0  0
  187.6830  175.9770  142.5150 C   0  0  0  0  0  3  0  0  0  0  0  0
  186.2060  177.1920  143.9940 C   0  0  0  0  0  0  0  0  0  0  0  0
  184.8170  177.7600  144.1350 C   0  0  0  0  0  2  0  0  0  0  0  0
  190.1550  171.0050  138.1050 C   0  0  2  0  0  3  0  0  0  0  0  0
  189.3450  172.3140  140.0500 C   0  0  0  0  0  2  0  0  0  0  0  0
  192.9530  172.6500  139.6860 O   0  0  0  0  0  0  0  0  0  0  0  0
  191.9680  174.5220  141.3110 O   0  0  0  0  0  0  0  0  0  0  0  0
  189.8210  170.5230  136.7770 N   0  0  0  0  0  1  0  0  0  0  0  0
  190.8710  173.9080  141.2150 C   0  0  0  0  0  0  0  0  0  0  0  0
  189.0480  171.9160  138.6080 C   0  0  0  0  0  2  0  0  0  0  0  0
  191.7540  172.4550  139.3520 C   0  0  0  0  0  0  0  0  0  0  0  0
  190.6670  172.9350  140.1740 N   0  0  0  0  0  0  0  0  0  0  0  0
  189.8120  174.2010  142.1340 N   0  0  0  0  0  2  0  0  0  0  0  0
  191.4720  171.7660  138.0510 C   0  0  0  0  0  2  0  0  0  0  0  0
  1  9  1  0  0  0  0
  2  3  1  0  0  0  0
  2  5  1  0  0  0  0
  3  7  1  0  0  0  0
  5 14  1  0  0  0  0
  6  1  1  0  0  0  0
  7  4  1  0  0  0  0
  8 30  1  6  0  0  0
  8 13  1  0  0  0  0
  8 12  1  0  0  0  0
 10 19  1  0  0  0  0
 11  4  1  0  0  0  0
 12 16  1  0  0  0  0
 13  2  2  0  0  0  0
 14  1  2  0  0  0  0
 15 11  1  0  0  0  0
 16  5  2  0  0  0  0
 16 17  1  0  0  0  0
 17  6  2  0  0  0  0
 18 10  2  0  0  0  0
 18 13  1  0  0  0  0
 19 20  1  0  0  0  0
 19  3  2  0  0  0  0
 20 15  1  0  0  0  0
 21 25  1  6  0  0  0
 21 27  1  0  0  0  0
 22 29  1  0  0  0  0
 26 24  2  0  0  0  0
 26 30  1  0  0  0  0
 27 22  1  0  0  0  0
 28 23  2  0  0  0  0
 28 29  1  0  0  0  0
 29 26  1  0  0  0  0
 31 21  1  0  0  0  0
 31 28  1  0  0  0  0
M  END
>  <MODEL>
1

>  <REMARK>
 VINA RESULT:      -9.2      0.000      0.000
  Name = 
  1 active torsions:
  status: ('A' for Active; 'I' for Inactive)
    1  A    between atoms: C_15  and  N_23
                            x       y       z     vdW  Elec       q    Type
                         _______ _______ _______ _____ _____    ______ ____

>  <TORSDO>
F 1

$$$$
=
 OpenBabel11052417453D

 31 35  0  0  1  0  0  0  0  0999 V2000
  183.6530  178.2250  141.5760 C   0  0  0  0  0  0  0  0  0  0  0  0
  186.6460  176.9480  143.5990 C   0  0  0  0  0  0  0  0  0  0  0  0
  186.4490  177.3430  144.9600 C   0  0  0  0  0  0  0  0  0  0  0  0
  185.6970  179.3360  146.3340 C   0  0  0  0  0  2  0  0  0  0  0  0
  185.7700  177.3990  142.4620 C   0  0  0  0  0  0  0  0  0  0  0  0
  184.1530  178.1410  140.2760 C   0  0  0  0  0  3  0  0  0  0  0  0
  185.3150  178.2800  145.3090 C   0  0  0  0  0  2  0  0  0  0  0  0
  187.9770  175.6650  141.8470 C   0  0  2  0  0  3  0  0  0  0  0  0
  182.3920  178.6680  141.7890 F   0  0  0  0  0  0  0  0  0  0  0  0
  188.3210  175.9230  145.6180 C   0  0  0  0  0  3  0  0  0  0  0  0
  185.4100  178.8370  147.7490 C   0  0  0  0  0  2  0  0  0  0  0  0
  187.6320  176.7940  140.8790 C   0  0  0  0  0  2  0  0  0  0  0  0
  187.7370  176.0980  143.2780 C   0  0  0  0  0  0  0  0  0  0  0  0
  184.4540  177.8510  142.6570 C   0  0  0  0  0  3  0  0  0  0  0  0
  185.8550  177.3930  147.9720 C   0  0  0  0  0  2  0  0  0  0  0  0
  186.2480  177.2880  141.1380 C   0  0  0  0  0  0  0  0  0  0  0  0
  185.4490  177.6720  140.0570 C   0  0  0  0  0  3  0  0  0  0  0  0
  188.5370  175.5740  144.2950 C   0  0  0  0  0  3  0  0  0  0  0  0
  187.2930  176.7930  145.9720 C   0  0  0  0  0  0  0  0  0  0  0  0
  187.2590  177.1720  147.4300 C   0  0  0  0  0  2  0  0  0  0  0  0
  193.9090  173.0530  140.6190 C   0  0  2  0  0  3  0  0  0  0  0  0
  192.1250  174.6210  141.3330 C   0  0  0  0  0  2  0  0  0  0  0  0
  190.7050  171.7880  139.5360 O   0  0  0  0  0  0  0  0  0  0  0  0
  188.8230  173.1250  140.8720 O   0  0  0  0  0  0  0  0  0  0  0  0
  195.2070  172.4990  140.9580 N   0  0  0  0  0  1  0  0  0  0  0  0
  189.7240  173.9690  141.1290 C   0  0  0  0  0  0  0  0  0  0  0  0
  193.4260  173.9450  141.7500 C   0  0  0  0  0  2  0  0  0  0  0  0
  191.5220  172.4400  140.2390 C   0  0  0  0  0  0  0  0  0  0  0  0
  191.1120  173.6380  140.9350 N   0  0  0  0  0  0  0  0  0  0  0  0
  189.3640  175.2570  141.6400 N   0  0  0  0  0  2  0  0  0  0  0  0
  192.9190  171.9190  140.3890 C   0  0  0  0  0  2  0  0  0  0  0  0
  1  9  1  0  0  0  0
  1 14  1  0  0  0  0
  2  3  1  0  0  0  0
  3  7  1  0  0  0  0
  3 19  2  0  0  0  0
  4 11  1  0  0  0  0
  5 14  2  0  0  0  0
  5  2  1  0  0  0  0
  6  1  2  0  0  0  0
  7  4  1  0  0  0  0
  8 30  1  1  0  0  0
  8 13  1  0  0  0  0
 10 19  1  0  0  0  0
 11 15  1  0  0  0  0
 12 16  1  0  0  0  0
 12  8  1  0  0  0  0
 13  2  2  0  0  0  0
 13 18  1  0  0  0  0
 16  5  1  0  0  0  0
 17  6  1  0  0  0  0
 17 16  2  0  0  0  0
 18 10  2  0  0  0  0
 19 20  1  0  0  0  0
 20 15  1  0  0  0  0
 21 25  1  1  0  0  0
 21 27  1  0  0  0  0
 22 27  1  0  0  0  0
 23 28  2  0  0  0  0
 24 26  2  0  0  0  0
 26 30  1  0  0  0  0
 28 31  1  0  0  0  0
 28 29  1  0  0  0  0
 29 26  1  0  0  0  0
 29 22  1  0  0  0  0
 31 21  1  0  0  0  0
M  END
>  <MODEL>
2

>  <REMARK>
 VINA RESULT:      -8.7      2.950      5.005
  Name = 
  1 active torsions:
  status: ('A' for Active; 'I' for Inactive)
    1  A    between atoms: C_15  and  N_23
                            x       y       z     vdW  Elec       q    Type
                         _______ _______ _______ _____ _____    ______ ____

>  <TORSDO>
F 1

$$$$
=
 OpenBabel11052417453D

 31 35  0  0  1  0  0  0  0  0999 V2000
  185.2490  177.7090  140.9980 C   0  0  0  0  0  0  0  0  0  0  0  0
  187.2540  176.7380  144.1150 C   0  0  0  0  0  0  0  0  0  0  0  0
  186.5810  177.2870  145.2510 C   0  0  0  0  0  0  0  0  0  0  0  0
  185.4280  179.4140  146.0090 C   0  0  0  0  0  2  0  0  0  0  0  0
  186.8700  177.0340  142.6910 C   0  0  0  0  0  0  0  0  0  0  0  0
  186.1900  177.4820  139.9920 C   0  0  0  0  0  3  0  0  0  0  0  0
  185.4230  178.2370  145.0460 C   0  0  0  0  0  2  0  0  0  0  0  0
  189.1030  175.2830  143.1390 C   0  0  2  0  0  3  0  0  0  0  0  0
  184.0100  178.1500  140.6780 F   0  0  0  0  0  0  0  0  0  0  0  0
  188.0420  175.9910  146.7130 C   0  0  0  0  0  3  0  0  0  0  0  0
  184.6280  179.0810  147.2670 C   0  0  0  0  0  2  0  0  0  0  0  0
  189.1670  176.2820  141.9870 C   0  0  0  0  0  2  0  0  0  0  0  0
  188.3640  175.8770  144.3200 C   0  0  0  0  0  0  0  0  0  0  0  0
  185.5860  177.4810  142.3340 C   0  0  0  0  0  3  0  0  0  0  0  0
  184.9230  177.6820  147.8050 C   0  0  0  0  0  2  0  0  0  0  0  0
  187.7980  176.7770  141.6590 C   0  0  0  0  0  0  0  0  0  0  0  0
  187.4620  177.0150  140.3230 C   0  0  0  0  0  3  0  0  0  0  0  0
  188.7210  175.4930  145.6140 C   0  0  0  0  0  3  0  0  0  0  0  0
  186.9790  176.8770  146.5600 C   0  0  0  0  0  0  0  0  0  0  0  0
  186.4210  177.4250  147.8480 C   0  0  0  0  0  2  0  0  0  0  0  0
  194.8930  172.6400  144.8760 C   0  0  2  0  0  3  0  0  0  0  0  0
  193.1470  174.2820  144.2330 C   0  0  0  0  0  2  0  0  0  0  0  0
  191.9030  170.8760  143.8810 O   0  0  0  0  0  0  0  0  0  0  0  0
  189.9050  172.6420  143.8470 O   0  0  0  0  0  0  0  0  0  0  0  0
  196.0280  172.3960  145.7470 N   0  0  0  0  0  1  0  0  0  0  0  0
  190.8010  173.5290  143.8350 C   0  0  0  0  0  0  0  0  0  0  0  0
  194.2560  173.9730  145.2330 C   0  0  0  0  0  2  0  0  0  0  0  0
  192.6020  171.8300  144.3160 C   0  0  0  0  0  0  0  0  0  0  0  0
  192.1610  173.1980  144.1740 N   0  0  0  0  0  0  0  0  0  0  0  0
  190.4570  174.8800  143.5060 N   0  0  0  0  0  2  0  0  0  0  0  0
  193.8780  171.5180  145.0380 C   0  0  0  0  0  2  0  0  0  0  0  0
  1 14  1  0  0  0  0
  2 13  2  0  0  0  0
  2  3  1  0  0  0  0
  3 19  2  0  0  0  0
  4 11  1  0  0  0  0
  5  2  1  0  0  0  0
  6 17  1  0  0  0  0
  6  1  2  0  0  0  0
  7  3  1  0  0  0  0
  7  4  1  0  0  0  0
  8 30  1  1  0  0  0
  8 13  1  0  0  0  0
  9  1  1  0  0  0  0
 11 15  1  0  0  0  0
 12  8  1  0  0  0  0
 13 18  1  0  0  0  0
 14  5  2  0  0  0  0
 15 20  1  0  0  0  0
 16 12  1  0  0  0  0
 16  5  1  0  0  0  0
 17 16  2  0  0  0  0
 18 10  2  0  0  0  0
 19 10  1  0  0  0  0
 19 20  1  0  0  0  0
 21 31  1  0  0  0  0
 21 27  1  0  0  0  0
 21 25  1  1  0  0  0
 22 27  1  0  0  0  0
 23 28  2  0  0  0  0
 26 24  2  0  0  0  0
 26 29  1  0  0  0  0
 28 31  1  0  0  0  0
 29 22  1  0  0  0  0
 29 28  1  0  0  0  0
 30 26  1  0  0  0  0
M  END
>  <MODEL>
3

>  <REMARK>
 VINA RESULT:      -8.3      3.756      5.544
  Name = 
  1 active torsions:
  status: ('A' for Active; 'I' for Inactive)
    1  A    between atoms: C_15  and  N_23
                            x       y       z     vdW  Elec       q    Type
                         _______ _______ _______ _____ _____    ______ ____

>  <TORSDO>
F 1

$$$$
=
 OpenBabel11052417453D

 31 35  0  0  1  0  0  0  0  0999 V2000
  195.4430  173.6590  145.6420 C   0  0  0  0  0  0  0  0  0  0  0  0
  191.9270  173.3670  144.1480 C   0  0  0  0  0  0  0  0  0  0  0  0
  191.9200  172.2330  143.2760 C   0  0  0  0  0  0  0  0  0  0  0  0
  193.3420  171.1180  141.4980 C   0  0  0  0  0  2  0  0  0  0  0  0
  193.1680  173.9120  144.8000 C   0  0  0  0  0  0  0  0  0  0  0  0
  195.4250  174.9720  146.1150 C   0  0  0  0  0  3  0  0  0  0  0  0
  193.2190  171.5290  142.9560 C   0  0  0  0  0  2  0  0  0  0  0  0
  190.6800  175.2500  145.3240 C   0  0  2  0  0  3  0  0  0  0  0  0
  196.5480  172.8940  145.8100 F   0  0  0  0  0  0  0  0  0  0  0  0
  189.4940  172.4160  143.0950 C   0  0  0  0  0  3  0  0  0  0  0  0
  192.7970  169.7070  141.2900 C   0  0  0  0  0  2  0  0  0  0  0  0
  191.9450  176.0860  145.1500 C   0  0  0  0  0  2  0  0  0  0  0  0
  190.7070  174.0430  144.4100 C   0  0  0  0  0  0  0  0  0  0  0  0
  194.3210  173.1340  144.9970 C   0  0  0  0  0  3  0  0  0  0  0  0
  191.4750  169.4670  142.0180 C   0  0  0  0  0  2  0  0  0  0  0  0
  193.1550  175.2270  145.3150 C   0  0  0  0  0  0  0  0  0  0  0  0
  194.2820  175.7540  145.9520 C   0  0  0  0  0  3  0  0  0  0  0  0
  189.5070  173.5390  143.9050 C   0  0  0  0  0  3  0  0  0  0  0  0
  190.6740  171.7510  142.7720 C   0  0  0  0  0  0  0  0  0  0  0  0
  190.5150  170.6230  141.7850 C   0  0  0  0  0  2  0  0  0  0  0  0
  185.0580  178.6780  144.9170 C   0  0  2  0  0  3  0  0  0  0  0  0
  187.3000  177.7540  144.3940 C   0  0  0  0  0  2  0  0  0  0  0  0
  186.2830  176.8330  147.7680 O   0  0  0  0  0  0  0  0  0  0  0  0
  188.3340  175.3430  146.9380 O   0  0  0  0  0  0  0  0  0  0  0  0
  183.7660  179.0400  144.3640 N   0  0  0  0  0  1  0  0  0  0  0  0
  188.3660  176.1000  145.9300 C   0  0  0  0  0  0  0  0  0  0  0  0
  185.9030  178.0140  143.8420 C   0  0  0  0  0  2  0  0  0  0  0  0
  186.1670  177.1650  146.5590 C   0  0  0  0  0  0  0  0  0  0  0  0
  187.2510  176.9590  145.6260 N   0  0  0  0  0  0  0  0  0  0  0  0
  189.5100  176.0850  145.0690 N   0  0  0  0  0  2  0  0  0  0  0  0
  184.8600  177.7260  146.0880 C   0  0  0  0  0  2  0  0  0  0  0  0
  1  9  1  0  0  0  0
  1  6  1  0  0  0  0
  2 13  1  0  0  0  0
  2  5  1  0  0  0  0
  3  2  2  0  0  0  0
  4  7  1  0  0  0  0
  5 14  1  0  0  0  0
  5 16  2  0  0  0  0
  7  3  1  0  0  0  0
  8 30  1  6  0  0  0
 10 18  1  0  0  0  0
 11  4  1  0  0  0  0
 11 15  1  0  0  0  0
 12 16  1  0  0  0  0
 12  8  1  0  0  0  0
 13  8  1  0  0  0  0
 14  1  2  0  0  0  0
 16 17  1  0  0  0  0
 17  6  2  0  0  0  0
 18 13  2  0  0  0  0
 19 10  2  0  0  0  0
 19  3  1  0  0  0  0
 20 15  1  0  0  0  0
 20 19  1  0  0  0  0
 21 25  1  6  0  0  0
 21 31  1  0  0  0  0
 22 29  1  0  0  0  0
 26 24  2  0  0  0  0
 27 22  1  0  0  0  0
 27 21  1  0  0  0  0
 28 23  2  0  0  0  0
 29 26  1  0  0  0  0
 29 28  1  0  0  0  0
 30 26  1  0  0  0  0
 31 28  1  0  0  0  0
M  END
>  <MODEL>
4

>  <REMARK>
 VINA RESULT:      -8.2      3.849      7.953
  Name = 
  1 active torsions:
  status: ('A' for Active; 'I' for Inactive)
    1  A    between atoms: C_15  and  N_23
                            x       y       z     vdW  Elec       q    Type
                         _______ _______ _______ _____ _____    ______ ____

>  <TORSDO>
F 1

$$$$
=
 OpenBabel11052417453D

 31 35  0  0  1  0  0  0  0  0999 V2000
  185.1120  177.8470  141.2430 C   0  0  0  0  0  0  0  0  0  0  0  0
  187.4830  177.2240  144.1870 C   0  0  0  0  0  0  0  0  0  0  0  0
  186.7700  177.5250  145.3890 C   0  0  0  0  0  0  0  0  0  0  0  0
  185.1840  179.2560  146.3470 C   0  0  0  0  0  2  0  0  0  0  0  0
  186.9500  177.4970  142.8070 C   0  0  0  0  0  0  0  0  0  0  0  0
  186.0150  177.9160  140.1810 C   0  0  0  0  0  3  0  0  0  0  0  0
  185.4050  178.1710  145.3060 C   0  0  0  0  0  2  0  0  0  0  0  0
  189.5650  176.3270  143.0260 C   0  0  2  0  0  3  0  0  0  0  0  0
  183.7850  177.9870  141.0130 F   0  0  0  0  0  0  0  0  0  0  0  0
  188.5890  176.5480  146.6870 C   0  0  0  0  0  3  0  0  0  0  0  0
  184.5690  178.6660  147.6150 C   0  0  0  0  0  2  0  0  0  0  0  0
  189.3130  177.3740  141.9450 C   0  0  0  0  0  2  0  0  0  0  0  0
  188.7800  176.6530  144.2790 C   0  0  0  0  0  0  0  0  0  0  0  0
  185.5770  177.6340  142.5420 C   0  0  0  0  0  3  0  0  0  0  0  0
  185.2270  177.3540  148.0390 C   0  0  0  0  0  2  0  0  0  0  0  0
  187.8470  177.5350  141.7170 C   0  0  0  0  0  0  0  0  0  0  0  0
  187.3810  177.7590  140.4180 C   0  0  0  0  0  3  0  0  0  0  0  0
  189.2990  176.2950  145.5250 C   0  0  0  0  0  3  0  0  0  0  0  0
  187.3350  177.1520  146.6460 C   0  0  0  0  0  0  0  0  0  0  0  0
  186.7430  177.4720  147.9940 C   0  0  0  0  0  2  0  0  0  0  0  0
  196.0660  175.3720  143.6170 C   0  0  2  0  0  3  0  0  0  0  0  0
  193.7600  176.2060  143.9950 C   0  0  0  0  0  2  0  0  0  0  0  0
  193.9370  174.2620  140.9200 O   0  0  0  0  0  0  0  0  0  0  0  0
  191.4100  174.6080  141.7000 O   0  0  0  0  0  0  0  0  0  0  0  0
  197.2830  174.9160  144.2630 N   0  0  0  0  0  1  0  0  0  0  0  0
  191.8770  175.3750  142.5850 C   0  0  0  0  0  0  0  0  0  0  0  0
  194.9920  175.6070  144.6660 C   0  0  0  0  0  2  0  0  0  0  0  0
  194.2400  174.6540  142.0780 C   0  0  0  0  0  0  0  0  0  0  0  0
  193.2820  175.3600  142.8970 N   0  0  0  0  0  0  0  0  0  0  0  0
  190.9970  176.2490  143.3000 N   0  0  0  0  0  2  0  0  0  0  0  0
  195.5980  174.3220  142.6180 C   0  0  0  0  0  2  0  0  0  0  0  0
  1 14  1  0  0  0  0
  2 13  2  0  0  0  0
  2  3  1  0  0  0  0
  3 19  2  0  0  0  0
  4 11  1  0  0  0  0
  5  2  1  0  0  0  0
  6 17  1  0  0  0  0
  6  1  2  0  0  0  0
  7  3  1  0  0  0  0
  7  4  1  0  0  0  0
  8 30  1  1  0  0  0
  8 13  1  0  0  0  0
  9  1  1  0  0  0  0
 11 15  1  0  0  0  0
 12  8  1  0  0  0  0
 13 18  1  0  0  0  0
 14  5  2  0  0  0  0
 16 12  1  0  0  0  0
 16  5  1  0  0  0  0
 17 16  2  0  0  0  0
 18 10  2  0  0  0  0
 19 10  1  0  0  0  0
 19 20  1  0  0  0  0
 20 15  1  0  0  0  0
 21 25  1  1  0  0  0
 21 27  1  0  0  0  0
 22 27  1  0  0  0  0
 23 28  2  0  0  0  0
 24 26  2  0  0  0  0
 26 29  1  0  0  0  0
 26 30  1  0  0  0  0
 28 31  1  0  0  0  0
 28 29  1  0  0  0  0
 29 22  1  0  0  0  0
 31 21  1  0  0  0  0
M  END
>  <MODEL>
5

>  <REMARK>
 VINA RESULT:      -8.1      3.681      5.588
  Name = 
  1 active torsions:
  status: ('A' for Active; 'I' for Inactive)
    1  A    between atoms: C_15  and  N_23
                            x       y       z     vdW  Elec       q    Type
                         _______ _______ _______ _____ _____    ______ ____

>  <TORSDO>
F 1

$$$$
=
 OpenBabel11052417453D

 31 35  0  0  1  0  0  0  0  0999 V2000
  192.6940  170.1350  141.6750 C   0  0  0  0  0  0  0  0  0  0  0  0
  192.7050  173.1130  144.0850 C   0  0  0  0  0  0  0  0  0  0  0  0
  194.0120  173.2010  144.6590 C   0  0  0  0  0  0  0  0  0  0  0  0
  195.8270  171.7260  145.6360 C   0  0  0  0  0  2  0  0  0  0  0  0
  192.2500  171.9770  143.2110 C   0  0  0  0  0  0  0  0  0  0  0  0
  191.3230  169.9230  141.5170 C   0  0  0  0  0  3  0  0  0  0  0  0
  195.0140  172.0970  144.4070 C   0  0  0  0  0  2  0  0  0  0  0  0
  190.3660  174.0720  143.7730 C   0  0  2  0  0  3  0  0  0  0  0  0
  193.5800  169.3500  141.0180 F   0  0  0  0  0  0  0  0  0  0  0  0
  193.4220  175.3670  145.6130 C   0  0  0  0  0  3  0  0  0  0  0  0
  197.1090  172.5550  145.7010 C   0  0  0  0  0  2  0  0  0  0  0  0
  189.8710  172.6290  143.7190 C   0  0  0  0  0  2  0  0  0  0  0  0
  191.7600  174.1370  144.3600 C   0  0  0  0  0  0  0  0  0  0  0  0
  193.1500  171.1570  142.5100 C   0  0  0  0  0  3  0  0  0  0  0  0
  196.8780  174.0320  145.3830 C   0  0  0  0  0  2  0  0  0  0  0  0
  190.8670  171.7710  143.0130 C   0  0  0  0  0  0  0  0  0  0  0  0
  190.4110  170.7410  142.1840 C   0  0  0  0  0  3  0  0  0  0  0  0
  192.1430  175.2620  145.0920 C   0  0  0  0  0  3  0  0  0  0  0  0
  194.3650  174.3630  145.4090 C   0  0  0  0  0  0  0  0  0  0  0  0
  195.6690  174.5630  146.1370 C   0  0  0  0  0  2  0  0  0  0  0  0
  185.9580  178.1480  146.5080 C   0  0  2  0  0  3  0  0  0  0  0  0
  187.6590  176.3660  146.2150 C   0  0  0  0  0  2  0  0  0  0  0  0
  186.5730  177.6510  142.9850 O   0  0  0  0  0  0  0  0  0  0  0  0
  188.8270  176.2440  142.7560 O   0  0  0  0  0  0  0  0  0  0  0  0
  185.5100  179.2320  147.3630 N   0  0  0  0  0  1  0  0  0  0  0  0
  188.6670  175.9470  143.9710 C   0  0  0  0  0  0  0  0  0  0  0  0
  187.2630  177.5840  147.0430 C   0  0  0  0  0  2  0  0  0  0  0  0
  186.8120  177.6390  144.2210 C   0  0  0  0  0  0  0  0  0  0  0  0
  187.7450  176.6920  144.7880 N   0  0  0  0  0  0  0  0  0  0  0  0
  189.4250  174.8780  144.5460 N   0  0  0  0  0  2  0  0  0  0  0  0
  186.1570  178.6690  145.0910 C   0  0  0  0  0  2  0  0  0  0  0  0
  1 14  1  0  0  0  0
  2 13  2  0  0  0  0
  2  3  1  0  0  0  0
  3 19  2  0  0  0  0
  4 11  1  0  0  0  0
  5  2  1  0  0  0  0
  6  1  2  0  0  0  0
  6 17  1  0  0  0  0
  7  3  1  0  0  0  0
  7  4  1  0  0  0  0
  8 13  1  0  0  0  0
  8 30  1  1  0  0  0
  9  1  1  0  0  0  0
 12  8  1  0  0  0  0
 13 18  1  0  0  0  0
 14  5  2  0  0  0  0
 15 11  1  0  0  0  0
 15 20  1  0  0  0  0
 16  5  1  0  0  0  0
 16 12  1  0  0  0  0
 17 16  2  0  0  0  0
 18 10  2  0  0  0  0
 19 10  1  0  0  0  0
 19 20  1  0  0  0  0
 21 27  1  0  0  0  0
 21 25  1  1  0  0  0
 22 27  1  0  0  0  0
 23 28  2  0  0  0  0
 24 26  2  0  0  0  0
 26 30  1  0  0  0  0
 26 29  1  0  0  0  0
 28 29  1  0  0  0  0
 28 31  1  0  0  0  0
 29 22  1  0  0  0  0
 31 21  1  0  0  0  0
M  END
>  <MODEL>
6

>  <REMARK>
 VINA RESULT:      -7.9      4.215      8.717
  Name = 
  1 active torsions:
  status: ('A' for Active; 'I' for Inactive)
    1  A    between atoms: C_15  and  N_23
                            x       y       z     vdW  Elec       q    Type
                         _______ _______ _______ _____ _____    ______ ____

>  <TORSDO>
F 1

$$$$
=
 OpenBabel11052417453D

 31 35  0  0  1  0  0  0  0  0999 V2000
  195.3740  174.2590  145.2130 C   0  0  0  0  0  0  0  0  0  0  0  0
  192.0670  174.4380  143.2860 C   0  0  0  0  0  0  0  0  0  0  0  0
  192.2520  173.7530  142.0450 C   0  0  0  0  0  0  0  0  0  0  0  0
  193.9420  173.5120  140.1700 C   0  0  0  0  0  2  0  0  0  0  0  0
  193.1810  174.7290  144.2550 C   0  0  0  0  0  0  0  0  0  0  0  0
  195.1880  175.2680  146.1600 C   0  0  0  0  0  3  0  0  0  0  0  0
  193.6360  173.2950  141.6430 C   0  0  0  0  0  2  0  0  0  0  0  0
  190.5400  175.6310  144.9390 C   0  0  2  0  0  3  0  0  0  0  0  0
  196.5210  173.5410  145.2060 F   0  0  0  0  0  0  0  0  0  0  0  0
  189.8500  173.8860  141.6400 C   0  0  0  0  0  3  0  0  0  0  0  0
  193.5520  172.2810  139.3540 C   0  0  0  0  0  2  0  0  0  0  0  0
  191.7340  176.5210  145.2730 C   0  0  0  0  0  2  0  0  0  0  0  0
  190.7700  174.8970  143.6340 C   0  0  0  0  0  0  0  0  0  0  0  0
  194.3750  173.9890  144.2750 C   0  0  0  0  0  3  0  0  0  0  0  0
  192.1920  171.7110  139.7520 C   0  0  0  0  0  2  0  0  0  0  0  0
  192.9950  175.7230  145.2400 C   0  0  0  0  0  0  0  0  0  0  0  0
  193.9990  175.9980  146.1730 C   0  0  0  0  0  3  0  0  0  0  0  0
  189.6780  174.5870  142.8230 C   0  0  0  0  0  3  0  0  0  0  0  0
  191.1120  173.4600  141.2360 C   0  0  0  0  0  0  0  0  0  0  0  0
  191.1570  172.8180  139.8730 C   0  0  0  0  0  2  0  0  0  0  0  0
  184.8010  178.8510  145.4070 C   0  0  2  0  0  3  0  0  0  0  0  0
  187.0270  178.1020  144.6080 C   0  0  0  0  0  2  0  0  0  0  0  0
  186.2820  176.6680  147.8720 O   0  0  0  0  0  0  0  0  0  0  0  0
  188.3130  175.3970  146.7010 O   0  0  0  0  0  0  0  0  0  0  0  0
  183.4620  179.2350  144.9980 N   0  0  0  0  0  1  0  0  0  0  0  0
  188.2500  176.2910  145.8130 C   0  0  0  0  0  0  0  0  0  0  0  0
  185.5870  178.3820  144.1930 C   0  0  0  0  0  2  0  0  0  0  0  0
  186.0700  177.1650  146.7340 C   0  0  0  0  0  0  0  0  0  0  0  0
  187.0910  177.1380  145.7120 N   0  0  0  0  0  0  0  0  0  0  0  0
  189.3300  176.4450  144.8860 N   0  0  0  0  0  2  0  0  0  0  0  0
  184.7160  177.7330  146.4370 C   0  0  0  0  0  2  0  0  0  0  0  0
  1  6  1  0  0  0  0
  2 13  1  0  0  0  0
  2  5  1  0  0  0  0
  3  2  2  0  0  0  0
  4  7  1  0  0  0  0
  5 14  1  0  0  0  0
  5 16  2  0  0  0  0
  6 17  2  0  0  0  0
  7  3  1  0  0  0  0
  8 30  1  6  0  0  0
  8 12  1  0  0  0  0
  9  1  1  0  0  0  0
 10 18  1  0  0  0  0
 11 15  1  0  0  0  0
 11  4  1  0  0  0  0
 13  8  1  0  0  0  0
 14  1  2  0  0  0  0
 15 20  1  0  0  0  0
 16 12  1  0  0  0  0
 16 17  1  0  0  0  0
 18 13  2  0  0  0  0
 19 10  2  0  0  0  0
 19  3  1  0  0  0  0
 20 19  1  0  0  0  0
 21 25  1  6  0  0  0
 21 31  1  0  0  0  0
 22 29  1  0  0  0  0
 26 24  2  0  0  0  0
 27 22  1  0  0  0  0
 27 21  1  0  0  0  0
 28 23  2  0  0  0  0
 29 26  1  0  0  0  0
 29 28  1  0  0  0  0
 30 26  1  0  0  0  0
 31 28  1  0  0  0  0
M  END
>  <MODEL>
7

>  <REMARK>
 VINA RESULT:      -7.9      3.621      7.958
  Name = 
  1 active torsions:
  status: ('A' for Active; 'I' for Inactive)
    1  A    between atoms: C_15  and  N_23
                            x       y       z     vdW  Elec       q    Type
                         _______ _______ _______ _____ _____    ______ ____

>  <TORSDO>
F 1

$$$$
=
 OpenBabel11052417453D

 31 35  0  0  1  0  0  0  0  0999 V2000
  192.4550  172.9380  139.1750 C   0  0  0  0  0  0  0  0  0  0  0  0
  192.1640  175.1100  142.3180 C   0  0  0  0  0  0  0  0  0  0  0  0
  193.4810  175.2820  142.8490 C   0  0  0  0  0  0  0  0  0  0  0  0
  195.5960  173.9640  143.3130 C   0  0  0  0  0  2  0  0  0  0  0  0
  191.8370  174.1850  141.1780 C   0  0  0  0  0  0  0  0  0  0  0  0
  191.1320  172.5250  139.0110 C   0  0  0  0  0  3  0  0  0  0  0  0
  194.6310  174.4920  142.2650 C   0  0  0  0  0  2  0  0  0  0  0  0
  189.6790  175.6650  142.3660 C   0  0  2  0  0  3  0  0  0  0  0  0
  193.4030  172.5370  138.2960 F   0  0  0  0  0  0  0  0  0  0  0  0
  192.6160  176.9650  144.3890 C   0  0  0  0  0  3  0  0  0  0  0  0
  196.7200  174.9680  143.5630 C   0  0  0  0  0  2  0  0  0  0  0  0
  189.4330  174.2240  141.9290 C   0  0  0  0  0  2  0  0  0  0  0  0
  191.0870  175.8280  142.9000 C   0  0  0  0  0  0  0  0  0  0  0  0
  192.8000  173.7650  140.2460 C   0  0  0  0  0  3  0  0  0  0  0  0
  196.2160  176.4060  143.6770 C   0  0  0  0  0  2  0  0  0  0  0  0
  190.4970  173.7860  140.9780 C   0  0  0  0  0  0  0  0  0  0  0  0
  190.1540  172.9500  139.9110 C   0  0  0  0  0  3  0  0  0  0  0  0
  191.3340  176.7670  143.9030 C   0  0  0  0  0  3  0  0  0  0  0  0
  193.6950  176.2450  143.8810 C   0  0  0  0  0  0  0  0  0  0  0  0
  195.0030  176.4810  144.5910 C   0  0  0  0  0  2  0  0  0  0  0  0
  185.0730  178.1210  146.4000 C   0  0  2  0  0  3  0  0  0  0  0  0
  186.8020  176.6350  145.4210 C   0  0  0  0  0  2  0  0  0  0  0  0
  185.9250  179.2970  143.0940 O   0  0  0  0  0  0  0  0  0  0  0  0
  188.1990  178.0990  142.3790 O   0  0  0  0  0  0  0  0  0  0  0  0
  184.5630  178.6970  147.6310 N   0  0  0  0  0  1  0  0  0  0  0  0
  187.9590  177.2780  143.3050 C   0  0  0  0  0  0  0  0  0  0  0  0
  186.3440  177.3400  146.6930 C   0  0  0  0  0  2  0  0  0  0  0  0
  186.0820  178.7080  144.1970 C   0  0  0  0  0  0  0  0  0  0  0  0
  186.9800  177.5830  144.3160 N   0  0  0  0  0  0  0  0  0  0  0  0
  188.6840  176.0450  143.3640 N   0  0  0  0  0  2  0  0  0  0  0  0
  185.3630  179.2340  145.4030 C   0  0  0  0  0  2  0  0  0  0  0  0
  1 14  1  0  0  0  0
  2  3  2  0  0  0  0
  2 13  1  0  0  0  0
  3 19  1  0  0  0  0
  4 11  1  0  0  0  0
  5  2  1  0  0  0  0
  6  1  2  0  0  0  0
  6 17  1  0  0  0  0
  7  3  1  0  0  0  0
  7  4  1  0  0  0  0
  8 13  1  0  0  0  0
  8 30  1  1  0  0  0
  9  1  1  0  0  0  0
 11 15  1  0  0  0  0
 12  8  1  0  0  0  0
 13 18  2  0  0  0  0
 14  5  2  0  0  0  0
 15 20  1  0  0  0  0
 16  5  1  0  0  0  0
 16 12  1  0  0  0  0
 17 16  2  0  0  0  0
 18 10  1  0  0  0  0
 19 10  2  0  0  0  0
 19 20  1  0  0  0  0
 21 27  1  0  0  0  0
 21 25  1  1  0  0  0
 22 27  1  0  0  0  0
 23 28  2  0  0  0  0
 24 26  2  0  0  0  0
 26 30  1  0  0  0  0
 26 29  1  0  0  0  0
 28 29  1  0  0  0  0
 28 31  1  0  0  0  0
 29 22  1  0  0  0  0
 31 21  1  0  0  0  0
M  END
>  <MODEL>
8

>  <REMARK>
 VINA RESULT:      -7.9      4.140      8.618
  Name = 
  1 active torsions:
  status: ('A' for Active; 'I' for Inactive)
    1  A    between atoms: C_15  and  N_23
                            x       y       z     vdW  Elec       q    Type
                         _______ _______ _______ _____ _____    ______ ____

>  <TORSDO>
F 1

$$$$
=
 OpenBabel11052417453D

 31 35  0  0  1  0  0  0  0  0999 V2000
  185.1830  178.5170  147.0190 C   0  0  0  0  0  0  0  0  0  0  0  0
  186.9290  177.4720  143.7730 C   0  0  0  0  0  0  0  0  0  0  0  0
  186.0400  177.7590  142.6910 C   0  0  0  0  0  0  0  0  0  0  0  0
  183.5930  177.5630  142.0590 C   0  0  0  0  0  2  0  0  0  0  0  0
  186.5470  177.5890  145.2240 C   0  0  0  0  0  0  0  0  0  0  0  0
  185.9450  177.8330  147.9670 C   0  0  0  0  0  3  0  0  0  0  0  0
  184.6210  178.1920  142.9850 C   0  0  0  0  0  2  0  0  0  0  0  0
  189.2130  176.7120  144.6070 C   0  0  2  0  0  3  0  0  0  0  0  0
  184.1490  179.2960  147.4170 F   0  0  0  0  0  0  0  0  0  0  0  0
  187.8450  177.3010  141.1160 C   0  0  0  0  0  3  0  0  0  0  0  0
  183.3610  178.4480  140.8360 C   0  0  0  0  0  2  0  0  0  0  0  0
  188.4790  176.0730  145.7830 C   0  0  0  0  0  2  0  0  0  0  0  0
  188.2470  177.0300  143.4840 C   0  0  0  0  0  0  0  0  0  0  0  0
  185.4870  178.4000  145.6610 C   0  0  0  0  0  3  0  0  0  0  0  0
  184.6590  178.9920  140.2410 C   0  0  0  0  0  2  0  0  0  0  0  0
  187.3290  176.9300  146.1970 C   0  0  0  0  0  0  0  0  0  0  0  0
  187.0180  177.0410  147.5560 C   0  0  0  0  0  3  0  0  0  0  0  0
  188.6940  176.9820  142.1630 C   0  0  0  0  0  3  0  0  0  0  0  0
  186.5300  177.6910  141.3520 C   0  0  0  0  0  0  0  0  0  0  0  0
  185.6960  177.8880  140.1120 C   0  0  0  0  0  2  0  0  0  0  0  0
  194.5710  173.3420  142.7470 C   0  0  2  0  0  3  0  0  0  0  0  0
  192.2120  173.9500  143.2160 C   0  0  0  0  0  2  0  0  0  0  0  0
  194.4800  176.4620  144.5610 O   0  0  0  0  0  0  0  0  0  0  0  0
  191.9780  177.3800  144.4540 O   0  0  0  0  0  0  0  0  0  0  0  0
  195.4620  172.6880  141.8060 N   0  0  0  0  0  1  0  0  0  0  0  0
  191.6520  176.2080  144.1200 C   0  0  0  0  0  0  0  0  0  0  0  0
  193.1640  173.3780  142.1720 C   0  0  0  0  0  2  0  0  0  0  0  0
  194.0650  175.5390  143.8120 C   0  0  0  0  0  0  0  0  0  0  0  0
  192.6520  175.2700  143.6790 N   0  0  0  0  0  0  0  0  0  0  0  0
  190.2750  175.8180  144.1570 N   0  0  0  0  0  2  0  0  0  0  0  0
  195.0630  174.7580  143.0100 C   0  0  0  0  0  2  0  0  0  0  0  0
  1  9  1  0  0  0  0
  1  6  1  0  0  0  0
  2  5  1  0  0  0  0
  3  7  1  0  0  0  0
  3  2  2  0  0  0  0
  4  7  1  0  0  0  0
  5 14  1  0  0  0  0
  5 16  2  0  0  0  0
  8 30  1  6  0  0  0
  8 12  1  0  0  0  0
 10 19  2  0  0  0  0
 10 18  1  0  0  0  0
 11  4  1  0  0  0  0
 12 16  1  0  0  0  0
 13  2  1  0  0  0  0
 13  8  1  0  0  0  0
 14  1  2  0  0  0  0
 15 11  1  0  0  0  0
 16 17  1  0  0  0  0
 17  6  2  0  0  0  0
 18 13  2  0  0  0  0
 19  3  1  0  0  0  0
 20 15  1  0  0  0  0
 20 19  1  0  0  0  0
 21 25  1  6  0  0  0
 21 31  1  0  0  0  0
 22 29  1  0  0  0  0
 26 30  1  0  0  0  0
 26 24  2  0  0  0  0
 27 21  1  0  0  0  0
 27 22  1  0  0  0  0
 28 23  2  0  0  0  0
 29 28  1  0  0  0  0
 29 26  1  0  0  0  0
 31 28  1  0  0  0  0
M  END
>  <MODEL>
9

>  <REMARK>
 VINA RESULT:      -7.8      3.498      4.712
  Name = 
  1 active torsions:
  status: ('A' for Active; 'I' for Inactive)
    1  A    between atoms: C_15  and  N_23
                            x       y       z     vdW  Elec       q    Type
                         _______ _______ _______ _____ _____    ______ ____

>  <TORSDO>
F 1

$$$$
