=
 OpenBabel11052421223D

 43 48  0  0  1  0  0  0  0  0999 V2000
  189.3080  173.3230  142.8810 C   0  0  0  0  0  2  0  0  0  0  0  0
  188.2770  173.7120  141.8110 C   0  0  1  0  0  3  0  0  0  0  0  0
  189.2710  174.2930  144.0560 C   0  0  0  0  0  2  0  0  0  0  0  0
  187.9970  175.2210  141.7310 C   0  0  0  0  0  2  0  0  0  0  0  0
  189.2080  176.0470  142.1650 C   0  0  0  0  0  2  0  0  0  0  0  0
  189.6430  175.7140  143.6050 C   0  0  1  0  0  3  0  0  0  0  0  0
  190.0470  173.3080  140.0410 N   0  0  0  0  0  2  0  0  0  0  0  0
  188.6850  173.1790  140.4780 C   0  0  0  0  0  0  0  0  0  0  0  0
  187.8210  172.6260  139.7470 O   0  0  0  0  0  0  0  0  0  0  0  0
  190.5860  172.8430  138.7630 C   0  0  2  0  0  3  0  0  0  0  0  0
  192.5230  171.4040  138.6420 N   0  0  0  0  0  2  0  0  0  0  0  0
  193.0380  172.7560  138.4780 C   0  0  2  0  0  3  0  0  0  0  0  0
  191.1320  171.4740  138.8660 C   0  0  0  0  0  0  0  0  0  0  0  0
  191.7920  173.6750  138.3260 C   0  0  1  0  0  3  0  0  0  0  0  0
  191.6050  174.0620  136.9960 O   0  0  0  0  0  1  0  0  0  0  0  0
  190.4320  170.4570  139.1060 O   0  0  0  0  0  0  0  0  0  0  0  0
  193.9660  172.8420  137.3420 N   0  0  0  0  0  0  0  0  0  0  0  0
  196.0840  173.8290  136.5970 C   0  0  0  0  0  2  0  0  0  0  0  0
  195.4000  171.5450  135.8320 C   0  0  0  0  0  2  0  0  0  0  0  0
  196.5800  172.4610  136.1360 C   0  0  0  0  0  2  0  0  0  0  0  0
  194.4690  171.4970  137.0420 C   0  0  0  0  0  2  0  0  0  0  0  0
  195.1150  173.6510  137.7630 C   0  0  0  0  0  2  0  0  0  0  0  0
  189.1720  176.7520  144.6260 C   0  0  2  0  0  3  0  0  0  0  0  0
  194.3270  174.2320  145.2770 C   0  0  0  0  0  0  0  0  0  0  0  0
  190.3480  177.4450  145.3480 C   0  0  2  0  0  3  0  0  0  0  0  0
  192.3210  175.4600  145.8610 C   0  0  0  0  0  0  0  0  0  0  0  0
  194.5830  175.1390  144.2440 C   0  0  0  0  0  3  0  0  0  0  0  0
  195.2520  173.0950  145.5140 C   0  0  0  0  0  1  0  0  0  0  0  0
  192.5660  176.3590  144.8060 C   0  0  0  0  0  0  0  0  0  0  0  0
  193.1940  174.3910  146.0790 C   0  0  0  0  0  3  0  0  0  0  0  0
  193.7060  176.2020  144.0110 C   0  0  0  0  0  3  0  0  0  0  0  0
  191.6620  177.5330  144.5560 C   0  0  0  0  0  2  0  0  0  0  0  0
  190.5570  176.9350  146.7080 N   0  0  0  0  0  2  0  0  0  0  0  0
  191.0690  175.5630  146.6760 C   0  0  0  0  0  2  0  0  0  0  0  0
  188.2220  176.1480  145.5540 N   0  0  0  0  0  2  0  0  0  0  0  0
  187.4030  177.2200  146.0940 C   0  0  0  0  0  2  0  0  0  0  0  0
  185.5430  176.7870  144.5120 C   0  0  0  0  0  2  0  0  0  0  0  0
  185.0360  178.1450  144.0690 C   0  0  1  0  0  3  0  0  0  0  0  0
  184.8960  178.1440  146.7780 S   0  0  0  0  0  0  0  0  0  0  0  0
  185.9280  176.8700  145.9780 C   0  0  2  0  0  3  0  0  0  0  0  0
  184.1770  178.6780  145.1960 C   0  0  0  0  0  2  0  0  0  0  0  0
  186.5780  178.6800  142.5730 C   0  0  0  0  0  1  0  0  0  0  0  0
  186.1130  179.0080  143.8470 O   0  0  0  0  0  0  0  0  0  0  0  0
  1  3  1  0  0  0  0
  2  8  1  6  0  0  0
  2  1  1  0  0  0  0
  4  2  1  0  0  0  0
  4  5  1  0  0  0  0
  5  6  1  0  0  0  0
  6  3  1  0  0  0  0
  6 23  1  1  0  0  0
  7  8  1  0  0  0  0
  9  8  2  0  0  0  0
 10 13  1  0  0  0  0
 10  7  1  1  0  0  0
 11 13  1  0  0  0  0
 12 17  1  6  0  0  0
 12 11  1  0  0  0  0
 13 16  2  0  0  0  0
 14 15  1  6  0  0  0
 14 12  1  0  0  0  0
 14 10  1  0  0  0  0
 17 22  1  0  0  0  0
 18 22  1  0  0  0  0
 19 20  1  0  0  0  0
 19 21  1  0  0  0  0
 20 18  1  0  0  0  0
 21 17  1  0  0  0  0
 23 35  1  1  0  0  0
 24 28  1  0  0  0  0
 24 30  1  0  0  0  0
 25 23  1  6  0  0  0
 25 33  1  0  0  0  0
 26 30  2  0  0  0  0
 26 34  1  0  0  0  0
 27 24  2  0  0  0  0
 29 26  1  0  0  0  0
 31 27  1  0  0  0  0
 31 29  2  0  0  0  0
 32 29  1  0  0  0  0
 32 25  1  0  0  0  0
 34 33  1  0  0  0  0
 35 36  1  0  0  0  0
 37 40  1  0  0  0  0
 38 43  1  1  0  0  0
 38 37  1  0  0  0  0
 38 41  1  0  0  0  0
 40 36  1  6  0  0  0
 40 39  1  0  0  0  0
 41 39  1  0  0  0  0
 42 43  1  0  0  0  0
M  END
>  <MODEL>
1

>  <REMARK>
 VINA RESULT:      -7.1      0.000      0.000
  Name = 
  9 active torsions:
  status: ('A' for Active; 'I' for Inactive)
    1  A    between atoms: N_1  and  C_34
    2  A    between atoms: N_1  and  C_35
    3  A    between atoms: N_3  and  C_4
    4  A    between atoms: C_6  and  C_12
    5  A    between atoms: C_8  and  C_34
    6  A    between atoms: N_11  and  C_14
    7  A    between atoms: C_19  and  O_37
    8  A    between atoms: C_32  and  C_35
    9  A    between atoms: C_34  and  C_38
                            x       y       z     vdW  Elec       q    Type
                         _______ _______ _______ _____ _____    ______ ____

>  <TORSDO>
F 9

$$$$
=
 OpenBabel11052421223D

 43 48  0  0  1  0  0  0  0  0999 V2000
  191.7320  174.3170  141.1630 C   0  0  0  0  0  2  0  0  0  0  0  0
  190.5070  173.4530  140.8270 C   0  0  1  0  0  3  0  0  0  0  0  0
  192.9310  173.4510  141.5320 C   0  0  0  0  0  2  0  0  0  0  0  0
  190.4600  172.1160  141.5830 C   0  0  0  0  0  2  0  0  0  0  0  0
  191.1620  172.2040  142.9370 C   0  0  0  0  0  2  0  0  0  0  0  0
  192.6380  172.6210  142.7910 C   0  0  1  0  0  3  0  0  0  0  0  0
  189.2650  175.4040  141.8650 N   0  0  0  0  0  2  0  0  0  0  0  0
  189.2500  174.2270  141.0420 C   0  0  0  0  0  0  0  0  0  0  0  0
  188.1840  173.8300  140.5010 O   0  0  0  0  0  0  0  0  0  0  0  0
  188.1140  176.2530  142.1690 C   0  0  2  0  0  3  0  0  0  0  0  0
  188.2450  178.0570  143.7720 N   0  0  0  0  0  2  0  0  0  0  0  0
  187.7240  176.9180  144.5160 C   0  0  2  0  0  3  0  0  0  0  0  0
  188.5210  177.6460  142.4520 C   0  0  0  0  0  0  0  0  0  0  0  0
  187.4190  175.8180  143.4600 C   0  0  1  0  0  3  0  0  0  0  0  0
  186.0470  175.7170  143.2130 O   0  0  0  0  0  1  0  0  0  0  0  0
  189.0410  178.4100  141.5990 O   0  0  0  0  0  0  0  0  0  0  0  0
  186.5530  177.2930  145.3200 N   0  0  0  0  0  0  0  0  0  0  0  0
  185.7430  177.5550  147.6210 C   0  0  0  0  0  2  0  0  0  0  0  0
  184.9580  179.0920  145.8070 C   0  0  0  0  0  2  0  0  0  0  0  0
  185.2330  178.9570  147.3010 C   0  0  0  0  0  2  0  0  0  0  0  0
  186.2040  178.6870  145.0220 C   0  0  0  0  0  2  0  0  0  0  0  0
  186.9440  177.2370  146.7330 C   0  0  0  0  0  2  0  0  0  0  0  0
  193.6060  171.4410  142.9040 C   0  0  2  0  0  3  0  0  0  0  0  0
  194.6790  176.3770  145.7030 C   0  0  0  0  0  0  0  0  0  0  0  0
  194.4550  171.4960  144.1940 C   0  0  2  0  0  3  0  0  0  0  0  0
  195.1010  174.2250  144.6730 C   0  0  0  0  0  0  0  0  0  0  0  0
  193.6990  175.7990  146.5150 C   0  0  0  0  0  3  0  0  0  0  0  0
  194.9730  177.8290  145.8130 C   0  0  0  0  0  1  0  0  0  0  0  0
  194.0980  173.6470  145.4740 C   0  0  0  0  0  0  0  0  0  0  0  0
  195.3740  175.5920  144.7800 C   0  0  0  0  0  3  0  0  0  0  0  0
  193.4110  174.4360  146.4030 C   0  0  0  0  0  3  0  0  0  0  0  0
  193.7940  172.1770  145.4020 C   0  0  0  0  0  2  0  0  0  0  0  0
  195.8140  171.9930  143.9550 N   0  0  0  0  0  2  0  0  0  0  0  0
  195.7960  173.4190  143.6190 C   0  0  0  0  0  2  0  0  0  0  0  0
  194.4220  171.3450  141.7000 N   0  0  0  0  0  2  0  0  0  0  0  0
  194.3060  169.9820  141.2060 C   0  0  0  0  0  2  0  0  0  0  0  0
  192.9540  170.5810  139.2140 C   0  0  0  0  0  2  0  0  0  0  0  0
  191.9410  169.4690  139.0370 C   0  0  1  0  0  3  0  0  0  0  0  0
  194.3720  168.2670  139.0470 S   0  0  0  0  0  0  0  0  0  0  0  0
  194.2620  169.9720  139.6850 C   0  0  2  0  0  3  0  0  0  0  0  0
  192.6740  168.3090  138.4000 C   0  0  0  0  0  2  0  0  0  0  0  0
  190.4240  168.1660  139.9880 C   0  0  0  0  0  1  0  0  0  0  0  0
  191.4350  169.0820  140.2810 O   0  0  0  0  0  0  0  0  0  0  0  0
  1  3  1  0  0  0  0
  2  8  1  1  0  0  0
  2  1  1  0  0  0  0
  2  4  1  0  0  0  0
  3  6  1  0  0  0  0
  4  5  1  0  0  0  0
  6 23  1  6  0  0  0
  6  5  1  0  0  0  0
  8  7  1  0  0  0  0
  9  8  2  0  0  0  0
 10  7  1  1  0  0  0
 10 13  1  0  0  0  0
 10 14  1  0  0  0  0
 11 12  1  0  0  0  0
 12 17  1  6  0  0  0
 13 11  1  0  0  0  0
 14 15  1  6  0  0  0
 14 12  1  0  0  0  0
 16 13  2  0  0  0  0
 17 22  1  0  0  0  0
 19 20  1  0  0  0  0
 20 18  1  0  0  0  0
 21 17  1  0  0  0  0
 21 19  1  0  0  0  0
 22 18  1  0  0  0  0
 23 35  1  6  0  0  0
 24 28  1  0  0  0  0
 24 27  1  0  0  0  0
 25 23  1  6  0  0  0
 25 32  1  0  0  0  0
 26 30  1  0  0  0  0
 26 29  2  0  0  0  0
 29 31  1  0  0  0  0
 30 24  2  0  0  0  0
 31 27  2  0  0  0  0
 32 29  1  0  0  0  0
 33 25  1  0  0  0  0
 34 33  1  0  0  0  0
 34 26  1  0  0  0  0
 36 35  1  0  0  0  0
 37 40  1  0  0  0  0
 38 37  1  0  0  0  0
 38 43  1  1  0  0  0
 39 40  1  0  0  0  0
 40 36  1  1  0  0  0
 41 38  1  0  0  0  0
 41 39  1  0  0  0  0
 42 43  1  0  0  0  0
M  END
>  <MODEL>
2

>  <REMARK>
 VINA RESULT:      -6.8      3.560      9.044
  Name = 
  9 active torsions:
  status: ('A' for Active; 'I' for Inactive)
    1  A    between atoms: N_1  and  C_34
    2  A    between atoms: N_1  and  C_35
    3  A    between atoms: N_3  and  C_4
    4  A    between atoms: C_6  and  C_12
    5  A    between atoms: C_8  and  C_34
    6  A    between atoms: N_11  and  C_14
    7  A    between atoms: C_19  and  O_37
    8  A    between atoms: C_32  and  C_35
    9  A    between atoms: C_34  and  C_38
                            x       y       z     vdW  Elec       q    Type
                         _______ _______ _______ _____ _____    ______ ____

>  <TORSDO>
F 9

$$$$
=
 OpenBabel11052421223D

 43 48  0  0  1  0  0  0  0  0999 V2000
  189.3140  173.4400  142.7830 C   0  0  0  0  0  2  0  0  0  0  0  0
  188.3700  173.9560  141.6870 C   0  0  1  0  0  3  0  0  0  0  0  0
  189.2730  174.3420  144.0110 C   0  0  0  0  0  2  0  0  0  0  0  0
  188.1910  175.4820  141.6840 C   0  0  0  0  0  2  0  0  0  0  0  0
  189.4250  176.2000  142.2280 C   0  0  0  0  0  2  0  0  0  0  0  0
  189.7580  175.7580  143.6660 C   0  0  1  0  0  3  0  0  0  0  0  0
  189.9690  174.0600  139.7220 N   0  0  0  0  0  2  0  0  0  0  0  0
  188.8170  173.4740  140.3480 C   0  0  0  0  0  0  0  0  0  0  0  0
  188.1670  172.5570  139.7770 O   0  0  0  0  0  0  0  0  0  0  0  0
  190.5150  173.6950  138.4150 C   0  0  2  0  0  3  0  0  0  0  0  0
  189.4690  172.0290  137.0120 N   0  0  0  0  0  2  0  0  0  0  0  0
  190.5030  171.3170  137.7510 C   0  0  2  0  0  3  0  0  0  0  0  0
  189.4460  173.3700  137.4470 C   0  0  0  0  0  0  0  0  0  0  0  0
  191.3340  172.4060  138.4870 C   0  0  1  0  0  3  0  0  0  0  0  0
  192.5610  172.6240  137.8530 O   0  0  0  0  0  1  0  0  0  0  0  0
  188.6060  174.2050  137.0240 O   0  0  0  0  0  0  0  0  0  0  0  0
  191.3110  170.4710  136.8610 N   0  0  0  0  0  0  0  0  0  0  0  0
  192.0490  168.1660  136.4660 C   0  0  0  0  0  2  0  0  0  0  0  0
  191.5970  169.7080  134.5470 C   0  0  0  0  0  2  0  0  0  0  0  0
  191.6090  168.2550  135.0080 C   0  0  0  0  0  2  0  0  0  0  0  0
  190.7480  170.5390  135.5070 C   0  0  0  0  0  2  0  0  0  0  0  0
  191.1750  169.0840  137.3170 C   0  0  0  0  0  2  0  0  0  0  0  0
  189.2980  176.7660  144.7210 C   0  0  2  0  0  3  0  0  0  0  0  0
  194.3660  174.0620  145.3150 C   0  0  0  0  0  0  0  0  0  0  0  0
  190.4790  177.3800  145.5050 C   0  0  2  0  0  3  0  0  0  0  0  0
  192.3850  175.3110  145.9340 C   0  0  0  0  0  0  0  0  0  0  0  0
  194.6680  175.0200  144.3420 C   0  0  0  0  0  3  0  0  0  0  0  0
  195.2540  172.8860  145.5000 C   0  0  0  0  0  1  0  0  0  0  0  0
  192.6760  176.2640  144.9390 C   0  0  0  0  0  0  0  0  0  0  0  0
  193.2220  174.2060  146.1050 C   0  0  0  0  0  3  0  0  0  0  0  0
  193.8270  176.1200  144.1570 C   0  0  0  0  0  3  0  0  0  0  0  0
  191.8100  177.4760  144.7440 C   0  0  0  0  0  2  0  0  0  0  0  0
  190.6460  176.7840  146.8350 N   0  0  0  0  0  2  0  0  0  0  0  0
  191.1200  175.4030  146.7310 C   0  0  0  0  0  2  0  0  0  0  0  0
  188.3020  176.1560  145.5960 N   0  0  0  0  0  2  0  0  0  0  0  0
  187.5220  177.2350  146.1810 C   0  0  0  0  0  2  0  0  0  0  0  0
  185.5440  176.8140  144.7460 C   0  0  0  0  0  2  0  0  0  0  0  0
  185.0000  178.1750  144.3610 C   0  0  1  0  0  3  0  0  0  0  0  0
  185.0750  178.1420  147.0720 S   0  0  0  0  0  0  0  0  0  0  0  0
  186.0430  176.8810  146.1770 C   0  0  2  0  0  3  0  0  0  0  0  0
  184.2320  178.6920  145.5580 C   0  0  0  0  0  2  0  0  0  0  0  0
  186.4780  178.6720  142.7890 C   0  0  0  0  0  1  0  0  0  0  0  0
  186.0540  179.0440  144.0650 O   0  0  0  0  0  0  0  0  0  0  0  0
  1  3  1  0  0  0  0
  2  8  1  6  0  0  0
  2  1  1  0  0  0  0
  4  2  1  0  0  0  0
  4  5  1  0  0  0  0
  5  6  1  0  0  0  0
  6  3  1  0  0  0  0
  6 23  1  1  0  0  0
  7  8  1  0  0  0  0
  9  8  2  0  0  0  0
 10 14  1  0  0  0  0
 10  7  1  1  0  0  0
 11 13  1  0  0  0  0
 11 12  1  0  0  0  0
 12 17  1  6  0  0  0
 12 14  1  0  0  0  0
 13 10  1  0  0  0  0
 14 15  1  6  0  0  0
 16 13  2  0  0  0  0
 17 22  1  0  0  0  0
 18 22  1  0  0  0  0
 19 20  1  0  0  0  0
 19 21  1  0  0  0  0
 20 18  1  0  0  0  0
 21 17  1  0  0  0  0
 23 35  1  1  0  0  0
 24 28  1  0  0  0  0
 24 30  1  0  0  0  0
 25 23  1  6  0  0  0
 25 33  1  0  0  0  0
 26 30  2  0  0  0  0
 26 34  1  0  0  0  0
 27 24  2  0  0  0  0
 29 26  1  0  0  0  0
 31 27  1  0  0  0  0
 31 29  2  0  0  0  0
 32 29  1  0  0  0  0
 32 25  1  0  0  0  0
 34 33  1  0  0  0  0
 35 36  1  0  0  0  0
 37 40  1  0  0  0  0
 38 43  1  1  0  0  0
 38 37  1  0  0  0  0
 38 41  1  0  0  0  0
 40 36  1  6  0  0  0
 40 39  1  0  0  0  0
 41 39  1  0  0  0  0
 42 43  1  0  0  0  0
M  END
>  <MODEL>
3

>  <REMARK>
 VINA RESULT:      -6.8      1.872      2.355
  Name = 
  9 active torsions:
  status: ('A' for Active; 'I' for Inactive)
    1  A    between atoms: N_1  and  C_34
    2  A    between atoms: N_1  and  C_35
    3  A    between atoms: N_3  and  C_4
    4  A    between atoms: C_6  and  C_12
    5  A    between atoms: C_8  and  C_34
    6  A    between atoms: N_11  and  C_14
    7  A    between atoms: C_19  and  O_37
    8  A    between atoms: C_32  and  C_35
    9  A    between atoms: C_34  and  C_38
                            x       y       z     vdW  Elec       q    Type
                         _______ _______ _______ _____ _____    ______ ____

>  <TORSDO>
F 9

$$$$
=
 OpenBabel11052421223D

 43 48  0  0  1  0  0  0  0  0999 V2000
  191.0470  172.7900  139.7580 C   0  0  0  0  0  2  0  0  0  0  0  0
  190.2150  172.8460  141.0480 C   0  0  1  0  0  3  0  0  0  0  0  0
  192.3700  172.0690  139.9890 C   0  0  0  0  0  2  0  0  0  0  0  0
  191.0560  172.8870  142.3330 C   0  0  0  0  0  2  0  0  0  0  0  0
  192.4140  173.5500  142.1020 C   0  0  0  0  0  2  0  0  0  0  0  0
  193.2300  172.8200  141.0170 C   0  0  1  0  0  3  0  0  0  0  0  0
  189.3120  175.0070  142.0180 N   0  0  0  0  0  2  0  0  0  0  0  0
  189.2630  173.9930  141.0020 C   0  0  0  0  0  0  0  0  0  0  0  0
  188.4170  174.0530  140.0690 O   0  0  0  0  0  0  0  0  0  0  0  0
  188.4410  176.1780  142.1050 C   0  0  2  0  0  3  0  0  0  0  0  0
  188.4080  177.6040  144.0550 N   0  0  0  0  0  2  0  0  0  0  0  0
  187.3180  176.6580  144.2520 C   0  0  2  0  0  3  0  0  0  0  0  0
  189.0780  177.2790  142.8580 C   0  0  0  0  0  0  0  0  0  0  0  0
  187.1770  175.8810  142.9130 C   0  0  1  0  0  3  0  0  0  0  0  0
  186.0700  176.3230  142.1830 O   0  0  0  0  0  1  0  0  0  0  0  0
  190.1050  177.8920  142.4680 O   0  0  0  0  0  0  0  0  0  0  0  0
  186.0830  177.3420  144.6610 N   0  0  0  0  0  0  0  0  0  0  0  0
  184.4250  177.5070  146.4610 C   0  0  0  0  0  2  0  0  0  0  0  0
  185.0700  179.5260  145.1280 C   0  0  0  0  0  2  0  0  0  0  0  0
  184.5700  179.0260  146.4790 C   0  0  0  0  0  2  0  0  0  0  0  0
  186.3490  178.7810  144.7520 C   0  0  0  0  0  2  0  0  0  0  0  0
  185.7410  176.8780  146.0100 C   0  0  0  0  0  2  0  0  0  0  0  0
  194.3120  171.9060  141.5970 C   0  0  2  0  0  3  0  0  0  0  0  0
  196.7940  168.9650  145.9020 C   0  0  0  0  0  0  0  0  0  0  0  0
  193.7350  170.5770  142.1340 C   0  0  2  0  0  3  0  0  0  0  0  0
  195.7370  169.3760  143.7610 C   0  0  0  0  0  0  0  0  0  0  0  0
  195.7110  169.5600  146.5540 C   0  0  0  0  0  3  0  0  0  0  0  0
  197.9360  168.4330  146.6900 C   0  0  0  0  0  1  0  0  0  0  0  0
  194.6560  169.9970  144.4160 C   0  0  0  0  0  0  0  0  0  0  0  0
  196.8090  168.8790  144.5070 C   0  0  0  0  0  3  0  0  0  0  0  0
  194.6430  170.0720  145.8130 C   0  0  0  0  0  3  0  0  0  0  0  0
  193.4770  170.5220  143.6480 C   0  0  0  0  0  2  0  0  0  0  0  0
  194.4780  169.4050  141.6580 N   0  0  0  0  0  2  0  0  0  0  0  0
  195.8100  169.3520  142.2650 C   0  0  0  0  0  2  0  0  0  0  0  0
  195.0920  172.6250  142.5980 N   0  0  0  0  0  2  0  0  0  0  0  0
  195.8480  173.6530  141.9020 C   0  0  0  0  0  2  0  0  0  0  0  0
  196.3070  174.4940  144.1900 C   0  0  0  0  0  2  0  0  0  0  0  0
  195.7840  175.9160  144.2330 C   0  0  1  0  0  3  0  0  0  0  0  0
  197.5270  175.8260  142.1570 S   0  0  0  0  0  0  0  0  0  0  0  0
  196.9080  174.2430  142.8190 C   0  0  2  0  0  3  0  0  0  0  0  0
  196.8090  176.7790  143.5280 C   0  0  0  0  0  2  0  0  0  0  0  0
  193.6010  176.0580  144.5760 C   0  0  0  0  0  1  0  0  0  0  0  0
  194.5600  175.9950  143.5640 O   0  0  0  0  0  0  0  0  0  0  0  0
  1  3  1  0  0  0  0
  1  2  1  0  0  0  0
  2  8  1  6  0  0  0
  2  4  1  0  0  0  0
  3  6  1  0  0  0  0
  5  4  1  0  0  0  0
  6 23  1  1  0  0  0
  6  5  1  0  0  0  0
  8  7  1  0  0  0  0
  9  8  2  0  0  0  0
 10  7  1  1  0  0  0
 10 13  1  0  0  0  0
 10 14  1  0  0  0  0
 11 12  1  0  0  0  0
 12 17  1  6  0  0  0
 13 11  1  0  0  0  0
 14 15  1  6  0  0  0
 14 12  1  0  0  0  0
 16 13  2  0  0  0  0
 17 21  1  0  0  0  0
 17 22  1  0  0  0  0
 18 20  1  0  0  0  0
 19 20  1  0  0  0  0
 21 19  1  0  0  0  0
 22 18  1  0  0  0  0
 23 35  1  1  0  0  0
 24 27  1  0  0  0  0
 24 28  1  0  0  0  0
 25 23  1  1  0  0  0
 25 32  1  0  0  0  0
 26 29  2  0  0  0  0
 26 30  1  0  0  0  0
 29 31  1  0  0  0  0
 30 24  2  0  0  0  0
 31 27  2  0  0  0  0
 32 29  1  0  0  0  0
 33 25  1  0  0  0  0
 33 34  1  0  0  0  0
 34 26  1  0  0  0  0
 36 35  1  0  0  0  0
 37 38  1  0  0  0  0
 38 43  1  6  0  0  0
 39 40  1  0  0  0  0
 39 41  1  0  0  0  0
 40 36  1  6  0  0  0
 40 37  1  0  0  0  0
 41 38  1  0  0  0  0
 43 42  1  0  0  0  0
M  END
>  <MODEL>
4

>  <REMARK>
 VINA RESULT:      -6.7      3.740      9.036
  Name = 
  9 active torsions:
  status: ('A' for Active; 'I' for Inactive)
    1  A    between atoms: N_1  and  C_34
    2  A    between atoms: N_1  and  C_35
    3  A    between atoms: N_3  and  C_4
    4  A    between atoms: C_6  and  C_12
    5  A    between atoms: C_8  and  C_34
    6  A    between atoms: N_11  and  C_14
    7  A    between atoms: C_19  and  O_37
    8  A    between atoms: C_32  and  C_35
    9  A    between atoms: C_34  and  C_38
                            x       y       z     vdW  Elec       q    Type
                         _______ _______ _______ _____ _____    ______ ____

>  <TORSDO>
F 9

$$$$
=
 OpenBabel11052421223D

 43 48  0  0  1  0  0  0  0  0999 V2000
  188.9960  175.0440  141.6840 C   0  0  0  0  0  2  0  0  0  0  0  0
  188.7950  175.9280  142.9240 C   0  0  1  0  0  3  0  0  0  0  0  0
  190.1850  174.1070  141.8640 C   0  0  0  0  0  2  0  0  0  0  0  0
  190.0940  176.2490  143.6790 C   0  0  0  0  0  2  0  0  0  0  0  0
  191.3060  176.2570  142.7470 C   0  0  0  0  0  2  0  0  0  0  0  0
  191.4880  174.9050  142.0320 C   0  0  1  0  0  3  0  0  0  0  0  0
  186.6370  177.2090  142.5640 N   0  0  0  0  0  2  0  0  0  0  0  0
  188.0730  177.1810  142.5570 C   0  0  0  0  0  0  0  0  0  0  0  0
  188.7390  178.2010  142.2370 O   0  0  0  0  0  0  0  0  0  0  0  0
  185.8000  178.3580  142.2210 C   0  0  2  0  0  3  0  0  0  0  0  0
  183.7610  178.8560  143.4190 N   0  0  0  0  0  2  0  0  0  0  0  0
  183.3460  178.0830  142.2560 C   0  0  2  0  0  3  0  0  0  0  0  0
  185.1680  178.9510  143.4190 C   0  0  0  0  0  0  0  0  0  0  0  0
  184.6070  177.9470  141.3570 C   0  0  1  0  0  3  0  0  0  0  0  0
  184.5410  178.8050  140.2550 O   0  0  0  0  0  1  0  0  0  0  0  0
  185.8090  179.5120  144.3440 O   0  0  0  0  0  0  0  0  0  0  0  0
  182.2090  178.7150  141.5710 N   0  0  0  0  0  0  0  0  0  0  0  0
  180.3760  178.2950  139.9960 C   0  0  0  0  0  2  0  0  0  0  0  0
  180.0830  179.8930  141.9010 C   0  0  0  0  0  2  0  0  0  0  0  0
  179.3760  178.9180  140.9650 C   0  0  0  0  0  2  0  0  0  0  0  0
  181.2540  179.1870  142.5800 C   0  0  0  0  0  2  0  0  0  0  0  0
  181.5310  177.6800  140.7830 C   0  0  0  0  0  2  0  0  0  0  0  0
  192.5800  174.0380  142.6630 C   0  0  2  0  0  3  0  0  0  0  0  0
  196.2210  170.9580  145.9200 C   0  0  0  0  0  0  0  0  0  0  0  0
  192.5230  174.0480  144.2070 C   0  0  2  0  0  3  0  0  0  0  0  0
  194.1260  171.8870  145.1320 C   0  0  0  0  0  0  0  0  0  0  0  0
  196.7450  172.2470  146.0510 C   0  0  0  0  0  3  0  0  0  0  0  0
  197.0540  169.7770  146.2630 C   0  0  0  0  0  1  0  0  0  0  0  0
  194.6620  173.1840  145.2410 C   0  0  0  0  0  0  0  0  0  0  0  0
  194.9150  170.7790  145.4550 C   0  0  0  0  0  3  0  0  0  0  0  0
  195.9660  173.3570  145.7160 C   0  0  0  0  0  3  0  0  0  0  0  0
  193.8350  174.3970  144.9240 C   0  0  0  0  0  2  0  0  0  0  0  0
  191.8990  172.8380  144.7560 N   0  0  0  0  0  2  0  0  0  0  0  0
  192.7610  171.6710  144.5550 C   0  0  0  0  0  2  0  0  0  0  0  0
  193.8880  174.4280  142.1490 N   0  0  0  0  0  2  0  0  0  0  0  0
  194.2340  173.4910  141.0920 C   0  0  0  0  0  2  0  0  0  0  0  0
  196.4790  173.9710  142.0300 C   0  0  0  0  0  2  0  0  0  0  0  0
  197.2060  174.8010  140.9910 C   0  0  1  0  0  3  0  0  0  0  0  0
  196.4280  172.5340  139.7220 S   0  0  0  0  0  0  0  0  0  0  0  0
  195.6320  172.9350  141.3140 C   0  0  2  0  0  3  0  0  0  0  0  0
  197.6740  173.8430  139.9180 C   0  0  0  0  0  2  0  0  0  0  0  0
  196.3710  176.8260  141.3160 C   0  0  0  0  0  1  0  0  0  0  0  0
  196.3350  175.7420  140.4380 O   0  0  0  0  0  0  0  0  0  0  0  0
  1  3  1  0  0  0  0
  1  2  1  0  0  0  0
  2  8  1  6  0  0  0
  2  4  1  0  0  0  0
  3  6  1  0  0  0  0
  5  4  1  0  0  0  0
  6 23  1  1  0  0  0
  6  5  1  0  0  0  0
  8  7  1  0  0  0  0
  9  8  2  0  0  0  0
 10  7  1  1  0  0  0
 10 13  1  0  0  0  0
 12 17  1  6  0  0  0
 12 11  1  0  0  0  0
 13 11  1  0  0  0  0
 13 16  2  0  0  0  0
 14 15  1  6  0  0  0
 14 10  1  0  0  0  0
 14 12  1  0  0  0  0
 17 21  1  0  0  0  0
 18 22  1  0  0  0  0
 18 20  1  0  0  0  0
 19 21  1  0  0  0  0
 20 19  1  0  0  0  0
 22 17  1  0  0  0  0
 23 35  1  1  0  0  0
 24 27  1  0  0  0  0
 24 28  1  0  0  0  0
 25 23  1  6  0  0  0
 25 33  1  0  0  0  0
 25 32  1  0  0  0  0
 26 29  2  0  0  0  0
 26 30  1  0  0  0  0
 29 31  1  0  0  0  0
 30 24  2  0  0  0  0
 31 27  2  0  0  0  0
 32 29  1  0  0  0  0
 34 33  1  0  0  0  0
 34 26  1  0  0  0  0
 36 35  1  0  0  0  0
 38 43  1  6  0  0  0
 38 37  1  0  0  0  0
 39 41  1  0  0  0  0
 39 40  1  0  0  0  0
 40 36  1  6  0  0  0
 40 37  1  0  0  0  0
 41 38  1  0  0  0  0
 43 42  1  0  0  0  0
M  END
>  <MODEL>
5

>  <REMARK>
 VINA RESULT:      -6.7      4.123      9.630
  Name = 
  9 active torsions:
  status: ('A' for Active; 'I' for Inactive)
    1  A    between atoms: N_1  and  C_34
    2  A    between atoms: N_1  and  C_35
    3  A    between atoms: N_3  and  C_4
    4  A    between atoms: C_6  and  C_12
    5  A    between atoms: C_8  and  C_34
    6  A    between atoms: N_11  and  C_14
    7  A    between atoms: C_19  and  O_37
    8  A    between atoms: C_32  and  C_35
    9  A    between atoms: C_34  and  C_38
                            x       y       z     vdW  Elec       q    Type
                         _______ _______ _______ _____ _____    ______ ____

>  <TORSDO>
F 9

$$$$
=
 OpenBabel11052421223D

 43 48  0  0  1  0  0  0  0  0999 V2000
  194.9170  174.4900  145.8590 C   0  0  0  0  0  2  0  0  0  0  0  0
  194.0170  175.5360  145.1870 C   0  0  1  0  0  3  0  0  0  0  0  0
  195.6390  173.6380  144.8210 C   0  0  0  0  0  2  0  0  0  0  0  0
  193.4520  175.0940  143.8280 C   0  0  0  0  0  2  0  0  0  0  0  0
  193.2950  173.5750  143.7450 C   0  0  0  0  0  2  0  0  0  0  0  0
  194.6350  172.8480  143.9680 C   0  0  1  0  0  3  0  0  0  0  0  0
  191.5620  175.5630  145.8210 N   0  0  0  0  0  2  0  0  0  0  0  0
  192.9160  175.9440  146.1080 C   0  0  0  0  0  0  0  0  0  0  0  0
  193.1930  176.6280  147.1300 O   0  0  0  0  0  0  0  0  0  0  0  0
  190.3870  175.8960  146.6260 C   0  0  2  0  0  3  0  0  0  0  0  0
  188.1400  175.5900  145.7940 N   0  0  0  0  0  2  0  0  0  0  0  0
  188.4660  176.9830  145.5190 C   0  0  2  0  0  3  0  0  0  0  0  0
  189.2670  174.9670  146.3680 C   0  0  0  0  0  0  0  0  0  0  0  0
  189.8130  177.2610  146.2450 C   0  0  1  0  0  3  0  0  0  0  0  0
  189.6160  178.0010  147.4140 O   0  0  0  0  0  1  0  0  0  0  0  0
  189.2930  173.7420  146.6520 O   0  0  0  0  0  0  0  0  0  0  0  0
  187.3820  177.8810  145.9400 N   0  0  0  0  0  0  0  0  0  0  0  0
  185.5990  179.3450  145.1070 C   0  0  0  0  0  2  0  0  0  0  0  0
  185.2900  178.0260  147.2120 C   0  0  0  0  0  2  0  0  0  0  0  0
  184.5850  178.6580  146.0170 C   0  0  0  0  0  2  0  0  0  0  0  0
  186.4060  177.1080  146.7170 C   0  0  0  0  0  2  0  0  0  0  0  0
  186.6980  178.3530  144.7310 C   0  0  0  0  0  2  0  0  0  0  0  0
  195.2810  172.3720  142.6650 C   0  0  2  0  0  3  0  0  0  0  0  0
  196.4430  168.9570  147.1740 C   0  0  0  0  0  0  0  0  0  0  0  0
  195.3150  170.8320  142.5520 C   0  0  2  0  0  3  0  0  0  0  0  0
  196.5400  169.8310  144.9170 C   0  0  0  0  0  0  0  0  0  0  0  0
  195.0570  168.8150  147.0610 C   0  0  0  0  0  3  0  0  0  0  0  0
  197.1300  168.5730  148.4340 C   0  0  0  0  0  1  0  0  0  0  0  0
  195.1420  169.7100  144.8110 C   0  0  0  0  0  0  0  0  0  0  0  0
  197.1820  169.4690  146.1040 C   0  0  0  0  0  3  0  0  0  0  0  0
  194.4080  169.1880  145.8810 C   0  0  0  0  0  3  0  0  0  0  0  0
  194.4230  170.0670  143.5410 C   0  0  0  0  0  2  0  0  0  0  0  0
  196.6810  170.2980  142.5150 N   0  0  0  0  0  2  0  0  0  0  0  0
  197.3380  170.4580  143.8140 C   0  0  0  0  0  2  0  0  0  0  0  0
  196.6000  172.9750  142.5100 N   0  0  0  0  0  2  0  0  0  0  0  0
  196.6960  173.4590  141.1420 C   0  0  0  0  0  2  0  0  0  0  0  0
  195.3160  172.8900  139.1620 C   0  0  0  0  0  2  0  0  0  0  0  0
  195.6370  173.9290  138.1070 C   0  0  1  0  0  3  0  0  0  0  0  0
  194.8370  175.3140  140.2980 S   0  0  0  0  0  0  0  0  0  0  0  0
  195.3120  173.5660  140.5200 C   0  0  2  0  0  3  0  0  0  0  0  0
  194.8770  175.1830  138.4850 C   0  0  0  0  0  2  0  0  0  0  0  0
  197.1560  175.2980  137.2590 C   0  0  0  0  0  1  0  0  0  0  0  0
  197.0090  174.1930  138.0970 O   0  0  0  0  0  0  0  0  0  0  0  0
  2  1  1  0  0  0  0
  2  8  1  1  0  0  0
  3  1  1  0  0  0  0
  4  2  1  0  0  0  0
  5  4  1  0  0  0  0
  5  6  1  0  0  0  0
  6 23  1  6  0  0  0
  6  3  1  0  0  0  0
  7  8  1  0  0  0  0
  8  9  2  0  0  0  0
 10  7  1  6  0  0  0
 11 13  1  0  0  0  0
 12 11  1  0  0  0  0
 12 17  1  1  0  0  0
 12 14  1  0  0  0  0
 13 10  1  0  0  0  0
 13 16  2  0  0  0  0
 14 10  1  0  0  0  0
 14 15  1  1  0  0  0
 17 21  1  0  0  0  0
 18 20  1  0  0  0  0
 20 19  1  0  0  0  0
 21 19  1  0  0  0  0
 22 18  1  0  0  0  0
 22 17  1  0  0  0  0
 23 35  1  1  0  0  0
 24 28  1  0  0  0  0
 25 23  1  1  0  0  0
 25 32  1  0  0  0  0
 26 30  1  0  0  0  0
 27 24  1  0  0  0  0
 29 26  2  0  0  0  0
 29 31  1  0  0  0  0
 30 24  2  0  0  0  0
 31 27  2  0  0  0  0
 32 29  1  0  0  0  0
 33 25  1  0  0  0  0
 33 34  1  0  0  0  0
 34 26  1  0  0  0  0
 36 35  1  0  0  0  0
 37 40  1  0  0  0  0
 38 43  1  1  0  0  0
 38 41  1  0  0  0  0
 38 37  1  0  0  0  0
 39 40  1  0  0  0  0
 40 36  1  6  0  0  0
 41 39  1  0  0  0  0
 42 43  1  0  0  0  0
M  END
>  <MODEL>
6

>  <REMARK>
 VINA RESULT:      -6.7      3.920      9.928
  Name = 
  9 active torsions:
  status: ('A' for Active; 'I' for Inactive)
    1  A    between atoms: N_1  and  C_34
    2  A    between atoms: N_1  and  C_35
    3  A    between atoms: N_3  and  C_4
    4  A    between atoms: C_6  and  C_12
    5  A    between atoms: C_8  and  C_34
    6  A    between atoms: N_11  and  C_14
    7  A    between atoms: C_19  and  O_37
    8  A    between atoms: C_32  and  C_35
    9  A    between atoms: C_34  and  C_38
                            x       y       z     vdW  Elec       q    Type
                         _______ _______ _______ _____ _____    ______ ____

>  <TORSDO>
F 9

$$$$
=
 OpenBabel11052421223D

 43 48  0  0  1  0  0  0  0  0999 V2000
  194.3320  174.1600  145.6420 C   0  0  0  0  0  2  0  0  0  0  0  0
  194.2400  175.6880  145.7730 C   0  0  1  0  0  3  0  0  0  0  0  0
  195.1920  173.7620  144.4480 C   0  0  0  0  0  2  0  0  0  0  0  0
  194.3320  176.4360  144.4340 C   0  0  0  0  0  2  0  0  0  0  0  0
  193.8030  175.5930  143.2740 C   0  0  0  0  0  2  0  0  0  0  0  0
  194.5710  174.2640  143.1350 C   0  0  1  0  0  3  0  0  0  0  0  0
  191.7370  175.5060  146.1300 N   0  0  0  0  0  2  0  0  0  0  0  0
  193.0010  176.0720  146.5090 C   0  0  0  0  0  0  0  0  0  0  0  0
  193.0810  176.9010  147.4550 O   0  0  0  0  0  0  0  0  0  0  0  0
  190.4450  175.7950  146.7530 C   0  0  2  0  0  3  0  0  0  0  0  0
  188.3630  175.5400  145.5540 N   0  0  0  0  0  2  0  0  0  0  0  0
  188.7190  176.9460  145.4130 C   0  0  2  0  0  3  0  0  0  0  0  0
  189.3880  174.8840  146.2660 C   0  0  0  0  0  0  0  0  0  0  0  0
  189.9290  177.1800  146.3610 C   0  0  1  0  0  3  0  0  0  0  0  0
  189.5410  177.8540  147.5230 O   0  0  0  0  0  1  0  0  0  0  0  0
  189.3770  173.6450  146.4810 O   0  0  0  0  0  0  0  0  0  0  0  0
  187.5740  177.8200  145.7040 N   0  0  0  0  0  0  0  0  0  0  0  0
  185.8780  179.2580  144.6680 C   0  0  0  0  0  2  0  0  0  0  0  0
  185.3400  177.9160  146.7120 C   0  0  0  0  0  2  0  0  0  0  0  0
  184.7740  178.5450  145.4440 C   0  0  0  0  0  2  0  0  0  0  0  0
  186.5260  177.0240  146.3520 C   0  0  0  0  0  2  0  0  0  0  0  0
  187.0330  178.2890  144.4240 C   0  0  0  0  0  2  0  0  0  0  0  0
  195.6110  174.2900  142.0130 C   0  0  2  0  0  3  0  0  0  0  0  0
  197.1090  174.2450  136.4360 C   0  0  0  0  0  0  0  0  0  0  0  0
  195.4710  175.5330  141.1070 C   0  0  2  0  0  3  0  0  0  0  0  0
  196.9420  175.0200  138.7260 C   0  0  0  0  0  0  0  0  0  0  0  0
  195.7150  174.1770  136.3560 C   0  0  0  0  0  3  0  0  0  0  0  0
  197.9410  173.8650  135.2660 C   0  0  0  0  0  1  0  0  0  0  0  0
  195.5390  174.9300  138.6530 C   0  0  0  0  0  0  0  0  0  0  0  0
  197.7200  174.6610  137.6220 C   0  0  0  0  0  3  0  0  0  0  0  0
  194.9320  174.5210  137.4600 C   0  0  0  0  0  3  0  0  0  0  0  0
  194.6710  175.3300  139.8110 C   0  0  0  0  0  2  0  0  0  0  0  0
  196.7530  176.2030  140.8640 N   0  0  0  0  0  2  0  0  0  0  0  0
  197.6170  175.3810  140.0130 C   0  0  0  0  0  2  0  0  0  0  0  0
  195.5690  173.0400  141.2620 N   0  0  0  0  0  2  0  0  0  0  0  0
  194.3210  172.3750  141.5980 C   0  0  0  0  0  2  0  0  0  0  0  0
  192.5010  172.4780  139.9160 C   0  0  0  0  0  2  0  0  0  0  0  0
  191.2800  171.8650  140.5730 C   0  0  1  0  0  3  0  0  0  0  0  0
  193.2340  169.9910  140.7360 S   0  0  0  0  0  0  0  0  0  0  0  0
  193.7280  171.7080  140.3660 C   0  0  2  0  0  3  0  0  0  0  0  0
  191.4680  170.3640  140.5240 C   0  0  0  0  0  2  0  0  0  0  0  0
  189.8260  172.2520  142.1970 C   0  0  0  0  0  1  0  0  0  0  0  0
  191.1890  172.2880  141.9010 O   0  0  0  0  0  0  0  0  0  0  0  0
  1  2  1  0  0  0  0
  2  8  1  6  0  0  0
  3  1  1  0  0  0  0
  4  2  1  0  0  0  0
  5  4  1  0  0  0  0
  6 23  1  6  0  0  0
  6  5  1  0  0  0  0
  6  3  1  0  0  0  0
  7  8  1  0  0  0  0
  8  9  2  0  0  0  0
 10  7  1  6  0  0  0
 11 13  1  0  0  0  0
 12 11  1  0  0  0  0
 12 17  1  1  0  0  0
 12 14  1  0  0  0  0
 13 16  2  0  0  0  0
 13 10  1  0  0  0  0
 14 10  1  0  0  0  0
 14 15  1  1  0  0  0
 17 21  1  0  0  0  0
 18 20  1  0  0  0  0
 20 19  1  0  0  0  0
 21 19  1  0  0  0  0
 22 18  1  0  0  0  0
 22 17  1  0  0  0  0
 23 35  1  6  0  0  0
 24 30  1  0  0  0  0
 25 23  1  6  0  0  0
 26 34  1  0  0  0  0
 27 24  2  0  0  0  0
 27 31  1  0  0  0  0
 28 24  1  0  0  0  0
 29 26  1  0  0  0  0
 29 32  1  0  0  0  0
 30 26  2  0  0  0  0
 31 29  2  0  0  0  0
 32 25  1  0  0  0  0
 33 25  1  0  0  0  0
 34 33  1  0  0  0  0
 35 36  1  0  0  0  0
 37 40  1  0  0  0  0
 37 38  1  0  0  0  0
 38 43  1  1  0  0  0
 40 39  1  0  0  0  0
 40 36  1  1  0  0  0
 41 38  1  0  0  0  0
 41 39  1  0  0  0  0
 43 42  1  0  0  0  0
M  END
>  <MODEL>
7

>  <REMARK>
 VINA RESULT:      -6.6      3.381      9.555
  Name = 
  9 active torsions:
  status: ('A' for Active; 'I' for Inactive)
    1  A    between atoms: N_1  and  C_34
    2  A    between atoms: N_1  and  C_35
    3  A    between atoms: N_3  and  C_4
    4  A    between atoms: C_6  and  C_12
    5  A    between atoms: C_8  and  C_34
    6  A    between atoms: N_11  and  C_14
    7  A    between atoms: C_19  and  O_37
    8  A    between atoms: C_32  and  C_35
    9  A    between atoms: C_34  and  C_38
                            x       y       z     vdW  Elec       q    Type
                         _______ _______ _______ _____ _____    ______ ____

>  <TORSDO>
F 9

$$$$
=
 OpenBabel11052421223D

 43 48  0  0  1  0  0  0  0  0999 V2000
  191.7730  177.3670  143.1670 C   0  0  0  0  0  2  0  0  0  0  0  0
  191.9300  177.2450  144.6900 C   0  0  1  0  0  3  0  0  0  0  0  0
  190.3040  177.3250  142.7600 C   0  0  0  0  0  2  0  0  0  0  0  0
  190.8260  176.4160  145.3660 C   0  0  0  0  0  2  0  0  0  0  0  0
  190.2550  175.3550  144.4260 C   0  0  0  0  0  2  0  0  0  0  0  0
  189.6690  175.9800  143.1450 C   0  0  1  0  0  3  0  0  0  0  0  0
  193.9580  175.8370  144.1140 N   0  0  0  0  0  2  0  0  0  0  0  0
  193.2790  176.7080  145.0310 C   0  0  0  0  0  0  0  0  0  0  0  0
  193.8040  177.0230  146.1330 O   0  0  0  0  0  0  0  0  0  0  0  0
  195.2740  175.2320  144.3180 C   0  0  2  0  0  3  0  0  0  0  0  0
  195.9930  173.2880  143.0760 N   0  0  0  0  0  2  0  0  0  0  0  0
  195.4530  172.7690  144.3250 C   0  0  2  0  0  3  0  0  0  0  0  0
  195.8270  174.6880  143.0590 C   0  0  0  0  0  0  0  0  0  0  0  0
  195.1950  174.0070  145.2300 C   0  0  1  0  0  3  0  0  0  0  0  0
  196.1750  174.1270  146.2190 O   0  0  0  0  0  1  0  0  0  0  0  0
  196.1460  175.3970  142.0700 O   0  0  0  0  0  0  0  0  0  0  0  0
  196.3600  171.7840  144.9330 N   0  0  0  0  0  0  0  0  0  0  0  0
  196.4540  169.8780  146.4730 C   0  0  0  0  0  2  0  0  0  0  0  0
  197.9410  169.9700  144.4620 C   0  0  0  0  0  2  0  0  0  0  0  0
  197.2080  169.0530  145.4350 C   0  0  0  0  0  2  0  0  0  0  0  0
  196.9550  170.9720  143.8660 C   0  0  0  0  0  2  0  0  0  0  0  0
  195.5520  170.8850  145.7630 C   0  0  0  0  0  2  0  0  0  0  0  0
  188.1430  176.0860  143.1770 C   0  0  2  0  0  3  0  0  0  0  0  0
  191.1190  171.8550  140.6110 C   0  0  0  0  0  0  0  0  0  0  0  0
  187.4540  174.8880  142.4880 C   0  0  2  0  0  3  0  0  0  0  0  0
  189.4240  173.5570  140.9240 C   0  0  0  0  0  0  0  0  0  0  0  0
  190.7260  171.2410  141.8040 C   0  0  0  0  0  3  0  0  0  0  0  0
  192.2320  171.2820  139.8110 C   0  0  0  0  0  1  0  0  0  0  0  0
  189.0430  172.9530  142.1370 C   0  0  0  0  0  0  0  0  0  0  0  0
  190.4720  173.0140  140.1760 C   0  0  0  0  0  3  0  0  0  0  0  0
  189.6880  171.7870  142.5630 C   0  0  0  0  0  3  0  0  0  0  0  0
  187.9060  173.4950  142.9540 C   0  0  0  0  0  2  0  0  0  0  0  0
  187.4480  175.0040  141.0250 N   0  0  0  0  0  2  0  0  0  0  0  0
  188.8010  174.8470  140.4850 C   0  0  0  0  0  2  0  0  0  0  0  0
  187.7180  177.3690  142.6290 N   0  0  0  0  0  2  0  0  0  0  0  0
  187.0870  178.1130  143.7070 C   0  0  0  0  0  2  0  0  0  0  0  0
  185.3690  179.8040  144.2890 C   0  0  0  0  0  2  0  0  0  0  0  0
  184.0960  179.0350  144.5830 C   0  0  1  0  0  3  0  0  0  0  0  0
  184.8600  178.2880  142.0890 S   0  0  0  0  0  0  0  0  0  0  0  0
  186.0940  179.1190  143.1450 C   0  0  2  0  0  3  0  0  0  0  0  0
  183.5030  178.6470  143.2450 C   0  0  0  0  0  2  0  0  0  0  0  0
  184.5220  178.3270  146.6370 C   0  0  0  0  0  1  0  0  0  0  0  0
  184.3930  177.8850  145.3190 O   0  0  0  0  0  0  0  0  0  0  0  0
  1  2  1  0  0  0  0
  2  8  1  6  0  0  0
  2  4  1  0  0  0  0
  3  6  1  0  0  0  0
  3  1  1  0  0  0  0
  5  4  1  0  0  0  0
  6 23  1  1  0  0  0
  6  5  1  0  0  0  0
  7  8  1  0  0  0  0
  8  9  2  0  0  0  0
 10  7  1  6  0  0  0
 10 14  1  0  0  0  0
 11 12  1  0  0  0  0
 12 17  1  1  0  0  0
 12 14  1  0  0  0  0
 13 11  1  0  0  0  0
 13 10  1  0  0  0  0
 14 15  1  1  0  0  0
 16 13  2  0  0  0  0
 17 22  1  0  0  0  0
 19 20  1  0  0  0  0
 20 18  1  0  0  0  0
 21 19  1  0  0  0  0
 21 17  1  0  0  0  0
 22 18  1  0  0  0  0
 23 35  1  6  0  0  0
 24 27  1  0  0  0  0
 25 32  1  0  0  0  0
 25 23  1  1  0  0  0
 26 29  2  0  0  0  0
 27 31  2  0  0  0  0
 28 24  1  0  0  0  0
 29 31  1  0  0  0  0
 29 32  1  0  0  0  0
 30 24  2  0  0  0  0
 30 26  1  0  0  0  0
 33 25  1  0  0  0  0
 34 26  1  0  0  0  0
 34 33  1  0  0  0  0
 35 36  1  0  0  0  0
 37 38  1  0  0  0  0
 38 43  1  1  0  0  0
 39 40  1  0  0  0  0
 39 41  1  0  0  0  0
 40 36  1  1  0  0  0
 40 37  1  0  0  0  0
 41 38  1  0  0  0  0
 43 42  1  0  0  0  0
M  END
>  <MODEL>
8

>  <REMARK>
 VINA RESULT:      -6.5      3.438      6.284
  Name = 
  9 active torsions:
  status: ('A' for Active; 'I' for Inactive)
    1  A    between atoms: N_1  and  C_34
    2  A    between atoms: N_1  and  C_35
    3  A    between atoms: N_3  and  C_4
    4  A    between atoms: C_6  and  C_12
    5  A    between atoms: C_8  and  C_34
    6  A    between atoms: N_11  and  C_14
    7  A    between atoms: C_19  and  O_37
    8  A    between atoms: C_32  and  C_35
    9  A    between atoms: C_34  and  C_38
                            x       y       z     vdW  Elec       q    Type
                         _______ _______ _______ _____ _____    ______ ____

>  <TORSDO>
F 9

$$$$
=
 OpenBabel11052421223D

 43 48  0  0  1  0  0  0  0  0999 V2000
  193.5390  173.3840  145.7620 C   0  0  0  0  0  2  0  0  0  0  0  0
  193.4480  174.8230  145.2340 C   0  0  1  0  0  3  0  0  0  0  0  0
  193.9370  172.4160  144.6530 C   0  0  0  0  0  2  0  0  0  0  0  0
  193.0380  174.9220  143.7560 C   0  0  0  0  0  2  0  0  0  0  0  0
  192.1640  173.7430  143.3290 C   0  0  0  0  0  2  0  0  0  0  0  0
  192.8770  172.3940  143.5410 C   0  0  1  0  0  3  0  0  0  0  0  0
  191.1300  175.3400  146.1200 N   0  0  0  0  0  2  0  0  0  0  0  0
  192.5350  175.6340  146.0900 C   0  0  0  0  0  0  0  0  0  0  0  0
  193.0130  176.5780  146.7750 O   0  0  0  0  0  0  0  0  0  0  0  0
  190.1200  176.0520  146.9020 C   0  0  2  0  0  3  0  0  0  0  0  0
  187.7550  175.6710  146.5840 N   0  0  0  0  0  2  0  0  0  0  0  0
  188.0730  176.8300  145.7600 C   0  0  2  0  0  3  0  0  0  0  0  0
  188.9430  175.2010  147.1800 C   0  0  0  0  0  0  0  0  0  0  0  0
  189.5310  177.2290  146.1230 C   0  0  1  0  0  3  0  0  0  0  0  0
  189.5590  178.3610  146.9430 O   0  0  0  0  0  1  0  0  0  0  0  0
  188.9790  174.1680  147.8970 O   0  0  0  0  0  0  0  0  0  0  0  0
  187.1040  177.9160  145.9660 N   0  0  0  0  0  0  0  0  0  0  0  0
  185.5560  179.4220  144.8040 C   0  0  0  0  0  2  0  0  0  0  0  0
  185.0120  178.5400  147.0830 C   0  0  0  0  0  2  0  0  0  0  0  0
  184.4330  179.0370  145.7620 C   0  0  0  0  0  2  0  0  0  0  0  0
  186.0120  177.4190  146.8100 C   0  0  0  0  0  2  0  0  0  0  0  0
  186.5250  178.2510  144.6600 C   0  0  0  0  0  2  0  0  0  0  0  0
  193.4550  171.8140  142.2480 C   0  0  2  0  0  3  0  0  0  0  0  0
  190.6300  170.6530  137.3470 C   0  0  0  0  0  0  0  0  0  0  0  0
  192.8930  170.4120  141.9270 C   0  0  2  0  0  3  0  0  0  0  0  0
  191.1190  170.6900  139.7200 C   0  0  0  0  0  0  0  0  0  0  0  0
  191.8790  170.0780  137.0960 C   0  0  0  0  0  3  0  0  0  0  0  0
  189.7060  170.9450  136.2210 C   0  0  0  0  0  1  0  0  0  0  0  0
  192.3860  170.1330  139.4660 C   0  0  0  0  0  0  0  0  0  0  0  0
  190.2540  170.9630  138.6570 C   0  0  0  0  0  3  0  0  0  0  0  0
  192.7540  169.8160  138.1540 C   0  0  0  0  0  3  0  0  0  0  0  0
  193.3320  169.8040  140.5860 C   0  0  0  0  0  2  0  0  0  0  0  0
  191.4410  170.3270  142.1220 N   0  0  0  0  0  2  0  0  0  0  0  0
  190.7320  171.1080  141.1050 C   0  0  0  0  0  2  0  0  0  0  0  0
  194.9130  171.8370  142.2960 N   0  0  0  0  0  2  0  0  0  0  0  0
  195.3510  173.0190  141.5730 C   0  0  0  0  0  2  0  0  0  0  0  0
  195.4330  172.6090  139.1280 C   0  0  0  0  0  2  0  0  0  0  0  0
  196.2310  173.7500  138.5320 C   0  0  1  0  0  3  0  0  0  0  0  0
  194.2050  174.9030  139.9170 S   0  0  0  0  0  0  0  0  0  0  0  0
  194.5870  173.1540  140.2650 C   0  0  2  0  0  3  0  0  0  0  0  0
  195.3040  174.9450  138.4700 C   0  0  0  0  0  2  0  0  0  0  0  0
  197.8530  175.2270  138.8290 C   0  0  0  0  0  1  0  0  0  0  0  0
  197.3270  174.0430  139.3470 O   0  0  0  0  0  0  0  0  0  0  0  0
  2  1  1  0  0  0  0
  2  8  1  1  0  0  0
  3  1  1  0  0  0  0
  4  2  1  0  0  0  0
  5  6  1  0  0  0  0
  5  4  1  0  0  0  0
  6 23  1  6  0  0  0
  6  3  1  0  0  0  0
  8  7  1  0  0  0  0
  8  9  2  0  0  0  0
 10  7  1  6  0  0  0
 10 13  1  0  0  0  0
 11 13  1  0  0  0  0
 12 17  1  1  0  0  0
 12 14  1  0  0  0  0
 12 11  1  0  0  0  0
 13 16  2  0  0  0  0
 14 10  1  0  0  0  0
 14 15  1  1  0  0  0
 17 21  1  0  0  0  0
 18 20  1  0  0  0  0
 20 19  1  0  0  0  0
 21 19  1  0  0  0  0
 22 18  1  0  0  0  0
 22 17  1  0  0  0  0
 23 35  1  1  0  0  0
 24 30  1  0  0  0  0
 25 33  1  0  0  0  0
 25 23  1  6  0  0  0
 26 34  1  0  0  0  0
 27 24  2  0  0  0  0
 27 31  1  0  0  0  0
 28 24  1  0  0  0  0
 29 26  1  0  0  0  0
 29 32  1  0  0  0  0
 30 26  2  0  0  0  0
 31 29  2  0  0  0  0
 32 25  1  0  0  0  0
 34 33  1  0  0  0  0
 36 35  1  0  0  0  0
 37 40  1  0  0  0  0
 38 37  1  0  0  0  0
 38 43  1  1  0  0  0
 39 40  1  0  0  0  0
 40 36  1  1  0  0  0
 41 38  1  0  0  0  0
 41 39  1  0  0  0  0
 42 43  1  0  0  0  0
M  END
>  <MODEL>
9

>  <REMARK>
 VINA RESULT:      -6.4      3.627     10.142
  Name = 
  9 active torsions:
  status: ('A' for Active; 'I' for Inactive)
    1  A    between atoms: N_1  and  C_34
    2  A    between atoms: N_1  and  C_35
    3  A    between atoms: N_3  and  C_4
    4  A    between atoms: C_6  and  C_12
    5  A    between atoms: C_8  and  C_34
    6  A    between atoms: N_11  and  C_14
    7  A    between atoms: C_19  and  O_37
    8  A    between atoms: C_32  and  C_35
    9  A    between atoms: C_34  and  C_38
                            x       y       z     vdW  Elec       q    Type
                         _______ _______ _______ _____ _____    ______ ____

>  <TORSDO>
F 9

$$$$
