=
 OpenBabel11052418153D

 28 29  0  0  1  0  0  0  0  0999 V2000
  188.4750  178.5330  141.6830 O   0  0  0  0  0  1  0  0  0  0  0  0
  188.6630  177.9360  144.6200 C   0  0  0  0  0  2  0  0  0  0  0  0
  187.3550  176.5170  142.3740 C   0  0  2  0  0  3  0  0  0  0  0  0
  187.4530  177.0560  144.9000 C   0  0  0  0  0  2  0  0  0  0  0  0
  188.6920  177.2530  142.2000 C   0  0  2  0  0  3  0  0  0  0  0  0
  189.4920  177.3110  143.5060 C   0  0  1  0  0  3  0  0  0  0  0  0
  186.5670  176.8890  143.6530 C   0  0  1  0  0  3  0  0  0  0  0  0
  185.4800  177.9860  143.4750 C   0  0  1  0  0  0  0  0  0  0  0  0
  186.0920  179.3690  143.6110 C   0  0  0  0  0  1  0  0  0  0  0  0
  183.5620  178.2130  141.8820 C   0  0  0  0  0  3  0  0  0  0  0  0
  184.8450  177.9210  142.1060 C   0  0  0  0  0  3  0  0  0  0  0  0
  183.0100  178.1250  140.5030 C   0  0  0  0  0  1  0  0  0  0  0  0
  184.4010  177.8780  144.5630 C   0  0  0  0  0  2  0  0  0  0  0  0
  184.4300  179.0260  145.5720 C   0  0  0  0  0  2  0  0  0  0  0  0
  184.7320  178.5210  146.9750 C   0  0  1  0  0  3  0  0  0  0  0  0
  184.8960  177.1470  146.9710 F   0  0  0  0  0  0  0  0  0  0  0  0
  185.8810  179.1340  147.4760 O   0  0  0  0  0  1  0  0  0  0  0  0
  190.7880  178.0460  143.3180 C   0  0  0  0  0  3  0  0  0  0  0  0
  191.9690  177.5700  143.7340 C   0  0  0  0  0  3  0  0  0  0  0  0
  193.7610  174.6090  145.3180 C   0  0  0  0  0  3  0  0  0  0  0  0
  192.1320  176.2480  144.4180 C   0  0  1  0  0  3  0  0  0  0  0  0
  192.2930  175.7050  146.9470 C   0  0  1  0  0  3  0  0  0  0  0  0
  193.6120  175.8450  144.4810 C   0  0  0  0  0  2  0  0  0  0  0  0
  191.4480  176.2880  145.8010 C   0  0  0  0  0  2  0  0  0  0  0  0
  191.3970  175.2900  148.0940 C   0  0  0  0  0  1  0  0  0  0  0  0
  193.1250  174.5400  146.4930 C   0  0  0  0  0  3  0  0  0  0  0  0
  188.1220  174.6730  141.0200 O   0  0  0  0  0  1  0  0  0  0  0  0
  187.5180  175.0050  142.2350 C   0  0  0  0  0  2  0  0  0  0  0  0
  2  4  1  0  0  0  0
  3 28  1  1  0  0  0
  3  7  1  0  0  0  0
  5  1  1  1  0  0  0
  5  3  1  0  0  0  0
  5  6  1  0  0  0  0
  6 18  1  6  0  0  0
  6  2  1  0  0  0  0
  7  8  1  6  0  0  0
  7  4  1  0  0  0  0
  8  9  1  1  0  0  0
  8 13  1  0  0  0  0
 10 11  2  0  0  0  0
 11  8  1  0  0  0  0
 12 10  1  0  0  0  0
 13 14  1  0  0  0  0
 14 15  1  0  0  0  0
 15 16  1  6  0  0  0
 15 17  1  0  0  0  0
 18 19  2  0  0  0  0
 20 26  2  0  0  0  0
 21 19  1  1  0  0  0
 21 23  1  0  0  0  0
 21 24  1  0  0  0  0
 22 25  1  1  0  0  0
 23 20  1  0  0  0  0
 24 22  1  0  0  0  0
 26 22  1  0  0  0  0
 27 28  1  0  0  0  0
M  END
>  <MODEL>
1

>  <REMARK>
 VINA RESULT:      -7.3      0.000      0.000
  Name = 
  8 active torsions:
  status: ('A' for Active; 'I' for Inactive)
    1  A    between atoms: C_1  and  C_3
    2  A    between atoms: C_1  and  C_11
    3  A    between atoms: C_1  and  C_27
    4  A    between atoms: C_6  and  C_8
    5  A    between atoms: C_8  and  C_11
    6  A    between atoms: C_9  and  C_18
    7  A    between atoms: C_14  and  C_25
    8  A    between atoms: C_16  and  C_21
                            x       y       z     vdW  Elec       q    Type
                         _______ _______ _______ _____ _____    ______ ____

>  <TORSDO>
F 8

$$$$
=
 OpenBabel11052418153D

 28 29  0  0  1  0  0  0  0  0999 V2000
  189.0990  174.8930  147.5150 O   0  0  0  0  0  1  0  0  0  0  0  0
  188.9240  177.6450  146.3280 C   0  0  0  0  0  2  0  0  0  0  0  0
  189.8520  175.0530  145.2350 C   0  0  2  0  0  3  0  0  0  0  0  0
  189.9600  177.6360  145.2120 C   0  0  0  0  0  2  0  0  0  0  0  0
  188.6690  175.1460  146.2100 C   0  0  2  0  0  3  0  0  0  0  0  0
  187.9480  176.4950  146.1160 C   0  0  1  0  0  3  0  0  0  0  0  0
  190.7480  176.3150  145.1740 C   0  0  1  0  0  3  0  0  0  0  0  0
  192.0110  176.2830  146.0790 C   0  0  1  0  0  0  0  0  0  0  0  0
  193.2400  176.7000  145.2900 C   0  0  0  0  0  1  0  0  0  0  0  0
  191.6240  176.8520  148.4860 C   0  0  0  0  0  3  0  0  0  0  0  0
  191.8880  177.2440  147.2380 C   0  0  0  0  0  3  0  0  0  0  0  0
  191.5180  177.8610  149.5750 C   0  0  0  0  0  1  0  0  0  0  0  0
  192.2860  174.8640  146.5970 C   0  0  0  0  0  2  0  0  0  0  0  0
  193.4320  174.1570  145.8720 C   0  0  0  0  0  2  0  0  0  0  0  0
  192.9170  173.0320  144.9880 C   0  0  1  0  0  3  0  0  0  0  0  0
  192.7840  173.4640  143.6810 F   0  0  0  0  0  0  0  0  0  0  0  0
  193.7820  171.9380  145.0400 O   0  0  0  0  0  1  0  0  0  0  0  0
  186.8050  176.5710  147.0860 C   0  0  0  0  0  3  0  0  0  0  0  0
  185.6150  177.1070  146.7800 C   0  0  0  0  0  3  0  0  0  0  0  0
  185.5570  179.6300  143.9310 C   0  0  0  0  0  3  0  0  0  0  0  0
  185.2880  177.6760  145.4340 C   0  0  1  0  0  3  0  0  0  0  0  0
  186.6220  177.5400  143.2150 C   0  0  1  0  0  3  0  0  0  0  0  0
  185.7390  179.1400  145.3370 C   0  0  0  0  0  2  0  0  0  0  0  0
  185.8840  176.7770  144.3290 C   0  0  0  0  0  2  0  0  0  0  0  0
  186.6850  176.6960  141.9610 C   0  0  0  0  0  1  0  0  0  0  0  0
  185.9720  178.8620  142.9180 C   0  0  0  0  0  3  0  0  0  0  0  0
  189.5900  173.2420  143.6630 O   0  0  0  0  0  1  0  0  0  0  0  0
  189.4060  174.6150  143.8420 C   0  0  0  0  0  2  0  0  0  0  0  0
  3 28  1  6  0  0  0
  3  5  1  0  0  0  0
  4  2  1  0  0  0  0
  5  1  1  1  0  0  0
  6  5  1  0  0  0  0
  6  2  1  0  0  0  0
  6 18  1  1  0  0  0
  7  4  1  0  0  0  0
  7  3  1  0  0  0  0
  7  8  1  1  0  0  0
  8  9  1  6  0  0  0
  8 13  1  0  0  0  0
  8 11  1  0  0  0  0
 10 12  1  0  0  0  0
 11 10  2  0  0  0  0
 14 13  1  0  0  0  0
 15 16  1  6  0  0  0
 15 17  1  0  0  0  0
 15 14  1  0  0  0  0
 19 18  2  0  0  0  0
 20 23  1  0  0  0  0
 21 19  1  1  0  0  0
 22 25  1  6  0  0  0
 22 24  1  0  0  0  0
 23 21  1  0  0  0  0
 24 21  1  0  0  0  0
 26 22  1  0  0  0  0
 26 20  2  0  0  0  0
 27 28  1  0  0  0  0
M  END
>  <MODEL>
2

>  <REMARK>
 VINA RESULT:      -7.3      2.947      7.588
  Name = 
  8 active torsions:
  status: ('A' for Active; 'I' for Inactive)
    1  A    between atoms: C_1  and  C_3
    2  A    between atoms: C_1  and  C_11
    3  A    between atoms: C_1  and  C_27
    4  A    between atoms: C_6  and  C_8
    5  A    between atoms: C_8  and  C_11
    6  A    between atoms: C_9  and  C_18
    7  A    between atoms: C_14  and  C_25
    8  A    between atoms: C_16  and  C_21
                            x       y       z     vdW  Elec       q    Type
                         _______ _______ _______ _____ _____    ______ ____

>  <TORSDO>
F 8

$$$$
=
 OpenBabel11052418153D

 28 29  0  0  1  0  0  0  0  0999 V2000
  189.1580  174.6800  147.2600 O   0  0  0  0  0  1  0  0  0  0  0  0
  189.1370  177.5490  146.3710 C   0  0  0  0  0  2  0  0  0  0  0  0
  189.7130  175.0190  144.9420 C   0  0  2  0  0  3  0  0  0  0  0  0
  190.0620  177.5710  145.1620 C   0  0  0  0  0  2  0  0  0  0  0  0
  188.6370  175.1060  146.0360 C   0  0  2  0  0  3  0  0  0  0  0  0
  188.0410  176.5150  146.1460 C   0  0  1  0  0  3  0  0  0  0  0  0
  190.7140  176.1990  144.9170 C   0  0  1  0  0  3  0  0  0  0  0  0
  192.0460  175.9640  145.6830 C   0  0  1  0  0  0  0  0  0  0  0  0
  191.9350  176.4730  147.1100 C   0  0  0  0  0  1  0  0  0  0  0  0
  192.8330  173.7880  144.7280 C   0  0  0  0  0  3  0  0  0  0  0  0
  192.3870  174.4950  145.7680 C   0  0  0  0  0  3  0  0  0  0  0  0
  193.1470  172.3430  144.8910 C   0  0  0  0  0  1  0  0  0  0  0  0
  193.2030  176.7370  145.0330 C   0  0  0  0  0  2  0  0  0  0  0  0
  194.4450  176.8430  145.9190 C   0  0  0  0  0  2  0  0  0  0  0  0
  195.6270  176.1080  145.3050 C   0  0  1  0  0  3  0  0  0  0  0  0
  195.7800  174.8630  145.8900 F   0  0  0  0  0  0  0  0  0  0  0  0
  195.4500  175.9660  143.9290 O   0  0  0  0  0  1  0  0  0  0  0  0
  187.0030  176.5830  147.2280 C   0  0  0  0  0  3  0  0  0  0  0  0
  185.7980  177.1430  147.0560 C   0  0  0  0  0  3  0  0  0  0  0  0
  185.4930  179.7390  144.2890 C   0  0  0  0  0  3  0  0  0  0  0  0
  185.3470  177.7500  145.7640 C   0  0  1  0  0  3  0  0  0  0  0  0
  186.4510  177.6560  143.4210 C   0  0  1  0  0  3  0  0  0  0  0  0
  185.8060  179.2110  145.6580 C   0  0  0  0  0  2  0  0  0  0  0  0
  185.8170  176.8730  144.5830 C   0  0  0  0  0  2  0  0  0  0  0  0
  186.3780  176.8430  142.1470 C   0  0  0  0  0  1  0  0  0  0  0  0
  185.7940  178.9920  143.2210 C   0  0  0  0  0  3  0  0  0  0  0  0
  189.9880  175.1360  142.5480 O   0  0  0  0  0  1  0  0  0  0  0  0
  189.1030  174.7700  143.5650 C   0  0  0  0  0  2  0  0  0  0  0  0
  3 28  1  6  0  0  0
  3  5  1  0  0  0  0
  4  2  1  0  0  0  0
  5  6  1  0  0  0  0
  5  1  1  1  0  0  0
  6  2  1  0  0  0  0
  6 18  1  1  0  0  0
  7  3  1  0  0  0  0
  7  4  1  0  0  0  0
  7  8  1  1  0  0  0
  8 11  1  0  0  0  0
  8  9  1  1  0  0  0
 10 12  1  0  0  0  0
 10 11  2  0  0  0  0
 13  8  1  0  0  0  0
 13 14  1  0  0  0  0
 15 17  1  6  0  0  0
 15 16  1  0  0  0  0
 15 14  1  0  0  0  0
 19 18  2  0  0  0  0
 20 23  1  0  0  0  0
 21 19  1  1  0  0  0
 22 25  1  6  0  0  0
 22 24  1  0  0  0  0
 23 21  1  0  0  0  0
 24 21  1  0  0  0  0
 26 22  1  0  0  0  0
 26 20  2  0  0  0  0
 27 28  1  0  0  0  0
M  END
>  <MODEL>
3

>  <REMARK>
 VINA RESULT:      -7.2      3.189      7.723
  Name = 
  8 active torsions:
  status: ('A' for Active; 'I' for Inactive)
    1  A    between atoms: C_1  and  C_3
    2  A    between atoms: C_1  and  C_11
    3  A    between atoms: C_1  and  C_27
    4  A    between atoms: C_6  and  C_8
    5  A    between atoms: C_8  and  C_11
    6  A    between atoms: C_9  and  C_18
    7  A    between atoms: C_14  and  C_25
    8  A    between atoms: C_16  and  C_21
                            x       y       z     vdW  Elec       q    Type
                         _______ _______ _______ _____ _____    ______ ____

>  <TORSDO>
F 8

$$$$
=
 OpenBabel11052418153D

 28 29  0  0  1  0  0  0  0  0999 V2000
  189.1650  177.7430  146.4940 O   0  0  0  0  0  1  0  0  0  0  0  0
  188.9680  175.0530  145.1730 C   0  0  0  0  0  2  0  0  0  0  0  0
  189.3290  177.7870  144.0930 C   0  0  2  0  0  3  0  0  0  0  0  0
  188.4880  175.3650  143.7630 C   0  0  0  0  0  2  0  0  0  0  0  0
  189.9670  177.3480  145.4200 C   0  0  2  0  0  3  0  0  0  0  0  0
  190.2410  175.8400  145.4570 C   0  0  1  0  0  3  0  0  0  0  0  0
  188.1990  176.8650  143.5760 C   0  0  1  0  0  3  0  0  0  0  0  0
  186.7540  177.3010  143.9500 C   0  0  1  0  0  0  0  0  0  0  0  0
  186.7400  178.7440  144.4240 C   0  0  0  0  0  1  0  0  0  0  0  0
  185.2570  178.2940  142.2070 C   0  0  0  0  0  3  0  0  0  0  0  0
  185.8250  177.2220  142.7620 C   0  0  0  0  0  3  0  0  0  0  0  0
  184.3520  178.1340  141.0370 C   0  0  0  0  0  1  0  0  0  0  0  0
  186.2030  176.4560  145.1080 C   0  0  0  0  0  2  0  0  0  0  0  0
  185.3510  177.2520  146.0970 C   0  0  0  0  0  2  0  0  0  0  0  0
  185.8580  177.0860  147.5210 C   0  0  1  0  0  3  0  0  0  0  0  0
  186.8900  176.1650  147.5650 F   0  0  0  0  0  0  0  0  0  0  0  0
  186.2950  178.3110  148.0280 O   0  0  0  0  0  1  0  0  0  0  0  0
  190.8500  175.4300  146.7660 C   0  0  0  0  0  3  0  0  0  0  0  0
  192.1570  175.1770  146.9210 C   0  0  0  0  0  3  0  0  0  0  0  0
  195.0300  176.6290  144.8910 C   0  0  0  0  0  3  0  0  0  0  0  0
  193.1570  175.2910  145.8120 C   0  0  1  0  0  3  0  0  0  0  0  0
  195.5740  174.3680  145.6670 C   0  0  1  0  0  3  0  0  0  0  0  0
  193.9230  176.6180  145.9030 C   0  0  0  0  0  2  0  0  0  0  0  0
  194.0750  174.0510  145.8090 C   0  0  0  0  0  2  0  0  0  0  0  0
  196.3130  173.1570  145.1390 C   0  0  0  0  0  1  0  0  0  0  0  0
  195.8130  175.5510  144.7730 C   0  0  0  0  0  3  0  0  0  0  0  0
  191.6100  178.3860  143.5840 O   0  0  0  0  0  1  0  0  0  0  0  0
  190.3810  178.0430  143.0160 C   0  0  0  0  0  2  0  0  0  0  0  0
  2  6  1  0  0  0  0
  3 28  1  6  0  0  0
  3  5  1  0  0  0  0
  4  2  1  0  0  0  0
  5  6  1  0  0  0  0
  5  1  1  1  0  0  0
  6 18  1  1  0  0  0
  7  4  1  0  0  0  0
  7  8  1  1  0  0  0
  7  3  1  0  0  0  0
  8  9  1  1  0  0  0
  8 13  1  0  0  0  0
 10 11  2  0  0  0  0
 11  8  1  0  0  0  0
 12 10  1  0  0  0  0
 13 14  1  0  0  0  0
 14 15  1  0  0  0  0
 15 16  1  6  0  0  0
 15 17  1  0  0  0  0
 18 19  2  0  0  0  0
 20 23  1  0  0  0  0
 21 23  1  0  0  0  0
 21 19  1  1  0  0  0
 22 25  1  6  0  0  0
 22 24  1  0  0  0  0
 24 21  1  0  0  0  0
 26 20  2  0  0  0  0
 26 22  1  0  0  0  0
 28 27  1  0  0  0  0
M  END
>  <MODEL>
4

>  <REMARK>
 VINA RESULT:      -7.2      1.852      3.111
  Name = 
  8 active torsions:
  status: ('A' for Active; 'I' for Inactive)
    1  A    between atoms: C_1  and  C_3
    2  A    between atoms: C_1  and  C_11
    3  A    between atoms: C_1  and  C_27
    4  A    between atoms: C_6  and  C_8
    5  A    between atoms: C_8  and  C_11
    6  A    between atoms: C_9  and  C_18
    7  A    between atoms: C_14  and  C_25
    8  A    between atoms: C_16  and  C_21
                            x       y       z     vdW  Elec       q    Type
                         _______ _______ _______ _____ _____    ______ ____

>  <TORSDO>
F 8

$$$$
=
 OpenBabel11052418153D

 28 29  0  0  1  0  0  0  0  0999 V2000
  188.6270  175.8700  145.7000 O   0  0  0  0  0  1  0  0  0  0  0  0
  188.5710  174.8900  142.8620 C   0  0  0  0  0  2  0  0  0  0  0  0
  189.3300  177.4890  144.0630 C   0  0  2  0  0  3  0  0  0  0  0  0
  188.4410  176.1590  142.0320 C   0  0  0  0  0  2  0  0  0  0  0  0
  189.6240  176.1530  144.7650 C   0  0  2  0  0  3  0  0  0  0  0  0
  189.7920  175.0030  143.7660 C   0  0  1  0  0  3  0  0  0  0  0  0
  188.2920  177.4090  142.9180 C   0  0  1  0  0  3  0  0  0  0  0  0
  186.8300  177.7560  143.3140 C   0  0  1  0  0  0  0  0  0  0  0  0
  185.9860  176.4950  143.3910 C   0  0  0  0  0  1  0  0  0  0  0  0
  185.8020  178.1500  145.5620 C   0  0  0  0  0  3  0  0  0  0  0  0
  186.7630  178.4100  144.6740 C   0  0  0  0  0  3  0  0  0  0  0  0
  185.8050  178.8370  146.8830 C   0  0  0  0  0  1  0  0  0  0  0  0
  186.1700  178.6590  142.2620 C   0  0  0  0  0  2  0  0  0  0  0  0
  184.7090  178.3060  141.9790 C   0  0  0  0  0  2  0  0  0  0  0  0
  184.4150  178.3170  140.4870 C   0  0  1  0  0  3  0  0  0  0  0  0
  185.2820  177.4730  139.8160 F   0  0  0  0  0  0  0  0  0  0  0  0
  183.0960  177.9310  140.2480 O   0  0  0  0  0  1  0  0  0  0  0  0
  190.0640  173.7060  144.4710 C   0  0  0  0  0  3  0  0  0  0  0  0
  191.2400  173.4140  145.0450 C   0  0  0  0  0  3  0  0  0  0  0  0
  193.8450  175.7880  146.4820 C   0  0  0  0  0  3  0  0  0  0  0  0
  192.4060  174.3540  145.0600 C   0  0  1  0  0  3  0  0  0  0  0  0
  194.9230  173.8550  145.4260 C   0  0  1  0  0  3  0  0  0  0  0  0
  192.5750  174.9900  146.4470 C   0  0  0  0  0  2  0  0  0  0  0  0
  193.6710  173.6230  144.5620 C   0  0  0  0  0  2  0  0  0  0  0  0
  196.1710  173.5830  144.6150 C   0  0  0  0  0  1  0  0  0  0  0  0
  194.9650  175.2490  145.9870 C   0  0  0  0  0  3  0  0  0  0  0  0
  191.7160  177.7280  144.3330 O   0  0  0  0  0  1  0  0  0  0  0  0
  190.6110  178.1860  143.6120 C   0  0  0  0  0  2  0  0  0  0  0  0
  2  6  1  0  0  0  0
  3 28  1  6  0  0  0
  3  5  1  0  0  0  0
  4  2  1  0  0  0  0
  4  7  1  0  0  0  0
  5  1  1  1  0  0  0
  6 18  1  1  0  0  0
  6  5  1  0  0  0  0
  7  8  1  1  0  0  0
  7  3  1  0  0  0  0
  8  9  1  1  0  0  0
  8 11  1  0  0  0  0
 10 12  1  0  0  0  0
 11 10  2  0  0  0  0
 13  8  1  0  0  0  0
 14 13  1  0  0  0  0
 15 16  1  6  0  0  0
 15 14  1  0  0  0  0
 17 15  1  0  0  0  0
 18 19  2  0  0  0  0
 21 19  1  1  0  0  0
 21 23  1  0  0  0  0
 22 25  1  6  0  0  0
 22 26  1  0  0  0  0
 23 20  1  0  0  0  0
 24 21  1  0  0  0  0
 24 22  1  0  0  0  0
 26 20  2  0  0  0  0
 28 27  1  0  0  0  0
M  END
>  <MODEL>
5

>  <REMARK>
 VINA RESULT:      -7.1      2.550      4.280
  Name = 
  8 active torsions:
  status: ('A' for Active; 'I' for Inactive)
    1  A    between atoms: C_1  and  C_3
    2  A    between atoms: C_1  and  C_11
    3  A    between atoms: C_1  and  C_27
    4  A    between atoms: C_6  and  C_8
    5  A    between atoms: C_8  and  C_11
    6  A    between atoms: C_9  and  C_18
    7  A    between atoms: C_14  and  C_25
    8  A    between atoms: C_16  and  C_21
                            x       y       z     vdW  Elec       q    Type
                         _______ _______ _______ _____ _____    ______ ____

>  <TORSDO>
F 8

$$$$
=
 OpenBabel11052418153D

 28 29  0  0  1  0  0  0  0  0999 V2000
  189.7210  174.6200  146.2980 O   0  0  0  0  0  1  0  0  0  0  0  0
  189.3530  177.4870  145.4860 C   0  0  0  0  0  2  0  0  0  0  0  0
  189.6620  174.9920  143.9200 C   0  0  2  0  0  3  0  0  0  0  0  0
  189.9440  177.5560  144.0850 C   0  0  0  0  0  2  0  0  0  0  0  0
  188.8920  175.0260  145.2500 C   0  0  2  0  0  3  0  0  0  0  0  0
  188.2820  176.4050  145.5270 C   0  0  1  0  0  3  0  0  0  0  0  0
  190.5730  176.2170  143.6630 C   0  0  1  0  0  3  0  0  0  0  0  0
  192.0630  176.0400  144.0670 C   0  0  1  0  0  0  0  0  0  0  0  0
  192.3750  174.5760  144.3220 C   0  0  0  0  0  1  0  0  0  0  0  0
  194.1410  175.8850  142.6800 C   0  0  0  0  0  3  0  0  0  0  0  0
  192.9940  176.5010  142.9710 C   0  0  0  0  0  3  0  0  0  0  0  0
  195.0060  176.4010  141.5840 C   0  0  0  0  0  1  0  0  0  0  0  0
  192.3750  176.7870  145.3730 C   0  0  0  0  0  2  0  0  0  0  0  0
  193.0940  175.9280  146.4140 C   0  0  0  0  0  2  0  0  0  0  0  0
  194.5670  176.2940  146.5110 C   0  0  1  0  0  3  0  0  0  0  0  0
  195.3480  175.3240  145.9070 F   0  0  0  0  0  0  0  0  0  0  0  0
  194.8010  177.5320  145.9120 O   0  0  0  0  0  1  0  0  0  0  0  0
  187.5470  176.4210  146.8360 C   0  0  0  0  0  3  0  0  0  0  0  0
  186.3490  176.9990  146.9980 C   0  0  0  0  0  3  0  0  0  0  0  0
  185.3230  179.7910  144.6240 C   0  0  0  0  0  3  0  0  0  0  0  0
  185.6030  177.6780  145.8910 C   0  0  1  0  0  3  0  0  0  0  0  0
  186.1960  177.8690  143.3750 C   0  0  1  0  0  3  0  0  0  0  0  0
  185.9450  179.1730  145.8410 C   0  0  0  0  0  2  0  0  0  0  0  0
  185.8650  176.9440  144.5590 C   0  0  0  0  0  2  0  0  0  0  0  0
  185.9040  177.1660  142.0680 C   0  0  0  0  0  1  0  0  0  0  0  0
  185.4360  179.1640  143.4480 C   0  0  0  0  0  3  0  0  0  0  0  0
  189.4660  174.3830  141.5940 O   0  0  0  0  0  1  0  0  0  0  0  0
  188.7370  174.7210  142.7360 C   0  0  0  0  0  2  0  0  0  0  0  0
  2  6  1  0  0  0  0
  3 28  1  6  0  0  0
  3  5  1  0  0  0  0
  4  2  1  0  0  0  0
  5  6  1  0  0  0  0
  5  1  1  1  0  0  0
  6 18  1  1  0  0  0
  7  3  1  0  0  0  0
  7  8  1  1  0  0  0
  7  4  1  0  0  0  0
  8  9  1  1  0  0  0
  8 13  1  0  0  0  0
 10 11  2  0  0  0  0
 11  8  1  0  0  0  0
 12 10  1  0  0  0  0
 13 14  1  0  0  0  0
 14 15  1  0  0  0  0
 15 16  1  6  0  0  0
 17 15  1  0  0  0  0
 18 19  2  0  0  0  0
 20 23  1  0  0  0  0
 21 19  1  1  0  0  0
 22 25  1  6  0  0  0
 22 26  1  0  0  0  0
 22 24  1  0  0  0  0
 23 21  1  0  0  0  0
 24 21  1  0  0  0  0
 26 20  2  0  0  0  0
 27 28  1  0  0  0  0
M  END
>  <MODEL>
6

>  <REMARK>
 VINA RESULT:      -7.0      3.117      7.386
  Name = 
  8 active torsions:
  status: ('A' for Active; 'I' for Inactive)
    1  A    between atoms: C_1  and  C_3
    2  A    between atoms: C_1  and  C_11
    3  A    between atoms: C_1  and  C_27
    4  A    between atoms: C_6  and  C_8
    5  A    between atoms: C_8  and  C_11
    6  A    between atoms: C_9  and  C_18
    7  A    between atoms: C_14  and  C_25
    8  A    between atoms: C_16  and  C_21
                            x       y       z     vdW  Elec       q    Type
                         _______ _______ _______ _____ _____    ______ ____

>  <TORSDO>
F 8

$$$$
=
 OpenBabel11052418153D

 28 29  0  0  1  0  0  0  0  0999 V2000
  191.5490  177.4570  144.9430 O   0  0  0  0  0  1  0  0  0  0  0  0
  191.1690  175.8560  147.4560 C   0  0  0  0  0  2  0  0  0  0  0  0
  190.1140  175.5390  144.7070 C   0  0  2  0  0  3  0  0  0  0  0  0
  189.8400  175.1450  147.2470 C   0  0  0  0  0  2  0  0  0  0  0  0
  191.5340  176.0600  144.9760 C   0  0  2  0  0  3  0  0  0  0  0  0
  192.1020  175.5290  146.2970 C   0  0  1  0  0  3  0  0  0  0  0  0
  189.1660  175.5690  145.9300 C   0  0  1  0  0  3  0  0  0  0  0  0
  188.2520  176.8210  146.0390 C   0  0  1  0  0  0  0  0  0  0  0  0
  188.8210  177.8090  147.0430 C   0  0  0  0  0  1  0  0  0  0  0  0
  187.0620  177.5020  143.9450 C   0  0  0  0  0  3  0  0  0  0  0  0
  188.1470  177.5490  144.7200 C   0  0  0  0  0  3  0  0  0  0  0  0
  187.0360  178.2480  142.6570 C   0  0  0  0  0  1  0  0  0  0  0  0
  186.8520  176.4430  146.5460 C   0  0  0  0  0  2  0  0  0  0  0  0
  186.3210  177.3770  147.6340 C   0  0  0  0  0  2  0  0  0  0  0  0
  185.1990  178.2590  147.1070 C   0  0  1  0  0  3  0  0  0  0  0  0
  185.7140  179.4140  146.5450 F   0  0  0  0  0  0  0  0  0  0  0  0
  184.4420  177.5690  146.1590 O   0  0  0  0  0  1  0  0  0  0  0  0
  193.4830  176.0610  146.5480 C   0  0  0  0  0  3  0  0  0  0  0  0
  194.5930  175.4680  146.0880 C   0  0  0  0  0  3  0  0  0  0  0  0
  194.8590  173.2850  142.9820 C   0  0  0  0  0  3  0  0  0  0  0  0
  194.5800  174.2190  145.2620 C   0  0  1  0  0  3  0  0  0  0  0  0
  196.5280  172.6220  144.6510 C   0  0  1  0  0  3  0  0  0  0  0  0
  194.7010  174.5530  143.7680 C   0  0  0  0  0  2  0  0  0  0  0  0
  195.6710  173.2490  145.7640 C   0  0  0  0  0  2  0  0  0  0  0  0
  197.1600  171.3390  145.1430 C   0  0  0  0  0  1  0  0  0  0  0  0
  195.7260  172.3600  143.4070 C   0  0  0  0  0  3  0  0  0  0  0  0
  191.2350  174.0260  143.1980 O   0  0  0  0  0  1  0  0  0  0  0  0
  190.1310  174.1640  144.0430 C   0  0  0  0  0  2  0  0  0  0  0  0
  3 28  1  1  0  0  0
  3  5  1  0  0  0  0
  3  7  1  0  0  0  0
  4  2  1  0  0  0  0
  5  1  1  1  0  0  0
  5  6  1  0  0  0  0
  6 18  1  1  0  0  0
  6  2  1  0  0  0  0
  7  8  1  1  0  0  0
  7  4  1  0  0  0  0
  8 13  1  0  0  0  0
  8  9  1  1  0  0  0
 10 11  2  0  0  0  0
 11  8  1  0  0  0  0
 12 10  1  0  0  0  0
 13 14  1  0  0  0  0
 15 17  1  6  0  0  0
 15 14  1  0  0  0  0
 16 15  1  0  0  0  0
 19 18  2  0  0  0  0
 20 26  2  0  0  0  0
 20 23  1  0  0  0  0
 21 24  1  0  0  0  0
 21 19  1  1  0  0  0
 22 25  1  1  0  0  0
 22 24  1  0  0  0  0
 23 21  1  0  0  0  0
 26 22  1  0  0  0  0
 27 28  1  0  0  0  0
M  END
>  <MODEL>
7

>  <REMARK>
 VINA RESULT:      -7.0      2.392      4.100
  Name = 
  8 active torsions:
  status: ('A' for Active; 'I' for Inactive)
    1  A    between atoms: C_1  and  C_3
    2  A    between atoms: C_1  and  C_11
    3  A    between atoms: C_1  and  C_27
    4  A    between atoms: C_6  and  C_8
    5  A    between atoms: C_8  and  C_11
    6  A    between atoms: C_9  and  C_18
    7  A    between atoms: C_14  and  C_25
    8  A    between atoms: C_16  and  C_21
                            x       y       z     vdW  Elec       q    Type
                         _______ _______ _______ _____ _____    ______ ____

>  <TORSDO>
F 8

$$$$
=
 OpenBabel11052418153D

 28 29  0  0  1  0  0  0  0  0999 V2000
  189.5420  177.6010  146.4310 O   0  0  0  0  0  1  0  0  0  0  0  0
  189.3180  174.8890  145.1620 C   0  0  0  0  0  2  0  0  0  0  0  0
  189.6630  177.6030  144.0270 C   0  0  2  0  0  3  0  0  0  0  0  0
  188.8130  175.1770  143.7550 C   0  0  0  0  0  2  0  0  0  0  0  0
  190.3230  177.1870  145.3500 C   0  0  2  0  0  3  0  0  0  0  0  0
  190.5960  175.6790  145.4080 C   0  0  1  0  0  3  0  0  0  0  0  0
  188.5220  176.6730  143.5460 C   0  0  1  0  0  3  0  0  0  0  0  0
  187.0850  177.1180  143.9390 C   0  0  1  0  0  0  0  0  0  0  0  0
  186.0770  176.0410  143.5770 C   0  0  0  0  0  1  0  0  0  0  0  0
  185.9980  176.8080  146.1720 C   0  0  0  0  0  3  0  0  0  0  0  0
  186.9620  177.3500  145.4260 C   0  0  0  0  0  3  0  0  0  0  0  0
  185.9440  177.0860  147.6340 C   0  0  0  0  0  1  0  0  0  0  0  0
  186.6670  178.3810  143.1720 C   0  0  0  0  0  2  0  0  0  0  0  0
  185.1730  178.4380  142.8510 C   0  0  0  0  0  2  0  0  0  0  0  0
  184.4430  179.3930  143.7820 C   0  0  1  0  0  3  0  0  0  0  0  0
  183.7510  178.6910  144.7530 F   0  0  0  0  0  0  0  0  0  0  0  0
  185.3450  180.2710  144.3840 O   0  0  0  0  0  1  0  0  0  0  0  0
  191.2280  175.2910  146.7130 C   0  0  0  0  0  3  0  0  0  0  0  0
  192.5310  175.0050  146.8420 C   0  0  0  0  0  3  0  0  0  0  0  0
  195.3360  176.3500  144.6490 C   0  0  0  0  0  3  0  0  0  0  0  0
  193.5030  175.0550  145.7040 C   0  0  1  0  0  3  0  0  0  0  0  0
  195.9300  174.1550  145.5650 C   0  0  1  0  0  3  0  0  0  0  0  0
  194.2530  176.3940  145.6860 C   0  0  0  0  0  2  0  0  0  0  0  0
  194.4400  173.8290  145.7640 C   0  0  0  0  0  2  0  0  0  0  0  0
  196.6740  172.9210  145.1030 C   0  0  0  0  0  1  0  0  0  0  0  0
  196.1320  175.2770  144.5860 C   0  0  0  0  0  3  0  0  0  0  0  0
  191.9810  177.9560  143.4600 O   0  0  0  0  0  1  0  0  0  0  0  0
  190.6950  177.8390  142.9270 C   0  0  0  0  0  2  0  0  0  0  0  0
  2  6  1  0  0  0  0
  3 28  1  6  0  0  0
  3  5  1  0  0  0  0
  4  2  1  0  0  0  0
  5  6  1  0  0  0  0
  5  1  1  1  0  0  0
  6 18  1  1  0  0  0
  7  4  1  0  0  0  0
  7  8  1  1  0  0  0
  7  3  1  0  0  0  0
  8  9  1  6  0  0  0
  8 11  1  0  0  0  0
 10 12  1  0  0  0  0
 11 10  2  0  0  0  0
 13  8  1  0  0  0  0
 14 13  1  0  0  0  0
 14 15  1  0  0  0  0
 15 17  1  1  0  0  0
 15 16  1  0  0  0  0
 18 19  2  0  0  0  0
 20 23  1  0  0  0  0
 21 24  1  0  0  0  0
 21 19  1  1  0  0  0
 22 25  1  6  0  0  0
 22 24  1  0  0  0  0
 23 21  1  0  0  0  0
 26 20  2  0  0  0  0
 26 22  1  0  0  0  0
 28 27  1  0  0  0  0
M  END
>  <MODEL>
8

>  <REMARK>
 VINA RESULT:      -7.0      2.065      3.898
  Name = 
  8 active torsions:
  status: ('A' for Active; 'I' for Inactive)
    1  A    between atoms: C_1  and  C_3
    2  A    between atoms: C_1  and  C_11
    3  A    between atoms: C_1  and  C_27
    4  A    between atoms: C_6  and  C_8
    5  A    between atoms: C_8  and  C_11
    6  A    between atoms: C_9  and  C_18
    7  A    between atoms: C_14  and  C_25
    8  A    between atoms: C_16  and  C_21
                            x       y       z     vdW  Elec       q    Type
                         _______ _______ _______ _____ _____    ______ ____

>  <TORSDO>
F 8

$$$$
=
 OpenBabel11052418153D

 28 29  0  0  1  0  0  0  0  0999 V2000
  191.3220  173.7840  144.6190 O   0  0  0  0  0  1  0  0  0  0  0  0
  192.2510  175.4770  146.9180 C   0  0  0  0  0  2  0  0  0  0  0  0
  192.2270  175.9230  143.9900 C   0  0  2  0  0  3  0  0  0  0  0  0
  193.2810  176.4120  146.3000 C   0  0  0  0  0  2  0  0  0  0  0  0
  191.1010  175.1600  144.7040 C   0  0  2  0  0  3  0  0  0  0  0  0
  190.9360  175.6070  146.1610 C   0  0  1  0  0  3  0  0  0  0  0  0
  193.5260  176.0900  144.8150 C   0  0  1  0  0  3  0  0  0  0  0  0
  194.6280  175.0260  144.5530 C   0  0  1  0  0  0  0  0  0  0  0  0
  194.2440  174.1400  143.3800 C   0  0  0  0  0  1  0  0  0  0  0  0
  196.6330  175.3710  143.0950 C   0  0  0  0  0  3  0  0  0  0  0  0
  195.9490  175.6680  144.2010 C   0  0  0  0  0  3  0  0  0  0  0  0
  197.9300  176.0480  142.8190 C   0  0  0  0  0  1  0  0  0  0  0  0
  194.8000  174.0960  145.7630 C   0  0  0  0  0  2  0  0  0  0  0  0
  195.2040  172.6700  145.3890 C   0  0  0  0  0  2  0  0  0  0  0  0
  196.6770  172.4190  145.6740 C   0  0  1  0  0  3  0  0  0  0  0  0
  197.3990  172.3780  144.4940 F   0  0  0  0  0  0  0  0  0  0  0  0
  197.1870  173.4140  146.5080 O   0  0  0  0  0  1  0  0  0  0  0  0
  189.8410  174.8400  146.8440 C   0  0  0  0  0  3  0  0  0  0  0  0
  188.5890  175.3010  146.9700 C   0  0  0  0  0  3  0  0  0  0  0  0
  187.2300  177.8120  144.4530 C   0  0  0  0  0  3  0  0  0  0  0  0
  188.1390  176.6240  146.4310 C   0  0  1  0  0  3  0  0  0  0  0  0
  185.7740  177.6850  146.4220 C   0  0  1  0  0  3  0  0  0  0  0  0
  187.8410  176.5270  144.9280 C   0  0  0  0  0  2  0  0  0  0  0  0
  186.9470  177.1470  147.2600 C   0  0  0  0  0  2  0  0  0  0  0  0
  184.9370  178.6360  147.2500 C   0  0  0  0  0  1  0  0  0  0  0  0
  186.2490  178.3690  145.1710 C   0  0  0  0  0  3  0  0  0  0  0  0
  190.5240  177.1120  142.7630 O   0  0  0  0  0  1  0  0  0  0  0  0
  191.7420  177.2590  143.4320 C   0  0  0  0  0  2  0  0  0  0  0  0
  3 28  1  1  0  0  0
  3  5  1  0  0  0  0
  3  7  1  0  0  0  0
  4  2  1  0  0  0  0
  5  1  1  1  0  0  0
  5  6  1  0  0  0  0
  6 18  1  1  0  0  0
  6  2  1  0  0  0  0
  7  8  1  1  0  0  0
  7  4  1  0  0  0  0
  8  9  1  6  0  0  0
  8 13  1  0  0  0  0
 10 11  2  0  0  0  0
 11  8  1  0  0  0  0
 12 10  1  0  0  0  0
 14 15  1  0  0  0  0
 14 13  1  0  0  0  0
 15 16  1  6  0  0  0
 15 17  1  0  0  0  0
 18 19  2  0  0  0  0
 20 23  1  0  0  0  0
 20 26  2  0  0  0  0
 21 19  1  1  0  0  0
 21 24  1  0  0  0  0
 22 25  1  1  0  0  0
 22 24  1  0  0  0  0
 23 21  1  0  0  0  0
 26 22  1  0  0  0  0
 27 28  1  0  0  0  0
M  END
>  <MODEL>
9

>  <REMARK>
 VINA RESULT:      -7.0      3.917      8.725
  Name = 
  8 active torsions:
  status: ('A' for Active; 'I' for Inactive)
    1  A    between atoms: C_1  and  C_3
    2  A    between atoms: C_1  and  C_11
    3  A    between atoms: C_1  and  C_27
    4  A    between atoms: C_6  and  C_8
    5  A    between atoms: C_8  and  C_11
    6  A    between atoms: C_9  and  C_18
    7  A    between atoms: C_14  and  C_25
    8  A    between atoms: C_16  and  C_21
                            x       y       z     vdW  Elec       q    Type
                         _______ _______ _______ _____ _____    ______ ____

>  <TORSDO>
F 8

$$$$
