=
 OpenBabel11052421113D

 43 49  0  0  1  0  0  0  0  0999 V2000
  184.9560  178.0160  145.7670 C   0  0  0  0  0  0  0  0  0  0  0  0
  188.7640  175.5110  143.5610 C   0  0  0  0  0  0  0  0  0  0  0  0
  190.8130  175.2810  145.4850 C   0  0  0  0  0  0  0  0  0  0  0  0
  186.3590  176.8210  144.1950 C   0  0  0  0  0  0  0  0  0  0  0  0
  185.9530  177.9190  146.7390 C   0  0  0  0  0  3  0  0  0  0  0  0
  183.7600  178.6560  146.0610 O   0  0  0  0  0  1  0  0  0  0  0  0
  187.3770  176.7170  145.1760 C   0  0  0  0  0  0  0  0  0  0  0  0
  185.1580  177.4680  144.4970 C   0  0  0  0  0  3  0  0  0  0  0  0
  187.1580  177.2740  146.4470 C   0  0  0  0  0  3  0  0  0  0  0  0
  189.6150  175.9340  145.8000 C   0  0  0  0  0  3  0  0  0  0  0  0
  188.5840  176.0590  144.8560 C   0  0  0  0  0  0  0  0  0  0  0  0
  187.7410  175.6280  142.6100 C   0  0  0  0  0  3  0  0  0  0  0  0
  189.9610  174.8510  143.2340 C   0  0  0  0  0  0  0  0  0  0  0  0
  190.9730  174.7440  144.2000 C   0  0  0  0  0  3  0  0  0  0  0  0
  186.5490  176.2780  142.9250 C   0  0  0  0  0  3  0  0  0  0  0  0
  191.8760  175.1640  146.5070 C   0  0  0  0  0  0  0  0  0  0  0  0
  191.5350  175.4580  148.0920 S   0  0  0  0  0  0  0  0  0  0  0  0
  193.1810  174.7250  146.0950 N   0  0  0  0  0  2  0  0  0  0  0  0
  194.3970  175.4830  146.0570 C   0  0  0  0  0  0  0  0  0  0  0  0
  194.4080  176.7220  146.2830 O   0  0  0  0  0  0  0  0  0  0  0  0
  195.6650  174.8020  145.6820 C   0  0  0  0  0  2  0  0  0  0  0  0
  195.4140  173.3840  145.4570 N   0  0  0  0  0  0  0  0  0  0  0  0
  196.8690  172.2370  143.8620 C   0  0  0  0  0  2  0  0  0  0  0  0
  194.8710  173.8290  142.9760 C   0  0  2  0  0  3  0  0  0  0  0  0
  196.4040  172.6850  146.1840 N   0  0  0  0  0  2  0  0  0  0  0  0
  195.6620  173.0930  144.0560 C   0  0  2  0  0  0  0  0  0  0  0  0
  194.4440  172.4430  143.4280 C   0  0  0  0  0  2  0  0  0  0  0  0
  197.1090  171.7740  145.2750 C   0  0  0  0  0  2  0  0  0  0  0  0
  195.5700  173.7580  141.6210 C   0  0  0  0  0  3  0  0  0  0  0  0
  193.7930  174.7860  140.1740 C   0  0  0  0  0  2  0  0  0  0  0  0
  195.4020  176.1680  140.9370 C   0  0  0  0  0  2  0  0  0  0  0  0
  194.6930  175.7920  139.7820 O   0  0  0  0  0  0  0  0  0  0  0  0
  196.3550  175.0450  141.3520 C   0  0  0  0  0  2  0  0  0  0  0  0
  194.5560  173.4990  140.5020 C   0  0  0  0  0  2  0  0  0  0  0  0
  190.1320  174.3110  141.9510 O   0  0  0  0  0  0  0  0  0  0  0  0
  190.5820  170.5890  142.1050 C   0  0  0  0  0  2  0  0  0  0  0  0
  190.5840  170.3680  140.6510 N   0  0  0  0  0  0  0  0  0  0  0  0
  190.7700  172.7760  140.2110 C   0  0  0  0  0  2  0  0  0  0  0  0
  189.9620  171.9450  142.4260 C   0  0  0  0  0  2  0  0  0  0  0  0
  190.7410  173.0480  141.7110 C   0  0  0  0  0  3  0  0  0  0  0  0
  191.3680  171.3970  139.9500 C   0  0  0  0  0  2  0  0  0  0  0  0
  191.9830  168.6710  141.2690 C   0  0  0  0  0  1  0  0  0  0  0  0
  191.0150  169.1020  140.3330 O   0  0  0  0  0  0  0  0  0  0  0  0
  1  6  1  0  0  0  0
  1  5  1  0  0  0  0
  2 11  1  0  0  0  0
  3 10  1  0  0  0  0
  3 16  1  0  0  0  0
  4  8  1  0  0  0  0
  4  7  2  0  0  0  0
  7  9  1  0  0  0  0
  8  1  2  0  0  0  0
  9  5  2  0  0  0  0
 11  7  1  0  0  0  0
 11 10  2  0  0  0  0
 12 15  2  0  0  0  0
 12  2  1  0  0  0  0
 13  2  2  0  0  0  0
 13 14  1  0  0  0  0
 14  3  2  0  0  0  0
 15  4  1  0  0  0  0
 16 17  2  0  0  0  0
 18 16  1  0  0  0  0
 19 18  1  0  0  0  0
 19 20  2  0  0  0  0
 21 19  1  0  0  0  0
 22 21  1  0  0  0  0
 22 25  1  0  0  0  0
 23 26  1  0  0  0  0
 23 28  1  0  0  0  0
 24 29  1  6  0  0  0
 24 27  1  0  0  0  0
 24 26  1  0  0  0  0
 26 27  1  6  0  0  0
 26 22  1  0  0  0  0
 28 25  1  0  0  0  0
 30 34  1  0  0  0  0
 31 33  1  0  0  0  0
 32 30  1  0  0  0  0
 32 31  1  0  0  0  0
 33 29  1  0  0  0  0
 34 29  1  0  0  0  0
 35 13  1  0  0  0  0
 36 39  1  0  0  0  0
 37 36  1  0  0  0  0
 38 40  1  0  0  0  0
 40 35  1  0  0  0  0
 40 39  1  0  0  0  0
 41 38  1  0  0  0  0
 41 37  1  0  0  0  0
 43 37  1  0  0  0  0
 43 42  1  0  0  0  0
M  END
>  <MODEL>
1

>  <REMARK>
 VINA RESULT:      -7.7      0.000      0.000
  Name = 
  8 active torsions:
  status: ('A' for Active; 'I' for Inactive)
    1  A    between atoms: O_1  and  C_34
    2  A    between atoms: O_1  and  C_35
    3  A    between atoms: C_2  and  N_6
    4  A    between atoms: C_2  and  C_13
    5  A    between atoms: C_3  and  N_4
    6  A    between atoms: C_3  and  C_12
    7  A    between atoms: C_11  and  C_14
    8  A    between atoms: N_19  and  O_37
                            x       y       z     vdW  Elec       q    Type
                         _______ _______ _______ _____ _____    ______ ____

>  <TORSDO>
F 8

$$$$
=
 OpenBabel11052421113D

 43 49  0  0  1  0  0  0  0  0999 V2000
  184.6600  178.3680  145.7690 C   0  0  0  0  0  0  0  0  0  0  0  0
  188.5560  175.8080  143.7880 C   0  0  0  0  0  0  0  0  0  0  0  0
  190.6260  175.8630  145.7010 C   0  0  0  0  0  0  0  0  0  0  0  0
  186.1020  177.0770  144.3120 C   0  0  0  0  0  0  0  0  0  0  0  0
  185.6680  178.4130  146.7350 C   0  0  0  0  0  3  0  0  0  0  0  0
  183.4410  178.9850  146.0100 O   0  0  0  0  0  1  0  0  0  0  0  0
  187.1300  177.1160  145.2860 C   0  0  0  0  0  0  0  0  0  0  0  0
  184.8760  177.7010  144.5600 C   0  0  0  0  0  3  0  0  0  0  0  0
  186.8970  177.7910  146.4970 C   0  0  0  0  0  3  0  0  0  0  0  0
  189.4040  176.4940  145.9620 C   0  0  0  0  0  3  0  0  0  0  0  0
  188.3620  176.4790  145.0220 C   0  0  0  0  0  0  0  0  0  0  0  0
  187.5220  175.7850  142.8420 C   0  0  0  0  0  3  0  0  0  0  0  0
  189.7770  175.1680  143.5170 C   0  0  0  0  0  0  0  0  0  0  0  0
  190.7990  175.2040  144.4770 C   0  0  0  0  0  3  0  0  0  0  0  0
  186.3050  176.4140  143.1020 C   0  0  0  0  0  3  0  0  0  0  0  0
  191.7000  175.8960  146.7180 C   0  0  0  0  0  0  0  0  0  0  0  0
  191.4530  176.6570  148.1580 S   0  0  0  0  0  0  0  0  0  0  0  0
  192.9260  175.1950  146.4460 N   0  0  0  0  0  2  0  0  0  0  0  0
  194.2360  175.7460  146.2570 C   0  0  0  0  0  0  0  0  0  0  0  0
  194.4220  176.9900  146.1870 O   0  0  0  0  0  0  0  0  0  0  0  0
  195.3910  174.8260  146.0780 C   0  0  0  0  0  2  0  0  0  0  0  0
  195.7560  174.7640  144.6670 N   0  0  0  0  0  0  0  0  0  0  0  0
  194.5180  173.1870  143.2680 C   0  0  0  0  0  2  0  0  0  0  0  0
  196.4690  172.2990  144.9170 C   0  0  2  0  0  3  0  0  0  0  0  0
  194.7600  175.4810  143.9680 N   0  0  0  0  0  2  0  0  0  0  0  0
  195.6440  173.3840  144.2280 C   0  0  2  0  0  0  0  0  0  0  0  0
  196.9510  172.9180  143.6160 C   0  0  0  0  0  2  0  0  0  0  0  0
  194.1950  174.6170  142.9250 C   0  0  0  0  0  2  0  0  0  0  0  0
  195.8900  170.9090  144.6650 C   0  0  0  0  0  3  0  0  0  0  0  0
  197.9410  169.5170  145.0700 C   0  0  0  0  0  2  0  0  0  0  0  0
  196.5420  169.7890  146.8160 C   0  0  0  0  0  2  0  0  0  0  0  0
  197.2710  168.8270  146.0950 O   0  0  0  0  0  0  0  0  0  0  0  0
  195.3720  170.2970  145.9700 C   0  0  0  0  0  2  0  0  0  0  0  0
  196.9360  169.9950  144.0180 C   0  0  0  0  0  2  0  0  0  0  0  0
  189.9610  174.5070  142.2940 O   0  0  0  0  0  0  0  0  0  0  0  0
  190.5240  170.7980  142.1920 C   0  0  0  0  0  2  0  0  0  0  0  0
  191.0930  170.7610  140.8360 N   0  0  0  0  0  0  0  0  0  0  0  0
  191.2990  173.2060  140.7740 C   0  0  0  0  0  2  0  0  0  0  0  0
  189.7540  172.0990  142.3980 C   0  0  0  0  0  2  0  0  0  0  0  0
  190.6850  173.2880  142.1670 C   0  0  0  0  0  3  0  0  0  0  0  0
  192.0270  171.8750  140.6120 C   0  0  0  0  0  2  0  0  0  0  0  0
  190.6960  168.5370  140.4970 C   0  0  0  0  0  1  0  0  0  0  0  0
  191.6820  169.5470  140.5690 O   0  0  0  0  0  0  0  0  0  0  0  0
  1  6  1  0  0  0  0
  1  5  1  0  0  0  0
  2 11  1  0  0  0  0
  3 10  1  0  0  0  0
  3 16  1  0  0  0  0
  4  8  1  0  0  0  0
  4  7  2  0  0  0  0
  7  9  1  0  0  0  0
  8  1  2  0  0  0  0
  9  5  2  0  0  0  0
 11  7  1  0  0  0  0
 11 10  2  0  0  0  0
 12 15  2  0  0  0  0
 12  2  1  0  0  0  0
 13  2  2  0  0  0  0
 13 14  1  0  0  0  0
 14  3  2  0  0  0  0
 15  4  1  0  0  0  0
 16 17  2  0  0  0  0
 18 16  1  0  0  0  0
 19 18  1  0  0  0  0
 20 19  2  0  0  0  0
 21 19  1  0  0  0  0
 22 21  1  0  0  0  0
 24 29  1  6  0  0  0
 25 22  1  0  0  0  0
 26 23  1  6  0  0  0
 26 22  1  0  0  0  0
 26 24  1  0  0  0  0
 27 26  1  0  0  0  0
 27 24  1  0  0  0  0
 28 23  1  0  0  0  0
 28 25  1  0  0  0  0
 29 33  1  0  0  0  0
 30 32  1  0  0  0  0
 32 31  1  0  0  0  0
 33 31  1  0  0  0  0
 34 29  1  0  0  0  0
 34 30  1  0  0  0  0
 35 13  1  0  0  0  0
 36 39  1  0  0  0  0
 37 36  1  0  0  0  0
 38 40  1  0  0  0  0
 40 35  1  0  0  0  0
 40 39  1  0  0  0  0
 41 38  1  0  0  0  0
 41 37  1  0  0  0  0
 42 43  1  0  0  0  0
 43 37  1  0  0  0  0
M  END
>  <MODEL>
2

>  <REMARK>
 VINA RESULT:      -7.4      1.680      3.080
  Name = 
  8 active torsions:
  status: ('A' for Active; 'I' for Inactive)
    1  A    between atoms: O_1  and  C_34
    2  A    between atoms: O_1  and  C_35
    3  A    between atoms: C_2  and  N_6
    4  A    between atoms: C_2  and  C_13
    5  A    between atoms: C_3  and  N_4
    6  A    between atoms: C_3  and  C_12
    7  A    between atoms: C_11  and  C_14
    8  A    between atoms: N_19  and  O_37
                            x       y       z     vdW  Elec       q    Type
                         _______ _______ _______ _____ _____    ______ ____

>  <TORSDO>
F 8

$$$$
=
 OpenBabel11052421113D

 43 49  0  0  1  0  0  0  0  0999 V2000
  190.5330  170.2840  136.6850 C   0  0  0  0  0  0  0  0  0  0  0  0
  189.7860  172.6840  141.0820 C   0  0  0  0  0  0  0  0  0  0  0  0
  188.1960  174.9430  140.5190 C   0  0  0  0  0  0  0  0  0  0  0  0
  190.5480  170.9330  139.0190 C   0  0  0  0  0  0  0  0  0  0  0  0
  189.7460  171.3960  136.3760 C   0  0  0  0  0  3  0  0  0  0  0  0
  190.9170  169.4050  135.6820 O   0  0  0  0  0  1  0  0  0  0  0  0
  189.7500  172.0630  138.7160 C   0  0  0  0  0  0  0  0  0  0  0  0
  190.9330  170.0520  138.0040 C   0  0  0  0  0  3  0  0  0  0  0  0
  189.3560  172.2810  137.3840 C   0  0  0  0  0  3  0  0  0  0  0  0
  188.5760  174.0710  139.4920 C   0  0  0  0  0  3  0  0  0  0  0  0
  189.3670  172.9420  139.7520 C   0  0  0  0  0  0  0  0  0  0  0  0
  190.5770  171.5590  141.3540 C   0  0  0  0  0  3  0  0  0  0  0  0
  189.4080  173.5520  142.1210 C   0  0  0  0  0  0  0  0  0  0  0  0
  188.6180  174.6720  141.8270 C   0  0  0  0  0  3  0  0  0  0  0  0
  190.9540  170.6910  140.3310 C   0  0  0  0  0  3  0  0  0  0  0  0
  187.3570  176.1220  140.2070 C   0  0  0  0  0  0  0  0  0  0  0  0
  186.8640  176.4010  138.6600 S   0  0  0  0  0  0  0  0  0  0  0  0
  186.9300  176.9670  141.2890 N   0  0  0  0  0  2  0  0  0  0  0  0
  187.6410  178.0560  141.8920 C   0  0  0  0  0  0  0  0  0  0  0  0
  188.8360  178.3110  141.5880 O   0  0  0  0  0  0  0  0  0  0  0  0
  186.9710  178.8650  142.9460 C   0  0  0  0  0  2  0  0  0  0  0  0
  185.8670  178.1060  143.5210 N   0  0  0  0  0  0  0  0  0  0  0  0
  185.3300  178.5290  145.8670 C   0  0  0  0  0  2  0  0  0  0  0  0
  187.4580  176.9920  145.2160 C   0  0  2  0  0  3  0  0  0  0  0  0
  184.7640  178.9870  143.5700 N   0  0  0  0  0  2  0  0  0  0  0  0
  186.1970  177.7940  144.9000 C   0  0  2  0  0  0  0  0  0  0  0  0
  186.1080  176.2990  145.1390 C   0  0  0  0  0  2  0  0  0  0  0  0
  184.2530  179.0340  144.9450 C   0  0  0  0  0  2  0  0  0  0  0  0
  187.8850  177.1690  146.6710 C   0  0  0  0  0  3  0  0  0  0  0  0
  189.0230  174.9620  147.0480 C   0  0  0  0  0  2  0  0  0  0  0  0
  190.3400  176.6900  146.4470 C   0  0  0  0  0  2  0  0  0  0  0  0
  190.2180  175.6310  147.3650 O   0  0  0  0  0  0  0  0  0  0  0  0
  189.2940  177.7650  146.7500 C   0  0  0  0  0  2  0  0  0  0  0  0
  187.8210  175.8330  147.4210 C   0  0  0  0  0  2  0  0  0  0  0  0
  189.8260  173.2900  143.4340 O   0  0  0  0  0  0  0  0  0  0  0  0
  192.9870  173.8450  145.3790 C   0  0  0  0  0  2  0  0  0  0  0  0
  193.6620  174.6590  144.3570 N   0  0  0  0  0  0  0  0  0  0  0  0
  191.5900  174.8840  143.0600 C   0  0  0  0  0  2  0  0  0  0  0  0
  191.8450  173.0570  144.7470 C   0  0  0  0  0  2  0  0  0  0  0  0
  190.8620  174.0190  144.0830 C   0  0  0  0  0  3  0  0  0  0  0  0
  192.7400  175.6240  143.7390 C   0  0  0  0  0  2  0  0  0  0  0  0
  194.4340  176.0310  146.0120 C   0  0  0  0  0  1  0  0  0  0  0  0
  194.7780  175.2820  144.8640 O   0  0  0  0  0  0  0  0  0  0  0  0
  1  8  1  0  0  0  0
  2 12  1  0  0  0  0
  2 13  1  0  0  0  0
  3 14  1  0  0  0  0
  4 15  1  0  0  0  0
  5  1  2  0  0  0  0
  5  9  1  0  0  0  0
  6  1  1  0  0  0  0
  7  4  1  0  0  0  0
  7 11  1  0  0  0  0
  8  4  2  0  0  0  0
  9  7  2  0  0  0  0
 10 11  1  0  0  0  0
 10  3  2  0  0  0  0
 11  2  2  0  0  0  0
 13 35  1  0  0  0  0
 14 13  2  0  0  0  0
 15 12  2  0  0  0  0
 16  3  1  0  0  0  0
 16 18  1  0  0  0  0
 17 16  2  0  0  0  0
 18 19  1  0  0  0  0
 19 21  1  0  0  0  0
 20 19  2  0  0  0  0
 21 22  1  0  0  0  0
 22 25  1  0  0  0  0
 22 26  1  0  0  0  0
 24 29  1  1  0  0  0
 25 28  1  0  0  0  0
 26 27  1  1  0  0  0
 26 24  1  0  0  0  0
 26 23  1  0  0  0  0
 27 24  1  0  0  0  0
 28 23  1  0  0  0  0
 29 33  1  0  0  0  0
 29 34  1  0  0  0  0
 30 32  1  0  0  0  0
 30 34  1  0  0  0  0
 31 33  1  0  0  0  0
 31 32  1  0  0  0  0
 35 40  1  0  0  0  0
 37 43  1  0  0  0  0
 37 36  1  0  0  0  0
 38 41  1  0  0  0  0
 38 40  1  0  0  0  0
 39 36  1  0  0  0  0
 40 39  1  0  0  0  0
 41 37  1  0  0  0  0
 43 42  1  0  0  0  0
M  END
>  <MODEL>
3

>  <REMARK>
 VINA RESULT:      -7.3      3.507      8.897
  Name = 
  8 active torsions:
  status: ('A' for Active; 'I' for Inactive)
    1  A    between atoms: O_1  and  C_34
    2  A    between atoms: O_1  and  C_35
    3  A    between atoms: C_2  and  N_6
    4  A    between atoms: C_2  and  C_13
    5  A    between atoms: C_3  and  N_4
    6  A    between atoms: C_3  and  C_12
    7  A    between atoms: C_11  and  C_14
    8  A    between atoms: N_19  and  O_37
                            x       y       z     vdW  Elec       q    Type
                         _______ _______ _______ _____ _____    ______ ____

>  <TORSDO>
F 8

$$$$
=
 OpenBabel11052421113D

 43 49  0  0  1  0  0  0  0  0999 V2000
  184.8270  178.2460  145.1940 C   0  0  0  0  0  0  0  0  0  0  0  0
  189.1850  175.6730  145.3740 C   0  0  0  0  0  0  0  0  0  0  0  0
  189.5510  174.5080  142.8330 C   0  0  0  0  0  0  0  0  0  0  0  0
  186.9140  177.2440  145.9040 C   0  0  0  0  0  0  0  0  0  0  0  0
  184.9800  177.6800  143.9260 C   0  0  0  0  0  3  0  0  0  0  0  0
  183.7140  179.0270  145.4740 O   0  0  0  0  0  1  0  0  0  0  0  0
  187.0800  176.6660  144.6200 C   0  0  0  0  0  0  0  0  0  0  0  0
  185.7920  178.0290  146.1810 C   0  0  0  0  0  3  0  0  0  0  0  0
  186.1000  176.8940  143.6390 C   0  0  0  0  0  3  0  0  0  0  0  0
  188.4200  175.2900  143.0970 C   0  0  0  0  0  3  0  0  0  0  0  0
  188.2200  175.8780  144.3550 C   0  0  0  0  0  0  0  0  0  0  0  0
  188.9970  176.2560  146.6350 C   0  0  0  0  0  3  0  0  0  0  0  0
  190.3260  174.8920  145.1190 C   0  0  0  0  0  0  0  0  0  0  0  0
  190.4950  174.3180  143.8510 C   0  0  0  0  0  3  0  0  0  0  0  0
  187.8710  177.0350  146.8970 C   0  0  0  0  0  3  0  0  0  0  0  0
  189.7310  173.9070  141.4920 C   0  0  0  0  0  0  0  0  0  0  0  0
  188.6390  174.2110  140.2970 S   0  0  0  0  0  0  0  0  0  0  0  0
  190.9070  173.1180  141.2450 N   0  0  0  0  0  2  0  0  0  0  0  0
  191.0570  171.6970  141.3570 C   0  0  0  0  0  0  0  0  0  0  0  0
  190.1410  170.9740  141.8320 O   0  0  0  0  0  0  0  0  0  0  0  0
  192.3460  171.0700  140.9600 C   0  0  0  0  0  2  0  0  0  0  0  0
  193.3440  172.1050  140.7230 N   0  0  0  0  0  0  0  0  0  0  0  0
  195.6580  171.3730  140.4350 C   0  0  0  0  0  2  0  0  0  0  0  0
  194.5670  171.4870  142.9070 C   0  0  2  0  0  3  0  0  0  0  0  0
  193.6290  172.0730  139.3400 N   0  0  0  0  0  2  0  0  0  0  0  0
  194.5710  171.7190  141.3970 C   0  0  2  0  0  0  0  0  0  0  0  0
  195.0250  172.8190  142.3370 C   0  0  0  0  0  2  0  0  0  0  0  0
  195.0750  171.9090  139.1550 C   0  0  0  0  0  2  0  0  0  0  0  0
  195.7670  170.6540  143.3490 C   0  0  0  0  0  3  0  0  0  0  0  0
  195.9490  171.4110  145.7380 C   0  0  0  0  0  2  0  0  0  0  0  0
  194.7730  169.5250  145.3600 C   0  0  0  0  0  2  0  0  0  0  0  0
  195.7760  170.0850  146.1720 O   0  0  0  0  0  0  0  0  0  0  0  0
  195.3070  169.3180  143.9410 C   0  0  0  0  0  2  0  0  0  0  0  0
  196.6200  171.4270  144.3610 C   0  0  0  0  0  2  0  0  0  0  0  0
  191.2750  174.6950  146.1320 O   0  0  0  0  0  0  0  0  0  0  0  0
  194.9460  174.9570  145.3940 C   0  0  0  0  0  2  0  0  0  0  0  0
  194.8620  176.1970  144.6070 N   0  0  0  0  0  0  0  0  0  0  0  0
  192.5370  176.5690  145.3030 C   0  0  0  0  0  2  0  0  0  0  0  0
  193.5720  174.3000  145.4800 C   0  0  0  0  0  2  0  0  0  0  0  0
  192.5750  175.2740  146.1060 C   0  0  0  0  0  3  0  0  0  0  0  0
  193.9400  177.1650  145.2220 C   0  0  0  0  0  2  0  0  0  0  0  0
  196.6530  176.2570  143.1920 C   0  0  0  0  0  1  0  0  0  0  0  0
  196.1040  176.7470  144.3980 O   0  0  0  0  0  0  0  0  0  0  0  0
  1  6  1  0  0  0  0
  1  8  1  0  0  0  0
  2 12  1  0  0  0  0
  3 10  2  0  0  0  0
  3 14  1  0  0  0  0
  4  8  2  0  0  0  0
  4 15  1  0  0  0  0
  5  1  2  0  0  0  0
  7  4  1  0  0  0  0
  9  5  1  0  0  0  0
  9  7  2  0  0  0  0
 10 11  1  0  0  0  0
 11  7  1  0  0  0  0
 11  2  2  0  0  0  0
 12 15  2  0  0  0  0
 13  2  1  0  0  0  0
 13 35  1  0  0  0  0
 14 13  2  0  0  0  0
 16  3  1  0  0  0  0
 17 16  2  0  0  0  0
 18 19  1  0  0  0  0
 18 16  1  0  0  0  0
 19 20  2  0  0  0  0
 21 19  1  0  0  0  0
 22 21  1  0  0  0  0
 22 26  1  0  0  0  0
 24 29  1  6  0  0  0
 25 22  1  0  0  0  0
 26 23  1  6  0  0  0
 26 27  1  0  0  0  0
 26 24  1  0  0  0  0
 27 24  1  0  0  0  0
 28 25  1  0  0  0  0
 28 23  1  0  0  0  0
 29 33  1  0  0  0  0
 29 34  1  0  0  0  0
 30 32  1  0  0  0  0
 31 32  1  0  0  0  0
 33 31  1  0  0  0  0
 34 30  1  0  0  0  0
 36 39  1  0  0  0  0
 37 41  1  0  0  0  0
 37 36  1  0  0  0  0
 38 40  1  0  0  0  0
 39 40  1  0  0  0  0
 40 35  1  0  0  0  0
 41 38  1  0  0  0  0
 42 43  1  0  0  0  0
 43 37  1  0  0  0  0
M  END
>  <MODEL>
4

>  <REMARK>
 VINA RESULT:      -7.3      2.448      5.484
  Name = 
  8 active torsions:
  status: ('A' for Active; 'I' for Inactive)
    1  A    between atoms: O_1  and  C_34
    2  A    between atoms: O_1  and  C_35
    3  A    between atoms: C_2  and  N_6
    4  A    between atoms: C_2  and  C_13
    5  A    between atoms: C_3  and  N_4
    6  A    between atoms: C_3  and  C_12
    7  A    between atoms: C_11  and  C_14
    8  A    between atoms: N_19  and  O_37
                            x       y       z     vdW  Elec       q    Type
                         _______ _______ _______ _____ _____    ______ ____

>  <TORSDO>
F 8

$$$$
=
 OpenBabel11052421113D

 43 49  0  0  1  0  0  0  0  0999 V2000
  190.8160  170.6470  140.1720 C   0  0  0  0  0  0  0  0  0  0  0  0
  189.6420  174.9540  142.5650 C   0  0  0  0  0  0  0  0  0  0  0  0
  191.3000  175.1010  144.8410 C   0  0  0  0  0  0  0  0  0  0  0  0
  189.8250  172.7620  140.8130 C   0  0  0  0  0  0  0  0  0  0  0  0
  191.6490  170.6920  141.2930 C   0  0  0  0  0  3  0  0  0  0  0  0
  190.8930  169.5760  139.2940 O   0  0  0  0  0  1  0  0  0  0  0  0
  190.6660  172.8180  141.9530 C   0  0  0  0  0  0  0  0  0  0  0  0
  189.9060  171.6800  139.9330 C   0  0  0  0  0  3  0  0  0  0  0  0
  191.5760  171.7700  142.1790 C   0  0  0  0  0  3  0  0  0  0  0  0
  191.3900  174.0100  143.9680 C   0  0  0  0  0  3  0  0  0  0  0  0
  190.5740  173.9180  142.8310 C   0  0  0  0  0  0  0  0  0  0  0  0
  188.8210  174.8740  141.4310 C   0  0  0  0  0  3  0  0  0  0  0  0
  189.5450  176.0550  143.4320 C   0  0  0  0  0  0  0  0  0  0  0  0
  190.3750  176.1160  144.5610 C   0  0  0  0  0  3  0  0  0  0  0  0
  188.9130  173.7870  140.5630 C   0  0  0  0  0  3  0  0  0  0  0  0
  192.1810  175.1660  146.0280 C   0  0  0  0  0  0  0  0  0  0  0  0
  191.6170  175.7960  147.4420 S   0  0  0  0  0  0  0  0  0  0  0  0
  193.5020  174.6090  145.9350 N   0  0  0  0  0  2  0  0  0  0  0  0
  194.7450  175.3040  145.7690 C   0  0  0  0  0  0  0  0  0  0  0  0
  194.7820  176.5440  145.5530 O   0  0  0  0  0  0  0  0  0  0  0  0
  196.0170  174.5320  145.7900 C   0  0  0  0  0  2  0  0  0  0  0  0
  195.7450  173.1290  145.5040 N   0  0  0  0  0  0  0  0  0  0  0  0
  197.1220  172.0570  143.7930 C   0  0  0  0  0  2  0  0  0  0  0  0
  195.1010  173.7030  143.0750 C   0  0  2  0  0  3  0  0  0  0  0  0
  196.7600  172.3880  146.1520 N   0  0  0  0  0  2  0  0  0  0  0  0
  195.9310  172.9080  144.0810 C   0  0  2  0  0  0  0  0  0  0  0  0
  194.6830  172.2980  143.4740 C   0  0  0  0  0  2  0  0  0  0  0  0
  197.4180  171.5220  145.1690 C   0  0  0  0  0  2  0  0  0  0  0  0
  195.7410  173.6970  141.6900 C   0  0  0  0  0  3  0  0  0  0  0  0
  193.7400  174.3040  140.2970 C   0  0  0  0  0  2  0  0  0  0  0  0
  195.0910  175.9970  140.9190 C   0  0  0  0  0  2  0  0  0  0  0  0
  194.4160  175.4390  139.8190 O   0  0  0  0  0  0  0  0  0  0  0  0
  196.2560  175.0940  141.3290 C   0  0  0  0  0  2  0  0  0  0  0  0
  194.7460  173.2000  140.6350 C   0  0  0  0  0  2  0  0  0  0  0  0
  188.6210  177.0750  143.1620 O   0  0  0  0  0  0  0  0  0  0  0  0
  185.7490  179.0720  144.5220 C   0  0  0  0  0  2  0  0  0  0  0  0
  185.0130  177.9290  145.0840 N   0  0  0  0  0  0  0  0  0  0  0  0
  186.9310  176.4340  144.7510 C   0  0  0  0  0  2  0  0  0  0  0  0
  186.7570  178.5840  143.4870 C   0  0  0  0  0  2  0  0  0  0  0  0
  187.7160  177.5860  144.1350 C   0  0  0  0  0  3  0  0  0  0  0  0
  185.9170  176.9800  145.7510 C   0  0  0  0  0  2  0  0  0  0  0  0
  184.5300  178.6350  147.2020 C   0  0  0  0  0  1  0  0  0  0  0  0
  184.0050  178.3410  145.9230 O   0  0  0  0  0  0  0  0  0  0  0  0
  1  5  1  0  0  0  0
  2 11  1  0  0  0  0
  2 13  1  0  0  0  0
  3 16  1  0  0  0  0
  4  7  1  0  0  0  0
  5  9  2  0  0  0  0
  6  1  1  0  0  0  0
  7  9  1  0  0  0  0
  7 11  2  0  0  0  0
  8  1  2  0  0  0  0
  8  4  1  0  0  0  0
 10  3  2  0  0  0  0
 11 10  1  0  0  0  0
 12  2  2  0  0  0  0
 13 14  2  0  0  0  0
 14  3  1  0  0  0  0
 15  4  2  0  0  0  0
 15 12  1  0  0  0  0
 16 17  2  0  0  0  0
 18 16  1  0  0  0  0
 19 21  1  0  0  0  0
 19 18  1  0  0  0  0
 20 19  2  0  0  0  0
 22 21  1  0  0  0  0
 22 25  1  0  0  0  0
 23 26  1  0  0  0  0
 23 28  1  0  0  0  0
 24 29  1  6  0  0  0
 24 27  1  0  0  0  0
 24 26  1  0  0  0  0
 26 27  1  6  0  0  0
 26 22  1  0  0  0  0
 28 25  1  0  0  0  0
 30 34  1  0  0  0  0
 31 33  1  0  0  0  0
 32 30  1  0  0  0  0
 32 31  1  0  0  0  0
 33 29  1  0  0  0  0
 34 29  1  0  0  0  0
 35 13  1  0  0  0  0
 35 40  1  0  0  0  0
 36 37  1  0  0  0  0
 37 41  1  0  0  0  0
 37 43  1  0  0  0  0
 38 41  1  0  0  0  0
 39 40  1  0  0  0  0
 39 36  1  0  0  0  0
 40 38  1  0  0  0  0
 43 42  1  0  0  0  0
M  END
>  <MODEL>
5

>  <REMARK>
 VINA RESULT:      -7.2      1.743      5.905
  Name = 
  8 active torsions:
  status: ('A' for Active; 'I' for Inactive)
    1  A    between atoms: O_1  and  C_34
    2  A    between atoms: O_1  and  C_35
    3  A    between atoms: C_2  and  N_6
    4  A    between atoms: C_2  and  C_13
    5  A    between atoms: C_3  and  N_4
    6  A    between atoms: C_3  and  C_12
    7  A    between atoms: C_11  and  C_14
    8  A    between atoms: N_19  and  O_37
                            x       y       z     vdW  Elec       q    Type
                         _______ _______ _______ _____ _____    ______ ____

>  <TORSDO>
F 8

$$$$
=
 OpenBabel11052421113D

 43 49  0  0  1  0  0  0  0  0999 V2000
  196.7710  169.1820  146.0490 C   0  0  0  0  0  0  0  0  0  0  0  0
  192.7040  171.4790  144.0930 C   0  0  0  0  0  0  0  0  0  0  0  0
  192.7540  174.1460  145.0070 C   0  0  0  0  0  0  0  0  0  0  0  0
  194.7260  169.6790  144.8500 C   0  0  0  0  0  0  0  0  0  0  0  0
  196.8210  170.4960  146.5190 C   0  0  0  0  0  3  0  0  0  0  0  0
  197.7610  168.2780  146.4090 O   0  0  0  0  0  1  0  0  0  0  0  0
  194.7690  171.0150  145.3210 C   0  0  0  0  0  0  0  0  0  0  0  0
  195.7260  168.7740  145.2160 C   0  0  0  0  0  3  0  0  0  0  0  0
  195.8270  171.4090  146.1580 C   0  0  0  0  0  3  0  0  0  0  0  0
  193.7610  173.2490  145.3840 C   0  0  0  0  0  3  0  0  0  0  0  0
  193.7530  171.9180  144.9400 C   0  0  0  0  0  0  0  0  0  0  0  0
  192.6850  170.1520  143.6420 C   0  0  0  0  0  3  0  0  0  0  0  0
  191.6890  172.3720  143.7060 C   0  0  0  0  0  0  0  0  0  0  0  0
  191.7260  173.6960  144.1690 C   0  0  0  0  0  3  0  0  0  0  0  0
  193.6890  169.2600  144.0180 C   0  0  0  0  0  3  0  0  0  0  0  0
  192.7980  175.5440  145.4910 C   0  0  0  0  0  0  0  0  0  0  0  0
  194.1820  176.1480  146.1490 S   0  0  0  0  0  0  0  0  0  0  0  0
  191.6360  176.3710  145.3110 N   0  0  0  0  0  2  0  0  0  0  0  0
  191.2920  177.1760  144.1760 C   0  0  0  0  0  0  0  0  0  0  0  0
  192.0920  177.3370  143.2170 O   0  0  0  0  0  0  0  0  0  0  0  0
  189.9850  177.8860  144.1590 C   0  0  0  0  0  2  0  0  0  0  0  0
  189.0250  177.1300  143.3640 N   0  0  0  0  0  0  0  0  0  0  0  0
  187.1330  178.3680  142.4350 C   0  0  0  0  0  2  0  0  0  0  0  0
  187.1460  177.6660  145.0470 C   0  0  2  0  0  3  0  0  0  0  0  0
  189.3090  177.4250  142.0120 N   0  0  0  0  0  2  0  0  0  0  0  0
  187.6980  177.6630  143.6230 C   0  0  2  0  0  0  0  0  0  0  0  0
  186.7660  176.5580  144.0790 C   0  0  0  0  0  2  0  0  0  0  0  0
  188.0880  177.9140  141.3640 C   0  0  0  0  0  2  0  0  0  0  0  0
  185.9970  178.6590  145.2000 C   0  0  0  0  0  3  0  0  0  0  0  0
  184.4530  177.2980  146.6420 C   0  0  0  0  0  2  0  0  0  0  0  0
  185.8360  178.7250  147.7060 C   0  0  0  0  0  2  0  0  0  0  0  0
  184.4990  178.2940  147.6320 O   0  0  0  0  0  0  0  0  0  0  0  0
  186.1960  179.5220  146.4500 C   0  0  0  0  0  2  0  0  0  0  0  0
  184.6520  177.9260  145.2590 C   0  0  0  0  0  2  0  0  0  0  0  0
  190.6550  171.9310  142.8680 O   0  0  0  0  0  0  0  0  0  0  0  0
  189.6830  172.0480  139.2450 C   0  0  0  0  0  2  0  0  0  0  0  0
  188.5510  172.9720  139.4140 N   0  0  0  0  0  0  0  0  0  0  0  0
  189.2130  173.4800  141.7230 C   0  0  0  0  0  2  0  0  0  0  0  0
  190.0430  171.4140  140.5850 C   0  0  0  0  0  2  0  0  0  0  0  0
  190.3810  172.5080  141.5970 C   0  0  0  0  0  3  0  0  0  0  0  0
  188.8750  174.0580  140.3520 C   0  0  0  0  0  2  0  0  0  0  0  0
  189.1090  173.2740  137.2210 C   0  0  0  0  0  1  0  0  0  0  0  0
  188.1140  173.4620  138.2060 O   0  0  0  0  0  0  0  0  0  0  0  0
  1  6  1  0  0  0  0
  1  5  1  0  0  0  0
  2 11  1  0  0  0  0
  3 10  1  0  0  0  0
  3 16  1  0  0  0  0
  4  8  1  0  0  0  0
  4  7  2  0  0  0  0
  7  9  1  0  0  0  0
  8  1  2  0  0  0  0
  9  5  2  0  0  0  0
 11  7  1  0  0  0  0
 11 10  2  0  0  0  0
 12 15  2  0  0  0  0
 12  2  1  0  0  0  0
 13  2  2  0  0  0  0
 13 14  1  0  0  0  0
 14  3  2  0  0  0  0
 15  4  1  0  0  0  0
 16 17  2  0  0  0  0
 18 16  1  0  0  0  0
 19 18  1  0  0  0  0
 20 19  2  0  0  0  0
 21 19  1  0  0  0  0
 22 26  1  0  0  0  0
 22 21  1  0  0  0  0
 24 29  1  6  0  0  0
 25 22  1  0  0  0  0
 26 23  1  6  0  0  0
 26 27  1  0  0  0  0
 26 24  1  0  0  0  0
 27 24  1  0  0  0  0
 28 25  1  0  0  0  0
 28 23  1  0  0  0  0
 29 34  1  0  0  0  0
 29 33  1  0  0  0  0
 30 32  1  0  0  0  0
 32 31  1  0  0  0  0
 33 31  1  0  0  0  0
 34 30  1  0  0  0  0
 35 13  1  0  0  0  0
 36 37  1  0  0  0  0
 36 39  1  0  0  0  0
 37 41  1  0  0  0  0
 39 40  1  0  0  0  0
 40 38  1  0  0  0  0
 40 35  1  0  0  0  0
 41 38  1  0  0  0  0
 42 43  1  0  0  0  0
 43 37  1  0  0  0  0
M  END
>  <MODEL>
6

>  <REMARK>
 VINA RESULT:      -7.1      2.923      8.662
  Name = 
  8 active torsions:
  status: ('A' for Active; 'I' for Inactive)
    1  A    between atoms: O_1  and  C_34
    2  A    between atoms: O_1  and  C_35
    3  A    between atoms: C_2  and  N_6
    4  A    between atoms: C_2  and  C_13
    5  A    between atoms: C_3  and  N_4
    6  A    between atoms: C_3  and  C_12
    7  A    between atoms: C_11  and  C_14
    8  A    between atoms: N_19  and  O_37
                            x       y       z     vdW  Elec       q    Type
                         _______ _______ _______ _____ _____    ______ ____

>  <TORSDO>
F 8

$$$$
=
 OpenBabel11052421113D

 43 49  0  0  1  0  0  0  0  0999 V2000
  185.5020  177.9760  146.6420 C   0  0  0  0  0  0  0  0  0  0  0  0
  190.1310  176.3560  145.3790 C   0  0  0  0  0  0  0  0  0  0  0  0
  189.9010  175.1110  142.8600 C   0  0  0  0  0  0  0  0  0  0  0  0
  187.8710  177.4700  146.6260 C   0  0  0  0  0  0  0  0  0  0  0  0
  185.3570  177.3650  145.3950 C   0  0  0  0  0  3  0  0  0  0  0  0
  184.3990  178.5350  147.2730 O   0  0  0  0  0  1  0  0  0  0  0  0
  187.7340  176.8470  145.3600 C   0  0  0  0  0  0  0  0  0  0  0  0
  186.7560  178.0290  147.2570 C   0  0  0  0  0  3  0  0  0  0  0  0
  186.4660  176.8030  144.7560 C   0  0  0  0  0  3  0  0  0  0  0  0
  188.7760  175.6660  143.4810 C   0  0  0  0  0  3  0  0  0  0  0  0
  188.8700  176.2890  144.7350 C   0  0  0  0  0  0  0  0  0  0  0  0
  190.2380  176.9770  146.6310 C   0  0  0  0  0  3  0  0  0  0  0  0
  191.2680  175.8060  144.7630 C   0  0  0  0  0  0  0  0  0  0  0  0
  191.1400  175.1880  143.5100 C   0  0  0  0  0  3  0  0  0  0  0  0
  189.1170  177.5290  147.2490 C   0  0  0  0  0  3  0  0  0  0  0  0
  189.7640  174.4660  141.5350 C   0  0  0  0  0  0  0  0  0  0  0  0
  188.3140  174.4780  140.7550 S   0  0  0  0  0  0  0  0  0  0  0  0
  190.9340  173.8970  140.9240 N   0  0  0  0  0  2  0  0  0  0  0  0
  191.1540  172.5340  140.5360 C   0  0  0  0  0  0  0  0  0  0  0  0
  190.3310  171.6260  140.8260 O   0  0  0  0  0  0  0  0  0  0  0  0
  192.4120  172.1750  139.8280 C   0  0  0  0  0  2  0  0  0  0  0  0
  192.5180  172.9420  138.5930 N   0  0  0  0  0  0  0  0  0  0  0  0
  194.4970  172.5570  137.2120 C   0  0  0  0  0  2  0  0  0  0  0  0
  194.6700  174.0850  139.4360 C   0  0  2  0  0  3  0  0  0  0  0  0
  192.1630  172.0610  137.5470 N   0  0  0  0  0  2  0  0  0  0  0  0
  193.9150  173.2770  138.3820 C   0  0  2  0  0  0  0  0  0  0  0  0
  194.0800  174.7760  138.2180 C   0  0  0  0  0  2  0  0  0  0  0  0
  193.2450  172.0360  136.5570 C   0  0  0  0  0  2  0  0  0  0  0  0
  196.1810  173.9330  139.2840 C   0  0  0  0  0  3  0  0  0  0  0  0
  196.9480  175.6950  140.9020 C   0  0  0  0  0  2  0  0  0  0  0  0
  196.8100  173.5880  141.6900 C   0  0  0  0  0  2  0  0  0  0  0  0
  197.6440  174.7190  141.6360 O   0  0  0  0  0  0  0  0  0  0  0  0
  196.7270  172.9350  140.3090 C   0  0  0  0  0  2  0  0  0  0  0  0
  196.8790  175.2900  139.4260 C   0  0  0  0  0  2  0  0  0  0  0  0
  192.5120  175.8760  145.4070 O   0  0  0  0  0  0  0  0  0  0  0  0
  196.1240  174.9280  145.0300 C   0  0  0  0  0  2  0  0  0  0  0  0
  196.0290  173.6490  145.7510 N   0  0  0  0  0  0  0  0  0  0  0  0
  193.5760  173.7440  145.7480 C   0  0  0  0  0  2  0  0  0  0  0  0
  194.9310  175.8120  145.3770 C   0  0  0  0  0  2  0  0  0  0  0  0
  193.6330  175.0860  145.0270 C   0  0  0  0  0  3  0  0  0  0  0  0
  194.8060  172.9160  145.3910 C   0  0  0  0  0  2  0  0  0  0  0  0
  196.8470  171.5180  145.7820 C   0  0  0  0  0  1  0  0  0  0  0  0
  197.1530  172.8800  145.5650 O   0  0  0  0  0  0  0  0  0  0  0  0
  1  8  1  0  0  0  0
  1  6  1  0  0  0  0
  2 12  1  0  0  0  0
  3 10  2  0  0  0  0
  3 14  1  0  0  0  0
  4 15  1  0  0  0  0
  4  8  2  0  0  0  0
  5  1  2  0  0  0  0
  7  4  1  0  0  0  0
  9  7  2  0  0  0  0
  9  5  1  0  0  0  0
 10 11  1  0  0  0  0
 11  7  1  0  0  0  0
 11  2  2  0  0  0  0
 12 15  2  0  0  0  0
 13  2  1  0  0  0  0
 13 35  1  0  0  0  0
 14 13  2  0  0  0  0
 16  3  1  0  0  0  0
 17 16  2  0  0  0  0
 18 16  1  0  0  0  0
 19 20  2  0  0  0  0
 19 18  1  0  0  0  0
 21 19  1  0  0  0  0
 22 21  1  0  0  0  0
 24 29  1  6  0  0  0
 25 22  1  0  0  0  0
 26 23  1  6  0  0  0
 26 22  1  0  0  0  0
 26 24  1  0  0  0  0
 27 26  1  0  0  0  0
 27 24  1  0  0  0  0
 28 23  1  0  0  0  0
 28 25  1  0  0  0  0
 29 34  1  0  0  0  0
 29 33  1  0  0  0  0
 30 32  1  0  0  0  0
 32 31  1  0  0  0  0
 33 31  1  0  0  0  0
 34 30  1  0  0  0  0
 36 39  1  0  0  0  0
 36 37  1  0  0  0  0
 40 39  1  0  0  0  0
 40 35  1  0  0  0  0
 40 38  1  0  0  0  0
 41 38  1  0  0  0  0
 41 37  1  0  0  0  0
 43 37  1  0  0  0  0
 43 42  1  0  0  0  0
M  END
>  <MODEL>
7

>  <REMARK>
 VINA RESULT:      -7.0      2.351      5.419
  Name = 
  8 active torsions:
  status: ('A' for Active; 'I' for Inactive)
    1  A    between atoms: O_1  and  C_34
    2  A    between atoms: O_1  and  C_35
    3  A    between atoms: C_2  and  N_6
    4  A    between atoms: C_2  and  C_13
    5  A    between atoms: C_3  and  N_4
    6  A    between atoms: C_3  and  C_12
    7  A    between atoms: C_11  and  C_14
    8  A    between atoms: N_19  and  O_37
                            x       y       z     vdW  Elec       q    Type
                         _______ _______ _______ _____ _____    ______ ____

>  <TORSDO>
F 8

$$$$
=
 OpenBabel11052421113D

 43 49  0  0  1  0  0  0  0  0999 V2000
  186.5780  178.2830  142.3500 C   0  0  0  0  0  0  0  0  0  0  0  0
  188.2380  174.4940  139.4300 C   0  0  0  0  0  0  0  0  0  0  0  0
  189.8370  172.8440  141.0640 C   0  0  0  0  0  0  0  0  0  0  0  0
  187.0180  176.7930  140.4930 C   0  0  0  0  0  0  0  0  0  0  0  0
  187.3660  177.4860  143.1830 C   0  0  0  0  0  3  0  0  0  0  0  0
  185.9640  179.4210  142.8570 O   0  0  0  0  0  1  0  0  0  0  0  0
  187.8190  175.9770  141.3300 C   0  0  0  0  0  0  0  0  0  0  0  0
  186.4040  177.9380  141.0070 C   0  0  0  0  0  3  0  0  0  0  0  0
  187.9840  176.3390  142.6780 C   0  0  0  0  0  3  0  0  0  0  0  0
  189.2300  173.9890  141.5930 C   0  0  0  0  0  3  0  0  0  0  0  0
  188.4310  174.8230  140.7960 C   0  0  0  0  0  0  0  0  0  0  0  0
  187.4410  175.3180  138.6230 C   0  0  0  0  0  3  0  0  0  0  0  0
  188.8400  173.3450  138.8890 C   0  0  0  0  0  0  0  0  0  0  0  0
  189.6340  172.5330  139.7130 C   0  0  0  0  0  3  0  0  0  0  0  0
  186.8360  176.4580  139.1510 C   0  0  0  0  0  3  0  0  0  0  0  0
  190.6690  171.9860  141.9360 C   0  0  0  0  0  0  0  0  0  0  0  0
  190.8170  170.3770  141.6150 S   0  0  0  0  0  0  0  0  0  0  0  0
  191.3920  172.5990  143.0170 N   0  0  0  0  0  2  0  0  0  0  0  0
  192.5990  173.3710  142.9470 C   0  0  0  0  0  0  0  0  0  0  0  0
  193.2440  173.4870  141.8720 O   0  0  0  0  0  0  0  0  0  0  0  0
  193.1320  173.9980  144.1860 C   0  0  0  0  0  2  0  0  0  0  0  0
  193.3630  175.4190  143.9590 N   0  0  0  0  0  0  0  0  0  0  0  0
  193.6810  176.8230  145.9340 C   0  0  0  0  0  2  0  0  0  0  0  0
  191.1990  176.0170  145.2260 C   0  0  2  0  0  3  0  0  0  0  0  0
  194.7490  175.6290  144.1340 N   0  0  0  0  0  2  0  0  0  0  0  0
  192.7050  176.1640  145.0180 C   0  0  2  0  0  0  0  0  0  0  0  0
  191.7530  177.1870  144.4310 C   0  0  0  0  0  2  0  0  0  0  0  0
  194.9490  176.6840  145.1330 C   0  0  0  0  0  2  0  0  0  0  0  0
  190.7790  176.4710  146.6220 C   0  0  0  0  0  3  0  0  0  0  0  0
  188.2820  176.3410  146.3750 C   0  0  0  0  0  2  0  0  0  0  0  0
  189.3060  174.5410  147.2630 C   0  0  0  0  0  2  0  0  0  0  0  0
  188.2240  175.4220  147.4360 O   0  0  0  0  0  0  0  0  0  0  0  0
  190.6210  175.2670  147.5550 C   0  0  0  0  0  2  0  0  0  0  0  0
  189.4780  177.2800  146.5600 C   0  0  0  0  0  2  0  0  0  0  0  0
  188.6450  173.0260  137.5380 O   0  0  0  0  0  0  0  0  0  0  0  0
  191.8490  174.2420  136.0090 C   0  0  0  0  0  2  0  0  0  0  0  0
  192.3990  172.9110  135.7120 N   0  0  0  0  0  0  0  0  0  0  0  0
  190.2490  171.8320  136.1990 C   0  0  0  0  0  2  0  0  0  0  0  0
  190.7430  174.1280  137.0530 C   0  0  0  0  0  2  0  0  0  0  0  0
  189.6500  173.1900  136.5440 C   0  0  0  0  0  3  0  0  0  0  0  0
  191.3690  172.0080  135.1770 C   0  0  0  0  0  2  0  0  0  0  0  0
  194.2550  174.1330  135.1840 C   0  0  0  0  0  1  0  0  0  0  0  0
  193.4860  172.9890  134.8730 O   0  0  0  0  0  0  0  0  0  0  0  0
  1  6  1  0  0  0  0
  1  5  1  0  0  0  0
  2 11  1  0  0  0  0
  3 10  1  0  0  0  0
  3 16  1  0  0  0  0
  4  8  1  0  0  0  0
  4  7  2  0  0  0  0
  7  9  1  0  0  0  0
  8  1  2  0  0  0  0
  9  5  2  0  0  0  0
 11  7  1  0  0  0  0
 11 10  2  0  0  0  0
 12 15  2  0  0  0  0
 12  2  1  0  0  0  0
 13  2  2  0  0  0  0
 13 14  1  0  0  0  0
 14  3  2  0  0  0  0
 15  4  1  0  0  0  0
 16 18  1  0  0  0  0
 17 16  2  0  0  0  0
 19 18  1  0  0  0  0
 19 21  1  0  0  0  0
 20 19  2  0  0  0  0
 22 25  1  0  0  0  0
 22 21  1  0  0  0  0
 22 26  1  0  0  0  0
 24 29  1  1  0  0  0
 25 28  1  0  0  0  0
 26 27  1  6  0  0  0
 26 24  1  0  0  0  0
 26 23  1  0  0  0  0
 27 24  1  0  0  0  0
 28 23  1  0  0  0  0
 29 33  1  0  0  0  0
 30 34  1  0  0  0  0
 30 32  1  0  0  0  0
 31 32  1  0  0  0  0
 31 33  1  0  0  0  0
 34 29  1  0  0  0  0
 35 13  1  0  0  0  0
 36 39  1  0  0  0  0
 37 36  1  0  0  0  0
 38 40  1  0  0  0  0
 40 39  1  0  0  0  0
 40 35  1  0  0  0  0
 41 37  1  0  0  0  0
 41 38  1  0  0  0  0
 43 42  1  0  0  0  0
 43 37  1  0  0  0  0
M  END
>  <MODEL>
8

>  <REMARK>
 VINA RESULT:      -6.9      3.303      5.703
  Name = 
  8 active torsions:
  status: ('A' for Active; 'I' for Inactive)
    1  A    between atoms: O_1  and  C_34
    2  A    between atoms: O_1  and  C_35
    3  A    between atoms: C_2  and  N_6
    4  A    between atoms: C_2  and  C_13
    5  A    between atoms: C_3  and  N_4
    6  A    between atoms: C_3  and  C_12
    7  A    between atoms: C_11  and  C_14
    8  A    between atoms: N_19  and  O_37
                            x       y       z     vdW  Elec       q    Type
                         _______ _______ _______ _____ _____    ______ ____

>  <TORSDO>
F 8

$$$$
=
 OpenBabel11052421113D

 43 49  0  0  1  0  0  0  0  0999 V2000
  184.7650  178.4430  144.0300 C   0  0  0  0  0  0  0  0  0  0  0  0
  189.0050  175.6750  144.0900 C   0  0  0  0  0  0  0  0  0  0  0  0
  189.2590  174.5140  141.5330 C   0  0  0  0  0  0  0  0  0  0  0  0
  186.8210  177.3430  144.6840 C   0  0  0  0  0  0  0  0  0  0  0  0
  184.8630  177.8810  142.7550 C   0  0  0  0  0  3  0  0  0  0  0  0
  183.6960  179.2720  144.3420 O   0  0  0  0  0  1  0  0  0  0  0  0
  186.9300  176.7680  143.3930 C   0  0  0  0  0  0  0  0  0  0  0  0
  185.7420  178.1750  144.9920 C   0  0  0  0  0  3  0  0  0  0  0  0
  185.9390  177.0480  142.4370 C   0  0  0  0  0  3  0  0  0  0  0  0
  188.1710  175.3450  141.8290 C   0  0  0  0  0  3  0  0  0  0  0  0
  188.0270  175.9310  143.0960 C   0  0  0  0  0  0  0  0  0  0  0  0
  188.8730  176.2560  145.3590 C   0  0  0  0  0  3  0  0  0  0  0  0
  190.1030  174.8460  143.8030 C   0  0  0  0  0  0  0  0  0  0  0  0
  190.2160  174.2740  142.5270 C   0  0  0  0  0  3  0  0  0  0  0  0
  187.7890  177.0830  145.6520 C   0  0  0  0  0  3  0  0  0  0  0  0
  189.3800  173.9170  140.1840 C   0  0  0  0  0  0  0  0  0  0  0  0
  188.1940  174.1540  139.0660 S   0  0  0  0  0  0  0  0  0  0  0  0
  190.5770  173.1910  139.8590 N   0  0  0  0  0  2  0  0  0  0  0  0
  190.6890  171.8820  139.2870 C   0  0  0  0  0  0  0  0  0  0  0  0
  189.6790  171.1490  139.1170 O   0  0  0  0  0  0  0  0  0  0  0  0
  192.0360  171.3530  138.9420 C   0  0  0  0  0  2  0  0  0  0  0  0
  192.5440  170.5440  140.0440 N   0  0  0  0  0  0  0  0  0  0  0  0
  192.4550  171.5290  142.2790 C   0  0  0  0  0  2  0  0  0  0  0  0
  194.3780  172.2870  140.5350 C   0  0  2  0  0  3  0  0  0  0  0  0
  191.4110  170.0270  140.7110 N   0  0  0  0  0  2  0  0  0  0  0  0
  193.2030  171.4250  140.9920 C   0  0  2  0  0  0  0  0  0  0  0  0
  194.6260  170.9640  141.2400 C   0  0  0  0  0  2  0  0  0  0  0  0
  191.4910  170.3820  142.1320 C   0  0  0  0  0  2  0  0  0  0  0  0
  194.6220  173.4540  141.4900 C   0  0  0  0  0  3  0  0  0  0  0  0
  196.8050  174.2970  140.5770 C   0  0  0  0  0  2  0  0  0  0  0  0
  194.9360  175.3010  139.8180 C   0  0  0  0  0  2  0  0  0  0  0  0
  196.2200  175.5510  140.3330 O   0  0  0  0  0  0  0  0  0  0  0  0
  194.0300  174.7470  140.9200 C   0  0  0  0  0  2  0  0  0  0  0  0
  196.1200  173.6220  141.7680 C   0  0  0  0  0  2  0  0  0  0  0  0
  191.0660  174.5970  144.7910 O   0  0  0  0  0  0  0  0  0  0  0  0
  194.6470  175.6920  144.5410 C   0  0  0  0  0  2  0  0  0  0  0  0
  195.1950  174.6450  145.4180 N   0  0  0  0  0  0  0  0  0  0  0  0
  193.0710  173.4140  145.4000 C   0  0  0  0  0  2  0  0  0  0  0  0
  193.1460  175.8330  144.7730 C   0  0  0  0  0  2  0  0  0  0  0  0
  192.4580  174.4930  144.5150 C   0  0  0  0  0  3  0  0  0  0  0  0
  194.5750  173.3390  145.1510 C   0  0  0  0  0  2  0  0  0  0  0  0
  197.0530  173.5370  146.1500 C   0  0  0  0  0  1  0  0  0  0  0  0
  196.5650  174.5810  145.3310 O   0  0  0  0  0  0  0  0  0  0  0  0
  1  6  1  0  0  0  0
  1  8  1  0  0  0  0
  2 12  1  0  0  0  0
  3 10  2  0  0  0  0
  3 14  1  0  0  0  0
  4  8  2  0  0  0  0
  4 15  1  0  0  0  0
  5  1  2  0  0  0  0
  7  4  1  0  0  0  0
  9  5  1  0  0  0  0
  9  7  2  0  0  0  0
 10 11  1  0  0  0  0
 11  7  1  0  0  0  0
 11  2  2  0  0  0  0
 12 15  2  0  0  0  0
 13  2  1  0  0  0  0
 13 35  1  0  0  0  0
 14 13  2  0  0  0  0
 16  3  1  0  0  0  0
 17 16  2  0  0  0  0
 18 16  1  0  0  0  0
 19 18  1  0  0  0  0
 20 19  2  0  0  0  0
 21 19  1  0  0  0  0
 21 22  1  0  0  0  0
 22 25  1  0  0  0  0
 22 26  1  0  0  0  0
 24 26  1  0  0  0  0
 24 27  1  0  0  0  0
 24 29  1  1  0  0  0
 25 28  1  0  0  0  0
 26 27  1  1  0  0  0
 26 23  1  0  0  0  0
 28 23  1  0  0  0  0
 29 34  1  0  0  0  0
 30 34  1  0  0  0  0
 31 32  1  0  0  0  0
 31 33  1  0  0  0  0
 32 30  1  0  0  0  0
 33 29  1  0  0  0  0
 36 39  1  0  0  0  0
 36 37  1  0  0  0  0
 40 39  1  0  0  0  0
 40 35  1  0  0  0  0
 40 38  1  0  0  0  0
 41 38  1  0  0  0  0
 41 37  1  0  0  0  0
 43 37  1  0  0  0  0
 43 42  1  0  0  0  0
M  END
>  <MODEL>
9

>  <REMARK>
 VINA RESULT:      -6.7      2.193      5.230
  Name = 
  8 active torsions:
  status: ('A' for Active; 'I' for Inactive)
    1  A    between atoms: O_1  and  C_34
    2  A    between atoms: O_1  and  C_35
    3  A    between atoms: C_2  and  N_6
    4  A    between atoms: C_2  and  C_13
    5  A    between atoms: C_3  and  N_4
    6  A    between atoms: C_3  and  C_12
    7  A    between atoms: C_11  and  C_14
    8  A    between atoms: N_19  and  O_37
                            x       y       z     vdW  Elec       q    Type
                         _______ _______ _______ _____ _____    ______ ____

>  <TORSDO>
F 8

$$$$
