=
 OpenBabel11052420223D

 34 38  0  0  1  0  0  0  0  0999 V2000
  190.5480  174.8440  143.7320 N   0  0  2  0  0  0  0  0  0  0  0  0
  190.7520  174.6030  142.2890 C   0  0  2  0  0  3  0  0  0  0  0  0
  189.9810  175.7880  142.7450 C   0  0  1  0  0  3  0  0  0  0  0  0
  187.9040  176.0200  144.1230 C   0  0  0  0  0  2  0  0  0  0  0  0
  186.4970  176.7700  141.8100 O   0  0  0  0  0  0  0  0  0  0  0  0
  185.7400  179.0220  145.3350 C   0  0  1  0  0  3  0  0  0  0  0  0
  186.6950  177.8130  145.4480 C   0  0  0  0  0  2  0  0  0  0  0  0
  187.2980  177.4120  144.1050 C   0  0  2  0  0  3  0  0  0  0  0  0
  185.7860  178.9230  142.7510 C   0  0  0  0  0  2  0  0  0  0  0  0
  186.2230  177.4820  143.0110 C   0  0  1  0  0  3  0  0  0  0  0  0
  185.8920  179.8050  144.0120 C   0  0  0  0  0  2  0  0  0  0  0  0
  187.8860  176.5860  141.6430 C   0  0  0  0  0  2  0  0  0  0  0  0
  188.4580  175.6660  142.7360 C   0  0  1  0  0  3  0  0  0  0  0  0
  184.3200  178.6060  145.5950 C   0  0  0  0  0  0  0  0  0  0  0  0
  184.0660  177.8810  146.5430 O   0  0  0  0  0  0  0  0  0  0  0  0
  183.3060  179.0410  144.8010 F   0  0  0  0  0  0  0  0  0  0  0  0
  192.0270  174.9170  146.7860 C   0  0  0  0  0  2  0  0  0  0  0  0
  192.1080  176.4140  146.5980 C   0  0  1  0  0  3  0  0  0  0  0  0
  192.1720  177.7960  144.6370 O   0  0  0  0  0  1  0  0  0  0  0  0
  191.5700  176.6720  145.2080 C   0  0  1  0  0  3  0  0  0  0  0  0
  192.2180  174.3180  145.4070 C   0  0  0  0  0  2  0  0  0  0  0  0
  191.7760  175.3650  144.3840 C   0  0  1  0  0  0  0  0  0  0  0  0
  189.9910  177.5310  147.3330 O   0  0  0  0  0  0  0  0  0  0  0  0
  191.2870  177.1200  147.6250 C   0  0  0  0  0  0  0  0  0  0  0  0
  191.7740  177.3460  148.7630 O   0  0  0  0  0  1  0  0  0  0  0  0
  192.8450  175.5300  143.2700 C   0  0  0  0  0  2  0  0  0  0  0  0
  195.1330  176.2620  144.0810 C   0  0  0  0  0  3  0  0  0  0  0  0
  197.0750  175.5540  142.8230 C   0  0  0  0  0  2  0  0  0  0  0  0
  196.3800  176.4060  143.7730 N   0  0  0  0  0  0  0  0  0  0  0  0
  194.9690  174.3270  142.4380 C   0  0  0  0  0  2  0  0  0  0  0  0
  194.2980  175.1180  143.5590 C   0  0  2  0  0  3  0  0  0  0  0  0
  196.4480  174.1660  142.7430 C   0  0  0  0  0  2  0  0  0  0  0  0
  189.9490  173.4410  141.8730 C   0  0  0  0  0  0  0  0  0  0  0  0
  189.3180  172.5270  141.5470 N   0  0  0  0  0  0  0  0  0  0  0  0
  1 22  1  1  0  0  0
  2 33  1  6  0  0  0
  2  3  1  0  0  0  0
  2  1  1  0  0  0  0
  3 13  1  6  0  0  0
  3  1  1  0  0  0  0
  5 10  1  0  0  0  0
  6  7  1  0  0  0  0
  6 14  1  6  0  0  0
  8  4  1  1  0  0  0
  8  7  1  0  0  0  0
  9 11  1  0  0  0  0
 10  9  1  6  0  0  0
 10  8  1  0  0  0  0
 11  6  1  0  0  0  0
 12  5  1  0  0  0  0
 13 12  1  6  0  0  0
 13  4  1  0  0  0  0
 14 15  2  0  0  0  0
 16 14  1  0  0  0  0
 18 17  1  0  0  0  0
 18 24  1  1  0  0  0
 20 19  1  6  0  0  0
 20 18  1  0  0  0  0
 21 17  1  0  0  0  0
 22 26  1  6  0  0  0
 22 20  1  0  0  0  0
 22 21  1  0  0  0  0
 23 24  2  0  0  0  0
 24 25  1  0  0  0  0
 28 29  1  0  0  0  0
 29 27  2  0  0  0  0
 30 32  1  0  0  0  0
 30 31  1  0  0  0  0
 31 26  1  6  0  0  0
 31 27  1  0  0  0  0
 32 28  1  0  0  0  0
 34 33  3  0  0  0  0
M  END
>  <MODEL>
1

>  <REMARK>
 VINA RESULT:      -7.7      0.000      0.000
  Name = 
  7 active torsions:
  status: ('A' for Active; 'I' for Inactive)
    1  A    between atoms: C_1  and  C_20
    2  A    between atoms: C_1  and  C_34
    3  A    between atoms: N_5  and  C_34
    4  A    between atoms: C_7  and  C_11
    5  A    between atoms: C_8  and  C_18
    6  A    between atoms: C_13  and  C_23
    7  A    between atoms: C_31  and  C_33
                            x       y       z     vdW  Elec       q    Type
                         _______ _______ _______ _____ _____    ______ ____

>  <TORSDO>
F 7

$$$$
=
 OpenBabel11052420223D

 34 38  0  0  1  0  0  0  0  0999 V2000
  191.4570  176.2320  145.7200 N   0  0  2  0  0  0  0  0  0  0  0  0
  191.6380  175.5960  147.0410 C   0  0  2  0  0  3  0  0  0  0  0  0
  190.3240  175.5200  146.3510 C   0  0  1  0  0  3  0  0  0  0  0  0
  189.0260  177.5430  145.6520 C   0  0  0  0  0  2  0  0  0  0  0  0
  186.8700  176.6560  147.2180 O   0  0  0  0  0  0  0  0  0  0  0  0
  185.9450  178.1630  143.3530 C   0  0  1  0  0  3  0  0  0  0  0  0
  187.4180  178.2250  143.8130 C   0  0  0  0  0  2  0  0  0  0  0  0
  187.7290  177.2290  144.9270 C   0  0  2  0  0  3  0  0  0  0  0  0
  185.3070  176.6170  145.3260 C   0  0  0  0  0  2  0  0  0  0  0  0
  186.5760  177.2060  145.9410 C   0  0  1  0  0  3  0  0  0  0  0  0
  185.2110  176.8820  143.8090 C   0  0  0  0  0  2  0  0  0  0  0  0
  187.9690  175.7740  147.1440 C   0  0  0  0  0  2  0  0  0  0  0  0
  189.2600  176.5280  146.7810 C   0  0  1  0  0  3  0  0  0  0  0  0
  185.2110  179.4140  143.7430 C   0  0  0  0  0  0  0  0  0  0  0  0
  183.9910  179.4150  143.7770 O   0  0  0  0  0  0  0  0  0  0  0  0
  185.8850  180.5460  144.0800 F   0  0  0  0  0  0  0  0  0  0  0  0
  193.5730  173.6090  145.3290 C   0  0  0  0  0  2  0  0  0  0  0  0
  194.3830  174.5260  144.4420 C   0  0  1  0  0  3  0  0  0  0  0  0
  193.7900  176.4500  143.1360 O   0  0  0  0  0  1  0  0  0  0  0  0
  193.5860  175.8090  144.3610 C   0  0  1  0  0  3  0  0  0  0  0  0
  192.1240  173.9880  145.0990 C   0  0  0  0  0  2  0  0  0  0  0  0
  192.0960  175.4450  144.6360 C   0  0  1  0  0  0  0  0  0  0  0  0
  196.7530  175.3100  144.2570 O   0  0  0  0  0  0  0  0  0  0  0  0
  195.7310  174.7730  145.0310 C   0  0  0  0  0  0  0  0  0  0  0  0
  195.9450  174.4910  146.2390 O   0  0  0  0  0  1  0  0  0  0  0  0
  191.2050  175.6040  143.3740 C   0  0  0  0  0  2  0  0  0  0  0  0
  190.9740  173.9380  141.4760 C   0  0  0  0  0  3  0  0  0  0  0  0
  188.7500  173.4060  140.6850 C   0  0  0  0  0  2  0  0  0  0  0  0
  190.1960  173.4670  140.5580 N   0  0  0  0  0  0  0  0  0  0  0  0
  188.9360  174.4730  142.9020 C   0  0  0  0  0  2  0  0  0  0  0  0
  190.4590  174.3760  142.8260 C   0  0  2  0  0  3  0  0  0  0  0  0
  188.3130  173.3140  142.1430 C   0  0  0  0  0  2  0  0  0  0  0  0
  191.7580  176.6410  148.0710 C   0  0  0  0  0  0  0  0  0  0  0  0
  191.8520  177.4630  148.8810 N   0  0  0  0  0  0  0  0  0  0  0  0
  1 22  1  6  0  0  0
  1  3  1  0  0  0  0
  1  2  1  0  0  0  0
  2 33  1  1  0  0  0
  3 13  1  1  0  0  0
  3  2  1  0  0  0  0
  6 14  1  1  0  0  0
  6 11  1  0  0  0  0
  6  7  1  0  0  0  0
  8  7  1  6  0  0  0
  8  4  1  0  0  0  0
  8 10  1  0  0  0  0
 10  9  1  6  0  0  0
 10  5  1  0  0  0  0
 11  9  1  0  0  0  0
 12  5  1  0  0  0  0
 13  4  1  6  0  0  0
 13 12  1  0  0  0  0
 14 15  2  0  0  0  0
 14 16  1  0  0  0  0
 18 24  1  1  0  0  0
 18 17  1  0  0  0  0
 20 19  1  6  0  0  0
 20 18  1  0  0  0  0
 20 22  1  0  0  0  0
 21 17  1  0  0  0  0
 22 26  1  6  0  0  0
 22 21  1  0  0  0  0
 23 24  2  0  0  0  0
 24 25  1  0  0  0  0
 27 31  1  0  0  0  0
 28 32  1  0  0  0  0
 29 28  1  0  0  0  0
 29 27  2  0  0  0  0
 31 30  1  0  0  0  0
 31 26  1  6  0  0  0
 32 30  1  0  0  0  0
 33 34  3  0  0  0  0
M  END
>  <MODEL>
2

>  <REMARK>
 VINA RESULT:      -7.4      2.349      4.765
  Name = 
  7 active torsions:
  status: ('A' for Active; 'I' for Inactive)
    1  A    between atoms: C_1  and  C_20
    2  A    between atoms: C_1  and  C_34
    3  A    between atoms: N_5  and  C_34
    4  A    between atoms: C_7  and  C_11
    5  A    between atoms: C_8  and  C_18
    6  A    between atoms: C_13  and  C_23
    7  A    between atoms: C_31  and  C_33
                            x       y       z     vdW  Elec       q    Type
                         _______ _______ _______ _____ _____    ______ ____

>  <TORSDO>
F 7

$$$$
=
 OpenBabel11052420223D

 34 38  0  0  1  0  0  0  0  0999 V2000
  192.4940  175.5160  144.4380 N   0  0  2  0  0  0  0  0  0  0  0  0
  193.0410  175.1760  145.7680 C   0  0  2  0  0  3  0  0  0  0  0  0
  191.5740  175.3140  145.5790 C   0  0  1  0  0  3  0  0  0  0  0  0
  190.0890  177.1810  144.8210 C   0  0  0  0  0  2  0  0  0  0  0  0
  189.2650  177.5550  147.4810 O   0  0  0  0  0  0  0  0  0  0  0  0
  186.2370  177.6600  144.4990 C   0  0  1  0  0  3  0  0  0  0  0  0
  187.7010  177.5050  144.0300 C   0  0  0  0  0  2  0  0  0  0  0  0
  188.6160  176.9660  145.1250 C   0  0  2  0  0  3  0  0  0  0  0  0
  186.8910  177.2080  146.9600 C   0  0  0  0  0  2  0  0  0  0  0  0
  188.2730  177.6330  146.4650 C   0  0  1  0  0  3  0  0  0  0  0  0
  185.9240  176.8900  145.8020 C   0  0  0  0  0  2  0  0  0  0  0  0
  190.1240  176.4580  147.2610 C   0  0  0  0  0  2  0  0  0  0  0  0
  190.9500  176.6500  145.9770 C   0  0  1  0  0  3  0  0  0  0  0  0
  185.8550  179.1100  144.5840 C   0  0  0  0  0  0  0  0  0  0  0  0
  185.5830  179.7250  143.5660 O   0  0  0  0  0  0  0  0  0  0  0  0
  185.7880  179.7480  145.7830 F   0  0  0  0  0  0  0  0  0  0  0  0
  190.5230  173.9790  142.1440 C   0  0  0  0  0  2  0  0  0  0  0  0
  190.7740  172.7120  142.9270 C   0  0  1  0  0  3  0  0  0  0  0  0
  192.5710  172.0290  144.3650 O   0  0  0  0  0  1  0  0  0  0  0  0
  191.7450  173.1030  144.0190 C   0  0  1  0  0  3  0  0  0  0  0  0
  191.8060  174.7810  142.2350 C   0  0  0  0  0  2  0  0  0  0  0  0
  192.5260  174.3540  143.5150 C   0  0  1  0  0  0  0  0  0  0  0  0
  189.3900  171.9670  144.8760 O   0  0  0  0  0  1  0  0  0  0  0  0
  189.5030  172.1900  143.5080 C   0  0  0  0  0  0  0  0  0  0  0  0
  188.5260  171.9480  142.7530 O   0  0  0  0  0  0  0  0  0  0  0  0
  194.0200  174.0440  143.2280 C   0  0  0  0  0  2  0  0  0  0  0  0
  195.3190  175.0400  141.2910 C   0  0  0  0  0  3  0  0  0  0  0  0
  197.5780  175.8030  141.7000 C   0  0  0  0  0  2  0  0  0  0  0  0
  196.4870  175.3690  140.8460 N   0  0  0  0  0  0  0  0  0  0  0  0
  196.1250  175.4680  143.6650 C   0  0  0  0  0  2  0  0  0  0  0  0
  194.9410  175.1780  142.7460 C   0  0  2  0  0  3  0  0  0  0  0  0
  197.0700  176.4440  142.9860 C   0  0  0  0  0  2  0  0  0  0  0  0
  193.7260  176.3540  146.3270 C   0  0  0  0  0  0  0  0  0  0  0  0
  194.2640  177.2790  146.7670 N   0  0  0  0  0  0  0  0  0  0  0  0
  1 22  1  6  0  0  0
  1  3  1  0  0  0  0
  1  2  1  0  0  0  0
  2 33  1  1  0  0  0
  3  2  1  0  0  0  0
  3 13  1  1  0  0  0
  4  8  1  0  0  0  0
  6 14  1  1  0  0  0
  6 11  1  0  0  0  0
  7  6  1  0  0  0  0
  8  7  1  6  0  0  0
  8 10  1  0  0  0  0
 10  9  1  1  0  0  0
 10  5  1  0  0  0  0
 11  9  1  0  0  0  0
 12  5  1  0  0  0  0
 13  4  1  6  0  0  0
 13 12  1  0  0  0  0
 14 16  1  0  0  0  0
 15 14  2  0  0  0  0
 17 21  1  0  0  0  0
 17 18  1  0  0  0  0
 18 24  1  1  0  0  0
 18 20  1  0  0  0  0
 20 19  1  6  0  0  0
 21 22  1  0  0  0  0
 22 26  1  6  0  0  0
 22 20  1  0  0  0  0
 24 23  1  0  0  0  0
 25 24  2  0  0  0  0
 27 31  1  0  0  0  0
 28 32  1  0  0  0  0
 29 27  2  0  0  0  0
 29 28  1  0  0  0  0
 31 26  1  1  0  0  0
 31 30  1  0  0  0  0
 32 30  1  0  0  0  0
 33 34  3  0  0  0  0
M  END
>  <MODEL>
3

>  <REMARK>
 VINA RESULT:      -7.3      2.386      4.347
  Name = 
  7 active torsions:
  status: ('A' for Active; 'I' for Inactive)
    1  A    between atoms: C_1  and  C_20
    2  A    between atoms: C_1  and  C_34
    3  A    between atoms: N_5  and  C_34
    4  A    between atoms: C_7  and  C_11
    5  A    between atoms: C_8  and  C_18
    6  A    between atoms: C_13  and  C_23
    7  A    between atoms: C_31  and  C_33
                            x       y       z     vdW  Elec       q    Type
                         _______ _______ _______ _____ _____    ______ ____

>  <TORSDO>
F 7

$$$$
=
 OpenBabel11052420223D

 34 38  0  0  1  0  0  0  0  0999 V2000
  191.3820  176.2790  146.1290 N   0  0  2  0  0  0  0  0  0  0  0  0
  191.4530  175.7460  147.5050 C   0  0  2  0  0  3  0  0  0  0  0  0
  190.1840  175.6590  146.7360 C   0  0  1  0  0  3  0  0  0  0  0  0
  188.9640  177.6200  145.7710 C   0  0  0  0  0  2  0  0  0  0  0  0
  186.7360  176.9640  147.3520 O   0  0  0  0  0  0  0  0  0  0  0  0
  185.9750  178.0480  143.3130 C   0  0  1  0  0  3  0  0  0  0  0  0
  187.4340  178.1270  143.8130 C   0  0  0  0  0  2  0  0  0  0  0  0
  187.6830  177.2570  145.0410 C   0  0  2  0  0  3  0  0  0  0  0  0
  185.2330  176.7490  145.4220 C   0  0  0  0  0  2  0  0  0  0  0  0
  186.4970  177.3750  146.0110 C   0  0  1  0  0  3  0  0  0  0  0  0
  185.1920  176.8440  143.8830 C   0  0  0  0  0  2  0  0  0  0  0  0
  187.8130  176.0550  147.4140 C   0  0  0  0  0  2  0  0  0  0  0  0
  189.1350  176.7330  147.0140 C   0  0  1  0  0  3  0  0  0  0  0  0
  185.2630  179.3520  143.5360 C   0  0  0  0  0  0  0  0  0  0  0  0
  184.0460  179.3970  143.4630 O   0  0  0  0  0  0  0  0  0  0  0  0
  185.9530  180.4850  143.8380 F   0  0  0  0  0  0  0  0  0  0  0  0
  192.0880  176.1280  142.8140 C   0  0  0  0  0  2  0  0  0  0  0  0
  191.4450  174.7610  142.8430 C   0  0  1  0  0  3  0  0  0  0  0  0
  191.1460  173.1530  144.6000 O   0  0  0  0  0  1  0  0  0  0  0  0
  191.0950  174.5160  144.2940 C   0  0  1  0  0  3  0  0  0  0  0  0
  192.7810  176.2860  144.1520 C   0  0  0  0  0  2  0  0  0  0  0  0
  192.0580  175.3870  145.1550 C   0  0  1  0  0  0  0  0  0  0  0  0
  189.2480  175.7170  142.1200 O   0  0  0  0  0  1  0  0  0  0  0  0
  190.2220  174.7340  141.9890 C   0  0  0  0  0  0  0  0  0  0  0  0
  190.0720  173.8130  141.1450 O   0  0  0  0  0  0  0  0  0  0  0  0
  193.0750  174.5290  145.9560 C   0  0  0  0  0  2  0  0  0  0  0  0
  194.5570  172.5990  145.2430 C   0  0  0  0  0  3  0  0  0  0  0  0
  196.9300  172.7520  145.6890 C   0  0  0  0  0  2  0  0  0  0  0  0
  195.7080  172.0290  145.3820 N   0  0  0  0  0  0  0  0  0  0  0  0
  195.6270  174.8460  145.7670 C   0  0  0  0  0  2  0  0  0  0  0  0
  194.3870  174.0990  145.2810 C   0  0  2  0  0  3  0  0  0  0  0  0
  196.8740  174.1940  145.1950 C   0  0  0  0  0  2  0  0  0  0  0  0
  191.5470  176.8650  148.4560 C   0  0  0  0  0  0  0  0  0  0  0  0
  191.6210  177.7470  149.2030 N   0  0  0  0  0  0  0  0  0  0  0  0
  1 22  1  6  0  0  0
  1  3  1  0  0  0  0
  1  2  1  0  0  0  0
  2 33  1  1  0  0  0
  3 13  1  1  0  0  0
  3  2  1  0  0  0  0
  5 12  1  0  0  0  0
  6 14  1  1  0  0  0
  6  7  1  0  0  0  0
  6 11  1  0  0  0  0
  8  7  1  6  0  0  0
  8  4  1  0  0  0  0
  8 10  1  0  0  0  0
 10  9  1  6  0  0  0
 10  5  1  0  0  0  0
 11  9  1  0  0  0  0
 13  4  1  6  0  0  0
 13 12  1  0  0  0  0
 14 16  1  0  0  0  0
 15 14  2  0  0  0  0
 17 18  1  0  0  0  0
 17 21  1  0  0  0  0
 18 24  1  6  0  0  0
 18 20  1  0  0  0  0
 20 19  1  1  0  0  0
 20 22  1  0  0  0  0
 21 22  1  0  0  0  0
 22 26  1  1  0  0  0
 24 23  1  0  0  0  0
 25 24  2  0  0  0  0
 27 31  1  0  0  0  0
 27 29  2  0  0  0  0
 29 28  1  0  0  0  0
 31 30  1  0  0  0  0
 31 26  1  1  0  0  0
 32 28  1  0  0  0  0
 32 30  1  0  0  0  0
 33 34  3  0  0  0  0
M  END
>  <MODEL>
4

>  <REMARK>
 VINA RESULT:      -7.3      2.597      4.394
  Name = 
  7 active torsions:
  status: ('A' for Active; 'I' for Inactive)
    1  A    between atoms: C_1  and  C_20
    2  A    between atoms: C_1  and  C_34
    3  A    between atoms: N_5  and  C_34
    4  A    between atoms: C_7  and  C_11
    5  A    between atoms: C_8  and  C_18
    6  A    between atoms: C_13  and  C_23
    7  A    between atoms: C_31  and  C_33
                            x       y       z     vdW  Elec       q    Type
                         _______ _______ _______ _____ _____    ______ ____

>  <TORSDO>
F 7

$$$$
=
 OpenBabel11052420223D

 34 38  0  0  1  0  0  0  0  0999 V2000
  189.6510  175.6460  143.6040 N   0  0  2  0  0  0  0  0  0  0  0  0
  188.8030  174.5110  143.1870 C   0  0  2  0  0  3  0  0  0  0  0  0
  190.0230  174.2710  144.0000 C   0  0  1  0  0  3  0  0  0  0  0  0
  192.2270  175.0430  143.1010 C   0  0  0  0  0  2  0  0  0  0  0  0
  193.2700  172.4740  143.5520 O   0  0  0  0  0  0  0  0  0  0  0  0
  195.7220  175.7640  144.6600 C   0  0  1  0  0  3  0  0  0  0  0  0
  194.3760  176.0740  143.9700 C   0  0  0  0  0  2  0  0  0  0  0  0
  193.3760  174.9270  144.0880 C   0  0  2  0  0  3  0  0  0  0  0  0
  195.0660  173.2870  145.0140 C   0  0  0  0  0  2  0  0  0  0  0  0
  194.0950  173.5870  143.8730 C   0  0  1  0  0  3  0  0  0  0  0  0
  195.6520  174.5700  145.6390 C   0  0  0  0  0  2  0  0  0  0  0  0
  191.9500  172.6800  144.0030 C   0  0  0  0  0  2  0  0  0  0  0  0
  191.2810  173.8430  143.2480 C   0  0  1  0  0  3  0  0  0  0  0  0
  196.8190  175.6090  143.6450 C   0  0  0  0  0  0  0  0  0  0  0  0
  196.7150  176.1480  142.5550 O   0  0  0  0  0  0  0  0  0  0  0  0
  197.9400  174.8920  143.9270 F   0  0  0  0  0  0  0  0  0  0  0  0
  190.5040  177.9630  145.9320 C   0  0  0  0  0  2  0  0  0  0  0  0
  189.9150  177.0110  146.9470 C   0  0  1  0  0  3  0  0  0  0  0  0
  188.2420  175.2980  146.7770 O   0  0  0  0  0  1  0  0  0  0  0  0
  189.3490  175.8650  146.1380 C   0  0  1  0  0  3  0  0  0  0  0  0
  189.6540  177.8140  144.6860 C   0  0  0  0  0  2  0  0  0  0  0  0
  189.0360  176.4150  144.7140 C   0  0  1  0  0  0  0  0  0  0  0  0
  191.3470  175.1920  147.8990 O   0  0  0  0  0  0  0  0  0  0  0  0
  190.9660  176.5290  147.8900 C   0  0  0  0  0  0  0  0  0  0  0  0
  191.5080  177.3400  148.6850 O   0  0  0  0  0  1  0  0  0  0  0  0
  187.5110  176.4830  144.4280 C   0  0  0  0  0  2  0  0  0  0  0  0
  185.6400  177.4110  145.8670 C   0  0  0  0  0  3  0  0  0  0  0  0
  184.1060  178.9940  144.8690 C   0  0  0  0  0  2  0  0  0  0  0  0
  184.5020  178.0220  145.8740 N   0  0  0  0  0  0  0  0  0  0  0  0
  186.2540  178.6190  143.7140 C   0  0  0  0  0  2  0  0  0  0  0  0
  186.7220  177.7300  144.8640 C   0  0  2  0  0  3  0  0  0  0  0  0
  185.3130  179.6860  144.2450 C   0  0  0  0  0  2  0  0  0  0  0  0
  188.9520  174.3010  141.7370 C   0  0  0  0  0  0  0  0  0  0  0  0
  189.0680  174.1360  140.5970 N   0  0  0  0  0  0  0  0  0  0  0  0
  1  3  1  0  0  0  0
  1 22  1  1  0  0  0
  2 33  1  6  0  0  0
  2  1  1  0  0  0  0
  2  3  1  0  0  0  0
  3 13  1  6  0  0  0
  5 10  1  0  0  0  0
  5 12  1  0  0  0  0
  6 14  1  6  0  0  0
  6 11  1  0  0  0  0
  7  8  1  0  0  0  0
  7  6  1  0  0  0  0
  8  4  1  6  0  0  0
  9 11  1  0  0  0  0
 10  8  1  0  0  0  0
 10  9  1  1  0  0  0
 13  4  1  1  0  0  0
 13 12  1  0  0  0  0
 14 16  1  0  0  0  0
 15 14  2  0  0  0  0
 17 18  1  0  0  0  0
 18 24  1  1  0  0  0
 20 19  1  1  0  0  0
 20 18  1  0  0  0  0
 21 22  1  0  0  0  0
 21 17  1  0  0  0  0
 22 26  1  6  0  0  0
 22 20  1  0  0  0  0
 24 23  2  0  0  0  0
 24 25  1  0  0  0  0
 27 29  2  0  0  0  0
 28 29  1  0  0  0  0
 30 32  1  0  0  0  0
 30 31  1  0  0  0  0
 31 26  1  6  0  0  0
 31 27  1  0  0  0  0
 32 28  1  0  0  0  0
 34 33  3  0  0  0  0
M  END
>  <MODEL>
5

>  <REMARK>
 VINA RESULT:      -7.3      3.500      7.932
  Name = 
  7 active torsions:
  status: ('A' for Active; 'I' for Inactive)
    1  A    between atoms: C_1  and  C_20
    2  A    between atoms: C_1  and  C_34
    3  A    between atoms: N_5  and  C_34
    4  A    between atoms: C_7  and  C_11
    5  A    between atoms: C_8  and  C_18
    6  A    between atoms: C_13  and  C_23
    7  A    between atoms: C_31  and  C_33
                            x       y       z     vdW  Elec       q    Type
                         _______ _______ _______ _____ _____    ______ ____

>  <TORSDO>
F 7

$$$$
=
 OpenBabel11052420223D

 34 38  0  0  1  0  0  0  0  0999 V2000
  192.7010  175.6710  144.4570 N   0  0  2  0  0  0  0  0  0  0  0  0
  193.2460  175.3300  145.7870 C   0  0  2  0  0  3  0  0  0  0  0  0
  191.7760  175.4150  145.5820 C   0  0  1  0  0  3  0  0  0  0  0  0
  190.2450  177.2460  144.8300 C   0  0  0  0  0  2  0  0  0  0  0  0
  189.3440  177.5290  147.4770 O   0  0  0  0  0  0  0  0  0  0  0  0
  186.3880  177.5990  144.4230 C   0  0  1  0  0  3  0  0  0  0  0  0
  187.8670  177.5050  143.9870 C   0  0  0  0  0  2  0  0  0  0  0  0
  188.7740  176.9730  145.0920 C   0  0  2  0  0  3  0  0  0  0  0  0
  186.9970  177.1120  146.8890 C   0  0  0  0  0  2  0  0  0  0  0  0
  188.3750  177.5970  146.4380 C   0  0  1  0  0  3  0  0  0  0  0  0
  186.0700  176.7880  145.7000 C   0  0  0  0  0  2  0  0  0  0  0  0
  190.2460  176.4680  147.2530 C   0  0  0  0  0  2  0  0  0  0  0  0
  191.0960  176.7190  145.9950 C   0  0  1  0  0  3  0  0  0  0  0  0
  185.9530  179.0330  144.5310 C   0  0  0  0  0  0  0  0  0  0  0  0
  185.8310  179.7060  143.5210 O   0  0  0  0  0  0  0  0  0  0  0  0
  185.6730  179.5910  145.7390 F   0  0  0  0  0  0  0  0  0  0  0  0
  193.2170  172.3180  144.4990 C   0  0  0  0  0  2  0  0  0  0  0  0
  194.3060  172.5750  143.4830 C   0  0  1  0  0  3  0  0  0  0  0  0
  194.6420  174.3340  141.8850 O   0  0  0  0  0  1  0  0  0  0  0  0
  194.2400  174.0590  143.1950 C   0  0  1  0  0  3  0  0  0  0  0  0
  192.1300  173.3310  144.2030 C   0  0  0  0  0  2  0  0  0  0  0  0
  192.7880  174.5270  143.5150 C   0  0  1  0  0  0  0  0  0  0  0  0
  195.9860  172.5330  145.3380 O   0  0  0  0  0  1  0  0  0  0  0  0
  195.6410  172.1990  144.0340 C   0  0  0  0  0  0  0  0  0  0  0  0
  196.4600  171.5780  143.3090 O   0  0  0  0  0  0  0  0  0  0  0  0
  192.0010  174.9290  142.2380 C   0  0  0  0  0  2  0  0  0  0  0  0
  190.8810  173.4730  140.4910 C   0  0  0  0  0  3  0  0  0  0  0  0
  188.5680  173.9230  139.9380 C   0  0  0  0  0  2  0  0  0  0  0  0
  189.8810  173.3560  139.6810 N   0  0  0  0  0  0  0  0  0  0  0  0
  189.4300  174.8660  142.0490 C   0  0  0  0  0  2  0  0  0  0  0  0
  190.7500  174.1250  141.8460 C   0  0  2  0  0  3  0  0  0  0  0  0
  188.2960  174.0660  141.4310 C   0  0  0  0  0  2  0  0  0  0  0  0
  193.8770  176.5240  146.3730 C   0  0  0  0  0  0  0  0  0  0  0  0
  194.3750  177.4620  146.8350 N   0  0  0  0  0  0  0  0  0  0  0  0
  1 22  1  6  0  0  0
  1  3  1  0  0  0  0
  1  2  1  0  0  0  0
  2 33  1  1  0  0  0
  3  2  1  0  0  0  0
  3 13  1  1  0  0  0
  4  8  1  0  0  0  0
  6 14  1  1  0  0  0
  6 11  1  0  0  0  0
  7  6  1  0  0  0  0
  8  7  1  6  0  0  0
  8 10  1  0  0  0  0
 10  9  1  1  0  0  0
 10  5  1  0  0  0  0
 11  9  1  0  0  0  0
 12  5  1  0  0  0  0
 13  4  1  6  0  0  0
 13 12  1  0  0  0  0
 14 16  1  0  0  0  0
 15 14  2  0  0  0  0
 18 24  1  1  0  0  0
 18 17  1  0  0  0  0
 20 19  1  6  0  0  0
 20 18  1  0  0  0  0
 20 22  1  0  0  0  0
 21 17  1  0  0  0  0
 22 26  1  6  0  0  0
 22 21  1  0  0  0  0
 24 23  1  0  0  0  0
 25 24  2  0  0  0  0
 27 31  1  0  0  0  0
 28 32  1  0  0  0  0
 29 28  1  0  0  0  0
 29 27  2  0  0  0  0
 31 30  1  0  0  0  0
 31 26  1  6  0  0  0
 32 30  1  0  0  0  0
 33 34  3  0  0  0  0
M  END
>  <MODEL>
6

>  <REMARK>
 VINA RESULT:      -7.1      2.615      5.302
  Name = 
  7 active torsions:
  status: ('A' for Active; 'I' for Inactive)
    1  A    between atoms: C_1  and  C_20
    2  A    between atoms: C_1  and  C_34
    3  A    between atoms: N_5  and  C_34
    4  A    between atoms: C_7  and  C_11
    5  A    between atoms: C_8  and  C_18
    6  A    between atoms: C_13  and  C_23
    7  A    between atoms: C_31  and  C_33
                            x       y       z     vdW  Elec       q    Type
                         _______ _______ _______ _____ _____    ______ ____

>  <TORSDO>
F 7

$$$$
=
 OpenBabel11052420223D

 34 38  0  0  1  0  0  0  0  0999 V2000
  192.8410  175.1160  144.8470 N   0  0  2  0  0  0  0  0  0  0  0  0
  193.5750  175.2250  146.1240 C   0  0  2  0  0  3  0  0  0  0  0  0
  192.0900  175.2400  146.1150 C   0  0  1  0  0  3  0  0  0  0  0  0
  190.6040  176.8420  144.8930 C   0  0  0  0  0  2  0  0  0  0  0  0
  189.6260  177.7600  147.3620 O   0  0  0  0  0  0  0  0  0  0  0  0
  186.7670  177.1030  144.2850 C   0  0  1  0  0  3  0  0  0  0  0  0
  188.2570  176.9010  143.9340 C   0  0  0  0  0  2  0  0  0  0  0  0
  189.1230  176.6470  145.1640 C   0  0  2  0  0  3  0  0  0  0  0  0
  187.2930  177.2240  146.8150 C   0  0  0  0  0  2  0  0  0  0  0  0
  188.6900  177.5790  146.3060 C   0  0  1  0  0  3  0  0  0  0  0  0
  186.3990  176.6260  145.7080 C   0  0  0  0  0  2  0  0  0  0  0  0
  190.5210  176.6720  147.4310 C   0  0  0  0  0  2  0  0  0  0  0  0
  191.4130  176.6080  146.1780 C   0  0  1  0  0  3  0  0  0  0  0  0
  186.3460  178.5230  144.0300 C   0  0  0  0  0  0  0  0  0  0  0  0
  186.3120  178.9470  142.8870 O   0  0  0  0  0  0  0  0  0  0  0  0
  185.9830  179.3410  145.0540 F   0  0  0  0  0  0  0  0  0  0  0  0
  192.8290  173.4720  141.8780 C   0  0  0  0  0  2  0  0  0  0  0  0
  191.6410  172.7120  142.4200 C   0  0  1  0  0  3  0  0  0  0  0  0
  190.9300  172.2030  144.6550 O   0  0  0  0  0  1  0  0  0  0  0  0
  191.4660  173.2040  143.8390 C   0  0  1  0  0  3  0  0  0  0  0  0
  193.7300  173.7310  143.0690 C   0  0  0  0  0  2  0  0  0  0  0  0
  192.8520  173.7270  144.3210 C   0  0  1  0  0  0  0  0  0  0  0  0
  189.5990  174.0680  141.9120 O   0  0  0  0  0  1  0  0  0  0  0  0
  190.4220  172.9900  141.6060 C   0  0  0  0  0  0  0  0  0  0  0  0
  190.1360  172.2390  140.6380 O   0  0  0  0  0  0  0  0  0  0  0  0
  193.4730  172.8290  145.4250 C   0  0  0  0  0  2  0  0  0  0  0  0
  194.4580  170.4980  145.2650 C   0  0  0  0  0  3  0  0  0  0  0  0
  196.6720  170.1260  146.1680 C   0  0  0  0  0  2  0  0  0  0  0  0
  195.3660  169.6900  145.7040 N   0  0  0  0  0  0  0  0  0  0  0  0
  196.0070  172.4610  145.7300 C   0  0  0  0  0  2  0  0  0  0  0  0
  194.7080  171.9770  145.0900 C   0  0  2  0  0  3  0  0  0  0  0  0
  197.1010  171.4310  145.5070 C   0  0  0  0  0  2  0  0  0  0  0  0
  194.2260  176.5430  146.1990 C   0  0  0  0  0  0  0  0  0  0  0  0
  194.7380  177.5800  146.2590 N   0  0  0  0  0  0  0  0  0  0  0  0
  1 22  1  1  0  0  0
  1  3  1  0  0  0  0
  1  2  1  0  0  0  0
  2 33  1  6  0  0  0
  3  2  1  0  0  0  0
  3 13  1  6  0  0  0
  4  8  1  0  0  0  0
  5 12  1  0  0  0  0
  6 14  1  1  0  0  0
  6 11  1  0  0  0  0
  7  6  1  0  0  0  0
  8  7  1  6  0  0  0
  8 10  1  0  0  0  0
 10  9  1  1  0  0  0
 10  5  1  0  0  0  0
 11  9  1  0  0  0  0
 13  4  1  6  0  0  0
 13 12  1  0  0  0  0
 14 16  1  0  0  0  0
 15 14  2  0  0  0  0
 17 18  1  0  0  0  0
 17 21  1  0  0  0  0
 18 24  1  6  0  0  0
 18 20  1  0  0  0  0
 20 22  1  0  0  0  0
 20 19  1  1  0  0  0
 21 22  1  0  0  0  0
 22 26  1  1  0  0  0
 24 23  1  0  0  0  0
 25 24  2  0  0  0  0
 27 29  2  0  0  0  0
 29 28  1  0  0  0  0
 31 27  1  0  0  0  0
 31 26  1  1  0  0  0
 31 30  1  0  0  0  0
 32 30  1  0  0  0  0
 32 28  1  0  0  0  0
 33 34  3  0  0  0  0
M  END
>  <MODEL>
7

>  <REMARK>
 VINA RESULT:      -7.1      2.971      5.064
  Name = 
  7 active torsions:
  status: ('A' for Active; 'I' for Inactive)
    1  A    between atoms: C_1  and  C_20
    2  A    between atoms: C_1  and  C_34
    3  A    between atoms: N_5  and  C_34
    4  A    between atoms: C_7  and  C_11
    5  A    between atoms: C_8  and  C_18
    6  A    between atoms: C_13  and  C_23
    7  A    between atoms: C_31  and  C_33
                            x       y       z     vdW  Elec       q    Type
                         _______ _______ _______ _____ _____    ______ ____

>  <TORSDO>
F 7

$$$$
=
 OpenBabel11052420223D

 34 38  0  0  1  0  0  0  0  0999 V2000
  189.3660  175.5500  143.2750 N   0  0  2  0  0  0  0  0  0  0  0  0
  188.2840  174.7030  142.7330 C   0  0  2  0  0  3  0  0  0  0  0  0
  189.3610  174.0990  143.5600 C   0  0  1  0  0  3  0  0  0  0  0  0
  191.8100  174.2060  143.0540 C   0  0  0  0  0  2  0  0  0  0  0  0
  191.8600  171.4020  142.8820 O   0  0  0  0  0  0  0  0  0  0  0  0
  195.0520  173.2550  144.9910 C   0  0  1  0  0  3  0  0  0  0  0  0
  194.0120  174.1740  144.3140 C   0  0  0  0  0  2  0  0  0  0  0  0
  192.6840  173.4680  144.0540 C   0  0  2  0  0  3  0  0  0  0  0  0
  193.5670  171.1680  144.6310 C   0  0  0  0  0  2  0  0  0  0  0  0
  192.9440  172.0430  143.5440 C   0  0  1  0  0  3  0  0  0  0  0  0
  194.4370  171.9810  145.6120 C   0  0  0  0  0  2  0  0  0  0  0  0
  190.6280  171.9640  143.2780 C   0  0  0  0  0  2  0  0  0  0  0  0
  190.5100  173.4260  142.8110 C   0  0  1  0  0  3  0  0  0  0  0  0
  196.1830  172.9460  144.0510 C   0  0  0  0  0  0  0  0  0  0  0  0
  197.2930  172.7070  144.4970 O   0  0  0  0  0  0  0  0  0  0  0  0
  195.9860  172.9080  142.7060 F   0  0  0  0  0  0  0  0  0  0  0  0
  190.5340  177.9220  145.4020 C   0  0  0  0  0  2  0  0  0  0  0  0
  190.0670  177.0100  146.5130 C   0  0  1  0  0  3  0  0  0  0  0  0
  188.3650  175.3200  146.6090 O   0  0  0  0  0  1  0  0  0  0  0  0
  189.3900  175.8500  145.8180 C   0  0  1  0  0  3  0  0  0  0  0  0
  189.5320  177.7490  144.2780 C   0  0  0  0  0  2  0  0  0  0  0  0
  188.9050  176.3630  144.4290 C   0  0  1  0  0  0  0  0  0  0  0  0
  191.5490  177.1740  148.5230 O   0  0  0  0  0  1  0  0  0  0  0  0
  191.2230  176.5390  147.3300 C   0  0  0  0  0  0  0  0  0  0  0  0
  191.9080  175.5620  146.9340 O   0  0  0  0  0  0  0  0  0  0  0  0
  187.3570  176.4470  144.3350 C   0  0  0  0  0  2  0  0  0  0  0  0
  185.6990  177.4710  145.9570 C   0  0  0  0  0  3  0  0  0  0  0  0
  184.0690  179.0360  145.0920 C   0  0  0  0  0  2  0  0  0  0  0  0
  184.5790  178.1030  146.0820 N   0  0  0  0  0  0  0  0  0  0  0  0
  186.0450  178.5710  143.6900 C   0  0  0  0  0  2  0  0  0  0  0  0
  186.6470  177.7250  144.8100 C   0  0  2  0  0  3  0  0  0  0  0  0
  185.1940  179.6780  144.2870 C   0  0  0  0  0  2  0  0  0  0  0  0
  188.4510  174.5750  141.2760 C   0  0  0  0  0  0  0  0  0  0  0  0
  188.5810  174.4730  140.1300 N   0  0  0  0  0  0  0  0  0  0  0  0
  1  3  1  0  0  0  0
  1 22  1  1  0  0  0
  2 33  1  6  0  0  0
  2  1  1  0  0  0  0
  2  3  1  0  0  0  0
  3 13  1  6  0  0  0
  5 12  1  0  0  0  0
  5 10  1  0  0  0  0
  6 14  1  6  0  0  0
  6 11  1  0  0  0  0
  7  6  1  0  0  0  0
  8  4  1  6  0  0  0
  8  7  1  0  0  0  0
  9 11  1  0  0  0  0
 10  8  1  0  0  0  0
 10  9  1  1  0  0  0
 13  4  1  1  0  0  0
 13 12  1  0  0  0  0
 14 15  2  0  0  0  0
 16 14  1  0  0  0  0
 17 18  1  0  0  0  0
 18 24  1  6  0  0  0
 20 18  1  0  0  0  0
 20 19  1  1  0  0  0
 21 22  1  0  0  0  0
 21 17  1  0  0  0  0
 22 26  1  6  0  0  0
 22 20  1  0  0  0  0
 24 23  1  0  0  0  0
 25 24  2  0  0  0  0
 27 29  2  0  0  0  0
 28 29  1  0  0  0  0
 30 32  1  0  0  0  0
 30 31  1  0  0  0  0
 31 26  1  6  0  0  0
 31 27  1  0  0  0  0
 32 28  1  0  0  0  0
 34 33  3  0  0  0  0
M  END
>  <MODEL>
8

>  <REMARK>
 VINA RESULT:      -7.0      3.666      7.986
  Name = 
  7 active torsions:
  status: ('A' for Active; 'I' for Inactive)
    1  A    between atoms: C_1  and  C_20
    2  A    between atoms: C_1  and  C_34
    3  A    between atoms: N_5  and  C_34
    4  A    between atoms: C_7  and  C_11
    5  A    between atoms: C_8  and  C_18
    6  A    between atoms: C_13  and  C_23
    7  A    between atoms: C_31  and  C_33
                            x       y       z     vdW  Elec       q    Type
                         _______ _______ _______ _____ _____    ______ ____

>  <TORSDO>
F 7

$$$$
=
 OpenBabel11052420223D

 34 38  0  0  1  0  0  0  0  0999 V2000
  190.2640  174.4160  142.8950 N   0  0  2  0  0  0  0  0  0  0  0  0
  190.3200  174.4870  141.4210 C   0  0  2  0  0  3  0  0  0  0  0  0
  189.6730  175.5780  142.1960 C   0  0  1  0  0  3  0  0  0  0  0  0
  187.7440  175.7480  143.7810 C   0  0  0  0  0  2  0  0  0  0  0  0
  186.1830  176.8250  141.7070 O   0  0  0  0  0  0  0  0  0  0  0  0
  185.8720  178.6910  145.5140 C   0  0  1  0  0  3  0  0  0  0  0  0
  186.7620  177.4340  145.4030 C   0  0  0  0  0  2  0  0  0  0  0  0
  187.2200  177.1610  143.9730 C   0  0  2  0  0  3  0  0  0  0  0  0
  185.6830  178.8870  142.9420 C   0  0  0  0  0  2  0  0  0  0  0  0
  186.0570  177.4060  142.9990 C   0  0  1  0  0  3  0  0  0  0  0  0
  185.9510  179.6130  144.2760 C   0  0  0  0  0  2  0  0  0  0  0  0
  187.5390  176.5950  141.3900 C   0  0  0  0  0  2  0  0  0  0  0  0
  188.1510  175.5300  142.3160 C   0  0  1  0  0  3  0  0  0  0  0  0
  184.4590  178.3160  145.8600 C   0  0  0  0  0  0  0  0  0  0  0  0
  184.2470  177.3460  146.5690 O   0  0  0  0  0  0  0  0  0  0  0  0
  183.4080  179.0520  145.4100 F   0  0  0  0  0  0  0  0  0  0  0  0
  193.1640  176.0100  142.1460 C   0  0  0  0  0  2  0  0  0  0  0  0
  193.8540  174.7280  142.5480 C   0  0  1  0  0  3  0  0  0  0  0  0
  193.2190  172.9440  144.0230 O   0  0  0  0  0  1  0  0  0  0  0  0
  192.7500  173.8170  143.0360 C   0  0  1  0  0  3  0  0  0  0  0  0
  191.9620  176.1360  143.0610 C   0  0  0  0  0  2  0  0  0  0  0  0
  191.5770  174.7260  143.5130 C   0  0  1  0  0  0  0  0  0  0  0  0
  195.9270  174.3360  141.2010 O   0  0  0  0  0  1  0  0  0  0  0  0
  194.5660  174.1240  141.3840 C   0  0  0  0  0  0  0  0  0  0  0  0
  193.9260  173.4210  140.5600 O   0  0  0  0  0  0  0  0  0  0  0  0
  191.3780  174.6780  145.0520 C   0  0  0  0  0  2  0  0  0  0  0  0
  192.5690  176.2300  146.6650 C   0  0  0  0  0  3  0  0  0  0  0  0
  191.3020  177.1630  148.5030 C   0  0  0  0  0  2  0  0  0  0  0  0
  192.5330  176.7940  147.8270 N   0  0  0  0  0  0  0  0  0  0  0  0
  190.0260  176.2240  146.6110 C   0  0  0  0  0  2  0  0  0  0  0  0
  191.3250  175.9960  145.8410 C   0  0  2  0  0  3  0  0  0  0  0  0
  190.1730  177.4360  147.5140 C   0  0  0  0  0  2  0  0  0  0  0  0
  189.4070  173.4820  140.8510 C   0  0  0  0  0  0  0  0  0  0  0  0
  188.6910  172.6910  140.4030 N   0  0  0  0  0  0  0  0  0  0  0  0
  1 22  1  1  0  0  0
  2 33  1  6  0  0  0
  2  3  1  0  0  0  0
  2  1  1  0  0  0  0
  3 13  1  6  0  0  0
  3  1  1  0  0  0  0
  5 10  1  0  0  0  0
  6 14  1  6  0  0  0
  7  6  1  0  0  0  0
  8  4  1  1  0  0  0
  8  7  1  0  0  0  0
  9 11  1  0  0  0  0
 10  9  1  6  0  0  0
 10  8  1  0  0  0  0
 11  6  1  0  0  0  0
 12  5  1  0  0  0  0
 13 12  1  6  0  0  0
 13  4  1  0  0  0  0
 14 15  2  0  0  0  0
 16 14  1  0  0  0  0
 17 18  1  0  0  0  0
 17 21  1  0  0  0  0
 18 24  1  6  0  0  0
 18 20  1  0  0  0  0
 20 22  1  0  0  0  0
 20 19  1  1  0  0  0
 21 22  1  0  0  0  0
 22 26  1  1  0  0  0
 23 24  1  0  0  0  0
 25 24  2  0  0  0  0
 27 29  2  0  0  0  0
 29 28  1  0  0  0  0
 30 32  1  0  0  0  0
 31 26  1  1  0  0  0
 31 30  1  0  0  0  0
 31 27  1  0  0  0  0
 32 28  1  0  0  0  0
 34 33  3  0  0  0  0
M  END
>  <MODEL>
9

>  <REMARK>
 VINA RESULT:      -7.0      2.260      4.146
  Name = 
  7 active torsions:
  status: ('A' for Active; 'I' for Inactive)
    1  A    between atoms: C_1  and  C_20
    2  A    between atoms: C_1  and  C_34
    3  A    between atoms: N_5  and  C_34
    4  A    between atoms: C_7  and  C_11
    5  A    between atoms: C_8  and  C_18
    6  A    between atoms: C_13  and  C_23
    7  A    between atoms: C_31  and  C_33
                            x       y       z     vdW  Elec       q    Type
                         _______ _______ _______ _____ _____    ______ ____

>  <TORSDO>
F 7

$$$$
