=
 OpenBabel11052418073D

 28 34  0  0  1  0  0  0  0  0999 V2000
  191.3960  175.5310  143.8530 C   0  0  2  0  0  3  0  0  0  0  0  0
  191.4930  176.5710  144.9900 C   0  0  1  0  0  3  0  0  0  0  0  0
  189.1190  176.9900  144.9450 C   0  0  2  0  0  3  0  0  0  0  0  0
  185.3950  177.1660  142.7140 C   0  0  0  0  0  2  0  0  0  0  0  0
  191.1430  172.6500  142.1430 C   0  0  0  0  0  1  0  0  0  0  0  0
  192.5280  175.7770  147.2630 C   0  0  1  0  0  3  0  0  0  0  0  0
  190.2700  176.6530  145.7990 N   0  0  1  0  0  0  0  0  0  0  0  0
  193.1050  174.9410  146.1430 C   0  0  0  0  0  2  0  0  0  0  0  0
  186.2080  178.8870  145.2100 C   0  0  0  0  0  2  0  0  0  0  0  0
  187.6240  176.0220  143.0400 C   0  0  2  0  0  3  0  0  0  0  0  0
  192.7550  176.4010  145.8700 C   0  0  1  0  0  3  0  0  0  0  0  0
  184.0660  178.9160  143.9070 C   0  0  0  0  0  0  0  0  0  0  0  0
  186.7660  177.2480  143.3860 C   0  0  2  0  0  3  0  0  0  0  0  0
  187.8190  177.0590  145.7490 C   0  0  0  0  0  2  0  0  0  0  0  0
  184.7260  179.0770  145.0630 C   0  0  0  0  0  3  0  0  0  0  0  0
  189.9380  174.7670  141.9540 N   0  0  0  0  0  0  0  0  0  0  0  0
  188.9700  176.0940  143.7350 C   0  0  0  0  0  0  0  0  0  0  0  0
  186.5970  177.4470  144.9070 C   0  0  1  0  0  3  0  0  0  0  0  0
  192.4200  174.7450  141.6590 C   0  0  0  0  0  2  0  0  0  0  0  0
  188.6800  174.7000  141.2130 C   0  0  0  0  0  2  0  0  0  0  0  0
  191.0830  174.0030  141.4560 C   0  0  1  0  0  3  0  0  0  0  0  0
  191.1090  175.2910  147.6220 C   0  0  0  0  0  2  0  0  0  0  0  0
  182.7240  179.1200  143.8870 F   0  0  0  0  0  0  0  0  0  0  0  0
  184.7560  178.5450  142.6260 C   0  0  0  0  0  2  0  0  0  0  0  0
  187.8160  175.9150  141.5250 C   0  0  0  0  0  2  0  0  0  0  0  0
  192.4210  175.8170  142.7620 C   0  0  0  0  0  2  0  0  0  0  0  0
  190.0400  175.4700  143.2080 C   0  0  0  0  0  0  0  0  0  0  0  0
  190.0900  175.3820  146.4950 C   0  0  0  0  0  2  0  0  0  0  0  0
  1 26  1  6  0  0  0
  1  2  1  0  0  0  0
  2  7  1  0  0  0  0
  2 11  1  0  0  0  0
  3 14  1  0  0  0  0
  3  7  1  0  0  0  0
  4 13  1  0  0  0  0
  6 22  1  0  0  0  0
  7 28  1  0  0  0  0
  8  6  1  0  0  0  0
 10 13  1  0  0  0  0
 10 17  1  0  0  0  0
 11  8  1  0  0  0  0
 11  6  1  0  0  0  0
 12 15  2  0  0  0  0
 13 18  1  0  0  0  0
 15  9  1  0  0  0  0
 16 27  1  0  0  0  0
 17  3  1  0  0  0  0
 18  9  1  0  0  0  0
 18 14  1  0  0  0  0
 19 26  1  0  0  0  0
 20 25  1  0  0  0  0
 20 16  1  0  0  0  0
 21 19  1  0  0  0  0
 21 16  1  0  0  0  0
 21  5  1  0  0  0  0
 23 12  1  0  0  0  0
 24  4  1  0  0  0  0
 24 12  1  0  0  0  0
 25 10  1  0  0  0  0
 27 17  2  0  0  0  0
 27  1  1  0  0  0  0
 28 22  1  0  0  0  0
M  END
>  <MODEL>
1

>  <REMARK>
 VINA RESULT:      -9.4      0.000      0.000
  Name = 
  0 active torsions:
  status: ('A' for Active; 'I' for Inactive)
                            x       y       z     vdW  Elec       q    Type
                         _______ _______ _______ _____ _____    ______ ____

>  <TORSDO>
F 0

$$$$
=
 OpenBabel11052418073D

 28 34  0  0  1  0  0  0  0  0999 V2000
  187.0350  178.0100  143.7160 C   0  0  2  0  0  3  0  0  0  0  0  0
  187.8250  178.2000  142.4040 C   0  0  1  0  0  3  0  0  0  0  0  0
  189.7750  177.1040  143.3020 C   0  0  2  0  0  3  0  0  0  0  0  0
  192.2610  176.1060  146.7220 C   0  0  0  0  0  2  0  0  0  0  0  0
  184.9900  176.8020  146.0920 C   0  0  0  0  0  1  0  0  0  0  0  0
  186.7860  177.1980  140.2160 C   0  0  1  0  0  3  0  0  0  0  0  0
  188.8250  177.1490  142.1770 N   0  0  1  0  0  0  0  0  0  0  0  0
  185.6710  177.5280  141.1820 C   0  0  0  0  0  2  0  0  0  0  0  0
  193.1800  176.5080  143.7480 C   0  0  0  0  0  2  0  0  0  0  0  0
  189.9300  176.5100  145.8360 C   0  0  2  0  0  3  0  0  0  0  0  0
  186.9180  178.4070  141.1660 C   0  0  1  0  0  3  0  0  0  0  0  0
  194.5560  175.8970  145.7520 C   0  0  0  0  0  0  0  0  0  0  0  0
  191.4340  176.6410  145.5530 C   0  0  2  0  0  3  0  0  0  0  0  0
  190.8200  176.0010  143.1150 C   0  0  0  0  0  2  0  0  0  0  0  0
  194.3340  175.8340  144.4310 C   0  0  0  0  0  3  0  0  0  0  0  0
  187.3070  177.5680  146.1750 N   0  0  0  0  0  0  0  0  0  0  0  0
  189.1150  177.0120  144.6600 C   0  0  0  0  0  0  0  0  0  0  0  0
  191.8570  175.9420  144.2440 C   0  0  1  0  0  3  0  0  0  0  0  0
  185.5260  179.1500  145.4200 C   0  0  0  0  0  2  0  0  0  0  0  0
  188.0600  177.1420  147.3530 C   0  0  0  0  0  2  0  0  0  0  0  0
  185.9140  177.9790  146.3470 C   0  0  1  0  0  3  0  0  0  0  0  0
  187.4720  175.8770  140.6180 C   0  0  0  0  0  2  0  0  0  0  0  0
  195.6370  175.2530  146.2640 F   0  0  0  0  0  0  0  0  0  0  0  0
  193.6740  176.6740  146.6860 C   0  0  0  0  0  2  0  0  0  0  0  0
  189.5560  177.2790  147.1060 C   0  0  0  0  0  2  0  0  0  0  0  0
  186.4020  179.3210  144.1680 C   0  0  0  0  0  2  0  0  0  0  0  0
  187.8690  177.4850  144.8500 C   0  0  0  0  0  0  0  0  0  0  0  0
  188.1280  175.8800  141.9920 C   0  0  0  0  0  2  0  0  0  0  0  0
  1 26  1  1  0  0  0
  1 27  1  0  0  0  0
  2  1  1  0  0  0  0
  3 17  1  0  0  0  0
  5 21  1  0  0  0  0
  6 22  1  0  0  0  0
  6 11  1  0  0  0  0
  6  8  1  0  0  0  0
  7  2  1  0  0  0  0
  7  3  1  0  0  0  0
  9 18  1  0  0  0  0
  9 15  1  0  0  0  0
 10 25  1  0  0  0  0
 11  8  1  0  0  0  0
 11  2  1  0  0  0  0
 12 23  1  0  0  0  0
 12 24  1  0  0  0  0
 13 10  1  0  0  0  0
 13  4  1  0  0  0  0
 14  3  1  0  0  0  0
 14 18  1  0  0  0  0
 15 12  2  0  0  0  0
 16 21  1  0  0  0  0
 16 20  1  0  0  0  0
 17 27  2  0  0  0  0
 17 10  1  0  0  0  0
 18 13  1  0  0  0  0
 19 21  1  0  0  0  0
 22 28  1  0  0  0  0
 24  4  1  0  0  0  0
 25 20  1  0  0  0  0
 26 19  1  0  0  0  0
 27 16  1  0  0  0  0
 28  7  1  0  0  0  0
M  END
>  <MODEL>
2

>  <REMARK>
 VINA RESULT:      -9.1      3.066      7.321
  Name = 
  0 active torsions:
  status: ('A' for Active; 'I' for Inactive)
                            x       y       z     vdW  Elec       q    Type
                         _______ _______ _______ _____ _____    ______ ____

>  <TORSDO>
F 0

$$$$
=
 OpenBabel11052418073D

 28 34  0  0  1  0  0  0  0  0999 V2000
  186.6190  177.2410  144.9350 C   0  0  2  0  0  3  0  0  0  0  0  0
  186.7570  176.6220  146.3420 C   0  0  1  0  0  3  0  0  0  0  0  0
  189.1640  176.6440  146.2270 C   0  0  2  0  0  3  0  0  0  0  0  0
  192.7950  176.4310  143.8510 C   0  0  0  0  0  2  0  0  0  0  0  0
  186.2580  179.4160  142.4000 C   0  0  0  0  0  1  0  0  0  0  0  0
  185.6400  177.9050  148.3370 C   0  0  1  0  0  3  0  0  0  0  0  0
  187.9900  177.0250  147.0300 N   0  0  1  0  0  0  0  0  0  0  0  0
  184.8830  178.2200  147.0660 C   0  0  0  0  0  2  0  0  0  0  0  0
  192.3980  175.4870  146.8180 C   0  0  0  0  0  2  0  0  0  0  0  0
  190.3930  177.2000  143.9950 C   0  0  2  0  0  3  0  0  0  0  0  0
  185.5070  176.8370  147.2310 C   0  0  1  0  0  3  0  0  0  0  0  0
  194.4720  175.4250  145.4110 C   0  0  0  0  0  0  0  0  0  0  0  0
  191.4850  176.3240  144.6300 C   0  0  2  0  0  3  0  0  0  0  0  0
  190.4720  177.0710  146.8990 C   0  0  0  0  0  2  0  0  0  0  0  0
  193.8850  175.5280  146.6110 C   0  0  0  0  0  3  0  0  0  0  0  0
  187.8520  177.6030  142.7750 N   0  0  0  0  0  0  0  0  0  0  0  0
  189.1050  177.1150  144.7910 C   0  0  0  0  0  0  0  0  0  0  0  0
  191.7260  176.6590  146.1170 C   0  0  1  0  0  3  0  0  0  0  0  0
  185.4080  177.0840  142.7020 C   0  0  0  0  0  2  0  0  0  0  0  0
  189.0540  177.6530  141.9460 C   0  0  0  0  0  2  0  0  0  0  0  0
  186.5670  177.9480  142.1640 C   0  0  1  0  0  3  0  0  0  0  0  0
  186.9430  178.7270  148.4030 C   0  0  0  0  0  2  0  0  0  0  0  0
  195.8270  175.4690  145.3400 F   0  0  0  0  0  0  0  0  0  0  0  0
  193.6920  175.2340  144.1410 C   0  0  0  0  0  2  0  0  0  0  0  0
  190.1480  176.7780  142.5440 C   0  0  0  0  0  2  0  0  0  0  0  0
  185.6450  176.4410  144.0790 C   0  0  0  0  0  2  0  0  0  0  0  0
  187.9210  177.3340  144.1890 C   0  0  0  0  0  0  0  0  0  0  0  0
  187.9330  178.4630  147.2780 C   0  0  0  0  0  2  0  0  0  0  0  0
  1 26  1  6  0  0  0
  1  2  1  0  0  0  0
  2  7  1  0  0  0  0
  2 11  1  0  0  0  0
  3 14  1  0  0  0  0
  3  7  1  0  0  0  0
  4 24  1  0  0  0  0
  4 13  1  0  0  0  0
  6 22  1  0  0  0  0
  7 28  1  0  0  0  0
  8 11  1  0  0  0  0
  8  6  1  0  0  0  0
 10 13  1  0  0  0  0
 10 17  1  0  0  0  0
 11  6  1  0  0  0  0
 12 15  2  0  0  0  0
 13 18  1  0  0  0  0
 15  9  1  0  0  0  0
 16 27  1  0  0  0  0
 17  3  1  0  0  0  0
 18  9  1  0  0  0  0
 18 14  1  0  0  0  0
 19 26  1  0  0  0  0
 20 25  1  0  0  0  0
 20 16  1  0  0  0  0
 21  5  1  0  0  0  0
 21 19  1  0  0  0  0
 21 16  1  0  0  0  0
 23 12  1  0  0  0  0
 24 12  1  0  0  0  0
 25 10  1  0  0  0  0
 27 17  2  0  0  0  0
 27  1  1  0  0  0  0
 28 22  1  0  0  0  0
M  END
>  <MODEL>
3

>  <REMARK>
 VINA RESULT:      -7.8      3.238      6.612
  Name = 
  0 active torsions:
  status: ('A' for Active; 'I' for Inactive)
                            x       y       z     vdW  Elec       q    Type
                         _______ _______ _______ _____ _____    ______ ____

>  <TORSDO>
F 0

$$$$
=
 OpenBabel11052418073D

 28 34  0  0  1  0  0  0  0  0999 V2000
  190.0000  175.5570  145.5880 C   0  0  2  0  0  3  0  0  0  0  0  0
  191.2810  174.6960  145.5790 C   0  0  1  0  0  3  0  0  0  0  0  0
  191.1080  174.2830  143.2100 C   0  0  2  0  0  3  0  0  0  0  0  0
  188.6350  173.7930  139.6720 C   0  0  0  0  0  2  0  0  0  0  0  0
  187.8700  178.1540  145.5150 C   0  0  0  0  0  1  0  0  0  0  0  0
  193.4890  175.8130  146.4430 C   0  0  1  0  0  3  0  0  0  0  0  0
  191.9930  174.7380  144.2950 N   0  0  1  0  0  0  0  0  0  0  0  0
  192.3080  176.4730  147.1190 C   0  0  0  0  0  2  0  0  0  0  0  0
  191.4140  172.4570  140.2580 C   0  0  0  0  0  2  0  0  0  0  0  0
  188.9670  174.9640  141.8850 C   0  0  2  0  0  3  0  0  0  0  0  0
  192.2260  174.9890  146.7700 C   0  0  1  0  0  3  0  0  0  0  0  0
  189.9620  172.2430  138.2260 C   0  0  0  0  0  0  0  0  0  0  0  0
  189.4200  173.8060  140.9830 C   0  0  2  0  0  3  0  0  0  0  0  0
  191.8060  174.3390  141.8490 C   0  0  0  0  0  2  0  0  0  0  0  0
  191.1780  172.2520  138.7890 C   0  0  0  0  0  3  0  0  0  0  0  0
  187.8980  176.0370  144.2970 N   0  0  0  0  0  0  0  0  0  0  0  0
  189.7710  174.9910  143.1700 C   0  0  0  0  0  0  0  0  0  0  0  0
  190.9350  173.8350  140.6920 C   0  0  1  0  0  3  0  0  0  0  0  0
  187.8040  176.0060  146.7940 C   0  0  0  0  0  2  0  0  0  0  0  0
  187.0570  175.9980  143.1020 C   0  0  0  0  0  2  0  0  0  0  0  0
  187.3870  176.7140  145.4890 C   0  0  1  0  0  3  0  0  0  0  0  0
  193.6570  176.3520  145.0080 C   0  0  0  0  0  2  0  0  0  0  0  0
  189.8640  172.0430  136.8860 F   0  0  0  0  0  0  0  0  0  0  0  0
  188.6990  172.4180  139.0200 C   0  0  0  0  0  2  0  0  0  0  0  0
  187.4730  174.8460  142.1980 C   0  0  0  0  0  2  0  0  0  0  0  0
  189.0490  175.1090  146.6920 C   0  0  0  0  0  2  0  0  0  0  0  0
  189.2460  175.5260  144.2880 C   0  0  0  0  0  0  0  0  0  0  0  0
  192.4770  176.0990  144.0800 C   0  0  0  0  0  2  0  0  0  0  0  0
  1 26  1  1  0  0  0
  2  1  1  0  0  0  0
  2 11  1  0  0  0  0
  3  7  1  0  0  0  0
  4 13  1  0  0  0  0
  6 11  1  0  0  0  0
  6  8  1  0  0  0  0
  7  2  1  0  0  0  0
  9 18  1  0  0  0  0
 10 25  1  0  0  0  0
 10 17  1  0  0  0  0
 11  8  1  0  0  0  0
 12 15  2  0  0  0  0
 12 24  1  0  0  0  0
 13 10  1  0  0  0  0
 14  3  1  0  0  0  0
 15  9  1  0  0  0  0
 16 21  1  0  0  0  0
 17  3  1  0  0  0  0
 17 27  2  0  0  0  0
 18 13  1  0  0  0  0
 18 14  1  0  0  0  0
 20 16  1  0  0  0  0
 21  5  1  0  0  0  0
 21 19  1  0  0  0  0
 22  6  1  0  0  0  0
 23 12  1  0  0  0  0
 24  4  1  0  0  0  0
 25 20  1  0  0  0  0
 26 19  1  0  0  0  0
 27 16  1  0  0  0  0
 27  1  1  0  0  0  0
 28  7  1  0  0  0  0
 28 22  1  0  0  0  0
M  END
>  <MODEL>
4

>  <REMARK>
 VINA RESULT:      -7.7      2.939      5.839
  Name = 
  0 active torsions:
  status: ('A' for Active; 'I' for Inactive)
                            x       y       z     vdW  Elec       q    Type
                         _______ _______ _______ _____ _____    ______ ____

>  <TORSDO>
F 0

$$$$
=
 OpenBabel11052418073D

 28 34  0  0  1  0  0  0  0  0999 V2000
  188.7750  176.7000  144.4210 C   0  0  2  0  0  3  0  0  0  0  0  0
  188.2560  177.4620  143.1830 C   0  0  1  0  0  3  0  0  0  0  0  0
  188.4940  175.5250  141.7670 C   0  0  2  0  0  3  0  0  0  0  0  0
  190.5520  171.8200  140.8150 C   0  0  0  0  0  2  0  0  0  0  0  0
  188.9410  174.9160  147.2630 C   0  0  0  0  0  1  0  0  0  0  0  0
  185.8740  178.5430  143.3460 C   0  0  1  0  0  3  0  0  0  0  0  0
  187.5800  176.5900  142.2130 N   0  0  1  0  0  0  0  0  0  0  0  0
  186.4730  178.4650  144.7320 C   0  0  0  0  0  2  0  0  0  0  0  0
  189.1490  173.7910  138.8160 C   0  0  0  0  0  2  0  0  0  0  0  0
  189.7280  173.3900  142.6140 C   0  0  2  0  0  3  0  0  0  0  0  0
  187.3970  178.7000  143.5400 C   0  0  1  0  0  3  0  0  0  0  0  0
  190.3170  171.6260  138.3330 C   0  0  0  0  0  0  0  0  0  0  0  0
  189.9950  173.2120  141.1120 C   0  0  2  0  0  3  0  0  0  0  0  0
  187.8160  174.5780  140.7730 C   0  0  0  0  0  2  0  0  0  0  0  0
  189.3690  172.5270  138.0370 C   0  0  0  0  0  3  0  0  0  0  0  0
  190.0980  174.6830  145.1240 N   0  0  0  0  0  0  0  0  0  0  0  0
  189.1450  174.7610  142.8980 C   0  0  0  0  0  0  0  0  0  0  0  0
  188.7440  173.4750  140.2480 C   0  0  1  0  0  3  0  0  0  0  0  0
  190.3470  176.8050  146.4210 C   0  0  0  0  0  2  0  0  0  0  0  0
  190.7240  173.3810  144.8960 C   0  0  0  0  0  2  0  0  0  0  0  0
  190.1810  175.2720  146.4610 C   0  0  1  0  0  3  0  0  0  0  0  0
  185.3320  177.1660  142.9160 C   0  0  0  0  0  2  0  0  0  0  0  0
  190.4310  170.5180  137.5560 F   0  0  0  0  0  0  0  0  0  0  0  0
  191.2750  171.8040  139.4750 C   0  0  0  0  0  2  0  0  0  0  0  0
  191.0160  173.1860  143.4140 C   0  0  0  0  0  2  0  0  0  0  0  0
  189.8730  177.4880  145.1270 C   0  0  0  0  0  2  0  0  0  0  0  0
  189.3190  175.3350  144.1030 C   0  0  0  0  0  0  0  0  0  0  0  0
  186.3720  176.0570  142.8350 C   0  0  0  0  0  2  0  0  0  0  0  0
  1 26  1  6  0  0  0
  2 11  1  0  0  0  0
  2  1  1  0  0  0  0
  3  7  1  0  0  0  0
  3 17  1  0  0  0  0
  4 13  1  0  0  0  0
  6 11  1  0  0  0  0
  6  8  1  0  0  0  0
  7 28  1  0  0  0  0
  7  2  1  0  0  0  0
  9 18  1  0  0  0  0
 10 17  1  0  0  0  0
 10 25  1  0  0  0  0
 11  8  1  0  0  0  0
 12 24  1  0  0  0  0
 13 10  1  0  0  0  0
 14  3  1  0  0  0  0
 15 12  2  0  0  0  0
 15  9  1  0  0  0  0
 16 21  1  0  0  0  0
 17 27  2  0  0  0  0
 18 14  1  0  0  0  0
 18 13  1  0  0  0  0
 19 21  1  0  0  0  0
 20 16  1  0  0  0  0
 21  5  1  0  0  0  0
 22  6  1  0  0  0  0
 23 12  1  0  0  0  0
 24  4  1  0  0  0  0
 25 20  1  0  0  0  0
 26 19  1  0  0  0  0
 27  1  1  0  0  0  0
 27 16  1  0  0  0  0
 28 22  1  0  0  0  0
M  END
>  <MODEL>
5

>  <REMARK>
 VINA RESULT:      -7.7      3.099      6.631
  Name = 
  0 active torsions:
  status: ('A' for Active; 'I' for Inactive)
                            x       y       z     vdW  Elec       q    Type
                         _______ _______ _______ _____ _____    ______ ____

>  <TORSDO>
F 0

$$$$
=
 OpenBabel11052418073D

 28 34  0  0  1  0  0  0  0  0999 V2000
  191.2840  172.9130  143.1800 C   0  0  2  0  0  3  0  0  0  0  0  0
  190.0720  172.3320  142.4210 C   0  0  1  0  0  3  0  0  0  0  0  0
  188.8010  174.3620  142.6920 C   0  0  2  0  0  3  0  0  0  0  0  0
  187.8810  177.9160  145.0150 C   0  0  0  0  0  2  0  0  0  0  0  0
  194.2130  174.3870  143.9140 C   0  0  0  0  0  1  0  0  0  0  0  0
  190.4750  171.4860  139.9740 C   0  0  1  0  0  3  0  0  0  0  0  0
  189.2810  173.3570  141.7280 N   0  0  1  0  0  0  0  0  0  0  0  0
  191.7660  171.3680  140.7520 C   0  0  0  0  0  2  0  0  0  0  0  0
  185.9410  176.3010  143.1510 C   0  0  0  0  0  2  0  0  0  0  0  0
  189.6420  176.2700  144.2590 C   0  0  2  0  0  3  0  0  0  0  0  0
  190.4410  171.1580  141.4810 C   0  0  1  0  0  3  0  0  0  0  0  0
  185.4810  178.3730  144.4840 C   0  0  0  0  0  0  0  0  0  0  0  0
  188.1370  176.5650  144.3480 C   0  0  2  0  0  3  0  0  0  0  0  0
  187.9940  175.4650  142.0020 C   0  0  0  0  0  2  0  0  0  0  0  0
  185.2460  177.6060  143.4100 C   0  0  0  0  0  3  0  0  0  0  0  0
  191.9600  174.7080  144.8030 N   0  0  0  0  0  0  0  0  0  0  0  0
  189.8900  174.9440  143.5660 C   0  0  0  0  0  0  0  0  0  0  0  0
  187.4380  176.5150  142.9730 C   0  0  1  0  0  3  0  0  0  0  0  0
  193.0290  172.4560  144.9750 C   0  0  0  0  0  2  0  0  0  0  0  0
  191.7550  175.9560  145.5370 C   0  0  0  0  0  2  0  0  0  0  0  0
  193.2190  173.9860  144.9910 C   0  0  1  0  0  3  0  0  0  0  0  0
  190.2400  172.9460  139.5400 C   0  0  0  0  0  2  0  0  0  0  0  0
  184.7890  179.5340  144.6210 F   0  0  0  0  0  0  0  0  0  0  0  0
  186.4590  177.9890  145.5560 C   0  0  0  0  0  2  0  0  0  0  0  0
  190.2690  176.2630  145.6550 C   0  0  0  0  0  2  0  0  0  0  0  0
  191.7620  171.9530  144.2630 C   0  0  0  0  0  2  0  0  0  0  0  0
  191.0070  174.2400  143.8290 C   0  0  0  0  0  0  0  0  0  0  0  0
  190.1070  173.9470  140.6790 C   0  0  0  0  0  2  0  0  0  0  0  0
  1 27  1  0  0  0  0
  1 26  1  1  0  0  0
  2  1  1  0  0  0  0
  3 17  1  0  0  0  0
  4 24  1  0  0  0  0
  5 21  1  0  0  0  0
  6  8  1  0  0  0  0
  6 11  1  0  0  0  0
  7  2  1  0  0  0  0
  7  3  1  0  0  0  0
  8 11  1  0  0  0  0
  9 15  1  0  0  0  0
 10 13  1  0  0  0  0
 10 25  1  0  0  0  0
 11  2  1  0  0  0  0
 12 23  1  0  0  0  0
 12 24  1  0  0  0  0
 13  4  1  0  0  0  0
 14  3  1  0  0  0  0
 14 18  1  0  0  0  0
 15 12  2  0  0  0  0
 16 21  1  0  0  0  0
 16 20  1  0  0  0  0
 17 27  2  0  0  0  0
 17 10  1  0  0  0  0
 18  9  1  0  0  0  0
 18 13  1  0  0  0  0
 19 21  1  0  0  0  0
 20 25  1  0  0  0  0
 22  6  1  0  0  0  0
 22 28  1  0  0  0  0
 26 19  1  0  0  0  0
 27 16  1  0  0  0  0
 28  7  1  0  0  0  0
M  END
>  <MODEL>
6

>  <REMARK>
 VINA RESULT:      -7.6      1.634      4.507
  Name = 
  0 active torsions:
  status: ('A' for Active; 'I' for Inactive)
                            x       y       z     vdW  Elec       q    Type
                         _______ _______ _______ _____ _____    ______ ____

>  <TORSDO>
F 0

$$$$
=
 OpenBabel11052418073D

 28 34  0  0  1  0  0  0  0  0999 V2000
  190.6610  173.8270  142.4810 C   0  0  2  0  0  3  0  0  0  0  0  0
  189.2820  173.2360  142.1190 C   0  0  1  0  0  3  0  0  0  0  0  0
  188.1110  174.9960  143.2770 C   0  0  2  0  0  3  0  0  0  0  0  0
  187.9820  177.9150  146.4920 C   0  0  0  0  0  2  0  0  0  0  0  0
  193.5610  175.5220  142.3810 C   0  0  0  0  0  1  0  0  0  0  0  0
  188.7440  172.9080  139.5750 C   0  0  1  0  0  3  0  0  0  0  0  0
  188.2300  174.2550  142.0100 N   0  0  1  0  0  0  0  0  0  0  0  0
  190.2400  172.8250  139.7740 C   0  0  0  0  0  2  0  0  0  0  0  0
  185.5580  176.4190  145.1740 C   0  0  0  0  0  2  0  0  0  0  0  0
  189.3930  176.6840  144.7970 C   0  0  2  0  0  3  0  0  0  0  0  0
  189.3190  172.3120  140.8770 C   0  0  1  0  0  3  0  0  0  0  0  0
  185.5430  178.1360  147.0010 C   0  0  0  0  0  0  0  0  0  0  0  0
  188.0280  176.7540  145.5000 C   0  0  2  0  0  3  0  0  0  0  0  0
  187.0410  176.0870  143.1950 C   0  0  0  0  0  2  0  0  0  0  0  0
  184.9500  177.5510  145.9510 C   0  0  0  0  0  3  0  0  0  0  0  0
  191.8200  175.3730  144.0880 N   0  0  0  0  0  0  0  0  0  0  0  0
  189.4220  175.5500  143.7910 C   0  0  0  0  0  0  0  0  0  0  0  0
  186.8520  176.8600  144.5060 C   0  0  1  0  0  3  0  0  0  0  0  0
  192.9910  173.2910  143.3560 C   0  0  0  0  0  2  0  0  0  0  0  0
  191.8510  176.4290  145.0990 C   0  0  0  0  0  2  0  0  0  0  0  0
  193.0890  174.8040  143.6340 C   0  0  1  0  0  3  0  0  0  0  0  0
  188.2800  174.3790  139.5890 C   0  0  0  0  0  2  0  0  0  0  0  0
  184.8990  179.1490  147.6350 F   0  0  0  0  0  0  0  0  0  0  0  0
  186.8820  177.6980  147.5230 C   0  0  0  0  0  2  0  0  0  0  0  0
  190.5140  176.5080  145.8240 C   0  0  0  0  0  2  0  0  0  0  0  0
  191.5750  172.7600  143.0720 C   0  0  0  0  0  2  0  0  0  0  0  0
  190.5890  174.9660  143.4600 C   0  0  0  0  0  0  0  0  0  0  0  0
  188.5490  175.1300  140.8860 C   0  0  0  0  0  2  0  0  0  0  0  0
  1 26  1  1  0  0  0
  1 27  1  0  0  0  0
  2  1  1  0  0  0  0
  3 17  1  0  0  0  0
  4 24  1  0  0  0  0
  5 21  1  0  0  0  0
  6 22  1  0  0  0  0
  6  8  1  0  0  0  0
  6 11  1  0  0  0  0
  7  2  1  0  0  0  0
  7  3  1  0  0  0  0
  8 11  1  0  0  0  0
  9 15  1  0  0  0  0
 10 13  1  0  0  0  0
 10 25  1  0  0  0  0
 11  2  1  0  0  0  0
 12 24  1  0  0  0  0
 12 23  1  0  0  0  0
 13  4  1  0  0  0  0
 14  3  1  0  0  0  0
 14 18  1  0  0  0  0
 15 12  2  0  0  0  0
 16 20  1  0  0  0  0
 17 10  1  0  0  0  0
 18  9  1  0  0  0  0
 18 13  1  0  0  0  0
 19 21  1  0  0  0  0
 20 25  1  0  0  0  0
 21 16  1  0  0  0  0
 22 28  1  0  0  0  0
 26 19  1  0  0  0  0
 27 17  2  0  0  0  0
 27 16  1  0  0  0  0
 28  7  1  0  0  0  0
M  END
>  <MODEL>
7

>  <REMARK>
 VINA RESULT:      -7.6      1.791      4.525
  Name = 
  0 active torsions:
  status: ('A' for Active; 'I' for Inactive)
                            x       y       z     vdW  Elec       q    Type
                         _______ _______ _______ _____ _____    ______ ____

>  <TORSDO>
F 0

$$$$
=
 OpenBabel11052418073D

 28 34  0  0  1  0  0  0  0  0999 V2000
  191.4480  175.5910  145.4140 C   0  0  2  0  0  3  0  0  0  0  0  0
  191.6000  174.9640  144.0120 C   0  0  1  0  0  3  0  0  0  0  0  0
  189.8060  176.2980  143.1100 C   0  0  2  0  0  3  0  0  0  0  0  0
  186.0490  178.3990  143.6970 C   0  0  0  0  0  2  0  0  0  0  0  0
  191.8300  177.5400  148.1240 C   0  0  0  0  0  1  0  0  0  0  0  0
  193.9420  175.1620  142.8520 C   0  0  1  0  0  3  0  0  0  0  0  0
  191.2050  175.8740  142.9290 N   0  0  1  0  0  0  0  0  0  0  0  0
  194.1340  175.1830  144.3520 C   0  0  0  0  0  2  0  0  0  0  0  0
  187.0670  177.0060  141.0750 C   0  0  0  0  0  2  0  0  0  0  0  0
  188.2780  177.7210  144.6730 C   0  0  2  0  0  3  0  0  0  0  0  0
  192.9990  174.3490  143.7640 C   0  0  1  0  0  3  0  0  0  0  0  0
  184.9320  178.2620  141.4640 C   0  0  0  0  0  0  0  0  0  0  0  0
  187.2730  177.4990  143.5320 C   0  0  2  0  0  3  0  0  0  0  0  0
  189.3640  177.2700  142.0130 C   0  0  0  0  0  2  0  0  0  0  0  0
  185.9180  177.8710  140.6440 C   0  0  0  0  0  3  0  0  0  0  0  0
  189.8430  176.8450  146.8860 N   0  0  0  0  0  0  0  0  0  0  0  0
  189.5050  176.8490  144.4860 C   0  0  0  0  0  0  0  0  0  0  0  0
  187.9000  177.7090  142.1380 C   0  0  1  0  0  3  0  0  0  0  0  0
  191.3140  175.1030  147.9090 C   0  0  0  0  0  2  0  0  0  0  0  0
  188.6460  177.6460  147.1340 C   0  0  0  0  0  2  0  0  0  0  0  0
  190.7120  176.5190  148.0170 C   0  0  1  0  0  3  0  0  0  0  0  0
  193.4640  176.5390  142.3520 C   0  0  0  0  0  2  0  0  0  0  0  0
  183.9380  179.0400  140.9650 F   0  0  0  0  0  0  0  0  0  0  0  0
  184.8680  177.8510  142.9070 C   0  0  0  0  0  2  0  0  0  0  0  0
  187.6240  177.4310  146.0260 C   0  0  0  0  0  2  0  0  0  0  0  0
  191.3680  174.5130  146.4890 C   0  0  0  0  0  2  0  0  0  0  0  0
  190.2370  176.4710  145.5510 C   0  0  0  0  0  0  0  0  0  0  0  0
  192.1280  177.0040  142.9150 C   0  0  0  0  0  2  0  0  0  0  0  0
  1 27  1  0  0  0  0
  1 26  1  1  0  0  0
  2  1  1  0  0  0  0
  3 17  1  0  0  0  0
  6 11  1  0  0  0  0
  6  8  1  0  0  0  0
  7  3  1  0  0  0  0
  7  2  1  0  0  0  0
  9 18  1  0  0  0  0
 10 25  1  0  0  0  0
 11  2  1  0  0  0  0
 11  8  1  0  0  0  0
 12 24  1  0  0  0  0
 13  4  1  0  0  0  0
 13 10  1  0  0  0  0
 14 18  1  0  0  0  0
 14  3  1  0  0  0  0
 15  9  1  0  0  0  0
 15 12  2  0  0  0  0
 16 20  1  0  0  0  0
 16 21  1  0  0  0  0
 17 10  1  0  0  0  0
 17 27  2  0  0  0  0
 18 13  1  0  0  0  0
 19 21  1  0  0  0  0
 21  5  1  0  0  0  0
 22  6  1  0  0  0  0
 22 28  1  0  0  0  0
 23 12  1  0  0  0  0
 24  4  1  0  0  0  0
 25 20  1  0  0  0  0
 26 19  1  0  0  0  0
 27 16  1  0  0  0  0
 28  7  1  0  0  0  0
M  END
>  <MODEL>
8

>  <REMARK>
 VINA RESULT:      -7.5      1.660      4.122
  Name = 
  0 active torsions:
  status: ('A' for Active; 'I' for Inactive)
                            x       y       z     vdW  Elec       q    Type
                         _______ _______ _______ _____ _____    ______ ____

>  <TORSDO>
F 0

$$$$
=
 OpenBabel11052418073D

 28 34  0  0  1  0  0  0  0  0999 V2000
  192.7420  174.5180  142.1720 C   0  0  2  0  0  3  0  0  0  0  0  0
  193.1380  175.5420  143.2560 C   0  0  1  0  0  3  0  0  0  0  0  0
  190.8430  175.9030  143.8980 C   0  0  2  0  0  3  0  0  0  0  0  0
  186.6350  176.0210  142.8230 C   0  0  0  0  0  2  0  0  0  0  0  0
  192.0680  171.6590  140.5400 C   0  0  0  0  0  1  0  0  0  0  0  0
  194.7940  174.7380  145.1230 C   0  0  1  0  0  3  0  0  0  0  0  0
  192.1960  175.5810  144.3820 N   0  0  1  0  0  0  0  0  0  0  0  0
  195.0430  173.9340  143.8670 C   0  0  0  0  0  2  0  0  0  0  0  0
  188.0920  177.7220  145.0220 C   0  0  0  0  0  2  0  0  0  0  0  0
  188.8860  174.9280  142.4760 C   0  0  2  0  0  3  0  0  0  0  0  0
  194.6030  175.3890  143.7370 C   0  0  1  0  0  3  0  0  0  0  0  0
  185.6680  177.7190  144.3840 C   0  0  0  0  0  0  0  0  0  0  0  0
  188.1380  176.1270  143.0790 C   0  0  2  0  0  3  0  0  0  0  0  0
  189.8250  175.9260  145.0400 C   0  0  0  0  0  2  0  0  0  0  0  0
  186.6260  177.8780  145.3070 C   0  0  0  0  0  3  0  0  0  0  0  0
  190.8190  173.7480  140.7490 N   0  0  0  0  0  0  0  0  0  0  0  0
  190.3720  175.0220  142.7610 C   0  0  0  0  0  0  0  0  0  0  0  0
  188.4060  176.2970  144.5890 C   0  0  1  0  0  3  0  0  0  0  0  0
  193.1130  173.7920  139.7600 C   0  0  0  0  0  2  0  0  0  0  0  0
  189.4030  173.6620  140.3960 C   0  0  0  0  0  2  0  0  0  0  0  0
  191.7890  173.0210  139.9290 C   0  0  1  0  0  3  0  0  0  0  0  0
  193.5450  174.2110  145.8590 C   0  0  0  0  0  2  0  0  0  0  0  0
  184.3720  177.8900  144.7510 F   0  0  0  0  0  0  0  0  0  0  0  0
  185.9700  177.3860  142.9510 C   0  0  0  0  0  2  0  0  0  0  0  0
  188.6410  174.8490  140.9670 C   0  0  0  0  0  2  0  0  0  0  0  0
  193.4080  174.8470  140.8400 C   0  0  0  0  0  2  0  0  0  0  0  0
  191.2600  174.4340  141.9370 C   0  0  0  0  0  0  0  0  0  0  0  0
  192.2460  174.2950  145.0710 C   0  0  0  0  0  2  0  0  0  0  0  0
  1 26  1  6  0  0  0
  1  2  1  0  0  0  0
  2 11  1  0  0  0  0
  2  7  1  0  0  0  0
  3  7  1  0  0  0  0
  3 14  1  0  0  0  0
  4 24  1  0  0  0  0
  4 13  1  0  0  0  0
  6 22  1  0  0  0  0
  7 28  1  0  0  0  0
  8  6  1  0  0  0  0
  9 15  1  0  0  0  0
 10 17  1  0  0  0  0
 10 13  1  0  0  0  0
 11  8  1  0  0  0  0
 11  6  1  0  0  0  0
 12 23  1  0  0  0  0
 12 15  2  0  0  0  0
 13 18  1  0  0  0  0
 16 27  1  0  0  0  0
 17  3  1  0  0  0  0
 18  9  1  0  0  0  0
 18 14  1  0  0  0  0
 19 21  1  0  0  0  0
 19 26  1  0  0  0  0
 20 16  1  0  0  0  0
 20 25  1  0  0  0  0
 21  5  1  0  0  0  0
 21 16  1  0  0  0  0
 24 12  1  0  0  0  0
 25 10  1  0  0  0  0
 27  1  1  0  0  0  0
 27 17  2  0  0  0  0
 28 22  1  0  0  0  0
M  END
>  <MODEL>
9

>  <REMARK>
 VINA RESULT:      -7.5      1.542      2.306
  Name = 
  0 active torsions:
  status: ('A' for Active; 'I' for Inactive)
                            x       y       z     vdW  Elec       q    Type
                         _______ _______ _______ _____ _____    ______ ____

>  <TORSDO>
F 0

$$$$
