=
 OpenBabel11052418093D

 28 31  0  0  1  0  0  0  0  0999 V2000
  187.4200  178.1790  142.3850 C   0  0  1  0  0  3  0  0  0  0  0  0
  192.1500  176.7640  143.9530 C   0  0  0  0  0  3  0  0  0  0  0  0
  186.9250  177.4080  147.3320 C   0  0  0  0  0  1  0  0  0  0  0  0
  191.8860  176.4050  146.3420 C   0  0  0  0  0  0  0  0  0  0  0  0
  189.9550  177.0950  145.0110 C   0  0  0  0  0  0  0  0  0  0  0  0
  194.0450  176.0800  145.2940 C   0  0  0  0  0  0  0  0  0  0  0  0
  191.3250  176.7580  145.0900 C   0  0  0  0  0  0  0  0  0  0  0  0
  189.7400  176.7240  147.4100 C   0  0  0  0  0  3  0  0  0  0  0  0
  193.2390  176.0690  146.4350 C   0  0  0  0  0  3  0  0  0  0  0  0
  187.2200  177.7580  144.8710 C   0  0  0  0  0  0  0  0  0  0  0  0
  189.3690  177.4510  143.7890 C   0  0  0  0  0  3  0  0  0  0  0  0
  191.0920  176.3910  147.4870 C   0  0  0  0  0  3  0  0  0  0  0  0
  185.1760  178.1910  143.5500 C   0  0  0  0  0  2  0  0  0  0  0  0
  187.7890  177.4150  146.1080 C   0  0  0  0  0  0  0  0  0  0  0  0
  185.8640  178.1040  144.7950 O   0  0  0  0  0  0  0  0  0  0  0  0
  195.3890  175.7450  145.3930 O   0  0  0  0  0  1  0  0  0  0  0  0
  193.5020  176.4260  144.0550 C   0  0  0  0  0  3  0  0  0  0  0  0
  189.1560  177.0780  146.1830 C   0  0  0  0  0  0  0  0  0  0  0  0
  186.0510  178.8680  142.5030 C   0  0  0  0  0  2  0  0  0  0  0  0
  188.0140  177.7760  143.7100 C   0  0  0  0  0  0  0  0  0  0  0  0
  187.5270  177.1050  141.2850 C   0  0  2  0  0  3  0  0  0  0  0  0
  186.7440  177.4460  140.0290 C   0  0  0  0  0  1  0  0  0  0  0  0
  187.4110  175.6320  141.7060 C   0  0  0  0  0  2  0  0  0  0  0  0
  189.3770  174.1020  142.1070 C   0  0  0  0  0  0  0  0  0  0  0  0
  188.4730  174.4240  139.8060 C   0  0  0  0  0  1  0  0  0  0  0  0
  188.5010  174.7970  141.2110 N   0  0  0  0  0  0  0  0  0  0  0  0
  189.1360  174.1030  143.4760 O   0  0  0  0  0  1  0  0  0  0  0  0
  190.3680  173.4640  141.6600 O   0  0  0  0  0  0  0  0  0  0  0  0
  1 21  1  6  0  0  0
  1 19  1  0  0  0  0
  1 20  1  0  0  0  0
  2 17  2  0  0  0  0
  2  7  1  0  0  0  0
  4  9  1  0  0  0  0
  4 12  1  0  0  0  0
  5  7  1  0  0  0  0
  5 18  1  0  0  0  0
  6 16  1  0  0  0  0
  6  9  2  0  0  0  0
  7  4  2  0  0  0  0
  8 12  2  0  0  0  0
 10 14  1  0  0  0  0
 11  5  2  0  0  0  0
 13 15  1  0  0  0  0
 14 18  2  0  0  0  0
 14  3  1  0  0  0  0
 15 10  1  0  0  0  0
 17  6  1  0  0  0  0
 18  8  1  0  0  0  0
 19 13  1  0  0  0  0
 20 11  1  0  0  0  0
 20 10  2  0  0  0  0
 21 22  1  6  0  0  0
 21 23  1  0  0  0  0
 24 27  1  0  0  0  0
 25 26  1  0  0  0  0
 26 23  1  0  0  0  0
 26 24  1  0  0  0  0
 28 24  2  0  0  0  0
M  END
>  <MODEL>
1

>  <REMARK>
 VINA RESULT:      -8.1      0.000      0.000
  Name = 
  3 active torsions:
  status: ('A' for Active; 'I' for Inactive)
    1  A    between atoms: C_1  and  C_2
    2  A    between atoms: C_2  and  C_3
    3  A    between atoms: C_3  and  N_11
                            x       y       z     vdW  Elec       q    Type
                         _______ _______ _______ _____ _____    ______ ____

>  <TORSDO>
F 3

$$$$
=
 OpenBabel11052418093D

 28 31  0  0  1  0  0  0  0  0999 V2000
  190.0720  176.1410  145.0820 C   0  0  1  0  0  3  0  0  0  0  0  0
  185.9750  177.3760  142.1610 C   0  0  0  0  0  3  0  0  0  0  0  0
  186.9330  178.4760  148.2440 C   0  0  0  0  0  1  0  0  0  0  0  0
  184.4750  178.4940  143.7110 C   0  0  0  0  0  0  0  0  0  0  0  0
  186.6300  177.6680  144.5130 C   0  0  0  0  0  0  0  0  0  0  0  0
  183.8340  178.2040  141.3930 C   0  0  0  0  0  0  0  0  0  0  0  0
  185.7050  177.8400  143.4590 C   0  0  0  0  0  0  0  0  0  0  0  0
  185.0910  178.7950  146.0290 C   0  0  0  0  0  3  0  0  0  0  0  0
  183.5500  178.6710  142.6780 C   0  0  0  0  0  3  0  0  0  0  0  0
  188.4660  177.3410  146.6250 C   0  0  0  0  0  0  0  0  0  0  0  0
  187.8570  177.0230  144.2990 C   0  0  0  0  0  3  0  0  0  0  0  0
  184.1780  178.9640  144.9890 C   0  0  0  0  0  3  0  0  0  0  0  0
  190.7310  176.7740  147.4390 C   0  0  0  0  0  2  0  0  0  0  0  0
  187.2390  177.9790  146.8640 C   0  0  0  0  0  0  0  0  0  0  0  0
  189.3790  177.1590  147.6730 O   0  0  0  0  0  0  0  0  0  0  0  0
  182.9120  178.3830  140.3710 O   0  0  0  0  0  1  0  0  0  0  0  0
  185.0450  177.5580  141.1340 C   0  0  0  0  0  3  0  0  0  0  0  0
  186.3190  178.1500  145.8110 C   0  0  0  0  0  0  0  0  0  0  0  0
  190.8000  175.7010  146.3610 C   0  0  0  0  0  2  0  0  0  0  0  0
  188.7730  176.8620  145.3380 C   0  0  0  0  0  0  0  0  0  0  0  0
  190.9620  176.7950  144.0060 C   0  0  2  0  0  3  0  0  0  0  0  0
  190.8030  178.3040  143.9250 C   0  0  0  0  0  1  0  0  0  0  0  0
  191.0540  176.1080  142.6350 C   0  0  0  0  0  2  0  0  0  0  0  0
  189.3330  174.3740  142.0020 C   0  0  0  0  0  0  0  0  0  0  0  0
  191.5090  173.6890  143.0100 C   0  0  0  0  0  1  0  0  0  0  0  0
  190.5670  174.7320  142.6390 N   0  0  0  0  0  0  0  0  0  0  0  0
  188.6270  175.3070  141.2530 O   0  0  0  0  0  0  0  0  0  0  0  0
  188.8860  173.2000  142.1000 O   0  0  0  0  0  1  0  0  0  0  0  0
  1 21  1  1  0  0  0
  1 20  1  0  0  0  0
  1 19  1  0  0  0  0
  2  7  1  0  0  0  0
  4 12  1  0  0  0  0
  5 18  1  0  0  0  0
  6  9  2  0  0  0  0
  7  4  2  0  0  0  0
  7  5  1  0  0  0  0
  9  4  1  0  0  0  0
 10 14  1  0  0  0  0
 10 15  1  0  0  0  0
 11  5  2  0  0  0  0
 11 20  1  0  0  0  0
 12  8  2  0  0  0  0
 13 15  1  0  0  0  0
 14  3  1  0  0  0  0
 16  6  1  0  0  0  0
 17  6  1  0  0  0  0
 17  2  2  0  0  0  0
 18  8  1  0  0  0  0
 18 14  2  0  0  0  0
 19 13  1  0  0  0  0
 20 10  2  0  0  0  0
 21 22  1  6  0  0  0
 23 26  1  0  0  0  0
 23 21  1  0  0  0  0
 24 28  1  0  0  0  0
 24 26  1  0  0  0  0
 26 25  1  0  0  0  0
 27 24  2  0  0  0  0
M  END
>  <MODEL>
2

>  <REMARK>
 VINA RESULT:      -7.9      2.214      6.013
  Name = 
  3 active torsions:
  status: ('A' for Active; 'I' for Inactive)
    1  A    between atoms: C_1  and  C_2
    2  A    between atoms: C_2  and  C_3
    3  A    between atoms: C_3  and  N_11
                            x       y       z     vdW  Elec       q    Type
                         _______ _______ _______ _____ _____    ______ ____

>  <TORSDO>
F 3

$$$$
=
 OpenBabel11052418093D

 28 31  0  0  1  0  0  0  0  0999 V2000
  187.4680  176.0630  146.4110 C   0  0  1  0  0  3  0  0  0  0  0  0
  188.0980  174.6620  141.4640 C   0  0  0  0  0  3  0  0  0  0  0  0
  185.4730  179.8510  143.7700 C   0  0  0  0  0  1  0  0  0  0  0  0
  187.1220  176.5020  140.2120 C   0  0  0  0  0  0  0  0  0  0  0  0
  187.1360  176.5860  142.6540 C   0  0  0  0  0  0  0  0  0  0  0  0
  188.0720  174.6040  139.0440 C   0  0  0  0  0  0  0  0  0  0  0  0
  187.4550  175.9110  141.4550 C   0  0  0  0  0  0  0  0  0  0  0  0
  186.1670  178.4060  141.3550 C   0  0  0  0  0  3  0  0  0  0  0  0
  187.4330  175.8460  139.0170 C   0  0  0  0  0  3  0  0  0  0  0  0
  186.4970  177.9500  145.0360 C   0  0  0  0  0  0  0  0  0  0  0  0
  187.4490  176.0290  143.9020 C   0  0  0  0  0  3  0  0  0  0  0  0
  186.4830  177.7400  140.1720 C   0  0  0  0  0  3  0  0  0  0  0  0
  186.7170  178.2260  147.4820 C   0  0  0  0  0  2  0  0  0  0  0  0
  186.1640  178.5220  143.7970 C   0  0  0  0  0  0  0  0  0  0  0  0
  186.1690  178.6150  146.2250 O   0  0  0  0  0  0  0  0  0  0  0  0
  188.3780  173.9580  137.8540 O   0  0  0  0  0  1  0  0  0  0  0  0
  188.4050  174.0130  140.2640 C   0  0  0  0  0  3  0  0  0  0  0  0
  186.4850  177.8460  142.6020 C   0  0  0  0  0  0  0  0  0  0  0  0
  186.7470  176.7080  147.6050 C   0  0  0  0  0  2  0  0  0  0  0  0
  187.1410  176.7000  145.0850 C   0  0  0  0  0  0  0  0  0  0  0  0
  188.9660  175.7680  146.6240 C   0  0  2  0  0  3  0  0  0  0  0  0
  189.2280  174.6540  147.6230 C   0  0  0  0  0  1  0  0  0  0  0  0
  189.9200  176.9650  146.7670 C   0  0  0  0  0  2  0  0  0  0  0  0
  191.2270  177.3640  144.6460 C   0  0  0  0  0  0  0  0  0  0  0  0
  192.3560  176.4600  146.6780 C   0  0  0  0  0  1  0  0  0  0  0  0
  191.1390  176.8360  145.9770 N   0  0  0  0  0  0  0  0  0  0  0  0
  190.1910  178.1250  144.1180 O   0  0  0  0  0  1  0  0  0  0  0  0
  192.2560  177.1580  143.9480 O   0  0  0  0  0  0  0  0  0  0  0  0
  1 21  1  1  0  0  0
  1 19  1  0  0  0  0
  3 14  1  0  0  0  0
  4  7  1  0  0  0  0
  5 11  1  0  0  0  0
  6 17  1  0  0  0  0
  7  2  1  0  0  0  0
  7  5  2  0  0  0  0
  8 18  2  0  0  0  0
  9  6  2  0  0  0  0
  9  4  1  0  0  0  0
 10 20  1  0  0  0  0
 10 15  1  0  0  0  0
 11 20  2  0  0  0  0
 12  4  2  0  0  0  0
 12  8  1  0  0  0  0
 13 19  1  0  0  0  0
 14 10  2  0  0  0  0
 15 13  1  0  0  0  0
 16  6  1  0  0  0  0
 17  2  2  0  0  0  0
 18  5  1  0  0  0  0
 18 14  1  0  0  0  0
 20  1  1  0  0  0  0
 21 23  1  0  0  0  0
 21 22  1  1  0  0  0
 24 26  1  0  0  0  0
 26 25  1  0  0  0  0
 26 23  1  0  0  0  0
 27 24  1  0  0  0  0
 28 24  2  0  0  0  0
M  END
>  <MODEL>
3

>  <REMARK>
 VINA RESULT:      -7.7      2.117      6.010
  Name = 
  3 active torsions:
  status: ('A' for Active; 'I' for Inactive)
    1  A    between atoms: C_1  and  C_2
    2  A    between atoms: C_2  and  C_3
    3  A    between atoms: C_3  and  N_11
                            x       y       z     vdW  Elec       q    Type
                         _______ _______ _______ _____ _____    ______ ____

>  <TORSDO>
F 3

$$$$
=
 OpenBabel11052418093D

 28 31  0  0  1  0  0  0  0  0999 V2000
  189.3180  173.9860  141.7810 C   0  0  1  0  0  3  0  0  0  0  0  0
  187.6150  176.7150  145.8420 C   0  0  0  0  0  3  0  0  0  0  0  0
  186.3840  177.5400  139.7640 C   0  0  0  0  0  1  0  0  0  0  0  0
  186.2090  178.4260  144.8420 C   0  0  0  0  0  0  0  0  0  0  0  0
  187.3140  176.7880  143.4020 C   0  0  0  0  0  0  0  0  0  0  0  0
  186.5080  178.3490  147.2440 C   0  0  0  0  0  0  0  0  0  0  0  0
  187.0540  177.2990  144.6940 C   0  0  0  0  0  0  0  0  0  0  0  0
  185.8950  178.5240  142.4460 C   0  0  0  0  0  3  0  0  0  0  0  0
  185.9420  178.9420  146.1130 C   0  0  0  0  0  3  0  0  0  0  0  0
  187.8160  175.7790  140.8200 C   0  0  0  0  0  0  0  0  0  0  0  0
  188.1470  175.6760  143.2200 C   0  0  0  0  0  3  0  0  0  0  0  0
  185.6390  179.0270  143.7210 C   0  0  0  0  0  3  0  0  0  0  0  0
  188.6810  174.0030  139.3350 C   0  0  0  0  0  2  0  0  0  0  0  0
  186.9870  176.9020  140.9780 C   0  0  0  0  0  0  0  0  0  0  0  0
  188.0840  175.2810  139.5380 O   0  0  0  0  0  0  0  0  0  0  0  0
  186.2400  178.8650  148.5040 O   0  0  0  0  0  1  0  0  0  0  0  0
  187.3430  177.2370  147.1090 C   0  0  0  0  0  3  0  0  0  0  0  0
  186.7290  177.4080  142.2680 C   0  0  0  0  0  0  0  0  0  0  0  0
  189.8030  173.7730  140.3390 C   0  0  0  0  0  2  0  0  0  0  0  0
  188.3970  175.1670  141.9460 C   0  0  0  0  0  0  0  0  0  0  0  0
  188.8590  172.7120  142.5190 C   0  0  2  0  0  3  0  0  0  0  0  0
  187.3780  172.4150  142.3510 C   0  0  0  0  0  1  0  0  0  0  0  0
  189.3770  172.4840  143.9480 C   0  0  0  0  0  2  0  0  0  0  0  0
  191.2700  173.8210  144.9470 C   0  0  0  0  0  0  0  0  0  0  0  0
  191.7350  171.7430  143.6480 C   0  0  0  0  0  1  0  0  0  0  0  0
  190.8010  172.7610  144.1020 N   0  0  0  0  0  0  0  0  0  0  0  0
  190.3830  174.5350  145.7430 O   0  0  0  0  0  1  0  0  0  0  0  0
  192.4970  174.1020  144.9910 O   0  0  0  0  0  0  0  0  0  0  0  0
  1 20  1  0  0  0  0
  1 21  1  6  0  0  0
  2 17  1  0  0  0  0
  3 14  1  0  0  0  0
  4  9  2  0  0  0  0
  5  7  1  0  0  0  0
  6 16  1  0  0  0  0
  7  4  1  0  0  0  0
  7  2  2  0  0  0  0
  8 12  2  0  0  0  0
  9  6  1  0  0  0  0
 10 14  2  0  0  0  0
 10 20  1  0  0  0  0
 11  5  1  0  0  0  0
 12  4  1  0  0  0  0
 13 15  1  0  0  0  0
 13 19  1  0  0  0  0
 14 18  1  0  0  0  0
 15 10  1  0  0  0  0
 17  6  2  0  0  0  0
 18  8  1  0  0  0  0
 18  5  2  0  0  0  0
 19  1  1  0  0  0  0
 20 11  2  0  0  0  0
 21 22  1  1  0  0  0
 21 23  1  0  0  0  0
 23 26  1  0  0  0  0
 24 28  2  0  0  0  0
 24 27  1  0  0  0  0
 25 26  1  0  0  0  0
 26 24  1  0  0  0  0
M  END
>  <MODEL>
4

>  <REMARK>
 VINA RESULT:      -7.4      2.450      5.722
  Name = 
  3 active torsions:
  status: ('A' for Active; 'I' for Inactive)
    1  A    between atoms: C_1  and  C_2
    2  A    between atoms: C_2  and  C_3
    3  A    between atoms: C_3  and  N_11
                            x       y       z     vdW  Elec       q    Type
                         _______ _______ _______ _____ _____    ______ ____

>  <TORSDO>
F 3

$$$$
=
 OpenBabel11052418093D

 28 31  0  0  1  0  0  0  0  0999 V2000
  192.6410  176.5980  144.2660 C   0  0  1  0  0  3  0  0  0  0  0  0
  187.7960  177.9720  145.4820 C   0  0  0  0  0  3  0  0  0  0  0  0
  189.7710  174.1650  140.9270 C   0  0  0  0  0  1  0  0  0  0  0  0
  186.4330  176.7910  143.8530 C   0  0  0  0  0  0  0  0  0  0  0  0
  188.8630  176.5320  143.7980 C   0  0  0  0  0  0  0  0  0  0  0  0
  185.3870  178.2110  145.5140 C   0  0  0  0  0  0  0  0  0  0  0  0
  187.7090  177.1010  144.3820 C   0  0  0  0  0  0  0  0  0  0  0  0
  187.4540  175.3690  142.1850 C   0  0  0  0  0  3  0  0  0  0  0  0
  185.2830  177.3470  144.4210 C   0  0  0  0  0  3  0  0  0  0  0  0
  191.1510  175.3810  142.6240 C   0  0  0  0  0  0  0  0  0  0  0  0
  190.1410  176.8190  144.2960 C   0  0  0  0  0  3  0  0  0  0  0  0
  186.3160  175.9310  142.7630 C   0  0  0  0  0  3  0  0  0  0  0  0
  193.5670  174.8630  142.6790 C   0  0  0  0  0  2  0  0  0  0  0  0
  189.8810  175.0880  142.1020 C   0  0  0  0  0  0  0  0  0  0  0  0
  192.2960  174.8250  142.0360 O   0  0  0  0  0  0  0  0  0  0  0  0
  184.2420  178.7590  146.0740 O   0  0  0  0  0  1  0  0  0  0  0  0
  186.6410  178.5230  146.0440 C   0  0  0  0  0  3  0  0  0  0  0  0
  188.7320  175.6570  142.6880 C   0  0  0  0  0  0  0  0  0  0  0  0
  193.7980  176.2210  143.3280 C   0  0  0  0  0  2  0  0  0  0  0  0
  191.2780  176.2490  143.7240 C   0  0  0  0  0  0  0  0  0  0  0  0
  192.8480  176.2360  145.7500 C   0  0  2  0  0  3  0  0  0  0  0  0
  194.2730  176.4460  146.2310 C   0  0  0  0  0  1  0  0  0  0  0  0
  192.2040  174.9410  146.2700 C   0  0  0  0  0  2  0  0  0  0  0  0
  189.7620  174.5380  146.7630 C   0  0  0  0  0  0  0  0  0  0  0  0
  191.1940  175.7740  148.3880 C   0  0  0  0  0  1  0  0  0  0  0  0
  191.0110  175.1670  147.0790 N   0  0  0  0  0  0  0  0  0  0  0  0
  189.6840  173.5930  145.7470 O   0  0  0  0  0  0  0  0  0  0  0  0
  188.7240  174.8220  147.4190 O   0  0  0  0  0  1  0  0  0  0  0  0
  1 21  1  1  0  0  0
  2 17  1  0  0  0  0
  3 14  1  0  0  0  0
  4  7  1  0  0  0  0
  4  9  2  0  0  0  0
  5 11  1  0  0  0  0
  5  7  1  0  0  0  0
  6 17  2  0  0  0  0
  6 16  1  0  0  0  0
  7  2  2  0  0  0  0
  8 18  1  0  0  0  0
  8 12  2  0  0  0  0
  9  6  1  0  0  0  0
 10 20  1  0  0  0  0
 12  4  1  0  0  0  0
 13 19  1  0  0  0  0
 14 10  2  0  0  0  0
 14 18  1  0  0  0  0
 15 10  1  0  0  0  0
 15 13  1  0  0  0  0
 18  5  2  0  0  0  0
 19  1  1  0  0  0  0
 20  1  1  0  0  0  0
 20 11  2  0  0  0  0
 21 22  1  6  0  0  0
 21 23  1  0  0  0  0
 23 26  1  0  0  0  0
 24 26  1  0  0  0  0
 24 28  1  0  0  0  0
 26 25  1  0  0  0  0
 27 24  2  0  0  0  0
M  END
>  <MODEL>
5

>  <REMARK>
 VINA RESULT:      -7.4      2.162      6.694
  Name = 
  3 active torsions:
  status: ('A' for Active; 'I' for Inactive)
    1  A    between atoms: C_1  and  C_2
    2  A    between atoms: C_2  and  C_3
    3  A    between atoms: C_3  and  N_11
                            x       y       z     vdW  Elec       q    Type
                         _______ _______ _______ _____ _____    ______ ____

>  <TORSDO>
F 3

$$$$
=
 OpenBabel11052418093D

 28 31  0  0  1  0  0  0  0  0999 V2000
  190.2550  176.3090  145.2240 C   0  0  1  0  0  3  0  0  0  0  0  0
  186.2760  177.3930  142.0900 C   0  0  0  0  0  3  0  0  0  0  0  0
  186.9200  178.6340  148.1870 C   0  0  0  0  0  1  0  0  0  0  0  0
  184.6790  178.5070  143.5440 C   0  0  0  0  0  0  0  0  0  0  0  0
  186.8120  177.7460  144.4630 C   0  0  0  0  0  0  0  0  0  0  0  0
  184.1560  178.1580  141.2050 C   0  0  0  0  0  0  0  0  0  0  0  0
  185.9340  177.8760  143.3640 C   0  0  0  0  0  0  0  0  0  0  0  0
  185.1790  178.8670  145.8820 C   0  0  0  0  0  3  0  0  0  0  0  0
  183.8010  178.6440  142.4650 C   0  0  0  0  0  3  0  0  0  0  0  0
  188.5530  177.5010  146.6650 C   0  0  0  0  0  0  0  0  0  0  0  0
  188.0610  177.1250  144.3200 C   0  0  0  0  0  3  0  0  0  0  0  0
  184.3130  178.9960  144.7970 C   0  0  0  0  0  3  0  0  0  0  0  0
  190.7870  177.0020  147.5960 C   0  0  0  0  0  2  0  0  0  0  0  0
  187.3020  178.1170  146.8340 C   0  0  0  0  0  0  0  0  0  0  0  0
  189.4180  177.3610  147.7590 O   0  0  0  0  0  0  0  0  0  0  0  0
  183.2800  178.2960  140.1380 O   0  0  0  0  0  1  0  0  0  0  0  0
  185.3910  177.5340  141.0170 C   0  0  0  0  0  3  0  0  0  0  0  0
  186.4290  178.2460  145.7350 C   0  0  0  0  0  0  0  0  0  0  0  0
  190.9310  175.9090  146.5450 C   0  0  0  0  0  2  0  0  0  0  0  0
  188.9300  177.0040  145.4050 C   0  0  0  0  0  0  0  0  0  0  0  0
  191.1800  176.9610  144.1790 C   0  0  2  0  0  3  0  0  0  0  0  0
  190.9510  178.4540  144.0150 C   0  0  0  0  0  1  0  0  0  0  0  0
  191.3990  176.2190  142.8510 C   0  0  0  0  0  2  0  0  0  0  0  0
  192.6960  174.0790  143.1800 C   0  0  0  0  0  0  0  0  0  0  0  0
  193.7550  176.0420  142.0650 C   0  0  0  0  0  1  0  0  0  0  0  0
  192.6460  175.4620  142.8050 N   0  0  0  0  0  0  0  0  0  0  0  0
  191.5290  173.3850  143.4790 O   0  0  0  0  0  1  0  0  0  0  0  0
  193.7990  173.4720  143.2230 O   0  0  0  0  0  0  0  0  0  0  0  0
  1 21  1  1  0  0  0
  1 20  1  0  0  0  0
  1 19  1  0  0  0  0
  2  7  1  0  0  0  0
  4 12  1  0  0  0  0
  5 18  1  0  0  0  0
  6  9  2  0  0  0  0
  7  4  2  0  0  0  0
  7  5  1  0  0  0  0
  9  4  1  0  0  0  0
 10 14  1  0  0  0  0
 10 15  1  0  0  0  0
 11  5  2  0  0  0  0
 11 20  1  0  0  0  0
 12  8  2  0  0  0  0
 13 15  1  0  0  0  0
 14  3  1  0  0  0  0
 16  6  1  0  0  0  0
 17  6  1  0  0  0  0
 17  2  2  0  0  0  0
 18  8  1  0  0  0  0
 18 14  2  0  0  0  0
 19 13  1  0  0  0  0
 20 10  2  0  0  0  0
 21 22  1  6  0  0  0
 23 21  1  0  0  0  0
 24 28  2  0  0  0  0
 24 27  1  0  0  0  0
 25 26  1  0  0  0  0
 26 23  1  0  0  0  0
 26 24  1  0  0  0  0
M  END
>  <MODEL>
6

>  <REMARK>
 VINA RESULT:      -7.4      2.226      6.116
  Name = 
  3 active torsions:
  status: ('A' for Active; 'I' for Inactive)
    1  A    between atoms: C_1  and  C_2
    2  A    between atoms: C_2  and  C_3
    3  A    between atoms: C_3  and  N_11
                            x       y       z     vdW  Elec       q    Type
                         _______ _______ _______ _____ _____    ______ ____

>  <TORSDO>
F 3

$$$$
=
 OpenBabel11052418093D

 28 31  0  0  1  0  0  0  0  0999 V2000
  189.1010  177.3670  143.5290 C   0  0  1  0  0  3  0  0  0  0  0  0
  194.0530  176.3520  142.3940 C   0  0  0  0  0  3  0  0  0  0  0  0
  191.2070  176.2730  147.9640 C   0  0  0  0  0  1  0  0  0  0  0  0
  195.0470  175.8340  144.5500 C   0  0  0  0  0  0  0  0  0  0  0  0
  192.6720  176.3990  144.4280 C   0  0  0  0  0  0  0  0  0  0  0  0
  196.4020  175.7880  142.5430 C   0  0  0  0  0  0  0  0  0  0  0  0
  193.9130  176.1990  143.7840 C   0  0  0  0  0  0  0  0  0  0  0  0
  193.7140  175.8730  146.5670 C   0  0  0  0  0  3  0  0  0  0  0  0
  196.2810  175.6310  143.9260 C   0  0  0  0  0  3  0  0  0  0  0  0
  190.2040  176.7890  145.7300 C   0  0  0  0  0  0  0  0  0  0  0  0
  191.5310  176.7620  143.7000 C   0  0  0  0  0  3  0  0  0  0  0  0
  194.9390  175.6750  145.9310 C   0  0  0  0  0  3  0  0  0  0  0  0
  187.7510  177.0860  145.6480 C   0  0  0  0  0  2  0  0  0  0  0  0
  191.3360  176.4360  146.4810 C   0  0  0  0  0  0  0  0  0  0  0  0
  188.9750  177.0000  146.3720 O   0  0  0  0  0  0  0  0  0  0  0  0
  197.6300  175.5860  141.9290 O   0  0  0  0  0  1  0  0  0  0  0  0
  195.2900  176.1470  141.7780 C   0  0  0  0  0  3  0  0  0  0  0  0
  192.5730  176.2350  145.8340 C   0  0  0  0  0  0  0  0  0  0  0  0
  187.9390  177.9060  144.3780 C   0  0  0  0  0  2  0  0  0  0  0  0
  190.3040  176.9520  144.3370 C   0  0  0  0  0  0  0  0  0  0  0  0
  188.7040  176.3730  142.4200 C   0  0  2  0  0  3  0  0  0  0  0  0
  187.7170  176.9470  141.4180 C   0  0  0  0  0  1  0  0  0  0  0  0
  188.3980  174.9240  142.8300 C   0  0  0  0  0  2  0  0  0  0  0  0
  190.1860  173.3030  143.5660 C   0  0  0  0  0  0  0  0  0  0  0  0
  189.6000  173.5310  141.1530 C   0  0  0  0  0  1  0  0  0  0  0  0
  189.4790  173.9920  142.5270 N   0  0  0  0  0  0  0  0  0  0  0  0
  189.7770  173.4090  144.8900 O   0  0  0  0  0  1  0  0  0  0  0  0
  191.1760  172.5760  143.2860 O   0  0  0  0  0  0  0  0  0  0  0  0
  1 21  1  1  0  0  0
  1 20  1  0  0  0  0
  1 19  1  0  0  0  0
  2  7  1  0  0  0  0
  4 12  1  0  0  0  0
  5 18  1  0  0  0  0
  6  9  2  0  0  0  0
  7  5  1  0  0  0  0
  7  4  2  0  0  0  0
  9  4  1  0  0  0  0
 10 15  1  0  0  0  0
 10 14  1  0  0  0  0
 11 20  1  0  0  0  0
 11  5  2  0  0  0  0
 12  8  2  0  0  0  0
 13 15  1  0  0  0  0
 14  3  1  0  0  0  0
 16  6  1  0  0  0  0
 17  2  2  0  0  0  0
 17  6  1  0  0  0  0
 18 14  2  0  0  0  0
 18  8  1  0  0  0  0
 19 13  1  0  0  0  0
 20 10  2  0  0  0  0
 21 22  1  1  0  0  0
 21 23  1  0  0  0  0
 24 27  1  0  0  0  0
 25 26  1  0  0  0  0
 26 23  1  0  0  0  0
 26 24  1  0  0  0  0
 28 24  2  0  0  0  0
M  END
>  <MODEL>
7

>  <REMARK>
 VINA RESULT:      -7.4      1.776      3.044
  Name = 
  3 active torsions:
  status: ('A' for Active; 'I' for Inactive)
    1  A    between atoms: C_1  and  C_2
    2  A    between atoms: C_2  and  C_3
    3  A    between atoms: C_3  and  N_11
                            x       y       z     vdW  Elec       q    Type
                         _______ _______ _______ _____ _____    ______ ____

>  <TORSDO>
F 3

$$$$
=
 OpenBabel11052418093D

 28 31  0  0  1  0  0  0  0  0999 V2000
  188.6430  177.3750  144.3190 C   0  0  1  0  0  3  0  0  0  0  0  0
  193.3460  176.4010  142.3770 C   0  0  0  0  0  3  0  0  0  0  0  0
  191.5020  176.4580  148.3550 C   0  0  0  0  0  1  0  0  0  0  0  0
  194.7060  175.9690  144.3430 C   0  0  0  0  0  0  0  0  0  0  0  0
  192.3350  176.4930  144.6170 C   0  0  0  0  0  0  0  0  0  0  0  0
  195.6970  175.8790  142.1350 C   0  0  0  0  0  0  0  0  0  0  0  0
  193.4500  176.2910  143.7740 C   0  0  0  0  0  0  0  0  0  0  0  0
  193.7400  176.0530  146.5580 C   0  0  0  0  0  3  0  0  0  0  0  0
  195.8190  175.7660  143.5210 C   0  0  0  0  0  3  0  0  0  0  0  0
  190.1200  176.8850  146.3130 C   0  0  0  0  0  0  0  0  0  0  0  0
  191.0780  176.8140  144.0860 C   0  0  0  0  0  3  0  0  0  0  0  0
  194.8410  175.8530  145.7260 C   0  0  0  0  0  3  0  0  0  0  0  0
  187.6840  177.1420  146.6460 C   0  0  0  0  0  2  0  0  0  0  0  0
  191.3720  176.5750  146.8670 C   0  0  0  0  0  0  0  0  0  0  0  0
  189.0160  177.0980  147.1500 O   0  0  0  0  0  0  0  0  0  0  0  0
  196.8050  175.6760  141.3240 O   0  0  0  0  0  1  0  0  0  0  0  0
  194.4630  176.1960  141.5630 C   0  0  0  0  0  3  0  0  0  0  0  0
  192.4830  176.3730  146.0230 C   0  0  0  0  0  0  0  0  0  0  0  0
  187.6330  177.9230  145.3400 C   0  0  0  0  0  2  0  0  0  0  0  0
  189.9750  177.0050  144.9190 C   0  0  0  0  0  0  0  0  0  0  0  0
  188.0820  176.3400  143.3250 C   0  0  2  0  0  3  0  0  0  0  0  0
  188.7740  174.9900  143.4010 C   0  0  0  0  0  1  0  0  0  0  0  0
  187.7930  176.8060  141.8890 C   0  0  0  0  0  2  0  0  0  0  0  0
  185.9510  177.6850  140.4050 C   0  0  0  0  0  0  0  0  0  0  0  0
  185.4810  177.0680  142.7750 C   0  0  0  0  0  1  0  0  0  0  0  0
  186.4310  177.2950  141.6980 N   0  0  0  0  0  0  0  0  0  0  0  0
  186.7320  177.4890  139.2720 O   0  0  0  0  0  0  0  0  0  0  0  0
  184.8050  178.1930  140.2790 O   0  0  0  0  0  1  0  0  0  0  0  0
  1 21  1  1  0  0  0
  1 20  1  0  0  0  0
  1 19  1  0  0  0  0
  2  7  1  0  0  0  0
  4 12  1  0  0  0  0
  5 18  1  0  0  0  0
  6  9  2  0  0  0  0
  7  4  2  0  0  0  0
  7  5  1  0  0  0  0
  9  4  1  0  0  0  0
 10 14  1  0  0  0  0
 10 15  1  0  0  0  0
 11  5  2  0  0  0  0
 11 20  1  0  0  0  0
 12  8  2  0  0  0  0
 13 15  1  0  0  0  0
 14  3  1  0  0  0  0
 16  6  1  0  0  0  0
 17  6  1  0  0  0  0
 17  2  2  0  0  0  0
 18  8  1  0  0  0  0
 18 14  2  0  0  0  0
 19 13  1  0  0  0  0
 20 10  2  0  0  0  0
 21 22  1  6  0  0  0
 23 21  1  0  0  0  0
 24 26  1  0  0  0  0
 26 23  1  0  0  0  0
 26 25  1  0  0  0  0
 27 24  2  0  0  0  0
 28 24  1  0  0  0  0
M  END
>  <MODEL>
8

>  <REMARK>
 VINA RESULT:      -7.3      2.244      3.866
  Name = 
  3 active torsions:
  status: ('A' for Active; 'I' for Inactive)
    1  A    between atoms: C_1  and  C_2
    2  A    between atoms: C_2  and  C_3
    3  A    between atoms: C_3  and  N_11
                            x       y       z     vdW  Elec       q    Type
                         _______ _______ _______ _____ _____    ______ ____

>  <TORSDO>
F 3

$$$$
=
 OpenBabel11052418093D

 28 31  0  0  1  0  0  0  0  0999 V2000
  186.9640  178.5920  145.6070 C   0  0  1  0  0  3  0  0  0  0  0  0
  191.3740  177.4130  143.1590 C   0  0  0  0  0  3  0  0  0  0  0  0
  188.5270  174.3490  147.8110 C   0  0  0  0  0  1  0  0  0  0  0  0
  192.1100  175.3680  144.2450 C   0  0  0  0  0  0  0  0  0  0  0  0
  190.0340  176.4320  144.9720 C   0  0  0  0  0  0  0  0  0  0  0  0
  193.4260  176.3380  142.4580 C   0  0  0  0  0  0  0  0  0  0  0  0
  191.1640  176.4140  144.1240 C   0  0  0  0  0  0  0  0  0  0  0  0
  190.8140  174.3800  146.0310 C   0  0  0  0  0  3  0  0  0  0  0  0
  193.2330  175.3370  143.4120 C   0  0  0  0  0  3  0  0  0  0  0  0
  187.7830  176.4470  146.6670 C   0  0  0  0  0  0  0  0  0  0  0  0
  189.0790  177.4540  144.8810 C   0  0  0  0  0  3  0  0  0  0  0  0
  191.9280  174.3630  145.1930 C   0  0  0  0  0  3  0  0  0  0  0  0
  185.5490  177.3160  147.2680 C   0  0  0  0  0  2  0  0  0  0  0  0
  188.7330  175.4200  146.7840 C   0  0  0  0  0  0  0  0  0  0  0  0
  186.6690  176.4710  147.5170 O   0  0  0  0  0  0  0  0  0  0  0  0
  194.5430  176.3020  141.6340 O   0  0  0  0  0  1  0  0  0  0  0  0
  192.4990  177.3740  142.3300 C   0  0  0  0  0  3  0  0  0  0  0  0
  189.8590  175.4040  145.9350 C   0  0  0  0  0  0  0  0  0  0  0  0
  186.0100  178.6920  146.8080 C   0  0  0  0  0  2  0  0  0  0  0  0
  187.9590  177.4660  145.7130 C   0  0  0  0  0  0  0  0  0  0  0  0
  186.3000  178.7290  144.2230 C   0  0  2  0  0  3  0  0  0  0  0  0
  185.5140  180.0180  144.0530 C   0  0  0  0  0  1  0  0  0  0  0  0
  185.5970  177.4940  143.6390 C   0  0  0  0  0  2  0  0  0  0  0  0
  184.1430  177.9600  141.6300 C   0  0  0  0  0  0  0  0  0  0  0  0
  186.5860  177.5450  141.3550 C   0  0  0  0  0  1  0  0  0  0  0  0
  185.4000  177.5640  142.1950 N   0  0  0  0  0  0  0  0  0  0  0  0
  183.1120  178.4100  142.4450 O   0  0  0  0  0  1  0  0  0  0  0  0
  183.9670  177.9220  140.3830 O   0  0  0  0  0  0  0  0  0  0  0  0
  1 21  1  6  0  0  0
  1 20  1  0  0  0  0
  1 19  1  0  0  0  0
  2  7  1  0  0  0  0
  4 12  1  0  0  0  0
  5 18  1  0  0  0  0
  6  9  2  0  0  0  0
  7  4  2  0  0  0  0
  7  5  1  0  0  0  0
  9  4  1  0  0  0  0
 10 14  1  0  0  0  0
 10 15  1  0  0  0  0
 11  5  2  0  0  0  0
 11 20  1  0  0  0  0
 12  8  2  0  0  0  0
 13 15  1  0  0  0  0
 14  3  1  0  0  0  0
 16  6  1  0  0  0  0
 17  6  1  0  0  0  0
 17  2  2  0  0  0  0
 18  8  1  0  0  0  0
 18 14  2  0  0  0  0
 19 13  1  0  0  0  0
 20 10  2  0  0  0  0
 21 22  1  1  0  0  0
 23 21  1  0  0  0  0
 24 26  1  0  0  0  0
 24 27  1  0  0  0  0
 25 26  1  0  0  0  0
 26 23  1  0  0  0  0
 28 24  2  0  0  0  0
M  END
>  <MODEL>
9

>  <REMARK>
 VINA RESULT:      -7.2      2.513      3.752
  Name = 
  3 active torsions:
  status: ('A' for Active; 'I' for Inactive)
    1  A    between atoms: C_1  and  C_2
    2  A    between atoms: C_2  and  C_3
    3  A    between atoms: C_3  and  N_11
                            x       y       z     vdW  Elec       q    Type
                         _______ _______ _______ _____ _____    ______ ____

>  <TORSDO>
F 3

$$$$
