=
 OpenBabel11052419213D

 32 34  0  0  1  0  0  0  0  0999 V2000
  187.6780  177.8520  144.3850 C   0  0  0  0  0  2  0  0  0  0  0  0
  186.1930  176.8820  142.4400 C   0  0  2  0  0  3  0  0  0  0  0  0
  186.3760  178.3850  142.3630 C   0  0  0  0  0  2  0  0  0  0  0  0
  186.2940  177.7180  143.7240 C   0  0  2  0  0  3  0  0  0  0  0  0
  187.4300  176.0930  142.0810 C   0  0  0  0  0  0  0  0  0  0  0  0
  188.1940  176.4760  141.1530 O   0  0  0  0  0  0  0  0  0  0  0  0
  187.7430  174.9050  142.7570 O   0  0  0  0  0  0  0  0  0  0  0  0
  188.8750  174.0750  142.4730 C   0  0  1  0  0  3  0  0  0  0  0  0
  189.5890  173.6130  143.7420 C   0  0  0  0  0  2  0  0  0  0  0  0
  190.9030  172.9270  143.4180 C   0  0  2  0  0  3  0  0  0  0  0  0
  191.4650  172.4010  144.5820 O   0  0  0  0  0  1  0  0  0  0  0  0
  191.8550  173.9380  142.8170 C   0  0  0  0  0  1  0  0  0  0  0  0
  188.4700  172.8890  141.6060 C   0  0  0  0  0  2  0  0  0  0  0  0
  189.8320  173.8530  139.9020 O   0  0  0  0  0  0  0  0  0  0  0  0
  188.0770  172.5380  139.1370 N   0  0  0  0  0  1  0  0  0  0  0  0
  188.8470  173.1200  140.1820 C   0  0  0  0  0  0  0  0  0  0  0  0
  187.6750  177.6970  145.8530 N   0  0  0  0  0  0  0  0  0  0  0  0
  188.9220  177.1710  146.2840 N   0  0  0  0  0  0  0  0  0  0  0  0
  188.7270  175.7440  146.5810 C   0  0  0  0  0  2  0  0  0  0  0  0
  193.5630  176.3240  145.1670 C   0  0  0  0  0  3  0  0  0  0  0  0
  189.8730  177.2150  145.1580 C   0  0  0  0  0  2  0  0  0  0  0  0
  192.4300  174.9210  146.7850 C   0  0  0  0  0  3  0  0  0  0  0  0
  191.2160  175.5410  146.4780 C   0  0  0  0  0  0  0  0  0  0  0  0
  189.9790  175.1630  147.2380 C   0  0  0  0  0  2  0  0  0  0  0  0
  191.1820  176.5790  145.5270 C   0  0  0  0  0  0  0  0  0  0  0  0
  193.6020  175.3110  146.1290 C   0  0  0  0  0  3  0  0  0  0  0  0
  192.3530  176.9550  144.8630 C   0  0  0  0  0  3  0  0  0  0  0  0
  186.5770  176.7970  146.2340 C   0  0  0  0  0  2  0  0  0  0  0  0
  185.6540  177.4830  147.2270 C   0  0  1  0  0  3  0  0  0  0  0  0
  186.2480  178.8150  147.6510 C   0  0  0  0  0  1  0  0  0  0  0  0
  184.2030  179.0180  146.1160 O   0  0  0  0  0  1  0  0  0  0  0  0
  184.3020  177.7040  146.5770 C   0  0  0  0  0  2  0  0  0  0  0  0
  1 17  1  0  0  0  0
  2  5  1  1  0  0  0
  2  4  1  0  0  0  0
  3  2  1  0  0  0  0
  3  4  1  0  0  0  0
  4  1  1  1  0  0  0
  5  7  1  0  0  0  0
  6  5  2  0  0  0  0
  8 13  1  1  0  0  0
  8  7  1  0  0  0  0
  8  9  1  0  0  0  0
 10 12  1  1  0  0  0
 10  9  1  0  0  0  0
 10 11  1  0  0  0  0
 14 16  2  0  0  0  0
 15 16  1  0  0  0  0
 16 13  1  0  0  0  0
 17 28  1  0  0  0  0
 17 18  1  0  0  0  0
 18 19  1  0  0  0  0
 19 24  1  0  0  0  0
 20 26  1  0  0  0  0
 21 25  1  0  0  0  0
 21 18  1  0  0  0  0
 23 22  1  0  0  0  0
 23 24  1  0  0  0  0
 25 23  2  0  0  0  0
 26 22  2  0  0  0  0
 27 20  2  0  0  0  0
 27 25  1  0  0  0  0
 28 29  1  0  0  0  0
 29 30  1  6  0  0  0
 31 32  1  0  0  0  0
 32 29  1  0  0  0  0
M  END
>  <MODEL>
1

>  <REMARK>
 VINA RESULT:      -6.3      0.000      0.000
  Name = 
  13 active torsions:
  status: ('A' for Active; 'I' for Inactive)
    1  A    between atoms: C_1  and  N_5
    2  A    between atoms: C_1  and  C_30
    3  A    between atoms: N_2  and  N_5
    4  A    between atoms: C_3  and  C_8
    5  A    between atoms: C_3  and  C_20
    6  A    between atoms: C_4  and  C_24
    7  A    between atoms: N_5  and  C_14
    8  A    between atoms: C_13  and  C_14
    9  A    between atoms: C_13  and  C_29
   10  A    between atoms: C_15  and  C_20
   11  A    between atoms: C_15  and  C_26
   12  A    between atoms: O_16  and  C_20
   13  A    between atoms: O_16  and  C_24
                            x       y       z     vdW  Elec       q    Type
                         _______ _______ _______ _____ _____    ______ ____

>  <TORSDO>
F 13

$$$$
=
 OpenBabel11052419213D

 32 34  0  0  1  0  0  0  0  0999 V2000
  189.4050  176.3300  142.7830 C   0  0  0  0  0  2  0  0  0  0  0  0
  191.6470  177.6600  143.1510 C   0  0  2  0  0  3  0  0  0  0  0  0
  190.5300  178.0990  144.0770 C   0  0  0  0  0  2  0  0  0  0  0  0
  190.1890  177.6500  142.6670 C   0  0  2  0  0  3  0  0  0  0  0  0
  192.2280  176.3070  143.4860 C   0  0  0  0  0  0  0  0  0  0  0  0
  192.9750  175.7040  142.6670 O   0  0  0  0  0  0  0  0  0  0  0  0
  191.9310  175.6810  144.7060 O   0  0  0  0  0  0  0  0  0  0  0  0
  192.7420  175.7560  145.8840 C   0  0  1  0  0  3  0  0  0  0  0  0
  191.9070  175.7970  147.1620 C   0  0  0  0  0  2  0  0  0  0  0  0
  190.4500  176.0980  146.8620 C   0  0  2  0  0  3  0  0  0  0  0  0
  190.0600  177.2650  147.5200 O   0  0  0  0  0  1  0  0  0  0  0  0
  189.5970  174.9450  147.3420 C   0  0  0  0  0  1  0  0  0  0  0  0
  193.7490  174.6140  145.9190 C   0  0  0  0  0  2  0  0  0  0  0  0
  195.3030  176.2670  145.1860 O   0  0  0  0  0  0  0  0  0  0  0  0
  196.2510  174.2820  145.9310 N   0  0  0  0  0  1  0  0  0  0  0  0
  195.1290  175.1150  145.6630 C   0  0  0  0  0  0  0  0  0  0  0  0
  188.0250  176.3890  142.2630 N   0  0  0  0  0  0  0  0  0  0  0  0
  187.2100  177.1450  143.1470 N   0  0  0  0  0  0  0  0  0  0  0  0
  185.8120  176.9770  142.7210 C   0  0  0  0  0  2  0  0  0  0  0  0
  185.7530  177.8360  147.7190 C   0  0  0  0  0  3  0  0  0  0  0  0
  187.2870  176.5500  144.4940 C   0  0  0  0  0  2  0  0  0  0  0  0
  184.3040  178.4570  145.8780 C   0  0  0  0  0  3  0  0  0  0  0  0
  185.1810  177.8460  144.9780 C   0  0  0  0  0  0  0  0  0  0  0  0
  184.9010  177.9210  143.5060 C   0  0  0  0  0  2  0  0  0  0  0  0
  186.3650  177.2500  145.4510 C   0  0  0  0  0  0  0  0  0  0  0  0
  184.5880  178.4500  147.2480 C   0  0  0  0  0  3  0  0  0  0  0  0
  186.6390  177.2320  146.8220 C   0  0  0  0  0  3  0  0  0  0  0  0
  187.5090  175.0190  142.1310 C   0  0  0  0  0  2  0  0  0  0  0  0
  188.6010  174.0910  141.6280 C   0  0  1  0  0  3  0  0  0  0  0  0
  188.4170  172.7050  142.2200 C   0  0  0  0  0  1  0  0  0  0  0  0
  188.0910  172.7550  139.7170 O   0  0  0  0  0  1  0  0  0  0  0  0
  188.5330  174.0180  140.1140 C   0  0  0  0  0  2  0  0  0  0  0  0
  2  5  1  1  0  0  0
  2  3  1  0  0  0  0
  4  1  1  1  0  0  0
  4  2  1  0  0  0  0
  4  3  1  0  0  0  0
  5  7  1  0  0  0  0
  6  5  2  0  0  0  0
  7  8  1  0  0  0  0
  8 13  1  1  0  0  0
  8  9  1  0  0  0  0
 10  9  1  0  0  0  0
 10 12  1  1  0  0  0
 10 11  1  0  0  0  0
 14 16  2  0  0  0  0
 16 13  1  0  0  0  0
 16 15  1  0  0  0  0
 17  1  1  0  0  0  0
 17 18  1  0  0  0  0
 18 21  1  0  0  0  0
 19 18  1  0  0  0  0
 19 24  1  0  0  0  0
 21 25  1  0  0  0  0
 22 26  2  0  0  0  0
 23 25  2  0  0  0  0
 23 22  1  0  0  0  0
 24 23  1  0  0  0  0
 25 27  1  0  0  0  0
 26 20  1  0  0  0  0
 27 20  2  0  0  0  0
 28 17  1  0  0  0  0
 29 28  1  0  0  0  0
 29 30  1  1  0  0  0
 31 32  1  0  0  0  0
 32 29  1  0  0  0  0
M  END
>  <MODEL>
2

>  <REMARK>
 VINA RESULT:      -6.3      2.626      6.496
  Name = 
  13 active torsions:
  status: ('A' for Active; 'I' for Inactive)
    1  A    between atoms: C_1  and  N_5
    2  A    between atoms: C_1  and  C_30
    3  A    between atoms: N_2  and  N_5
    4  A    between atoms: C_3  and  C_8
    5  A    between atoms: C_3  and  C_20
    6  A    between atoms: C_4  and  C_24
    7  A    between atoms: N_5  and  C_14
    8  A    between atoms: C_13  and  C_14
    9  A    between atoms: C_13  and  C_29
   10  A    between atoms: C_15  and  C_20
   11  A    between atoms: C_15  and  C_26
   12  A    between atoms: O_16  and  C_20
   13  A    between atoms: O_16  and  C_24
                            x       y       z     vdW  Elec       q    Type
                         _______ _______ _______ _____ _____    ______ ____

>  <TORSDO>
F 13

$$$$
=
 OpenBabel11052419213D

 32 34  0  0  1  0  0  0  0  0999 V2000
  187.1490  176.5930  144.3850 C   0  0  0  0  0  2  0  0  0  0  0  0
  186.3970  177.6680  142.1030 C   0  0  2  0  0  3  0  0  0  0  0  0
  186.4020  178.6510  143.2570 C   0  0  0  0  0  2  0  0  0  0  0  0
  186.0310  177.2020  143.5200 C   0  0  2  0  0  3  0  0  0  0  0  0
  187.7750  177.2710  141.6260 C   0  0  0  0  0  0  0  0  0  0  0  0
  188.7580  178.0490  141.7730 O   0  0  0  0  0  0  0  0  0  0  0  0
  187.9860  176.0390  140.9900 O   0  0  0  0  0  0  0  0  0  0  0  0
  188.4650  174.8550  141.6370 C   0  0  1  0  0  3  0  0  0  0  0  0
  188.2200  173.5990  140.8030 C   0  0  0  0  0  2  0  0  0  0  0  0
  188.9830  173.6470  139.4930 C   0  0  2  0  0  3  0  0  0  0  0  0
  188.0980  173.8540  138.4340 O   0  0  0  0  0  1  0  0  0  0  0  0
  189.7050  172.3330  139.2910 C   0  0  0  0  0  1  0  0  0  0  0  0
  189.9380  174.9980  142.0000 C   0  0  0  0  0  2  0  0  0  0  0  0
  189.5110  173.6480  143.9180 O   0  0  0  0  0  0  0  0  0  0  0  0
  191.6430  173.4400  143.0190 N   0  0  0  0  0  1  0  0  0  0  0  0
  190.3310  173.9910  143.0260 C   0  0  0  0  0  0  0  0  0  0  0  0
  187.3340  177.2430  145.6970 N   0  0  0  0  0  0  0  0  0  0  0  0
  188.6370  176.9680  146.1910 N   0  0  0  0  0  0  0  0  0  0  0  0
  188.6380  175.5900  146.7070 C   0  0  0  0  0  2  0  0  0  0  0  0
  193.3630  176.6090  145.1710 C   0  0  0  0  0  3  0  0  0  0  0  0
  189.5860  176.9680  145.0630 C   0  0  0  0  0  2  0  0  0  0  0  0
  192.4170  175.3300  146.9980 C   0  0  0  0  0  3  0  0  0  0  0  0
  191.1320  175.7200  146.6110 C   0  0  0  0  0  0  0  0  0  0  0  0
  189.9510  175.2970  147.4330 C   0  0  0  0  0  2  0  0  0  0  0  0
  190.9660  176.5840  145.5120 C   0  0  0  0  0  0  0  0  0  0  0  0
  193.5310  175.7710  146.2780 C   0  0  0  0  0  3  0  0  0  0  0  0
  192.0810  177.0110  144.7860 C   0  0  0  0  0  3  0  0  0  0  0  0
  186.3130  176.7370  146.6270 C   0  0  0  0  0  2  0  0  0  0  0  0
  185.4960  177.8890  147.1880 C   0  0  1  0  0  3  0  0  0  0  0  0
  186.2050  179.2050  146.9210 C   0  0  0  0  0  1  0  0  0  0  0  0
  183.9820  179.0430  145.7500 O   0  0  0  0  0  1  0  0  0  0  0  0
  184.1300  177.8950  146.5290 C   0  0  0  0  0  2  0  0  0  0  0  0
  1 17  1  0  0  0  0
  2  5  1  1  0  0  0
  2  3  1  0  0  0  0
  2  4  1  0  0  0  0
  3  4  1  0  0  0  0
  4  1  1  1  0  0  0
  5  6  2  0  0  0  0
  7  5  1  0  0  0  0
  7  8  1  0  0  0  0
  8  9  1  6  0  0  0
  8 13  1  0  0  0  0
 10 12  1  6  0  0  0
 10  9  1  0  0  0  0
 11 10  1  0  0  0  0
 13 16  1  0  0  0  0
 15 16  1  0  0  0  0
 16 14  2  0  0  0  0
 17 18  1  0  0  0  0
 17 28  1  0  0  0  0
 18 19  1  0  0  0  0
 19 24  1  0  0  0  0
 20 26  1  0  0  0  0
 21 25  1  0  0  0  0
 21 18  1  0  0  0  0
 23 22  1  0  0  0  0
 23 24  1  0  0  0  0
 25 23  2  0  0  0  0
 26 22  2  0  0  0  0
 27 20  2  0  0  0  0
 27 25  1  0  0  0  0
 28 29  1  0  0  0  0
 29 30  1  6  0  0  0
 31 32  1  0  0  0  0
 32 29  1  0  0  0  0
M  END
>  <MODEL>
3

>  <REMARK>
 VINA RESULT:      -6.0      1.382      2.380
  Name = 
  13 active torsions:
  status: ('A' for Active; 'I' for Inactive)
    1  A    between atoms: C_1  and  N_5
    2  A    between atoms: C_1  and  C_30
    3  A    between atoms: N_2  and  N_5
    4  A    between atoms: C_3  and  C_8
    5  A    between atoms: C_3  and  C_20
    6  A    between atoms: C_4  and  C_24
    7  A    between atoms: N_5  and  C_14
    8  A    between atoms: C_13  and  C_14
    9  A    between atoms: C_13  and  C_29
   10  A    between atoms: C_15  and  C_20
   11  A    between atoms: C_15  and  C_26
   12  A    between atoms: O_16  and  C_20
   13  A    between atoms: O_16  and  C_24
                            x       y       z     vdW  Elec       q    Type
                         _______ _______ _______ _____ _____    ______ ____

>  <TORSDO>
F 13

$$$$
=
 OpenBabel11052419213D

 32 34  0  0  1  0  0  0  0  0999 V2000
  189.7570  176.2880  142.7880 C   0  0  0  0  0  2  0  0  0  0  0  0
  191.6170  178.0130  143.4900 C   0  0  2  0  0  3  0  0  0  0  0  0
  190.3610  178.1080  144.3330 C   0  0  0  0  0  2  0  0  0  0  0  0
  190.2410  177.7470  142.8630 C   0  0  2  0  0  3  0  0  0  0  0  0
  192.4520  176.7840  143.7660 C   0  0  0  0  0  0  0  0  0  0  0  0
  192.9900  176.1430  142.8220 O   0  0  0  0  0  0  0  0  0  0  0  0
  192.6270  176.3170  145.0770 O   0  0  0  0  0  0  0  0  0  0  0  0
  192.1110  175.0810  145.5820 C   0  0  1  0  0  3  0  0  0  0  0  0
  193.2180  174.0780  145.9050 C   0  0  0  0  0  2  0  0  0  0  0  0
  193.4990  173.1670  144.7260 C   0  0  2  0  0  3  0  0  0  0  0  0
  192.3380  172.9890  143.9730 O   0  0  0  0  0  1  0  0  0  0  0  0
  193.9730  171.8250  145.2380 C   0  0  0  0  0  1  0  0  0  0  0  0
  191.2170  175.3240  146.7920 C   0  0  0  0  0  2  0  0  0  0  0  0
  188.8540  175.5740  146.9890 O   0  0  0  0  0  0  0  0  0  0  0  0
  189.5520  173.7690  145.7040 N   0  0  0  0  0  1  0  0  0  0  0  0
  189.8120  174.9170  146.5030 C   0  0  0  0  0  0  0  0  0  0  0  0
  188.4220  176.1140  142.1850 N   0  0  0  0  0  0  0  0  0  0  0  0
  187.4980  177.0010  142.7980 N   0  0  0  0  0  0  0  0  0  0  0  0
  186.3260  177.1070  141.9150 C   0  0  0  0  0  2  0  0  0  0  0  0
  184.7000  177.9060  146.6530 C   0  0  0  0  0  3  0  0  0  0  0  0
  187.0010  176.3880  144.0430 C   0  0  0  0  0  2  0  0  0  0  0  0
  184.1070  178.8130  144.4860 C   0  0  0  0  0  3  0  0  0  0  0  0
  185.1190  178.0550  143.8880 C   0  0  0  0  0  0  0  0  0  0  0  0
  185.3800  178.1990  142.4190 C   0  0  0  0  0  2  0  0  0  0  0  0
  185.9440  177.2390  144.6860 C   0  0  0  0  0  0  0  0  0  0  0  0
  183.8960  178.7360  145.8660 C   0  0  0  0  0  3  0  0  0  0  0  0
  185.7200  177.1540  146.0620 C   0  0  0  0  0  3  0  0  0  0  0  0
  187.9950  174.7190  142.3680 C   0  0  0  0  0  2  0  0  0  0  0  0
  189.0850  173.7690  141.9000 C   0  0  1  0  0  3  0  0  0  0  0  0
  188.8520  172.3860  142.4800 C   0  0  0  0  0  1  0  0  0  0  0  0
  188.0670  172.8260  139.9570 O   0  0  0  0  0  1  0  0  0  0  0  0
  189.0670  173.7030  140.3840 C   0  0  0  0  0  2  0  0  0  0  0  0
  2  5  1  1  0  0  0
  2  3  1  0  0  0  0
  4  1  1  1  0  0  0
  4  2  1  0  0  0  0
  4  3  1  0  0  0  0
  5  7  1  0  0  0  0
  6  5  2  0  0  0  0
  7  8  1  0  0  0  0
  8  9  1  1  0  0  0
  8 13  1  0  0  0  0
 10 12  1  1  0  0  0
 10  9  1  0  0  0  0
 11 10  1  0  0  0  0
 15 16  1  0  0  0  0
 16 13  1  0  0  0  0
 16 14  2  0  0  0  0
 17 28  1  0  0  0  0
 17  1  1  0  0  0  0
 17 18  1  0  0  0  0
 18 21  1  0  0  0  0
 19 24  1  0  0  0  0
 19 18  1  0  0  0  0
 21 25  1  0  0  0  0
 22 26  1  0  0  0  0
 23 22  2  0  0  0  0
 23 25  1  0  0  0  0
 24 23  1  0  0  0  0
 25 27  2  0  0  0  0
 26 20  2  0  0  0  0
 27 20  1  0  0  0  0
 29 28  1  0  0  0  0
 29 30  1  1  0  0  0
 31 32  1  0  0  0  0
 32 29  1  0  0  0  0
M  END
>  <MODEL>
4

>  <REMARK>
 VINA RESULT:      -6.0      2.238      6.270
  Name = 
  13 active torsions:
  status: ('A' for Active; 'I' for Inactive)
    1  A    between atoms: C_1  and  N_5
    2  A    between atoms: C_1  and  C_30
    3  A    between atoms: N_2  and  N_5
    4  A    between atoms: C_3  and  C_8
    5  A    between atoms: C_3  and  C_20
    6  A    between atoms: C_4  and  C_24
    7  A    between atoms: N_5  and  C_14
    8  A    between atoms: C_13  and  C_14
    9  A    between atoms: C_13  and  C_29
   10  A    between atoms: C_15  and  C_20
   11  A    between atoms: C_15  and  C_26
   12  A    between atoms: O_16  and  C_20
   13  A    between atoms: O_16  and  C_24
                            x       y       z     vdW  Elec       q    Type
                         _______ _______ _______ _____ _____    ______ ____

>  <TORSDO>
F 13

$$$$
=
 OpenBabel11052419213D

 32 34  0  0  1  0  0  0  0  0999 V2000
  190.6990  175.3990  145.2050 C   0  0  0  0  0  2  0  0  0  0  0  0
  188.5490  175.6120  146.7080 C   0  0  2  0  0  3  0  0  0  0  0  0
  189.7050  174.9260  147.4080 C   0  0  0  0  0  2  0  0  0  0  0  0
  189.5150  174.7190  145.9160 C   0  0  2  0  0  3  0  0  0  0  0  0
  188.7390  177.0990  146.5210 C   0  0  0  0  0  0  0  0  0  0  0  0
  189.3710  177.7820  147.3720 O   0  0  0  0  0  0  0  0  0  0  0  0
  188.1950  177.7560  145.4070 O   0  0  0  0  0  0  0  0  0  0  0  0
  186.8000  178.0040  145.2030 C   0  0  1  0  0  3  0  0  0  0  0  0
  186.1500  178.6880  146.4050 C   0  0  0  0  0  2  0  0  0  0  0  0
  184.8680  177.9880  146.8130 C   0  0  2  0  0  3  0  0  0  0  0  0
  184.9370  176.6350  146.4790 O   0  0  0  0  0  1  0  0  0  0  0  0
  183.7030  178.6230  146.0850 C   0  0  0  0  0  1  0  0  0  0  0  0
  186.5750  178.8040  143.9260 C   0  0  0  0  0  2  0  0  0  0  0  0
  185.4440  176.8720  143.1050 O   0  0  0  0  0  0  0  0  0  0  0  0
  186.3450  178.2560  141.4720 N   0  0  0  0  0  1  0  0  0  0  0  0
  186.0780  177.9240  142.8300 C   0  0  0  0  0  0  0  0  0  0  0  0
  191.2670  174.6270  144.0820 N   0  0  0  0  0  0  0  0  0  0  0  0
  192.6560  174.4210  144.2940 N   0  0  0  0  0  0  0  0  0  0  0  0
  193.1170  175.4330  145.2580 C   0  0  0  0  0  2  0  0  0  0  0  0
  196.1140  171.3780  145.8060 C   0  0  0  0  0  3  0  0  0  0  0  0
  192.8490  173.1210  144.9620 C   0  0  0  0  0  2  0  0  0  0  0  0
  196.4670  173.7720  145.9310 C   0  0  0  0  0  3  0  0  0  0  0  0
  195.1340  173.9910  145.5720 C   0  0  0  0  0  0  0  0  0  0  0  0
  194.6410  175.3940  145.3790 C   0  0  0  0  0  2  0  0  0  0  0  0
  194.2940  172.8930  145.3020 C   0  0  0  0  0  0  0  0  0  0  0  0
  196.9560  172.4670  146.0510 C   0  0  0  0  0  3  0  0  0  0  0  0
  194.7830  171.5910  145.4370 C   0  0  0  0  0  3  0  0  0  0  0  0
  191.0410  175.3700  142.8330 C   0  0  0  0  0  2  0  0  0  0  0  0
  189.7440  176.1570  142.9160 C   0  0  1  0  0  3  0  0  0  0  0  0
  190.0020  177.6160  142.5810 C   0  0  0  0  0  1  0  0  0  0  0  0
  188.2430  174.3660  142.4300 O   0  0  0  0  0  1  0  0  0  0  0  0
  188.7450  175.5710  141.9360 C   0  0  0  0  0  2  0  0  0  0  0  0
  2  5  1  6  0  0  0
  2  3  1  0  0  0  0
  4  1  1  6  0  0  0
  4  2  1  0  0  0  0
  4  3  1  0  0  0  0
  5  6  2  0  0  0  0
  7  5  1  0  0  0  0
  8 13  1  6  0  0  0
  8  7  1  0  0  0  0
  8  9  1  0  0  0  0
  9 10  1  0  0  0  0
 10 12  1  6  0  0  0
 11 10  1  0  0  0  0
 15 16  1  0  0  0  0
 16 14  2  0  0  0  0
 16 13  1  0  0  0  0
 17 18  1  0  0  0  0
 17  1  1  0  0  0  0
 18 21  1  0  0  0  0
 18 19  1  0  0  0  0
 19 24  1  0  0  0  0
 20 26  1  0  0  0  0
 21 25  1  0  0  0  0
 22 26  2  0  0  0  0
 23 22  1  0  0  0  0
 24 23  1  0  0  0  0
 25 27  1  0  0  0  0
 25 23  2  0  0  0  0
 27 20  2  0  0  0  0
 28 29  1  0  0  0  0
 28 17  1  0  0  0  0
 29 30  1  6  0  0  0
 32 31  1  0  0  0  0
 32 29  1  0  0  0  0
M  END
>  <MODEL>
5

>  <REMARK>
 VINA RESULT:      -6.0      2.752      5.973
  Name = 
  13 active torsions:
  status: ('A' for Active; 'I' for Inactive)
    1  A    between atoms: C_1  and  N_5
    2  A    between atoms: C_1  and  C_30
    3  A    between atoms: N_2  and  N_5
    4  A    between atoms: C_3  and  C_8
    5  A    between atoms: C_3  and  C_20
    6  A    between atoms: C_4  and  C_24
    7  A    between atoms: N_5  and  C_14
    8  A    between atoms: C_13  and  C_14
    9  A    between atoms: C_13  and  C_29
   10  A    between atoms: C_15  and  C_20
   11  A    between atoms: C_15  and  C_26
   12  A    between atoms: O_16  and  C_20
   13  A    between atoms: O_16  and  C_24
                            x       y       z     vdW  Elec       q    Type
                         _______ _______ _______ _____ _____    ______ ____

>  <TORSDO>
F 13

$$$$
=
 OpenBabel11052419213D

 32 34  0  0  1  0  0  0  0  0999 V2000
  190.4970  175.3570  144.9490 C   0  0  0  0  0  2  0  0  0  0  0  0
  188.4430  175.6890  146.5620 C   0  0  2  0  0  3  0  0  0  0  0  0
  189.5760  174.9000  147.1870 C   0  0  0  0  0  2  0  0  0  0  0  0
  189.3000  174.7480  145.7020 C   0  0  2  0  0  3  0  0  0  0  0  0
  188.7360  177.1620  146.4000 C   0  0  0  0  0  0  0  0  0  0  0  0
  189.4510  177.7750  147.2400 O   0  0  0  0  0  0  0  0  0  0  0  0
  188.2010  177.8850  145.3240 O   0  0  0  0  0  0  0  0  0  0  0  0
  186.8200  177.8860  144.9440 C   0  0  1  0  0  3  0  0  0  0  0  0
  186.0090  178.9340  145.7050 C   0  0  0  0  0  2  0  0  0  0  0  0
  185.2120  178.3030  146.8310 C   0  0  2  0  0  3  0  0  0  0  0  0
  185.9360  178.3690  148.0220 O   0  0  0  0  0  1  0  0  0  0  0  0
  184.9360  176.8550  146.4930 C   0  0  0  0  0  1  0  0  0  0  0  0
  186.6760  178.0650  143.4380 C   0  0  0  0  0  2  0  0  0  0  0  0
  187.5330  175.9340  142.8000 O   0  0  0  0  0  0  0  0  0  0  0  0
  188.6700  177.7580  141.9220 N   0  0  0  0  0  1  0  0  0  0  0  0
  187.6300  177.1850  142.7050 C   0  0  0  0  0  0  0  0  0  0  0  0
  191.1360  174.4490  143.9770 N   0  0  0  0  0  0  0  0  0  0  0  0
  192.5330  174.3840  144.2260 N   0  0  0  0  0  0  0  0  0  0  0  0
  192.8630  175.4360  145.2000 C   0  0  0  0  0  2  0  0  0  0  0  0
  196.2390  171.7050  145.8360 C   0  0  0  0  0  3  0  0  0  0  0  0
  192.8390  173.1100  144.9020 C   0  0  0  0  0  2  0  0  0  0  0  0
  196.3450  174.1220  145.9660 C   0  0  0  0  0  3  0  0  0  0  0  0
  195.0070  174.2050  145.5710 C   0  0  0  0  0  0  0  0  0  0  0  0
  194.3790  175.5520  145.3630 C   0  0  0  0  0  2  0  0  0  0  0  0
  194.2900  173.0290  145.2810 C   0  0  0  0  0  0  0  0  0  0  0  0
  196.9600  172.8730  146.1010 C   0  0  0  0  0  3  0  0  0  0  0  0
  194.9030  171.7830  145.4300 C   0  0  0  0  0  3  0  0  0  0  0  0
  190.8790  174.9500  142.6190 C   0  0  0  0  0  2  0  0  0  0  0  0
  190.4060  173.8190  141.7220 C   0  0  1  0  0  3  0  0  0  0  0  0
  191.5880  173.2130  140.9850 C   0  0  0  0  0  1  0  0  0  0  0  0
  188.3820  172.6590  142.2270 O   0  0  0  0  0  1  0  0  0  0  0  0
  189.7310  172.7600  142.5730 C   0  0  0  0  0  2  0  0  0  0  0  0
  2  5  1  6  0  0  0
  2  3  1  0  0  0  0
  4  1  1  6  0  0  0
  4  2  1  0  0  0  0
  4  3  1  0  0  0  0
  5  6  2  0  0  0  0
  7  5  1  0  0  0  0
  8 13  1  6  0  0  0
  8  7  1  0  0  0  0
  8  9  1  0  0  0  0
  9 10  1  0  0  0  0
 10 12  1  6  0  0  0
 10 11  1  0  0  0  0
 15 16  1  0  0  0  0
 16 14  2  0  0  0  0
 16 13  1  0  0  0  0
 17 18  1  0  0  0  0
 17  1  1  0  0  0  0
 18 21  1  0  0  0  0
 18 19  1  0  0  0  0
 19 24  1  0  0  0  0
 20 26  1  0  0  0  0
 21 25  1  0  0  0  0
 22 26  2  0  0  0  0
 23 22  1  0  0  0  0
 24 23  1  0  0  0  0
 25 27  1  0  0  0  0
 25 23  2  0  0  0  0
 27 20  2  0  0  0  0
 28 17  1  0  0  0  0
 29 30  1  1  0  0  0
 29 32  1  0  0  0  0
 29 28  1  0  0  0  0
 31 32  1  0  0  0  0
M  END
>  <MODEL>
6

>  <REMARK>
 VINA RESULT:      -5.9      2.653      6.093
  Name = 
  13 active torsions:
  status: ('A' for Active; 'I' for Inactive)
    1  A    between atoms: C_1  and  N_5
    2  A    between atoms: C_1  and  C_30
    3  A    between atoms: N_2  and  N_5
    4  A    between atoms: C_3  and  C_8
    5  A    between atoms: C_3  and  C_20
    6  A    between atoms: C_4  and  C_24
    7  A    between atoms: N_5  and  C_14
    8  A    between atoms: C_13  and  C_14
    9  A    between atoms: C_13  and  C_29
   10  A    between atoms: C_15  and  C_20
   11  A    between atoms: C_15  and  C_26
   12  A    between atoms: O_16  and  C_20
   13  A    between atoms: O_16  and  C_24
                            x       y       z     vdW  Elec       q    Type
                         _______ _______ _______ _____ _____    ______ ____

>  <TORSDO>
F 13

$$$$
=
 OpenBabel11052419213D

 32 34  0  0  1  0  0  0  0  0999 V2000
  189.6940  176.2550  142.7950 C   0  0  0  0  0  2  0  0  0  0  0  0
  191.6300  177.2610  144.2680 C   0  0  2  0  0  3  0  0  0  0  0  0
  190.7290  178.3160  143.6590 C   0  0  0  0  0  2  0  0  0  0  0  0
  191.0130  177.0450  142.8780 C   0  0  2  0  0  3  0  0  0  0  0  0
  190.9900  176.4780  145.3900 C   0  0  0  0  0  0  0  0  0  0  0  0
  190.0780  176.9900  146.0960 O   0  0  0  0  0  0  0  0  0  0  0  0
  191.4120  175.1730  145.6860 O   0  0  0  0  0  0  0  0  0  0  0  0
  192.6760  174.6160  145.3080 C   0  0  1  0  0  3  0  0  0  0  0  0
  193.7600  174.8760  146.3520 C   0  0  0  0  0  2  0  0  0  0  0  0
  195.0310  175.4000  145.7110 C   0  0  2  0  0  3  0  0  0  0  0  0
  194.7960  175.7060  144.3700 O   0  0  0  0  0  1  0  0  0  0  0  0
  196.1050  174.3380  145.7990 C   0  0  0  0  0  1  0  0  0  0  0  0
  192.5410  173.1280  145.0110 C   0  0  0  0  0  2  0  0  0  0  0  0
  191.4660  173.2360  142.8860 O   0  0  0  0  0  0  0  0  0  0  0  0
  190.2170  172.2440  144.5740 N   0  0  0  0  0  1  0  0  0  0  0  0
  191.3980  172.8720  144.0890 C   0  0  0  0  0  0  0  0  0  0  0  0
  188.6290  176.9180  142.0180 N   0  0  0  0  0  0  0  0  0  0  0  0
  187.7640  177.6260  142.8950 N   0  0  0  0  0  0  0  0  0  0  0  0
  186.6900  178.2190  142.0830 C   0  0  0  0  0  2  0  0  0  0  0  0
  184.7740  177.3830  146.7030 C   0  0  0  0  0  3  0  0  0  0  0  0
  187.0970  176.6630  143.7890 C   0  0  0  0  0  2  0  0  0  0  0  0
  184.4730  179.1150  145.0350 C   0  0  0  0  0  3  0  0  0  0  0  0
  185.4390  178.5080  144.2270 C   0  0  0  0  0  0  0  0  0  0  0  0
  185.8370  179.1590  142.9360 C   0  0  0  0  0  2  0  0  0  0  0  0
  186.0940  177.3450  144.6740 C   0  0  0  0  0  0  0  0  0  0  0  0
  184.1390  178.5520  146.2710 C   0  0  0  0  0  3  0  0  0  0  0  0
  185.7480  176.7780  145.9030 C   0  0  0  0  0  3  0  0  0  0  0  0
  187.8800  175.8970  141.2700 C   0  0  0  0  0  2  0  0  0  0  0  0
  188.6740  174.6030  141.2080 C   0  0  1  0  0  3  0  0  0  0  0  0
  187.9570  173.5180  141.9920 C   0  0  0  0  0  1  0  0  0  0  0  0
  188.1960  172.9490  139.5550 O   0  0  0  0  0  1  0  0  0  0  0  0
  188.8210  174.1810  139.7590 C   0  0  0  0  0  2  0  0  0  0  0  0
  2  5  1  1  0  0  0
  3  2  1  0  0  0  0
  4  1  1  1  0  0  0
  4  3  1  0  0  0  0
  4  2  1  0  0  0  0
  5  7  1  0  0  0  0
  5  6  2  0  0  0  0
  8 13  1  1  0  0  0
  8  7  1  0  0  0  0
  8  9  1  0  0  0  0
 10 12  1  6  0  0  0
 10  9  1  0  0  0  0
 11 10  1  0  0  0  0
 14 16  2  0  0  0  0
 16 15  1  0  0  0  0
 16 13  1  0  0  0  0
 17  1  1  0  0  0  0
 17 18  1  0  0  0  0
 18 21  1  0  0  0  0
 19 18  1  0  0  0  0
 19 24  1  0  0  0  0
 21 25  1  0  0  0  0
 22 26  2  0  0  0  0
 23 25  2  0  0  0  0
 23 22  1  0  0  0  0
 24 23  1  0  0  0  0
 25 27  1  0  0  0  0
 26 20  1  0  0  0  0
 27 20  2  0  0  0  0
 28 17  1  0  0  0  0
 29 28  1  0  0  0  0
 29 30  1  1  0  0  0
 31 32  1  0  0  0  0
 32 29  1  0  0  0  0
M  END
>  <MODEL>
7

>  <REMARK>
 VINA RESULT:      -5.9      2.327      6.141
  Name = 
  13 active torsions:
  status: ('A' for Active; 'I' for Inactive)
    1  A    between atoms: C_1  and  N_5
    2  A    between atoms: C_1  and  C_30
    3  A    between atoms: N_2  and  N_5
    4  A    between atoms: C_3  and  C_8
    5  A    between atoms: C_3  and  C_20
    6  A    between atoms: C_4  and  C_24
    7  A    between atoms: N_5  and  C_14
    8  A    between atoms: C_13  and  C_14
    9  A    between atoms: C_13  and  C_29
   10  A    between atoms: C_15  and  C_20
   11  A    between atoms: C_15  and  C_26
   12  A    between atoms: O_16  and  C_20
   13  A    between atoms: O_16  and  C_24
                            x       y       z     vdW  Elec       q    Type
                         _______ _______ _______ _____ _____    ______ ____

>  <TORSDO>
F 13

$$$$
=
 OpenBabel11052419213D

 32 34  0  0  1  0  0  0  0  0999 V2000
  189.7480  174.7510  144.5270 C   0  0  0  0  0  2  0  0  0  0  0  0
  191.0580  172.4740  144.3530 C   0  0  2  0  0  3  0  0  0  0  0  0
  189.6600  172.4080  143.7710 C   0  0  0  0  0  2  0  0  0  0  0  0
  189.9170  173.2890  144.9800 C   0  0  2  0  0  3  0  0  0  0  0  0
  192.0360  173.2650  143.5160 C   0  0  0  0  0  0  0  0  0  0  0  0
  191.9470  173.2770  142.2580 O   0  0  0  0  0  0  0  0  0  0  0  0
  193.0780  173.9840  144.1210 O   0  0  0  0  0  0  0  0  0  0  0  0
  194.4710  173.6870  143.9740 C   0  0  1  0  0  3  0  0  0  0  0  0
  195.1990  174.7220  143.1190 C   0  0  0  0  0  2  0  0  0  0  0  0
  196.2780  175.4340  143.9130 C   0  0  2  0  0  3  0  0  0  0  0  0
  195.9270  176.7700  144.1020 O   0  0  0  0  0  1  0  0  0  0  0  0
  197.5830  175.3640  143.1490 C   0  0  0  0  0  1  0  0  0  0  0  0
  195.1350  173.5310  145.3370 C   0  0  0  0  0  2  0  0  0  0  0  0
  194.3900  171.3160  145.8100 O   0  0  0  0  0  0  0  0  0  0  0  0
  196.6950  171.6030  145.8050 N   0  0  0  0  0  1  0  0  0  0  0  0
  195.3680  172.0930  145.6520 C   0  0  0  0  0  0  0  0  0  0  0  0
  189.8050  175.7420  145.6200 N   0  0  0  0  0  0  0  0  0  0  0  0
  188.7880  176.7170  145.4370 N   0  0  0  0  0  0  0  0  0  0  0  0
  188.3960  176.6950  144.0190 C   0  0  0  0  0  2  0  0  0  0  0  0
  184.3410  178.2090  146.6620 C   0  0  0  0  0  3  0  0  0  0  0  0
  187.5880  176.3020  146.1860 C   0  0  0  0  0  2  0  0  0  0  0  0
  185.2560  178.7810  144.4930 C   0  0  0  0  0  3  0  0  0  0  0  0
  186.3460  177.9370  144.7260 C   0  0  0  0  0  0  0  0  0  0  0  0
  187.4480  177.8550  143.7130 C   0  0  0  0  0  2  0  0  0  0  0  0
  186.4450  177.2460  145.9490 C   0  0  0  0  0  0  0  0  0  0  0  0
  184.2540  178.9150  145.4580 C   0  0  0  0  0  3  0  0  0  0  0  0
  185.4340  177.3720  146.9050 C   0  0  0  0  0  3  0  0  0  0  0  0
  191.1320  176.3750  145.6180 C   0  0  0  0  0  2  0  0  0  0  0  0
  192.0000  175.7790  146.7130 C   0  0  1  0  0  3  0  0  0  0  0  0
  193.3330  176.5050  146.7700 C   0  0  0  0  0  1  0  0  0  0  0  0
  191.4820  177.1930  148.5650 O   0  0  0  0  0  1  0  0  0  0  0  0
  191.2830  175.9130  148.0430 C   0  0  0  0  0  2  0  0  0  0  0  0
  1 17  1  0  0  0  0
  2  5  1  6  0  0  0
  2  4  1  0  0  0  0
  3  2  1  0  0  0  0
  3  4  1  0  0  0  0
  4  1  1  6  0  0  0
  5  7  1  0  0  0  0
  6  5  2  0  0  0  0
  8  9  1  1  0  0  0
  8  7  1  0  0  0  0
  8 13  1  0  0  0  0
  9 10  1  0  0  0  0
 10 12  1  6  0  0  0
 10 11  1  0  0  0  0
 13 16  1  0  0  0  0
 16 15  1  0  0  0  0
 16 14  2  0  0  0  0
 18 17  1  0  0  0  0
 18 21  1  0  0  0  0
 19 18  1  0  0  0  0
 20 27  1  0  0  0  0
 22 23  2  0  0  0  0
 22 26  1  0  0  0  0
 23 25  1  0  0  0  0
 24 19  1  0  0  0  0
 24 23  1  0  0  0  0
 25 21  1  0  0  0  0
 25 27  2  0  0  0  0
 26 20  2  0  0  0  0
 28 17  1  0  0  0  0
 28 29  1  0  0  0  0
 29 30  1  1  0  0  0
 29 32  1  0  0  0  0
 32 31  1  0  0  0  0
M  END
>  <MODEL>
8

>  <REMARK>
 VINA RESULT:      -5.8      3.004      6.568
  Name = 
  13 active torsions:
  status: ('A' for Active; 'I' for Inactive)
    1  A    between atoms: C_1  and  N_5
    2  A    between atoms: C_1  and  C_30
    3  A    between atoms: N_2  and  N_5
    4  A    between atoms: C_3  and  C_8
    5  A    between atoms: C_3  and  C_20
    6  A    between atoms: C_4  and  C_24
    7  A    between atoms: N_5  and  C_14
    8  A    between atoms: C_13  and  C_14
    9  A    between atoms: C_13  and  C_29
   10  A    between atoms: C_15  and  C_20
   11  A    between atoms: C_15  and  C_26
   12  A    between atoms: O_16  and  C_20
   13  A    between atoms: O_16  and  C_24
                            x       y       z     vdW  Elec       q    Type
                         _______ _______ _______ _____ _____    ______ ____

>  <TORSDO>
F 13

$$$$
=
 OpenBabel11052419213D

 32 34  0  0  1  0  0  0  0  0999 V2000
  189.6470  176.4420  142.5960 C   0  0  0  0  0  2  0  0  0  0  0  0
  191.5480  178.0180  143.5070 C   0  0  2  0  0  3  0  0  0  0  0  0
  190.3580  177.9120  144.4400 C   0  0  0  0  0  2  0  0  0  0  0  0
  190.1300  177.8630  142.9390 C   0  0  2  0  0  3  0  0  0  0  0  0
  192.4050  176.7750  143.4590 C   0  0  0  0  0  0  0  0  0  0  0  0
  192.9790  176.4260  142.3910 O   0  0  0  0  0  0  0  0  0  0  0  0
  192.5630  175.9690  144.5970 O   0  0  0  0  0  0  0  0  0  0  0  0
  193.4440  174.8440  144.6870 C   0  0  1  0  0  3  0  0  0  0  0  0
  194.7860  175.2070  145.3220 C   0  0  0  0  0  2  0  0  0  0  0  0
  195.9250  175.0490  144.3330 C   0  0  2  0  0  3  0  0  0  0  0  0
  197.0560  174.5550  144.9840 O   0  0  0  0  0  1  0  0  0  0  0  0
  196.2470  176.3980  143.7280 C   0  0  0  0  0  1  0  0  0  0  0  0
  192.7760  173.6950  145.4310 C   0  0  0  0  0  2  0  0  0  0  0  0
  190.4640  173.4950  144.8830 O   0  0  0  0  0  0  0  0  0  0  0  0
  191.8950  172.1730  143.6190 N   0  0  0  0  0  1  0  0  0  0  0  0
  191.6450  173.1360  144.6370 C   0  0  0  0  0  0  0  0  0  0  0  0
  188.2880  176.3760  142.0240 N   0  0  0  0  0  0  0  0  0  0  0  0
  187.4130  177.2100  142.7690 N   0  0  0  0  0  0  0  0  0  0  0  0
  186.2250  177.4680  141.9400 C   0  0  0  0  0  2  0  0  0  0  0  0
  184.7410  177.7170  146.7830 C   0  0  0  0  0  3  0  0  0  0  0  0
  186.9220  176.4620  143.9410 C   0  0  0  0  0  2  0  0  0  0  0  0
  184.1320  178.9100  144.7640 C   0  0  0  0  0  3  0  0  0  0  0  0
  185.1010  178.2000  144.0490 C   0  0  0  0  0  0  0  0  0  0  0  0
  185.3330  178.5190  142.6020 C   0  0  0  0  0  2  0  0  0  0  0  0
  185.9130  177.2610  144.7140 C   0  0  0  0  0  0  0  0  0  0  0  0
  183.9510  178.6670  146.1290 C   0  0  0  0  0  3  0  0  0  0  0  0
  185.7190  177.0110  146.0750 C   0  0  0  0  0  3  0  0  0  0  0  0
  187.8240  174.9820  142.0590 C   0  0  0  0  0  2  0  0  0  0  0  0
  188.8310  174.0750  141.3710 C   0  0  1  0  0  3  0  0  0  0  0  0
  188.7030  172.6600  141.9060 C   0  0  0  0  0  1  0  0  0  0  0  0
  188.3360  172.7880  139.4230 O   0  0  0  0  0  1  0  0  0  0  0  0
  188.5700  174.0870  139.8770 C   0  0  0  0  0  2  0  0  0  0  0  0
  2  5  1  1  0  0  0
  2  3  1  0  0  0  0
  4  1  1  1  0  0  0
  4  2  1  0  0  0  0
  4  3  1  0  0  0  0
  5  7  1  0  0  0  0
  6  5  2  0  0  0  0
  7  8  1  0  0  0  0
  8  9  1  1  0  0  0
  8 13  1  0  0  0  0
 10 12  1  1  0  0  0
 10 11  1  0  0  0  0
 10  9  1  0  0  0  0
 15 16  1  0  0  0  0
 16 14  2  0  0  0  0
 16 13  1  0  0  0  0
 17 28  1  0  0  0  0
 17  1  1  0  0  0  0
 17 18  1  0  0  0  0
 18 21  1  0  0  0  0
 19 24  1  0  0  0  0
 19 18  1  0  0  0  0
 21 25  1  0  0  0  0
 22 26  2  0  0  0  0
 23 25  2  0  0  0  0
 23 22  1  0  0  0  0
 24 23  1  0  0  0  0
 25 27  1  0  0  0  0
 26 20  1  0  0  0  0
 27 20  2  0  0  0  0
 29 30  1  1  0  0  0
 29 28  1  0  0  0  0
 31 32  1  0  0  0  0
 32 29  1  0  0  0  0
M  END
>  <MODEL>
9

>  <REMARK>
 VINA RESULT:      -5.7      2.669      6.344
  Name = 
  13 active torsions:
  status: ('A' for Active; 'I' for Inactive)
    1  A    between atoms: C_1  and  N_5
    2  A    between atoms: C_1  and  C_30
    3  A    between atoms: N_2  and  N_5
    4  A    between atoms: C_3  and  C_8
    5  A    between atoms: C_3  and  C_20
    6  A    between atoms: C_4  and  C_24
    7  A    between atoms: N_5  and  C_14
    8  A    between atoms: C_13  and  C_14
    9  A    between atoms: C_13  and  C_29
   10  A    between atoms: C_15  and  C_20
   11  A    between atoms: C_15  and  C_26
   12  A    between atoms: O_16  and  C_20
   13  A    between atoms: O_16  and  C_24
                            x       y       z     vdW  Elec       q    Type
                         _______ _______ _______ _____ _____    ______ ____

>  <TORSDO>
F 13

$$$$
