=
 OpenBabel11052419123D

 32 36  0  0  1  0  0  0  0  0999 V2000
  187.5580  176.3640  144.6770 C   0  0  0  0  0  0  0  0  0  0  0  0
  187.6470  177.2130  142.3050 C   0  0  2  0  0  3  0  0  0  0  0  0
  186.9710  176.3480  145.9460 C   0  0  0  0  0  3  0  0  0  0  0  0
  186.9520  177.0780  143.6330 C   0  0  0  0  0  0  0  0  0  0  0  0
  186.6550  177.2210  141.1570 C   0  0  0  0  0  2  0  0  0  0  0  0
  188.8340  176.2640  142.0640 C   0  0  0  0  0  2  0  0  0  0  0  0
  185.7200  177.7300  143.8500 C   0  0  0  0  0  0  0  0  0  0  0  0
  184.9290  178.3320  142.7170 C   0  0  0  0  0  2  0  0  0  0  0  0
  185.1420  177.7020  145.1240 C   0  0  0  0  0  3  0  0  0  0  0  0
  188.9190  175.1240  142.9890 N   0  0  0  0  0  0  0  0  0  0  0  0
  188.7680  175.5150  144.4020 C   0  0  1  0  0  3  0  0  0  0  0  0
  185.6940  178.3940  141.3790 C   0  0  2  0  0  3  0  0  0  0  0  0
  185.7730  177.0300  146.1730 C   0  0  0  0  0  3  0  0  0  0  0  0
  191.7910  177.5450  144.2010 C   0  0  0  0  0  0  0  0  0  0  0  0
  194.2020  176.1160  146.5020 F   0  0  0  0  0  0  0  0  0  0  0  0
  191.8330  178.3050  143.0790 F   0  0  0  0  0  0  0  0  0  0  0  0
  192.0940  175.2910  146.2140 N   0  0  0  0  0  0  0  0  0  0  0  0
  190.0580  175.9900  145.0150 C   0  0  0  0  0  0  0  0  0  0  0  0
  192.9170  176.9980  144.6510 C   0  0  0  0  0  3  0  0  0  0  0  0
  190.7960  175.0660  145.6340 C   0  0  0  0  0  3  0  0  0  0  0  0
  190.5150  177.4240  144.9670 C   0  0  2  0  0  3  0  0  0  0  0  0
  189.5590  178.2760  144.4470 F   0  0  0  0  0  0  0  0  0  0  0  0
  193.0170  176.1330  145.8450 C   0  0  0  0  0  0  0  0  0  0  0  0
  184.8540  178.6420  140.2720 O   0  0  0  0  0  0  0  0  0  0  0  0
  183.5390  178.2840  140.6110 C   0  0  0  0  0  1  0  0  0  0  0  0
  187.8970  174.1440  142.6350 C   0  0  0  0  0  2  0  0  0  0  0  0
  188.3420  172.9990  140.4850 C   0  0  0  0  0  2  0  0  0  0  0  0
  190.6460  172.7560  140.9940 C   0  0  0  0  0  2  0  0  0  0  0  0
  189.9690  172.9050  142.2720 N   0  0  0  0  0  0  0  0  0  0  0  0
  190.2350  171.6990  143.0340 C   0  0  0  0  0  1  0  0  0  0  0  0
  189.7110  173.2580  139.9220 C   0  0  0  0  0  2  0  0  0  0  0  0
  188.5360  172.9260  141.9870 C   0  0  1  0  0  3  0  0  0  0  0  0
  1  3  1  0  0  0  0
  2  5  1  6  0  0  0
  2  4  1  0  0  0  0
  3 13  2  0  0  0  0
  4  7  1  0  0  0  0
  4  1  2  0  0  0  0
  5 12  1  0  0  0  0
  6  2  1  0  0  0  0
  6 10  1  0  0  0  0
  7  9  2  0  0  0  0
  8  7  1  0  0  0  0
  9 13  1  0  0  0  0
 10 11  1  0  0  0  0
 11  1  1  0  0  0  0
 11 18  1  6  0  0  0
 12 24  1  6  0  0  0
 12  8  1  0  0  0  0
 14 19  2  0  0  0  0
 14 21  1  0  0  0  0
 16 14  1  0  0  0  0
 18 20  2  0  0  0  0
 19 23  1  0  0  0  0
 20 17  1  0  0  0  0
 21 22  1  6  0  0  0
 21 18  1  0  0  0  0
 23 17  2  0  0  0  0
 23 15  1  0  0  0  0
 24 25  1  0  0  0  0
 26 10  1  0  0  0  0
 27 32  1  0  0  0  0
 28 29  1  0  0  0  0
 29 30  1  0  0  0  0
 31 27  1  0  0  0  0
 31 28  1  0  0  0  0
 32 29  1  0  0  0  0
 32 26  1  1  0  0  0
M  END
>  <MODEL>
1

>  <REMARK>
 VINA RESULT:      -8.2      0.000      0.000
  Name = 
  4 active torsions:
  status: ('A' for Active; 'I' for Inactive)
    1  A    between atoms: O_13  and  C_29
    2  A    between atoms: C_16  and  C_27
    3  A    between atoms: N_24  and  C_28
    4  A    between atoms: C_28  and  C_32
                            x       y       z     vdW  Elec       q    Type
                         _______ _______ _______ _____ _____    ______ ____

>  <TORSDO>
F 4

$$$$
=
 OpenBabel11052419123D

 32 36  0  0  1  0  0  0  0  0999 V2000
  188.8070  176.6420  142.8570 C   0  0  0  0  0  0  0  0  0  0  0  0
  188.3430  175.8050  145.1890 C   0  0  2  0  0  3  0  0  0  0  0  0
  188.4480  177.4010  141.7390 C   0  0  0  0  0  3  0  0  0  0  0  0
  188.0450  176.7200  144.0320 C   0  0  0  0  0  0  0  0  0  0  0  0
  188.0960  176.4930  146.5190 C   0  0  0  0  0  2  0  0  0  0  0  0
  189.6920  175.0680  145.1380 C   0  0  0  0  0  2  0  0  0  0  0  0
  186.9550  177.6130  144.1040 C   0  0  0  0  0  0  0  0  0  0  0  0
  186.2370  177.8870  145.4000 C   0  0  0  0  0  2  0  0  0  0  0  0
  186.6100  178.3700  142.9790 C   0  0  0  0  0  3  0  0  0  0  0  0
  190.6600  175.6050  144.1710 N   0  0  0  0  0  0  0  0  0  0  0  0
  190.0760  175.8370  142.8380 C   0  0  1  0  0  3  0  0  0  0  0  0
  186.6290  176.9350  146.5500 C   0  0  2  0  0  3  0  0  0  0  0  0
  187.3420  178.2530  141.7960 C   0  0  0  0  0  3  0  0  0  0  0  0
  189.1860  172.3270  142.4100 C   0  0  0  0  0  0  0  0  0  0  0  0
  191.3160  170.9860  139.7990 F   0  0  0  0  0  0  0  0  0  0  0  0
  188.4970  171.8320  143.4680 F   0  0  0  0  0  0  0  0  0  0  0  0
  191.3860  173.1600  140.4890 N   0  0  0  0  0  0  0  0  0  0  0  0
  190.0560  174.5950  141.9870 C   0  0  0  0  0  0  0  0  0  0  0  0
  190.0750  171.5480  141.7990 C   0  0  0  0  0  3  0  0  0  0  0  0
  191.1680  174.3320  141.2970 C   0  0  0  0  0  3  0  0  0  0  0  0
  188.8610  173.6860  141.8840 C   0  0  2  0  0  3  0  0  0  0  0  0
  187.7430  174.1930  142.5190 F   0  0  0  0  0  0  0  0  0  0  0  0
  190.9080  171.9590  140.6510 C   0  0  0  0  0  0  0  0  0  0  0  0
  186.2140  177.3980  147.8180 O   0  0  0  0  0  0  0  0  0  0  0  0
  185.4100  178.5370  147.6440 C   0  0  0  0  0  1  0  0  0  0  0  0
  191.2140  176.8500  144.6920 C   0  0  0  0  0  2  0  0  0  0  0  0
  192.8820  176.4150  146.4710 C   0  0  0  0  0  2  0  0  0  0  0  0
  193.9160  174.7010  145.1990 C   0  0  0  0  0  2  0  0  0  0  0  0
  193.2310  175.5510  144.2390 N   0  0  0  0  0  0  0  0  0  0  0  0
  194.2440  176.0740  143.3400 C   0  0  0  0  0  1  0  0  0  0  0  0
  193.3270  174.9830  146.5580 C   0  0  0  0  0  2  0  0  0  0  0  0
  192.6970  176.6850  144.9910 C   0  0  1  0  0  3  0  0  0  0  0  0
  1  4  1  0  0  0  0
  2  6  1  1  0  0  0
  2  5  1  0  0  0  0
  3 13  1  0  0  0  0
  3  1  2  0  0  0  0
  4  7  2  0  0  0  0
  4  2  1  0  0  0  0
  5 12  1  0  0  0  0
  7  8  1  0  0  0  0
  8 12  1  0  0  0  0
  9  7  1  0  0  0  0
 10 26  1  0  0  0  0
 10  6  1  0  0  0  0
 11 18  1  1  0  0  0
 11  1  1  0  0  0  0
 11 10  1  0  0  0  0
 12 24  1  1  0  0  0
 13  9  2  0  0  0  0
 14 16  1  0  0  0  0
 15 23  1  0  0  0  0
 17 23  2  0  0  0  0
 17 20  1  0  0  0  0
 19 14  2  0  0  0  0
 20 18  2  0  0  0  0
 21 18  1  0  0  0  0
 21 14  1  0  0  0  0
 21 22  1  1  0  0  0
 23 19  1  0  0  0  0
 25 24  1  0  0  0  0
 27 31  1  0  0  0  0
 28 31  1  0  0  0  0
 29 32  1  0  0  0  0
 29 28  1  0  0  0  0
 30 29  1  0  0  0  0
 32 26  1  1  0  0  0
 32 27  1  0  0  0  0
M  END
>  <MODEL>
2

>  <REMARK>
 VINA RESULT:      -7.9      2.788      5.413
  Name = 
  4 active torsions:
  status: ('A' for Active; 'I' for Inactive)
    1  A    between atoms: O_13  and  C_29
    2  A    between atoms: C_16  and  C_27
    3  A    between atoms: N_24  and  C_28
    4  A    between atoms: C_28  and  C_32
                            x       y       z     vdW  Elec       q    Type
                         _______ _______ _______ _____ _____    ______ ____

>  <TORSDO>
F 4

$$$$
=
 OpenBabel11052419123D

 32 36  0  0  1  0  0  0  0  0999 V2000
  189.0180  175.5570  144.8700 C   0  0  0  0  0  0  0  0  0  0  0  0
  188.1990  176.6650  142.7590 C   0  0  2  0  0  3  0  0  0  0  0  0
  188.9400  175.3570  146.2520 C   0  0  0  0  0  3  0  0  0  0  0  0
  188.0470  176.3310  144.2180 C   0  0  0  0  0  0  0  0  0  0  0  0
  186.8560  176.7190  142.0580 C   0  0  0  0  0  2  0  0  0  0  0  0
  189.2460  175.8470  141.9840 C   0  0  0  0  0  2  0  0  0  0  0  0
  186.9580  176.8540  144.9490 C   0  0  0  0  0  0  0  0  0  0  0  0
  185.7860  177.5110  144.2670 C   0  0  0  0  0  2  0  0  0  0  0  0
  186.8910  176.6410  146.3300 C   0  0  0  0  0  3  0  0  0  0  0  0
  189.7050  174.6240  142.6590 N   0  0  0  0  0  0  0  0  0  0  0  0
  190.0710  174.8440  144.0690 C   0  0  1  0  0  3  0  0  0  0  0  0
  186.0030  177.7800  142.7630 C   0  0  2  0  0  3  0  0  0  0  0  0
  187.8860  175.9110  146.9830 C   0  0  0  0  0  3  0  0  0  0  0  0
  193.4130  174.4600  145.4770 C   0  0  0  0  0  0  0  0  0  0  0  0
  194.9610  177.7400  145.4860 F   0  0  0  0  0  0  0  0  0  0  0  0
  193.5560  173.3040  146.1690 F   0  0  0  0  0  0  0  0  0  0  0  0
  192.8630  177.3390  144.6820 N   0  0  0  0  0  0  0  0  0  0  0  0
  191.4790  175.3510  144.2330 C   0  0  0  0  0  0  0  0  0  0  0  0
  194.0070  175.5600  145.9300 C   0  0  0  0  0  3  0  0  0  0  0  0
  191.6170  176.6650  144.4260 C   0  0  0  0  0  3  0  0  0  0  0  0
  192.6890  174.4580  144.1710 C   0  0  2  0  0  3  0  0  0  0  0  0
  192.3830  173.1640  143.7930 F   0  0  0  0  0  0  0  0  0  0  0  0
  193.9230  176.8900  145.2920 C   0  0  0  0  0  0  0  0  0  0  0  0
  184.8070  178.0790  142.0760 O   0  0  0  0  0  0  0  0  0  0  0  0
  185.0800  178.1470  140.6990 C   0  0  0  0  0  1  0  0  0  0  0  0
  188.6590  173.6090  142.5720 C   0  0  0  0  0  2  0  0  0  0  0  0
  188.2910  172.9720  140.2070 C   0  0  0  0  0  2  0  0  0  0  0  0
  190.6190  172.7500  139.8150 C   0  0  0  0  0  2  0  0  0  0  0  0
  190.4390  172.5880  141.2480 N   0  0  0  0  0  0  0  0  0  0  0  0
  190.9270  171.2640  141.5880 C   0  0  0  0  0  1  0  0  0  0  0  0
  189.3800  173.4180  139.2740 C   0  0  0  0  0  2  0  0  0  0  0  0
  188.9980  172.5920  141.4930 C   0  0  1  0  0  3  0  0  0  0  0  0
  1  3  1  0  0  0  0
  2  6  1  6  0  0  0
  2  4  1  0  0  0  0
  3 13  2  0  0  0  0
  4  1  2  0  0  0  0
  4  7  1  0  0  0  0
  5  2  1  0  0  0  0
  5 12  1  0  0  0  0
  6 10  1  0  0  0  0
  7  9  2  0  0  0  0
  8  7  1  0  0  0  0
  9 13  1  0  0  0  0
 10 11  1  0  0  0  0
 11 18  1  6  0  0  0
 11  1  1  0  0  0  0
 12 24  1  6  0  0  0
 12  8  1  0  0  0  0
 14 19  2  0  0  0  0
 14 16  1  0  0  0  0
 17 23  2  0  0  0  0
 18 20  2  0  0  0  0
 20 17  1  0  0  0  0
 21 22  1  1  0  0  0
 21 18  1  0  0  0  0
 21 14  1  0  0  0  0
 23 15  1  0  0  0  0
 23 19  1  0  0  0  0
 25 24  1  0  0  0  0
 26 10  1  0  0  0  0
 27 32  1  0  0  0  0
 28 29  1  0  0  0  0
 29 32  1  0  0  0  0
 29 30  1  0  0  0  0
 31 28  1  0  0  0  0
 31 27  1  0  0  0  0
 32 26  1  1  0  0  0
M  END
>  <MODEL>
3

>  <REMARK>
 VINA RESULT:      -7.8      1.696      2.348
  Name = 
  4 active torsions:
  status: ('A' for Active; 'I' for Inactive)
    1  A    between atoms: O_13  and  C_29
    2  A    between atoms: C_16  and  C_27
    3  A    between atoms: N_24  and  C_28
    4  A    between atoms: C_28  and  C_32
                            x       y       z     vdW  Elec       q    Type
                         _______ _______ _______ _____ _____    ______ ____

>  <TORSDO>
F 4

$$$$
=
 OpenBabel11052419123D

 32 36  0  0  1  0  0  0  0  0999 V2000
  189.6160  175.7460  145.0580 C   0  0  0  0  0  0  0  0  0  0  0  0
  188.7160  177.5330  143.5260 C   0  0  2  0  0  3  0  0  0  0  0  0
  189.5910  175.0550  146.2740 C   0  0  0  0  0  3  0  0  0  0  0  0
  188.6200  176.6890  144.7680 C   0  0  0  0  0  0  0  0  0  0  0  0
  187.3460  177.8180  142.9400 C   0  0  0  0  0  2  0  0  0  0  0  0
  189.7330  177.0680  142.4690 C   0  0  0  0  0  2  0  0  0  0  0  0
  187.5600  176.8940  145.6760 C   0  0  0  0  0  0  0  0  0  0  0  0
  186.3610  177.7360  145.3220 C   0  0  0  0  0  2  0  0  0  0  0  0
  187.5450  176.1930  146.8870 C   0  0  0  0  0  3  0  0  0  0  0  0
  190.2190  175.6900  142.6360 N   0  0  0  0  0  0  0  0  0  0  0  0
  190.6380  175.3880  144.0160 C   0  0  1  0  0  3  0  0  0  0  0  0
  186.5200  178.5370  144.0130 C   0  0  2  0  0  3  0  0  0  0  0  0
  188.5660  175.2900  147.1930 C   0  0  0  0  0  3  0  0  0  0  0  0
  193.8800  174.7410  145.5540 C   0  0  0  0  0  0  0  0  0  0  0  0
  195.5340  177.9420  145.9670 F   0  0  0  0  0  0  0  0  0  0  0  0
  193.9450  173.5180  146.1360 F   0  0  0  0  0  0  0  0  0  0  0  0
  193.4730  177.7030  145.0180 N   0  0  0  0  0  0  0  0  0  0  0  0
  192.0510  175.8220  144.3030 C   0  0  0  0  0  0  0  0  0  0  0  0
  194.4850  175.7690  146.1440 C   0  0  0  0  0  3  0  0  0  0  0  0
  192.2220  177.1050  144.6310 C   0  0  0  0  0  3  0  0  0  0  0  0
  193.2320  174.8930  144.2180 C   0  0  2  0  0  3  0  0  0  0  0  0
  192.9050  173.6540  143.6980 F   0  0  0  0  0  0  0  0  0  0  0  0
  194.4810  177.1560  145.6360 C   0  0  0  0  0  0  0  0  0  0  0  0
  185.2980  179.0480  143.5240 O   0  0  0  0  0  0  0  0  0  0  0  0
  184.3520  179.0300  144.5620 C   0  0  0  0  0  1  0  0  0  0  0  0
  189.1710  174.7620  142.2220 C   0  0  0  0  0  2  0  0  0  0  0  0
  191.0820  173.9100  140.8980 C   0  0  0  0  0  2  0  0  0  0  0  0
  190.0660  171.7820  140.6420 C   0  0  0  0  0  2  0  0  0  0  0  0
  188.9810  172.7120  140.9090 N   0  0  0  0  0  0  0  0  0  0  0  0
  188.0930  172.6660  139.7620 C   0  0  0  0  0  1  0  0  0  0  0  0
  191.3500  172.4420  141.0790 C   0  0  0  0  0  2  0  0  0  0  0  0
  189.5730  174.0480  140.9410 C   0  0  1  0  0  3  0  0  0  0  0  0
  1  3  1  0  0  0  0
  2  6  1  6  0  0  0
  2  4  1  0  0  0  0
  3 13  2  0  0  0  0
  4  1  2  0  0  0  0
  4  7  1  0  0  0  0
  5  2  1  0  0  0  0
  5 12  1  0  0  0  0
  6 10  1  0  0  0  0
  7  9  2  0  0  0  0
  8  7  1  0  0  0  0
  9 13  1  0  0  0  0
 10 11  1  0  0  0  0
 11 18  1  1  0  0  0
 11  1  1  0  0  0  0
 12 24  1  6  0  0  0
 12  8  1  0  0  0  0
 14 16  1  0  0  0  0
 14 19  2  0  0  0  0
 17 23  2  0  0  0  0
 18 20  2  0  0  0  0
 20 17  1  0  0  0  0
 21 22  1  1  0  0  0
 21 18  1  0  0  0  0
 21 14  1  0  0  0  0
 23 15  1  0  0  0  0
 23 19  1  0  0  0  0
 24 25  1  0  0  0  0
 26 10  1  0  0  0  0
 27 32  1  0  0  0  0
 27 31  1  0  0  0  0
 28 29  1  0  0  0  0
 28 31  1  0  0  0  0
 29 32  1  0  0  0  0
 30 29  1  0  0  0  0
 32 26  1  1  0  0  0
M  END
>  <MODEL>
4

>  <REMARK>
 VINA RESULT:      -7.7      2.168      2.958
  Name = 
  4 active torsions:
  status: ('A' for Active; 'I' for Inactive)
    1  A    between atoms: O_13  and  C_29
    2  A    between atoms: C_16  and  C_27
    3  A    between atoms: N_24  and  C_28
    4  A    between atoms: C_28  and  C_32
                            x       y       z     vdW  Elec       q    Type
                         _______ _______ _______ _____ _____    ______ ____

>  <TORSDO>
F 4

$$$$
=
 OpenBabel11052419123D

 32 36  0  0  1  0  0  0  0  0999 V2000
  188.5390  175.8760  145.4510 C   0  0  0  0  0  0  0  0  0  0  0  0
  188.3280  176.9720  143.1900 C   0  0  2  0  0  3  0  0  0  0  0  0
  188.1350  175.7370  146.7820 C   0  0  0  0  0  3  0  0  0  0  0  0
  187.8200  176.7100  144.5830 C   0  0  0  0  0  0  0  0  0  0  0  0
  187.1870  177.1230  142.2020 C   0  0  0  0  0  2  0  0  0  0  0  0
  189.4350  176.0300  142.6870 C   0  0  0  0  0  2  0  0  0  0  0  0
  186.6540  177.3600  145.0390 C   0  0  0  0  0  0  0  0  0  0  0  0
  185.7350  178.0960  144.0980 C   0  0  0  0  0  2  0  0  0  0  0  0
  186.2580  177.2090  146.3720 C   0  0  0  0  0  3  0  0  0  0  0  0
  189.6080  174.7970  143.4690 N   0  0  0  0  0  0  0  0  0  0  0  0
  189.6680  175.0370  144.9210 C   0  0  1  0  0  3  0  0  0  0  0  0
  186.3080  178.2850  142.6780 C   0  0  2  0  0  3  0  0  0  0  0  0
  187.0050  176.4150  147.2460 C   0  0  0  0  0  3  0  0  0  0  0  0
  192.6170  177.1650  144.6380 C   0  0  0  0  0  0  0  0  0  0  0  0
  195.3880  175.3700  146.1390 F   0  0  0  0  0  0  0  0  0  0  0  0
  192.4650  178.1430  143.7110 F   0  0  0  0  0  0  0  0  0  0  0  0
  193.2590  174.5530  146.0500 N   0  0  0  0  0  0  0  0  0  0  0  0
  191.0480  175.4180  145.3910 C   0  0  0  0  0  0  0  0  0  0  0  0
  193.8020  176.5740  144.7630 C   0  0  0  0  0  3  0  0  0  0  0  0
  191.8790  174.4100  145.6650 C   0  0  0  0  0  3  0  0  0  0  0  0
  191.4940  176.8440  145.5680 C   0  0  2  0  0  3  0  0  0  0  0  0
  190.4640  177.7530  145.4110 F   0  0  0  0  0  0  0  0  0  0  0  0
  194.1060  175.4840  145.7130 C   0  0  0  0  0  0  0  0  0  0  0  0
  185.3320  178.6670  141.7330 O   0  0  0  0  0  0  0  0  0  0  0  0
  184.0660  178.2900  142.2100 C   0  0  0  0  0  1  0  0  0  0  0  0
  188.5130  173.8810  143.1640 C   0  0  0  0  0  2  0  0  0  0  0  0
  188.4620  173.0330  140.8390 C   0  0  0  0  0  2  0  0  0  0  0  0
  190.8210  172.8010  140.7810 C   0  0  0  0  0  2  0  0  0  0  0  0
  190.4510  172.7650  142.1860 N   0  0  0  0  0  0  0  0  0  0  0  0
  190.8860  171.4800  142.7050 C   0  0  0  0  0  1  0  0  0  0  0  0
  189.6670  173.4050  140.0220 C   0  0  0  0  0  2  0  0  0  0  0  0
  188.9900  172.7760  142.2350 C   0  0  1  0  0  3  0  0  0  0  0  0
  1  3  1  0  0  0  0
  2  5  1  6  0  0  0
  2  4  1  0  0  0  0
  3 13  2  0  0  0  0
  4  7  1  0  0  0  0
  4  1  2  0  0  0  0
  5 12  1  0  0  0  0
  6  2  1  0  0  0  0
  6 10  1  0  0  0  0
  7  9  2  0  0  0  0
  8  7  1  0  0  0  0
  9 13  1  0  0  0  0
 10 11  1  0  0  0  0
 11 18  1  6  0  0  0
 11  1  1  0  0  0  0
 12 24  1  6  0  0  0
 12  8  1  0  0  0  0
 14 19  2  0  0  0  0
 14 21  1  0  0  0  0
 16 14  1  0  0  0  0
 18 21  1  0  0  0  0
 18 20  2  0  0  0  0
 19 23  1  0  0  0  0
 20 17  1  0  0  0  0
 21 22  1  6  0  0  0
 23 17  2  0  0  0  0
 23 15  1  0  0  0  0
 24 25  1  0  0  0  0
 26 10  1  0  0  0  0
 27 32  1  0  0  0  0
 28 29  1  0  0  0  0
 29 32  1  0  0  0  0
 29 30  1  0  0  0  0
 31 28  1  0  0  0  0
 31 27  1  0  0  0  0
 32 26  1  1  0  0  0
M  END
>  <MODEL>
5

>  <REMARK>
 VINA RESULT:      -7.7      1.015      1.216
  Name = 
  4 active torsions:
  status: ('A' for Active; 'I' for Inactive)
    1  A    between atoms: O_13  and  C_29
    2  A    between atoms: C_16  and  C_27
    3  A    between atoms: N_24  and  C_28
    4  A    between atoms: C_28  and  C_32
                            x       y       z     vdW  Elec       q    Type
                         _______ _______ _______ _____ _____    ______ ____

>  <TORSDO>
F 4

$$$$
=
 OpenBabel11052419123D

 32 36  0  0  1  0  0  0  0  0999 V2000
  192.4550  175.8910  144.8610 C   0  0  0  0  0  0  0  0  0  0  0  0
  192.1920  173.3980  145.1250 C   0  0  2  0  0  3  0  0  0  0  0  0
  193.2080  177.0610  145.0020 C   0  0  0  0  0  3  0  0  0  0  0  0
  193.0340  174.6460  145.1420 C   0  0  0  0  0  0  0  0  0  0  0  0
  192.9790  172.2030  144.6230 C   0  0  0  0  0  2  0  0  0  0  0  0
  190.8090  173.5250  144.4620 C   0  0  0  0  0  2  0  0  0  0  0  0
  194.3940  174.5700  145.5080 C   0  0  0  0  0  0  0  0  0  0  0  0
  195.1150  173.2510  145.6170 C   0  0  0  0  0  2  0  0  0  0  0  0
  195.1380  175.7470  145.6410 C   0  0  0  0  0  3  0  0  0  0  0  0
  190.6250  174.7220  143.6280 N   0  0  0  0  0  0  0  0  0  0  0  0
  191.0660  175.9620  144.2910 C   0  0  1  0  0  3  0  0  0  0  0  0
  194.1880  172.0200  145.5470 C   0  0  2  0  0  3  0  0  0  0  0  0
  194.5440  176.9900  145.4070 C   0  0  0  0  0  3  0  0  0  0  0  0
  188.7310  175.5740  147.0650 C   0  0  0  0  0  0  0  0  0  0  0  0
  186.1960  178.1420  146.7060 F   0  0  0  0  0  0  0  0  0  0  0  0
  188.8200  174.3550  147.6530 F   0  0  0  0  0  0  0  0  0  0  0  0
  187.9590  177.9040  145.2760 N   0  0  0  0  0  0  0  0  0  0  0  0
  190.0110  176.5440  145.1940 C   0  0  0  0  0  0  0  0  0  0  0  0
  187.5340  176.1380  146.9300 C   0  0  0  0  0  3  0  0  0  0  0  0
  189.0920  177.3170  144.6110 C   0  0  0  0  0  3  0  0  0  0  0  0
  189.9750  176.3040  146.6800 C   0  0  2  0  0  3  0  0  0  0  0  0
  191.0900  175.6310  147.1430 F   0  0  0  0  0  0  0  0  0  0  0  0
  187.2850  177.4480  146.2940 C   0  0  0  0  0  0  0  0  0  0  0  0
  194.8860  170.8140  145.3170 O   0  0  0  0  0  0  0  0  0  0  0  0
  196.1780  170.9270  145.8570 C   0  0  0  0  0  1  0  0  0  0  0  0
  191.3520  174.5450  142.3740 C   0  0  0  0  0  2  0  0  0  0  0  0
  190.7000  172.6920  140.8670 C   0  0  0  0  0  2  0  0  0  0  0  0
  188.4120  172.9060  141.4530 C   0  0  0  0  0  2  0  0  0  0  0  0
  189.0200  174.1950  141.7420 N   0  0  0  0  0  0  0  0  0  0  0  0
  188.3360  175.1780  140.9220 C   0  0  0  0  0  1  0  0  0  0  0  0
  189.5230  171.8920  141.3490 C   0  0  0  0  0  2  0  0  0  0  0  0
  190.4000  174.1230  141.2660 C   0  0  1  0  0  3  0  0  0  0  0  0
  1  3  2  0  0  0  0
  1  4  1  0  0  0  0
  2  6  1  6  0  0  0
  2  4  1  0  0  0  0
  3 13  1  0  0  0  0
  4  7  2  0  0  0  0
  5  2  1  0  0  0  0
  5 12  1  0  0  0  0
  7  8  1  0  0  0  0
  7  9  1  0  0  0  0
 10 11  1  0  0  0  0
 10  6  1  0  0  0  0
 11  1  1  0  0  0  0
 11 18  1  1  0  0  0
 12 24  1  6  0  0  0
 12  8  1  0  0  0  0
 13  9  2  0  0  0  0
 14 16  1  0  0  0  0
 17 23  2  0  0  0  0
 18 21  1  0  0  0  0
 19 14  2  0  0  0  0
 20 18  2  0  0  0  0
 20 17  1  0  0  0  0
 21 14  1  0  0  0  0
 21 22  1  6  0  0  0
 23 15  1  0  0  0  0
 23 19  1  0  0  0  0
 24 25  1  0  0  0  0
 26 10  1  0  0  0  0
 27 32  1  0  0  0  0
 27 31  1  0  0  0  0
 28 29  1  0  0  0  0
 30 29  1  0  0  0  0
 31 28  1  0  0  0  0
 32 29  1  0  0  0  0
 32 26  1  1  0  0  0
M  END
>  <MODEL>
6

>  <REMARK>
 VINA RESULT:      -7.5      3.497      6.934
  Name = 
  4 active torsions:
  status: ('A' for Active; 'I' for Inactive)
    1  A    between atoms: O_13  and  C_29
    2  A    between atoms: C_16  and  C_27
    3  A    between atoms: N_24  and  C_28
    4  A    between atoms: C_28  and  C_32
                            x       y       z     vdW  Elec       q    Type
                         _______ _______ _______ _____ _____    ______ ____

>  <TORSDO>
F 4

$$$$
=
 OpenBabel11052419123D

 32 36  0  0  1  0  0  0  0  0999 V2000
  189.1720  176.5880  143.2540 C   0  0  0  0  0  0  0  0  0  0  0  0
  188.3260  175.7740  145.4840 C   0  0  2  0  0  3  0  0  0  0  0  0
  189.0260  177.3720  142.1050 C   0  0  0  0  0  3  0  0  0  0  0  0
  188.2560  176.7100  144.3080 C   0  0  0  0  0  0  0  0  0  0  0  0
  187.9320  176.4710  146.7730 C   0  0  0  0  0  2  0  0  0  0  0  0
  189.6210  174.9540  145.6190 C   0  0  0  0  0  2  0  0  0  0  0  0
  187.2220  177.6680  144.2330 C   0  0  0  0  0  0  0  0  0  0  0  0
  186.3430  177.9820  145.4160 C   0  0  0  0  0  2  0  0  0  0  0  0
  187.0900  178.4490  143.0800 C   0  0  0  0  0  3  0  0  0  0  0  0
  190.7490  175.4330  144.8080 N   0  0  0  0  0  0  0  0  0  0  0  0
  190.3800  175.7060  143.4080 C   0  0  1  0  0  3  0  0  0  0  0  0
  186.5060  177.0040  146.5980 C   0  0  2  0  0  3  0  0  0  0  0  0
  187.9770  178.2910  142.0130 C   0  0  0  0  0  3  0  0  0  0  0  0
  191.7550  173.8740  140.5700 C   0  0  0  0  0  0  0  0  0  0  0  0
  189.3080  171.3720  139.6160 F   0  0  0  0  0  0  0  0  0  0  0  0
  192.7690  174.5380  139.9650 F   0  0  0  0  0  0  0  0  0  0  0  0
  189.0230  172.8110  141.3650 N   0  0  0  0  0  0  0  0  0  0  0  0
  190.4070  174.4710  142.5470 C   0  0  0  0  0  0  0  0  0  0  0  0
  190.8960  173.1870  139.8220 C   0  0  0  0  0  3  0  0  0  0  0  0
  189.2230  173.9390  142.2360 C   0  0  0  0  0  3  0  0  0  0  0  0
  191.6810  173.8330  142.0610 C   0  0  2  0  0  3  0  0  0  0  0  0
  192.8130  174.4020  142.6140 F   0  0  0  0  0  0  0  0  0  0  0  0
  189.7360  172.4340  140.3420 C   0  0  0  0  0  0  0  0  0  0  0  0
  185.9420  177.4870  147.7990 O   0  0  0  0  0  0  0  0  0  0  0  0
  185.1970  178.6440  147.5170 C   0  0  0  0  0  1  0  0  0  0  0  0
  191.2980  176.6400  145.4190 C   0  0  0  0  0  2  0  0  0  0  0  0
  192.5690  174.8840  146.6160 C   0  0  0  0  0  2  0  0  0  0  0  0
  194.4990  175.2570  145.2890 C   0  0  0  0  0  2  0  0  0  0  0  0
  193.7270  176.4870  145.2230 N   0  0  0  0  0  0  0  0  0  0  0  0
  194.5660  177.5410  145.7640 C   0  0  0  0  0  1  0  0  0  0  0  0
  193.5750  174.1640  145.7630 C   0  0  0  0  0  2  0  0  0  0  0  0
  192.5990  176.3230  146.1390 C   0  0  1  0  0  3  0  0  0  0  0  0
  1 11  1  0  0  0  0
  1  4  1  0  0  0  0
  2  6  1  1  0  0  0
  2  5  1  0  0  0  0
  3  1  2  0  0  0  0
  4  2  1  0  0  0  0
  7  4  2  0  0  0  0
  7  8  1  0  0  0  0
  8 12  1  0  0  0  0
  9  7  1  0  0  0  0
 10 26  1  0  0  0  0
 10  6  1  0  0  0  0
 11 18  1  6  0  0  0
 11 10  1  0  0  0  0
 12  5  1  0  0  0  0
 12 24  1  1  0  0  0
 13  3  1  0  0  0  0
 13  9  2  0  0  0  0
 14 21  1  0  0  0  0
 15 23  1  0  0  0  0
 16 14  1  0  0  0  0
 17 20  1  0  0  0  0
 19 23  1  0  0  0  0
 19 14  2  0  0  0  0
 20 18  2  0  0  0  0
 21 18  1  0  0  0  0
 21 22  1  1  0  0  0
 23 17  2  0  0  0  0
 25 24  1  0  0  0  0
 28 31  1  0  0  0  0
 29 28  1  0  0  0  0
 29 30  1  0  0  0  0
 29 32  1  0  0  0  0
 31 27  1  0  0  0  0
 32 26  1  6  0  0  0
 32 27  1  0  0  0  0
M  END
>  <MODEL>
7

>  <REMARK>
 VINA RESULT:      -7.3      2.685      5.461
  Name = 
  4 active torsions:
  status: ('A' for Active; 'I' for Inactive)
    1  A    between atoms: O_13  and  C_29
    2  A    between atoms: C_16  and  C_27
    3  A    between atoms: N_24  and  C_28
    4  A    between atoms: C_28  and  C_32
                            x       y       z     vdW  Elec       q    Type
                         _______ _______ _______ _____ _____    ______ ____

>  <TORSDO>
F 4

$$$$
=
 OpenBabel11052419123D

 32 36  0  0  1  0  0  0  0  0999 V2000
  190.0280  176.5460  143.8870 C   0  0  0  0  0  0  0  0  0  0  0  0
  190.6650  174.3060  144.8530 C   0  0  2  0  0  3  0  0  0  0  0  0
  190.3230  177.8850  143.6120 C   0  0  0  0  0  3  0  0  0  0  0  0
  191.0130  175.7070  144.4270 C   0  0  0  0  0  0  0  0  0  0  0  0
  191.8150  173.3480  144.6060 C   0  0  0  0  0  2  0  0  0  0  0  0
  189.3160  173.7630  144.3510 C   0  0  0  0  0  2  0  0  0  0  0  0
  192.3190  176.2000  144.6340 C   0  0  0  0  0  0  0  0  0  0  0  0
  193.4610  175.2920  145.0120 C   0  0  0  0  0  2  0  0  0  0  0  0
  192.6020  177.5410  144.3500 C   0  0  0  0  0  3  0  0  0  0  0  0
  188.7090  174.5240  143.2490 N   0  0  0  0  0  0  0  0  0  0  0  0
  188.6940  175.9780  143.4900 C   0  0  1  0  0  3  0  0  0  0  0  0
  193.0270  173.8610  145.3920 C   0  0  2  0  0  3  0  0  0  0  0  0
  191.6040  178.3850  143.8580 C   0  0  0  0  0  3  0  0  0  0  0  0
  185.9020  178.2590  144.0340 C   0  0  0  0  0  0  0  0  0  0  0  0
  185.0700  178.1220  147.5610 F   0  0  0  0  0  0  0  0  0  0  0  0
  185.7540  179.1500  143.0230 F   0  0  0  0  0  0  0  0  0  0  0  0
  186.7250  176.8730  146.6080 N   0  0  0  0  0  0  0  0  0  0  0  0
  187.5170  176.4180  144.3200 C   0  0  0  0  0  0  0  0  0  0  0  0
  185.6840  178.6610  145.2830 C   0  0  0  0  0  3  0  0  0  0  0  0
  187.6910  176.4160  145.6430 C   0  0  0  0  0  3  0  0  0  0  0  0
  186.1970  176.8290  143.7240 C   0  0  2  0  0  3  0  0  0  0  0  0
  186.1300  176.6080  142.3620 F   0  0  0  0  0  0  0  0  0  0  0  0
  185.8260  177.8080  146.4810 C   0  0  0  0  0  0  0  0  0  0  0  0
  194.1000  172.9450  145.4190 O   0  0  0  0  0  0  0  0  0  0  0  0
  195.2980  173.6420  145.1860 C   0  0  0  0  0  1  0  0  0  0  0  0
  189.4300  174.2340  142.0140 C   0  0  0  0  0  2  0  0  0  0  0  0
  188.1910  172.9370  140.3070 C   0  0  0  0  0  2  0  0  0  0  0  0
  190.1020  171.6320  139.7890 C   0  0  0  0  0  2  0  0  0  0  0  0
  190.3180  172.1370  141.1350 N   0  0  0  0  0  0  0  0  0  0  0  0
  190.4410  170.9810  142.0040 C   0  0  0  0  0  1  0  0  0  0  0  0
  189.0340  172.4820  139.1490 C   0  0  0  0  0  2  0  0  0  0  0  0
  189.0940  172.8360  141.5210 C   0  0  1  0  0  3  0  0  0  0  0  0
  1  4  1  0  0  0  0
  2  6  1  6  0  0  0
  3 13  1  0  0  0  0
  3  1  2  0  0  0  0
  4  7  2  0  0  0  0
  4  2  1  0  0  0  0
  5  2  1  0  0  0  0
  5 12  1  0  0  0  0
  7  8  1  0  0  0  0
  8 12  1  0  0  0  0
  9  7  1  0  0  0  0
 10 11  1  0  0  0  0
 10  6  1  0  0  0  0
 11  1  1  0  0  0  0
 11 18  1  1  0  0  0
 12 24  1  6  0  0  0
 13  9  2  0  0  0  0
 14 19  2  0  0  0  0
 16 14  1  0  0  0  0
 18 20  2  0  0  0  0
 19 23  1  0  0  0  0
 20 17  1  0  0  0  0
 21 22  1  6  0  0  0
 21 14  1  0  0  0  0
 21 18  1  0  0  0  0
 23 17  2  0  0  0  0
 23 15  1  0  0  0  0
 25 24  1  0  0  0  0
 26 10  1  0  0  0  0
 27 32  1  0  0  0  0
 28 29  1  0  0  0  0
 29 32  1  0  0  0  0
 29 30  1  0  0  0  0
 31 28  1  0  0  0  0
 31 27  1  0  0  0  0
 32 26  1  6  0  0  0
M  END
>  <MODEL>
8

>  <REMARK>
 VINA RESULT:      -7.3      3.378      6.009
  Name = 
  4 active torsions:
  status: ('A' for Active; 'I' for Inactive)
    1  A    between atoms: O_13  and  C_29
    2  A    between atoms: C_16  and  C_27
    3  A    between atoms: N_24  and  C_28
    4  A    between atoms: C_28  and  C_32
                            x       y       z     vdW  Elec       q    Type
                         _______ _______ _______ _____ _____    ______ ____

>  <TORSDO>
F 4

$$$$
=
 OpenBabel11052419123D

 32 36  0  0  1  0  0  0  0  0999 V2000
  191.3500  175.2650  145.3680 C   0  0  0  0  0  0  0  0  0  0  0  0
  189.6480  176.4190  143.9100 C   0  0  2  0  0  3  0  0  0  0  0  0
  191.9860  175.0960  146.6020 C   0  0  0  0  0  3  0  0  0  0  0  0
  190.2490  176.1270  145.2580 C   0  0  0  0  0  0  0  0  0  0  0  0
  188.1450  176.6030  144.0000 C   0  0  0  0  0  2  0  0  0  0  0  0
  190.0680  175.4810  142.7650 C   0  0  0  0  0  2  0  0  0  0  0  0
  189.7460  176.7730  146.4070 C   0  0  0  0  0  0  0  0  0  0  0  0
  188.4480  177.5400  146.3830 C   0  0  0  0  0  2  0  0  0  0  0  0
  190.3890  176.5920  147.6360 C   0  0  0  0  0  3  0  0  0  0  0  0
  190.7090  174.2280  143.1890 N   0  0  0  0  0  0  0  0  0  0  0  0
  191.7710  174.4320  144.1900 C   0  0  1  0  0  3  0  0  0  0  0  0
  187.8740  177.7600  144.9680 C   0  0  2  0  0  3  0  0  0  0  0  0
  191.5150  175.7710  147.7320 C   0  0  0  0  0  3  0  0  0  0  0  0
  195.2890  175.3140  144.5650 C   0  0  0  0  0  0  0  0  0  0  0  0
  196.3090  176.9920  141.5160 F   0  0  0  0  0  0  0  0  0  0  0  0
  195.6960  175.2910  145.8580 F   0  0  0  0  0  0  0  0  0  0  0  0
  194.2080  176.1690  141.8580 N   0  0  0  0  0  0  0  0  0  0  0  0
  193.0950  174.7890  143.5690 C   0  0  0  0  0  0  0  0  0  0  0  0
  195.7650  176.2570  143.7570 C   0  0  0  0  0  3  0  0  0  0  0  0
  193.0570  175.6390  142.5400 C   0  0  0  0  0  3  0  0  0  0  0  0
  194.4070  174.2270  144.0460 C   0  0  2  0  0  3  0  0  0  0  0  0
  194.2540  173.2360  144.9970 F   0  0  0  0  0  0  0  0  0  0  0  0
  195.3960  176.4160  142.3350 C   0  0  0  0  0  0  0  0  0  0  0  0
  186.5240  178.1730  144.9770 O   0  0  0  0  0  0  0  0  0  0  0  0
  185.8330  177.4470  145.9620 C   0  0  0  0  0  1  0  0  0  0  0  0
  189.6910  173.3290  143.7230 C   0  0  0  0  0  2  0  0  0  0  0  0
  188.0250  172.6740  142.0130 C   0  0  0  0  0  2  0  0  0  0  0  0
  189.7110  172.3130  140.3850 C   0  0  0  0  0  2  0  0  0  0  0  0
  190.3690  172.1860  141.6750 N   0  0  0  0  0  0  0  0  0  0  0  0
  190.9130  170.8410  141.7410 C   0  0  0  0  0  1  0  0  0  0  0  0
  188.4100  173.0410  140.6080 C   0  0  0  0  0  2  0  0  0  0  0  0
  189.3210  172.2760  142.6900 C   0  0  1  0  0  3  0  0  0  0  0  0
  1  3  1  0  0  0  0
  2  6  1  6  0  0  0
  2  5  1  0  0  0  0
  2  4  1  0  0  0  0
  3 13  2  0  0  0  0
  4  1  2  0  0  0  0
  4  7  1  0  0  0  0
  5 12  1  0  0  0  0
  6 10  1  0  0  0  0
  7  9  2  0  0  0  0
  8  7  1  0  0  0  0
  9 13  1  0  0  0  0
 10 26  1  0  0  0  0
 10 11  1  0  0  0  0
 11 18  1  6  0  0  0
 11  1  1  0  0  0  0
 12 24  1  1  0  0  0
 12  8  1  0  0  0  0
 14 16  1  0  0  0  0
 15 23  1  0  0  0  0
 17 23  2  0  0  0  0
 17 20  1  0  0  0  0
 18 21  1  0  0  0  0
 19 14  2  0  0  0  0
 20 18  2  0  0  0  0
 21 14  1  0  0  0  0
 21 22  1  1  0  0  0
 23 19  1  0  0  0  0
 24 25  1  0  0  0  0
 27 32  1  0  0  0  0
 28 31  1  0  0  0  0
 28 29  1  0  0  0  0
 29 30  1  0  0  0  0
 29 32  1  0  0  0  0
 31 27  1  0  0  0  0
 32 26  1  1  0  0  0
M  END
>  <MODEL>
9

>  <REMARK>
 VINA RESULT:      -7.1      2.701      4.114
  Name = 
  4 active torsions:
  status: ('A' for Active; 'I' for Inactive)
    1  A    between atoms: O_13  and  C_29
    2  A    between atoms: C_16  and  C_27
    3  A    between atoms: N_24  and  C_28
    4  A    between atoms: C_28  and  C_32
                            x       y       z     vdW  Elec       q    Type
                         _______ _______ _______ _____ _____    ______ ____

>  <TORSDO>
F 4

$$$$
