=
 OpenBabel11052420413D

 43 48  0  0  1  0  0  0  0  0999 V2000
  185.0230  178.0980  146.6830 C   0  0  0  0  0  0  0  0  0  0  0  0
  188.5160  176.0060  143.6810 C   0  0  0  0  0  0  0  0  0  0  0  0
  191.0510  176.4610  144.9360 C   0  0  2  0  0  3  0  0  0  0  0  0
  186.1830  177.0850  144.8140 C   0  0  0  0  0  0  0  0  0  0  0  0
  186.1930  178.0440  147.4470 C   0  0  0  0  0  3  0  0  0  0  0  0
  183.8640  178.6290  147.2300 O   0  0  0  0  0  1  0  0  0  0  0  0
  187.3750  177.0290  145.5800 C   0  0  0  0  0  0  0  0  0  0  0  0
  185.0180  177.6190  145.3700 C   0  0  0  0  0  3  0  0  0  0  0  0
  187.3630  177.5120  146.8990 C   0  0  0  0  0  3  0  0  0  0  0  0
  189.8040  176.3220  145.8180 C   0  0  0  0  0  2  0  0  0  0  0  0
  188.5440  176.4900  145.0070 C   0  0  0  0  0  0  0  0  0  0  0  0
  187.3270  176.0650  142.9420 C   0  0  0  0  0  3  0  0  0  0  0  0
  189.7440  175.4390  143.0770 C   0  0  0  0  0  0  0  0  0  0  0  0
  190.9180  175.6060  143.7010 C   0  0  0  0  0  3  0  0  0  0  0  0
  186.1680  176.6020  143.5060 C   0  0  0  0  0  3  0  0  0  0  0  0
  192.3120  176.0970  145.7210 C   0  0  1  0  0  3  0  0  0  0  0  0
  192.0700  176.2180  147.2180 C   0  0  0  0  0  1  0  0  0  0  0  0
  192.7240  174.7330  145.4130 N   0  0  0  0  0  2  0  0  0  0  0  0
  194.0520  174.2640  145.6510 C   0  0  0  0  0  0  0  0  0  0  0  0
  194.9290  175.0390  146.1220 O   0  0  0  0  0  0  0  0  0  0  0  0
  194.4020  172.8520  145.3160 C   0  0  0  0  0  2  0  0  0  0  0  0
  193.7210  172.4260  144.1010 N   0  0  0  0  0  0  0  0  0  0  0  0
  194.5250  170.9080  142.4110 C   0  0  0  0  0  2  0  0  0  0  0  0
  193.1660  171.1010  144.3640 C   0  0  0  0  0  2  0  0  0  0  0  0
  194.7280  172.2600  143.0520 C   0  0  1  0  0  3  0  0  0  0  0  0
  193.8860  170.0900  143.4960 C   0  0  0  0  0  2  0  0  0  0  0  0
  195.5380  174.4500  142.0300 N   0  0  0  0  0  0  0  0  0  0  0  0
  194.6120  173.3530  142.0310 C   0  0  0  0  0  0  0  0  0  0  0  0
  196.2650  176.6930  141.5980 C   0  0  0  0  0  2  0  0  0  0  0  0
  197.6170  176.0060  142.5980 S   0  0  0  0  0  0  0  0  0  0  0  0
  195.4180  175.5480  141.0850 C   0  0  1  0  0  3  0  0  0  0  0  0
  196.6180  174.5440  142.9990 C   0  0  0  0  0  2  0  0  0  0  0  0
  195.8850  175.1430  139.8350 O   0  0  0  0  0  1  0  0  0  0  0  0
  193.6910  173.3010  141.1690 O   0  0  0  0  0  0  0  0  0  0  0  0
  189.6390  174.6730  141.8640 N   0  0  0  0  0  2  0  0  0  0  0  0
  190.2430  170.9970  142.3840 C   0  0  0  0  0  3  0  0  0  0  0  0
  190.7080  170.6310  141.1180 C   0  0  0  0  0  0  0  0  0  0  0  0
  190.4640  172.9290  140.3770 C   0  0  0  0  0  3  0  0  0  0  0  0
  189.8860  172.3240  142.6430 C   0  0  0  0  0  3  0  0  0  0  0  0
  189.9880  173.2990  141.6380 C   0  0  0  0  0  0  0  0  0  0  0  0
  190.8200  171.6030  140.1140 C   0  0  0  0  0  3  0  0  0  0  0  0
  190.8750  168.2750  141.8380 N   0  0  0  0  0  1  0  0  0  0  0  0
  191.0510  169.2670  140.8630 N   0  0  0  0  0  2  0  0  0  0  0  0
  1  6  1  0  0  0  0
  1  5  1  0  0  0  0
  2 11  1  0  0  0  0
  3 16  1  1  0  0  0
  3 10  1  0  0  0  0
  4  8  1  0  0  0  0
  4  7  1  0  0  0  0
  7  9  1  0  0  0  0
  8  1  2  0  0  0  0
  9  5  2  0  0  0  0
 11  7  2  0  0  0  0
 11 10  1  0  0  0  0
 12 15  1  0  0  0  0
 12  2  2  0  0  0  0
 13  2  1  0  0  0  0
 13 14  2  0  0  0  0
 14  3  1  0  0  0  0
 15  4  2  0  0  0  0
 16 17  1  1  0  0  0
 18 19  1  0  0  0  0
 18 16  1  0  0  0  0
 19 20  2  0  0  0  0
 21 19  1  0  0  0  0
 22 24  1  0  0  0  0
 22 21  1  0  0  0  0
 23 25  1  0  0  0  0
 23 26  1  0  0  0  0
 25 28  1  6  0  0  0
 25 22  1  0  0  0  0
 26 24  1  0  0  0  0
 27 28  1  0  0  0  0
 27 32  1  0  0  0  0
 29 30  1  0  0  0  0
 30 32  1  0  0  0  0
 31 33  1  6  0  0  0
 31 29  1  0  0  0  0
 31 27  1  0  0  0  0
 34 28  2  0  0  0  0
 35 13  1  0  0  0  0
 36 39  1  0  0  0  0
 37 36  2  0  0  0  0
 38 40  1  0  0  0  0
 40 35  1  0  0  0  0
 40 39  2  0  0  0  0
 41 38  2  0  0  0  0
 41 37  1  0  0  0  0
 43 37  1  0  0  0  0
 43 42  1  0  0  0  0
M  END
>  <MODEL>
1

>  <REMARK>
 VINA RESULT:      -7.8      0.000      0.000
  Name = 
  8 active torsions:
  status: ('A' for Active; 'I' for Inactive)
    1  A    between atoms: N_1  and  C_34
    2  A    between atoms: N_1  and  C_35
    3  A    between atoms: C_2  and  N_6
    4  A    between atoms: C_2  and  C_13
    5  A    between atoms: C_3  and  N_4
    6  A    between atoms: C_3  and  C_12
    7  A    between atoms: C_14  and  C_22
    8  A    between atoms: C_19  and  N_37
                            x       y       z     vdW  Elec       q    Type
                         _______ _______ _______ _____ _____    ______ ____

>  <TORSDO>
F 8

$$$$
=
 OpenBabel11052420413D

 43 48  0  0  1  0  0  0  0  0999 V2000
  184.8300  178.4120  145.3230 C   0  0  0  0  0  0  0  0  0  0  0  0
  188.5700  175.5210  143.5200 C   0  0  0  0  0  0  0  0  0  0  0  0
  190.9630  176.3510  144.8580 C   0  0  2  0  0  3  0  0  0  0  0  0
  186.1600  176.8830  143.9970 C   0  0  0  0  0  0  0  0  0  0  0  0
  185.9070  178.6000  146.1950 C   0  0  0  0  0  3  0  0  0  0  0  0
  183.6340  179.0790  145.5460 O   0  0  0  0  0  1  0  0  0  0  0  0
  187.2570  177.0690  144.8740 C   0  0  0  0  0  0  0  0  0  0  0  0
  184.9570  177.5540  144.2260 C   0  0  0  0  0  3  0  0  0  0  0  0
  187.1140  177.9320  145.9730 C   0  0  0  0  0  3  0  0  0  0  0  0
  189.6220  176.4820  145.5920 C   0  0  0  0  0  2  0  0  0  0  0  0
  188.4650  176.3870  144.6300 C   0  0  0  0  0  0  0  0  0  0  0  0
  187.4730  175.3450  142.6670 C   0  0  0  0  0  3  0  0  0  0  0  0
  189.8400  174.8030  143.2620 C   0  0  0  0  0  0  0  0  0  0  0  0
  190.9420  175.1590  143.9350 C   0  0  0  0  0  3  0  0  0  0  0  0
  186.2750  176.0220  142.9040 C   0  0  0  0  0  3  0  0  0  0  0  0
  192.1190  176.2510  145.8550 C   0  0  1  0  0  3  0  0  0  0  0  0
  191.7750  175.2920  146.9860 C   0  0  0  0  0  1  0  0  0  0  0  0
  193.3260  175.7860  145.1850 N   0  0  0  0  0  2  0  0  0  0  0  0
  194.6030  176.3890  145.4060 C   0  0  0  0  0  0  0  0  0  0  0  0
  194.7170  177.3750  146.1850 O   0  0  0  0  0  0  0  0  0  0  0  0
  195.7990  175.8570  144.6890 C   0  0  0  0  0  2  0  0  0  0  0  0
  195.6410  174.4360  144.4070 N   0  0  0  0  0  0  0  0  0  0  0  0
  197.3500  172.8560  143.7790 C   0  0  0  0  0  2  0  0  0  0  0  0
  196.0690  173.7140  145.6020 C   0  0  0  0  0  2  0  0  0  0  0  0
  196.5790  174.0800  143.3410 C   0  0  1  0  0  3  0  0  0  0  0  0
  197.3290  172.9380  145.2770 C   0  0  0  0  0  2  0  0  0  0  0  0
  196.3550  174.3070  140.8130 N   0  0  0  0  0  0  0  0  0  0  0  0
  195.8450  173.8140  142.0600 C   0  0  0  0  0  0  0  0  0  0  0  0
  196.2140  175.0670  138.5440 C   0  0  0  0  0  2  0  0  0  0  0  0
  197.9410  175.4130  138.9890 S   0  0  0  0  0  0  0  0  0  0  0  0
  195.6390  174.1080  139.5650 C   0  0  1  0  0  3  0  0  0  0  0  0
  197.5920  175.0690  140.7360 C   0  0  0  0  0  2  0  0  0  0  0  0
  195.8170  172.7960  139.1260 O   0  0  0  0  0  1  0  0  0  0  0  0
  194.7720  173.1490  142.0870 O   0  0  0  0  0  0  0  0  0  0  0  0
  189.8460  173.7020  142.3360 N   0  0  0  0  0  2  0  0  0  0  0  0
  189.6740  173.7780  138.5790 C   0  0  0  0  0  3  0  0  0  0  0  0
  191.0290  173.6710  138.2560 C   0  0  0  0  0  0  0  0  0  0  0  0
  191.5720  173.5820  140.6210 C   0  0  0  0  0  3  0  0  0  0  0  0
  189.2710  173.7910  139.9180 C   0  0  0  0  0  3  0  0  0  0  0  0
  190.2180  173.7000  140.9490 C   0  0  0  0  0  0  0  0  0  0  0  0
  191.9790  173.5710  139.2830 C   0  0  0  0  0  3  0  0  0  0  0  0
  191.7580  174.8710  136.2260 N   0  0  0  0  0  1  0  0  0  0  0  0
  191.4280  173.6790  136.8840 N   0  0  0  0  0  2  0  0  0  0  0  0
  1  6  1  0  0  0  0
  1  5  1  0  0  0  0
  2 11  1  0  0  0  0
  3 10  1  0  0  0  0
  3 16  1  1  0  0  0
  4  8  1  0  0  0  0
  4  7  1  0  0  0  0
  7  9  1  0  0  0  0
  8  1  2  0  0  0  0
  9  5  2  0  0  0  0
 11  7  2  0  0  0  0
 11 10  1  0  0  0  0
 12 15  1  0  0  0  0
 12  2  2  0  0  0  0
 13  2  1  0  0  0  0
 13 14  2  0  0  0  0
 14  3  1  0  0  0  0
 15  4  2  0  0  0  0
 16 17  1  1  0  0  0
 18 19  1  0  0  0  0
 18 16  1  0  0  0  0
 19 20  2  0  0  0  0
 21 19  1  0  0  0  0
 22 21  1  0  0  0  0
 22 24  1  0  0  0  0
 23 26  1  0  0  0  0
 25 28  1  6  0  0  0
 25 23  1  0  0  0  0
 25 22  1  0  0  0  0
 26 24  1  0  0  0  0
 27 28  1  0  0  0  0
 28 34  2  0  0  0  0
 29 30  1  0  0  0  0
 29 31  1  0  0  0  0
 30 32  1  0  0  0  0
 31 33  1  6  0  0  0
 31 27  1  0  0  0  0
 32 27  1  0  0  0  0
 35 13  1  0  0  0  0
 36 39  1  0  0  0  0
 37 36  2  0  0  0  0
 37 41  1  0  0  0  0
 38 40  1  0  0  0  0
 39 40  2  0  0  0  0
 40 35  1  0  0  0  0
 41 38  2  0  0  0  0
 42 43  1  0  0  0  0
 43 37  1  0  0  0  0
M  END
>  <MODEL>
2

>  <REMARK>
 VINA RESULT:      -7.5      2.197      2.748
  Name = 
  8 active torsions:
  status: ('A' for Active; 'I' for Inactive)
    1  A    between atoms: N_1  and  C_34
    2  A    between atoms: N_1  and  C_35
    3  A    between atoms: C_2  and  N_6
    4  A    between atoms: C_2  and  C_13
    5  A    between atoms: C_3  and  N_4
    6  A    between atoms: C_3  and  C_12
    7  A    between atoms: C_14  and  C_22
    8  A    between atoms: C_19  and  N_37
                            x       y       z     vdW  Elec       q    Type
                         _______ _______ _______ _____ _____    ______ ____

>  <TORSDO>
F 8

$$$$
=
 OpenBabel11052420413D

 43 48  0  0  1  0  0  0  0  0999 V2000
  185.2840  177.9120  146.9400 C   0  0  0  0  0  0  0  0  0  0  0  0
  189.9340  176.6630  145.3850 C   0  0  0  0  0  0  0  0  0  0  0  0
  189.6150  174.5770  143.4470 C   0  0  2  0  0  3  0  0  0  0  0  0
  187.6850  177.6710  146.7340 C   0  0  0  0  0  0  0  0  0  0  0  0
  185.1020  177.1400  145.7880 C   0  0  0  0  0  3  0  0  0  0  0  0
  184.1830  178.4160  147.6170 O   0  0  0  0  0  1  0  0  0  0  0  0
  187.5110  176.8850  145.5680 C   0  0  0  0  0  0  0  0  0  0  0  0
  186.5740  178.1780  147.4110 C   0  0  0  0  0  3  0  0  0  0  0  0
  186.2090  176.6290  145.1050 C   0  0  0  0  0  3  0  0  0  0  0  0
  188.5010  175.6220  143.5980 C   0  0  0  0  0  2  0  0  0  0  0  0
  188.6400  176.3790  144.8960 C   0  0  0  0  0  0  0  0  0  0  0  0
  190.0870  177.4460  146.5360 C   0  0  0  0  0  3  0  0  0  0  0  0
  191.1230  176.1310  144.6790 C   0  0  0  0  0  0  0  0  0  0  0  0
  190.9590  175.1970  143.7320 C   0  0  0  0  0  3  0  0  0  0  0  0
  188.9690  177.9470  147.2070 C   0  0  0  0  0  3  0  0  0  0  0  0
  189.5850  173.9530  142.0510 C   0  0  1  0  0  3  0  0  0  0  0  0
  188.7070  174.7690  141.1130 C   0  0  0  0  0  1  0  0  0  0  0  0
  190.9320  173.8800  141.5000 N   0  0  0  0  0  2  0  0  0  0  0  0
  191.3710  172.7810  140.7000 C   0  0  0  0  0  0  0  0  0  0  0  0
  190.5970  171.8140  140.4620 O   0  0  0  0  0  0  0  0  0  0  0  0
  192.7640  172.7740  140.1640 C   0  0  0  0  0  2  0  0  0  0  0  0
  193.6970  173.3080  141.1480 N   0  0  0  0  0  0  0  0  0  0  0  0
  195.9560  172.5880  141.5850 C   0  0  0  0  0  2  0  0  0  0  0  0
  194.6140  174.1920  140.4320 C   0  0  0  0  0  2  0  0  0  0  0  0
  194.4990  172.1950  141.6600 C   0  0  1  0  0  3  0  0  0  0  0  0
  196.0000  173.5820  140.4600 C   0  0  0  0  0  2  0  0  0  0  0  0
  194.4480  170.6010  143.6480 N   0  0  0  0  0  0  0  0  0  0  0  0
  194.1110  171.8720  143.0730 C   0  0  0  0  0  0  0  0  0  0  0  0
  194.1910  168.7420  145.1400 C   0  0  0  0  0  2  0  0  0  0  0  0
  195.4940  168.1830  144.0030 S   0  0  0  0  0  0  0  0  0  0  0  0
  194.0400  170.2420  144.9950 C   0  0  1  0  0  3  0  0  0  0  0  0
  195.1760  169.5890  142.9000 C   0  0  0  0  0  2  0  0  0  0  0  0
  194.8620  170.8850  145.9210 O   0  0  0  0  0  1  0  0  0  0  0  0
  193.4840  172.7290  143.7550 O   0  0  0  0  0  0  0  0  0  0  0  0
  192.4190  176.6720  144.9870 N   0  0  0  0  0  2  0  0  0  0  0  0
  195.4460  174.6520  145.9440 C   0  0  0  0  0  3  0  0  0  0  0  0
  196.2170  174.7790  144.7850 C   0  0  0  0  0  0  0  0  0  0  0  0
  194.4770  176.1490  143.7910 C   0  0  0  0  0  3  0  0  0  0  0  0
  194.1930  175.2690  146.0230 C   0  0  0  0  0  3  0  0  0  0  0  0
  193.6960  176.0170  144.9440 C   0  0  0  0  0  0  0  0  0  0  0  0
  195.7280  175.5320  143.7080 C   0  0  0  0  0  3  0  0  0  0  0  0
  197.6020  172.7370  144.8480 N   0  0  0  0  0  1  0  0  0  0  0  0
  197.4860  174.1270  144.7120 N   0  0  0  0  0  2  0  0  0  0  0  0
  1  8  1  0  0  0  0
  1  6  1  0  0  0  0
  2 12  1  0  0  0  0
  3 16  1  6  0  0  0
  3 10  1  0  0  0  0
  3 14  1  0  0  0  0
  4 15  1  0  0  0  0
  4  8  2  0  0  0  0
  5  1  2  0  0  0  0
  7  4  1  0  0  0  0
  9  7  2  0  0  0  0
  9  5  1  0  0  0  0
 10 11  1  0  0  0  0
 11  2  2  0  0  0  0
 11  7  1  0  0  0  0
 12 15  2  0  0  0  0
 13 35  1  0  0  0  0
 13  2  1  0  0  0  0
 14 13  2  0  0  0  0
 16 17  1  6  0  0  0
 18 16  1  0  0  0  0
 19 18  1  0  0  0  0
 20 19  2  0  0  0  0
 21 19  1  0  0  0  0
 21 22  1  0  0  0  0
 22 25  1  0  0  0  0
 23 25  1  0  0  0  0
 24 26  1  0  0  0  0
 24 22  1  0  0  0  0
 25 28  1  1  0  0  0
 26 23  1  0  0  0  0
 27 31  1  0  0  0  0
 28 27  1  0  0  0  0
 28 34  2  0  0  0  0
 30 29  1  0  0  0  0
 31 29  1  0  0  0  0
 31 33  1  1  0  0  0
 32 27  1  0  0  0  0
 32 30  1  0  0  0  0
 36 39  1  0  0  0  0
 37 36  2  0  0  0  0
 38 40  1  0  0  0  0
 40 35  1  0  0  0  0
 40 39  2  0  0  0  0
 41 38  2  0  0  0  0
 41 37  1  0  0  0  0
 43 37  1  0  0  0  0
 43 42  1  0  0  0  0
M  END
>  <MODEL>
3

>  <REMARK>
 VINA RESULT:      -7.5      2.332      5.151
  Name = 
  8 active torsions:
  status: ('A' for Active; 'I' for Inactive)
    1  A    between atoms: N_1  and  C_34
    2  A    between atoms: N_1  and  C_35
    3  A    between atoms: C_2  and  N_6
    4  A    between atoms: C_2  and  C_13
    5  A    between atoms: C_3  and  N_4
    6  A    between atoms: C_3  and  C_12
    7  A    between atoms: C_14  and  C_22
    8  A    between atoms: C_19  and  N_37
                            x       y       z     vdW  Elec       q    Type
                         _______ _______ _______ _____ _____    ______ ____

>  <TORSDO>
F 8

$$$$
=
 OpenBabel11052420413D

 43 48  0  0  1  0  0  0  0  0999 V2000
  184.6240  178.3510  145.1680 C   0  0  0  0  0  0  0  0  0  0  0  0
  188.8930  175.6510  145.4530 C   0  0  0  0  0  0  0  0  0  0  0  0
  189.1190  174.2160  142.9830 C   0  0  2  0  0  3  0  0  0  0  0  0
  186.6180  177.2210  145.9520 C   0  0  0  0  0  0  0  0  0  0  0  0
  184.8850  177.9180  143.8640 C   0  0  0  0  0  3  0  0  0  0  0  0
  183.5040  179.1270  145.4280 O   0  0  0  0  0  1  0  0  0  0  0  0
  186.8890  176.7760  144.6340 C   0  0  0  0  0  0  0  0  0  0  0  0
  185.4910  178.0040  146.2090 C   0  0  0  0  0  3  0  0  0  0  0  0
  186.0110  177.1340  143.5970 C   0  0  0  0  0  3  0  0  0  0  0  0
  188.4050  175.5740  142.9870 C   0  0  0  0  0  2  0  0  0  0  0  0
  188.0290  175.9850  144.3880 C   0  0  0  0  0  0  0  0  0  0  0  0
  188.6120  176.1050  146.7480 C   0  0  0  0  0  3  0  0  0  0  0  0
  190.0920  174.8200  145.1960 C   0  0  0  0  0  0  0  0  0  0  0  0
  190.2190  174.1990  144.0150 C   0  0  0  0  0  3  0  0  0  0  0  0
  187.4810  176.8850  146.9950 C   0  0  0  0  0  3  0  0  0  0  0  0
  189.6700  173.8980  141.5920 C   0  0  1  0  0  3  0  0  0  0  0  0
  188.7170  174.3850  140.5100 C   0  0  0  0  0  1  0  0  0  0  0  0
  190.9680  174.5320  141.4040 N   0  0  0  0  0  2  0  0  0  0  0  0
  192.0310  173.9000  140.6880 C   0  0  0  0  0  0  0  0  0  0  0  0
  191.8780  172.7420  140.2090 O   0  0  0  0  0  0  0  0  0  0  0  0
  193.3340  174.6110  140.5300 C   0  0  0  0  0  2  0  0  0  0  0  0
  194.1880  174.3830  141.6880 N   0  0  0  0  0  0  0  0  0  0  0  0
  196.4930  175.0290  141.9720 C   0  0  0  0  0  2  0  0  0  0  0  0
  194.2320  175.6350  142.4390 C   0  0  0  0  0  2  0  0  0  0  0  0
  195.5480  174.1350  141.2040 C   0  0  1  0  0  3  0  0  0  0  0  0
  195.6370  176.1960  142.3700 C   0  0  0  0  0  2  0  0  0  0  0  0
  195.9380  171.7990  140.2640 N   0  0  0  0  0  0  0  0  0  0  0  0
  195.9170  172.6930  141.3860 C   0  0  0  0  0  0  0  0  0  0  0  0
  195.7930  169.6760  139.1600 C   0  0  0  0  0  2  0  0  0  0  0  0
  195.8560  170.8550  137.7800 S   0  0  0  0  0  0  0  0  0  0  0  0
  196.2420  170.3870  140.4190 C   0  0  1  0  0  3  0  0  0  0  0  0
  195.6130  172.2470  138.9190 C   0  0  0  0  0  2  0  0  0  0  0  0
  197.6170  170.2190  140.5860 O   0  0  0  0  0  1  0  0  0  0  0  0
  196.2120  172.2690  142.5380 O   0  0  0  0  0  0  0  0  0  0  0  0
  191.1200  174.7450  146.1990 N   0  0  0  0  0  2  0  0  0  0  0  0
  194.7870  175.5860  146.1570 C   0  0  0  0  0  3  0  0  0  0  0  0
  195.3160  174.4070  145.6250 C   0  0  0  0  0  0  0  0  0  0  0  0
  193.0760  173.4830  145.4790 C   0  0  0  0  0  3  0  0  0  0  0  0
  193.4070  175.7100  146.3530 C   0  0  0  0  0  3  0  0  0  0  0  0
  192.5420  174.6560  146.0210 C   0  0  0  0  0  0  0  0  0  0  0  0
  194.4540  173.3550  145.2840 C   0  0  0  0  0  3  0  0  0  0  0  0
  197.4170  173.1290  145.8340 N   0  0  0  0  0  1  0  0  0  0  0  0
  196.7290  174.2880  145.4500 N   0  0  0  0  0  2  0  0  0  0  0  0
  1  6  1  0  0  0  0
  1  8  1  0  0  0  0
  2 12  1  0  0  0  0
  3 16  1  6  0  0  0
  3 10  1  0  0  0  0
  3 14  1  0  0  0  0
  4  8  2  0  0  0  0
  4 15  1  0  0  0  0
  5  1  2  0  0  0  0
  7  4  1  0  0  0  0
  9  5  1  0  0  0  0
  9  7  2  0  0  0  0
 10 11  1  0  0  0  0
 11  7  1  0  0  0  0
 11  2  2  0  0  0  0
 12 15  2  0  0  0  0
 13  2  1  0  0  0  0
 13 35  1  0  0  0  0
 14 13  2  0  0  0  0
 16 17  1  6  0  0  0
 18 16  1  0  0  0  0
 19 18  1  0  0  0  0
 20 19  2  0  0  0  0
 21 19  1  0  0  0  0
 21 22  1  0  0  0  0
 22 24  1  0  0  0  0
 23 26  1  0  0  0  0
 25 28  1  1  0  0  0
 25 22  1  0  0  0  0
 25 23  1  0  0  0  0
 26 24  1  0  0  0  0
 27 31  1  0  0  0  0
 27 28  1  0  0  0  0
 28 34  2  0  0  0  0
 29 31  1  0  0  0  0
 30 32  1  0  0  0  0
 30 29  1  0  0  0  0
 31 33  1  6  0  0  0
 32 27  1  0  0  0  0
 36 39  1  0  0  0  0
 37 36  2  0  0  0  0
 38 40  1  0  0  0  0
 40 35  1  0  0  0  0
 40 39  2  0  0  0  0
 41 38  2  0  0  0  0
 41 37  1  0  0  0  0
 43 37  1  0  0  0  0
 43 42  1  0  0  0  0
M  END
>  <MODEL>
4

>  <REMARK>
 VINA RESULT:      -7.3      2.556      4.977
  Name = 
  8 active torsions:
  status: ('A' for Active; 'I' for Inactive)
    1  A    between atoms: N_1  and  C_34
    2  A    between atoms: N_1  and  C_35
    3  A    between atoms: C_2  and  N_6
    4  A    between atoms: C_2  and  C_13
    5  A    between atoms: C_3  and  N_4
    6  A    between atoms: C_3  and  C_12
    7  A    between atoms: C_14  and  C_22
    8  A    between atoms: C_19  and  N_37
                            x       y       z     vdW  Elec       q    Type
                         _______ _______ _______ _____ _____    ______ ____

>  <TORSDO>
F 8

$$$$
=
 OpenBabel11052420413D

 43 48  0  0  1  0  0  0  0  0999 V2000
  184.7860  178.3600  144.1350 C   0  0  0  0  0  0  0  0  0  0  0  0
  189.0180  175.7780  145.1440 C   0  0  0  0  0  0  0  0  0  0  0  0
  189.2620  173.7800  143.1050 C   0  0  2  0  0  3  0  0  0  0  0  0
  186.7550  177.4410  145.2050 C   0  0  0  0  0  0  0  0  0  0  0  0
  185.0600  177.6180  142.9810 C   0  0  0  0  0  3  0  0  0  0  0  0
  183.6710  179.1850  144.1790 O   0  0  0  0  0  1  0  0  0  0  0  0
  187.0390  176.6840  144.0410 C   0  0  0  0  0  0  0  0  0  0  0  0
  185.6330  178.2720  145.2440 C   0  0  0  0  0  3  0  0  0  0  0  0
  186.1800  176.7850  142.9340 C   0  0  0  0  0  3  0  0  0  0  0  0
  188.5640  175.1030  142.7640 C   0  0  0  0  0  2  0  0  0  0  0  0
  188.1730  175.8480  144.0150 C   0  0  0  0  0  0  0  0  0  0  0  0
  188.7240  176.5380  146.2830 C   0  0  0  0  0  3  0  0  0  0  0  0
  190.2110  174.9000  145.1190 C   0  0  0  0  0  0  0  0  0  0  0  0
  190.3460  174.0070  144.1280 C   0  0  0  0  0  3  0  0  0  0  0  0
  187.5990  177.3640  146.3130 C   0  0  0  0  0  3  0  0  0  0  0  0
  189.8280  173.1260  141.8440 C   0  0  1  0  0  3  0  0  0  0  0  0
  188.7170  172.8090  140.8540 C   0  0  0  0  0  1  0  0  0  0  0  0
  190.7960  174.0100  141.2060 N   0  0  0  0  0  2  0  0  0  0  0  0
  192.0930  173.5620  140.8090 C   0  0  0  0  0  0  0  0  0  0  0  0
  192.4520  172.3720  141.0240 O   0  0  0  0  0  0  0  0  0  0  0  0
  193.0320  174.5220  140.1560 C   0  0  0  0  0  2  0  0  0  0  0  0
  194.3640  174.4160  140.7380 N   0  0  0  0  0  0  0  0  0  0  0  0
  195.8970  176.2030  141.2540 C   0  0  0  0  0  2  0  0  0  0  0  0
  194.2370  174.7430  142.1560 C   0  0  0  0  0  2  0  0  0  0  0  0
  195.2030  175.4560  140.1390 C   0  0  1  0  0  3  0  0  0  0  0  0
  194.9710  176.0410  142.4240 C   0  0  0  0  0  2  0  0  0  0  0  0
  195.9380  174.7800  137.7950 N   0  0  0  0  0  0  0  0  0  0  0  0
  196.2060  174.8500  139.2030 C   0  0  0  0  0  0  0  0  0  0  0  0
  196.1300  173.8900  135.5770 C   0  0  0  0  0  2  0  0  0  0  0  0
  194.7960  175.1140  135.4170 S   0  0  0  0  0  0  0  0  0  0  0  0
  196.8690  174.1530  136.8720 C   0  0  1  0  0  3  0  0  0  0  0  0
  194.7040  175.2930  137.2210 C   0  0  0  0  0  2  0  0  0  0  0  0
  197.9410  175.0120  136.6320 O   0  0  0  0  0  1  0  0  0  0  0  0
  197.2920  174.4010  139.6630 O   0  0  0  0  0  0  0  0  0  0  0  0
  191.2230  175.0650  146.1260 N   0  0  0  0  0  2  0  0  0  0  0  0
  194.9420  175.6320  146.0640 C   0  0  0  0  0  3  0  0  0  0  0  0
  195.3940  174.3410  145.7780 C   0  0  0  0  0  0  0  0  0  0  0  0
  193.0970  173.5600  145.7240 C   0  0  0  0  0  3  0  0  0  0  0  0
  193.5710  175.8840  146.1830 C   0  0  0  0  0  3  0  0  0  0  0  0
  192.6380  174.8480  146.0190 C   0  0  0  0  0  0  0  0  0  0  0  0
  194.4660  173.3050  145.6060 C   0  0  0  0  0  3  0  0  0  0  0  0
  197.5420  174.5380  144.5770 N   0  0  0  0  0  1  0  0  0  0  0  0
  196.7980  174.0950  145.6790 N   0  0  0  0  0  2  0  0  0  0  0  0
  1  6  1  0  0  0  0
  1  8  1  0  0  0  0
  2 12  1  0  0  0  0
  3 16  1  6  0  0  0
  3 14  1  0  0  0  0
  4  8  2  0  0  0  0
  4 15  1  0  0  0  0
  5  1  2  0  0  0  0
  7  4  1  0  0  0  0
  9  5  1  0  0  0  0
  9  7  2  0  0  0  0
 10  3  1  0  0  0  0
 10 11  1  0  0  0  0
 11  7  1  0  0  0  0
 11  2  2  0  0  0  0
 12 15  2  0  0  0  0
 13  2  1  0  0  0  0
 13 35  1  0  0  0  0
 14 13  2  0  0  0  0
 16 17  1  6  0  0  0
 18 16  1  0  0  0  0
 19 20  2  0  0  0  0
 19 18  1  0  0  0  0
 21 22  1  0  0  0  0
 21 19  1  0  0  0  0
 22 24  1  0  0  0  0
 23 26  1  0  0  0  0
 24 26  1  0  0  0  0
 25 28  1  6  0  0  0
 25 22  1  0  0  0  0
 25 23  1  0  0  0  0
 27 28  1  0  0  0  0
 28 34  2  0  0  0  0
 29 31  1  0  0  0  0
 30 29  1  0  0  0  0
 30 32  1  0  0  0  0
 31 33  1  6  0  0  0
 31 27  1  0  0  0  0
 32 27  1  0  0  0  0
 36 39  1  0  0  0  0
 37 36  2  0  0  0  0
 38 40  1  0  0  0  0
 40 35  1  0  0  0  0
 40 39  2  0  0  0  0
 41 38  2  0  0  0  0
 41 37  1  0  0  0  0
 42 43  1  0  0  0  0
 43 37  1  0  0  0  0
M  END
>  <MODEL>
5

>  <REMARK>
 VINA RESULT:      -7.3      2.626      5.147
  Name = 
  8 active torsions:
  status: ('A' for Active; 'I' for Inactive)
    1  A    between atoms: N_1  and  C_34
    2  A    between atoms: N_1  and  C_35
    3  A    between atoms: C_2  and  N_6
    4  A    between atoms: C_2  and  C_13
    5  A    between atoms: C_3  and  N_4
    6  A    between atoms: C_3  and  C_12
    7  A    between atoms: C_14  and  C_22
    8  A    between atoms: C_19  and  N_37
                            x       y       z     vdW  Elec       q    Type
                         _______ _______ _______ _____ _____    ______ ____

>  <TORSDO>
F 8

$$$$
=
 OpenBabel11052420413D

 43 48  0  0  1  0  0  0  0  0999 V2000
  195.9510  173.6910  145.9020 C   0  0  0  0  0  0  0  0  0  0  0  0
  191.6720  175.7520  144.1580 C   0  0  0  0  0  0  0  0  0  0  0  0
  190.4380  173.7790  142.4860 C   0  0  2  0  0  3  0  0  0  0  0  0
  194.1870  175.2370  145.3000 C   0  0  0  0  0  0  0  0  0  0  0  0
  195.2140  172.6320  145.3620 C   0  0  0  0  0  3  0  0  0  0  0  0
  197.1940  173.4510  146.4690 O   0  0  0  0  0  1  0  0  0  0  0  0
  193.4340  174.1700  144.7490 C   0  0  0  0  0  0  0  0  0  0  0  0
  195.4370  174.9910  145.8720 C   0  0  0  0  0  3  0  0  0  0  0  0
  193.9630  172.8690  144.7890 C   0  0  0  0  0  3  0  0  0  0  0  0
  191.3020  173.3130  143.6650 C   0  0  0  0  0  2  0  0  0  0  0  0
  192.1750  174.4320  144.1730 C   0  0  0  0  0  0  0  0  0  0  0  0
  192.4280  176.7920  144.7130 C   0  0  0  0  0  3  0  0  0  0  0  0
  190.3490  176.0290  143.5530 C   0  0  0  0  0  0  0  0  0  0  0  0
  189.7510  175.0800  142.8210 C   0  0  0  0  0  3  0  0  0  0  0  0
  193.6780  176.5360  145.2800 C   0  0  0  0  0  3  0  0  0  0  0  0
  189.4190  172.7050  142.1040 C   0  0  1  0  0  3  0  0  0  0  0  0
  188.0410  173.3160  141.8940 C   0  0  0  0  0  1  0  0  0  0  0  0
  189.8310  172.0280  140.8800 N   0  0  0  0  0  2  0  0  0  0  0  0
  190.5370  170.7860  140.8950 C   0  0  0  0  0  0  0  0  0  0  0  0
  190.8480  170.2410  141.9900 O   0  0  0  0  0  0  0  0  0  0  0  0
  190.9240  170.1470  139.6030 C   0  0  0  0  0  2  0  0  0  0  0  0
  190.5510  170.9940  138.4770 N   0  0  0  0  0  0  0  0  0  0  0  0
  191.6320  171.1550  136.3290 C   0  0  0  0  0  2  0  0  0  0  0  0
  189.8290  170.1500  137.5290 C   0  0  0  0  0  2  0  0  0  0  0  0
  191.7800  171.4230  137.8080 C   0  0  1  0  0  3  0  0  0  0  0  0
  190.6580  170.0140  136.2680 C   0  0  0  0  0  2  0  0  0  0  0  0
  193.3700  173.3520  138.3030 N   0  0  0  0  0  0  0  0  0  0  0  0
  192.0370  172.8790  138.0600 C   0  0  0  0  0  0  0  0  0  0  0  0
  195.0330  174.8350  139.1880 C   0  0  0  0  0  2  0  0  0  0  0  0
  196.0150  173.4470  138.5460 S   0  0  0  0  0  0  0  0  0  0  0  0
  193.6400  174.7490  138.5990 C   0  0  1  0  0  3  0  0  0  0  0  0
  194.5140  172.4550  138.3090 C   0  0  0  0  0  2  0  0  0  0  0  0
  193.5830  175.4970  137.4240 O   0  0  0  0  0  1  0  0  0  0  0  0
  191.0690  173.6890  138.0540 O   0  0  0  0  0  0  0  0  0  0  0  0
  189.7100  177.2910  143.8140 N   0  0  0  0  0  2  0  0  0  0  0  0
  187.2260  177.5150  146.6300 C   0  0  0  0  0  3  0  0  0  0  0  0
  186.1350  178.0830  145.9670 C   0  0  0  0  0  0  0  0  0  0  0  0
  187.4180  178.1120  143.9060 C   0  0  0  0  0  3  0  0  0  0  0  0
  188.4100  177.2510  145.9340 C   0  0  0  0  0  3  0  0  0  0  0  0
  188.5170  177.5530  144.5670 C   0  0  0  0  0  0  0  0  0  0  0  0
  186.2340  178.3790  144.6000 C   0  0  0  0  0  3  0  0  0  0  0  0
  183.7510  178.7180  146.0420 N   0  0  0  0  0  1  0  0  0  0  0  0
  184.9390  178.3660  146.6960 N   0  0  0  0  0  2  0  0  0  0  0  0
  1  6  1  0  0  0  0
  2 11  2  0  0  0  0
  2 12  1  0  0  0  0
  3 16  1  1  0  0  0
  3 14  1  0  0  0  0
  3 10  1  0  0  0  0
  4  8  2  0  0  0  0
  5  1  2  0  0  0  0
  7  9  2  0  0  0  0
  7  4  1  0  0  0  0
  8  1  1  0  0  0  0
  9  5  1  0  0  0  0
 10 11  1  0  0  0  0
 11  7  1  0  0  0  0
 12 15  2  0  0  0  0
 13 35  1  0  0  0  0
 13  2  1  0  0  0  0
 14 13  2  0  0  0  0
 15  4  1  0  0  0  0
 16 17  1  6  0  0  0
 18 19  1  0  0  0  0
 18 16  1  0  0  0  0
 19 20  2  0  0  0  0
 21 19  1  0  0  0  0
 22 21  1  0  0  0  0
 23 25  1  0  0  0  0
 24 22  1  0  0  0  0
 25 28  1  6  0  0  0
 25 22  1  0  0  0  0
 26 23  1  0  0  0  0
 26 24  1  0  0  0  0
 27 32  1  0  0  0  0
 27 31  1  0  0  0  0
 28 27  1  0  0  0  0
 30 29  1  0  0  0  0
 31 33  1  6  0  0  0
 31 29  1  0  0  0  0
 32 30  1  0  0  0  0
 34 28  2  0  0  0  0
 35 40  1  0  0  0  0
 37 36  1  0  0  0  0
 37 43  1  0  0  0  0
 38 40  2  0  0  0  0
 38 41  1  0  0  0  0
 39 36  2  0  0  0  0
 40 39  1  0  0  0  0
 41 37  2  0  0  0  0
 42 43  1  0  0  0  0
M  END
>  <MODEL>
6

>  <REMARK>
 VINA RESULT:      -7.2      3.091      7.306
  Name = 
  8 active torsions:
  status: ('A' for Active; 'I' for Inactive)
    1  A    between atoms: N_1  and  C_34
    2  A    between atoms: N_1  and  C_35
    3  A    between atoms: C_2  and  N_6
    4  A    between atoms: C_2  and  C_13
    5  A    between atoms: C_3  and  N_4
    6  A    between atoms: C_3  and  C_12
    7  A    between atoms: C_14  and  C_22
    8  A    between atoms: C_19  and  N_37
                            x       y       z     vdW  Elec       q    Type
                         _______ _______ _______ _____ _____    ______ ____

>  <TORSDO>
F 8

$$$$
=
 OpenBabel11052420413D

 43 48  0  0  1  0  0  0  0  0999 V2000
  184.9480  178.5920  144.3800 C   0  0  0  0  0  0  0  0  0  0  0  0
  188.7770  175.3550  143.7080 C   0  0  0  0  0  0  0  0  0  0  0  0
  190.9010  176.2340  145.4190 C   0  0  2  0  0  3  0  0  0  0  0  0
  186.4150  176.8640  143.5280 C   0  0  0  0  0  0  0  0  0  0  0  0
  185.8370  178.8360  145.4330 C   0  0  0  0  0  3  0  0  0  0  0  0
  183.7770  179.3300  144.2790 O   0  0  0  0  0  1  0  0  0  0  0  0
  187.3220  177.1050  144.5890 C   0  0  0  0  0  0  0  0  0  0  0  0
  185.2360  177.6070  143.4310 C   0  0  0  0  0  3  0  0  0  0  0  0
  187.0180  178.0960  145.5370 C   0  0  0  0  0  3  0  0  0  0  0  0
  189.4510  176.5060  145.8410 C   0  0  0  0  0  2  0  0  0  0  0  0
  188.5080  176.3490  144.6750 C   0  0  0  0  0  0  0  0  0  0  0  0
  187.8650  175.1280  142.6700 C   0  0  0  0  0  3  0  0  0  0  0  0
  190.0230  174.5590  143.7970 C   0  0  0  0  0  0  0  0  0  0  0  0
  190.9890  174.9440  144.6430 C   0  0  0  0  0  3  0  0  0  0  0  0
  186.6910  175.8780  142.5800 C   0  0  0  0  0  3  0  0  0  0  0  0
  191.8220  176.2030  146.6390 C   0  0  1  0  0  3  0  0  0  0  0  0
  191.0820  175.6810  147.8620 C   0  0  0  0  0  1  0  0  0  0  0  0
  192.9750  175.3500  146.3810 N   0  0  0  0  0  2  0  0  0  0  0  0
  194.3140  175.8480  146.4050 C   0  0  0  0  0  0  0  0  0  0  0  0
  194.5380  177.0680  146.6330 O   0  0  0  0  0  0  0  0  0  0  0  0
  195.4490  174.9150  146.1360 C   0  0  0  0  0  2  0  0  0  0  0  0
  195.8320  174.9630  144.7310 N   0  0  0  0  0  0  0  0  0  0  0  0
  194.4100  174.6990  142.8020 C   0  0  0  0  0  2  0  0  0  0  0  0
  195.4700  176.2880  144.2350 C   0  0  0  0  0  2  0  0  0  0  0  0
  195.0030  174.0000  144.0030 C   0  0  1  0  0  3  0  0  0  0  0  0
  194.3570  176.1410  143.2180 C   0  0  0  0  0  2  0  0  0  0  0  0
  195.5380  171.5110  144.1020 N   0  0  0  0  0  0  0  0  0  0  0  0
  195.8200  172.8170  143.5770 C   0  0  0  0  0  0  0  0  0  0  0  0
  196.0530  169.2600  144.7490 C   0  0  0  0  0  2  0  0  0  0  0  0
  194.3670  169.4990  145.3860 S   0  0  0  0  0  0  0  0  0  0  0  0
  196.3460  170.3560  143.7460 C   0  0  1  0  0  3  0  0  0  0  0  0
  194.4610  171.2800  145.0510 C   0  0  0  0  0  2  0  0  0  0  0  0
  196.0030  169.9220  142.4660 O   0  0  0  0  0  1  0  0  0  0  0  0
  196.7590  172.9770  142.7490 O   0  0  0  0  0  0  0  0  0  0  0  0
  190.1450  173.3590  143.0140 N   0  0  0  0  0  2  0  0  0  0  0  0
  193.0020  171.5960  141.3160 C   0  0  0  0  0  3  0  0  0  0  0  0
  193.1500  172.3880  140.1740 C   0  0  0  0  0  0  0  0  0  0  0  0
  191.3250  173.7990  140.9280 C   0  0  0  0  0  3  0  0  0  0  0  0
  192.0150  171.9040  142.2580 C   0  0  0  0  0  3  0  0  0  0  0  0
  191.1650  173.0050  142.0680 C   0  0  0  0  0  0  0  0  0  0  0  0
  192.3080  173.4930  139.9830 C   0  0  0  0  0  3  0  0  0  0  0  0
  195.5150  172.1430  139.5100 N   0  0  0  0  0  1  0  0  0  0  0  0
  194.1500  172.0490  139.2100 N   0  0  0  0  0  2  0  0  0  0  0  0
  1  5  1  0  0  0  0
  2 13  1  0  0  0  0
  2 11  1  0  0  0  0
  3 10  1  0  0  0  0
  3 16  1  1  0  0  0
  4  7  1  0  0  0  0
  5  9  2  0  0  0  0
  6  1  1  0  0  0  0
  7 11  2  0  0  0  0
  7  9  1  0  0  0  0
  8  4  1  0  0  0  0
  8  1  2  0  0  0  0
 11 10  1  0  0  0  0
 12  2  2  0  0  0  0
 13 14  2  0  0  0  0
 14  3  1  0  0  0  0
 15 12  1  0  0  0  0
 15  4  2  0  0  0  0
 16 17  1  1  0  0  0
 18 19  1  0  0  0  0
 18 16  1  0  0  0  0
 19 20  2  0  0  0  0
 21 19  1  0  0  0  0
 22 21  1  0  0  0  0
 23 26  1  0  0  0  0
 23 25  1  0  0  0  0
 24 22  1  0  0  0  0
 25 28  1  6  0  0  0
 25 22  1  0  0  0  0
 26 24  1  0  0  0  0
 27 32  1  0  0  0  0
 28 27  1  0  0  0  0
 29 30  1  0  0  0  0
 31 33  1  6  0  0  0
 31 27  1  0  0  0  0
 31 29  1  0  0  0  0
 32 30  1  0  0  0  0
 34 28  2  0  0  0  0
 35 13  1  0  0  0  0
 36 39  1  0  0  0  0
 37 36  2  0  0  0  0
 38 40  1  0  0  0  0
 40 39  2  0  0  0  0
 40 35  1  0  0  0  0
 41 37  1  0  0  0  0
 41 38  2  0  0  0  0
 43 42  1  0  0  0  0
 43 37  1  0  0  0  0
M  END
>  <MODEL>
7

>  <REMARK>
 VINA RESULT:      -7.2      2.360      3.389
  Name = 
  8 active torsions:
  status: ('A' for Active; 'I' for Inactive)
    1  A    between atoms: N_1  and  C_34
    2  A    between atoms: N_1  and  C_35
    3  A    between atoms: C_2  and  N_6
    4  A    between atoms: C_2  and  C_13
    5  A    between atoms: C_3  and  N_4
    6  A    between atoms: C_3  and  C_12
    7  A    between atoms: C_14  and  C_22
    8  A    between atoms: C_19  and  N_37
                            x       y       z     vdW  Elec       q    Type
                         _______ _______ _______ _____ _____    ______ ____

>  <TORSDO>
F 8

$$$$
=
 OpenBabel11052420413D

 43 48  0  0  1  0  0  0  0  0999 V2000
  184.5590  178.4040  144.8760 C   0  0  0  0  0  0  0  0  0  0  0  0
  188.7480  175.5700  144.7280 C   0  0  0  0  0  0  0  0  0  0  0  0
  188.6580  174.1050  142.2670 C   0  0  2  0  0  3  0  0  0  0  0  0
  186.5910  177.2180  145.4520 C   0  0  0  0  0  0  0  0  0  0  0  0
  184.6620  177.9500  143.5560 C   0  0  0  0  0  3  0  0  0  0  0  0
  183.4990  179.2180  145.2470 O   0  0  0  0  0  1  0  0  0  0  0  0
  186.7020  176.7510  144.1180 C   0  0  0  0  0  0  0  0  0  0  0  0
  185.5230  178.0390  145.8210 C   0  0  0  0  0  3  0  0  0  0  0  0
  185.7270  177.1280  143.1790 C   0  0  0  0  0  3  0  0  0  0  0  0
  187.9900  175.4850  142.3310 C   0  0  0  0  0  2  0  0  0  0  0  0
  187.7830  175.9220  143.7590 C   0  0  0  0  0  0  0  0  0  0  0  0
  188.6250  176.0460  146.0400 C   0  0  0  0  0  3  0  0  0  0  0  0
  189.8860  174.6990  144.3530 C   0  0  0  0  0  0  0  0  0  0  0  0
  189.8630  174.0630  143.1730 C   0  0  0  0  0  3  0  0  0  0  0  0
  187.5530  176.8650  146.3990 C   0  0  0  0  0  3  0  0  0  0  0  0
  189.0420  173.7560  140.8290 C   0  0  1  0  0  3  0  0  0  0  0  0
  188.1950  174.5410  139.8370 C   0  0  0  0  0  1  0  0  0  0  0  0
  190.4500  174.0550  140.5940 N   0  0  0  0  0  2  0  0  0  0  0  0
  191.2320  173.3420  139.6340 C   0  0  0  0  0  0  0  0  0  0  0  0
  190.7230  172.4000  138.9670 O   0  0  0  0  0  0  0  0  0  0  0  0
  192.6670  173.7060  139.4430 C   0  0  0  0  0  2  0  0  0  0  0  0
  193.3590  173.7660  140.7240 N   0  0  0  0  0  0  0  0  0  0  0  0
  195.4750  172.7710  141.3080 C   0  0  0  0  0  2  0  0  0  0  0  0
  194.4010  174.7820  140.6000 C   0  0  0  0  0  2  0  0  0  0  0  0
  194.0400  172.4860  140.9300 C   0  0  1  0  0  3  0  0  0  0  0  0
  195.7530  174.1040  140.6770 C   0  0  0  0  0  2  0  0  0  0  0  0
  192.7500  170.4280  141.6980 N   0  0  0  0  0  0  0  0  0  0  0  0
  193.3570  171.6920  142.0030 C   0  0  0  0  0  0  0  0  0  0  0  0
  191.1990  168.6230  141.9910 C   0  0  0  0  0  2  0  0  0  0  0  0
  192.0000  168.2270  140.4090 S   0  0  0  0  0  0  0  0  0  0  0  0
  192.0380  169.6610  142.7060 C   0  0  1  0  0  3  0  0  0  0  0  0
  192.7750  169.8670  140.3560 C   0  0  0  0  0  2  0  0  0  0  0  0
  192.9530  169.0250  143.5450 O   0  0  0  0  0  1  0  0  0  0  0  0
  193.3220  172.1430  143.1810 O   0  0  0  0  0  0  0  0  0  0  0  0
  191.0150  174.6010  145.2380 N   0  0  0  0  0  2  0  0  0  0  0  0
  194.1350  176.0270  143.6950 C   0  0  0  0  0  3  0  0  0  0  0  0
  195.1120  175.4510  144.5110 C   0  0  0  0  0  0  0  0  0  0  0  0
  193.3750  174.3280  145.7800 C   0  0  0  0  0  3  0  0  0  0  0  0
  192.7820  175.7560  143.9240 C   0  0  0  0  0  3  0  0  0  0  0  0
  192.3910  174.9100  144.9730 C   0  0  0  0  0  0  0  0  0  0  0  0
  194.7270  174.5980  145.5550 C   0  0  0  0  0  3  0  0  0  0  0  0
  196.8770  176.7020  143.3230 N   0  0  0  0  0  1  0  0  0  0  0  0
  196.4890  175.7520  144.2770 N   0  0  0  0  0  2  0  0  0  0  0  0
  1  6  1  0  0  0  0
  1  8  1  0  0  0  0
  2 12  1  0  0  0  0
  3 16  1  6  0  0  0
  3 10  1  0  0  0  0
  3 14  1  0  0  0  0
  4  8  2  0  0  0  0
  4 15  1  0  0  0  0
  5  1  2  0  0  0  0
  7  4  1  0  0  0  0
  9  5  1  0  0  0  0
  9  7  2  0  0  0  0
 10 11  1  0  0  0  0
 11  7  1  0  0  0  0
 11  2  2  0  0  0  0
 12 15  2  0  0  0  0
 13  2  1  0  0  0  0
 13 35  1  0  0  0  0
 14 13  2  0  0  0  0
 16 17  1  6  0  0  0
 18 16  1  0  0  0  0
 19 18  1  0  0  0  0
 20 19  2  0  0  0  0
 21 19  1  0  0  0  0
 21 22  1  0  0  0  0
 22 25  1  0  0  0  0
 24 26  1  0  0  0  0
 24 22  1  0  0  0  0
 25 23  1  0  0  0  0
 25 28  1  1  0  0  0
 26 23  1  0  0  0  0
 27 28  1  0  0  0  0
 27 31  1  0  0  0  0
 28 34  2  0  0  0  0
 29 31  1  0  0  0  0
 30 29  1  0  0  0  0
 31 33  1  1  0  0  0
 32 30  1  0  0  0  0
 32 27  1  0  0  0  0
 36 39  2  0  0  0  0
 36 37  1  0  0  0  0
 37 41  2  0  0  0  0
 39 40  1  0  0  0  0
 40 35  1  0  0  0  0
 40 38  2  0  0  0  0
 41 38  1  0  0  0  0
 42 43  1  0  0  0  0
 43 37  1  0  0  0  0
M  END
>  <MODEL>
8

>  <REMARK>
 VINA RESULT:      -7.2      2.524      5.506
  Name = 
  8 active torsions:
  status: ('A' for Active; 'I' for Inactive)
    1  A    between atoms: N_1  and  C_34
    2  A    between atoms: N_1  and  C_35
    3  A    between atoms: C_2  and  N_6
    4  A    between atoms: C_2  and  C_13
    5  A    between atoms: C_3  and  N_4
    6  A    between atoms: C_3  and  C_12
    7  A    between atoms: C_14  and  C_22
    8  A    between atoms: C_19  and  N_37
                            x       y       z     vdW  Elec       q    Type
                         _______ _______ _______ _____ _____    ______ ____

>  <TORSDO>
F 8

$$$$
=
 OpenBabel11052420413D

 43 48  0  0  1  0  0  0  0  0999 V2000
  185.3680  178.0580  146.8050 C   0  0  0  0  0  0  0  0  0  0  0  0
  187.8490  175.9840  142.9140 C   0  0  0  0  0  0  0  0  0  0  0  0
  190.5740  175.6860  143.7480 C   0  0  2  0  0  3  0  0  0  0  0  0
  185.9980  177.2380  144.6150 C   0  0  0  0  0  0  0  0  0  0  0  0
  186.5940  177.6290  147.3240 C   0  0  0  0  0  3  0  0  0  0  0  0
  184.4450  178.6790  147.6330 O   0  0  0  0  0  1  0  0  0  0  0  0
  187.2440  176.8030  145.1310 C   0  0  0  0  0  0  0  0  0  0  0  0
  185.0710  177.8610  145.4520 C   0  0  0  0  0  3  0  0  0  0  0  0
  187.5270  177.0050  146.4920 C   0  0  0  0  0  3  0  0  0  0  0  0
  189.4660  175.6130  144.8060 C   0  0  0  0  0  2  0  0  0  0  0  0
  188.1720  176.1770  144.2750 C   0  0  0  0  0  0  0  0  0  0  0  0
  186.6110  176.4150  142.4230 C   0  0  0  0  0  3  0  0  0  0  0  0
  188.8230  175.3260  142.0120 C   0  0  0  0  0  0  0  0  0  0  0  0
  190.0820  175.1380  142.4320 C   0  0  0  0  0  3  0  0  0  0  0  0
  185.6910  177.0390  143.2680 C   0  0  0  0  0  3  0  0  0  0  0  0
  191.8220  174.9390  144.2200 C   0  0  1  0  0  3  0  0  0  0  0  0
  191.4530  173.5780  144.7920 C   0  0  0  0  0  1  0  0  0  0  0  0
  192.7510  174.7530  143.1110 N   0  0  0  0  0  2  0  0  0  0  0  0
  193.9590  175.5060  142.9940 C   0  0  0  0  0  0  0  0  0  0  0  0
  194.2500  176.3860  143.8500 O   0  0  0  0  0  0  0  0  0  0  0  0
  194.8670  175.2600  141.8340 C   0  0  0  0  0  2  0  0  0  0  0  0
  196.2500  175.1460  142.2780 N   0  0  0  0  0  0  0  0  0  0  0  0
  197.9350  173.6170  141.4820 C   0  0  0  0  0  2  0  0  0  0  0  0
  197.0740  175.8360  141.2880 C   0  0  0  0  0  2  0  0  0  0  0  0
  196.6260  173.7320  142.2270 C   0  0  1  0  0  3  0  0  0  0  0  0
  197.9370  174.8140  140.5760 C   0  0  0  0  0  2  0  0  0  0  0  0
  195.8120  172.2010  144.0940 N   0  0  0  0  0  0  0  0  0  0  0  0
  196.7540  173.1710  143.6120 C   0  0  0  0  0  0  0  0  0  0  0  0
  194.5560  171.0160  145.7570 C   0  0  0  0  0  2  0  0  0  0  0  0
  193.8240  170.4390  144.1980 S   0  0  0  0  0  0  0  0  0  0  0  0
  195.8820  171.6780  145.4490 C   0  0  1  0  0  3  0  0  0  0  0  0
  194.7130  171.7210  143.2710 C   0  0  0  0  0  2  0  0  0  0  0  0
  196.9070  170.7360  145.5350 O   0  0  0  0  0  1  0  0  0  0  0  0
  197.6990  173.5580  144.3540 O   0  0  0  0  0  0  0  0  0  0  0  0
  188.3800  174.8530  140.7280 N   0  0  0  0  0  2  0  0  0  0  0  0
  189.8800  171.5360  139.7830 C   0  0  0  0  0  3  0  0  0  0  0  0
  189.8330  171.6200  138.3880 C   0  0  0  0  0  0  0  0  0  0  0  0
  188.8390  173.8270  138.5670 C   0  0  0  0  0  3  0  0  0  0  0  0
  189.4030  172.5930  140.5650 C   0  0  0  0  0  3  0  0  0  0  0  0
  188.8730  173.7440  139.9620 C   0  0  0  0  0  0  0  0  0  0  0  0
  189.3120  172.7720  137.7820 C   0  0  0  0  0  3  0  0  0  0  0  0
  190.5270  170.6550  136.2250 N   0  0  0  0  0  1  0  0  0  0  0  0
  190.3060  170.5240  137.6020 N   0  0  0  0  0  2  0  0  0  0  0  0
  1  5  1  0  0  0  0
  1  6  1  0  0  0  0
  2 11  1  0  0  0  0
  3 16  1  1  0  0  0
  3 10  1  0  0  0  0
  4  7  1  0  0  0  0
  4  8  1  0  0  0  0
  7  9  1  0  0  0  0
  8  1  2  0  0  0  0
  9  5  2  0  0  0  0
 11 10  1  0  0  0  0
 11  7  2  0  0  0  0
 12  2  2  0  0  0  0
 12 15  1  0  0  0  0
 13 14  2  0  0  0  0
 13  2  1  0  0  0  0
 14  3  1  0  0  0  0
 15  4  2  0  0  0  0
 16 17  1  6  0  0  0
 18 16  1  0  0  0  0
 19 18  1  0  0  0  0
 19 20  2  0  0  0  0
 21 22  1  0  0  0  0
 21 19  1  0  0  0  0
 23 25  1  0  0  0  0
 24 22  1  0  0  0  0
 25 22  1  0  0  0  0
 25 28  1  1  0  0  0
 26 24  1  0  0  0  0
 26 23  1  0  0  0  0
 27 31  1  0  0  0  0
 28 27  1  0  0  0  0
 28 34  2  0  0  0  0
 30 29  1  0  0  0  0
 31 33  1  6  0  0  0
 31 29  1  0  0  0  0
 32 27  1  0  0  0  0
 32 30  1  0  0  0  0
 35 13  1  0  0  0  0
 36 39  1  0  0  0  0
 37 36  2  0  0  0  0
 38 40  1  0  0  0  0
 40 39  2  0  0  0  0
 40 35  1  0  0  0  0
 41 37  1  0  0  0  0
 41 38  2  0  0  0  0
 42 43  1  0  0  0  0
 43 37  1  0  0  0  0
M  END
>  <MODEL>
9

>  <REMARK>
 VINA RESULT:      -7.1      2.223      3.556
  Name = 
  8 active torsions:
  status: ('A' for Active; 'I' for Inactive)
    1  A    between atoms: N_1  and  C_34
    2  A    between atoms: N_1  and  C_35
    3  A    between atoms: C_2  and  N_6
    4  A    between atoms: C_2  and  C_13
    5  A    between atoms: C_3  and  N_4
    6  A    between atoms: C_3  and  C_12
    7  A    between atoms: C_14  and  C_22
    8  A    between atoms: C_19  and  N_37
                            x       y       z     vdW  Elec       q    Type
                         _______ _______ _______ _____ _____    ______ ____

>  <TORSDO>
F 8

$$$$
