=
 OpenBabel11052418123D

 28 31  0  0  1  0  0  0  0  0999 V2000
  186.9380  177.4820  146.0860 C   0  0  0  0  0  3  0  0  0  0  0  0
  186.8100  176.9060  140.0160 C   0  0  0  0  0  2  0  0  0  0  0  0
  185.3100  178.5290  144.6300 C   0  0  0  0  0  0  0  0  0  0  0  0
  187.4360  177.6670  143.6080 C   0  0  1  0  0  3  0  0  0  0  0  0
  184.8800  178.3650  147.0070 C   0  0  0  0  0  0  0  0  0  0  0  0
  186.5370  177.8720  144.7990 C   0  0  0  0  0  0  0  0  0  0  0  0
  185.2850  177.9940  142.2090 C   0  0  0  0  0  2  0  0  0  0  0  0
  184.4850  178.7790  145.7310 C   0  0  0  0  0  3  0  0  0  0  0  0
  188.5730  176.0670  141.4840 C   0  0  1  0  0  3  0  0  0  0  0  0
  188.2880  176.5660  143.8180 O   0  0  0  0  0  0  0  0  0  0  0  0
  184.9190  179.0220  143.2770 C   0  0  0  0  0  2  0  0  0  0  0  0
  187.3210  176.8580  141.2430 C   0  0  0  0  0  0  0  0  0  0  0  0
  184.0790  178.6000  148.0730 F   0  0  0  0  0  0  0  0  0  0  0  0
  186.1090  177.7220  147.1850 C   0  0  0  0  0  3  0  0  0  0  0  0
  186.6590  177.4890  142.3590 N   0  0  0  0  0  0  0  0  0  0  0  0
  189.2250  176.5990  142.7710 C   0  0  1  0  0  3  0  0  0  0  0  0
  190.5080  175.8590  143.1530 C   0  0  1  0  0  3  0  0  0  0  0  0
  191.1020  175.3070  142.0170 O   0  0  0  0  0  1  0  0  0  0  0  0
  191.4800  176.7750  143.8360 C   0  0  0  0  0  0  0  0  0  0  0  0
  192.0960  176.4040  145.0720 N   0  0  0  0  0  2  0  0  0  0  0  0
  191.7540  177.8910  143.3210 O   0  0  0  0  0  0  0  0  0  0  0  0
  190.6230  175.1340  146.6880 C   0  0  2  0  0  3  0  0  0  0  0  0
  192.1430  173.8440  145.0570 C   0  0  0  0  0  1  0  0  0  0  0  0
  191.8280  175.1470  145.7650 C   0  0  1  0  0  0  0  0  0  0  0  0
  190.0470  176.4020  146.7840 O   0  0  0  0  0  1  0  0  0  0  0  0
  192.0410  175.1790  147.2580 C   0  0  0  0  0  2  0  0  0  0  0  0
  188.4380  173.8430  140.6720 O   0  0  0  0  0  0  0  0  0  0  0  0
  188.2190  174.6100  141.5950 C   0  0  0  0  0  3  0  0  0  0  0  0
  1 14  1  0  0  0  0
  2 12  2  0  0  0  0
  3  6  1  0  0  0  0
  3  8  2  0  0  0  0
  4 10  1  1  0  0  0
  4  6  1  0  0  0  0
  5 14  2  0  0  0  0
  5 13  1  0  0  0  0
  6  1  2  0  0  0  0
  7 15  1  0  0  0  0
  7 11  1  0  0  0  0
  8  5  1  0  0  0  0
  9 28  1  1  0  0  0
  9 16  1  0  0  0  0
 11  3  1  0  0  0  0
 12  9  1  0  0  0  0
 12 15  1  0  0  0  0
 15  4  1  0  0  0  0
 16 17  1  1  0  0  0
 16 10  1  0  0  0  0
 17 18  1  6  0  0  0
 17 19  1  0  0  0  0
 19 20  1  0  0  0  0
 20 24  1  0  0  0  0
 21 19  2  0  0  0  0
 22 25  1  6  0  0  0
 22 26  1  0  0  0  0
 24 23  1  6  0  0  0
 24 22  1  0  0  0  0
 24 26  1  0  0  0  0
 27 28  2  0  0  0  0
M  END
>  <MODEL>
1

>  <REMARK>
 VINA RESULT:      -7.5      0.000      0.000
  Name = 
  4 active torsions:
  status: ('A' for Active; 'I' for Inactive)
    1  A    between atoms: C_1  and  C_2
    2  A    between atoms: C_1  and  C_27
    3  A    between atoms: N_3  and  C_11
    4  A    between atoms: C_16  and  C_21
                            x       y       z     vdW  Elec       q    Type
                         _______ _______ _______ _____ _____    ______ ____

>  <TORSDO>
F 4

$$$$
=
 OpenBabel11052418123D

 28 31  0  0  1  0  0  0  0  0999 V2000
  187.6120  176.5110  142.1400 C   0  0  0  0  0  3  0  0  0  0  0  0
  186.0750  178.6360  147.6460 C   0  0  0  0  0  2  0  0  0  0  0  0
  185.5890  177.7520  142.6310 C   0  0  0  0  0  0  0  0  0  0  0  0
  186.8440  176.7200  144.5460 C   0  0  1  0  0  3  0  0  0  0  0  0
  186.3330  177.5060  140.3400 C   0  0  0  0  0  0  0  0  0  0  0  0
  186.6980  177.0170  143.0770 C   0  0  0  0  0  0  0  0  0  0  0  0
  185.2490  178.7280  144.8840 C   0  0  0  0  0  2  0  0  0  0  0  0
  185.4050  177.9920  141.2650 C   0  0  0  0  0  3  0  0  0  0  0  0
  187.9770  177.1800  147.1670 C   0  0  1  0  0  3  0  0  0  0  0  0
  188.1970  176.5000  144.8710 O   0  0  0  0  0  0  0  0  0  0  0  0
  184.5700  178.2170  143.6150 C   0  0  0  0  0  2  0  0  0  0  0  0
  186.7210  177.8880  146.7550 C   0  0  0  0  0  0  0  0  0  0  0  0
  186.1600  177.7440  139.0190 F   0  0  0  0  0  0  0  0  0  0  0  0
  187.4330  176.7610  140.7760 C   0  0  0  0  0  3  0  0  0  0  0  0
  186.2790  177.8030  145.3840 N   0  0  0  0  0  0  0  0  0  0  0  0
  188.2010  176.0140  146.1900 C   0  0  1  0  0  3  0  0  0  0  0  0
  189.4720  175.2130  146.4790 C   0  0  1  0  0  3  0  0  0  0  0  0
  189.2370  174.2880  147.4990 O   0  0  0  0  0  1  0  0  0  0  0  0
  189.9560  174.4990  145.2530 C   0  0  0  0  0  0  0  0  0  0  0  0
  191.0640  174.9970  144.5010 N   0  0  0  0  0  2  0  0  0  0  0  0
  189.3740  173.4490  144.8710 O   0  0  0  0  0  0  0  0  0  0  0  0
  193.2950  176.0840  144.9890 C   0  0  2  0  0  3  0  0  0  0  0  0
  191.2860  177.5400  144.2970 C   0  0  0  0  0  1  0  0  0  0  0  0
  191.7900  176.2180  144.8410 C   0  0  1  0  0  0  0  0  0  0  0  0
  193.6970  174.7520  144.8740 O   0  0  0  0  0  1  0  0  0  0  0  0
  192.4020  176.2390  146.2190 C   0  0  0  0  0  2  0  0  0  0  0  0
  189.9500  178.1630  148.0420 O   0  0  0  0  0  0  0  0  0  0  0  0
  189.1200  178.1560  147.1480 C   0  0  0  0  0  3  0  0  0  0  0  0
  1  6  1  0  0  0  0
  3  6  2  0  0  0  0
  3 11  1  0  0  0  0
  4  6  1  6  0  0  0
  4 10  1  0  0  0  0
  4 15  1  0  0  0  0
  5 14  1  0  0  0  0
  5  8  2  0  0  0  0
  7 15  1  0  0  0  0
  8  3  1  0  0  0  0
  9 28  1  6  0  0  0
 10 16  1  0  0  0  0
 11  7  1  0  0  0  0
 12  9  1  0  0  0  0
 12  2  2  0  0  0  0
 13  5  1  0  0  0  0
 14  1  2  0  0  0  0
 15 12  1  0  0  0  0
 16 17  1  1  0  0  0
 16  9  1  0  0  0  0
 17 18  1  1  0  0  0
 19 17  1  0  0  0  0
 20 24  1  0  0  0  0
 20 19  1  0  0  0  0
 21 19  2  0  0  0  0
 22 25  1  1  0  0  0
 22 26  1  0  0  0  0
 24 23  1  6  0  0  0
 24 22  1  0  0  0  0
 24 26  1  0  0  0  0
 28 27  2  0  0  0  0
M  END
>  <MODEL>
2

>  <REMARK>
 VINA RESULT:      -7.3      2.600      4.795
  Name = 
  4 active torsions:
  status: ('A' for Active; 'I' for Inactive)
    1  A    between atoms: C_1  and  C_2
    2  A    between atoms: C_1  and  C_27
    3  A    between atoms: N_3  and  C_11
    4  A    between atoms: C_16  and  C_21
                            x       y       z     vdW  Elec       q    Type
                         _______ _______ _______ _____ _____    ______ ____

>  <TORSDO>
F 4

$$$$
=
 OpenBabel11052418123D

 28 31  0  0  1  0  0  0  0  0999 V2000
  186.2730  176.7130  143.5560 C   0  0  0  0  0  3  0  0  0  0  0  0
  191.0730  176.5060  147.3130 C   0  0  0  0  0  2  0  0  0  0  0  0
  186.3130  177.6180  145.8030 C   0  0  0  0  0  0  0  0  0  0  0  0
  188.0840  175.9570  145.1610 C   0  0  1  0  0  3  0  0  0  0  0  0
  184.5790  178.2950  144.2550 C   0  0  0  0  0  0  0  0  0  0  0  0
  186.8800  176.7950  144.8180 C   0  0  0  0  0  0  0  0  0  0  0  0
  188.4300  177.6390  147.0940 C   0  0  0  0  0  2  0  0  0  0  0  0
  185.1630  178.3630  145.5230 C   0  0  0  0  0  3  0  0  0  0  0  0
  190.9200  175.3930  145.1430 C   0  0  1  0  0  3  0  0  0  0  0  0
  188.8220  175.6600  143.9990 O   0  0  0  0  0  0  0  0  0  0  0  0
  186.9050  177.6430  147.1720 C   0  0  0  0  0  2  0  0  0  0  0  0
  190.3150  176.1770  146.2700 C   0  0  0  0  0  0  0  0  0  0  0  0
  183.4700  179.0210  143.9810 F   0  0  0  0  0  0  0  0  0  0  0  0
  185.1300  177.4660  143.2730 C   0  0  0  0  0  3  0  0  0  0  0  0
  188.9450  176.6170  146.1680 N   0  0  0  0  0  0  0  0  0  0  0  0
  189.7760  174.7020  144.3840 C   0  0  1  0  0  3  0  0  0  0  0  0
  190.2510  173.8820  143.1830 C   0  0  1  0  0  3  0  0  0  0  0  0
  191.5000  173.3170  143.4490 O   0  0  0  0  0  1  0  0  0  0  0  0
  189.2710  172.8000  142.8410 C   0  0  0  0  0  0  0  0  0  0  0  0
  188.6190  172.7730  141.5690 N   0  0  0  0  0  2  0  0  0  0  0  0
  189.0080  171.9050  143.6880 O   0  0  0  0  0  0  0  0  0  0  0  0
  188.8530  173.2650  139.0990 C   0  0  2  0  0  3  0  0  0  0  0  0
  188.2680  175.1680  140.7340 C   0  0  0  0  0  1  0  0  0  0  0  0
  188.8310  173.7760  140.5290 C   0  0  1  0  0  0  0  0  0  0  0  0
  188.7710  171.8720  139.0600 O   0  0  0  0  0  1  0  0  0  0  0  0
  190.1480  173.6760  139.8000 C   0  0  0  0  0  2  0  0  0  0  0  0
  192.9160  176.3490  144.2900 O   0  0  0  0  0  0  0  0  0  0  0  0
  191.6970  176.3280  144.2580 C   0  0  0  0  0  3  0  0  0  0  0  0
  1  6  1  0  0  0  0
  3 11  1  0  0  0  0
  4 10  1  6  0  0  0
  4 15  1  0  0  0  0
  5  8  2  0  0  0  0
  6  4  1  0  0  0  0
  6  3  2  0  0  0  0
  7 11  1  0  0  0  0
  8  3  1  0  0  0  0
  9 28  1  6  0  0  0
  9 12  1  0  0  0  0
 10 16  1  0  0  0  0
 12  2  2  0  0  0  0
 13  5  1  0  0  0  0
 14  1  2  0  0  0  0
 14  5  1  0  0  0  0
 15 12  1  0  0  0  0
 15  7  1  0  0  0  0
 16 17  1  6  0  0  0
 16  9  1  0  0  0  0
 17 18  1  1  0  0  0
 19 17  1  0  0  0  0
 19 21  2  0  0  0  0
 20 19  1  0  0  0  0
 22 25  1  1  0  0  0
 22 26  1  0  0  0  0
 22 24  1  0  0  0  0
 24 23  1  1  0  0  0
 24 20  1  0  0  0  0
 26 24  1  0  0  0  0
 28 27  2  0  0  0  0
M  END
>  <MODEL>
3

>  <REMARK>
 VINA RESULT:      -7.1      2.240      5.085
  Name = 
  4 active torsions:
  status: ('A' for Active; 'I' for Inactive)
    1  A    between atoms: C_1  and  C_2
    2  A    between atoms: C_1  and  C_27
    3  A    between atoms: N_3  and  C_11
    4  A    between atoms: C_16  and  C_21
                            x       y       z     vdW  Elec       q    Type
                         _______ _______ _______ _____ _____    ______ ____

>  <TORSDO>
F 4

$$$$
=
 OpenBabel11052418123D

 28 31  0  0  1  0  0  0  0  0999 V2000
  186.6200  176.5440  143.7690 C   0  0  0  0  0  3  0  0  0  0  0  0
  191.0470  176.8680  147.9510 C   0  0  0  0  0  2  0  0  0  0  0  0
  186.4440  177.7130  145.8840 C   0  0  0  0  0  0  0  0  0  0  0  0
  188.2750  176.0160  145.6140 C   0  0  1  0  0  3  0  0  0  0  0  0
  184.8590  178.1710  144.1120 C   0  0  0  0  0  0  0  0  0  0  0  0
  187.1050  176.7870  145.0630 C   0  0  0  0  0  0  0  0  0  0  0  0
  188.4290  177.9230  147.3540 C   0  0  0  0  0  2  0  0  0  0  0  0
  185.3210  178.4000  145.4110 C   0  0  0  0  0  3  0  0  0  0  0  0
  191.1040  175.5010  145.9270 C   0  0  1  0  0  3  0  0  0  0  0  0
  189.1210  175.5940  144.5700 O   0  0  0  0  0  0  0  0  0  0  0  0
  186.9040  177.9110  147.2890 C   0  0  0  0  0  2  0  0  0  0  0  0
  190.3910  176.4040  146.8910 C   0  0  0  0  0  0  0  0  0  0  0  0
  183.7770  178.8410  143.6510 F   0  0  0  0  0  0  0  0  0  0  0  0
  185.5040  177.2390  143.2930 C   0  0  0  0  0  3  0  0  0  0  0  0
  189.0350  176.8070  146.6100 N   0  0  0  0  0  0  0  0  0  0  0  0
  190.0390  174.7050  145.1550 C   0  0  1  0  0  3  0  0  0  0  0  0
  190.6290  173.7550  144.1110 C   0  0  1  0  0  3  0  0  0  0  0  0
  191.8970  173.3280  144.5100 O   0  0  0  0  0  1  0  0  0  0  0  0
  189.7420  172.5660  143.8950 C   0  0  0  0  0  0  0  0  0  0  0  0
  189.3620  172.1610  142.5780 N   0  0  0  0  0  2  0  0  0  0  0  0
  189.3160  171.9160  144.8860 O   0  0  0  0  0  0  0  0  0  0  0  0
  188.9350  174.0530  140.9550 C   0  0  2  0  0  3  0  0  0  0  0  0
  191.2570  172.9420  141.0440 C   0  0  0  0  0  1  0  0  0  0  0  0
  189.7780  172.8590  141.3640 C   0  0  1  0  0  0  0  0  0  0  0  0
  187.8210  174.1940  141.7860 O   0  0  0  0  0  1  0  0  0  0  0  0
  188.8350  172.7320  140.1940 C   0  0  0  0  0  2  0  0  0  0  0  0
  193.1530  176.4550  145.2100 O   0  0  0  0  0  0  0  0  0  0  0  0
  191.9550  176.3360  145.0120 C   0  0  0  0  0  3  0  0  0  0  0  0
  1  6  1  0  0  0  0
  3 11  1  0  0  0  0
  4 10  1  6  0  0  0
  4 15  1  0  0  0  0
  5  8  2  0  0  0  0
  6  4  1  0  0  0  0
  6  3  2  0  0  0  0
  8  3  1  0  0  0  0
  9 28  1  6  0  0  0
  9 12  1  0  0  0  0
 10 16  1  0  0  0  0
 11  7  1  0  0  0  0
 12  2  2  0  0  0  0
 13  5  1  0  0  0  0
 14  1  2  0  0  0  0
 14  5  1  0  0  0  0
 15 12  1  0  0  0  0
 15  7  1  0  0  0  0
 16 17  1  6  0  0  0
 16  9  1  0  0  0  0
 17 18  1  1  0  0  0
 19 17  1  0  0  0  0
 19 21  2  0  0  0  0
 20 19  1  0  0  0  0
 22 24  1  0  0  0  0
 22 25  1  1  0  0  0
 24 23  1  6  0  0  0
 24 20  1  0  0  0  0
 26 22  1  0  0  0  0
 26 24  1  0  0  0  0
 28 27  2  0  0  0  0
M  END
>  <MODEL>
4

>  <REMARK>
 VINA RESULT:      -6.9      2.478      4.935
  Name = 
  4 active torsions:
  status: ('A' for Active; 'I' for Inactive)
    1  A    between atoms: C_1  and  C_2
    2  A    between atoms: C_1  and  C_27
    3  A    between atoms: N_3  and  C_11
    4  A    between atoms: C_16  and  C_21
                            x       y       z     vdW  Elec       q    Type
                         _______ _______ _______ _____ _____    ______ ____

>  <TORSDO>
F 4

$$$$
=
 OpenBabel11052418123D

 28 31  0  0  1  0  0  0  0  0999 V2000
  193.6170  175.4910  142.6580 C   0  0  0  0  0  3  0  0  0  0  0  0
  191.2020  176.7960  148.1040 C   0  0  0  0  0  2  0  0  0  0  0  0
  194.8230  176.4960  144.5030 C   0  0  0  0  0  0  0  0  0  0  0  0
  192.3130  176.5460  144.5580 C   0  0  1  0  0  3  0  0  0  0  0  0
  196.0380  175.5080  142.6570 C   0  0  0  0  0  0  0  0  0  0  0  0
  193.6070  176.1440  143.9000 C   0  0  0  0  0  0  0  0  0  0  0  0
  193.7280  176.7420  146.7140 C   0  0  0  0  0  2  0  0  0  0  0  0
  196.0360  176.1810  143.8810 C   0  0  0  0  0  3  0  0  0  0  0  0
  189.9600  176.0110  146.1520 C   0  0  1  0  0  3  0  0  0  0  0  0
  191.2720  175.6820  144.1650 O   0  0  0  0  0  0  0  0  0  0  0  0
  194.8160  177.2670  145.7800 C   0  0  0  0  0  2  0  0  0  0  0  0
  191.2180  176.5010  146.8070 C   0  0  0  0  0  0  0  0  0  0  0  0
  197.2120  175.1970  142.0580 F   0  0  0  0  0  0  0  0  0  0  0  0
  194.8290  175.1670  142.0430 C   0  0  0  0  0  3  0  0  0  0  0  0
  192.4340  176.5740  146.0340 N   0  0  0  0  0  0  0  0  0  0  0  0
  190.0870  176.2670  144.6410 C   0  0  1  0  0  3  0  0  0  0  0  0
  188.8740  175.7890  143.8400 C   0  0  1  0  0  3  0  0  0  0  0  0
  187.7050  176.3560  144.3500 O   0  0  0  0  0  1  0  0  0  0  0  0
  189.0110  176.1370  142.3880 C   0  0  0  0  0  0  0  0  0  0  0  0
  189.1480  175.1160  141.3960 N   0  0  0  0  0  2  0  0  0  0  0  0
  189.0140  177.3450  142.0330 O   0  0  0  0  0  0  0  0  0  0  0  0
  188.6470  172.7580  140.6290 C   0  0  2  0  0  3  0  0  0  0  0  0
  190.3230  173.1520  142.5460 C   0  0  0  0  0  1  0  0  0  0  0  0
  189.1820  173.6880  141.7030 C   0  0  1  0  0  0  0  0  0  0  0  0
  188.1060  173.4780  139.5620 O   0  0  0  0  0  1  0  0  0  0  0  0
  187.8340  173.0390  141.8930 C   0  0  0  0  0  2  0  0  0  0  0  0
  188.9980  174.1870  147.3230 O   0  0  0  0  0  0  0  0  0  0  0  0
  189.7820  174.5510  146.4620 C   0  0  0  0  0  3  0  0  0  0  0  0
  1  6  1  0  0  0  0
  3 11  1  0  0  0  0
  4  6  1  6  0  0  0
  4 15  1  0  0  0  0
  5  8  2  0  0  0  0
  6  3  2  0  0  0  0
  8  3  1  0  0  0  0
  9 28  1  6  0  0  0
  9 12  1  0  0  0  0
 10  4  1  0  0  0  0
 10 16  1  0  0  0  0
 11  7  1  0  0  0  0
 12  2  2  0  0  0  0
 13  5  1  0  0  0  0
 14  5  1  0  0  0  0
 14  1  2  0  0  0  0
 15  7  1  0  0  0  0
 15 12  1  0  0  0  0
 16 17  1  6  0  0  0
 16  9  1  0  0  0  0
 17 18  1  1  0  0  0
 19 17  1  0  0  0  0
 20 24  1  0  0  0  0
 20 19  1  0  0  0  0
 21 19  2  0  0  0  0
 22 25  1  6  0  0  0
 22 24  1  0  0  0  0
 22 26  1  0  0  0  0
 24 26  1  0  0  0  0
 24 23  1  1  0  0  0
 28 27  2  0  0  0  0
M  END
>  <MODEL>
5

>  <REMARK>
 VINA RESULT:      -6.7      4.075      7.577
  Name = 
  4 active torsions:
  status: ('A' for Active; 'I' for Inactive)
    1  A    between atoms: C_1  and  C_2
    2  A    between atoms: C_1  and  C_27
    3  A    between atoms: N_3  and  C_11
    4  A    between atoms: C_16  and  C_21
                            x       y       z     vdW  Elec       q    Type
                         _______ _______ _______ _____ _____    ______ ____

>  <TORSDO>
F 4

$$$$
=
 OpenBabel11052418123D

 28 31  0  0  1  0  0  0  0  0999 V2000
  187.1330  176.1420  143.3450 C   0  0  0  0  0  3  0  0  0  0  0  0
  192.4660  176.4080  146.2920 C   0  0  0  0  0  2  0  0  0  0  0  0
  187.4560  177.1170  145.5390 C   0  0  0  0  0  0  0  0  0  0  0  0
  189.2270  175.5720  144.6540 C   0  0  1  0  0  3  0  0  0  0  0  0
  185.4520  177.6150  144.2760 C   0  0  0  0  0  0  0  0  0  0  0  0
  187.9230  176.3080  144.4930 C   0  0  0  0  0  0  0  0  0  0  0  0
  189.7410  177.3340  146.4760 C   0  0  0  0  0  2  0  0  0  0  0  0
  186.2210  177.7660  145.4320 C   0  0  0  0  0  3  0  0  0  0  0  0
  192.0610  175.2210  144.1960 C   0  0  1  0  0  3  0  0  0  0  0  0
  189.7950  175.2960  143.3960 O   0  0  0  0  0  0  0  0  0  0  0  0
  188.2510  177.2280  146.7960 C   0  0  0  0  0  2  0  0  0  0  0  0
  191.5810  175.9910  145.3900 C   0  0  0  0  0  0  0  0  0  0  0  0
  184.2600  178.2490  144.1680 F   0  0  0  0  0  0  0  0  0  0  0  0
  185.9050  176.8000  143.2340 C   0  0  0  0  0  3  0  0  0  0  0  0
  190.1820  176.3260  145.4990 N   0  0  0  0  0  0  0  0  0  0  0  0
  190.8680  174.4230  143.6420 C   0  0  1  0  0  3  0  0  0  0  0  0
  191.2110  173.6040  142.3960 C   0  0  1  0  0  3  0  0  0  0  0  0
  192.5360  173.1680  142.4560 O   0  0  0  0  0  1  0  0  0  0  0  0
  190.2980  172.4230  142.2540 C   0  0  0  0  0  0  0  0  0  0  0  0
  189.4380  172.2910  141.1200 N   0  0  0  0  0  2  0  0  0  0  0  0
  190.2800  171.5360  143.1480 O   0  0  0  0  0  0  0  0  0  0  0  0
  189.3570  172.7200  138.6290 C   0  0  2  0  0  3  0  0  0  0  0  0
  188.5610  174.5410  140.2670 C   0  0  0  0  0  1  0  0  0  0  0  0
  189.3620  173.2740  140.0420 C   0  0  1  0  0  0  0  0  0  0  0  0
  189.5420  171.3360  138.6280 O   0  0  0  0  0  1  0  0  0  0  0  0
  190.6050  173.3960  139.1960 C   0  0  0  0  0  2  0  0  0  0  0  0
  193.8140  176.2590  142.9830 O   0  0  0  0  0  0  0  0  0  0  0  0
  192.6130  176.1830  143.1810 C   0  0  0  0  0  3  0  0  0  0  0  0
  1  6  1  0  0  0  0
  3 11  1  0  0  0  0
  4 10  1  6  0  0  0
  4 15  1  0  0  0  0
  5  8  2  0  0  0  0
  6  4  1  0  0  0  0
  6  3  2  0  0  0  0
  7 11  1  0  0  0  0
  8  3  1  0  0  0  0
  9 28  1  6  0  0  0
  9 12  1  0  0  0  0
 10 16  1  0  0  0  0
 12 15  1  0  0  0  0
 12  2  2  0  0  0  0
 13  5  1  0  0  0  0
 14  1  2  0  0  0  0
 14  5  1  0  0  0  0
 15  7  1  0  0  0  0
 16 17  1  6  0  0  0
 16  9  1  0  0  0  0
 17 18  1  1  0  0  0
 19 17  1  0  0  0  0
 19 21  2  0  0  0  0
 20 19  1  0  0  0  0
 22 25  1  1  0  0  0
 22 26  1  0  0  0  0
 22 24  1  0  0  0  0
 24 23  1  1  0  0  0
 24 20  1  0  0  0  0
 26 24  1  0  0  0  0
 27 28  2  0  0  0  0
M  END
>  <MODEL>
6

>  <REMARK>
 VINA RESULT:      -6.6      2.548      5.343
  Name = 
  4 active torsions:
  status: ('A' for Active; 'I' for Inactive)
    1  A    between atoms: C_1  and  C_2
    2  A    between atoms: C_1  and  C_27
    3  A    between atoms: N_3  and  C_11
    4  A    between atoms: C_16  and  C_21
                            x       y       z     vdW  Elec       q    Type
                         _______ _______ _______ _____ _____    ______ ____

>  <TORSDO>
F 4

$$$$
=
 OpenBabel11052418123D

 28 31  0  0  1  0  0  0  0  0999 V2000
  187.1030  176.9480  146.3530 C   0  0  0  0  0  3  0  0  0  0  0  0
  187.4470  176.5850  140.2750 C   0  0  0  0  0  2  0  0  0  0  0  0
  185.9360  178.4070  144.8100 C   0  0  0  0  0  0  0  0  0  0  0  0
  187.8770  177.0700  143.9430 C   0  0  1  0  0  3  0  0  0  0  0  0
  185.2430  178.2910  147.1270 C   0  0  0  0  0  0  0  0  0  0  0  0
  186.9410  177.4600  145.0570 C   0  0  0  0  0  0  0  0  0  0  0  0
  186.0230  177.9590  142.3730 C   0  0  0  0  0  2  0  0  0  0  0  0
  185.0910  178.8240  145.8440 C   0  0  0  0  0  3  0  0  0  0  0  0
  188.7940  175.2940  141.8520 C   0  0  1  0  0  3  0  0  0  0  0  0
  188.4080  175.7860  144.1740 O   0  0  0  0  0  0  0  0  0  0  0  0
  185.8160  179.0170  143.4550 C   0  0  0  0  0  2  0  0  0  0  0  0
  187.8050  176.3780  141.5400 C   0  0  0  0  0  0  0  0  0  0  0  0
  184.4210  178.6900  148.1270 F   0  0  0  0  0  0  0  0  0  0  0  0
  186.2520  177.3580  147.3830 C   0  0  0  0  0  3  0  0  0  0  0  0
  187.2100  177.1240  142.6210 N   0  0  0  0  0  0  0  0  0  0  0  0
  189.4240  175.6130  143.2180 C   0  0  1  0  0  3  0  0  0  0  0  0
  190.4410  174.5670  143.6770 C   0  0  1  0  0  3  0  0  0  0  0  0
  189.8620  173.2960  143.6720 O   0  0  0  0  0  1  0  0  0  0  0  0
  191.6570  174.5700  142.8000 C   0  0  0  0  0  0  0  0  0  0  0  0
  192.9200  175.0220  143.2950 N   0  0  0  0  0  2  0  0  0  0  0  0
  191.5670  174.1770  141.6070 O   0  0  0  0  0  0  0  0  0  0  0  0
  194.4790  175.2280  145.2750 C   0  0  2  0  0  3  0  0  0  0  0  0
  192.4730  176.8290  145.0530 C   0  0  0  0  0  1  0  0  0  0  0  0
  193.1270  175.5210  144.6510 C   0  0  1  0  0  0  0  0  0  0  0  0
  195.2530  174.4160  144.4440 O   0  0  0  0  0  1  0  0  0  0  0  0
  193.2350  174.4590  145.7170 C   0  0  0  0  0  2  0  0  0  0  0  0
  188.2010  173.1950  140.9200 O   0  0  0  0  0  0  0  0  0  0  0  0
  188.0840  173.9690  141.8570 C   0  0  0  0  0  3  0  0  0  0  0  0
  1 14  1  0  0  0  0
  2 12  2  0  0  0  0
  3  6  1  0  0  0  0
  3  8  2  0  0  0  0
  4 10  1  1  0  0  0
  4  6  1  0  0  0  0
  5 14  2  0  0  0  0
  5 13  1  0  0  0  0
  6  1  2  0  0  0  0
  7 15  1  0  0  0  0
  7 11  1  0  0  0  0
  8  5  1  0  0  0  0
  9 28  1  1  0  0  0
  9 16  1  0  0  0  0
 11  3  1  0  0  0  0
 12  9  1  0  0  0  0
 12 15  1  0  0  0  0
 15  4  1  0  0  0  0
 16 17  1  1  0  0  0
 16 10  1  0  0  0  0
 17 18  1  6  0  0  0
 19 20  1  0  0  0  0
 19 17  1  0  0  0  0
 20 24  1  0  0  0  0
 21 19  2  0  0  0  0
 22 25  1  6  0  0  0
 22 26  1  0  0  0  0
 24 23  1  1  0  0  0
 24 22  1  0  0  0  0
 24 26  1  0  0  0  0
 27 28  2  0  0  0  0
M  END
>  <MODEL>
7

>  <REMARK>
 VINA RESULT:      -6.6      1.571      2.054
  Name = 
  4 active torsions:
  status: ('A' for Active; 'I' for Inactive)
    1  A    between atoms: C_1  and  C_2
    2  A    between atoms: C_1  and  C_27
    3  A    between atoms: N_3  and  C_11
    4  A    between atoms: C_16  and  C_21
                            x       y       z     vdW  Elec       q    Type
                         _______ _______ _______ _____ _____    ______ ____

>  <TORSDO>
F 4

$$$$
=
 OpenBabel11052418123D

 28 31  0  0  1  0  0  0  0  0999 V2000
  188.9720  175.3610  143.0690 C   0  0  0  0  0  3  0  0  0  0  0  0
  191.4930  176.8890  148.4070 C   0  0  0  0  0  2  0  0  0  0  0  0
  187.8010  176.4390  144.8950 C   0  0  0  0  0  0  0  0  0  0  0  0
  189.9870  175.3080  145.3900 C   0  0  1  0  0  3  0  0  0  0  0  0
  186.8430  176.4440  142.6720 C   0  0  0  0  0  0  0  0  0  0  0  0
  188.9140  175.7290  144.4210 C   0  0  0  0  0  0  0  0  0  0  0  0
  189.0510  177.1860  146.9010 C   0  0  0  0  0  2  0  0  0  0  0  0
  186.7660  176.7930  144.0230 C   0  0  0  0  0  3  0  0  0  0  0  0
  192.5770  175.5880  146.6470 C   0  0  1  0  0  3  0  0  0  0  0  0
  191.2140  175.1330  144.7190 O   0  0  0  0  0  0  0  0  0  0  0  0
  187.6940  176.7570  146.3480 C   0  0  0  0  0  2  0  0  0  0  0  0
  191.3750  176.2620  147.2400 C   0  0  0  0  0  0  0  0  0  0  0  0
  185.8450  176.7920  141.8250 F   0  0  0  0  0  0  0  0  0  0  0  0
  187.9420  175.7240  142.1950 C   0  0  0  0  0  3  0  0  0  0  0  0
  190.1370  176.2770  146.4990 N   0  0  0  0  0  0  0  0  0  0  0  0
  192.0770  174.5300  145.6490 C   0  0  1  0  0  3  0  0  0  0  0  0
  193.2080  173.7770  144.9450 C   0  0  1  0  0  3  0  0  0  0  0  0
  193.7870  172.8530  145.8160 O   0  0  0  0  0  1  0  0  0  0  0  0
  192.7090  173.0700  143.7200 C   0  0  0  0  0  0  0  0  0  0  0  0
  193.1250  173.4790  142.4140 N   0  0  0  0  0  2  0  0  0  0  0  0
  191.9060  172.1070  143.8380 O   0  0  0  0  0  0  0  0  0  0  0  0
  195.1070  174.3690  141.1210 C   0  0  2  0  0  3  0  0  0  0  0  0
  193.4890  176.0090  142.2730 C   0  0  0  0  0  1  0  0  0  0  0  0
  194.0300  174.5970  142.1660 C   0  0  1  0  0  0  0  0  0  0  0  0
  195.0920  173.0510  140.6590 O   0  0  0  0  0  1  0  0  0  0  0  0
  195.4560  174.3800  142.6090 C   0  0  0  0  0  2  0  0  0  0  0  0
  194.5150  176.9420  146.4650 O   0  0  0  0  0  0  0  0  0  0  0  0
  193.4420  176.6230  145.9820 C   0  0  0  0  0  3  0  0  0  0  0  0
  1  6  1  0  0  0  0
  3 11  1  0  0  0  0
  4  6  1  6  0  0  0
  4 15  1  0  0  0  0
  5  8  2  0  0  0  0
  6  3  2  0  0  0  0
  8  3  1  0  0  0  0
  9 28  1  6  0  0  0
  9 12  1  0  0  0  0
 10  4  1  0  0  0  0
 10 16  1  0  0  0  0
 11  7  1  0  0  0  0
 12  2  2  0  0  0  0
 13  5  1  0  0  0  0
 14  5  1  0  0  0  0
 14  1  2  0  0  0  0
 15  7  1  0  0  0  0
 15 12  1  0  0  0  0
 16 17  1  6  0  0  0
 16  9  1  0  0  0  0
 17 18  1  1  0  0  0
 19 21  2  0  0  0  0
 19 17  1  0  0  0  0
 20 19  1  0  0  0  0
 22 25  1  1  0  0  0
 22 24  1  0  0  0  0
 22 26  1  0  0  0  0
 24 23  1  1  0  0  0
 24 20  1  0  0  0  0
 24 26  1  0  0  0  0
 28 27  2  0  0  0  0
M  END
>  <MODEL>
8

>  <REMARK>
 VINA RESULT:      -6.6      3.033      5.704
  Name = 
  4 active torsions:
  status: ('A' for Active; 'I' for Inactive)
    1  A    between atoms: C_1  and  C_2
    2  A    between atoms: C_1  and  C_27
    3  A    between atoms: N_3  and  C_11
    4  A    between atoms: C_16  and  C_21
                            x       y       z     vdW  Elec       q    Type
                         _______ _______ _______ _____ _____    ______ ____

>  <TORSDO>
F 4

$$$$
=
 OpenBabel11052418123D

 28 31  0  0  1  0  0  0  0  0999 V2000
  191.6980  176.4060  145.3340 C   0  0  0  0  0  3  0  0  0  0  0  0
  188.0720  172.9120  141.8930 C   0  0  0  0  0  2  0  0  0  0  0  0
  191.9030  174.0030  145.1030 C   0  0  0  0  0  0  0  0  0  0  0  0
  189.7400  175.0810  144.4200 C   0  0  1  0  0  3  0  0  0  0  0  0
  193.7430  175.2950  146.0020 C   0  0  0  0  0  0  0  0  0  0  0  0
  191.1500  175.1750  144.9400 C   0  0  0  0  0  0  0  0  0  0  0  0
  190.4760  172.7860  143.4810 C   0  0  0  0  0  2  0  0  0  0  0  0
  193.1950  174.0620  145.6360 C   0  0  0  0  0  3  0  0  0  0  0  0
  187.7430  175.2910  142.3380 C   0  0  1  0  0  3  0  0  0  0  0  0
  189.3580  176.2920  143.8110 O   0  0  0  0  0  0  0  0  0  0  0  0
  191.2940  172.6840  144.7670 C   0  0  0  0  0  2  0  0  0  0  0  0
  188.4530  173.9900  142.5730 C   0  0  0  0  0  0  0  0  0  0  0  0
  194.9950  175.3540  146.5120 F   0  0  0  0  0  0  0  0  0  0  0  0
  192.9930  176.4660  145.8560 C   0  0  0  0  0  3  0  0  0  0  0  0
  189.5780  173.9520  143.4740 N   0  0  0  0  0  0  0  0  0  0  0  0
  187.9790  176.1830  143.5690 C   0  0  1  0  0  3  0  0  0  0  0  0
  187.3270  177.5620  143.4540 C   0  0  1  0  0  3  0  0  0  0  0  0
  187.8710  178.2640  142.3770 O   0  0  0  0  0  1  0  0  0  0  0  0
  185.8410  177.4480  143.2820 C   0  0  0  0  0  0  0  0  0  0  0  0
  184.9620  177.5260  144.4070 N   0  0  0  0  0  2  0  0  0  0  0  0
  185.3570  177.2730  142.1320 O   0  0  0  0  0  0  0  0  0  0  0  0
  184.4960  178.4740  146.7040 C   0  0  2  0  0  3  0  0  0  0  0  0
  186.2340  176.5940  146.4240 C   0  0  0  0  0  1  0  0  0  0  0  0
  185.4210  177.7000  145.7820 C   0  0  1  0  0  0  0  0  0  0  0  0
  183.3970  178.9810  146.0080 O   0  0  0  0  0  1  0  0  0  0  0  0
  185.7750  179.1150  146.1660 C   0  0  0  0  0  2  0  0  0  0  0  0
  187.6110  175.9190  140.0560 O   0  0  0  0  0  0  0  0  0  0  0  0
  188.2730  175.9200  141.0800 C   0  0  0  0  0  3  0  0  0  0  0  0
  1 14  1  0  0  0  0
  2 12  2  0  0  0  0
  3  8  2  0  0  0  0
  4 10  1  6  0  0  0
  4  6  1  0  0  0  0
  5 13  1  0  0  0  0
  6  3  1  0  0  0  0
  6  1  2  0  0  0  0
  7 11  1  0  0  0  0
  8  5  1  0  0  0  0
  9 28  1  6  0  0  0
  9 12  1  0  0  0  0
  9 16  1  0  0  0  0
 11  3  1  0  0  0  0
 12 15  1  0  0  0  0
 14  5  2  0  0  0  0
 15  7  1  0  0  0  0
 15  4  1  0  0  0  0
 16 17  1  6  0  0  0
 16 10  1  0  0  0  0
 17 18  1  6  0  0  0
 19 17  1  0  0  0  0
 19 20  1  0  0  0  0
 20 24  1  0  0  0  0
 21 19  2  0  0  0  0
 22 25  1  6  0  0  0
 24 26  1  0  0  0  0
 24 23  1  1  0  0  0
 24 22  1  0  0  0  0
 26 22  1  0  0  0  0
 27 28  2  0  0  0  0
M  END
>  <MODEL>
9

>  <REMARK>
 VINA RESULT:      -6.5      2.992      6.309
  Name = 
  4 active torsions:
  status: ('A' for Active; 'I' for Inactive)
    1  A    between atoms: C_1  and  C_2
    2  A    between atoms: C_1  and  C_27
    3  A    between atoms: N_3  and  C_11
    4  A    between atoms: C_16  and  C_21
                            x       y       z     vdW  Elec       q    Type
                         _______ _______ _______ _____ _____    ______ ____

>  <TORSDO>
F 4

$$$$
