=
 OpenBabel11052419153D

 32 36  0  0  1  0  0  0  0  0999 V2000
  188.9190  175.6250  144.7240 C   0  0  0  0  0  0  0  0  0  0  0  0
  187.0430  176.7640  142.9450 C   0  0  0  0  0  0  0  0  0  0  0  0
  189.8700  174.8390  145.6020 C   0  0  0  0  0  3  0  0  0  0  0  0
  187.7170  176.1840  145.2550 C   0  0  2  0  0  3  0  0  0  0  0  0
  185.5510  177.3050  144.7760 C   0  0  0  0  0  3  0  0  0  0  0  0
  185.3580  177.9300  139.7750 C   0  0  0  0  0  3  0  0  0  0  0  0
  186.7680  176.7490  144.3410 C   0  0  0  0  0  0  0  0  0  0  0  0
  183.9720  178.4140  141.6320 O   0  0  0  0  0  0  0  0  0  0  0  0
  184.9030  177.8620  142.5240 C   0  0  0  0  0  0  0  0  0  0  0  0
  187.5310  176.1770  146.6100 C   0  0  0  0  0  0  0  0  0  0  0  0
  184.6310  177.8530  143.8870 C   0  0  0  0  0  3  0  0  0  0  0  0
  188.5820  175.6730  147.5180 C   0  0  0  0  0  3  0  0  0  0  0  0
  188.2440  176.2300  142.4780 C   0  0  0  0  0  3  0  0  0  0  0  0
  189.1820  175.6740  143.3400 C   0  0  0  0  0  0  0  0  0  0  0  0
  186.1080  177.3190  142.0390 C   0  0  0  0  0  0  0  0  0  0  0  0
  189.6790  175.0850  147.0610 C   0  0  0  0  0  3  0  0  0  0  0  0
  184.2210  178.4390  140.2540 C   0  0  0  0  0  3  0  0  0  0  0  0
  186.3380  177.3470  140.7130 C   0  0  0  0  0  3  0  0  0  0  0  0
  192.7380  175.3680  142.0440 C   0  0  0  0  0  0  0  0  0  0  0  0
  193.8900  176.1350  141.9130 O   0  0  0  0  0  1  0  0  0  0  0  0
  190.4240  175.1280  142.7480 C   0  0  0  0  0  0  0  0  0  0  0  0
  192.7390  174.0430  141.6000 C   0  0  0  0  0  3  0  0  0  0  0  0
  190.4350  173.8050  142.2860 C   0  0  0  0  0  3  0  0  0  0  0  0
  191.5820  175.9180  142.6110 C   0  0  0  0  0  0  0  0  0  0  0  0
  191.5830  177.2480  143.0200 O   0  0  0  0  0  1  0  0  0  0  0  0
  191.5850  173.2550  141.7150 C   0  0  0  0  0  0  0  0  0  0  0  0
  190.5030  171.0340  141.6040 C   0  0  0  0  0  1  0  0  0  0  0  0
  191.5550  171.9300  141.2730 O   0  0  0  0  0  0  0  0  0  0  0  0
  186.3600  176.6770  147.1900 O   0  0  0  0  0  0  0  0  0  0  0  0
  186.3850  177.4350  148.3410 N   0  0  0  0  0  2  0  0  0  0  0  0
  186.6980  178.7930  147.9380 C   0  0  0  0  0  2  0  0  0  0  0  0
  185.5430  179.4130  147.4630 O   0  0  0  0  0  1  0  0  0  0  0  0
  1  4  1  0  0  0  0
  1  3  1  0  0  0  0
  2  7  1  0  0  0  0
  3 16  2  0  0  0  0
  4  7  1  1  0  0  0
  4 10  1  0  0  0  0
  6 17  2  0  0  0  0
  6 18  1  0  0  0  0
  7  5  2  0  0  0  0
  8  9  1  0  0  0  0
  9 11  2  0  0  0  0
 10 29  1  0  0  0  0
 10 12  2  0  0  0  0
 11  5  1  0  0  0  0
 13  2  2  0  0  0  0
 13 14  1  0  0  0  0
 14  1  2  0  0  0  0
 15  9  1  0  0  0  0
 15  2  1  0  0  0  0
 16 12  1  0  0  0  0
 17  8  1  0  0  0  0
 18 15  2  0  0  0  0
 19 24  1  0  0  0  0
 20 19  1  0  0  0  0
 21 14  1  0  0  0  0
 22 26  1  0  0  0  0
 22 19  2  0  0  0  0
 23 21  1  0  0  0  0
 24 21  2  0  0  0  0
 24 25  1  0  0  0  0
 26 23  2  0  0  0  0
 28 27  1  0  0  0  0
 28 26  1  0  0  0  0
 29 30  1  0  0  0  0
 31 30  1  0  0  0  0
 32 31  1  0  0  0  0
M  END
>  <MODEL>
1

>  <REMARK>
 VINA RESULT:      -7.3      0.000      0.000
  Name = 
  5 active torsions:
  status: ('A' for Active; 'I' for Inactive)
    1  A    between atoms: C_13  and  N_18
    2  A    between atoms: C_14  and  O_29
    3  A    between atoms: O_15  and  C_26
    4  A    between atoms: C_16  and  C_27
    5  A    between atoms: N_18  and  O_29
                            x       y       z     vdW  Elec       q    Type
                         _______ _______ _______ _____ _____    ______ ____

>  <TORSDO>
F 5

$$$$
=
 OpenBabel11052419153D

 32 36  0  0  1  0  0  0  0  0999 V2000
  188.9340  175.5320  144.6860 C   0  0  0  0  0  0  0  0  0  0  0  0
  187.0710  176.7060  142.9170 C   0  0  0  0  0  0  0  0  0  0  0  0
  189.8760  174.7290  145.5570 C   0  0  0  0  0  3  0  0  0  0  0  0
  187.7390  176.1010  145.2220 C   0  0  2  0  0  3  0  0  0  0  0  0
  185.5850  177.2490  144.7520 C   0  0  0  0  0  3  0  0  0  0  0  0
  185.4000  177.9180  139.7560 C   0  0  0  0  0  3  0  0  0  0  0  0
  186.7960  176.6830  144.3120 C   0  0  0  0  0  0  0  0  0  0  0  0
  184.0200  178.4020  141.6170 O   0  0  0  0  0  0  0  0  0  0  0  0
  184.9440  177.8330  142.5040 C   0  0  0  0  0  0  0  0  0  0  0  0
  187.5520  176.0850  146.5770 C   0  0  0  0  0  0  0  0  0  0  0  0
  184.6710  177.8150  143.8670 C   0  0  0  0  0  3  0  0  0  0  0  0
  188.5970  175.5610  147.4810 C   0  0  0  0  0  3  0  0  0  0  0  0
  188.2660  176.1630  142.4450 C   0  0  0  0  0  3  0  0  0  0  0  0
  189.1970  175.5900  143.3020 C   0  0  0  0  0  0  0  0  0  0  0  0
  186.1430  177.2800  142.0140 C   0  0  0  0  0  0  0  0  0  0  0  0
  189.6870  174.9650  147.0180 C   0  0  0  0  0  3  0  0  0  0  0  0
  184.2680  178.4350  140.2380 C   0  0  0  0  0  3  0  0  0  0  0  0
  186.3730  177.3160  140.6890 C   0  0  0  0  0  3  0  0  0  0  0  0
  191.6780  173.2150  141.6810 C   0  0  0  0  0  0  0  0  0  0  0  0
  191.7420  171.9110  141.2030 O   0  0  0  0  0  1  0  0  0  0  0  0
  190.4330  175.0340  142.7070 C   0  0  0  0  0  0  0  0  0  0  0  0
  192.8100  174.0310  141.6090 C   0  0  0  0  0  3  0  0  0  0  0  0
  191.5800  175.8380  142.6400 C   0  0  0  0  0  3  0  0  0  0  0  0
  190.4900  173.7080  142.2350 C   0  0  0  0  0  0  0  0  0  0  0  0
  189.3800  172.8750  142.3320 O   0  0  0  0  0  1  0  0  0  0  0  0
  192.7680  175.3470  142.0930 C   0  0  0  0  0  0  0  0  0  0  0  0
  194.9850  176.0530  142.9310 C   0  0  0  0  0  1  0  0  0  0  0  0
  193.8850  176.1840  142.0400 O   0  0  0  0  0  0  0  0  0  0  0  0
  186.3860  176.5930  147.1600 O   0  0  0  0  0  0  0  0  0  0  0  0
  186.4230  177.3710  148.2980 N   0  0  0  0  0  2  0  0  0  0  0  0
  186.7630  178.7160  147.8710 C   0  0  0  0  0  2  0  0  0  0  0  0
  185.6010  179.3930  147.5040 O   0  0  0  0  0  1  0  0  0  0  0  0
  1  4  1  0  0  0  0
  1  3  1  0  0  0  0
  2  7  1  0  0  0  0
  3 16  2  0  0  0  0
  4  7  1  1  0  0  0
  4 10  1  0  0  0  0
  6 17  2  0  0  0  0
  6 18  1  0  0  0  0
  7  5  2  0  0  0  0
  8  9  1  0  0  0  0
  9 11  2  0  0  0  0
 10 29  1  0  0  0  0
 10 12  2  0  0  0  0
 11  5  1  0  0  0  0
 13  2  2  0  0  0  0
 13 14  1  0  0  0  0
 14  1  2  0  0  0  0
 15  9  1  0  0  0  0
 15  2  1  0  0  0  0
 16 12  1  0  0  0  0
 17  8  1  0  0  0  0
 18 15  2  0  0  0  0
 19 24  1  0  0  0  0
 20 19  1  0  0  0  0
 21 14  1  0  0  0  0
 22 19  2  0  0  0  0
 22 26  1  0  0  0  0
 23 21  1  0  0  0  0
 24 25  1  0  0  0  0
 24 21  2  0  0  0  0
 26 23  2  0  0  0  0
 28 26  1  0  0  0  0
 28 27  1  0  0  0  0
 29 30  1  0  0  0  0
 31 30  1  0  0  0  0
 32 31  1  0  0  0  0
M  END
>  <MODEL>
2

>  <REMARK>
 VINA RESULT:      -7.2      0.657      2.109
  Name = 
  5 active torsions:
  status: ('A' for Active; 'I' for Inactive)
    1  A    between atoms: C_13  and  N_18
    2  A    between atoms: C_14  and  O_29
    3  A    between atoms: O_15  and  C_26
    4  A    between atoms: C_16  and  C_27
    5  A    between atoms: N_18  and  O_29
                            x       y       z     vdW  Elec       q    Type
                         _______ _______ _______ _____ _____    ______ ____

>  <TORSDO>
F 5

$$$$
=
 OpenBabel11052419153D

 32 36  0  0  1  0  0  0  0  0999 V2000
  191.5710  175.1930  145.5870 C   0  0  0  0  0  0  0  0  0  0  0  0
  190.4860  174.7040  143.0240 C   0  0  0  0  0  0  0  0  0  0  0  0
  192.1080  175.2650  147.0000 C   0  0  0  0  0  3  0  0  0  0  0  0
  190.3210  175.7910  145.2420 C   0  0  2  0  0  3  0  0  0  0  0  0
  188.5410  176.0600  143.5260 C   0  0  0  0  0  3  0  0  0  0  0  0
  190.0330  173.3960  139.5120 C   0  0  0  0  0  3  0  0  0  0  0  0
  189.7760  175.5260  143.9420 C   0  0  0  0  0  0  0  0  0  0  0  0
  188.1750  174.7390  140.1020 O   0  0  0  0  0  0  0  0  0  0  0  0
  188.7110  174.9970  141.3720 C   0  0  0  0  0  0  0  0  0  0  0  0
  189.7070  176.6060  146.1530 C   0  0  0  0  0  0  0  0  0  0  0  0
  188.0140  175.8020  142.2640 C   0  0  0  0  0  3  0  0  0  0  0  0
  190.3560  176.9270  147.4420 C   0  0  0  0  0  3  0  0  0  0  0  0
  191.7170  174.1650  143.3980 C   0  0  0  0  0  3  0  0  0  0  0  0
  192.2690  174.4030  144.6500 C   0  0  0  0  0  0  0  0  0  0  0  0
  189.9510  174.4390  141.7400 C   0  0  0  0  0  0  0  0  0  0  0  0
  191.4800  176.3380  147.8240 C   0  0  0  0  0  3  0  0  0  0  0  0
  188.8560  173.9310  139.1810 C   0  0  0  0  0  3  0  0  0  0  0  0
  190.5980  173.6650  140.8490 C   0  0  0  0  0  3  0  0  0  0  0  0
  196.0020  173.8750  145.1050 C   0  0  0  0  0  0  0  0  0  0  0  0
  197.1960  174.5740  144.9730 O   0  0  0  0  0  1  0  0  0  0  0  0
  193.5770  173.7820  144.9570 C   0  0  0  0  0  0  0  0  0  0  0  0
  196.0260  172.5450  145.5310 C   0  0  0  0  0  3  0  0  0  0  0  0
  193.6170  172.4430  145.3720 C   0  0  0  0  0  3  0  0  0  0  0  0
  194.7830  174.4960  144.8090 C   0  0  0  0  0  0  0  0  0  0  0  0
  194.7740  175.8110  144.3550 O   0  0  0  0  0  1  0  0  0  0  0  0
  194.8330  171.8200  145.6630 C   0  0  0  0  0  0  0  0  0  0  0  0
  196.0160  169.7710  146.3800 C   0  0  0  0  0  1  0  0  0  0  0  0
  194.8270  170.4860  146.0800 O   0  0  0  0  0  0  0  0  0  0  0  0
  188.4650  177.1930  145.8890 O   0  0  0  0  0  0  0  0  0  0  0  0
  187.6740  177.7020  146.8970 N   0  0  0  0  0  2  0  0  0  0  0  0
  186.5670  176.7790  147.0630 C   0  0  0  0  0  2  0  0  0  0  0  0
  185.9020  176.6290  145.8470 O   0  0  0  0  0  1  0  0  0  0  0  0
  1  3  1  0  0  0  0
  2 13  2  0  0  0  0
  2  7  1  0  0  0  0
  3 16  2  0  0  0  0
  4  7  1  6  0  0  0
  4  1  1  0  0  0  0
  4 10  1  0  0  0  0
  5  7  2  0  0  0  0
  6 18  1  0  0  0  0
  8  9  1  0  0  0  0
  9 15  1  0  0  0  0
  9 11  2  0  0  0  0
 10 12  2  0  0  0  0
 11  5  1  0  0  0  0
 12 16  1  0  0  0  0
 13 14  1  0  0  0  0
 14 21  1  0  0  0  0
 14  1  2  0  0  0  0
 15  2  1  0  0  0  0
 17  6  2  0  0  0  0
 17  8  1  0  0  0  0
 18 15  2  0  0  0  0
 19 22  1  0  0  0  0
 20 19  1  0  0  0  0
 21 23  2  0  0  0  0
 22 26  2  0  0  0  0
 23 26  1  0  0  0  0
 24 21  1  0  0  0  0
 24 19  2  0  0  0  0
 25 24  1  0  0  0  0
 26 28  1  0  0  0  0
 28 27  1  0  0  0  0
 29 10  1  0  0  0  0
 29 30  1  0  0  0  0
 30 31  1  0  0  0  0
 32 31  1  0  0  0  0
M  END
>  <MODEL>
3

>  <REMARK>
 VINA RESULT:      -7.1      3.211      4.364
  Name = 
  5 active torsions:
  status: ('A' for Active; 'I' for Inactive)
    1  A    between atoms: C_13  and  N_18
    2  A    between atoms: C_14  and  O_29
    3  A    between atoms: O_15  and  C_26
    4  A    between atoms: C_16  and  C_27
    5  A    between atoms: N_18  and  O_29
                            x       y       z     vdW  Elec       q    Type
                         _______ _______ _______ _____ _____    ______ ____

>  <TORSDO>
F 5

$$$$
=
 OpenBabel11052419153D

 32 36  0  0  1  0  0  0  0  0999 V2000
  190.5870  175.7960  145.1600 C   0  0  0  0  0  0  0  0  0  0  0  0
  190.0790  174.2650  142.8400 C   0  0  0  0  0  0  0  0  0  0  0  0
  190.8470  176.7760  146.2840 C   0  0  0  0  0  3  0  0  0  0  0  0
  191.6430  175.0080  144.6100 C   0  0  2  0  0  3  0  0  0  0  0  0
  192.3630  173.4540  142.8080 C   0  0  0  0  0  3  0  0  0  0  0  0
  188.3250  172.7240  139.8740 C   0  0  0  0  0  3  0  0  0  0  0  0
  191.3760  174.2440  143.4260 C   0  0  0  0  0  0  0  0  0  0  0  0
  190.5750  171.9910  139.9310 O   0  0  0  0  0  0  0  0  0  0  0  0
  190.8340  172.7380  141.0890 C   0  0  0  0  0  0  0  0  0  0  0  0
  192.8550  174.9970  145.2430 C   0  0  0  0  0  0  0  0  0  0  0  0
  192.1010  172.7130  141.6590 C   0  0  0  0  0  3  0  0  0  0  0  0
  193.0520  175.7230  146.5150 C   0  0  0  0  0  3  0  0  0  0  0  0
  189.0730  175.0290  143.4310 C   0  0  0  0  0  3  0  0  0  0  0  0
  189.3030  175.7810  144.5770 C   0  0  0  0  0  0  0  0  0  0  0  0
  189.8110  173.5130  141.6710 C   0  0  0  0  0  0  0  0  0  0  0  0
  192.1190  176.5190  147.0180 C   0  0  0  0  0  3  0  0  0  0  0  0
  189.3070  171.9970  139.3360 C   0  0  0  0  0  3  0  0  0  0  0  0
  188.5960  173.5120  141.0920 C   0  0  0  0  0  3  0  0  0  0  0  0
  186.5850  177.0670  146.8960 C   0  0  0  0  0  0  0  0  0  0  0  0
  186.0740  176.8280  148.1670 O   0  0  0  0  0  1  0  0  0  0  0  0
  188.1740  176.5650  145.1260 C   0  0  0  0  0  0  0  0  0  0  0  0
  186.0190  178.0670  146.1030 C   0  0  0  0  0  3  0  0  0  0  0  0
  187.5870  177.5620  144.3360 C   0  0  0  0  0  3  0  0  0  0  0  0
  187.6570  176.3070  146.4110 C   0  0  0  0  0  0  0  0  0  0  0  0
  188.1910  175.2910  147.1980 O   0  0  0  0  0  1  0  0  0  0  0  0
  186.5150  178.3180  144.8150 C   0  0  0  0  0  0  0  0  0  0  0  0
  185.4880  179.0410  142.6850 C   0  0  0  0  0  1  0  0  0  0  0  0
  185.9640  179.3070  143.9970 O   0  0  0  0  0  0  0  0  0  0  0  0
  193.9390  174.2730  144.7350 O   0  0  0  0  0  0  0  0  0  0  0  0
  195.2110  174.8020  144.6960 N   0  0  0  0  0  2  0  0  0  0  0  0
  195.2410  175.7330  143.5830 C   0  0  0  0  0  2  0  0  0  0  0  0
  196.0920  176.7940  143.8870 O   0  0  0  0  0  1  0  0  0  0  0  0
  1  3  1  0  0  0  0
  2  7  1  0  0  0  0
  2 13  2  0  0  0  0
  3 16  2  0  0  0  0
  4  7  1  1  0  0  0
  4  1  1  0  0  0  0
  4 10  1  0  0  0  0
  5  7  2  0  0  0  0
  6 18  1  0  0  0  0
  8  9  1  0  0  0  0
  9 11  2  0  0  0  0
  9 15  1  0  0  0  0
 10 12  2  0  0  0  0
 11  5  1  0  0  0  0
 12 16  1  0  0  0  0
 13 14  1  0  0  0  0
 14 21  1  0  0  0  0
 14  1  2  0  0  0  0
 15  2  1  0  0  0  0
 17  6  2  0  0  0  0
 17  8  1  0  0  0  0
 18 15  2  0  0  0  0
 19 20  1  0  0  0  0
 21 24  2  0  0  0  0
 22 19  2  0  0  0  0
 23 26  2  0  0  0  0
 23 21  1  0  0  0  0
 24 19  1  0  0  0  0
 24 25  1  0  0  0  0
 26 22  1  0  0  0  0
 27 28  1  0  0  0  0
 28 26  1  0  0  0  0
 29 10  1  0  0  0  0
 30 29  1  0  0  0  0
 31 32  1  0  0  0  0
 31 30  1  0  0  0  0
M  END
>  <MODEL>
4

>  <REMARK>
 VINA RESULT:      -6.9      2.664      7.034
  Name = 
  5 active torsions:
  status: ('A' for Active; 'I' for Inactive)
    1  A    between atoms: C_13  and  N_18
    2  A    between atoms: C_14  and  O_29
    3  A    between atoms: O_15  and  C_26
    4  A    between atoms: C_16  and  C_27
    5  A    between atoms: N_18  and  O_29
                            x       y       z     vdW  Elec       q    Type
                         _______ _______ _______ _____ _____    ______ ____

>  <TORSDO>
F 5

$$$$
=
 OpenBabel11052419153D

 32 36  0  0  1  0  0  0  0  0999 V2000
  188.9390  176.3840  144.3240 C   0  0  0  0  0  0  0  0  0  0  0  0
  189.3180  174.4520  142.2970 C   0  0  0  0  0  0  0  0  0  0  0  0
  188.7640  177.5540  145.2680 C   0  0  0  0  0  3  0  0  0  0  0  0
  190.1360  175.6040  144.3300 C   0  0  2  0  0  3  0  0  0  0  0  0
  191.4780  173.8380  143.2080 C   0  0  0  0  0  3  0  0  0  0  0  0
  188.7630  172.3020  139.2450 C   0  0  0  0  0  3  0  0  0  0  0  0
  190.3210  174.6350  143.2900 C   0  0  0  0  0  0  0  0  0  0  0  0
  190.8580  171.7760  140.2120 O   0  0  0  0  0  0  0  0  0  0  0  0
  190.6740  172.7240  141.2290 C   0  0  0  0  0  0  0  0  0  0  0  0
  191.0430  175.7980  145.3350 C   0  0  0  0  0  0  0  0  0  0  0  0
  191.6550  172.8970  142.1980 C   0  0  0  0  0  3  0  0  0  0  0  0
  190.7610  176.7390  146.4400 C   0  0  0  0  0  3  0  0  0  0  0  0
  188.1540  175.2180  142.3510 C   0  0  0  0  0  3  0  0  0  0  0  0
  187.9470  176.1660  143.3460 C   0  0  0  0  0  0  0  0  0  0  0  0
  189.4970  173.4970  141.2670 C   0  0  0  0  0  0  0  0  0  0  0  0
  189.6960  177.5280  146.4320 C   0  0  0  0  0  3  0  0  0  0  0  0
  189.8850  171.5800  139.2240 C   0  0  0  0  0  3  0  0  0  0  0  0
  188.5680  173.3010  140.3140 C   0  0  0  0  0  3  0  0  0  0  0  0
  184.9620  178.1680  142.1190 C   0  0  0  0  0  0  0  0  0  0  0  0
  184.4330  178.6650  140.9340 O   0  0  0  0  0  1  0  0  0  0  0  0
  186.6820  176.9340  143.3150 C   0  0  0  0  0  0  0  0  0  0  0  0
  184.2930  178.4010  143.3240 C   0  0  0  0  0  3  0  0  0  0  0  0
  186.0080  177.1870  144.5180 C   0  0  0  0  0  3  0  0  0  0  0  0
  186.1600  177.4430  142.1090 C   0  0  0  0  0  0  0  0  0  0  0  0
  186.8340  177.2460  140.9080 O   0  0  0  0  0  1  0  0  0  0  0  0
  184.8160  177.9150  144.5310 C   0  0  0  0  0  0  0  0  0  0  0  0
  184.8780  178.2910  146.9740 C   0  0  0  0  0  1  0  0  0  0  0  0
  184.1720  178.1380  145.7510 O   0  0  0  0  0  0  0  0  0  0  0  0
  192.2500  175.0920  145.3770 O   0  0  0  0  0  0  0  0  0  0  0  0
  193.0360  175.0640  146.5090 N   0  0  0  0  0  2  0  0  0  0  0  0
  194.3180  175.6330  146.1390 C   0  0  0  0  0  2  0  0  0  0  0  0
  194.3240  176.9950  146.4350 O   0  0  0  0  0  1  0  0  0  0  0  0
  1  4  1  0  0  0  0
  1  3  1  0  0  0  0
  2 13  2  0  0  0  0
  2  7  1  0  0  0  0
  3 16  2  0  0  0  0
  4  7  1  1  0  0  0
  4 10  1  0  0  0  0
  5  7  2  0  0  0  0
  6 18  1  0  0  0  0
  8  9  1  0  0  0  0
  9 15  1  0  0  0  0
  9 11  2  0  0  0  0
 10 29  1  0  0  0  0
 10 12  2  0  0  0  0
 11  5  1  0  0  0  0
 13 14  1  0  0  0  0
 14  1  2  0  0  0  0
 15  2  1  0  0  0  0
 16 12  1  0  0  0  0
 17  6  2  0  0  0  0
 17  8  1  0  0  0  0
 18 15  2  0  0  0  0
 19 22  1  0  0  0  0
 20 19  1  0  0  0  0
 21 14  1  0  0  0  0
 21 23  2  0  0  0  0
 22 26  2  0  0  0  0
 23 26  1  0  0  0  0
 24 19  2  0  0  0  0
 24 21  1  0  0  0  0
 25 24  1  0  0  0  0
 26 28  1  0  0  0  0
 28 27  1  0  0  0  0
 29 30  1  0  0  0  0
 31 32  1  0  0  0  0
 31 30  1  0  0  0  0
M  END
>  <MODEL>
5

>  <REMARK>
 VINA RESULT:      -6.9      2.370      6.733
  Name = 
  5 active torsions:
  status: ('A' for Active; 'I' for Inactive)
    1  A    between atoms: C_13  and  N_18
    2  A    between atoms: C_14  and  O_29
    3  A    between atoms: O_15  and  C_26
    4  A    between atoms: C_16  and  C_27
    5  A    between atoms: N_18  and  O_29
                            x       y       z     vdW  Elec       q    Type
                         _______ _______ _______ _____ _____    ______ ____

>  <TORSDO>
F 5

$$$$
=
 OpenBabel11052419153D

 32 36  0  0  0  0  0  0  0  0999 V2000
  190.9530  174.8000  144.6760 C   0  0  0  0  0  0  0  0  0  0  0  0
  188.4870  176.1370  144.3360 C   0  0  0  0  0  0  0  0  0  0  0  0
  192.1660  173.9210  144.8900 C   0  0  0  0  0  2  0  0  0  0  0  0
  190.5250  175.7220  145.6790 C   0  0  0  0  0  0  0  0  0  0  0  0
  188.7590  177.2940  146.4480 C   0  0  0  0  0  3  0  0  0  0  0  0
  185.1890  177.2610  142.8860 C   0  0  0  0  0  3  0  0  0  0  0  0
  189.2670  176.3850  145.5010 C   0  0  0  0  0  0  0  0  0  0  0  0
  185.5490  178.3400  144.9620 O   0  0  0  0  0  0  0  0  0  0  0  0
  186.7800  177.6900  145.1340 C   0  0  0  0  0  0  0  0  0  0  0  0
  191.3380  175.9490  146.7550 C   0  0  0  0  0  0  0  0  0  0  0  0
  187.5380  177.9380  146.2720 C   0  0  0  0  0  3  0  0  0  0  0  0
  192.6710  175.3150  146.8460 C   0  0  0  0  0  3  0  0  0  0  0  0
  188.9630  175.2490  143.3710 C   0  0  0  0  0  3  0  0  0  0  0  0
  190.1770  174.5900  143.5180 C   0  0  0  0  0  0  0  0  0  0  0  0
  187.2440  176.7890  144.1560 C   0  0  0  0  0  0  0  0  0  0  0  0
  193.0730  174.4040  145.9710 C   0  0  0  0  0  3  0  0  0  0  0  0
  184.7640  178.1100  143.8240 C   0  0  0  0  0  3  0  0  0  0  0  0
  186.4830  176.5750  143.0660 C   0  0  0  0  0  3  0  0  0  0  0  0
  190.7220  171.4350  141.4750 C   0  0  0  0  0  0  0  0  0  0  0  0
  190.4390  170.0760  141.5280 O   0  0  0  0  0  1  0  0  0  0  0  0
  190.5930  173.6620  142.4420 C   0  0  0  0  0  0  0  0  0  0  0  0
  191.4270  171.9510  140.3850 C   0  0  0  0  0  3  0  0  0  0  0  0
  191.3120  174.1640  141.3490 C   0  0  0  0  0  3  0  0  0  0  0  0
  190.3100  172.2840  142.5100 C   0  0  0  0  0  0  0  0  0  0  0  0
  189.6380  171.7530  143.6070 O   0  0  0  0  0  1  0  0  0  0  0  0
  191.7290  173.3190  140.3180 C   0  0  0  0  0  0  0  0  0  0  0  0
  192.4110  173.2940  137.9410 C   0  0  0  0  0  1  0  0  0  0  0  0
  192.4380  173.8620  139.2430 O   0  0  0  0  0  0  0  0  0  0  0  0
  190.9600  176.8120  147.7890 O   0  0  0  0  0  0  0  0  0  0  0  0
  191.8520  177.2220  148.7570 N   0  0  0  0  0  2  0  0  0  0  0  0
  191.1920  178.2700  149.5130 C   0  0  0  0  0  2  0  0  0  0  0  0
  191.5680  178.1820  150.8530 O   0  0  0  0  0  1  0  0  0  0  0  0
  1  3  1  0  0  0  0
  1  4  1  0  0  0  0
  2  7  1  0  0  0  0
  3 16  1  0  0  0  0
  4 10  2  0  0  0  0
  6 18  1  0  0  0  0
  6 17  2  0  0  0  0
  7  4  1  0  0  0  0
  7  5  2  0  0  0  0
  8  9  1  0  0  0  0
  9 11  2  0  0  0  0
 10 12  1  0  0  0  0
 10 29  1  0  0  0  0
 11  5  1  0  0  0  0
 13 14  1  0  0  0  0
 13  2  2  0  0  0  0
 14  1  2  0  0  0  0
 15  2  1  0  0  0  0
 15  9  1  0  0  0  0
 16 12  2  0  0  0  0
 17  8  1  0  0  0  0
 18 15  2  0  0  0  0
 19 20  1  0  0  0  0
 19 24  1  0  0  0  0
 21 24  2  0  0  0  0
 21 14  1  0  0  0  0
 22 19  2  0  0  0  0
 23 21  1  0  0  0  0
 24 25  1  0  0  0  0
 26 22  1  0  0  0  0
 26 23  2  0  0  0  0
 27 28  1  0  0  0  0
 28 26  1  0  0  0  0
 29 30  1  0  0  0  0
 30 31  1  0  0  0  0
 31 32  1  0  0  0  0
M  END
>  <MODEL>
6

>  <REMARK>
 VINA RESULT:      -6.8      2.561      3.767
  Name = 
  5 active torsions:
  status: ('A' for Active; 'I' for Inactive)
    1  A    between atoms: C_13  and  N_18
    2  A    between atoms: C_14  and  O_29
    3  A    between atoms: O_15  and  C_26
    4  A    between atoms: C_16  and  C_27
    5  A    between atoms: N_18  and  O_29
                            x       y       z     vdW  Elec       q    Type
                         _______ _______ _______ _____ _____    ______ ____

>  <TORSDO>
F 5

$$$$
=
 OpenBabel11052419153D

 32 36  0  0  0  0  0  0  0  0999 V2000
  190.6670  174.4130  142.2730 C   0  0  0  0  0  0  0  0  0  0  0  0
  188.7040  175.6750  143.8660 C   0  0  0  0  0  0  0  0  0  0  0  0
  191.8150  173.9110  141.4240 C   0  0  0  0  0  2  0  0  0  0  0  0
  189.3980  174.7170  141.6920 C   0  0  0  0  0  0  0  0  0  0  0  0
  187.1450  175.7190  142.0120 C   0  0  0  0  0  3  0  0  0  0  0  0
  186.9650  177.2920  146.8000 C   0  0  0  0  0  3  0  0  0  0  0  0
  188.4150  175.3670  142.5080 C   0  0  0  0  0  0  0  0  0  0  0  0
  185.5180  177.2870  144.9270 O   0  0  0  0  0  0  0  0  0  0  0  0
  186.4810  176.6500  144.1320 C   0  0  0  0  0  0  0  0  0  0  0  0
  189.1660  174.3580  140.3930 C   0  0  0  0  0  0  0  0  0  0  0  0
  186.1920  176.3500  142.8060 C   0  0  0  0  0  3  0  0  0  0  0  0
  190.1750  173.6010  139.6230 C   0  0  0  0  0  3  0  0  0  0  0  0
  189.9490  175.3330  144.3960 C   0  0  0  0  0  3  0  0  0  0  0  0
  190.9220  174.7040  143.6290 C   0  0  0  0  0  0  0  0  0  0  0  0
  187.7370  176.3180  144.6760 C   0  0  0  0  0  0  0  0  0  0  0  0
  191.3870  173.3630  140.1040 C   0  0  0  0  0  3  0  0  0  0  0  0
  185.7810  177.6010  146.2670 C   0  0  0  0  0  3  0  0  0  0  0  0
  187.9800  176.6230  145.9640 C   0  0  0  0  0  3  0  0  0  0  0  0
  193.7540  172.8160  145.3140 C   0  0  0  0  0  0  0  0  0  0  0  0
  194.0720  171.5270  145.7240 O   0  0  0  0  0  1  0  0  0  0  0  0
  192.2140  174.3870  144.2780 C   0  0  0  0  0  0  0  0  0  0  0  0
  194.6680  173.8510  145.5220 C   0  0  0  0  0  3  0  0  0  0  0  0
  193.1350  175.4180  144.5050 C   0  0  0  0  0  3  0  0  0  0  0  0
  192.5230  173.0780  144.7000 C   0  0  0  0  0  0  0  0  0  0  0  0
  191.6060  172.0450  144.5270 O   0  0  0  0  0  1  0  0  0  0  0  0
  194.3610  175.1600  145.1220 C   0  0  0  0  0  0  0  0  0  0  0  0
  194.8380  177.4940  145.7850 C   0  0  0  0  0  1  0  0  0  0  0  0
  195.2530  176.2170  145.3240 O   0  0  0  0  0  0  0  0  0  0  0  0
  187.9570  174.6590  139.7560 O   0  0  0  0  0  0  0  0  0  0  0  0
  187.8560  174.7220  138.3830 N   0  0  0  0  0  2  0  0  0  0  0  0
  187.0210  175.8700  138.0800 C   0  0  0  0  0  2  0  0  0  0  0  0
  186.5170  175.7490  136.7860 O   0  0  0  0  0  1  0  0  0  0  0  0
  1 14  2  0  0  0  0
  2 13  2  0  0  0  0
  2 15  1  0  0  0  0
  3  1  1  0  0  0  0
  4  1  1  0  0  0  0
  4  7  1  0  0  0  0
  5  7  2  0  0  0  0
  5 11  1  0  0  0  0
  7  2  1  0  0  0  0
  8 17  1  0  0  0  0
  9 15  1  0  0  0  0
  9  8  1  0  0  0  0
 10  4  2  0  0  0  0
 11  9  2  0  0  0  0
 12 16  2  0  0  0  0
 12 10  1  0  0  0  0
 14 21  1  0  0  0  0
 14 13  1  0  0  0  0
 15 18  2  0  0  0  0
 16  3  1  0  0  0  0
 17  6  2  0  0  0  0
 18  6  1  0  0  0  0
 19 22  1  0  0  0  0
 19 20  1  0  0  0  0
 21 23  2  0  0  0  0
 21 24  1  0  0  0  0
 23 26  1  0  0  0  0
 24 19  2  0  0  0  0
 25 24  1  0  0  0  0
 26 28  1  0  0  0  0
 26 22  2  0  0  0  0
 28 27  1  0  0  0  0
 29 10  1  0  0  0  0
 30 29  1  0  0  0  0
 31 30  1  0  0  0  0
 32 31  1  0  0  0  0
M  END
>  <MODEL>
7

>  <REMARK>
 VINA RESULT:      -6.7      3.332      5.880
  Name = 
  5 active torsions:
  status: ('A' for Active; 'I' for Inactive)
    1  A    between atoms: C_13  and  N_18
    2  A    between atoms: C_14  and  O_29
    3  A    between atoms: O_15  and  C_26
    4  A    between atoms: C_16  and  C_27
    5  A    between atoms: N_18  and  O_29
                            x       y       z     vdW  Elec       q    Type
                         _______ _______ _______ _____ _____    ______ ____

>  <TORSDO>
F 5

$$$$
=
 OpenBabel11052419153D

 32 36  0  0  0  0  0  0  0  0999 V2000
  191.0140  174.7880  142.6230 C   0  0  0  0  0  0  0  0  0  0  0  0
  188.8490  175.9460  144.0200 C   0  0  0  0  0  0  0  0  0  0  0  0
  192.2430  174.3530  141.8540 C   0  0  0  0  0  2  0  0  0  0  0  0
  189.7250  174.7990  142.0090 C   0  0  0  0  0  0  0  0  0  0  0  0
  187.3380  175.4700  142.1860 C   0  0  0  0  0  3  0  0  0  0  0  0
  186.8220  177.6840  146.6890 C   0  0  0  0  0  3  0  0  0  0  0  0
  188.6370  175.4000  142.7240 C   0  0  0  0  0  0  0  0  0  0  0  0
  185.4300  177.1750  144.8430 O   0  0  0  0  0  0  0  0  0  0  0  0
  186.4960  176.5880  144.1470 C   0  0  0  0  0  0  0  0  0  0  0  0
  189.5770  174.2210  140.7790 C   0  0  0  0  0  0  0  0  0  0  0  0
  186.2830  176.0530  142.8820 C   0  0  0  0  0  3  0  0  0  0  0  0
  190.7070  173.5270  140.1260 C   0  0  0  0  0  3  0  0  0  0  0  0
  190.1210  175.8850  144.5890 C   0  0  0  0  0  3  0  0  0  0  0  0
  191.1950  175.3120  143.9200 C   0  0  0  0  0  0  0  0  0  0  0  0
  187.7770  176.5410  144.7290 C   0  0  0  0  0  0  0  0  0  0  0  0
  191.9310  173.5550  140.6320 C   0  0  0  0  0  3  0  0  0  0  0  0
  185.6150  177.7210  146.1210 C   0  0  0  0  0  3  0  0  0  0  0  0
  187.9450  177.0670  145.9570 C   0  0  0  0  0  3  0  0  0  0  0  0
  194.4270  176.4470  145.5600 C   0  0  0  0  0  0  0  0  0  0  0  0
  195.0980  177.6210  145.8810 O   0  0  0  0  0  1  0  0  0  0  0  0
  192.5080  175.3010  144.6040 C   0  0  0  0  0  0  0  0  0  0  0  0
  195.0020  175.2140  145.8790 C   0  0  0  0  0  3  0  0  0  0  0  0
  193.1030  174.0710  144.9180 C   0  0  0  0  0  3  0  0  0  0  0  0
  193.1850  176.4960  144.9150 C   0  0  0  0  0  0  0  0  0  0  0  0
  192.6370  177.7290  144.5720 O   0  0  0  0  0  1  0  0  0  0  0  0
  194.3440  174.0190  145.5560 C   0  0  0  0  0  0  0  0  0  0  0  0
  194.2710  171.5470  145.5050 C   0  0  0  0  0  1  0  0  0  0  0  0
  194.8990  172.7720  145.8580 O   0  0  0  0  0  0  0  0  0  0  0  0
  188.3480  174.2300  140.1090 O   0  0  0  0  0  0  0  0  0  0  0  0
  188.1330  173.4770  138.9750 N   0  0  0  0  0  2  0  0  0  0  0  0
  187.9800  174.4140  137.8770 C   0  0  0  0  0  2  0  0  0  0  0  0
  189.0940  174.3380  137.0430 O   0  0  0  0  0  1  0  0  0  0  0  0
  1 14  2  0  0  0  0
  2 13  2  0  0  0  0
  2 15  1  0  0  0  0
  3  1  1  0  0  0  0
  4  1  1  0  0  0  0
  4  7  1  0  0  0  0
  5  7  2  0  0  0  0
  5 11  1  0  0  0  0
  7  2  1  0  0  0  0
  8 17  1  0  0  0  0
  9 15  1  0  0  0  0
  9  8  1  0  0  0  0
 10  4  2  0  0  0  0
 11  9  2  0  0  0  0
 12 16  2  0  0  0  0
 12 10  1  0  0  0  0
 14 13  1  0  0  0  0
 14 21  1  0  0  0  0
 15 18  2  0  0  0  0
 16  3  1  0  0  0  0
 17  6  2  0  0  0  0
 18  6  1  0  0  0  0
 19 22  1  0  0  0  0
 19 20  1  0  0  0  0
 21 24  1  0  0  0  0
 21 23  2  0  0  0  0
 23 26  1  0  0  0  0
 24 19  2  0  0  0  0
 25 24  1  0  0  0  0
 26 28  1  0  0  0  0
 26 22  2  0  0  0  0
 27 28  1  0  0  0  0
 29 10  1  0  0  0  0
 30 29  1  0  0  0  0
 31 30  1  0  0  0  0
 32 31  1  0  0  0  0
M  END
>  <MODEL>
8

>  <REMARK>
 VINA RESULT:      -6.7      3.328      5.619
  Name = 
  5 active torsions:
  status: ('A' for Active; 'I' for Inactive)
    1  A    between atoms: C_13  and  N_18
    2  A    between atoms: C_14  and  O_29
    3  A    between atoms: O_15  and  C_26
    4  A    between atoms: C_16  and  C_27
    5  A    between atoms: N_18  and  O_29
                            x       y       z     vdW  Elec       q    Type
                         _______ _______ _______ _____ _____    ______ ____

>  <TORSDO>
F 5

$$$$
=
 OpenBabel11052419153D

 32 36  0  0  1  0  0  0  0  0999 V2000
  191.8840  175.0710  145.2400 C   0  0  0  0  0  0  0  0  0  0  0  0
  190.7210  174.5450  142.7200 C   0  0  0  0  0  0  0  0  0  0  0  0
  192.5010  175.1560  146.6200 C   0  0  0  0  0  3  0  0  0  0  0  0
  190.5270  175.4540  145.0140 C   0  0  2  0  0  3  0  0  0  0  0  0
  188.6100  175.4980  143.4320 C   0  0  0  0  0  3  0  0  0  0  0  0
  190.2550  173.3840  139.1580 C   0  0  0  0  0  3  0  0  0  0  0  0
  189.9450  175.1720  143.7340 C   0  0  0  0  0  0  0  0  0  0  0  0
  188.2370  174.3340  139.9510 O   0  0  0  0  0  0  0  0  0  0  0  0
  188.8090  174.6100  141.2020 C   0  0  0  0  0  0  0  0  0  0  0  0
  189.8470  176.0900  146.0150 C   0  0  0  0  0  0  0  0  0  0  0  0
  188.0470  175.2240  142.1890 C   0  0  0  0  0  3  0  0  0  0  0  0
  190.5200  176.4470  147.2820 C   0  0  0  0  0  3  0  0  0  0  0  0
  192.0520  174.2160  142.9800 C   0  0  0  0  0  3  0  0  0  0  0  0
  192.6420  174.4750  144.2110 C   0  0  0  0  0  0  0  0  0  0  0  0
  190.1510  174.2640  141.4550 C   0  0  0  0  0  0  0  0  0  0  0  0
  191.7550  176.0490  147.5540 C   0  0  0  0  0  3  0  0  0  0  0  0
  188.9820  173.7170  138.9370 C   0  0  0  0  0  3  0  0  0  0  0  0
  190.8580  173.6720  140.4740 C   0  0  0  0  0  3  0  0  0  0  0  0
  195.7590  172.4970  145.0990 C   0  0  0  0  0  0  0  0  0  0  0  0
  196.1170  171.2610  145.6250 O   0  0  0  0  0  1  0  0  0  0  0  0
  194.0570  174.0830  144.3940 C   0  0  0  0  0  0  0  0  0  0  0  0
  196.7560  173.4060  144.7370 C   0  0  0  0  0  3  0  0  0  0  0  0
  195.0670  174.9910  144.0470 C   0  0  0  0  0  3  0  0  0  0  0  0
  194.4090  172.8320  144.9380 C   0  0  0  0  0  0  0  0  0  0  0  0
  193.4250  171.9310  145.3340 O   0  0  0  0  0  1  0  0  0  0  0  0
  196.4140  174.6610  144.2120 C   0  0  0  0  0  0  0  0  0  0  0  0
  197.1030  176.7290  143.0430 C   0  0  0  0  0  1  0  0  0  0  0  0
  197.3890  175.5930  143.8470 O   0  0  0  0  0  0  0  0  0  0  0  0
  188.5050  176.4590  145.8690 O   0  0  0  0  0  0  0  0  0  0  0  0
  187.5610  176.1590  146.8270 N   0  0  0  0  0  2  0  0  0  0  0  0
  186.3530  176.8760  146.4580 C   0  0  0  0  0  2  0  0  0  0  0  0
  186.6590  177.8340  145.4940 O   0  0  0  0  0  1  0  0  0  0  0  0
  1  3  1  0  0  0  0
  2 13  2  0  0  0  0
  2  7  1  0  0  0  0
  3 16  2  0  0  0  0
  4  7  1  6  0  0  0
  4  1  1  0  0  0  0
  4 10  1  0  0  0  0
  5  7  2  0  0  0  0
  6 18  1  0  0  0  0
  8  9  1  0  0  0  0
  9 15  1  0  0  0  0
  9 11  2  0  0  0  0
 10 12  2  0  0  0  0
 11  5  1  0  0  0  0
 12 16  1  0  0  0  0
 13 14  1  0  0  0  0
 14 21  1  0  0  0  0
 14  1  2  0  0  0  0
 15  2  1  0  0  0  0
 17  6  2  0  0  0  0
 17  8  1  0  0  0  0
 18 15  2  0  0  0  0
 19 20  1  0  0  0  0
 21 24  2  0  0  0  0
 22 19  2  0  0  0  0
 23 26  2  0  0  0  0
 23 21  1  0  0  0  0
 24 19  1  0  0  0  0
 24 25  1  0  0  0  0
 26 22  1  0  0  0  0
 27 28  1  0  0  0  0
 28 26  1  0  0  0  0
 29 10  1  0  0  0  0
 29 30  1  0  0  0  0
 31 30  1  0  0  0  0
 32 31  1  0  0  0  0
M  END
>  <MODEL>
9

>  <REMARK>
 VINA RESULT:      -6.7      3.067      4.829
  Name = 
  5 active torsions:
  status: ('A' for Active; 'I' for Inactive)
    1  A    between atoms: C_13  and  N_18
    2  A    between atoms: C_14  and  O_29
    3  A    between atoms: O_15  and  C_26
    4  A    between atoms: C_16  and  C_27
    5  A    between atoms: N_18  and  O_29
                            x       y       z     vdW  Elec       q    Type
                         _______ _______ _______ _____ _____    ______ ____

>  <TORSDO>
F 5

$$$$
