=
 OpenBabel11052418523D

 34 37  0  0  1  0  0  0  0  0999 V2000
  194.9900  175.3490  143.3360 C   0  0  1  0  0  3  0  0  0  0  0  0
  192.9970  175.0220  144.9820 C   0  0  2  0  0  3  0  0  0  0  0  0
  191.0310  176.4080  145.8710 N   0  0  0  0  0  0  0  0  0  0  0  0
  192.7980  175.7520  147.2580 O   0  0  0  0  0  0  0  0  0  0  0  0
  194.4070  175.6060  144.7440 C   0  0  1  0  0  3  0  0  0  0  0  0
  192.1430  174.9060  143.6910 C   0  0  1  0  0  3  0  0  0  0  0  0
  193.9320  175.2150  142.2340 C   0  0  0  0  0  2  0  0  0  0  0  0
  190.4900  176.4800  144.5730 N   0  0  0  0  0  2  0  0  0  0  0  0
  190.6530  175.1710  143.9510 C   0  0  1  0  0  3  0  0  0  0  0  0
  192.2970  175.7610  146.1010 C   0  0  0  0  0  0  0  0  0  0  0  0
  192.6610  175.7850  142.6500 N   0  0  0  0  0  2  0  0  0  0  0  0
  188.1640  175.9020  141.1600 C   0  0  0  0  0  0  0  0  0  0  0  0
  188.2950  174.7500  140.3800 C   0  0  0  0  0  3  0  0  0  0  0  0
  189.8100  175.0330  142.7190 C   0  0  0  0  0  0  0  0  0  0  0  0
  189.1840  173.7420  140.7640 C   0  0  0  0  0  3  0  0  0  0  0  0
  188.9220  176.0450  142.3260 C   0  0  0  0  0  3  0  0  0  0  0  0
  189.9410  173.8850  141.9300 C   0  0  0  0  0  3  0  0  0  0  0  0
  187.0560  177.1650  140.6770 Cl  0  0  0  0  0  0  0  0  0  0  0  0
  197.2700  175.9930  143.0220 O   0  0  0  0  0  1  0  0  0  0  0  0
  195.9560  176.4640  142.9700 C   0  0  0  0  0  2  0  0  0  0  0  0
  195.3610  175.0670  145.8090 C   0  0  0  0  0  2  0  0  0  0  0  0
  197.0050  173.1910  145.7330 C   0  0  0  0  0  1  0  0  0  0  0  0
  195.5340  173.5600  145.7070 C   0  0  0  0  0  2  0  0  0  0  0  0
  190.2410  176.8970  146.9930 C   0  0  0  0  0  2  0  0  0  0  0  0
  188.8980  177.4280  146.5130 C   0  0  0  0  0  2  0  0  0  0  0  0
  187.8410  176.3310  146.4870 C   0  0  0  0  0  2  0  0  0  0  0  0
  186.7270  176.6740  145.5090 C   0  0  0  0  0  2  0  0  0  0  0  0
  185.2750  178.5470  146.1260 N   0  0  0  0  0  0  0  0  0  0  0  0
  186.5100  178.1790  145.4220 C   0  0  2  0  0  3  0  0  0  0  0  0
  185.2460  178.5110  147.5780 C   0  0  0  0  0  1  0  0  0  0  0  0
  184.0790  179.0310  144.1050 C   0  0  0  0  0  3  0  0  0  0  0  0
  185.3480  178.9670  143.3660 C   0  0  0  0  0  3  0  0  0  0  0  0
  186.4800  178.6040  143.9740 C   0  0  0  0  0  3  0  0  0  0  0  0
  184.0600  178.8360  145.4220 C   0  0  0  0  0  3  0  0  0  0  0  0
  1 20  1  6  0  0  0
  1  5  1  0  0  0  0
  2 10  1  1  0  0  0
  3 10  1  0  0  0  0
  3 24  1  0  0  0  0
  5  2  1  0  0  0  0
  5 21  1  1  0  0  0
  6 11  1  6  0  0  0
  6  9  1  0  0  0  0
  6  2  1  0  0  0  0
  7 11  1  0  0  0  0
  7  1  1  0  0  0  0
  8  3  1  0  0  0  0
  9 14  1  6  0  0  0
  9  8  1  0  0  0  0
 10  4  2  0  0  0  0
 12 16  1  0  0  0  0
 13 15  1  0  0  0  0
 13 12  2  0  0  0  0
 15 17  2  0  0  0  0
 16 14  2  0  0  0  0
 17 14  1  0  0  0  0
 18 12  1  0  0  0  0
 20 19  1  0  0  0  0
 23 22  1  0  0  0  0
 23 21  1  0  0  0  0
 25 24  1  0  0  0  0
 26 25  1  0  0  0  0
 27 26  1  0  0  0  0
 28 30  1  0  0  0  0
 29 27  1  6  0  0  0
 29 28  1  0  0  0  0
 31 34  2  0  0  0  0
 32 33  2  0  0  0  0
 32 31  1  0  0  0  0
 33 29  1  0  0  0  0
 34 28  1  0  0  0  0
M  END
>  <MODEL>
1

>  <REMARK>
 VINA RESULT:      -7.3      0.000      0.000
  Name = 
  9 active torsions:
  status: ('A' for Active; 'I' for Inactive)
    1  A    between atoms: C_1  and  C_19
    2  A    between atoms: C_2  and  C_15
    3  A    between atoms: C_2  and  C_25
    4  A    between atoms: C_3  and  C_13
    5  A    between atoms: C_3  and  C_17
    6  A    between atoms: N_5  and  C_18
    7  A    between atoms: C_12  and  C_28
    8  A    between atoms: C_17  and  C_29
    9  A    between atoms: C_18  and  C_29
                            x       y       z     vdW  Elec       q    Type
                         _______ _______ _______ _____ _____    ______ ____

>  <TORSDO>
F 9

$$$$
=
 OpenBabel11052418523D

 34 37  0  0  1  0  0  0  0  0999 V2000
  195.1810  175.3390  142.9290 C   0  0  1  0  0  3  0  0  0  0  0  0
  193.1860  174.9880  144.5670 C   0  0  2  0  0  3  0  0  0  0  0  0
  191.1120  176.2890  145.3260 N   0  0  0  0  0  0  0  0  0  0  0  0
  192.8940  175.8600  146.7810 O   0  0  0  0  0  0  0  0  0  0  0  0
  194.5550  175.6520  144.3060 C   0  0  1  0  0  3  0  0  0  0  0  0
  192.3660  174.7200  143.2760 C   0  0  1  0  0  3  0  0  0  0  0  0
  194.1560  175.0520  141.8250 C   0  0  0  0  0  2  0  0  0  0  0  0
  190.5910  176.2310  144.0200 N   0  0  0  0  0  2  0  0  0  0  0  0
  190.8570  174.8960  143.4960 C   0  0  1  0  0  3  0  0  0  0  0  0
  192.4150  175.7520  145.6200 C   0  0  0  0  0  0  0  0  0  0  0  0
  192.8400  175.5590  142.1820 N   0  0  0  0  0  2  0  0  0  0  0  0
  189.5240  173.2350  140.3360 C   0  0  0  0  0  0  0  0  0  0  0  0
  188.4750  174.0980  140.0050 C   0  0  0  0  0  3  0  0  0  0  0  0
  190.0490  174.6120  142.2660 C   0  0  0  0  0  0  0  0  0  0  0  0
  188.2090  175.2140  140.8030 C   0  0  0  0  0  3  0  0  0  0  0  0
  190.3080  173.4890  141.4650 C   0  0  0  0  0  3  0  0  0  0  0  0
  188.9930  175.4680  141.9320 C   0  0  0  0  0  3  0  0  0  0  0  0
  189.8540  171.8350  139.3410 Cl  0  0  0  0  0  0  0  0  0  0  0  0
  196.3390  176.4030  141.1290 O   0  0  0  0  0  1  0  0  0  0  0  0
  196.0740  176.4910  142.4970 C   0  0  0  0  0  2  0  0  0  0  0  0
  195.5250  175.2590  145.4200 C   0  0  0  0  0  2  0  0  0  0  0  0
  197.0270  173.4260  146.2010 C   0  0  0  0  0  1  0  0  0  0  0  0
  195.7260  173.7540  145.4940 C   0  0  0  0  0  2  0  0  0  0  0  0
  190.2690  176.7990  146.4000 C   0  0  0  0  0  2  0  0  0  0  0  0
  189.1000  175.8590  146.6580 C   0  0  0  0  0  2  0  0  0  0  0  0
  187.7760  176.6110  146.6930 C   0  0  0  0  0  2  0  0  0  0  0  0
  187.3070  176.9510  145.2860 C   0  0  0  0  0  2  0  0  0  0  0  0
  185.2740  177.5500  144.0600 N   0  0  0  0  0  0  0  0  0  0  0  0
  185.8160  176.6920  145.1210 C   0  0  2  0  0  3  0  0  0  0  0  0
  185.5940  177.2580  142.6740 C   0  0  0  0  0  1  0  0  0  0  0  0
  184.0780  178.9570  145.5910 C   0  0  0  0  0  3  0  0  0  0  0  0
  184.3370  177.9770  146.6560 C   0  0  0  0  0  3  0  0  0  0  0  0
  185.1140  176.9130  146.4380 C   0  0  0  0  0  3  0  0  0  0  0  0
  184.5240  178.7360  144.3560 C   0  0  0  0  0  3  0  0  0  0  0  0
  1 20  1  6  0  0  0
  1  5  1  0  0  0  0
  2 10  1  1  0  0  0
  3 10  1  0  0  0  0
  3 24  1  0  0  0  0
  5  2  1  0  0  0  0
  5 21  1  1  0  0  0
  6 11  1  6  0  0  0
  6  9  1  0  0  0  0
  6  2  1  0  0  0  0
  7 11  1  0  0  0  0
  7  1  1  0  0  0  0
  8  3  1  0  0  0  0
  9 14  1  6  0  0  0
  9  8  1  0  0  0  0
 10  4  2  0  0  0  0
 12 16  1  0  0  0  0
 13 12  2  0  0  0  0
 13 15  1  0  0  0  0
 15 17  2  0  0  0  0
 16 14  2  0  0  0  0
 17 14  1  0  0  0  0
 18 12  1  0  0  0  0
 19 20  1  0  0  0  0
 21 23  1  0  0  0  0
 23 22  1  0  0  0  0
 24 25  1  0  0  0  0
 25 26  1  0  0  0  0
 27 26  1  0  0  0  0
 28 34  1  0  0  0  0
 28 29  1  0  0  0  0
 29 27  1  1  0  0  0
 29 33  1  0  0  0  0
 30 28  1  0  0  0  0
 31 32  1  0  0  0  0
 33 32  2  0  0  0  0
 34 31  2  0  0  0  0
M  END
>  <MODEL>
2

>  <REMARK>
 VINA RESULT:      -7.2      1.412      2.009
  Name = 
  9 active torsions:
  status: ('A' for Active; 'I' for Inactive)
    1  A    between atoms: C_1  and  C_19
    2  A    between atoms: C_2  and  C_15
    3  A    between atoms: C_2  and  C_25
    4  A    between atoms: C_3  and  C_13
    5  A    between atoms: C_3  and  C_17
    6  A    between atoms: N_5  and  C_18
    7  A    between atoms: C_12  and  C_28
    8  A    between atoms: C_17  and  C_29
    9  A    between atoms: C_18  and  C_29
                            x       y       z     vdW  Elec       q    Type
                         _______ _______ _______ _____ _____    ______ ____

>  <TORSDO>
F 9

$$$$
=
 OpenBabel11052418523D

 34 37  0  0  1  0  0  0  0  0999 V2000
  195.2060  175.2880  142.9290 C   0  0  1  0  0  3  0  0  0  0  0  0
  193.3330  174.8900  144.6950 C   0  0  2  0  0  3  0  0  0  0  0  0
  191.2470  176.1120  145.5470 N   0  0  0  0  0  0  0  0  0  0  0  0
  193.1320  175.8110  146.9000 O   0  0  0  0  0  0  0  0  0  0  0  0
  194.6500  175.6110  144.3340 C   0  0  1  0  0  3  0  0  0  0  0  0
  192.4510  174.5460  143.4650 C   0  0  1  0  0  3  0  0  0  0  0  0
  194.1330  174.9210  141.8980 C   0  0  0  0  0  2  0  0  0  0  0  0
  190.6520  175.9910  144.2770 N   0  0  0  0  0  2  0  0  0  0  0  0
  190.9510  174.6560  143.7730 C   0  0  1  0  0  3  0  0  0  0  0  0
  192.5900  175.6470  145.7730 C   0  0  0  0  0  0  0  0  0  0  0  0
  192.8170  175.3740  142.3220 N   0  0  0  0  0  2  0  0  0  0  0  0
  188.4890  174.9000  140.8740 C   0  0  0  0  0  0  0  0  0  0  0  0
  188.5260  173.5920  140.3840 C   0  0  0  0  0  3  0  0  0  0  0  0
  190.0860  174.2990  142.6020 C   0  0  0  0  0  0  0  0  0  0  0  0
  189.3430  172.6380  140.9970 C   0  0  0  0  0  3  0  0  0  0  0  0
  189.2690  175.2540  141.9790 C   0  0  0  0  0  3  0  0  0  0  0  0
  190.1230  172.9920  142.1020 C   0  0  0  0  0  3  0  0  0  0  0  0
  187.4700  176.0950  140.1050 Cl  0  0  0  0  0  0  0  0  0  0  0  0
  195.8670  176.5800  141.0300 O   0  0  0  0  0  1  0  0  0  0  0  0
  196.0140  176.4680  142.4130 C   0  0  0  0  0  2  0  0  0  0  0  0
  195.7030  175.2970  145.3960 C   0  0  0  0  0  2  0  0  0  0  0  0
  197.3570  173.4300  145.4680 C   0  0  0  0  0  1  0  0  0  0  0  0
  195.8910  173.8010  145.5850 C   0  0  0  0  0  2  0  0  0  0  0  0
  190.4450  176.6130  146.6560 C   0  0  0  0  0  2  0  0  0  0  0  0
  189.0330  176.0470  146.5970 C   0  0  0  0  0  2  0  0  0  0  0  0
  187.9880  177.1540  146.6080 C   0  0  0  0  0  2  0  0  0  0  0  0
  187.3940  177.3540  145.2220 C   0  0  0  0  0  2  0  0  0  0  0  0
  185.2220  177.6090  144.1210 N   0  0  0  0  0  0  0  0  0  0  0  0
  185.9500  176.8740  145.1620 C   0  0  2  0  0  3  0  0  0  0  0  0
  185.4950  177.3220  142.7240 C   0  0  0  0  0  1  0  0  0  0  0  0
  183.9290  178.8740  145.6950 C   0  0  0  0  0  3  0  0  0  0  0  0
  184.3960  177.9780  146.7630 C   0  0  0  0  0  3  0  0  0  0  0  0
  185.3070  177.0330  146.5180 C   0  0  0  0  0  3  0  0  0  0  0  0
  184.3250  178.6810  144.4390 C   0  0  0  0  0  3  0  0  0  0  0  0
  1 20  1  6  0  0  0
  1  5  1  0  0  0  0
  2 10  1  1  0  0  0
  3 10  1  0  0  0  0
  3 24  1  0  0  0  0
  5  2  1  0  0  0  0
  5 21  1  1  0  0  0
  6 11  1  6  0  0  0
  6  9  1  0  0  0  0
  6  2  1  0  0  0  0
  7 11  1  0  0  0  0
  7  1  1  0  0  0  0
  8  3  1  0  0  0  0
  9 14  1  6  0  0  0
  9  8  1  0  0  0  0
 10  4  2  0  0  0  0
 12 16  1  0  0  0  0
 13 12  2  0  0  0  0
 13 15  1  0  0  0  0
 15 17  2  0  0  0  0
 16 14  2  0  0  0  0
 17 14  1  0  0  0  0
 18 12  1  0  0  0  0
 19 20  1  0  0  0  0
 21 23  1  0  0  0  0
 22 23  1  0  0  0  0
 25 26  1  0  0  0  0
 25 24  1  0  0  0  0
 27 26  1  0  0  0  0
 28 34  1  0  0  0  0
 28 29  1  0  0  0  0
 29 27  1  1  0  0  0
 29 33  1  0  0  0  0
 30 28  1  0  0  0  0
 31 32  1  0  0  0  0
 33 32  2  0  0  0  0
 34 31  2  0  0  0  0
M  END
>  <MODEL>
3

>  <REMARK>
 VINA RESULT:      -7.1      1.000      1.548
  Name = 
  9 active torsions:
  status: ('A' for Active; 'I' for Inactive)
    1  A    between atoms: C_1  and  C_19
    2  A    between atoms: C_2  and  C_15
    3  A    between atoms: C_2  and  C_25
    4  A    between atoms: C_3  and  C_13
    5  A    between atoms: C_3  and  C_17
    6  A    between atoms: N_5  and  C_18
    7  A    between atoms: C_12  and  C_28
    8  A    between atoms: C_17  and  C_29
    9  A    between atoms: C_18  and  C_29
                            x       y       z     vdW  Elec       q    Type
                         _______ _______ _______ _____ _____    ______ ____

>  <TORSDO>
F 9

$$$$
=
 OpenBabel11052418523D

 34 37  0  0  1  0  0  0  0  0999 V2000
  191.3540  171.3730  141.5280 C   0  0  1  0  0  3  0  0  0  0  0  0
  190.3720  173.7780  141.3340 C   0  0  2  0  0  3  0  0  0  0  0  0
  188.3130  175.0520  142.1760 N   0  0  0  0  0  0  0  0  0  0  0  0
  188.6140  174.5680  139.9060 O   0  0  0  0  0  0  0  0  0  0  0  0
  190.3240  172.3090  140.8580 C   0  0  1  0  0  3  0  0  0  0  0  0
  190.8900  173.9460  142.7880 C   0  0  1  0  0  3  0  0  0  0  0  0
  191.7490  171.7880  142.9500 C   0  0  0  0  0  2  0  0  0  0  0  0
  188.7480  174.8870  143.5050 N   0  0  0  0  0  2  0  0  0  0  0  0
  190.1910  175.0960  143.5270 C   0  0  1  0  0  3  0  0  0  0  0  0
  189.0450  174.4610  141.0870 C   0  0  0  0  0  0  0  0  0  0  0  0
  190.7680  172.6950  143.5260 N   0  0  0  0  0  2  0  0  0  0  0  0
  192.4080  176.0420  146.4790 C   0  0  0  0  0  0  0  0  0  0  0  0
  191.5880  175.6820  147.5520 C   0  0  0  0  0  3  0  0  0  0  0  0
  190.7020  175.2910  144.9230 C   0  0  0  0  0  0  0  0  0  0  0  0
  190.3260  175.1310  147.3140 C   0  0  0  0  0  3  0  0  0  0  0  0
  191.9650  175.8500  145.1670 C   0  0  0  0  0  3  0  0  0  0  0  0
  189.8830  174.9380  146.0020 C   0  0  0  0  0  3  0  0  0  0  0  0
  193.9850  176.7360  146.7760 Cl  0  0  0  0  0  0  0  0  0  0  0  0
  191.6300  169.1450  142.3500 O   0  0  0  0  0  1  0  0  0  0  0  0
  190.8150  169.9510  141.5520 C   0  0  0  0  0  2  0  0  0  0  0  0
  190.4920  172.2670  139.3400 C   0  0  0  0  0  2  0  0  0  0  0  0
  189.9410  170.3730  137.8110 C   0  0  0  0  0  1  0  0  0  0  0  0
  189.3730  171.4890  138.6670 C   0  0  0  0  0  2  0  0  0  0  0  0
  187.1740  175.9210  141.9100 C   0  0  0  0  0  2  0  0  0  0  0  0
  187.5950  177.3840  141.9410 C   0  0  0  0  0  2  0  0  0  0  0  0
  186.5800  178.2420  142.6840 C   0  0  0  0  0  2  0  0  0  0  0  0
  186.9070  178.3080  144.1680 C   0  0  0  0  0  2  0  0  0  0  0  0
  185.0150  178.3970  145.7190 N   0  0  0  0  0  0  0  0  0  0  0  0
  185.9160  177.4960  144.9910 C   0  0  2  0  0  3  0  0  0  0  0  0
  183.9900  179.1220  144.9890 C   0  0  0  0  0  1  0  0  0  0  0  0
  186.0010  177.9180  147.8520 C   0  0  0  0  0  3  0  0  0  0  0  0
  186.7240  176.7940  147.2390 C   0  0  0  0  0  3  0  0  0  0  0  0
  186.6660  176.5750  145.9230 C   0  0  0  0  0  3  0  0  0  0  0  0
  185.1840  178.6690  147.1170 C   0  0  0  0  0  3  0  0  0  0  0  0
  1 20  1  1  0  0  0
  1  7  1  0  0  0  0
  2 10  1  1  0  0  0
  2  6  1  0  0  0  0
  3  8  1  0  0  0  0
  4 10  2  0  0  0  0
  5 21  1  6  0  0  0
  5  2  1  0  0  0  0
  5  1  1  0  0  0  0
  6 11  1  1  0  0  0
  6  9  1  0  0  0  0
  7 11  1  0  0  0  0
  8  9  1  0  0  0  0
  9 14  1  1  0  0  0
 10  3  1  0  0  0  0
 12 18  1  0  0  0  0
 12 13  1  0  0  0  0
 14 16  1  0  0  0  0
 14 17  2  0  0  0  0
 15 13  2  0  0  0  0
 16 12  2  0  0  0  0
 17 15  1  0  0  0  0
 20 19  1  0  0  0  0
 22 23  1  0  0  0  0
 23 21  1  0  0  0  0
 24 25  1  0  0  0  0
 24  3  1  0  0  0  0
 25 26  1  0  0  0  0
 26 27  1  0  0  0  0
 28 34  1  0  0  0  0
 29 27  1  1  0  0  0
 29 28  1  0  0  0  0
 29 33  1  0  0  0  0
 30 28  1  0  0  0  0
 32 31  1  0  0  0  0
 33 32  2  0  0  0  0
 34 31  2  0  0  0  0
M  END
>  <MODEL>
4

>  <REMARK>
 VINA RESULT:      -6.9      3.450      5.776
  Name = 
  9 active torsions:
  status: ('A' for Active; 'I' for Inactive)
    1  A    between atoms: C_1  and  C_19
    2  A    between atoms: C_2  and  C_15
    3  A    between atoms: C_2  and  C_25
    4  A    between atoms: C_3  and  C_13
    5  A    between atoms: C_3  and  C_17
    6  A    between atoms: N_5  and  C_18
    7  A    between atoms: C_12  and  C_28
    8  A    between atoms: C_17  and  C_29
    9  A    between atoms: C_18  and  C_29
                            x       y       z     vdW  Elec       q    Type
                         _______ _______ _______ _____ _____    ______ ____

>  <TORSDO>
F 9

$$$$
=
 OpenBabel11052418523D

 34 37  0  0  1  0  0  0  0  0999 V2000
  186.3550  177.8900  142.8220 C   0  0  1  0  0  3  0  0  0  0  0  0
  188.3010  177.5730  144.5250 C   0  0  2  0  0  3  0  0  0  0  0  0
  189.2490  175.6900  145.9830 N   0  0  0  0  0  0  0  0  0  0  0  0
  188.2080  177.5640  146.9210 O   0  0  0  0  0  0  0  0  0  0  0  0
  186.7890  177.7930  144.3020 C   0  0  1  0  0  3  0  0  0  0  0  0
  189.0020  176.8260  143.3590 C   0  0  1  0  0  3  0  0  0  0  0  0
  187.2470  177.1050  141.8540 C   0  0  0  0  0  2  0  0  0  0  0  0
  189.5850  174.9590  144.8280 N   0  0  0  0  0  2  0  0  0  0  0  0
  190.1210  175.8970  143.8500 C   0  0  1  0  0  3  0  0  0  0  0  0
  188.5530  176.9460  145.8780 C   0  0  0  0  0  0  0  0  0  0  0  0
  188.0280  176.0970  142.5550 N   0  0  0  0  0  2  0  0  0  0  0  0
  190.8860  173.5200  140.9720 C   0  0  0  0  0  0  0  0  0  0  0  0
  192.1720  173.9370  140.6180 C   0  0  0  0  0  3  0  0  0  0  0  0
  190.8280  175.1910  142.7330 C   0  0  0  0  0  0  0  0  0  0  0  0
  192.7860  174.9810  141.3160 C   0  0  0  0  0  3  0  0  0  0  0  0
  190.2140  174.1470  142.0250 C   0  0  0  0  0  3  0  0  0  0  0  0
  192.1130  175.6080  142.3690 C   0  0  0  0  0  3  0  0  0  0  0  0
  190.1160  172.2170  140.0960 Cl  0  0  0  0  0  0  0  0  0  0  0  0
  184.1040  178.4730  142.2670 O   0  0  0  0  0  1  0  0  0  0  0  0
  184.9180  177.4150  142.6770 C   0  0  0  0  0  2  0  0  0  0  0  0
  186.3450  179.0450  145.0570 C   0  0  0  0  0  2  0  0  0  0  0  0
  184.9320  177.3660  146.2440 C   0  0  0  0  0  1  0  0  0  0  0  0
  185.0520  178.8180  145.8240 C   0  0  0  0  0  2  0  0  0  0  0  0
  189.7120  175.2130  147.2800 C   0  0  0  0  0  2  0  0  0  0  0  0
  190.8790  176.0550  147.7760 C   0  0  0  0  0  2  0  0  0  0  0  0
  192.0380  176.0420  146.7880 C   0  0  0  0  0  2  0  0  0  0  0  0
  192.6700  174.6600  146.7110 C   0  0  0  0  0  2  0  0  0  0  0  0
  193.6000  173.0840  145.0840 N   0  0  0  0  0  0  0  0  0  0  0  0
  193.5080  174.5030  145.4500 C   0  0  2  0  0  3  0  0  0  0  0  0
  192.4360  172.4150  144.5300 C   0  0  0  0  0  1  0  0  0  0  0  0
  195.9070  172.9080  145.7150 C   0  0  0  0  0  3  0  0  0  0  0  0
  195.9670  174.3730  145.8170 C   0  0  0  0  0  3  0  0  0  0  0  0
  194.8690  175.1180  145.6660 C   0  0  0  0  0  3  0  0  0  0  0  0
  194.7740  172.3080  145.3560 C   0  0  0  0  0  3  0  0  0  0  0  0
  1 20  1  1  0  0  0
  1  5  1  0  0  0  0
  2 10  1  1  0  0  0
  3 24  1  0  0  0  0
  5  2  1  0  0  0  0
  5 21  1  1  0  0  0
  6 11  1  1  0  0  0
  6  9  1  0  0  0  0
  6  2  1  0  0  0  0
  7 11  1  0  0  0  0
  7  1  1  0  0  0  0
  8  3  1  0  0  0  0
  9 14  1  6  0  0  0
  9  8  1  0  0  0  0
 10  3  1  0  0  0  0
 10  4  2  0  0  0  0
 12 16  1  0  0  0  0
 13 12  2  0  0  0  0
 13 15  1  0  0  0  0
 15 17  2  0  0  0  0
 16 14  2  0  0  0  0
 17 14  1  0  0  0  0
 18 12  1  0  0  0  0
 19 20  1  0  0  0  0
 21 23  1  0  0  0  0
 23 22  1  0  0  0  0
 24 25  1  0  0  0  0
 26 25  1  0  0  0  0
 27 26  1  0  0  0  0
 28 34  1  0  0  0  0
 28 29  1  0  0  0  0
 29 33  1  0  0  0  0
 29 27  1  1  0  0  0
 30 28  1  0  0  0  0
 31 32  1  0  0  0  0
 33 32  2  0  0  0  0
 34 31  2  0  0  0  0
M  END
>  <MODEL>
5

>  <REMARK>
 VINA RESULT:      -6.7      2.784      7.652
  Name = 
  9 active torsions:
  status: ('A' for Active; 'I' for Inactive)
    1  A    between atoms: C_1  and  C_19
    2  A    between atoms: C_2  and  C_15
    3  A    between atoms: C_2  and  C_25
    4  A    between atoms: C_3  and  C_13
    5  A    between atoms: C_3  and  C_17
    6  A    between atoms: N_5  and  C_18
    7  A    between atoms: C_12  and  C_28
    8  A    between atoms: C_17  and  C_29
    9  A    between atoms: C_18  and  C_29
                            x       y       z     vdW  Elec       q    Type
                         _______ _______ _______ _____ _____    ______ ____

>  <TORSDO>
F 9

$$$$
=
 OpenBabel11052418523D

 34 37  0  0  1  0  0  0  0  0999 V2000
  192.0800  171.3750  140.9470 C   0  0  1  0  0  3  0  0  0  0  0  0
  190.8510  173.6650  140.7560 C   0  0  2  0  0  3  0  0  0  0  0  0
  188.8850  174.8550  141.8920 N   0  0  0  0  0  0  0  0  0  0  0  0
  188.7790  174.1660  139.6580 O   0  0  0  0  0  0  0  0  0  0  0  0
  190.8530  172.1560  140.4260 C   0  0  1  0  0  3  0  0  0  0  0  0
  191.6270  174.0210  142.0520 C   0  0  1  0  0  3  0  0  0  0  0  0
  192.7060  171.9640  142.2160 C   0  0  0  0  0  2  0  0  0  0  0  0
  189.5880  174.8620  143.1120 N   0  0  0  0  0  2  0  0  0  0  0  0
  190.9800  175.1830  142.8190 C   0  0  1  0  0  3  0  0  0  0  0  0
  189.4420  174.2140  140.7300 C   0  0  0  0  0  0  0  0  0  0  0  0
  191.7750  172.8460  142.9030 N   0  0  0  0  0  2  0  0  0  0  0  0
  191.9210  175.6980  146.4750 C   0  0  0  0  0  0  0  0  0  0  0  0
  193.2070  176.2300  146.3460 C   0  0  0  0  0  3  0  0  0  0  0  0
  191.7350  175.5590  144.0580 C   0  0  0  0  0  0  0  0  0  0  0  0
  193.7600  176.4230  145.0770 C   0  0  0  0  0  3  0  0  0  0  0  0
  191.1870  175.3610  145.3350 C   0  0  0  0  0  3  0  0  0  0  0  0
  193.0250  176.0850  143.9360 C   0  0  0  0  0  3  0  0  0  0  0  0
  191.2310  175.4530  148.0640 Cl  0  0  0  0  0  0  0  0  0  0  0  0
  190.4700  169.8670  141.8670 O   0  0  0  0  0  1  0  0  0  0  0  0
  191.6970  169.9270  141.2020 C   0  0  0  0  0  2  0  0  0  0  0  0
  190.7210  171.9710  138.9150 C   0  0  0  0  0  2  0  0  0  0  0  0
  190.0010  170.0300  137.5220 C   0  0  0  0  0  1  0  0  0  0  0  0
  189.5650  171.0520  138.5540 C   0  0  0  0  0  2  0  0  0  0  0  0
  187.6380  175.6020  141.7920 C   0  0  0  0  0  2  0  0  0  0  0  0
  187.9080  177.0540  141.4270 C   0  0  0  0  0  2  0  0  0  0  0  0
  187.6950  177.9790  142.6180 C   0  0  0  0  0  2  0  0  0  0  0  0
  186.7680  177.3420  143.6410 C   0  0  0  0  0  2  0  0  0  0  0  0
  186.6120  177.1900  146.0800 N   0  0  0  0  0  0  0  0  0  0  0  0
  186.7730  178.1160  144.9520 C   0  0  2  0  0  3  0  0  0  0  0  0
  187.7160  176.3240  146.4540 C   0  0  0  0  0  1  0  0  0  0  0  0
  184.3730  177.9080  146.5550 C   0  0  0  0  0  3  0  0  0  0  0  0
  184.5710  179.0460  145.6470 C   0  0  0  0  0  3  0  0  0  0  0  0
  185.6890  179.1660  144.9260 C   0  0  0  0  0  3  0  0  0  0  0  0
  185.3580  177.0350  146.7580 C   0  0  0  0  0  3  0  0  0  0  0  0
  1 20  1  1  0  0  0
  1  7  1  0  0  0  0
  2 10  1  1  0  0  0
  2  6  1  0  0  0  0
  3  8  1  0  0  0  0
  4 10  2  0  0  0  0
  5 21  1  6  0  0  0
  5  2  1  0  0  0  0
  5  1  1  0  0  0  0
  6  9  1  0  0  0  0
  6 11  1  1  0  0  0
  7 11  1  0  0  0  0
  9  8  1  0  0  0  0
  9 14  1  1  0  0  0
 10  3  1  0  0  0  0
 12 18  1  0  0  0  0
 13 12  1  0  0  0  0
 14 16  1  0  0  0  0
 15 13  2  0  0  0  0
 16 12  2  0  0  0  0
 17 14  2  0  0  0  0
 17 15  1  0  0  0  0
 20 19  1  0  0  0  0
 22 23  1  0  0  0  0
 23 21  1  0  0  0  0
 24  3  1  0  0  0  0
 25 24  1  0  0  0  0
 25 26  1  0  0  0  0
 26 27  1  0  0  0  0
 28 30  1  0  0  0  0
 28 34  1  0  0  0  0
 29 27  1  6  0  0  0
 29 28  1  0  0  0  0
 31 34  2  0  0  0  0
 32 31  1  0  0  0  0
 33 29  1  0  0  0  0
 33 32  2  0  0  0  0
M  END
>  <MODEL>
6

>  <REMARK>
 VINA RESULT:      -6.6      3.321      5.694
  Name = 
  9 active torsions:
  status: ('A' for Active; 'I' for Inactive)
    1  A    between atoms: C_1  and  C_19
    2  A    between atoms: C_2  and  C_15
    3  A    between atoms: C_2  and  C_25
    4  A    between atoms: C_3  and  C_13
    5  A    between atoms: C_3  and  C_17
    6  A    between atoms: N_5  and  C_18
    7  A    between atoms: C_12  and  C_28
    8  A    between atoms: C_17  and  C_29
    9  A    between atoms: C_18  and  C_29
                            x       y       z     vdW  Elec       q    Type
                         _______ _______ _______ _____ _____    ______ ____

>  <TORSDO>
F 9

$$$$
=
 OpenBabel11052418523D

 34 37  0  0  1  0  0  0  0  0999 V2000
  194.3470  174.7730  143.1990 C   0  0  1  0  0  3  0  0  0  0  0  0
  192.1080  174.1230  144.3610 C   0  0  2  0  0  3  0  0  0  0  0  0
  189.8170  175.1930  144.7830 N   0  0  0  0  0  0  0  0  0  0  0  0
  191.3090  174.7550  146.5320 O   0  0  0  0  0  0  0  0  0  0  0  0
  193.4370  174.9060  144.4400 C   0  0  1  0  0  3  0  0  0  0  0  0
  191.5860  173.9230  142.9130 C   0  0  1  0  0  3  0  0  0  0  0  0
  193.5910  174.5210  141.8900 C   0  0  0  0  0  2  0  0  0  0  0  0
  189.5710  175.2230  143.3970 N   0  0  0  0  0  2  0  0  0  0  0  0
  190.0540  173.9680  142.8340 C   0  0  1  0  0  3  0  0  0  0  0  0
  191.0790  174.7250  145.2920 C   0  0  0  0  0  0  0  0  0  0  0  0
  192.1900  174.8950  142.0100 N   0  0  0  0  0  2  0  0  0  0  0  0
  189.3080  172.3820  139.4500 C   0  0  0  0  0  0  0  0  0  0  0  0
  188.4920  173.3590  138.8730 C   0  0  0  0  0  3  0  0  0  0  0  0
  189.5330  173.7470  141.4460 C   0  0  0  0  0  0  0  0  0  0  0  0
  188.1920  174.5270  139.5810 C   0  0  0  0  0  3  0  0  0  0  0  0
  189.8260  172.5740  140.7340 C   0  0  0  0  0  3  0  0  0  0  0  0
  188.7100  174.7180  140.8650 C   0  0  0  0  0  3  0  0  0  0  0  0
  189.6800  170.9190  138.5670 Cl  0  0  0  0  0  0  0  0  0  0  0  0
  196.5400  175.6680  142.8810 O   0  0  0  0  0  1  0  0  0  0  0  0
  195.2010  176.0220  143.0520 C   0  0  0  0  0  2  0  0  0  0  0  0
  194.2000  174.4780  145.6930 C   0  0  0  0  0  2  0  0  0  0  0  0
  194.0210  176.8290  146.5090 C   0  0  0  0  0  1  0  0  0  0  0  0
  194.9450  175.6400  146.3290 C   0  0  0  0  0  2  0  0  0  0  0  0
  188.7370  175.5350  145.6990 C   0  0  0  0  0  2  0  0  0  0  0  0
  188.4820  177.0360  145.6930 C   0  0  0  0  0  2  0  0  0  0  0  0
  186.9990  177.3500  145.5510 C   0  0  0  0  0  2  0  0  0  0  0  0
  186.5070  177.0270  144.1480 C   0  0  0  0  0  2  0  0  0  0  0  0
  185.0310  178.5430  142.9160 N   0  0  0  0  0  0  0  0  0  0  0  0
  186.4270  178.2790  143.2850 C   0  0  2  0  0  3  0  0  0  0  0  0
  184.1100  179.0400  143.9230 C   0  0  0  0  0  1  0  0  0  0  0  0
  185.3520  177.9160  140.6240 C   0  0  0  0  0  3  0  0  0  0  0  0
  186.8040  177.9190  140.8510 C   0  0  0  0  0  3  0  0  0  0  0  0
  187.3090  178.1150  142.0720 C   0  0  0  0  0  3  0  0  0  0  0  0
  184.5190  178.2230  141.6160 C   0  0  0  0  0  3  0  0  0  0  0  0
  1 20  1  6  0  0  0
  1  5  1  0  0  0  0
  2  5  1  0  0  0  0
  2 10  1  1  0  0  0
  3 10  1  0  0  0  0
  3 24  1  0  0  0  0
  5 21  1  1  0  0  0
  6 11  1  6  0  0  0
  6  2  1  0  0  0  0
  7 11  1  0  0  0  0
  7  1  1  0  0  0  0
  8  3  1  0  0  0  0
  9 14  1  6  0  0  0
  9  6  1  0  0  0  0
  9  8  1  0  0  0  0
 10  4  2  0  0  0  0
 12 16  1  0  0  0  0
 13 12  2  0  0  0  0
 13 15  1  0  0  0  0
 15 17  2  0  0  0  0
 16 14  2  0  0  0  0
 17 14  1  0  0  0  0
 18 12  1  0  0  0  0
 19 20  1  0  0  0  0
 21 23  1  0  0  0  0
 23 22  1  0  0  0  0
 25 24  1  0  0  0  0
 26 25  1  0  0  0  0
 27 26  1  0  0  0  0
 28 29  1  0  0  0  0
 28 30  1  0  0  0  0
 29 27  1  6  0  0  0
 31 32  1  0  0  0  0
 31 34  2  0  0  0  0
 32 33  2  0  0  0  0
 33 29  1  0  0  0  0
 34 28  1  0  0  0  0
M  END
>  <MODEL>
7

>  <REMARK>
 VINA RESULT:      -6.5      1.945      2.651
  Name = 
  9 active torsions:
  status: ('A' for Active; 'I' for Inactive)
    1  A    between atoms: C_1  and  C_19
    2  A    between atoms: C_2  and  C_15
    3  A    between atoms: C_2  and  C_25
    4  A    between atoms: C_3  and  C_13
    5  A    between atoms: C_3  and  C_17
    6  A    between atoms: N_5  and  C_18
    7  A    between atoms: C_12  and  C_28
    8  A    between atoms: C_17  and  C_29
    9  A    between atoms: C_18  and  C_29
                            x       y       z     vdW  Elec       q    Type
                         _______ _______ _______ _____ _____    ______ ____

>  <TORSDO>
F 9

$$$$
=
 OpenBabel11052418523D

 34 37  0  0  1  0  0  0  0  0999 V2000
  191.0260  172.0330  141.2220 C   0  0  1  0  0  3  0  0  0  0  0  0
  190.8270  174.5410  141.9000 C   0  0  2  0  0  3  0  0  0  0  0  0
  190.7280  175.9120  144.0630 N   0  0  0  0  0  0  0  0  0  0  0  0
  188.8860  175.7450  142.6300 O   0  0  0  0  0  0  0  0  0  0  0  0
  190.1200  173.1780  141.7270 C   0  0  1  0  0  3  0  0  0  0  0  0
  192.3420  174.4230  142.2150 C   0  0  1  0  0  3  0  0  0  0  0  0
  192.5000  172.1770  141.6200 C   0  0  0  0  0  2  0  0  0  0  0  0
  192.0320  175.4970  144.3910 N   0  0  0  0  0  2  0  0  0  0  0  0
  192.8270  175.5230  143.1690 C   0  0  1  0  0  3  0  0  0  0  0  0
  190.0740  175.4090  142.8840 C   0  0  0  0  0  0  0  0  0  0  0  0
  192.6580  173.0980  142.7350 N   0  0  0  0  0  2  0  0  0  0  0  0
  196.1550  174.6610  144.8120 C   0  0  0  0  0  0  0  0  0  0  0  0
  197.0520  175.2720  143.9310 C   0  0  0  0  0  3  0  0  0  0  0  0
  194.2950  175.4410  143.4600 C   0  0  0  0  0  0  0  0  0  0  0  0
  196.5740  175.9630  142.8140 C   0  0  0  0  0  3  0  0  0  0  0  0
  194.7800  174.7420  144.5760 C   0  0  0  0  0  3  0  0  0  0  0  0
  195.1980  176.0450  142.5780 C   0  0  0  0  0  3  0  0  0  0  0  0
  196.7530  173.7920  146.2070 Cl  0  0  0  0  0  0  0  0  0  0  0  0
  190.8030  169.6880  140.8160 O   0  0  0  0  0  1  0  0  0  0  0  0
  190.4980  170.7000  141.7290 C   0  0  0  0  0  2  0  0  0  0  0  0
  188.9240  173.3460  140.7900 C   0  0  0  0  0  2  0  0  0  0  0  0
  188.1900  173.6280  138.4220 C   0  0  0  0  0  1  0  0  0  0  0  0
  189.3520  173.7510  139.3890 C   0  0  0  0  0  2  0  0  0  0  0  0
  190.0920  176.9440  144.8720 C   0  0  0  0  0  2  0  0  0  0  0  0
  189.6750  176.3840  146.2250 C   0  0  0  0  0  2  0  0  0  0  0  0
  188.2060  176.6580  146.5150 C   0  0  0  0  0  2  0  0  0  0  0  0
  187.5120  177.2460  145.2950 C   0  0  0  0  0  2  0  0  0  0  0  0
  185.3640  177.5420  144.1570 N   0  0  0  0  0  0  0  0  0  0  0  0
  186.0610  176.7910  145.2090 C   0  0  2  0  0  3  0  0  0  0  0  0
  185.6560  177.2540  142.7640 C   0  0  0  0  0  1  0  0  0  0  0  0
  184.0660  178.8250  145.7130 C   0  0  0  0  0  3  0  0  0  0  0  0
  184.4990  177.9180  146.7860 C   0  0  0  0  0  3  0  0  0  0  0  0
  185.3980  176.9580  146.5540 C   0  0  0  0  0  3  0  0  0  0  0  0
  184.4810  178.6290  144.4630 C   0  0  0  0  0  3  0  0  0  0  0  0
  1  7  1  0  0  0  0
  1  5  1  0  0  0  0
  1 20  1  1  0  0  0
  2  6  1  0  0  0  0
  2 10  1  1  0  0  0
  3  8  1  0  0  0  0
  3 24  1  0  0  0  0
  4 10  2  0  0  0  0
  5 21  1  6  0  0  0
  5  2  1  0  0  0  0
  6 11  1  1  0  0  0
  6  9  1  0  0  0  0
  7 11  1  0  0  0  0
  9 14  1  1  0  0  0
  9  8  1  0  0  0  0
 10  3  1  0  0  0  0
 12 18  1  0  0  0  0
 13 12  2  0  0  0  0
 14 16  2  0  0  0  0
 15 13  1  0  0  0  0
 16 12  1  0  0  0  0
 17 15  2  0  0  0  0
 17 14  1  0  0  0  0
 19 20  1  0  0  0  0
 22 23  1  0  0  0  0
 23 21  1  0  0  0  0
 24 25  1  0  0  0  0
 25 26  1  0  0  0  0
 27 26  1  0  0  0  0
 28 34  1  0  0  0  0
 28 29  1  0  0  0  0
 29 27  1  1  0  0  0
 29 33  1  0  0  0  0
 30 28  1  0  0  0  0
 31 32  1  0  0  0  0
 33 32  2  0  0  0  0
 34 31  2  0  0  0  0
M  END
>  <MODEL>
8

>  <REMARK>
 VINA RESULT:      -6.5      3.130      5.752
  Name = 
  9 active torsions:
  status: ('A' for Active; 'I' for Inactive)
    1  A    between atoms: C_1  and  C_19
    2  A    between atoms: C_2  and  C_15
    3  A    between atoms: C_2  and  C_25
    4  A    between atoms: C_3  and  C_13
    5  A    between atoms: C_3  and  C_17
    6  A    between atoms: N_5  and  C_18
    7  A    between atoms: C_12  and  C_28
    8  A    between atoms: C_17  and  C_29
    9  A    between atoms: C_18  and  C_29
                            x       y       z     vdW  Elec       q    Type
                         _______ _______ _______ _____ _____    ______ ____

>  <TORSDO>
F 9

$$$$
=
 OpenBabel11052418523D

 34 37  0  0  1  0  0  0  0  0999 V2000
  193.6000  173.5320  145.4080 C   0  0  1  0  0  3  0  0  0  0  0  0
  191.1450  174.1150  144.7620 C   0  0  2  0  0  3  0  0  0  0  0  0
  189.9390  175.5160  142.9850 N   0  0  0  0  0  0  0  0  0  0  0  0
  189.9000  176.1070  145.2500 O   0  0  0  0  0  0  0  0  0  0  0  0
  192.4510  174.5640  145.4530 C   0  0  1  0  0  3  0  0  0  0  0  0
  191.3650  173.1030  143.6060 C   0  0  1  0  0  3  0  0  0  0  0  0
  193.5640  172.6040  144.1880 C   0  0  0  0  0  2  0  0  0  0  0  0
  190.4460  174.6770  141.9740 N   0  0  0  0  0  2  0  0  0  0  0  0
  190.3670  173.3040  142.4570 C   0  0  1  0  0  3  0  0  0  0  0  0
  190.3160  175.3150  144.3600 C   0  0  0  0  0  0  0  0  0  0  0  0
  192.7410  173.1610  143.1260 N   0  0  0  0  0  2  0  0  0  0  0  0
  190.8830  171.7890  138.9980 C   0  0  0  0  0  0  0  0  0  0  0  0
  190.9350  170.4280  139.3100 C   0  0  0  0  0  3  0  0  0  0  0  0
  190.5480  172.3150  141.3450 C   0  0  0  0  0  0  0  0  0  0  0  0
  190.7990  170.0080  140.6360 C   0  0  0  0  0  3  0  0  0  0  0  0
  190.6920  172.7310  140.0130 C   0  0  0  0  0  3  0  0  0  0  0  0
  190.6080  170.9500  141.6510 C   0  0  0  0  0  3  0  0  0  0  0  0
  191.0580  172.3150  137.3400 Cl  0  0  0  0  0  0  0  0  0  0  0  0
  194.9560  175.2860  144.5120 O   0  0  0  0  0  1  0  0  0  0  0  0
  194.9390  174.2510  145.4500 C   0  0  0  0  0  2  0  0  0  0  0  0
  192.1500  174.9450  146.9010 C   0  0  0  0  0  2  0  0  0  0  0  0
  191.5400  176.9590  148.2430 C   0  0  0  0  0  1  0  0  0  0  0  0
  192.4730  176.4030  147.1840 C   0  0  0  0  0  2  0  0  0  0  0  0
  188.9410  176.5190  142.6360 C   0  0  0  0  0  2  0  0  0  0  0  0
  187.6170  175.8580  142.2800 C   0  0  0  0  0  2  0  0  0  0  0  0
  186.4470  176.5420  142.9740 C   0  0  0  0  0  2  0  0  0  0  0  0
  186.5680  176.4250  144.4860 C   0  0  0  0  0  2  0  0  0  0  0  0
  185.7800  177.7500  146.3890 N   0  0  0  0  0  0  0  0  0  0  0  0
  186.5680  177.7950  145.1500 C   0  0  2  0  0  3  0  0  0  0  0  0
  186.3180  177.0610  147.5490 C   0  0  0  0  0  1  0  0  0  0  0  0
  183.9770  179.0410  145.4770 C   0  0  0  0  0  3  0  0  0  0  0  0
  184.8280  179.3740  144.3260 C   0  0  0  0  0  3  0  0  0  0  0  0
  186.0380  178.8260  144.1840 C   0  0  0  0  0  3  0  0  0  0  0  0
  184.4470  178.2720  146.4570 C   0  0  0  0  0  3  0  0  0  0  0  0
  1 20  1  6  0  0  0
  1  5  1  0  0  0  0
  2 10  1  6  0  0  0
  2  5  1  0  0  0  0
  3 10  1  0  0  0  0
  5 21  1  1  0  0  0
  6 11  1  6  0  0  0
  6  2  1  0  0  0  0
  7  1  1  0  0  0  0
  8  9  1  0  0  0  0
  8  3  1  0  0  0  0
  9 14  1  6  0  0  0
  9  6  1  0  0  0  0
 10  4  2  0  0  0  0
 11  7  1  0  0  0  0
 12 13  2  0  0  0  0
 12 16  1  0  0  0  0
 13 15  1  0  0  0  0
 14 17  1  0  0  0  0
 15 17  2  0  0  0  0
 16 14  2  0  0  0  0
 18 12  1  0  0  0  0
 19 20  1  0  0  0  0
 21 23  1  0  0  0  0
 23 22  1  0  0  0  0
 24  3  1  0  0  0  0
 25 24  1  0  0  0  0
 25 26  1  0  0  0  0
 26 27  1  0  0  0  0
 28 34  1  0  0  0  0
 28 30  1  0  0  0  0
 29 27  1  6  0  0  0
 29 28  1  0  0  0  0
 31 34  2  0  0  0  0
 32 31  1  0  0  0  0
 33 32  2  0  0  0  0
 33 29  1  0  0  0  0
M  END
>  <MODEL>
9

>  <REMARK>
 VINA RESULT:      -6.3      2.346      3.505
  Name = 
  9 active torsions:
  status: ('A' for Active; 'I' for Inactive)
    1  A    between atoms: C_1  and  C_19
    2  A    between atoms: C_2  and  C_15
    3  A    between atoms: C_2  and  C_25
    4  A    between atoms: C_3  and  C_13
    5  A    between atoms: C_3  and  C_17
    6  A    between atoms: N_5  and  C_18
    7  A    between atoms: C_12  and  C_28
    8  A    between atoms: C_17  and  C_29
    9  A    between atoms: C_18  and  C_29
                            x       y       z     vdW  Elec       q    Type
                         _______ _______ _______ _____ _____    ______ ____

>  <TORSDO>
F 9

$$$$
