=
 OpenBabel11052417093D

 30 32  0  0  1  0  0  0  0  0999 V2000
  184.7970  178.2150  144.8590 C   0  0  0  0  0  0  0  0  0  0  0  0
  183.9270  178.3820  143.7370 N   0  0  0  0  0  2  0  0  0  0  0  0
  184.4190  178.5980  145.9990 O   0  0  0  0  0  0  0  0  0  0  0  0
  186.6460  177.6880  143.2480 C   0  0  2  0  0  3  0  0  0  0  0  0
  184.3220  177.9500  142.4320 C   0  0  0  0  0  3  0  0  0  0  0  0
  186.1120  177.4950  144.6800 C   0  0  1  0  0  3  0  0  0  0  0  0
  185.5790  177.5780  142.1900 C   0  0  0  0  0  3  0  0  0  0  0  0
  190.2910  176.3640  142.6600 C   0  0  0  0  0  3  0  0  0  0  0  0
  190.0560  175.0720  142.4300 C   0  0  0  0  0  3  0  0  0  0  0  0
  189.1910  177.3650  142.9080 C   0  0  0  0  0  0  0  0  0  0  0  0
  188.4000  173.2970  142.1880 N   0  0  0  0  0  2  0  0  0  0  0  0
  187.5760  175.4740  142.7040 C   0  0  0  0  0  3  0  0  0  0  0  0
  189.2610  178.3720  141.9450 O   0  0  0  0  0  1  0  0  0  0  0  0
  188.6790  174.5480  142.4200 C   0  0  0  0  0  0  0  0  0  0  0  0
  187.7980  176.7750  142.9380 C   0  0  0  0  0  0  0  0  0  0  0  0
  189.7430  171.4610  142.7970 O   0  0  0  0  0  0  0  0  0  0  0  0
  189.3200  172.2340  141.8960 C   0  0  0  0  0  0  0  0  0  0  0  0
  189.7660  172.0500  140.5590 N   0  0  0  0  0  1  0  0  0  0  0  0
  187.1510  177.9780  145.6840 C   0  0  0  0  0  2  0  0  0  0  0  0
  187.8070  176.7910  146.3560 C   0  0  0  0  0  2  0  0  0  0  0  0
  189.4990  177.2310  146.8370 S   0  0  0  0  0  0  0  0  0  0  0  0
  190.1200  175.5890  146.4550 C   0  0  0  0  0  0  0  0  0  0  0  0
  189.2770  174.6470  146.0430 C   0  0  0  0  0  2  0  0  0  0  0  0
  193.6270  176.3690  146.6480 C   0  0  0  0  0  2  0  0  0  0  0  0
  191.5610  175.2460  146.6740 C   0  0  1  0  0  3  0  0  0  0  0  0
  193.3450  175.6830  145.3340 C   0  0  2  0  0  0  0  0  0  0  0  0
  192.1760  174.9080  145.4510 O   0  0  0  0  0  0  0  0  0  0  0  0
  192.2940  176.4000  147.3160 C   0  0  0  0  0  2  0  0  0  0  0  0
  194.5140  174.7910  144.9700 C   0  0  0  0  0  1  0  0  0  0  0  0
  193.1670  176.6420  144.3370 O   0  0  0  0  0  1  0  0  0  0  0  0
  1  3  2  0  0  0  0
  2  1  1  0  0  0  0
  4 15  1  6  0  0  0
  4  6  1  0  0  0  0
  5  2  1  0  0  0  0
  6  1  1  0  0  0  0
  6 19  1  1  0  0  0
  7  5  2  0  0  0  0
  7  4  1  0  0  0  0
  8 10  1  0  0  0  0
  9  8  2  0  0  0  0
 10 15  2  0  0  0  0
 11 14  1  0  0  0  0
 12 15  1  0  0  0  0
 13 10  1  0  0  0  0
 14  9  1  0  0  0  0
 14 12  2  0  0  0  0
 17 11  1  0  0  0  0
 17 16  2  0  0  0  0
 18 17  1  0  0  0  0
 19 20  1  0  0  0  0
 20 21  1  0  0  0  0
 22 21  1  0  0  0  0
 23 22  2  0  0  0  0
 24 28  1  0  0  0  0
 25 22  1  6  0  0  0
 25 28  1  0  0  0  0
 26 29  1  6  0  0  0
 26 27  1  0  0  0  0
 26 24  1  0  0  0  0
 27 25  1  0  0  0  0
 30 26  1  0  0  0  0
M  END
>  <MODEL>
1

>  <REMARK>
 VINA RESULT:      -7.0      0.000      0.000
  Name = 
  7 active torsions:
  status: ('A' for Active; 'I' for Inactive)
    1  A    between atoms: C_1  and  S_4
    2  A    between atoms: C_1  and  C_5
    3  A    between atoms: S_4  and  C_27
    4  A    between atoms: C_5  and  C_22
    5  A    between atoms: C_8  and  C_27
    6  A    between atoms: C_15  and  N_16
    7  A    between atoms: C_19  and  C_29
                            x       y       z     vdW  Elec       q    Type
                         _______ _______ _______ _____ _____    ______ ____

>  <TORSDO>
F 7

$$$$
=
 OpenBabel11052417093D

 30 32  0  0  1  0  0  0  0  0999 V2000
  194.2390  176.1710  143.8340 C   0  0  0  0  0  0  0  0  0  0  0  0
  195.1730  175.8710  144.8740 N   0  0  0  0  0  0  0  0  0  0  0  0
  194.6620  176.3960  142.6680 O   0  0  0  0  0  0  0  0  0  0  0  0
  192.4830  176.4600  145.6010 C   0  0  2  0  0  3  0  0  0  0  0  0
  194.7260  175.6020  146.2060 C   0  0  0  0  0  3  0  0  0  0  0  0
  192.7590  176.1160  144.1250 C   0  0  1  0  0  3  0  0  0  0  0  0
  193.4610  175.8290  146.5570 C   0  0  0  0  0  2  0  0  0  0  0  0
  189.3020  174.5290  146.8440 C   0  0  0  0  0  3  0  0  0  0  0  0
  188.4030  175.5130  146.8640 C   0  0  0  0  0  3  0  0  0  0  0  0
  190.7240  174.7300  146.3840 C   0  0  0  0  0  0  0  0  0  0  0  0
  187.9200  177.8650  146.4330 N   0  0  0  0  0  2  0  0  0  0  0  0
  190.1540  177.1330  146.0300 C   0  0  0  0  0  3  0  0  0  0  0  0
  190.9850  173.8770  145.3120 O   0  0  0  0  0  1  0  0  0  0  0  0
  188.7680  176.8760  146.4410 C   0  0  0  0  0  0  0  0  0  0  0  0
  191.0690  176.1540  146.0060 C   0  0  0  0  0  0  0  0  0  0  0  0
  185.6460  177.4420  145.9930 O   0  0  0  0  0  0  0  0  0  0  0  0
  186.5320  177.8320  146.7990 C   0  0  0  0  0  0  0  0  0  0  0  0
  186.1490  178.2520  148.1020 N   0  0  0  0  0  1  0  0  0  0  0  0
  191.9800  177.0650  143.2230 C   0  0  0  0  0  2  0  0  0  0  0  0
  190.7740  176.3540  142.6470 C   0  0  0  0  0  2  0  0  0  0  0  0
  189.4250  177.5440  142.4220 S   0  0  0  0  0  0  0  0  0  0  0  0
  188.1750  176.2540  142.4550 C   0  0  0  0  0  0  0  0  0  0  0  0
  188.4840  175.0510  142.9300 C   0  0  0  0  0  2  0  0  0  0  0  0
  185.6670  178.2560  140.8280 C   0  0  0  0  0  2  0  0  0  0  0  0
  186.8130  176.4920  141.8790 C   0  0  1  0  0  3  0  0  0  0  0  0
  185.3670  178.1940  142.3050 C   0  0  2  0  0  0  0  0  0  0  0  0
  185.9560  177.0400  142.8550 O   0  0  0  0  0  0  0  0  0  0  0  0
  186.8920  177.4170  140.6870 C   0  0  0  0  0  2  0  0  0  0  0  0
  183.8680  178.1510  142.5140 C   0  0  0  0  0  1  0  0  0  0  0  0
  185.8890  179.3240  142.9350 O   0  0  0  0  0  1  0  0  0  0  0  0
  1  6  1  0  0  0  0
  1  2  1  0  0  0  0
  2  5  2  0  0  0  0
  3  1  2  0  0  0  0
  4 15  1  1  0  0  0
  4  7  1  0  0  0  0
  5  7  1  0  0  0  0
  6 19  1  6  0  0  0
  6  4  1  0  0  0  0
  8  9  1  0  0  0  0
 10  8  2  0  0  0  0
 11 14  1  0  0  0  0
 11 17  1  0  0  0  0
 12 14  1  0  0  0  0
 13 10  1  0  0  0  0
 14  9  2  0  0  0  0
 15 12  2  0  0  0  0
 15 10  1  0  0  0  0
 16 17  2  0  0  0  0
 17 18  1  0  0  0  0
 20 19  1  0  0  0  0
 21 22  1  0  0  0  0
 21 20  1  0  0  0  0
 22 23  2  0  0  0  0
 24 26  1  0  0  0  0
 25 22  1  1  0  0  0
 25 27  1  0  0  0  0
 26 29  1  1  0  0  0
 26 27  1  0  0  0  0
 26 30  1  0  0  0  0
 28 24  1  0  0  0  0
 28 25  1  0  0  0  0
M  END
>  <MODEL>
2

>  <REMARK>
 VINA RESULT:      -7.0      2.740      7.600
  Name = 
  7 active torsions:
  status: ('A' for Active; 'I' for Inactive)
    1  A    between atoms: C_1  and  S_4
    2  A    between atoms: C_1  and  C_5
    3  A    between atoms: S_4  and  C_27
    4  A    between atoms: C_5  and  C_22
    5  A    between atoms: C_8  and  C_27
    6  A    between atoms: C_15  and  N_16
    7  A    between atoms: C_19  and  C_29
                            x       y       z     vdW  Elec       q    Type
                         _______ _______ _______ _____ _____    ______ ____

>  <TORSDO>
F 7

$$$$
=
 OpenBabel11052417093D

 30 32  0  0  1  0  0  0  0  0999 V2000
  184.0500  178.3070  142.6880 C   0  0  0  0  0  0  0  0  0  0  0  0
  183.8220  178.5540  141.2980 N   0  0  0  0  0  2  0  0  0  0  0  0
  183.1760  178.6490  143.5290 O   0  0  0  0  0  0  0  0  0  0  0  0
  186.4390  177.7930  142.1250 C   0  0  2  0  0  3  0  0  0  0  0  0
  184.7900  178.1700  140.3170 C   0  0  0  0  0  3  0  0  0  0  0  0
  185.2850  177.5520  143.1160 C   0  0  1  0  0  3  0  0  0  0  0  0
  186.0060  177.7680  140.6820 C   0  0  0  0  0  3  0  0  0  0  0  0
  189.9950  176.4250  143.0630 C   0  0  0  0  0  3  0  0  0  0  0  0
  189.8190  175.1170  142.8750 C   0  0  0  0  0  3  0  0  0  0  0  0
  188.9150  177.4430  142.7920 C   0  0  0  0  0  0  0  0  0  0  0  0
  188.3140  173.3250  142.1880 N   0  0  0  0  0  2  0  0  0  0  0  0
  187.4310  175.5390  142.1650 C   0  0  0  0  0  3  0  0  0  0  0  0
  189.3730  178.3560  141.8410 O   0  0  0  0  0  1  0  0  0  0  0  0
  188.5280  174.5930  142.3970 C   0  0  0  0  0  0  0  0  0  0  0  0
  187.5930  176.8570  142.3500 C   0  0  0  0  0  0  0  0  0  0  0  0
  189.4010  171.6770  143.4720 O   0  0  0  0  0  0  0  0  0  0  0  0
  189.2410  172.2400  142.3570 C   0  0  0  0  0  0  0  0  0  0  0  0
  189.9950  171.7930  141.2380 N   0  0  0  0  0  1  0  0  0  0  0  0
  185.7220  177.9530  144.5190 C   0  0  0  0  0  2  0  0  0  0  0  0
  185.8500  176.7210  145.3900 C   0  0  0  0  0  2  0  0  0  0  0  0
  185.7610  177.2040  147.1350 S   0  0  0  0  0  0  0  0  0  0  0  0
  187.5090  177.6120  147.1950 C   0  0  0  0  0  0  0  0  0  0  0  0
  187.9070  178.7110  147.8280 C   0  0  0  0  0  2  0  0  0  0  0  0
  190.0160  175.0400  146.9970 C   0  0  0  0  0  2  0  0  0  0  0  0
  188.5160  176.7720  146.4720 C   0  0  1  0  0  3  0  0  0  0  0  0
  190.6920  176.3880  147.0050 C   0  0  2  0  0  0  0  0  0  0  0  0
  189.7920  177.3670  146.5420 O   0  0  0  0  0  0  0  0  0  0  0  0
  188.5650  175.3790  147.0520 C   0  0  0  0  0  2  0  0  0  0  0  0
  191.9090  176.3470  146.1040 C   0  0  0  0  0  1  0  0  0  0  0  0
  191.0900  176.7030  148.3040 O   0  0  0  0  0  1  0  0  0  0  0  0
  1  6  1  0  0  0  0
  1  3  2  0  0  0  0
  2  1  1  0  0  0  0
  4 15  1  6  0  0  0
  4  6  1  0  0  0  0
  5  7  2  0  0  0  0
  5  2  1  0  0  0  0
  6 19  1  1  0  0  0
  7  4  1  0  0  0  0
  9  8  1  0  0  0  0
 10  8  2  0  0  0  0
 11 17  1  0  0  0  0
 11 14  1  0  0  0  0
 12 15  2  0  0  0  0
 12 14  1  0  0  0  0
 13 10  1  0  0  0  0
 14  9  2  0  0  0  0
 15 10  1  0  0  0  0
 17 16  2  0  0  0  0
 18 17  1  0  0  0  0
 19 20  1  0  0  0  0
 20 21  1  0  0  0  0
 21 22  1  0  0  0  0
 22 23  2  0  0  0  0
 24 26  1  0  0  0  0
 24 28  1  0  0  0  0
 25 27  1  0  0  0  0
 25 28  1  0  0  0  0
 25 22  1  1  0  0  0
 26 29  1  6  0  0  0
 26 30  1  0  0  0  0
 27 26  1  0  0  0  0
M  END
>  <MODEL>
3

>  <REMARK>
 VINA RESULT:      -6.9      1.722      2.477
  Name = 
  7 active torsions:
  status: ('A' for Active; 'I' for Inactive)
    1  A    between atoms: C_1  and  S_4
    2  A    between atoms: C_1  and  C_5
    3  A    between atoms: S_4  and  C_27
    4  A    between atoms: C_5  and  C_22
    5  A    between atoms: C_8  and  C_27
    6  A    between atoms: C_15  and  N_16
    7  A    between atoms: C_19  and  C_29
                            x       y       z     vdW  Elec       q    Type
                         _______ _______ _______ _____ _____    ______ ____

>  <TORSDO>
F 7

$$$$
=
 OpenBabel11052417093D

 30 32  0  0  1  0  0  0  0  0999 V2000
  194.1280  175.8550  145.4280 C   0  0  0  0  0  0  0  0  0  0  0  0
  195.0700  176.0240  144.3650 N   0  0  0  0  0  2  0  0  0  0  0  0
  194.5280  175.9010  146.6220 O   0  0  0  0  0  0  0  0  0  0  0  0
  192.4630  175.0730  143.7230 C   0  0  2  0  0  3  0  0  0  0  0  0
  194.6480  175.9860  142.9980 C   0  0  0  0  0  3  0  0  0  0  0  0
  192.6600  175.7240  145.1050 C   0  0  1  0  0  3  0  0  0  0  0  0
  193.4190  175.5870  142.6770 C   0  0  0  0  0  3  0  0  0  0  0  0
  188.7670  174.1220  142.8150 C   0  0  0  0  0  3  0  0  0  0  0  0
  188.2970  175.3000  142.4050 C   0  0  0  0  0  3  0  0  0  0  0  0
  190.1970  173.9170  143.2480 C   0  0  0  0  0  0  0  0  0  0  0  0
  188.7590  177.6540  141.9620 N   0  0  0  0  0  2  0  0  0  0  0  0
  190.5580  176.3490  142.8240 C   0  0  0  0  0  3  0  0  0  0  0  0
  190.7850  172.9410  142.4430 O   0  0  0  0  0  1  0  0  0  0  0  0
  189.1710  176.4860  142.3670 C   0  0  0  0  0  0  0  0  0  0  0  0
  191.0440  175.1710  143.2400 C   0  0  0  0  0  0  0  0  0  0  0  0
  186.6810  178.7450  142.1520 O   0  0  0  0  0  0  0  0  0  0  0  0
  187.4510  178.0050  141.4840 C   0  0  0  0  0  0  0  0  0  0  0  0
  187.0150  177.5040  140.2270 N   0  0  0  0  0  1  0  0  0  0  0  0
  191.9300  174.9070  146.1640 C   0  0  0  0  0  2  0  0  0  0  0  0
  191.0270  175.8090  146.9780 C   0  0  0  0  0  2  0  0  0  0  0  0
  189.2960  175.3740  146.6600 S   0  0  0  0  0  0  0  0  0  0  0  0
  188.8600  177.0680  146.2540 C   0  0  0  0  0  0  0  0  0  0  0  0
  189.7830  177.8810  145.7470 C   0  0  0  0  0  2  0  0  0  0  0  0
  185.2890  176.7840  146.5760 C   0  0  0  0  0  2  0  0  0  0  0  0
  187.4940  177.6010  146.5540 C   0  0  1  0  0  3  0  0  0  0  0  0
  185.6130  177.4890  145.2810 C   0  0  2  0  0  0  0  0  0  0  0  0
  186.8850  178.0840  145.3780 O   0  0  0  0  0  0  0  0  0  0  0  0
  186.6290  176.5300  147.1780 C   0  0  0  0  0  2  0  0  0  0  0  0
  184.5700  178.5540  145.0120 C   0  0  0  0  0  1  0  0  0  0  0  0
  185.6120  176.5660  144.2350 O   0  0  0  0  0  1  0  0  0  0  0  0
  1  3  2  0  0  0  0
  2  1  1  0  0  0  0
  4 15  1  6  0  0  0
  4  6  1  0  0  0  0
  5  2  1  0  0  0  0
  6  1  1  0  0  0  0
  6 19  1  1  0  0  0
  7  5  2  0  0  0  0
  7  4  1  0  0  0  0
  8 10  1  0  0  0  0
  9  8  2  0  0  0  0
 11 14  1  0  0  0  0
 12 15  1  0  0  0  0
 13 10  1  0  0  0  0
 14  9  1  0  0  0  0
 14 12  2  0  0  0  0
 15 10  2  0  0  0  0
 17 11  1  0  0  0  0
 17 16  2  0  0  0  0
 18 17  1  0  0  0  0
 19 20  1  0  0  0  0
 21 20  1  0  0  0  0
 22 21  1  0  0  0  0
 23 22  2  0  0  0  0
 24 28  1  0  0  0  0
 25 22  1  6  0  0  0
 25 28  1  0  0  0  0
 26 29  1  6  0  0  0
 26 27  1  0  0  0  0
 26 24  1  0  0  0  0
 27 25  1  0  0  0  0
 30 26  1  0  0  0  0
M  END
>  <MODEL>
4

>  <REMARK>
 VINA RESULT:      -6.8      2.439      6.565
  Name = 
  7 active torsions:
  status: ('A' for Active; 'I' for Inactive)
    1  A    between atoms: C_1  and  S_4
    2  A    between atoms: C_1  and  C_5
    3  A    between atoms: S_4  and  C_27
    4  A    between atoms: C_5  and  C_22
    5  A    between atoms: C_8  and  C_27
    6  A    between atoms: C_15  and  N_16
    7  A    between atoms: C_19  and  C_29
                            x       y       z     vdW  Elec       q    Type
                         _______ _______ _______ _____ _____    ______ ____

>  <TORSDO>
F 7

$$$$
=
 OpenBabel11052417093D

 30 32  0  0  1  0  0  0  0  0999 V2000
  194.4430  176.8190  145.8770 C   0  0  0  0  0  0  0  0  0  0  0  0
  195.5240  176.7480  144.9440 N   0  0  0  0  0  2  0  0  0  0  0  0
  194.5480  177.5600  146.8910 O   0  0  0  0  0  0  0  0  0  0  0  0
  193.4330  174.8250  144.7380 C   0  0  2  0  0  3  0  0  0  0  0  0
  195.4340  175.9240  143.7780 C   0  0  0  0  0  3  0  0  0  0  0  0
  193.1580  176.0850  145.5820 C   0  0  1  0  0  3  0  0  0  0  0  0
  194.4400  175.0480  143.6400 C   0  0  0  0  0  3  0  0  0  0  0  0
  190.4520  172.3460  144.1420 C   0  0  0  0  0  3  0  0  0  0  0  0
  189.7360  173.0240  143.2450 C   0  0  0  0  0  3  0  0  0  0  0  0
  191.7630  172.8480  144.6920 C   0  0  0  0  0  0  0  0  0  0  0  0
  189.5380  175.0240  141.8620 N   0  0  0  0  0  2  0  0  0  0  0  0
  191.4450  174.8860  143.2880 C   0  0  0  0  0  3  0  0  0  0  0  0
  192.7650  171.9180  144.4110 O   0  0  0  0  0  1  0  0  0  0  0  0
  190.1980  174.3320  142.7470 C   0  0  0  0  0  0  0  0  0  0  0  0
  192.1740  174.2160  144.1910 C   0  0  0  0  0  0  0  0  0  0  0  0
  187.1890  174.9400  141.7330 O   0  0  0  0  0  0  0  0  0  0  0  0
  188.3050  174.6720  141.2150 C   0  0  0  0  0  0  0  0  0  0  0  0
  188.3470  174.0040  139.9610 N   0  0  0  0  0  1  0  0  0  0  0  0
  192.4350  175.6930  146.8650 C   0  0  0  0  0  2  0  0  0  0  0  0
  191.2170  176.5720  147.0580 C   0  0  0  0  0  2  0  0  0  0  0  0
  189.7230  175.6240  146.6630 S   0  0  0  0  0  0  0  0  0  0  0  0
  188.9750  177.0090  145.7990 C   0  0  0  0  0  0  0  0  0  0  0  0
  189.6170  177.5720  144.7800 C   0  0  0  0  0  2  0  0  0  0  0  0
  185.4280  176.9110  146.3910 C   0  0  0  0  0  2  0  0  0  0  0  0
  187.6750  177.5900  146.2640 C   0  0  1  0  0  3  0  0  0  0  0  0
  185.6980  177.7230  145.1490 C   0  0  2  0  0  0  0  0  0  0  0  0
  187.0120  178.2270  145.1950 O   0  0  0  0  0  0  0  0  0  0  0  0
  186.7900  176.5160  146.8510 C   0  0  0  0  0  2  0  0  0  0  0  0
  184.7140  178.8710  145.0730 C   0  0  0  0  0  1  0  0  0  0  0  0
  185.5520  176.9140  144.0220 O   0  0  0  0  0  1  0  0  0  0  0  0
  1  3  2  0  0  0  0
  2  1  1  0  0  0  0
  4 15  1  6  0  0  0
  4  6  1  0  0  0  0
  5  2  1  0  0  0  0
  6  1  1  0  0  0  0
  6 19  1  1  0  0  0
  7  5  2  0  0  0  0
  7  4  1  0  0  0  0
  8 10  1  0  0  0  0
  9  8  2  0  0  0  0
 11 14  1  0  0  0  0
 12 15  1  0  0  0  0
 13 10  1  0  0  0  0
 14  9  1  0  0  0  0
 14 12  2  0  0  0  0
 15 10  2  0  0  0  0
 17 16  2  0  0  0  0
 17 11  1  0  0  0  0
 18 17  1  0  0  0  0
 19 20  1  0  0  0  0
 21 20  1  0  0  0  0
 22 21  1  0  0  0  0
 23 22  2  0  0  0  0
 24 28  1  0  0  0  0
 25 22  1  6  0  0  0
 25 28  1  0  0  0  0
 26 29  1  6  0  0  0
 26 27  1  0  0  0  0
 26 24  1  0  0  0  0
 27 25  1  0  0  0  0
 30 26  1  0  0  0  0
M  END
>  <MODEL>
5

>  <REMARK>
 VINA RESULT:      -6.7      2.482      6.620
  Name = 
  7 active torsions:
  status: ('A' for Active; 'I' for Inactive)
    1  A    between atoms: C_1  and  S_4
    2  A    between atoms: C_1  and  C_5
    3  A    between atoms: S_4  and  C_27
    4  A    between atoms: C_5  and  C_22
    5  A    between atoms: C_8  and  C_27
    6  A    between atoms: C_15  and  N_16
    7  A    between atoms: C_19  and  C_29
                            x       y       z     vdW  Elec       q    Type
                         _______ _______ _______ _____ _____    ______ ____

>  <TORSDO>
F 7

$$$$
=
 OpenBabel11052417093D

 30 32  0  0  1  0  0  0  0  0999 V2000
  186.8020  176.9010  146.5620 C   0  0  0  0  0  0  0  0  0  0  0  0
  186.3590  177.9600  147.4150 N   0  0  0  0  0  2  0  0  0  0  0  0
  187.5090  175.9750  147.0420 O   0  0  0  0  0  0  0  0  0  0  0  0
  186.0670  178.2790  144.6000 C   0  0  2  0  0  3  0  0  0  0  0  0
  185.5480  179.0220  146.9040 C   0  0  0  0  0  3  0  0  0  0  0  0
  186.3340  176.8570  145.1280 C   0  0  1  0  0  3  0  0  0  0  0  0
  185.3610  179.1650  145.5930 C   0  0  0  0  0  3  0  0  0  0  0  0
  185.3290  177.9520  140.7600 C   0  0  0  0  0  3  0  0  0  0  0  0
  184.0150  178.1750  140.7370 C   0  0  0  0  0  3  0  0  0  0  0  0
  186.1460  178.0070  142.0270 C   0  0  0  0  0  0  0  0  0  0  0  0
  182.0010  178.7170  142.0000 N   0  0  0  0  0  2  0  0  0  0  0  0
  184.0240  178.4980  143.2430 C   0  0  0  0  0  3  0  0  0  0  0  0
  187.1460  178.9700  141.8860 O   0  0  0  0  0  1  0  0  0  0  0  0
  183.2820  178.4810  141.9770 C   0  0  0  0  0  0  0  0  0  0  0  0
  185.3450  178.2750  143.2820 C   0  0  0  0  0  0  0  0  0  0  0  0
  180.8890  177.7210  140.1800 O   0  0  0  0  0  0  0  0  0  0  0  0
  181.0940  178.7430  140.8880 C   0  0  0  0  0  0  0  0  0  0  0  0
  180.4120  179.9510  140.5770 N   0  0  0  0  0  1  0  0  0  0  0  0
  187.3530  176.1610  144.2330 C   0  0  0  0  0  2  0  0  0  0  0  0
  188.6580  176.9280  144.2480 C   0  0  0  0  0  2  0  0  0  0  0  0
  189.8150  176.1680  143.0760 S   0  0  0  0  0  0  0  0  0  0  0  0
  191.2470  176.8090  143.9510 C   0  0  0  0  0  0  0  0  0  0  0  0
  191.6540  178.0540  143.7220 C   0  0  0  0  0  2  0  0  0  0  0  0
  193.1890  176.1660  146.9100 C   0  0  0  0  0  2  0  0  0  0  0  0
  192.0360  175.9340  144.8740 C   0  0  1  0  0  3  0  0  0  0  0  0
  194.1170  176.2750  145.7250 C   0  0  2  0  0  0  0  0  0  0  0  0
  193.4070  175.9830  144.5460 O   0  0  0  0  0  0  0  0  0  0  0  0
  191.8370  176.3550  146.3110 C   0  0  0  0  0  2  0  0  0  0  0  0
  195.2610  175.2960  145.8890 C   0  0  0  0  0  1  0  0  0  0  0  0
  194.6250  177.5720  145.6500 O   0  0  0  0  0  1  0  0  0  0  0  0
  1  3  2  0  0  0  0
  1  2  1  0  0  0  0
  4 15  1  6  0  0  0
  4  6  1  0  0  0  0
  4  7  1  0  0  0  0
  5  2  1  0  0  0  0
  6 19  1  6  0  0  0
  6  1  1  0  0  0  0
  7  5  2  0  0  0  0
  8 10  1  0  0  0  0
  9  8  2  0  0  0  0
  9 14  1  0  0  0  0
 10 15  2  0  0  0  0
 12 15  1  0  0  0  0
 13 10  1  0  0  0  0
 14 11  1  0  0  0  0
 14 12  2  0  0  0  0
 16 17  2  0  0  0  0
 17 11  1  0  0  0  0
 18 17  1  0  0  0  0
 19 20  1  0  0  0  0
 21 22  1  0  0  0  0
 21 20  1  0  0  0  0
 23 22  2  0  0  0  0
 25 22  1  6  0  0  0
 25 28  1  0  0  0  0
 26 29  1  1  0  0  0
 26 24  1  0  0  0  0
 27 25  1  0  0  0  0
 27 26  1  0  0  0  0
 28 24  1  0  0  0  0
 30 26  1  0  0  0  0
M  END
>  <MODEL>
6

>  <REMARK>
 VINA RESULT:      -6.6      3.206      5.118
  Name = 
  7 active torsions:
  status: ('A' for Active; 'I' for Inactive)
    1  A    between atoms: C_1  and  S_4
    2  A    between atoms: C_1  and  C_5
    3  A    between atoms: S_4  and  C_27
    4  A    between atoms: C_5  and  C_22
    5  A    between atoms: C_8  and  C_27
    6  A    between atoms: C_15  and  N_16
    7  A    between atoms: C_19  and  C_29
                            x       y       z     vdW  Elec       q    Type
                         _______ _______ _______ _____ _____    ______ ____

>  <TORSDO>
F 7

$$$$
=
 OpenBabel11052417093D

 30 32  0  0  1  0  0  0  0  0999 V2000
  185.4960  178.5220  145.8590 C   0  0  0  0  0  0  0  0  0  0  0  0
  185.5650  179.2080  147.1110 N   0  0  0  0  0  0  0  0  0  0  0  0
  184.5210  178.7340  145.0900 O   0  0  0  0  0  0  0  0  0  0  0  0
  187.3420  177.0270  146.6650 C   0  0  2  0  0  3  0  0  0  0  0  0
  186.6630  178.9960  148.0040 C   0  0  0  0  0  3  0  0  0  0  0  0
  186.6390  177.6320  145.4340 C   0  0  1  0  0  3  0  0  0  0  0  0
  187.5330  178.0100  147.7900 C   0  0  0  0  0  2  0  0  0  0  0  0
  190.0770  174.2760  146.0790 C   0  0  0  0  0  3  0  0  0  0  0  0
  191.0730  175.0120  145.5870 C   0  0  0  0  0  3  0  0  0  0  0  0
  188.7640  174.8690  146.5250 C   0  0  0  0  0  0  0  0  0  0  0  0
  191.8800  177.2320  144.9790 N   0  0  0  0  0  2  0  0  0  0  0  0
  189.6530  177.0900  145.8180 C   0  0  0  0  0  3  0  0  0  0  0  0
  188.5550  174.5610  147.8700 O   0  0  0  0  0  1  0  0  0  0  0  0
  190.9300  176.4720  145.4430 C   0  0  0  0  0  0  0  0  0  0  0  0
  188.6420  176.3620  146.3120 C   0  0  0  0  0  0  0  0  0  0  0  0
  193.3900  176.3230  143.4180 O   0  0  0  0  0  0  0  0  0  0  0  0
  193.1920  176.8340  144.5520 C   0  0  0  0  0  0  0  0  0  0  0  0
  194.2940  177.0210  145.4310 N   0  0  0  0  0  1  0  0  0  0  0  0
  186.1620  176.5140  144.5160 C   0  0  0  0  0  2  0  0  0  0  0  0
  186.0420  177.0300  143.0980 C   0  0  0  0  0  2  0  0  0  0  0  0
  187.6140  177.7830  142.5960 S   0  0  0  0  0  0  0  0  0  0  0  0
  188.1870  176.2660  141.8250 C   0  0  0  0  0  0  0  0  0  0  0  0
  187.8150  175.9800  140.5800 C   0  0  0  0  0  2  0  0  0  0  0  0
  190.6980  173.7090  142.1310 C   0  0  0  0  0  2  0  0  0  0  0  0
  189.0110  175.2800  142.5930 C   0  0  1  0  0  3  0  0  0  0  0  0
  189.3330  173.0680  142.1790 C   0  0  2  0  0  0  0  0  0  0  0  0
  188.3840  174.0170  142.6020 O   0  0  0  0  0  0  0  0  0  0  0  0
  190.3950  175.1620  141.9980 C   0  0  0  0  0  2  0  0  0  0  0  0
  189.3560  171.9030  143.1460 C   0  0  0  0  0  1  0  0  0  0  0  0
  188.9910  172.6060  140.9080 O   0  0  0  0  0  1  0  0  0  0  0  0
  1  2  1  0  0  0  0
  2  5  2  0  0  0  0
  3  1  2  0  0  0  0
  4 15  1  6  0  0  0
  4  7  1  0  0  0  0
  6 19  1  6  0  0  0
  6  1  1  0  0  0  0
  6  4  1  0  0  0  0
  7  5  1  0  0  0  0
  8 10  1  0  0  0  0
  9  8  2  0  0  0  0
 10 13  1  0  0  0  0
 11 14  1  0  0  0  0
 12 15  1  0  0  0  0
 14  9  1  0  0  0  0
 14 12  2  0  0  0  0
 15 10  2  0  0  0  0
 16 17  2  0  0  0  0
 17 11  1  0  0  0  0
 17 18  1  0  0  0  0
 20 19  1  0  0  0  0
 21 20  1  0  0  0  0
 22 21  1  0  0  0  0
 23 22  2  0  0  0  0
 24 26  1  0  0  0  0
 25 22  1  6  0  0  0
 25 27  1  0  0  0  0
 26 27  1  0  0  0  0
 26 29  1  1  0  0  0
 28 24  1  0  0  0  0
 28 25  1  0  0  0  0
 30 26  1  0  0  0  0
M  END
>  <MODEL>
7

>  <REMARK>
 VINA RESULT:      -6.6      2.605      5.047
  Name = 
  7 active torsions:
  status: ('A' for Active; 'I' for Inactive)
    1  A    between atoms: C_1  and  S_4
    2  A    between atoms: C_1  and  C_5
    3  A    between atoms: S_4  and  C_27
    4  A    between atoms: C_5  and  C_22
    5  A    between atoms: C_8  and  C_27
    6  A    between atoms: C_15  and  N_16
    7  A    between atoms: C_19  and  C_29
                            x       y       z     vdW  Elec       q    Type
                         _______ _______ _______ _____ _____    ______ ____

>  <TORSDO>
F 7

$$$$
=
 OpenBabel11052417093D

 30 32  0  0  1  0  0  0  0  0999 V2000
  189.5240  176.4020  146.3130 C   0  0  0  0  0  0  0  0  0  0  0  0
  190.1150  176.7760  147.5600 N   0  0  0  0  0  2  0  0  0  0  0  0
  188.2930  176.5970  146.1280 O   0  0  0  0  0  0  0  0  0  0  0  0
  191.6270  175.1410  145.7850 C   0  0  2  0  0  3  0  0  0  0  0  0
  191.5110  176.5760  147.7990 C   0  0  0  0  0  3  0  0  0  0  0  0
  190.4010  175.8710  145.2050 C   0  0  1  0  0  3  0  0  0  0  0  0
  192.2480  175.8520  146.9590 C   0  0  0  0  0  3  0  0  0  0  0  0
  193.6410  173.3010  142.9650 C   0  0  0  0  0  3  0  0  0  0  0  0
  194.5600  174.2210  142.6710 C   0  0  0  0  0  3  0  0  0  0  0  0
  192.6100  173.4920  144.0490 C   0  0  0  0  0  0  0  0  0  0  0  0
  195.4920  176.4220  143.1570 N   0  0  0  0  0  2  0  0  0  0  0  0
  193.5920  175.7530  144.4330 C   0  0  0  0  0  3  0  0  0  0  0  0
  192.7410  172.4700  144.9900 O   0  0  0  0  0  1  0  0  0  0  0  0
  194.6040  175.5000  143.4010 C   0  0  0  0  0  0  0  0  0  0  0  0
  192.6610  174.8380  144.7380 C   0  0  0  0  0  0  0  0  0  0  0  0
  196.3950  176.7950  141.0150 O   0  0  0  0  0  0  0  0  0  0  0  0
  196.5560  176.3820  142.1940 C   0  0  0  0  0  0  0  0  0  0  0  0
  197.8210  175.8620  142.5810 N   0  0  0  0  0  1  0  0  0  0  0  0
  189.6290  174.9290  144.2890 C   0  0  0  0  0  2  0  0  0  0  0  0
  189.4240  175.5790  142.9380 C   0  0  0  0  0  2  0  0  0  0  0  0
  187.7530  175.2070  142.3380 S   0  0  0  0  0  0  0  0  0  0  0  0
  187.1380  176.8290  142.8050 C   0  0  0  0  0  0  0  0  0  0  0  0
  187.9410  177.8860  142.7220 C   0  0  0  0  0  2  0  0  0  0  0  0
  184.0130  178.5620  143.2200 C   0  0  0  0  0  2  0  0  0  0  0  0
  185.7580  176.9930  143.3630 C   0  0  1  0  0  3  0  0  0  0  0  0
  184.8660  178.7830  144.4450 C   0  0  2  0  0  0  0  0  0  0  0  0
  185.7980  177.7340  144.5620 O   0  0  0  0  0  0  0  0  0  0  0  0
  184.8560  177.6790  142.3640 C   0  0  0  0  0  2  0  0  0  0  0  0
  183.9820  178.8200  145.6740 C   0  0  0  0  0  1  0  0  0  0  0  0
  185.5450  179.9950  144.3270 O   0  0  0  0  0  1  0  0  0  0  0  0
  1  2  1  0  0  0  0
  2  5  1  0  0  0  0
  3  1  2  0  0  0  0
  4 15  1  6  0  0  0
  4  7  1  0  0  0  0
  6 19  1  1  0  0  0
  6  4  1  0  0  0  0
  6  1  1  0  0  0  0
  7  5  2  0  0  0  0
  8 10  1  0  0  0  0
  9  8  2  0  0  0  0
  9 14  1  0  0  0  0
 10 15  2  0  0  0  0
 10 13  1  0  0  0  0
 11 14  1  0  0  0  0
 12 15  1  0  0  0  0
 14 12  2  0  0  0  0
 16 17  2  0  0  0  0
 17 18  1  0  0  0  0
 17 11  1  0  0  0  0
 20 19  1  0  0  0  0
 21 22  1  0  0  0  0
 21 20  1  0  0  0  0
 23 22  2  0  0  0  0
 24 26  1  0  0  0  0
 25 22  1  6  0  0  0
 25 27  1  0  0  0  0
 26 27  1  0  0  0  0
 26 29  1  1  0  0  0
 28 24  1  0  0  0  0
 28 25  1  0  0  0  0
 30 26  1  0  0  0  0
M  END
>  <MODEL>
8

>  <REMARK>
 VINA RESULT:      -6.3      3.291      7.097
  Name = 
  7 active torsions:
  status: ('A' for Active; 'I' for Inactive)
    1  A    between atoms: C_1  and  S_4
    2  A    between atoms: C_1  and  C_5
    3  A    between atoms: S_4  and  C_27
    4  A    between atoms: C_5  and  C_22
    5  A    between atoms: C_8  and  C_27
    6  A    between atoms: C_15  and  N_16
    7  A    between atoms: C_19  and  C_29
                            x       y       z     vdW  Elec       q    Type
                         _______ _______ _______ _____ _____    ______ ____

>  <TORSDO>
F 7

$$$$
=
 OpenBabel11052417093D

 30 32  0  0  1  0  0  0  0  0999 V2000
  185.6590  177.3890  147.1410 C   0  0  0  0  0  0  0  0  0  0  0  0
  184.6770  178.4170  146.9900 N   0  0  0  0  0  2  0  0  0  0  0  0
  185.8710  176.8990  148.2830 O   0  0  0  0  0  0  0  0  0  0  0  0
  186.4550  177.9170  144.8220 C   0  0  2  0  0  3  0  0  0  0  0  0
  184.4060  178.9890  145.7070 C   0  0  0  0  0  3  0  0  0  0  0  0
  186.3550  176.8410  145.9200 C   0  0  1  0  0  3  0  0  0  0  0  0
  185.1990  178.7340  144.6670 C   0  0  0  0  0  3  0  0  0  0  0  0
  187.3620  177.6180  141.0170 C   0  0  0  0  0  3  0  0  0  0  0  0
  187.7720  176.3510  140.9550 C   0  0  0  0  0  3  0  0  0  0  0  0
  186.8450  178.2500  142.2850 C   0  0  0  0  0  0  0  0  0  0  0  0
  188.1280  174.2470  142.1370 N   0  0  0  0  0  2  0  0  0  0  0  0
  187.3000  176.0760  143.4220 C   0  0  0  0  0  3  0  0  0  0  0  0
  185.5430  178.7040  142.0740 O   0  0  0  0  0  1  0  0  0  0  0  0
  187.7500  175.4930  142.1530 C   0  0  0  0  0  0  0  0  0  0  0  0
  186.8870  177.3490  143.5000 C   0  0  0  0  0  0  0  0  0  0  0  0
  187.8360  172.7490  140.3440 O   0  0  0  0  0  0  0  0  0  0  0  0
  188.6040  173.4900  141.0130 C   0  0  0  0  0  0  0  0  0  0  0  0
  189.9760  173.5770  140.6490 N   0  0  0  0  0  1  0  0  0  0  0  0
  187.7480  176.3240  146.2590 C   0  0  0  0  0  2  0  0  0  0  0  0
  188.6640  177.4870  146.5760 C   0  0  0  0  0  2  0  0  0  0  0  0
  190.3650  176.8830  146.7490 S   0  0  0  0  0  0  0  0  0  0  0  0
  190.6460  176.9250  144.9760 C   0  0  0  0  0  0  0  0  0  0  0  0
  190.3830  178.0370  144.2950 C   0  0  0  0  0  2  0  0  0  0  0  0
  191.4790  173.4340  144.7390 C   0  0  0  0  0  2  0  0  0  0  0  0
  191.0940  175.7000  144.2420 C   0  0  1  0  0  3  0  0  0  0  0  0
  192.7520  174.2430  144.7870 C   0  0  2  0  0  0  0  0  0  0  0  0
  192.4930  175.5520  144.3400 O   0  0  0  0  0  0  0  0  0  0  0  0
  190.4080  174.4700  144.7880 C   0  0  0  0  0  2  0  0  0  0  0  0
  193.7940  173.5970  143.8980 C   0  0  0  0  0  1  0  0  0  0  0  0
  193.2260  174.2870  146.0990 O   0  0  0  0  0  1  0  0  0  0  0  0
  1  3  2  0  0  0  0
  2  1  1  0  0  0  0
  4 15  1  6  0  0  0
  4  6  1  0  0  0  0
  5  2  1  0  0  0  0
  6 19  1  1  0  0  0
  6  1  1  0  0  0  0
  7  4  1  0  0  0  0
  7  5  2  0  0  0  0
  8 10  1  0  0  0  0
  9  8  2  0  0  0  0
  9 14  1  0  0  0  0
 10 15  2  0  0  0  0
 11 14  1  0  0  0  0
 12 15  1  0  0  0  0
 13 10  1  0  0  0  0
 14 12  2  0  0  0  0
 16 17  2  0  0  0  0
 17 11  1  0  0  0  0
 18 17  1  0  0  0  0
 19 20  1  0  0  0  0
 20 21  1  0  0  0  0
 22 21  1  0  0  0  0
 23 22  2  0  0  0  0
 24 26  1  0  0  0  0
 24 28  1  0  0  0  0
 25 27  1  0  0  0  0
 25 28  1  0  0  0  0
 25 22  1  1  0  0  0
 26 29  1  6  0  0  0
 26 30  1  0  0  0  0
 27 26  1  0  0  0  0
M  END
>  <MODEL>
9

>  <REMARK>
 VINA RESULT:      -6.2      1.990      2.550
  Name = 
  7 active torsions:
  status: ('A' for Active; 'I' for Inactive)
    1  A    between atoms: C_1  and  S_4
    2  A    between atoms: C_1  and  C_5
    3  A    between atoms: S_4  and  C_27
    4  A    between atoms: C_5  and  C_22
    5  A    between atoms: C_8  and  C_27
    6  A    between atoms: C_15  and  N_16
    7  A    between atoms: C_19  and  C_29
                            x       y       z     vdW  Elec       q    Type
                         _______ _______ _______ _____ _____    ______ ____

>  <TORSDO>
F 7

$$$$
