=
 OpenBabel11052420263D

 34 37  0  0  1  0  0  0  0  0999 V2000
  193.3090  173.9820  144.8120 C   0  0  0  0  0  0  0  0  0  0  0  0
  195.9210  171.6040  145.7340 C   0  0  0  0  0  3  0  0  0  0  0  0
  196.0300  174.0220  145.7100 C   0  0  0  0  0  3  0  0  0  0  0  0
  191.2970  175.1730  143.8770 N   0  0  0  0  0  0  0  0  0  0  0  0
  191.9970  174.0010  144.2120 N   0  0  0  0  0  2  0  0  0  0  0  0
  192.9790  176.9490  143.6940 C   0  0  0  0  0  2  0  0  0  0  0  0
  194.0330  177.5000  145.7730 O   0  0  0  0  0  1  0  0  0  0  0  0
  192.1250  175.9280  142.9450 C   0  0  0  0  0  2  0  0  0  0  0  0
  195.3940  175.1780  145.5350 C   0  0  0  0  0  3  0  0  0  0  0  0
  194.0090  175.2160  145.1360 N   0  0  0  0  0  0  0  0  0  0  0  0
  193.3030  176.5030  145.1190 C   0  0  2  0  0  3  0  0  0  0  0  0
  195.2370  170.3130  145.5400 C   0  0  0  0  0  0  0  0  0  0  0  0
  193.9880  170.2790  145.0540 C   0  0  0  0  0  3  0  0  0  0  0  0
  195.3120  172.7650  145.4910 C   0  0  0  0  0  0  0  0  0  0  0  0
  193.2270  171.5070  144.6290 C   0  0  0  0  0  2  0  0  0  0  0  0
  193.9170  172.7970  145.0010 C   0  0  0  0  0  0  0  0  0  0  0  0
  190.1110  174.7590  143.1440 C   0  0  0  0  0  2  0  0  0  0  0  0
  188.0110  177.6340  144.4270 C   0  0  0  0  0  3  0  0  0  0  0  0
  188.2060  176.0350  142.1450 C   0  0  0  0  0  3  0  0  0  0  0  0
  187.1430  177.8540  143.3510 C   0  0  0  0  0  0  0  0  0  0  0  0
  187.2360  177.0460  142.1990 C   0  0  0  0  0  0  0  0  0  0  0  0
  189.0660  175.8190  143.2250 C   0  0  0  0  0  0  0  0  0  0  0  0
  188.9720  176.6230  144.3630 C   0  0  0  0  0  3  0  0  0  0  0  0
  186.3350  177.2570  141.0550 C   0  0  0  0  0  3  0  0  0  0  0  0
  186.7700  177.6620  139.9440 O   0  0  0  0  0  0  0  0  0  0  0  0
  186.1180  178.9360  143.4690 C   0  0  0  0  0  2  0  0  0  0  0  0
  185.8570  179.2540  144.9320 C   0  0  0  0  0  2  0  0  0  0  0  0
  184.5370  178.6990  145.3530 C   0  0  0  0  0  0  0  0  0  0  0  0
  184.4610  177.7680  146.5140 C   0  0  0  0  0  1  0  0  0  0  0  0
  183.5190  179.0180  144.7610 O   0  0  0  0  0  0  0  0  0  0  0  0
  195.9350  169.1460  145.8950 O   0  0  0  0  0  0  0  0  0  0  0  0
  197.2860  168.6340  147.7200 O   0  0  0  0  0  0  0  0  0  0  0  0
  194.9750  168.1710  147.9740 C   0  0  0  0  0  1  0  0  0  0  0  0
  196.1410  168.6600  147.1950 C   0  0  0  0  0  0  0  0  0  0  0  0
  1 16  2  0  0  0  0
  1 10  1  0  0  0  0
  4  5  1  0  0  0  0
  5  1  1  0  0  0  0
  6 11  1  0  0  0  0
  8  6  1  0  0  0  0
  8  4  1  0  0  0  0
  9  3  2  0  0  0  0
 10  9  1  0  0  0  0
 11 10  1  0  0  0  0
 11  7  1  6  0  0  0
 12  2  1  0  0  0  0
 12 31  1  0  0  0  0
 13 12  2  0  0  0  0
 14  3  1  0  0  0  0
 14  2  2  0  0  0  0
 15 16  1  0  0  0  0
 15 13  1  0  0  0  0
 16 14  1  0  0  0  0
 17 22  1  0  0  0  0
 17  4  1  0  0  0  0
 19 21  2  0  0  0  0
 19 22  1  0  0  0  0
 20 26  1  0  0  0  0
 20 18  2  0  0  0  0
 21 20  1  0  0  0  0
 22 23  2  0  0  0  0
 23 18  1  0  0  0  0
 24 21  1  0  0  0  0
 25 24  2  0  0  0  0
 26 27  1  0  0  0  0
 27 28  1  0  0  0  0
 28 29  1  0  0  0  0
 30 28  2  0  0  0  0
 31 34  1  0  0  0  0
 34 32  2  0  0  0  0
 34 33  1  0  0  0  0
M  END
>  <MODEL>
1

>  <REMARK>
 VINA RESULT:      -7.4      0.000      0.000
  Name = 
  8 active torsions:
  status: ('A' for Active; 'I' for Inactive)
    1  A    between atoms: C_7  and  C_11
    2  A    between atoms: C_7  and  C_14
    3  A    between atoms: N_8  and  C_18
    4  A    between atoms: C_14  and  C_16
    5  A    between atoms: C_18  and  C_30
    6  A    between atoms: O_23  and  C_24
    7  A    between atoms: O_23  and  C_25
    8  A    between atoms: C_26  and  C_28
                            x       y       z     vdW  Elec       q    Type
                         _______ _______ _______ _____ _____    ______ ____

>  <TORSDO>
F 8

$$$$
=
 OpenBabel11052420263D

 34 37  0  0  1  0  0  0  0  0999 V2000
  191.1060  174.2720  144.3720 C   0  0  0  0  0  0  0  0  0  0  0  0
  190.2770  172.9820  141.0590 C   0  0  0  0  0  3  0  0  0  0  0  0
  192.3930  172.8710  142.2290 C   0  0  0  0  0  3  0  0  0  0  0  0
  191.2300  175.5150  146.5580 N   0  0  0  0  0  0  0  0  0  0  0  0
  190.5410  175.1080  145.4020 N   0  0  0  0  0  2  0  0  0  0  0  0
  193.6190  175.2910  146.0460 C   0  0  0  0  0  2  0  0  0  0  0  0
  194.3330  173.0270  145.7360 O   0  0  0  0  0  1  0  0  0  0  0  0
  192.4210  176.2360  146.1270 C   0  0  0  0  0  2  0  0  0  0  0  0
  193.0790  173.1100  143.3440 C   0  0  0  0  0  3  0  0  0  0  0  0
  192.4650  173.7630  144.4730 N   0  0  0  0  0  0  0  0  0  0  0  0
  193.2050  173.8540  145.7380 C   0  0  2  0  0  3  0  0  0  0  0  0
  188.8590  173.3620  140.9320 C   0  0  0  0  0  0  0  0  0  0  0  0
  188.2650  174.0790  141.8980 C   0  0  0  0  0  3  0  0  0  0  0  0
  190.9900  173.2820  142.1440 C   0  0  2  0  0  3  0  0  0  0  0  0
  188.9830  174.5820  143.1210 C   0  0  0  0  0  3  0  0  0  0  0  0
  190.3790  174.0260  143.2670 C   0  0  0  0  0  0  0  0  0  0  0  0
  190.3790  176.4780  147.2380 C   0  0  0  0  0  2  0  0  0  0  0  0
  188.5310  177.9550  144.2840 C   0  0  0  0  0  3  0  0  0  0  0  0
  187.9490  176.6120  146.6630 C   0  0  0  0  0  3  0  0  0  0  0  0
  187.2000  177.6630  144.6070 C   0  0  0  0  0  0  0  0  0  0  0  0
  186.9020  176.9890  145.8090 C   0  0  0  0  0  0  0  0  0  0  0  0
  189.2740  176.9100  146.3350 C   0  0  0  0  0  0  0  0  0  0  0  0
  189.5640  177.5760  145.1430 C   0  0  0  0  0  3  0  0  0  0  0  0
  185.5120  176.6720  146.1720 C   0  0  0  0  0  3  0  0  0  0  0  0
  184.8110  177.4760  146.8430 O   0  0  0  0  0  0  0  0  0  0  0  0
  186.1230  178.1030  143.6670 C   0  0  0  0  0  2  0  0  0  0  0  0
  185.9070  177.0520  142.5900 C   0  0  0  0  0  2  0  0  0  0  0  0
  185.9660  177.6810  141.2380 C   0  0  0  0  0  0  0  0  0  0  0  0
  187.0980  177.3620  140.3220 C   0  0  0  0  0  1  0  0  0  0  0  0
  185.0830  178.4410  140.8740 O   0  0  0  0  0  0  0  0  0  0  0  0
  188.1700  172.9360  139.7830 O   0  0  0  0  0  0  0  0  0  0  0  0
  187.8180  174.5540  138.1470 O   0  0  0  0  0  0  0  0  0  0  0  0
  189.0860  172.6640  137.4860 C   0  0  0  0  0  1  0  0  0  0  0  0
  188.3160  173.4470  138.4850 C   0  0  0  0  0  0  0  0  0  0  0  0
  1 10  1  0  0  0  0
  1  5  1  0  0  0  0
  3  9  2  0  0  0  0
  4 17  1  0  0  0  0
  5  4  1  0  0  0  0
  6  8  1  0  0  0  0
  8  4  1  0  0  0  0
  9 10  1  0  0  0  0
 10 11  1  0  0  0  0
 11  7  1  6  0  0  0
 11  6  1  0  0  0  0
 12  2  2  0  0  0  0
 12 13  1  0  0  0  0
 13 15  2  0  0  0  0
 14  2  1  1  0  0  0
 14  3  1  0  0  0  0
 14 16  1  0  0  0  0
 15 16  1  0  0  0  0
 16  1  2  0  0  0  0
 18 20  2  0  0  0  0
 18 23  1  0  0  0  0
 20 21  1  0  0  0  0
 21 24  1  0  0  0  0
 21 19  2  0  0  0  0
 22 19  1  0  0  0  0
 22 17  1  0  0  0  0
 23 22  2  0  0  0  0
 24 25  2  0  0  0  0
 26 20  1  0  0  0  0
 27 26  1  0  0  0  0
 28 27  1  0  0  0  0
 29 28  1  0  0  0  0
 30 28  2  0  0  0  0
 31 12  1  0  0  0  0
 32 34  2  0  0  0  0
 33 34  1  0  0  0  0
 34 31  1  0  0  0  0
M  END
>  <MODEL>
2

>  <REMARK>
 VINA RESULT:      -7.3      2.825      6.101
  Name = 
  8 active torsions:
  status: ('A' for Active; 'I' for Inactive)
    1  A    between atoms: C_7  and  C_11
    2  A    between atoms: C_7  and  C_14
    3  A    between atoms: N_8  and  C_18
    4  A    between atoms: C_14  and  C_16
    5  A    between atoms: C_18  and  C_30
    6  A    between atoms: O_23  and  C_24
    7  A    between atoms: O_23  and  C_25
    8  A    between atoms: C_26  and  C_28
                            x       y       z     vdW  Elec       q    Type
                         _______ _______ _______ _____ _____    ______ ____

>  <TORSDO>
F 8

$$$$
=
 OpenBabel11052420263D

 34 37  0  0  1  0  0  0  0  0999 V2000
  187.0730  177.0720  143.5460 C   0  0  0  0  0  0  0  0  0  0  0  0
  187.2290  176.1070  140.0290 C   0  0  0  0  0  3  0  0  0  0  0  0
  185.9230  177.8730  141.0460 C   0  0  0  0  0  3  0  0  0  0  0  0
  187.1410  177.1940  146.0600 N   0  0  0  0  0  0  0  0  0  0  0  0
  187.5060  176.6020  144.8390 N   0  0  0  0  0  2  0  0  0  0  0  0
  185.0970  178.4760  145.6160 C   0  0  0  0  0  2  0  0  0  0  0  0
  185.4270  180.3490  144.1620 O   0  0  0  0  0  1  0  0  0  0  0  0
  185.6860  177.1680  146.1420 C   0  0  0  0  0  2  0  0  0  0  0  0
  185.6230  178.5660  142.1420 C   0  0  0  0  0  3  0  0  0  0  0  0
  186.2130  178.2400  143.4170 N   0  0  0  0  0  0  0  0  0  0  0  0
  185.9850  179.1310  144.5610 C   0  0  2  0  0  3  0  0  0  0  0  0
  188.1850  174.9870  140.0650 C   0  0  0  0  0  0  0  0  0  0  0  0
  188.6760  174.5570  141.2370 C   0  0  0  0  0  3  0  0  0  0  0  0
  186.8680  176.7580  141.1350 C   0  0  2  0  0  3  0  0  0  0  0  0
  188.2660  175.1270  142.5680 C   0  0  0  0  0  3  0  0  0  0  0  0
  187.4130  176.3670  142.4530 C   0  0  0  0  0  0  0  0  0  0  0  0
  187.6360  176.3230  147.1140 C   0  0  0  0  0  2  0  0  0  0  0  0
  191.4180  176.2060  147.0760 C   0  0  0  0  0  3  0  0  0  0  0  0
  189.2650  174.7600  146.0400 C   0  0  0  0  0  3  0  0  0  0  0  0
  191.6590  175.0660  146.3000 C   0  0  0  0  0  0  0  0  0  0  0  0
  190.5740  174.3360  145.7720 C   0  0  0  0  0  0  0  0  0  0  0  0
  189.0320  175.9000  146.8130 C   0  0  0  0  0  0  0  0  0  0  0  0
  190.1100  176.6190  147.3360 C   0  0  0  0  0  3  0  0  0  0  0  0
  190.8020  173.1360  144.9510 C   0  0  0  0  0  3  0  0  0  0  0  0
  189.8400  172.4870  144.4600 O   0  0  0  0  0  0  0  0  0  0  0  0
  193.0750  174.6700  146.0330 C   0  0  0  0  0  2  0  0  0  0  0  0
  193.9540  175.9050  145.9210 C   0  0  0  0  0  2  0  0  0  0  0  0
  195.2820  175.5420  145.3450 C   0  0  0  0  0  0  0  0  0  0  0  0
  195.9900  174.3220  145.8250 C   0  0  0  0  0  1  0  0  0  0  0  0
  195.7820  176.2310  144.4690 O   0  0  0  0  0  0  0  0  0  0  0  0
  188.5620  174.4120  138.8390 O   0  0  0  0  0  0  0  0  0  0  0  0
  190.7310  173.6820  138.4130 O   0  0  0  0  0  0  0  0  0  0  0  0
  189.1060  171.9860  138.7350 C   0  0  0  0  0  1  0  0  0  0  0  0
  189.5240  173.4080  138.6490 C   0  0  0  0  0  0  0  0  0  0  0  0
  1  5  1  0  0  0  0
  2 12  2  0  0  0  0
  3 14  1  0  0  0  0
  3  9  2  0  0  0  0
  4  8  1  0  0  0  0
  4 17  1  0  0  0  0
  5  4  1  0  0  0  0
  6  8  1  0  0  0  0
  9 10  1  0  0  0  0
 10  1  1  0  0  0  0
 10 11  1  0  0  0  0
 11  7  1  6  0  0  0
 11  6  1  0  0  0  0
 12 13  1  0  0  0  0
 13 15  2  0  0  0  0
 14  2  1  6  0  0  0
 14 16  1  0  0  0  0
 16 15  1  0  0  0  0
 16  1  2  0  0  0  0
 18 23  1  0  0  0  0
 19 22  1  0  0  0  0
 20 18  2  0  0  0  0
 21 19  2  0  0  0  0
 21 20  1  0  0  0  0
 22 17  1  0  0  0  0
 22 23  2  0  0  0  0
 24 21  1  0  0  0  0
 25 24  2  0  0  0  0
 26 20  1  0  0  0  0
 27 26  1  0  0  0  0
 28 29  1  0  0  0  0
 28 27  1  0  0  0  0
 30 28  2  0  0  0  0
 31 12  1  0  0  0  0
 32 34  2  0  0  0  0
 34 33  1  0  0  0  0
 34 31  1  0  0  0  0
M  END
>  <MODEL>
3

>  <REMARK>
 VINA RESULT:      -7.3      3.492      8.752
  Name = 
  8 active torsions:
  status: ('A' for Active; 'I' for Inactive)
    1  A    between atoms: C_7  and  C_11
    2  A    between atoms: C_7  and  C_14
    3  A    between atoms: N_8  and  C_18
    4  A    between atoms: C_14  and  C_16
    5  A    between atoms: C_18  and  C_30
    6  A    between atoms: O_23  and  C_24
    7  A    between atoms: O_23  and  C_25
    8  A    between atoms: C_26  and  C_28
                            x       y       z     vdW  Elec       q    Type
                         _______ _______ _______ _____ _____    ______ ____

>  <TORSDO>
F 8

$$$$
=
 OpenBabel11052420263D

 34 37  0  0  1  0  0  0  0  0999 V2000
  191.7360  173.6830  143.9910 C   0  0  0  0  0  0  0  0  0  0  0  0
  190.5910  172.1780  140.8680 C   0  0  0  0  0  3  0  0  0  0  0  0
  192.6160  171.7090  142.1090 C   0  0  0  0  0  3  0  0  0  0  0  0
  192.1830  175.1580  145.9820 N   0  0  0  0  0  0  0  0  0  0  0  0
  191.4070  174.7750  144.8740 N   0  0  0  0  0  2  0  0  0  0  0  0
  194.4340  174.2680  145.5840 C   0  0  0  0  0  2  0  0  0  0  0  0
  194.5480  171.8770  145.6190 O   0  0  0  0  0  1  0  0  0  0  0  0
  193.5160  175.4850  145.4920 C   0  0  0  0  0  2  0  0  0  0  0  0
  193.3450  171.9250  143.2010 C   0  0  0  0  0  3  0  0  0  0  0  0
  192.9220  172.8690  144.2060 N   0  0  0  0  0  0  0  0  0  0  0  0
  193.6670  172.9520  145.4680 C   0  0  2  0  0  3  0  0  0  0  0  0
  189.3160  172.8810  140.6430 C   0  0  0  0  0  0  0  0  0  0  0  0
  188.9270  173.8560  141.4780 C   0  0  0  0  0  3  0  0  0  0  0  0
  191.3620  172.4430  141.9230 C   0  0  1  0  0  3  0  0  0  0  0  0
  189.7560  174.3340  142.6410 C   0  0  0  0  0  3  0  0  0  0  0  0
  190.9660  173.4710  142.9090 C   0  0  0  0  0  0  0  0  0  0  0  0
  191.6080  176.3930  146.4910 C   0  0  0  0  0  2  0  0  0  0  0  0
  187.8390  176.0630  146.5570 C   0  0  0  0  0  3  0  0  0  0  0  0
  189.8190  177.1600  144.9210 C   0  0  0  0  0  3  0  0  0  0  0  0
  187.4750  176.7300  145.3810 C   0  0  0  0  0  0  0  0  0  0  0  0
  188.4720  177.2820  144.5510 C   0  0  0  0  0  0  0  0  0  0  0  0
  190.1750  176.4900  146.0940 C   0  0  0  0  0  0  0  0  0  0  0  0
  189.1830  175.9470  146.9150 C   0  0  0  0  0  3  0  0  0  0  0  0
  188.1150  177.9860  143.3090 C   0  0  0  0  0  3  0  0  0  0  0  0
  188.8140  177.8700  142.2670 O   0  0  0  0  0  0  0  0  0  0  0  0
  186.0250  176.8160  145.0280 C   0  0  0  0  0  2  0  0  0  0  0  0
  185.1830  176.9240  146.2890 C   0  0  0  0  0  2  0  0  0  0  0  0
  184.8350  178.3510  146.5550 C   0  0  0  0  0  0  0  0  0  0  0  0
  185.7140  179.1780  147.4300 C   0  0  0  0  0  1  0  0  0  0  0  0
  183.8430  178.8470  146.0450 O   0  0  0  0  0  0  0  0  0  0  0  0
  188.5360  172.4810  139.5450 O   0  0  0  0  0  0  0  0  0  0  0  0
  189.1710  172.2700  137.3160 O   0  0  0  0  0  0  0  0  0  0  0  0
  188.1030  174.3020  137.9050 C   0  0  0  0  0  1  0  0  0  0  0  0
  188.6400  172.9560  138.2290 C   0  0  0  0  0  0  0  0  0  0  0  0
  1 10  1  0  0  0  0
  1  5  1  0  0  0  0
  3  9  2  0  0  0  0
  4 17  1  0  0  0  0
  5  4  1  0  0  0  0
  8  6  1  0  0  0  0
  8  4  1  0  0  0  0
  9 10  1  0  0  0  0
 10 11  1  0  0  0  0
 11  6  1  0  0  0  0
 11  7  1  6  0  0  0
 12  2  2  0  0  0  0
 12 13  1  0  0  0  0
 13 15  2  0  0  0  0
 14  2  1  6  0  0  0
 14  3  1  0  0  0  0
 14 16  1  0  0  0  0
 15 16  1  0  0  0  0
 16  1  2  0  0  0  0
 18 23  1  0  0  0  0
 19 22  1  0  0  0  0
 20 18  2  0  0  0  0
 21 19  2  0  0  0  0
 21 20  1  0  0  0  0
 22 17  1  0  0  0  0
 22 23  2  0  0  0  0
 24 21  1  0  0  0  0
 25 24  2  0  0  0  0
 26 20  1  0  0  0  0
 26 27  1  0  0  0  0
 27 28  1  0  0  0  0
 28 29  1  0  0  0  0
 30 28  2  0  0  0  0
 31 12  1  0  0  0  0
 32 34  2  0  0  0  0
 33 34  1  0  0  0  0
 34 31  1  0  0  0  0
M  END
>  <MODEL>
4

>  <REMARK>
 VINA RESULT:      -7.2      2.651      5.711
  Name = 
  8 active torsions:
  status: ('A' for Active; 'I' for Inactive)
    1  A    between atoms: C_7  and  C_11
    2  A    between atoms: C_7  and  C_14
    3  A    between atoms: N_8  and  C_18
    4  A    between atoms: C_14  and  C_16
    5  A    between atoms: C_18  and  C_30
    6  A    between atoms: O_23  and  C_24
    7  A    between atoms: O_23  and  C_25
    8  A    between atoms: C_26  and  C_28
                            x       y       z     vdW  Elec       q    Type
                         _______ _______ _______ _____ _____    ______ ____

>  <TORSDO>
F 8

$$$$
=
 OpenBabel11052420263D

 34 37  0  0  1  0  0  0  0  0999 V2000
  186.9840  177.7370  144.4450 C   0  0  0  0  0  0  0  0  0  0  0  0
  185.6000  177.5500  141.0730 C   0  0  0  0  0  3  0  0  0  0  0  0
  184.4360  177.9660  143.1550 C   0  0  0  0  0  3  0  0  0  0  0  0
  188.3630  177.5430  146.5430 N   0  0  0  0  0  0  0  0  0  0  0  0
  188.2170  177.4740  145.1470 N   0  0  0  0  0  2  0  0  0  0  0  0
  186.1070  177.3180  147.4810 C   0  0  0  0  0  2  0  0  0  0  0  0
  184.6620  179.1590  146.9770 O   0  0  0  0  0  1  0  0  0  0  0  0
  187.4130  176.6070  147.1300 C   0  0  0  0  0  2  0  0  0  0  0  0
  184.5110  178.1700  144.4680 C   0  0  0  0  0  3  0  0  0  0  0  0
  185.7760  178.1190  145.1590 N   0  0  0  0  0  0  0  0  0  0  0  0
  185.8350  178.5150  146.5720 C   0  0  2  0  0  3  0  0  0  0  0  0
  186.8020  177.2770  140.2660 C   0  0  0  0  0  0  0  0  0  0  0  0
  187.9880  177.0980  140.8650 C   0  0  0  0  0  3  0  0  0  0  0  0
  185.6570  177.6830  142.3980 C   0  0  0  0  0  0  0  0  0  0  0  0
  188.1750  177.1070  142.3590 C   0  0  0  0  0  2  0  0  0  0  0  0
  186.9440  177.5480  143.1140 C   0  0  0  0  0  0  0  0  0  0  0  0
  189.6920  177.0420  146.8520 C   0  0  0  0  0  2  0  0  0  0  0  0
  189.8600  173.5550  145.3920 C   0  0  0  0  0  3  0  0  0  0  0  0
  190.7750  176.1250  144.7920 C   0  0  0  0  0  3  0  0  0  0  0  0
  190.6100  173.7700  144.2280 C   0  0  0  0  0  0  0  0  0  0  0  0
  191.0760  175.0660  143.9250 C   0  0  0  0  0  0  0  0  0  0  0  0
  190.0300  175.9020  145.9530 C   0  0  0  0  0  0  0  0  0  0  0  0
  189.5680  174.6170  146.2490 C   0  0  0  0  0  3  0  0  0  0  0  0
  191.8670  175.3170  142.7100 C   0  0  0  0  0  3  0  0  0  0  0  0
  192.6200  176.3230  142.6150 O   0  0  0  0  0  0  0  0  0  0  0  0
  190.9140  172.6010  143.3480 C   0  0  0  0  0  2  0  0  0  0  0  0
  189.6290  171.8880  142.9600 C   0  0  0  0  0  2  0  0  0  0  0  0
  189.0500  172.5020  141.7290 C   0  0  0  0  0  0  0  0  0  0  0  0
  187.8810  173.4200  141.8390 C   0  0  0  0  0  1  0  0  0  0  0  0
  189.5420  172.2700  140.6360 O   0  0  0  0  0  0  0  0  0  0  0  0
  186.6530  177.2290  138.8700 O   0  0  0  0  0  0  0  0  0  0  0  0
  187.4600  175.0900  138.4320 O   0  0  0  0  0  0  0  0  0  0  0  0
  186.1800  176.0920  136.7070 C   0  0  0  0  0  1  0  0  0  0  0  0
  186.8080  176.0990  138.0530 C   0  0  0  0  0  0  0  0  0  0  0  0
  1  5  1  0  0  0  0
  1 10  1  0  0  0  0
  2 14  2  0  0  0  0
  3  9  2  0  0  0  0
  4 17  1  0  0  0  0
  4  8  1  0  0  0  0
  5  4  1  0  0  0  0
  8  6  1  0  0  0  0
  9 10  1  0  0  0  0
 10 11  1  0  0  0  0
 11  7  1  1  0  0  0
 11  6  1  0  0  0  0
 12 13  2  0  0  0  0
 12  2  1  0  0  0  0
 13 15  1  0  0  0  0
 14 16  1  0  0  0  0
 14  3  1  0  0  0  0
 15 16  1  0  0  0  0
 16  1  2  0  0  0  0
 18 23  1  0  0  0  0
 19 22  1  0  0  0  0
 20 18  2  0  0  0  0
 21 20  1  0  0  0  0
 21 19  2  0  0  0  0
 22 23  2  0  0  0  0
 22 17  1  0  0  0  0
 24 21  1  0  0  0  0
 25 24  2  0  0  0  0
 26 20  1  0  0  0  0
 27 26  1  0  0  0  0
 28 29  1  0  0  0  0
 28 27  1  0  0  0  0
 30 28  2  0  0  0  0
 31 12  1  0  0  0  0
 33 34  1  0  0  0  0
 34 32  2  0  0  0  0
 34 31  1  0  0  0  0
M  END
>  <MODEL>
5

>  <REMARK>
 VINA RESULT:      -7.2      4.236      9.193
  Name = 
  8 active torsions:
  status: ('A' for Active; 'I' for Inactive)
    1  A    between atoms: C_7  and  C_11
    2  A    between atoms: C_7  and  C_14
    3  A    between atoms: N_8  and  C_18
    4  A    between atoms: C_14  and  C_16
    5  A    between atoms: C_18  and  C_30
    6  A    between atoms: O_23  and  C_24
    7  A    between atoms: O_23  and  C_25
    8  A    between atoms: C_26  and  C_28
                            x       y       z     vdW  Elec       q    Type
                         _______ _______ _______ _____ _____    ______ ____

>  <TORSDO>
F 8

$$$$
=
 OpenBabel11052420263D

 34 37  0  0  1  0  0  0  0  0999 V2000
  189.1000  175.6230  144.2950 C   0  0  0  0  0  0  0  0  0  0  0  0
  188.5660  174.5550  140.8440 C   0  0  0  0  0  3  0  0  0  0  0  0
  187.1080  175.8810  142.2510 C   0  0  0  0  0  3  0  0  0  0  0  0
  189.8250  175.9020  146.6900 N   0  0  0  0  0  0  0  0  0  0  0  0
  190.0020  175.3850  145.3940 N   0  0  0  0  0  2  0  0  0  0  0  0
  187.4430  176.4560  146.8860 C   0  0  0  0  0  2  0  0  0  0  0  0
  186.7480  178.2530  145.4650 O   0  0  0  0  0  1  0  0  0  0  0  0
  188.5360  175.4290  147.1780 C   0  0  0  0  0  2  0  0  0  0  0  0
  186.9230  176.5070  143.4110 C   0  0  0  0  0  3  0  0  0  0  0  0
  187.9170  176.4540  144.4540 N   0  0  0  0  0  0  0  0  0  0  0  0
  187.7490  177.2940  145.6470 C   0  0  2  0  0  3  0  0  0  0  0  0
  189.7960  173.7930  140.5690 C   0  0  0  0  0  0  0  0  0  0  0  0
  190.7030  173.6050  141.5390 C   0  0  0  0  0  3  0  0  0  0  0  0
  188.3420  175.1240  142.0290 C   0  0  1  0  0  3  0  0  0  0  0  0
  190.5230  174.0930  142.9520 C   0  0  0  0  0  3  0  0  0  0  0  0
  189.3270  174.9980  143.1250 C   0  0  0  0  0  0  0  0  0  0  0  0
  190.8420  175.2910  147.5300 C   0  0  0  0  0  2  0  0  0  0  0  0
  194.2200  176.4160  146.2480 C   0  0  0  0  0  3  0  0  0  0  0  0
  192.5840  174.1550  146.1400 C   0  0  0  0  0  3  0  0  0  0  0  0
  194.6540  175.2790  145.5560 C   0  0  0  0  0  0  0  0  0  0  0  0
  193.8290  174.1370  145.4970 C   0  0  0  0  0  0  0  0  0  0  0  0
  192.1550  175.2950  146.8260 C   0  0  0  0  0  0  0  0  0  0  0  0
  192.9770  176.4230  146.8840 C   0  0  0  0  0  3  0  0  0  0  0  0
  194.2620  172.9300  144.7740 C   0  0  0  0  0  3  0  0  0  0  0  0
  193.7780  172.6310  143.6500 O   0  0  0  0  0  0  0  0  0  0  0  0
  195.9850  175.3210  144.8750 C   0  0  0  0  0  2  0  0  0  0  0  0
  195.9520  176.3090  143.7210 C   0  0  0  0  0  2  0  0  0  0  0  0
  195.3500  175.6710  142.5130 C   0  0  0  0  0  0  0  0  0  0  0  0
  193.9690  176.0410  142.0900 C   0  0  0  0  0  1  0  0  0  0  0  0
  195.9900  174.8620  141.8610 O   0  0  0  0  0  0  0  0  0  0  0  0
  189.9770  173.2950  139.2680 O   0  0  0  0  0  0  0  0  0  0  0  0
  191.9580  172.4660  138.3700 O   0  0  0  0  0  0  0  0  0  0  0  0
  190.3900  170.8470  139.1020 C   0  0  0  0  0  1  0  0  0  0  0  0
  190.8290  172.2490  138.8860 C   0  0  0  0  0  0  0  0  0  0  0  0
  1 10  1  0  0  0  0
  1  5  1  0  0  0  0
  3  9  2  0  0  0  0
  4  8  1  0  0  0  0
  4 17  1  0  0  0  0
  5  4  1  0  0  0  0
  6  8  1  0  0  0  0
  9 10  1  0  0  0  0
 10 11  1  0  0  0  0
 11  7  1  6  0  0  0
 11  6  1  0  0  0  0
 12  2  2  0  0  0  0
 12 13  1  0  0  0  0
 13 15  2  0  0  0  0
 14  2  1  1  0  0  0
 14  3  1  0  0  0  0
 14 16  1  0  0  0  0
 15 16  1  0  0  0  0
 16  1  2  0  0  0  0
 18 23  1  0  0  0  0
 19 22  1  0  0  0  0
 20 18  2  0  0  0  0
 21 20  1  0  0  0  0
 21 19  2  0  0  0  0
 22 23  2  0  0  0  0
 22 17  1  0  0  0  0
 24 21  1  0  0  0  0
 25 24  2  0  0  0  0
 26 20  1  0  0  0  0
 27 26  1  0  0  0  0
 28 27  1  0  0  0  0
 29 28  1  0  0  0  0
 30 28  2  0  0  0  0
 31 12  1  0  0  0  0
 32 34  2  0  0  0  0
 34 33  1  0  0  0  0
 34 31  1  0  0  0  0
M  END
>  <MODEL>
6

>  <REMARK>
 VINA RESULT:      -7.1      3.059      8.165
  Name = 
  8 active torsions:
  status: ('A' for Active; 'I' for Inactive)
    1  A    between atoms: C_7  and  C_11
    2  A    between atoms: C_7  and  C_14
    3  A    between atoms: N_8  and  C_18
    4  A    between atoms: C_14  and  C_16
    5  A    between atoms: C_18  and  C_30
    6  A    between atoms: O_23  and  C_24
    7  A    between atoms: O_23  and  C_25
    8  A    between atoms: C_26  and  C_28
                            x       y       z     vdW  Elec       q    Type
                         _______ _______ _______ _____ _____    ______ ____

>  <TORSDO>
F 8

$$$$
=
 OpenBabel11052420263D

 34 37  0  0  1  0  0  0  0  0999 V2000
  193.7850  173.7660  144.7000 C   0  0  0  0  0  0  0  0  0  0  0  0
  196.4030  171.5810  146.0030 C   0  0  0  0  0  3  0  0  0  0  0  0
  196.4190  173.9930  145.8060 C   0  0  0  0  0  3  0  0  0  0  0  0
  191.8120  174.7940  143.5210 N   0  0  0  0  0  0  0  0  0  0  0  0
  192.5280  173.6820  143.9970 N   0  0  0  0  0  2  0  0  0  0  0  0
  193.4330  176.6270  143.3400 C   0  0  0  0  0  2  0  0  0  0  0  0
  194.2890  177.3730  145.4490 O   0  0  0  0  0  1  0  0  0  0  0  0
  192.6850  175.5170  142.6040 C   0  0  0  0  0  2  0  0  0  0  0  0
  195.7550  175.1040  145.4950 C   0  0  0  0  0  3  0  0  0  0  0  0
  194.4070  175.0500  144.9850 N   0  0  0  0  0  0  0  0  0  0  0  0
  193.6550  176.2990  144.8150 C   0  0  2  0  0  3  0  0  0  0  0  0
  195.7890  170.2500  145.8530 C   0  0  0  0  0  0  0  0  0  0  0  0
  194.5870  170.1240  145.2720 C   0  0  0  0  0  3  0  0  0  0  0  0
  195.7720  172.6920  145.6260 C   0  0  0  0  0  0  0  0  0  0  0  0
  193.8160  171.2830  144.6980 C   0  0  0  0  0  2  0  0  0  0  0  0
  194.4220  172.6260  145.0250 C   0  0  0  0  0  0  0  0  0  0  0  0
  190.7090  174.2760  142.7290 C   0  0  0  0  0  2  0  0  0  0  0  0
  187.1320  175.5040  142.6010 C   0  0  0  0  0  3  0  0  0  0  0  0
  189.4000  175.8180  144.2000 C   0  0  0  0  0  3  0  0  0  0  0  0
  187.0720  176.3240  143.7350 C   0  0  0  0  0  0  0  0  0  0  0  0
  188.2170  176.4880  144.5420 C   0  0  0  0  0  0  0  0  0  0  0  0
  189.4530  175.0050  143.0660 C   0  0  0  0  0  0  0  0  0  0  0  0
  188.3160  174.8440  142.2700 C   0  0  0  0  0  3  0  0  0  0  0  0
  188.1800  177.3450  145.7380 C   0  0  0  0  0  3  0  0  0  0  0  0
  188.1240  176.8510  146.8960 O   0  0  0  0  0  0  0  0  0  0  0  0
  185.7890  177.0260  144.0430 C   0  0  0  0  0  2  0  0  0  0  0  0
  185.1560  177.5490  142.7640 C   0  0  0  0  0  2  0  0  0  0  0  0
  184.0690  178.5190  143.0860 C   0  0  0  0  0  0  0  0  0  0  0  0
  184.2000  179.4130  144.2710 C   0  0  0  0  0  1  0  0  0  0  0  0
  183.0810  178.5940  142.3730 O   0  0  0  0  0  0  0  0  0  0  0  0
  196.5010  169.1440  146.3490 O   0  0  0  0  0  0  0  0  0  0  0  0
  197.2650  168.2350  148.3500 O   0  0  0  0  0  0  0  0  0  0  0  0
  194.9210  168.1660  148.0040 C   0  0  0  0  0  1  0  0  0  0  0  0
  196.3040  168.5110  147.5850 C   0  0  0  0  0  0  0  0  0  0  0  0
  1 10  1  0  0  0  0
  1 16  2  0  0  0  0
  4  5  1  0  0  0  0
  5  1  1  0  0  0  0
  6 11  1  0  0  0  0
  8  6  1  0  0  0  0
  8  4  1  0  0  0  0
  9  3  2  0  0  0  0
 10  9  1  0  0  0  0
 11 10  1  0  0  0  0
 11  7  1  6  0  0  0
 12  2  1  0  0  0  0
 12 31  1  0  0  0  0
 13 12  2  0  0  0  0
 14  3  1  0  0  0  0
 14  2  2  0  0  0  0
 15 16  1  0  0  0  0
 15 13  1  0  0  0  0
 16 14  1  0  0  0  0
 17 22  1  0  0  0  0
 17  4  1  0  0  0  0
 18 20  1  0  0  0  0
 19 21  1  0  0  0  0
 20 26  1  0  0  0  0
 20 21  2  0  0  0  0
 21 24  1  0  0  0  0
 22 19  2  0  0  0  0
 23 18  2  0  0  0  0
 23 22  1  0  0  0  0
 24 25  2  0  0  0  0
 27 28  1  0  0  0  0
 27 26  1  0  0  0  0
 28 29  1  0  0  0  0
 30 28  2  0  0  0  0
 31 34  1  0  0  0  0
 34 33  1  0  0  0  0
 34 32  2  0  0  0  0
M  END
>  <MODEL>
7

>  <REMARK>
 VINA RESULT:      -7.0      1.393      2.082
  Name = 
  8 active torsions:
  status: ('A' for Active; 'I' for Inactive)
    1  A    between atoms: C_7  and  C_11
    2  A    between atoms: C_7  and  C_14
    3  A    between atoms: N_8  and  C_18
    4  A    between atoms: C_14  and  C_16
    5  A    between atoms: C_18  and  C_30
    6  A    between atoms: O_23  and  C_24
    7  A    between atoms: O_23  and  C_25
    8  A    between atoms: C_26  and  C_28
                            x       y       z     vdW  Elec       q    Type
                         _______ _______ _______ _____ _____    ______ ____

>  <TORSDO>
F 8

$$$$
=
 OpenBabel11052420263D

 34 37  0  0  1  0  0  0  0  0999 V2000
  194.5870  175.5350  142.2300 C   0  0  0  0  0  0  0  0  0  0  0  0
  197.5270  175.5520  140.0650 C   0  0  0  0  0  3  0  0  0  0  0  0
  197.4120  175.9640  142.4470 C   0  0  0  0  0  3  0  0  0  0  0  0
  192.2780  175.6290  143.2280 N   0  0  0  0  0  0  0  0  0  0  0  0
  193.1490  175.4810  142.1350 N   0  0  0  0  0  2  0  0  0  0  0  0
  193.5540  176.7940  144.9690 C   0  0  0  0  0  2  0  0  0  0  0  0
  195.3640  175.5080  145.8650 O   0  0  0  0  0  1  0  0  0  0  0  0
  192.5460  176.9290  143.8300 C   0  0  0  0  0  2  0  0  0  0  0  0
  196.6700  175.9980  143.5520 C   0  0  0  0  0  3  0  0  0  0  0  0
  195.2530  175.7370  143.5070 N   0  0  0  0  0  0  0  0  0  0  0  0
  194.5070  175.6180  144.7660 C   0  0  2  0  0  3  0  0  0  0  0  0
  196.9380  175.2350  138.7520 C   0  0  0  0  0  0  0  0  0  0  0  0
  195.6090  175.1010  138.6240 C   0  0  0  0  0  3  0  0  0  0  0  0
  196.7790  175.6590  141.1630 C   0  0  0  0  0  0  0  0  0  0  0  0
  194.6400  175.3090  139.7570 C   0  0  0  0  0  2  0  0  0  0  0  0
  195.3130  175.4720  141.0990 C   0  0  0  0  0  0  0  0  0  0  0  0
  190.9300  175.6870  142.6870 C   0  0  0  0  0  2  0  0  0  0  0  0
  188.1410  177.4340  144.5560 C   0  0  0  0  0  3  0  0  0  0  0  0
  189.9320  175.3270  144.9520 C   0  0  0  0  0  3  0  0  0  0  0  0
  188.1050  176.7090  145.7540 C   0  0  0  0  0  0  0  0  0  0  0  0
  189.0100  175.6480  145.9580 C   0  0  0  0  0  0  0  0  0  0  0  0
  189.9640  176.0560  143.7610 C   0  0  0  0  0  0  0  0  0  0  0  0
  189.0640  177.1060  143.5610 C   0  0  0  0  0  3  0  0  0  0  0  0
  188.9930  174.8730  147.2090 C   0  0  0  0  0  3  0  0  0  0  0  0
  189.9590  174.9130  148.0170 O   0  0  0  0  0  0  0  0  0  0  0  0
  187.1110  177.1050  146.7990 C   0  0  0  0  0  2  0  0  0  0  0  0
  185.6980  176.8400  146.3060 C   0  0  0  0  0  2  0  0  0  0  0  0
  184.8990  178.1000  146.3300 C   0  0  0  0  0  0  0  0  0  0  0  0
  185.5770  179.4120  146.1290 C   0  0  0  0  0  1  0  0  0  0  0  0
  183.6900  178.0590  146.4960 O   0  0  0  0  0  0  0  0  0  0  0  0
  197.8150  175.0680  137.6670 O   0  0  0  0  0  0  0  0  0  0  0  0
  197.2060  173.7170  135.8720 O   0  0  0  0  0  0  0  0  0  0  0  0
  197.3590  176.0390  135.4220 C   0  0  0  0  0  1  0  0  0  0  0  0
  197.4550  174.8660  136.3260 C   0  0  0  0  0  0  0  0  0  0  0  0
  1 10  1  0  0  0  0
  2 14  2  0  0  0  0
  3  9  2  0  0  0  0
  4  8  1  0  0  0  0
  5  1  1  0  0  0  0
  5  4  1  0  0  0  0
  8  6  1  0  0  0  0
 10  9  1  0  0  0  0
 10 11  1  0  0  0  0
 11  6  1  0  0  0  0
 11  7  1  1  0  0  0
 12  2  1  0  0  0  0
 13 12  2  0  0  0  0
 13 15  1  0  0  0  0
 14  3  1  0  0  0  0
 15 16  1  0  0  0  0
 16 14  1  0  0  0  0
 16  1  2  0  0  0  0
 17  4  1  0  0  0  0
 17 22  1  0  0  0  0
 18 20  1  0  0  0  0
 19 21  1  0  0  0  0
 20 21  2  0  0  0  0
 20 26  1  0  0  0  0
 21 24  1  0  0  0  0
 22 19  2  0  0  0  0
 23 22  1  0  0  0  0
 23 18  2  0  0  0  0
 24 25  2  0  0  0  0
 27 28  1  0  0  0  0
 27 26  1  0  0  0  0
 28 30  2  0  0  0  0
 29 28  1  0  0  0  0
 31 12  1  0  0  0  0
 32 34  2  0  0  0  0
 33 34  1  0  0  0  0
 34 31  1  0  0  0  0
M  END
>  <MODEL>
8

>  <REMARK>
 VINA RESULT:      -6.8      4.337      5.962
  Name = 
  8 active torsions:
  status: ('A' for Active; 'I' for Inactive)
    1  A    between atoms: C_7  and  C_11
    2  A    between atoms: C_7  and  C_14
    3  A    between atoms: N_8  and  C_18
    4  A    between atoms: C_14  and  C_16
    5  A    between atoms: C_18  and  C_30
    6  A    between atoms: O_23  and  C_24
    7  A    between atoms: O_23  and  C_25
    8  A    between atoms: C_26  and  C_28
                            x       y       z     vdW  Elec       q    Type
                         _______ _______ _______ _____ _____    ______ ____

>  <TORSDO>
F 8

$$$$
=
 OpenBabel11052420263D

 34 37  0  0  1  0  0  0  0  0999 V2000
  189.3900  173.8640  141.6430 C   0  0  0  0  0  0  0  0  0  0  0  0
  187.1690  176.0890  139.7880 C   0  0  0  0  0  3  0  0  0  0  0  0
  188.3950  174.1680  138.9730 C   0  0  0  0  0  3  0  0  0  0  0  0
  190.9720  172.7850  143.2780 N   0  0  0  0  0  0  0  0  0  0  0  0
  190.0320  173.7720  142.9310 N   0  0  0  0  0  2  0  0  0  0  0  0
  191.8720  171.9230  141.1650 C   0  0  0  0  0  2  0  0  0  0  0  0
  190.2680  170.7310  139.8460 O   0  0  0  0  0  1  0  0  0  0  0  0
  192.0790  172.8830  142.3340 C   0  0  0  0  0  2  0  0  0  0  0  0
  189.1840  173.1320  139.2510 C   0  0  0  0  0  3  0  0  0  0  0  0
  189.6700  172.9020  140.5890 N   0  0  0  0  0  0  0  0  0  0  0  0
  190.3940  171.6590  140.8830 C   0  0  2  0  0  3  0  0  0  0  0  0
  186.7470  177.0380  140.8340 C   0  0  0  0  0  0  0  0  0  0  0  0
  187.2600  176.9480  142.0700 C   0  0  0  0  0  3  0  0  0  0  0  0
  188.0160  175.0920  140.0430 C   0  0  2  0  0  3  0  0  0  0  0  0
  188.3100  175.9440  142.4640 C   0  0  0  0  0  3  0  0  0  0  0  0
  188.5770  174.9080  141.3990 C   0  0  0  0  0  0  0  0  0  0  0  0
  191.5000  173.1470  144.5830 C   0  0  0  0  0  2  0  0  0  0  0  0
  188.9400  174.9290  146.7250 C   0  0  0  0  0  3  0  0  0  0  0  0
  190.8940  175.5610  144.8320 C   0  0  0  0  0  3  0  0  0  0  0  0
  189.1550  176.2670  146.3710 C   0  0  0  0  0  0  0  0  0  0  0  0
  190.1380  176.5890  145.4130 C   0  0  0  0  0  0  0  0  0  0  0  0
  190.6710  174.2280  145.1870 C   0  0  0  0  0  0  0  0  0  0  0  0
  189.6970  173.9140  146.1390 C   0  0  0  0  0  3  0  0  0  0  0  0
  190.3820  177.9870  145.0230 C   0  0  0  0  0  3  0  0  0  0  0  0
  190.6260  178.2990  143.8280 O   0  0  0  0  0  0  0  0  0  0  0  0
  188.3090  177.3200  147.0120 C   0  0  0  0  0  2  0  0  0  0  0  0
  186.8360  176.9870  146.8400 C   0  0  0  0  0  2  0  0  0  0  0  0
  186.1550  178.0590  146.0560 C   0  0  0  0  0  0  0  0  0  0  0  0
  184.8470  178.6010  146.5220 C   0  0  0  0  0  1  0  0  0  0  0  0
  186.6720  178.5050  145.0440 O   0  0  0  0  0  0  0  0  0  0  0  0
  185.7930  178.0090  140.4860 O   0  0  0  0  0  0  0  0  0  0  0  0
  183.4940  177.9170  140.1310 O   0  0  0  0  0  0  0  0  0  0  0  0
  184.1880  178.2980  142.3660 C   0  0  0  0  0  1  0  0  0  0  0  0
  184.4620  178.0650  140.9250 C   0  0  0  0  0  0  0  0  0  0  0  0
  1  5  1  0  0  0  0
  2 14  1  0  0  0  0
  2 12  2  0  0  0  0
  3  9  2  0  0  0  0
  4 17  1  0  0  0  0
  5  4  1  0  0  0  0
  6  8  1  0  0  0  0
  8  4  1  0  0  0  0
  9 10  1  0  0  0  0
 10 11  1  0  0  0  0
 10  1  1  0  0  0  0
 11  7  1  6  0  0  0
 11  6  1  0  0  0  0
 12 13  1  0  0  0  0
 13 15  2  0  0  0  0
 14  3  1  1  0  0  0
 14 16  1  0  0  0  0
 16  1  2  0  0  0  0
 16 15  1  0  0  0  0
 17 22  1  0  0  0  0
 19 22  2  0  0  0  0
 19 21  1  0  0  0  0
 20 18  1  0  0  0  0
 20 26  1  0  0  0  0
 21 20  2  0  0  0  0
 22 23  1  0  0  0  0
 23 18  2  0  0  0  0
 24 21  1  0  0  0  0
 25 24  2  0  0  0  0
 27 26  1  0  0  0  0
 28 29  1  0  0  0  0
 28 27  1  0  0  0  0
 30 28  2  0  0  0  0
 31 12  1  0  0  0  0
 31 34  1  0  0  0  0
 32 34  2  0  0  0  0
 34 33  1  0  0  0  0
M  END
>  <MODEL>
9

>  <REMARK>
 VINA RESULT:      -6.7      3.907      8.161
  Name = 
  8 active torsions:
  status: ('A' for Active; 'I' for Inactive)
    1  A    between atoms: C_7  and  C_11
    2  A    between atoms: C_7  and  C_14
    3  A    between atoms: N_8  and  C_18
    4  A    between atoms: C_14  and  C_16
    5  A    between atoms: C_18  and  C_30
    6  A    between atoms: O_23  and  C_24
    7  A    between atoms: O_23  and  C_25
    8  A    between atoms: C_26  and  C_28
                            x       y       z     vdW  Elec       q    Type
                         _______ _______ _______ _____ _____    ______ ____

>  <TORSDO>
F 8

$$$$
