=
 OpenBabel11052419013D

 34 38  0  0  1  0  0  0  0  0999 V2000
  193.5590  174.6820  145.7520 C   0  0  1  0  0  3  0  0  0  0  0  0
  193.3470  176.0710  143.7900 C   0  0  1  0  0  3  0  0  0  0  0  0
  191.3810  174.5730  144.4370 C   0  0  1  0  0  3  0  0  0  0  0  0
  194.8730  175.4500  145.5980 C   0  0  2  0  0  3  0  0  0  0  0  0
  194.7600  176.2570  144.3100 C   0  0  0  0  0  2  0  0  0  0  0  0
  191.2730  177.0100  144.8190 C   0  0  0  0  0  3  0  0  0  0  0  0
  192.9070  174.7410  144.3880 C   0  0  2  0  0  3  0  0  0  0  0  0
  195.9640  174.5820  145.4960 O   0  0  0  0  0  1  0  0  0  0  0  0
  192.5480  177.1600  144.2620 O   0  0  0  0  0  0  0  0  0  0  0  0
  190.6890  175.8100  144.9520 C   0  0  0  0  0  0  0  0  0  0  0  0
  189.4850  173.3820  143.1610 C   0  0  1  0  0  3  0  0  0  0  0  0
  187.6510  172.5410  141.8650 O   0  0  0  0  0  1  0  0  0  0  0  0
  189.3130  173.7180  140.6180 C   0  0  0  0  0  2  0  0  0  0  0  0
  191.0120  172.2060  139.8060 O   0  0  0  0  0  1  0  0  0  0  0  0
  190.8140  174.1570  143.0660 C   0  0  2  0  0  3  0  0  0  0  0  0
  189.0190  172.8110  141.8130 C   0  0  1  0  0  3  0  0  0  0  0  0
  191.7900  174.0970  141.0760 C   0  0  0  0  0  2  0  0  0  0  0  0
  190.7460  173.5450  140.1040 C   0  0  2  0  0  3  0  0  0  0  0  0
  191.7440  173.4310  142.3090 O   0  0  0  0  0  0  0  0  0  0  0  0
  189.5760  172.2390  144.1630 C   0  0  0  0  0  1  0  0  0  0  0  0
  189.3420  175.6410  145.6140 C   0  0  2  0  0  3  0  0  0  0  0  0
  189.1950  176.6430  146.7470 C   0  0  2  0  0  3  0  0  0  0  0  0
  189.4120  175.1780  147.0620 C   0  0  0  0  0  2  0  0  0  0  0  0
  187.7280  176.9830  146.9260 C   0  0  0  0  0  2  0  0  0  0  0  0
  187.1560  177.5640  145.6420 C   0  0  0  0  0  2  0  0  0  0  0  0
  185.8030  176.9200  145.2860 C   0  0  2  0  0  3  0  0  0  0  0  0
  185.1870  177.4880  144.0800 N   0  0  0  0  0  0  0  0  0  0  0  0
  184.4850  179.0510  144.5250 S   0  0  0  0  0  0  0  0  0  0  0  0
  184.2390  178.5260  146.2520 C   0  0  0  0  0  2  0  0  0  0  0  0
  184.8140  177.1330  146.4120 C   0  0  0  0  0  2  0  0  0  0  0  0
  186.1320  179.0360  142.6110 O   0  0  0  0  0  1  0  0  0  0  0  0
  186.1520  177.6980  143.0060 C   0  0  0  0  0  2  0  0  0  0  0  0
  193.7630  173.3530  146.1390 O   0  0  0  0  0  0  0  0  0  0  0  0
  193.7390  172.6270  144.9480 C   0  0  0  0  0  1  0  0  0  0  0  0
  1 33  1  6  0  0  0
  2  9  1  0  0  0  0
  2  5  1  1  0  0  0
  2  7  1  0  0  0  0
  3 10  1  6  0  0  0
  4  8  1  6  0  0  0
  4  1  1  0  0  0  0
  5  4  1  0  0  0  0
  6 10  2  0  0  0  0
  7  3  1  0  0  0  0
  7  1  1  0  0  0  0
  9  6  1  0  0  0  0
 10 21  1  0  0  0  0
 11 20  1  0  0  0  0
 13 16  1  0  0  0  0
 14 18  1  0  0  0  0
 15 11  1  0  0  0  0
 15  3  1  0  0  0  0
 16 12  1  0  0  0  0
 16 11  1  0  0  0  0
 17 19  1  0  0  0  0
 18 13  1  0  0  0  0
 18 17  1  0  0  0  0
 19 15  1  0  0  0  0
 21 22  1  0  0  0  0
 21 23  1  0  0  0  0
 22 24  1  0  0  0  0
 22 23  1  0  0  0  0
 25 24  1  0  0  0  0
 26 25  1  0  0  0  0
 26 30  1  0  0  0  0
 27 28  1  0  0  0  0
 27 26  1  0  0  0  0
 28 29  1  0  0  0  0
 29 30  1  0  0  0  0
 31 32  1  0  0  0  0
 32 27  1  0  0  0  0
 34 33  1  0  0  0  0
M  END
>  <MODEL>
1

>  <REMARK>
 VINA RESULT:      -7.6      0.000      0.000
  Name = 
  7 active torsions:
  status: ('A' for Active; 'I' for Inactive)
    1  A    between atoms: C_1  and  O_24
    2  A    between atoms: C_3  and  C_13
    3  A    between atoms: C_3  and  C_17
    4  A    between atoms: C_4  and  C_21
    5  A    between atoms: C_5  and  C_31
    6  A    between atoms: N_14  and  C_34
    7  A    between atoms: C_17  and  C_18
                            x       y       z     vdW  Elec       q    Type
                         _______ _______ _______ _____ _____    ______ ____

>  <TORSDO>
F 7

$$$$
=
 OpenBabel11052419013D

 34 38  0  0  1  0  0  0  0  0999 V2000
  193.4180  174.6410  145.8150 C   0  0  1  0  0  3  0  0  0  0  0  0
  193.0930  176.1480  143.9580 C   0  0  1  0  0  3  0  0  0  0  0  0
  191.2460  174.4680  144.4980 C   0  0  1  0  0  3  0  0  0  0  0  0
  194.6720  175.5120  145.7150 C   0  0  2  0  0  3  0  0  0  0  0  0
  194.4920  176.3990  144.4880 C   0  0  0  0  0  2  0  0  0  0  0  0
  190.9630  176.8570  145.0530 C   0  0  0  0  0  3  0  0  0  0  0  0
  192.7560  174.7500  144.4590 C   0  0  2  0  0  3  0  0  0  0  0  0
  195.8220  174.7350  145.5500 O   0  0  0  0  0  1  0  0  0  0  0  0
  192.2200  177.1390  144.5070 O   0  0  0  0  0  0  0  0  0  0  0  0
  190.4690  175.6110  145.1010 C   0  0  0  0  0  0  0  0  0  0  0  0
  189.3760  173.3250  143.1410 C   0  0  1  0  0  3  0  0  0  0  0  0
  187.5660  172.5340  141.7820 O   0  0  0  0  0  1  0  0  0  0  0  0
  189.2410  173.7720  140.6130 C   0  0  0  0  0  2  0  0  0  0  0  0
  190.9600  172.3060  139.7620 O   0  0  0  0  0  1  0  0  0  0  0  0
  190.7020  174.1100  143.1010 C   0  0  2  0  0  3  0  0  0  0  0  0
  188.9330  172.8120  141.7630 C   0  0  1  0  0  3  0  0  0  0  0  0
  191.7090  174.1430  141.1260 C   0  0  0  0  0  2  0  0  0  0  0  0
  190.6830  173.6280  140.1140 C   0  0  2  0  0  3  0  0  0  0  0  0
  191.6470  173.4220  142.3270 O   0  0  0  0  0  0  0  0  0  0  0  0
  189.4580  172.1400  144.0940 C   0  0  0  0  0  1  0  0  0  0  0  0
  189.1420  175.2980  145.7500 C   0  0  2  0  0  3  0  0  0  0  0  0
  188.8220  176.3480  146.8000 C   0  0  2  0  0  3  0  0  0  0  0  0
  189.2370  174.9570  147.2300 C   0  0  0  0  0  2  0  0  0  0  0  0
  187.3160  176.4840  146.9270 C   0  0  0  0  0  2  0  0  0  0  0  0
  186.6850  176.7100  145.5620 C   0  0  0  0  0  2  0  0  0  0  0  0
  187.0840  178.0760  144.9740 C   0  0  2  0  0  3  0  0  0  0  0  0
  185.9630  179.0210  144.8840 N   0  0  0  0  0  0  0  0  0  0  0  0
  184.9790  178.5510  143.4890 S   0  0  0  0  0  0  0  0  0  0  0  0
  186.4110  177.8090  142.6430 C   0  0  0  0  0  2  0  0  0  0  0  0
  187.6100  177.9020  143.5660 C   0  0  0  0  0  2  0  0  0  0  0  0
  183.7910  178.8030  145.7100 O   0  0  0  0  0  1  0  0  0  0  0  0
  185.1220  179.0050  146.0760 C   0  0  0  0  0  2  0  0  0  0  0  0
  193.7210  173.3060  146.1060 O   0  0  0  0  0  0  0  0  0  0  0  0
  193.7710  172.6730  144.8640 C   0  0  0  0  0  1  0  0  0  0  0  0
  1 33  1  6  0  0  0
  2  7  1  0  0  0  0
  2  5  1  1  0  0  0
  2  9  1  0  0  0  0
  3 10  1  6  0  0  0
  4  8  1  6  0  0  0
  4  1  1  0  0  0  0
  5  4  1  0  0  0  0
  6 10  2  0  0  0  0
  7  3  1  0  0  0  0
  7  1  1  0  0  0  0
  9  6  1  0  0  0  0
 10 21  1  0  0  0  0
 11 20  1  0  0  0  0
 13 16  1  0  0  0  0
 14 18  1  0  0  0  0
 15 11  1  0  0  0  0
 15  3  1  0  0  0  0
 16 12  1  0  0  0  0
 16 11  1  0  0  0  0
 17 19  1  0  0  0  0
 18 13  1  0  0  0  0
 18 17  1  0  0  0  0
 19 15  1  0  0  0  0
 21 22  1  0  0  0  0
 21 23  1  0  0  0  0
 22 24  1  0  0  0  0
 22 23  1  0  0  0  0
 25 24  1  0  0  0  0
 26 25  1  0  0  0  0
 27 26  1  0  0  0  0
 27 32  1  0  0  0  0
 28 27  1  0  0  0  0
 29 28  1  0  0  0  0
 29 30  1  0  0  0  0
 30 26  1  0  0  0  0
 31 32  1  0  0  0  0
 34 33  1  0  0  0  0
M  END
>  <MODEL>
2

>  <REMARK>
 VINA RESULT:      -7.6      0.921      1.468
  Name = 
  7 active torsions:
  status: ('A' for Active; 'I' for Inactive)
    1  A    between atoms: C_1  and  O_24
    2  A    between atoms: C_3  and  C_13
    3  A    between atoms: C_3  and  C_17
    4  A    between atoms: C_4  and  C_21
    5  A    between atoms: C_5  and  C_31
    6  A    between atoms: N_14  and  C_34
    7  A    between atoms: C_17  and  C_18
                            x       y       z     vdW  Elec       q    Type
                         _______ _______ _______ _____ _____    ______ ____

>  <TORSDO>
F 7

$$$$
=
 OpenBabel11052419013D

 34 38  0  0  1  0  0  0  0  0999 V2000
  192.0120  175.9800  145.3800 C   0  0  1  0  0  3  0  0  0  0  0  0
  190.0580  175.4870  146.7070 C   0  0  1  0  0  3  0  0  0  0  0  0
  189.7580  175.8780  144.2000 C   0  0  1  0  0  3  0  0  0  0  0  0
  192.4800  175.8100  146.8260 C   0  0  2  0  0  3  0  0  0  0  0  0
  191.2280  175.5850  147.6670 C   0  0  0  0  0  2  0  0  0  0  0  0
  189.6070  173.5980  145.1360 C   0  0  0  0  0  3  0  0  0  0  0  0
  190.5270  176.2520  145.4760 C   0  0  2  0  0  3  0  0  0  0  0  0
  193.1390  176.9520  147.2880 O   0  0  0  0  0  1  0  0  0  0  0  0
  189.8250  174.1050  146.4220 O   0  0  0  0  0  0  0  0  0  0  0  0
  189.5940  174.3860  144.0510 C   0  0  0  0  0  0  0  0  0  0  0  0
  188.0760  177.1860  142.7490 C   0  0  1  0  0  3  0  0  0  0  0  0
  186.3330  178.1700  141.4300 O   0  0  0  0  0  1  0  0  0  0  0  0
  185.6870  177.5220  143.6360 C   0  0  0  0  0  2  0  0  0  0  0  0
  185.9910  179.3440  145.1910 O   0  0  0  0  0  1  0  0  0  0  0  0
  188.3920  176.5890  144.1350 C   0  0  2  0  0  3  0  0  0  0  0  0
  186.8060  178.0490  142.7370 C   0  0  1  0  0  3  0  0  0  0  0  0
  187.0540  177.2630  145.7700 C   0  0  0  0  0  2  0  0  0  0  0  0
  185.8690  177.9560  145.0940 C   0  0  2  0  0  3  0  0  0  0  0  0
  188.2610  177.5720  145.1260 O   0  0  0  0  0  0  0  0  0  0  0  0
  189.2350  178.0250  142.2270 C   0  0  0  0  0  1  0  0  0  0  0  0
  189.4260  173.8300  142.6560 C   0  0  2  0  0  3  0  0  0  0  0  0
  190.5260  172.8230  142.3670 C   0  0  2  0  0  3  0  0  0  0  0  0
  190.5580  174.1840  141.7030 C   0  0  0  0  0  2  0  0  0  0  0  0
  190.0130  171.7940  141.3780 C   0  0  0  0  0  2  0  0  0  0  0  0
  190.4700  172.1360  139.9680 C   0  0  0  0  0  2  0  0  0  0  0  0
  189.3800  171.8160  138.9280 C   0  0  2  0  0  3  0  0  0  0  0  0
  189.7960  172.0870  137.5460 N   0  0  0  0  0  0  0  0  0  0  0  0
  189.7160  173.8370  137.2980 S   0  0  0  0  0  0  0  0  0  0  0  0
  188.4110  174.0250  138.5550 C   0  0  0  0  0  2  0  0  0  0  0  0
  188.1550  172.6680  139.1800 C   0  0  0  0  0  2  0  0  0  0  0  0
  191.8920  172.6790  136.7070 O   0  0  0  0  0  1  0  0  0  0  0  0
  191.1570  171.6380  137.2750 C   0  0  0  0  0  2  0  0  0  0  0  0
  192.6620  177.0370  144.7330 O   0  0  0  0  0  0  0  0  0  0  0  0
  193.4290  176.4280  143.7400 C   0  0  0  0  0  1  0  0  0  0  0  0
  1 33  1  1  0  0  0
  1  7  1  0  0  0  0
  1  4  1  0  0  0  0
  2  5  1  1  0  0  0
  3 10  1  1  0  0  0
  3  7  1  0  0  0  0
  4  8  1  1  0  0  0
  4  5  1  0  0  0  0
  6  9  1  0  0  0  0
  7  2  1  0  0  0  0
  9  2  1  0  0  0  0
 10  6  2  0  0  0  0
 11 15  1  0  0  0  0
 12 16  1  0  0  0  0
 13 18  1  0  0  0  0
 15  3  1  0  0  0  0
 15 19  1  0  0  0  0
 16 11  1  0  0  0  0
 16 13  1  0  0  0  0
 18 14  1  0  0  0  0
 18 17  1  0  0  0  0
 19 17  1  0  0  0  0
 20 11  1  0  0  0  0
 21 10  1  0  0  0  0
 22 21  1  0  0  0  0
 23 22  1  0  0  0  0
 23 21  1  0  0  0  0
 24 22  1  0  0  0  0
 25 24  1  0  0  0  0
 26 30  1  0  0  0  0
 26 25  1  0  0  0  0
 27 26  1  0  0  0  0
 28 27  1  0  0  0  0
 28 29  1  0  0  0  0
 29 30  1  0  0  0  0
 31 32  1  0  0  0  0
 32 27  1  0  0  0  0
 34 33  1  0  0  0  0
M  END
>  <MODEL>
3

>  <REMARK>
 VINA RESULT:      -7.4      3.243      6.577
  Name = 
  7 active torsions:
  status: ('A' for Active; 'I' for Inactive)
    1  A    between atoms: C_1  and  O_24
    2  A    between atoms: C_3  and  C_13
    3  A    between atoms: C_3  and  C_17
    4  A    between atoms: C_4  and  C_21
    5  A    between atoms: C_5  and  C_31
    6  A    between atoms: N_14  and  C_34
    7  A    between atoms: C_17  and  C_18
                            x       y       z     vdW  Elec       q    Type
                         _______ _______ _______ _____ _____    ______ ____

>  <TORSDO>
F 7

$$$$
=
 OpenBabel11052419013D

 34 38  0  0  1  0  0  0  0  0999 V2000
  189.3600  173.9700  142.2500 C   0  0  1  0  0  3  0  0  0  0  0  0
  190.8090  172.2770  143.1760 C   0  0  1  0  0  3  0  0  0  0  0  0
  190.6860  174.5450  144.3460 C   0  0  1  0  0  3  0  0  0  0  0  0
  189.2470  172.7380  141.3500 C   0  0  2  0  0  3  0  0  0  0  0  0
  190.2310  171.7080  141.8940 C   0  0  0  0  0  2  0  0  0  0  0  0
  189.5840  172.5690  145.3330 C   0  0  0  0  0  3  0  0  0  0  0  0
  190.6530  173.7830  143.0120 C   0  0  2  0  0  3  0  0  0  0  0  0
  189.5880  173.0370  140.0280 O   0  0  0  0  0  1  0  0  0  0  0  0
  190.0440  171.7760  144.2760 O   0  0  0  0  0  0  0  0  0  0  0  0
  189.8330  173.8850  145.4000 C   0  0  0  0  0  0  0  0  0  0  0  0
  192.6250  176.1950  144.7500 C   0  0  1  0  0  3  0  0  0  0  0  0
  194.3870  177.6780  145.4140 O   0  0  0  0  0  1  0  0  0  0  0  0
  194.6080  175.4330  146.1970 C   0  0  0  0  0  2  0  0  0  0  0  0
  195.8730  174.0970  144.6330 O   0  0  0  0  0  1  0  0  0  0  0  0
  192.1290  174.7380  144.8500 C   0  0  2  0  0  3  0  0  0  0  0  0
  194.1170  176.3520  145.0780 C   0  0  1  0  0  3  0  0  0  0  0  0
  193.7120  173.2400  145.2590 C   0  0  0  0  0  2  0  0  0  0  0  0
  194.9520  174.0310  145.6800 C   0  0  2  0  0  3  0  0  0  0  0  0
  193.0320  173.8770  144.2100 O   0  0  0  0  0  0  0  0  0  0  0  0
  192.3710  176.7760  143.3650 C   0  0  0  0  0  1  0  0  0  0  0  0
  189.2790  174.7520  146.5050 C   0  0  2  0  0  3  0  0  0  0  0  0
  189.2870  176.2080  146.0700 C   0  0  2  0  0  3  0  0  0  0  0  0
  190.2880  175.7240  147.0990 C   0  0  0  0  0  2  0  0  0  0  0  0
  188.1620  176.9450  146.7710 C   0  0  0  0  0  2  0  0  0  0  0  0
  187.3280  177.7240  145.7670 C   0  0  0  0  0  2  0  0  0  0  0  0
  186.0790  176.9340  145.3360 C   0  0  2  0  0  3  0  0  0  0  0  0
  185.2700  177.6280  144.3270 N   0  0  0  0  0  0  0  0  0  0  0  0
  184.3540  178.8960  145.1560 S   0  0  0  0  0  0  0  0  0  0  0  0
  184.3570  177.9680  146.7220 C   0  0  0  0  0  2  0  0  0  0  0  0
  185.1730  176.7060  146.5260 C   0  0  0  0  0  2  0  0  0  0  0  0
  185.8180  179.6140  143.2290 O   0  0  0  0  0  1  0  0  0  0  0  0
  186.0850  178.2450  143.2850 C   0  0  0  0  0  2  0  0  0  0  0  0
  189.3910  175.1610  141.5170 O   0  0  0  0  0  0  0  0  0  0  0  0
  188.1220  175.7150  141.6840 C   0  0  0  0  0  1  0  0  0  0  0  0
  1 33  1  6  0  0  0
  1  7  1  0  0  0  0
  2  5  1  6  0  0  0
  2  9  1  0  0  0  0
  3 15  1  0  0  0  0
  3 10  1  1  0  0  0
  4  8  1  6  0  0  0
  4  5  1  0  0  0  0
  4  1  1  0  0  0  0
  6 10  2  0  0  0  0
  7  2  1  0  0  0  0
  7  3  1  0  0  0  0
  9  6  1  0  0  0  0
 10 21  1  0  0  0  0
 11 15  1  0  0  0  0
 11 16  1  0  0  0  0
 14 18  1  0  0  0  0
 16 12  1  0  0  0  0
 16 13  1  0  0  0  0
 17 18  1  0  0  0  0
 18 13  1  0  0  0  0
 19 15  1  0  0  0  0
 19 17  1  0  0  0  0
 20 11  1  0  0  0  0
 21 23  1  0  0  0  0
 22 21  1  0  0  0  0
 22 24  1  0  0  0  0
 22 23  1  0  0  0  0
 25 24  1  0  0  0  0
 26 25  1  0  0  0  0
 26 30  1  0  0  0  0
 27 28  1  0  0  0  0
 27 26  1  0  0  0  0
 28 29  1  0  0  0  0
 30 29  1  0  0  0  0
 31 32  1  0  0  0  0
 32 27  1  0  0  0  0
 33 34  1  0  0  0  0
M  END
>  <MODEL>
4

>  <REMARK>
 VINA RESULT:      -7.4      1.366      4.786
  Name = 
  7 active torsions:
  status: ('A' for Active; 'I' for Inactive)
    1  A    between atoms: C_1  and  O_24
    2  A    between atoms: C_3  and  C_13
    3  A    between atoms: C_3  and  C_17
    4  A    between atoms: C_4  and  C_21
    5  A    between atoms: C_5  and  C_31
    6  A    between atoms: N_14  and  C_34
    7  A    between atoms: C_17  and  C_18
                            x       y       z     vdW  Elec       q    Type
                         _______ _______ _______ _____ _____    ______ ____

>  <TORSDO>
F 7

$$$$
=
 OpenBabel11052419013D

 34 38  0  0  1  0  0  0  0  0999 V2000
  193.9820  174.2840  144.0390 C   0  0  1  0  0  3  0  0  0  0  0  0
  193.3080  175.6790  142.1890 C   0  0  1  0  0  3  0  0  0  0  0  0
  191.5230  174.2910  143.3790 C   0  0  1  0  0  3  0  0  0  0  0  0
  195.2410  174.9790  143.5160 C   0  0  2  0  0  3  0  0  0  0  0  0
  194.8170  175.7890  142.2950 C   0  0  0  0  0  2  0  0  0  0  0  0
  191.6510  176.7310  143.7340 C   0  0  0  0  0  3  0  0  0  0  0  0
  192.9830  174.3760  142.9070 C   0  0  2  0  0  3  0  0  0  0  0  0
  196.2140  174.0530  143.1320 O   0  0  0  0  0  1  0  0  0  0  0  0
  192.7280  176.8100  142.8440 O   0  0  0  0  0  0  0  0  0  0  0  0
  191.0650  175.5650  144.0440 C   0  0  0  0  0  0  0  0  0  0  0  0
  189.2580  173.2650  142.7000 C   0  0  1  0  0  3  0  0  0  0  0  0
  187.0790  172.5810  141.9700 O   0  0  0  0  0  1  0  0  0  0  0  0
  188.4490  173.5620  140.2780 C   0  0  0  0  0  2  0  0  0  0  0  0
  189.7300  171.8740  139.1210 O   0  0  0  0  0  1  0  0  0  0  0  0
  190.5790  173.9040  142.2250 C   0  0  2  0  0  3  0  0  0  0  0  0
  188.4030  172.7140  141.5500 C   0  0  1  0  0  3  0  0  0  0  0  0
  190.9830  173.7050  140.0540 C   0  0  0  0  0  2  0  0  0  0  0  0
  189.6740  173.2370  139.4160 C   0  0  2  0  0  3  0  0  0  0  0  0
  191.2060  173.0730  141.2860 O   0  0  0  0  0  0  0  0  0  0  0  0
  189.5100  172.1410  143.6960 C   0  0  0  0  0  1  0  0  0  0  0  0
  189.9470  175.4710  145.0550 C   0  0  2  0  0  3  0  0  0  0  0  0
  190.0300  176.6380  146.0240 C   0  0  2  0  0  3  0  0  0  0  0  0
  190.4170  175.2480  146.4850 C   0  0  0  0  0  2  0  0  0  0  0  0
  188.6380  176.9660  146.5300 C   0  0  0  0  0  2  0  0  0  0  0  0
  187.7560  177.4500  145.3900 C   0  0  0  0  0  2  0  0  0  0  0  0
  186.3480  176.8330  145.4630 C   0  0  2  0  0  3  0  0  0  0  0  0
  185.3890  177.4580  144.5440 N   0  0  0  0  0  0  0  0  0  0  0  0
  184.9000  179.0050  145.2530 S   0  0  0  0  0  0  0  0  0  0  0  0
  185.2120  178.4060  146.9440 C   0  0  0  0  0  2  0  0  0  0  0  0
  185.7780  177.0030  146.8550 C   0  0  0  0  0  2  0  0  0  0  0  0
  185.6840  179.0190  142.8330 O   0  0  0  0  0  1  0  0  0  0  0  0
  185.9610  177.7080  143.2250 C   0  0  0  0  0  2  0  0  0  0  0  0
  194.2170  172.9470  144.3780 O   0  0  0  0  0  0  0  0  0  0  0  0
  194.0340  172.8920  145.7600 C   0  0  0  0  0  1  0  0  0  0  0  0
  1 33  1  6  0  0  0
  2  5  1  1  0  0  0
  2  9  1  0  0  0  0
  2  7  1  0  0  0  0
  3 10  1  6  0  0  0
  4  8  1  6  0  0  0
  4  1  1  0  0  0  0
  5  4  1  0  0  0  0
  6 10  2  0  0  0  0
  7  3  1  0  0  0  0
  7  1  1  0  0  0  0
  9  6  1  0  0  0  0
 10 21  1  0  0  0  0
 11 20  1  0  0  0  0
 13 16  1  0  0  0  0
 14 18  1  0  0  0  0
 15 11  1  0  0  0  0
 15  3  1  0  0  0  0
 16 12  1  0  0  0  0
 16 11  1  0  0  0  0
 17 19  1  0  0  0  0
 18 17  1  0  0  0  0
 18 13  1  0  0  0  0
 19 15  1  0  0  0  0
 21 22  1  0  0  0  0
 21 23  1  0  0  0  0
 22 23  1  0  0  0  0
 22 24  1  0  0  0  0
 25 26  1  0  0  0  0
 25 24  1  0  0  0  0
 26 30  1  0  0  0  0
 27 28  1  0  0  0  0
 27 26  1  0  0  0  0
 28 29  1  0  0  0  0
 30 29  1  0  0  0  0
 31 32  1  0  0  0  0
 32 27  1  0  0  0  0
 33 34  1  0  0  0  0
M  END
>  <MODEL>
5

>  <REMARK>
 VINA RESULT:      -7.2      1.173      1.243
  Name = 
  7 active torsions:
  status: ('A' for Active; 'I' for Inactive)
    1  A    between atoms: C_1  and  O_24
    2  A    between atoms: C_3  and  C_13
    3  A    between atoms: C_3  and  C_17
    4  A    between atoms: C_4  and  C_21
    5  A    between atoms: C_5  and  C_31
    6  A    between atoms: N_14  and  C_34
    7  A    between atoms: C_17  and  C_18
                            x       y       z     vdW  Elec       q    Type
                         _______ _______ _______ _____ _____    ______ ____

>  <TORSDO>
F 7

$$$$
=
 OpenBabel11052419013D

 34 38  0  0  1  0  0  0  0  0999 V2000
  190.5350  172.7960  141.5370 C   0  0  1  0  0  3  0  0  0  0  0  0
  191.2750  171.6410  143.5220 C   0  0  1  0  0  3  0  0  0  0  0  0
  191.6990  174.1540  143.3490 C   0  0  1  0  0  3  0  0  0  0  0  0
  190.1690  171.3210  141.3630 C   0  0  2  0  0  3  0  0  0  0  0  0
  190.7180  170.5880  142.5830 C   0  0  0  0  0  2  0  0  0  0  0  0
  189.9350  173.2850  144.8410 C   0  0  0  0  0  3  0  0  0  0  0  0
  191.6050  172.8120  142.6070 C   0  0  2  0  0  3  0  0  0  0  0  0
  190.7470  170.7820  140.2110 O   0  0  0  0  0  1  0  0  0  0  0  0
  190.2630  171.9740  144.4750 O   0  0  0  0  0  0  0  0  0  0  0  0
  190.5600  174.3500  144.3190 C   0  0  0  0  0  0  0  0  0  0  0  0
  193.6640  175.7230  143.9160 C   0  0  1  0  0  3  0  0  0  0  0  0
  195.4040  177.1600  144.7250 O   0  0  0  0  0  1  0  0  0  0  0  0
  195.3430  174.9900  145.7200 C   0  0  0  0  0  2  0  0  0  0  0  0
  196.7350  173.4420  144.4970 O   0  0  0  0  0  1  0  0  0  0  0  0
  193.0580  174.3120  144.0590 C   0  0  2  0  0  3  0  0  0  0  0  0
  195.0960  175.8250  144.4630 C   0  0  1  0  0  3  0  0  0  0  0  0
  194.4480  172.7720  144.8400 C   0  0  0  0  0  2  0  0  0  0  0  0
  195.6610  173.5290  145.3860 C   0  0  2  0  0  3  0  0  0  0  0  0
  193.9840  173.3440  143.6470 O   0  0  0  0  0  0  0  0  0  0  0  0
  193.6690  176.1830  142.4640 C   0  0  0  0  0  1  0  0  0  0  0  0
  190.1610  175.7650  144.6630 C   0  0  2  0  0  3  0  0  0  0  0  0
  188.6700  175.8240  144.9510 C   0  0  2  0  0  3  0  0  0  0  0  0
  189.2120  176.4060  143.6610 C   0  0  0  0  0  2  0  0  0  0  0  0
  188.3960  176.9470  145.9320 C   0  0  0  0  0  2  0  0  0  0  0  0
  187.2810  177.8440  145.4180 C   0  0  0  0  0  2  0  0  0  0  0  0
  185.9750  177.0560  145.2080 C   0  0  2  0  0  3  0  0  0  0  0  0
  185.0960  177.6460  144.1910 N   0  0  0  0  0  0  0  0  0  0  0  0
  184.2980  179.0470  144.9220 S   0  0  0  0  0  0  0  0  0  0  0  0
  184.4200  178.3310  146.5920 C   0  0  0  0  0  2  0  0  0  0  0  0
  185.1770  177.0220  146.4940 C   0  0  0  0  0  2  0  0  0  0  0  0
  185.9540  177.0310  142.1090 O   0  0  0  0  0  1  0  0  0  0  0  0
  185.8280  178.0900  143.0090 C   0  0  0  0  0  2  0  0  0  0  0  0
  191.0180  173.3650  140.3530 O   0  0  0  0  0  0  0  0  0  0  0  0
  189.8780  173.7960  139.6750 C   0  0  0  0  0  1  0  0  0  0  0  0
  1 33  1  6  0  0  0
  1  7  1  0  0  0  0
  2  5  1  6  0  0  0
  2  9  1  0  0  0  0
  3 15  1  0  0  0  0
  3 10  1  1  0  0  0
  4  8  1  6  0  0  0
  4  1  1  0  0  0  0
  4  5  1  0  0  0  0
  7  3  1  0  0  0  0
  7  2  1  0  0  0  0
  9  6  1  0  0  0  0
 10 21  1  0  0  0  0
 10  6  2  0  0  0  0
 11 15  1  0  0  0  0
 11 16  1  0  0  0  0
 14 18  1  0  0  0  0
 16 12  1  0  0  0  0
 16 13  1  0  0  0  0
 17 18  1  0  0  0  0
 18 13  1  0  0  0  0
 19 15  1  0  0  0  0
 19 17  1  0  0  0  0
 20 11  1  0  0  0  0
 21 22  1  0  0  0  0
 22 24  1  0  0  0  0
 23 21  1  0  0  0  0
 23 22  1  0  0  0  0
 25 24  1  0  0  0  0
 26 25  1  0  0  0  0
 26 30  1  0  0  0  0
 27 28  1  0  0  0  0
 27 26  1  0  0  0  0
 28 29  1  0  0  0  0
 30 29  1  0  0  0  0
 31 32  1  0  0  0  0
 32 27  1  0  0  0  0
 34 33  1  0  0  0  0
M  END
>  <MODEL>
6

>  <REMARK>
 VINA RESULT:      -7.0      1.482      4.891
  Name = 
  7 active torsions:
  status: ('A' for Active; 'I' for Inactive)
    1  A    between atoms: C_1  and  O_24
    2  A    between atoms: C_3  and  C_13
    3  A    between atoms: C_3  and  C_17
    4  A    between atoms: C_4  and  C_21
    5  A    between atoms: C_5  and  C_31
    6  A    between atoms: N_14  and  C_34
    7  A    between atoms: C_17  and  C_18
                            x       y       z     vdW  Elec       q    Type
                         _______ _______ _______ _____ _____    ______ ____

>  <TORSDO>
F 7

$$$$
=
 OpenBabel11052419013D

 34 38  0  0  1  0  0  0  0  0999 V2000
  192.7140  176.1250  145.6690 C   0  0  1  0  0  3  0  0  0  0  0  0
  193.4520  175.8800  143.3850 C   0  0  1  0  0  3  0  0  0  0  0  0
  190.9590  175.6380  143.8890 C   0  0  1  0  0  3  0  0  0  0  0  0
  194.2330  176.3020  145.6640 C   0  0  2  0  0  3  0  0  0  0  0  0
  194.6970  176.0590  144.2320 C   0  0  0  0  0  2  0  0  0  0  0  0
  191.8180  177.6710  142.7840 C   0  0  0  0  0  3  0  0  0  0  0  0
  192.3970  175.4060  144.3760 C   0  0  2  0  0  3  0  0  0  0  0  0
  194.8580  175.3790  146.5070 O   0  0  0  0  0  1  0  0  0  0  0  0
  193.1140  177.1440  142.8080 O   0  0  0  0  0  0  0  0  0  0  0  0
  190.7710  177.0160  143.3060 C   0  0  0  0  0  0  0  0  0  0  0  0
  189.3820  173.6550  143.4130 C   0  0  1  0  0  3  0  0  0  0  0  0
  187.7930  171.9820  142.7620 O   0  0  0  0  0  1  0  0  0  0  0  0
  189.1940  172.7840  141.0020 C   0  0  0  0  0  2  0  0  0  0  0  0
  191.1890  171.4380  140.8090 O   0  0  0  0  0  1  0  0  0  0  0  0
  190.5200  174.5530  142.8870 C   0  0  2  0  0  3  0  0  0  0  0  0
  189.0740  172.4650  142.4930 C   0  0  1  0  0  3  0  0  0  0  0  0
  191.5270  173.8080  141.0570 C   0  0  0  0  0  2  0  0  0  0  0  0
  190.6420  172.6870  140.5090 C   0  0  2  0  0  3  0  0  0  0  0  0
  191.5970  173.7650  142.4570 O   0  0  0  0  0  0  0  0  0  0  0  0
  189.6920  173.1210  144.8050 C   0  0  0  0  0  1  0  0  0  0  0  0
  189.3850  177.6140  143.3400 C   0  0  2  0  0  3  0  0  0  0  0  0
  188.4820  176.8760  142.3660 C   0  0  2  0  0  3  0  0  0  0  0  0
  188.9590  178.2750  142.0370 C   0  0  0  0  0  2  0  0  0  0  0  0
  187.0510  176.9380  142.8680 C   0  0  0  0  0  2  0  0  0  0  0  0
  186.9810  177.6900  144.1880 C   0  0  0  0  0  2  0  0  0  0  0  0
  186.3850  176.8140  145.3050 C   0  0  2  0  0  3  0  0  0  0  0  0
  185.3670  177.5060  146.1060 N   0  0  0  0  0  0  0  0  0  0  0  0
  186.2090  178.5960  147.2170 S   0  0  0  0  0  0  0  0  0  0  0  0
  187.6940  177.5420  147.2330 C   0  0  0  0  0  2  0  0  0  0  0  0
  187.4720  176.3920  146.2700 C   0  0  0  0  0  2  0  0  0  0  0  0
  183.4730  178.8720  146.0950 O   0  0  0  0  0  1  0  0  0  0  0  0
  184.4500  178.2910  145.2850 C   0  0  0  0  0  2  0  0  0  0  0  0
  192.2700  175.3780  146.7660 O   0  0  0  0  0  0  0  0  0  0  0  0
  191.5320  176.2780  147.5350 C   0  0  0  0  0  1  0  0  0  0  0  0
  1 33  1  1  0  0  0
  2  5  1  1  0  0  0
  2  7  1  0  0  0  0
  3 10  1  6  0  0  0
  3  7  1  0  0  0  0
  4  1  1  0  0  0  0
  4  8  1  1  0  0  0
  5  4  1  0  0  0  0
  6  9  1  0  0  0  0
  6 10  2  0  0  0  0
  7  1  1  0  0  0  0
  9  2  1  0  0  0  0
 10 21  1  0  0  0  0
 11 20  1  0  0  0  0
 13 16  1  0  0  0  0
 15 11  1  0  0  0  0
 15  3  1  0  0  0  0
 16 12  1  0  0  0  0
 16 11  1  0  0  0  0
 17 19  1  0  0  0  0
 18 14  1  0  0  0  0
 18 13  1  0  0  0  0
 18 17  1  0  0  0  0
 19 15  1  0  0  0  0
 22 24  1  0  0  0  0
 22 21  1  0  0  0  0
 23 22  1  0  0  0  0
 23 21  1  0  0  0  0
 24 25  1  0  0  0  0
 25 26  1  0  0  0  0
 26 27  1  0  0  0  0
 26 30  1  0  0  0  0
 27 28  1  0  0  0  0
 28 29  1  0  0  0  0
 30 29  1  0  0  0  0
 32 31  1  0  0  0  0
 32 27  1  0  0  0  0
 33 34  1  0  0  0  0
M  END
>  <MODEL>
7

>  <REMARK>
 VINA RESULT:      -6.8      1.716      2.466
  Name = 
  7 active torsions:
  status: ('A' for Active; 'I' for Inactive)
    1  A    between atoms: C_1  and  O_24
    2  A    between atoms: C_3  and  C_13
    3  A    between atoms: C_3  and  C_17
    4  A    between atoms: C_4  and  C_21
    5  A    between atoms: C_5  and  C_31
    6  A    between atoms: N_14  and  C_34
    7  A    between atoms: C_17  and  C_18
                            x       y       z     vdW  Elec       q    Type
                         _______ _______ _______ _____ _____    ______ ____

>  <TORSDO>
F 7

$$$$
=
 OpenBabel11052419013D

 34 38  0  0  1  0  0  0  0  0999 V2000
  191.0930  172.3430  140.9150 C   0  0  1  0  0  3  0  0  0  0  0  0
  191.4850  171.3470  143.0780 C   0  0  1  0  0  3  0  0  0  0  0  0
  191.8830  173.8560  142.8050 C   0  0  1  0  0  3  0  0  0  0  0  0
  190.7940  170.8480  140.7840 C   0  0  2  0  0  3  0  0  0  0  0  0
  191.1280  170.2160  142.1320 C   0  0  0  0  0  2  0  0  0  0  0  0
  189.8960  173.0300  144.0160 C   0  0  0  0  0  3  0  0  0  0  0  0
  191.9510  172.4650  142.1560 C   0  0  2  0  0  3  0  0  0  0  0  0
  191.5820  170.2540  139.7960 O   0  0  0  0  0  1  0  0  0  0  0  0
  190.3110  171.7100  143.8080 O   0  0  0  0  0  0  0  0  0  0  0  0
  190.5840  174.0780  143.5390 C   0  0  0  0  0  0  0  0  0  0  0  0
  193.5080  175.5860  143.8100 C   0  0  1  0  0  3  0  0  0  0  0  0
  194.8940  177.1340  145.0060 O   0  0  0  0  0  1  0  0  0  0  0  0
  194.9870  174.8800  145.7900 C   0  0  0  0  0  2  0  0  0  0  0  0
  196.7450  173.6530  144.6780 O   0  0  0  0  0  1  0  0  0  0  0  0
  193.0870  174.1040  143.7330 C   0  0  2  0  0  3  0  0  0  0  0  0
  194.8150  175.8060  144.5850 C   0  0  1  0  0  3  0  0  0  0  0  0
  194.5470  172.6740  144.5930 C   0  0  0  0  0  2  0  0  0  0  0  0
  195.5500  173.5130  145.3880 C   0  0  2  0  0  3  0  0  0  0  0  0
  194.1890  173.3070  143.3940 O   0  0  0  0  0  0  0  0  0  0  0  0
  193.6620  176.1940  142.4220 C   0  0  0  0  0  1  0  0  0  0  0  0
  190.1010  175.4990  143.7050 C   0  0  2  0  0  3  0  0  0  0  0  0
  188.6080  175.5060  143.9900 C   0  0  2  0  0  3  0  0  0  0  0  0
  189.1180  175.9520  142.6350 C   0  0  0  0  0  2  0  0  0  0  0  0
  188.2660  176.7250  144.8240 C   0  0  0  0  0  2  0  0  0  0  0  0
  186.8090  177.1140  144.6260 C   0  0  0  0  0  2  0  0  0  0  0  0
  186.6750  178.5570  144.1070 C   0  0  2  0  0  3  0  0  0  0  0  0
  185.5700  179.2990  144.7260 N   0  0  0  0  0  0  0  0  0  0  0  0
  184.0660  178.7420  143.9790 S   0  0  0  0  0  0  0  0  0  0  0  0
  184.9180  178.3010  142.4310 C   0  0  0  0  0  2  0  0  0  0  0  0
  186.4010  178.5500  142.6180 C   0  0  0  0  0  2  0  0  0  0  0  0
  184.2000  178.6580  146.5040 O   0  0  0  0  0  1  0  0  0  0  0  0
  185.4870  179.0770  146.1660 C   0  0  0  0  0  2  0  0  0  0  0  0
  191.7700  172.8480  139.8000 O   0  0  0  0  0  0  0  0  0  0  0  0
  190.7760  173.4330  139.0150 C   0  0  0  0  0  1  0  0  0  0  0  0
  1 33  1  6  0  0  0
  1  7  1  0  0  0  0
  2  5  1  6  0  0  0
  2  9  1  0  0  0  0
  3 10  1  1  0  0  0
  3 15  1  0  0  0  0
  4  8  1  6  0  0  0
  4  1  1  0  0  0  0
  4  5  1  0  0  0  0
  7  3  1  0  0  0  0
  7  2  1  0  0  0  0
  9  6  1  0  0  0  0
 10 21  1  0  0  0  0
 10  6  2  0  0  0  0
 11 16  1  0  0  0  0
 14 18  1  0  0  0  0
 15 11  1  0  0  0  0
 16 12  1  0  0  0  0
 16 13  1  0  0  0  0
 17 18  1  0  0  0  0
 18 13  1  0  0  0  0
 19 15  1  0  0  0  0
 19 17  1  0  0  0  0
 20 11  1  0  0  0  0
 21 22  1  0  0  0  0
 22 24  1  0  0  0  0
 23 21  1  0  0  0  0
 23 22  1  0  0  0  0
 25 24  1  0  0  0  0
 26 25  1  0  0  0  0
 26 27  1  0  0  0  0
 27 32  1  0  0  0  0
 28 27  1  0  0  0  0
 29 30  1  0  0  0  0
 29 28  1  0  0  0  0
 30 26  1  0  0  0  0
 32 31  1  0  0  0  0
 34 33  1  0  0  0  0
M  END
>  <MODEL>
8

>  <REMARK>
 VINA RESULT:      -6.6      1.872      5.198
  Name = 
  7 active torsions:
  status: ('A' for Active; 'I' for Inactive)
    1  A    between atoms: C_1  and  O_24
    2  A    between atoms: C_3  and  C_13
    3  A    between atoms: C_3  and  C_17
    4  A    between atoms: C_4  and  C_21
    5  A    between atoms: C_5  and  C_31
    6  A    between atoms: N_14  and  C_34
    7  A    between atoms: C_17  and  C_18
                            x       y       z     vdW  Elec       q    Type
                         _______ _______ _______ _____ _____    ______ ____

>  <TORSDO>
F 7

$$$$
=
 OpenBabel11052419013D

 34 38  0  0  1  0  0  0  0  0999 V2000
  191.8560  175.7990  143.4860 C   0  0  1  0  0  3  0  0  0  0  0  0
  190.9150  174.7430  145.4410 C   0  0  1  0  0  3  0  0  0  0  0  0
  189.3200  175.6570  143.6670 C   0  0  1  0  0  3  0  0  0  0  0  0
  193.0260  175.3660  144.3720 C   0  0  2  0  0  3  0  0  0  0  0  0
  192.4190  174.7790  145.6420 C   0  0  0  0  0  2  0  0  0  0  0  0
  189.6810  173.2250  143.8880 C   0  0  0  0  0  3  0  0  0  0  0  0
  190.6560  175.8290  144.4070 C   0  0  2  0  0  3  0  0  0  0  0  0
  193.8360  176.4520  144.7160 O   0  0  0  0  0  1  0  0  0  0  0  0
  190.5580  173.4450  144.9560 O   0  0  0  0  0  0  0  0  0  0  0  0
  189.0940  174.2320  143.2260 C   0  0  0  0  0  0  0  0  0  0  0  0
  187.0950  176.9570  143.6990 C   0  0  1  0  0  3  0  0  0  0  0  0
  184.8950  177.9070  143.7940 O   0  0  0  0  0  1  0  0  0  0  0  0
  185.5940  176.7770  145.7790 C   0  0  0  0  0  2  0  0  0  0  0  0
  186.6800  178.3040  147.3020 O   0  0  0  0  0  1  0  0  0  0  0  0
  188.1370  176.1640  144.5140 C   0  0  2  0  0  3  0  0  0  0  0  0
  186.0160  177.6160  144.5720 C   0  0  1  0  0  3  0  0  0  0  0  0
  187.9210  176.3260  146.7140 C   0  0  0  0  0  2  0  0  0  0  0  0
  186.5490  176.9550  146.9640 C   0  0  2  0  0  3  0  0  0  0  0  0
  188.5610  176.9180  145.6170 O   0  0  0  0  0  0  0  0  0  0  0  0
  187.7540  178.0350  142.8490 C   0  0  0  0  0  1  0  0  0  0  0  0
  188.2010  173.9970  142.0320 C   0  0  2  0  0  3  0  0  0  0  0  0
  189.0360  173.5460  140.8450 C   0  0  2  0  0  3  0  0  0  0  0  0
  188.4540  174.9440  140.8680 C   0  0  0  0  0  2  0  0  0  0  0  0
  188.1910  172.6640  139.9460 C   0  0  0  0  0  2  0  0  0  0  0  0
  189.0170  172.1450  138.7790 C   0  0  0  0  0  2  0  0  0  0  0  0
  190.4950  171.9620  139.1710 C   0  0  2  0  0  3  0  0  0  0  0  0
  191.4330  172.4240  138.1410 N   0  0  0  0  0  0  0  0  0  0  0  0
  191.4730  171.1960  136.8660 S   0  0  0  0  0  0  0  0  0  0  0  0
  191.0350  169.8700  138.0350 C   0  0  0  0  0  2  0  0  0  0  0  0
  190.7950  170.4950  139.3950 C   0  0  0  0  0  2  0  0  0  0  0  0
  192.1380  174.5420  137.4580 O   0  0  0  0  0  1  0  0  0  0  0  0
  191.0310  173.6970  137.5510 C   0  0  0  0  0  2  0  0  0  0  0  0
  192.0640  177.0570  142.9110 O   0  0  0  0  0  0  0  0  0  0  0  0
  191.4090  177.9500  143.7590 C   0  0  0  0  0  1  0  0  0  0  0  0
  1 33  1  1  0  0  0
  1  4  1  0  0  0  0
  1  7  1  0  0  0  0
  2  5  1  6  0  0  0
  3 10  1  1  0  0  0
  3  7  1  0  0  0  0
  3 15  1  0  0  0  0
  4  8  1  1  0  0  0
  4  5  1  0  0  0  0
  6  9  1  0  0  0  0
  7  2  1  0  0  0  0
  9  2  1  0  0  0  0
 10  6  2  0  0  0  0
 11 15  1  0  0  0  0
 11 16  1  0  0  0  0
 12 16  1  0  0  0  0
 13 18  1  0  0  0  0
 15 19  1  0  0  0  0
 16 13  1  0  0  0  0
 17 18  1  0  0  0  0
 18 14  1  0  0  0  0
 19 17  1  0  0  0  0
 20 11  1  0  0  0  0
 21 10  1  0  0  0  0
 22 23  1  0  0  0  0
 22 21  1  0  0  0  0
 23 21  1  0  0  0  0
 24 22  1  0  0  0  0
 25 26  1  0  0  0  0
 25 24  1  0  0  0  0
 26 30  1  0  0  0  0
 27 26  1  0  0  0  0
 28 29  1  0  0  0  0
 28 27  1  0  0  0  0
 29 30  1  0  0  0  0
 31 32  1  0  0  0  0
 32 27  1  0  0  0  0
 33 34  1  0  0  0  0
M  END
>  <MODEL>
9

>  <REMARK>
 VINA RESULT:      -6.6      3.488      7.084
  Name = 
  7 active torsions:
  status: ('A' for Active; 'I' for Inactive)
    1  A    between atoms: C_1  and  O_24
    2  A    between atoms: C_3  and  C_13
    3  A    between atoms: C_3  and  C_17
    4  A    between atoms: C_4  and  C_21
    5  A    between atoms: C_5  and  C_31
    6  A    between atoms: N_14  and  C_34
    7  A    between atoms: C_17  and  C_18
                            x       y       z     vdW  Elec       q    Type
                         _______ _______ _______ _____ _____    ______ ____

>  <TORSDO>
F 7

$$$$
