=
 OpenBabel11052421373D

 32 36  0  0  1  0  0  0  0  0999 V2000
  183.1110  178.0090  141.6510 C   0  0  2  0  0  3  0  0  0  0  0  0
  188.0760  177.5710  142.7990 C   0  0  0  0  0  0  0  0  0  0  0  0
  188.4950  176.1500  147.4320 C   0  0  0  0  0  2  0  0  0  0  0  0
  190.0160  176.2320  147.2560 C   0  0  0  0  0  2  0  0  0  0  0  0
  185.9770  177.9630  141.6430 C   0  0  0  0  0  0  0  0  0  0  0  0
  186.0260  177.8330  144.0670 C   0  0  0  0  0  3  0  0  0  0  0  0
  183.8320  178.2890  142.9680 C   0  0  0  0  0  2  0  0  0  0  0  0
  187.7850  176.1850  146.0740 C   0  0  0  0  0  2  0  0  0  0  0  0
  187.4070  177.6110  144.0350 C   0  0  0  0  0  0  0  0  0  0  0  0
  188.1540  177.4680  145.3300 C   0  0  0  0  0  0  0  0  0  0  0  0
  190.2910  177.4980  144.0070 C   0  0  0  0  0  0  0  0  0  0  0  0
  183.8540  178.6950  140.5110 C   0  0  0  0  0  2  0  0  0  0  0  0
  185.3020  177.9900  142.8820 C   0  0  0  0  0  0  0  0  0  0  0  0
  185.2320  178.0620  140.3410 C   0  0  0  0  0  2  0  0  0  0  0  0
  190.4110  177.5010  146.4970 C   0  0  0  0  0  2  0  0  0  0  0  0
  189.6560  177.5470  145.1990 C   0  0  0  0  0  0  0  0  0  0  0  0
  187.3540  177.7330  141.6130 C   0  0  0  0  0  3  0  0  0  0  0  0
  189.5450  177.2940  142.7130 C   0  0  0  0  0  3  0  0  0  0  0  0
  181.8050  178.4930  141.7210 O   0  0  0  0  0  0  0  0  0  0  0  0
  181.2770  178.2850  140.4450 C   0  0  0  0  0  2  0  0  0  0  0  0
  179.7600  178.3080  140.4970 C   0  0  0  0  0  2  0  0  0  0  0  0
  178.3430  177.1510  142.3850 C   0  0  0  0  0  1  0  0  0  0  0  0
  179.1880  178.7420  142.1690 S   0  0  0  0  0  0  0  0  0  0  0  0
  191.7900  177.5410  143.9330 C   0  0  0  0  0  2  0  0  0  0  0  0
  192.4010  176.2560  144.4820 C   0  0  2  0  0  3  0  0  0  0  0  0
  194.5670  176.5300  145.8380 C   0  0  1  0  0  3  0  0  0  0  0  0
  194.5270  175.1590  145.1950 C   0  0  0  0  0  2  0  0  0  0  0  0
  193.9290  176.3420  144.4580 C   0  0  1  0  0  3  0  0  0  0  0  0
  193.6180  176.5900  146.8620 O   0  0  0  0  0  1  0  0  0  0  0  0
  191.8970  175.0180  143.7340 C   0  0  0  0  0  2  0  0  0  0  0  0
  191.1150  174.0730  144.6350 C   0  0  0  0  0  2  0  0  0  0  0  0
  189.7550  173.8080  144.0270 C   0  0  0  0  0  1  0  0  0  0  0  0
  1 19  1  1  0  0  0
  1  7  1  0  0  0  0
  2  9  1  0  0  0  0
  4  3  1  0  0  0  0
  5 13  1  0  0  0  0
  8  3  1  0  0  0  0
  9  6  1  0  0  0  0
  9 10  2  0  0  0  0
 10  8  1  0  0  0  0
 11 16  2  0  0  0  0
 12  1  1  0  0  0  0
 13  7  1  0  0  0  0
 13  6  2  0  0  0  0
 14 12  1  0  0  0  0
 14  5  1  0  0  0  0
 15  4  1  0  0  0  0
 16 10  1  0  0  0  0
 16 15  1  0  0  0  0
 17  5  2  0  0  0  0
 17  2  1  0  0  0  0
 18  2  2  0  0  0  0
 18 11  1  0  0  0  0
 20 21  1  0  0  0  0
 20 19  1  0  0  0  0
 21 23  1  0  0  0  0
 23 22  1  0  0  0  0
 24 11  1  0  0  0  0
 24 25  1  0  0  0  0
 25 30  1  6  0  0  0
 26 29  1  1  0  0  0
 27 26  1  0  0  0  0
 28 25  1  1  0  0  0
 28 27  1  0  0  0  0
 28 26  1  0  0  0  0
 30 31  1  0  0  0  0
 32 31  1  0  0  0  0
M  END
>  <MODEL>
1

>  <REMARK>
 VINA RESULT:      -7.3      0.000      0.000
  Name = 
  9 active torsions:
  status: ('A' for Active; 'I' for Inactive)
    1  A    between atoms: C_2  and  O_24
    2  A    between atoms: C_6  and  C_7
    3  A    between atoms: C_7  and  C_32
    4  A    between atoms: C_10  and  C_20
    5  A    between atoms: C_10  and  O_24
    6  A    between atoms: C_16  and  C_27
    7  A    between atoms: S_17  and  C_20
    8  A    between atoms: C_22  and  C_32
    9  A    between atoms: C_27  and  C_32
                            x       y       z     vdW  Elec       q    Type
                         _______ _______ _______ _____ _____    ______ ____

>  <TORSDO>
F 9

$$$$
=
 OpenBabel11052421373D

 32 36  0  0  1  0  0  0  0  0999 V2000
  183.0270  178.0440  141.6310 C   0  0  2  0  0  3  0  0  0  0  0  0
  188.0150  177.6830  142.6980 C   0  0  0  0  0  0  0  0  0  0  0  0
  188.5310  176.0180  147.2390 C   0  0  0  0  0  2  0  0  0  0  0  0
  190.0470  176.1510  147.0510 C   0  0  0  0  0  2  0  0  0  0  0  0
  185.8930  178.0790  141.5890 C   0  0  0  0  0  0  0  0  0  0  0  0
  185.9750  177.8160  144.0010 C   0  0  0  0  0  3  0  0  0  0  0  0
  183.7560  178.2700  142.9540 C   0  0  0  0  0  2  0  0  0  0  0  0
  187.8030  176.1080  145.8930 C   0  0  0  0  0  2  0  0  0  0  0  0
  187.3610  177.6340  143.9410 C   0  0  0  0  0  0  0  0  0  0  0  0
  188.1280  177.4400  145.2180 C   0  0  0  0  0  0  0  0  0  0  0  0
  190.2470  177.6040  143.8750 C   0  0  0  0  0  0  0  0  0  0  0  0
  183.7360  178.8130  140.5230 C   0  0  0  0  0  2  0  0  0  0  0  0
  185.2320  178.0180  142.8350 C   0  0  0  0  0  0  0  0  0  0  0  0
  185.1290  178.2290  140.3030 C   0  0  0  0  0  2  0  0  0  0  0  0
  190.3980  177.4710  146.3600 C   0  0  0  0  0  2  0  0  0  0  0  0
  189.6260  177.5680  145.0760 C   0  0  0  0  0  0  0  0  0  0  0  0
  187.2750  177.8900  141.5310 C   0  0  0  0  0  3  0  0  0  0  0  0
  189.4900  177.4520  142.5800 C   0  0  0  0  0  3  0  0  0  0  0  0
  181.7090  178.4870  141.7420 O   0  0  0  0  0  0  0  0  0  0  0  0
  181.1690  178.3310  140.4630 C   0  0  0  0  0  2  0  0  0  0  0  0
  179.6550  178.4130  140.5220 C   0  0  0  0  0  2  0  0  0  0  0  0
  178.4080  177.1500  142.4600 C   0  0  0  0  0  1  0  0  0  0  0  0
  179.1040  178.8070  142.2100 S   0  0  0  0  0  0  0  0  0  0  0  0
  191.7430  177.6930  143.7880 C   0  0  0  0  0  2  0  0  0  0  0  0
  192.3470  176.3520  143.3870 C   0  0  2  0  0  3  0  0  0  0  0  0
  191.1560  174.2060  142.6240 C   0  0  1  0  0  3  0  0  0  0  0  0
  192.1400  173.8880  143.7310 C   0  0  0  0  0  2  0  0  0  0  0  0
  191.3970  175.2100  143.7550 C   0  0  1  0  0  3  0  0  0  0  0  0
  191.8580  174.5340  141.4610 O   0  0  0  0  0  1  0  0  0  0  0  0
  193.7370  176.1450  143.9980 C   0  0  0  0  0  2  0  0  0  0  0  0
  193.9400  176.9580  145.2680 C   0  0  0  0  0  2  0  0  0  0  0  0
  194.2390  176.0230  146.4210 C   0  0  0  0  0  1  0  0  0  0  0  0
  1 19  1  1  0  0  0
  1  7  1  0  0  0  0
  2  9  1  0  0  0  0
  4  3  1  0  0  0  0
  5 13  1  0  0  0  0
  8  3  1  0  0  0  0
  9  6  1  0  0  0  0
  9 10  2  0  0  0  0
 10  8  1  0  0  0  0
 11 16  2  0  0  0  0
 12  1  1  0  0  0  0
 13  7  1  0  0  0  0
 13  6  2  0  0  0  0
 14 12  1  0  0  0  0
 14  5  1  0  0  0  0
 15  4  1  0  0  0  0
 16 10  1  0  0  0  0
 16 15  1  0  0  0  0
 17  5  2  0  0  0  0
 17  2  1  0  0  0  0
 18  2  2  0  0  0  0
 18 11  1  0  0  0  0
 20 21  1  0  0  0  0
 20 19  1  0  0  0  0
 21 23  1  0  0  0  0
 23 22  1  0  0  0  0
 24 11  1  0  0  0  0
 25 24  1  1  0  0  0
 25 30  1  0  0  0  0
 26 29  1  6  0  0  0
 26 27  1  0  0  0  0
 26 28  1  0  0  0  0
 27 28  1  0  0  0  0
 28 25  1  6  0  0  0
 30 31  1  0  0  0  0
 31 32  1  0  0  0  0
M  END
>  <MODEL>
2

>  <REMARK>
 VINA RESULT:      -7.1      1.223      2.058
  Name = 
  9 active torsions:
  status: ('A' for Active; 'I' for Inactive)
    1  A    between atoms: C_2  and  O_24
    2  A    between atoms: C_6  and  C_7
    3  A    between atoms: C_7  and  C_32
    4  A    between atoms: C_10  and  C_20
    5  A    between atoms: C_10  and  O_24
    6  A    between atoms: C_16  and  C_27
    7  A    between atoms: S_17  and  C_20
    8  A    between atoms: C_22  and  C_32
    9  A    between atoms: C_27  and  C_32
                            x       y       z     vdW  Elec       q    Type
                         _______ _______ _______ _____ _____    ______ ____

>  <TORSDO>
F 9

$$$$
=
 OpenBabel11052421373D

 32 36  0  0  1  0  0  0  0  0999 V2000
  184.3560  177.7720  141.8650 C   0  0  2  0  0  3  0  0  0  0  0  0
  189.2400  177.1820  143.2590 C   0  0  0  0  0  0  0  0  0  0  0  0
  189.3770  175.1030  147.6540 C   0  0  0  0  0  2  0  0  0  0  0  0
  190.9050  175.2120  147.5910 C   0  0  0  0  0  2  0  0  0  0  0  0
  187.2170  177.7330  142.0380 C   0  0  0  0  0  0  0  0  0  0  0  0
  187.1100  177.2530  144.4150 C   0  0  0  0  0  3  0  0  0  0  0  0
  184.9870  177.8590  143.2530 C   0  0  0  0  0  2  0  0  0  0  0  0
  188.7550  175.3340  146.2730 C   0  0  0  0  0  2  0  0  0  0  0  0
  188.4930  177.0400  144.4410 C   0  0  0  0  0  0  0  0  0  0  0  0
  189.1570  176.7110  145.7480 C   0  0  0  0  0  0  0  0  0  0  0  0
  191.3750  176.9380  144.5850 C   0  0  0  0  0  0  0  0  0  0  0  0
  185.1620  178.6170  140.8870 C   0  0  0  0  0  2  0  0  0  0  0  0
  186.4620  177.5790  143.2210 C   0  0  0  0  0  0  0  0  0  0  0  0
  186.5560  178.0180  140.7180 C   0  0  0  0  0  2  0  0  0  0  0  0
  191.3340  176.5790  147.0520 C   0  0  0  0  0  2  0  0  0  0  0  0
  190.6640  176.8110  145.7280 C   0  0  0  0  0  0  0  0  0  0  0  0
  188.5950  177.5120  142.0640 C   0  0  0  0  0  3  0  0  0  0  0  0
  190.7150  176.9220  143.2290 C   0  0  0  0  0  3  0  0  0  0  0  0
  183.0420  178.2390  141.9190 O   0  0  0  0  0  0  0  0  0  0  0  0
  182.5540  178.0860  140.6190 C   0  0  0  0  0  2  0  0  0  0  0  0
  181.1260  178.5930  140.5350 C   0  0  0  0  0  2  0  0  0  0  0  0
  179.1300  177.8320  142.0660 C   0  0  0  0  0  1  0  0  0  0  0  0
  180.5010  179.0130  142.1910 S   0  0  0  0  0  0  0  0  0  0  0  0
  192.8740  176.9940  144.6160 C   0  0  0  0  0  2  0  0  0  0  0  0
  193.4810  175.7090  144.0610 C   0  0  2  0  0  3  0  0  0  0  0  0
  193.1340  173.5290  145.3770 C   0  0  1  0  0  3  0  0  0  0  0  0
  194.4620  173.4910  144.6490 C   0  0  0  0  0  2  0  0  0  0  0  0
  193.9570  174.8090  145.2030 C   0  0  1  0  0  3  0  0  0  0  0  0
  192.0950  173.4320  144.4470 O   0  0  0  0  0  1  0  0  0  0  0  0
  194.6070  175.9930  143.0630 C   0  0  0  0  0  2  0  0  0  0  0  0
  194.1170  176.0140  141.6220 C   0  0  0  0  0  2  0  0  0  0  0  0
  193.1920  174.8390  141.3880 C   0  0  0  0  0  1  0  0  0  0  0  0
  1 19  1  1  0  0  0
  1  7  1  0  0  0  0
  2  9  1  0  0  0  0
  4  3  1  0  0  0  0
  5 17  2  0  0  0  0
  5 13  1  0  0  0  0
  6  9  1  0  0  0  0
  8  3  1  0  0  0  0
  9 10  2  0  0  0  0
 10  8  1  0  0  0  0
 11 24  1  0  0  0  0
 11 16  2  0  0  0  0
 12  1  1  0  0  0  0
 13  7  1  0  0  0  0
 13  6  2  0  0  0  0
 14 12  1  0  0  0  0
 14  5  1  0  0  0  0
 15  4  1  0  0  0  0
 16 10  1  0  0  0  0
 16 15  1  0  0  0  0
 17  2  1  0  0  0  0
 18  2  2  0  0  0  0
 18 11  1  0  0  0  0
 20 19  1  0  0  0  0
 21 20  1  0  0  0  0
 21 23  1  0  0  0  0
 22 23  1  0  0  0  0
 25 30  1  6  0  0  0
 25 24  1  0  0  0  0
 26 29  1  6  0  0  0
 27 28  1  0  0  0  0
 27 26  1  0  0  0  0
 28 25  1  6  0  0  0
 28 26  1  0  0  0  0
 31 30  1  0  0  0  0
 32 31  1  0  0  0  0
M  END
>  <MODEL>
3

>  <REMARK>
 VINA RESULT:      -7.0      1.492      2.013
  Name = 
  9 active torsions:
  status: ('A' for Active; 'I' for Inactive)
    1  A    between atoms: C_2  and  O_24
    2  A    between atoms: C_6  and  C_7
    3  A    between atoms: C_7  and  C_32
    4  A    between atoms: C_10  and  C_20
    5  A    between atoms: C_10  and  O_24
    6  A    between atoms: C_16  and  C_27
    7  A    between atoms: S_17  and  C_20
    8  A    between atoms: C_22  and  C_32
    9  A    between atoms: C_27  and  C_32
                            x       y       z     vdW  Elec       q    Type
                         _______ _______ _______ _____ _____    ______ ____

>  <TORSDO>
F 9

$$$$
=
 OpenBabel11052421373D

 32 36  0  0  1  0  0  0  0  0999 V2000
  190.1710  171.5580  139.5180 C   0  0  2  0  0  3  0  0  0  0  0  0
  188.7420  175.2840  142.7160 C   0  0  0  0  0  0  0  0  0  0  0  0
  191.4650  175.0300  146.7380 C   0  0  0  0  0  2  0  0  0  0  0  0
  190.6520  176.2070  147.2890 C   0  0  0  0  0  2  0  0  0  0  0  0
  188.9240  173.7920  140.8100 C   0  0  0  0  0  0  0  0  0  0  0  0
  189.9280  173.1810  142.9340 C   0  0  0  0  0  3  0  0  0  0  0  0
  190.1220  171.5620  141.0440 C   0  0  0  0  0  2  0  0  0  0  0  0
  191.2390  174.8680  145.2310 C   0  0  0  0  0  2  0  0  0  0  0  0
  189.4780  174.3790  143.4990 C   0  0  0  0  0  0  0  0  0  0  0  0
  189.7530  174.6500  144.9510 C   0  0  0  0  0  0  0  0  0  0  0  0
  188.2690  176.6710  144.7710 C   0  0  0  0  0  0  0  0  0  0  0  0
  188.8510  172.0820  138.9670 C   0  0  0  0  0  2  0  0  0  0  0  0
  189.6750  172.8880  141.5910 C   0  0  0  0  0  0  0  0  0  0  0  0
  188.6830  173.5510  139.3460 C   0  0  0  0  0  2  0  0  0  0  0  0
  189.1590  176.0210  147.0070 C   0  0  0  0  0  2  0  0  0  0  0  0
  188.9670  175.8010  145.5340 C   0  0  0  0  0  0  0  0  0  0  0  0
  188.4830  174.9910  141.3740 C   0  0  0  0  0  3  0  0  0  0  0  0
  188.2770  176.5970  143.2650 C   0  0  0  0  0  3  0  0  0  0  0  0
  190.3900  170.2580  139.0610 O   0  0  0  0  0  0  0  0  0  0  0  0
  189.6930  170.1810  137.8530 C   0  0  0  0  0  2  0  0  0  0  0  0
  190.6560  169.8970  136.7130 C   0  0  0  0  0  2  0  0  0  0  0  0
  191.7150  172.2330  136.1370 C   0  0  0  0  0  1  0  0  0  0  0  0
  190.4690  171.1400  135.3980 S   0  0  0  0  0  0  0  0  0  0  0  0
  187.5360  177.8230  145.3960 C   0  0  0  0  0  2  0  0  0  0  0  0
  186.0510  177.7760  145.0510 C   0  0  2  0  0  3  0  0  0  0  0  0
  185.0070  178.7170  142.8990 C   0  0  1  0  0  3  0  0  0  0  0  0
  184.1450  179.0720  144.0930 C   0  0  0  0  0  2  0  0  0  0  0  0
  185.6520  179.0210  144.2540 C   0  0  1  0  0  3  0  0  0  0  0  0
  184.9090  177.3450  142.6500 O   0  0  0  0  0  1  0  0  0  0  0  0
  185.1780  177.6050  146.2980 C   0  0  0  0  0  2  0  0  0  0  0  0
  185.9570  177.8260  147.5870 C   0  0  0  0  0  2  0  0  0  0  0  0
  185.9400  179.2990  147.9380 C   0  0  0  0  0  1  0  0  0  0  0  0
  1 19  1  6  0  0  0
  1  7  1  0  0  0  0
  2 18  2  0  0  0  0
  2  9  1  0  0  0  0
  3  4  1  0  0  0  0
  5 17  2  0  0  0  0
  5 13  1  0  0  0  0
  6  9  1  0  0  0  0
  7 13  1  0  0  0  0
  8  3  1  0  0  0  0
  9 10  2  0  0  0  0
 10  8  1  0  0  0  0
 10 16  1  0  0  0  0
 11 24  1  0  0  0  0
 11 16  2  0  0  0  0
 12 14  1  0  0  0  0
 12  1  1  0  0  0  0
 13  6  2  0  0  0  0
 14  5  1  0  0  0  0
 15  4  1  0  0  0  0
 16 15  1  0  0  0  0
 17  2  1  0  0  0  0
 18 11  1  0  0  0  0
 20 19  1  0  0  0  0
 21 20  1  0  0  0  0
 23 22  1  0  0  0  0
 23 21  1  0  0  0  0
 25 24  1  1  0  0  0
 25 30  1  0  0  0  0
 26 29  1  1  0  0  0
 26 27  1  0  0  0  0
 26 28  1  0  0  0  0
 27 28  1  0  0  0  0
 28 25  1  1  0  0  0
 30 31  1  0  0  0  0
 31 32  1  0  0  0  0
M  END
>  <MODEL>
4

>  <REMARK>
 VINA RESULT:      -6.7      4.716      8.063
  Name = 
  9 active torsions:
  status: ('A' for Active; 'I' for Inactive)
    1  A    between atoms: C_2  and  O_24
    2  A    between atoms: C_6  and  C_7
    3  A    between atoms: C_7  and  C_32
    4  A    between atoms: C_10  and  C_20
    5  A    between atoms: C_10  and  O_24
    6  A    between atoms: C_16  and  C_27
    7  A    between atoms: S_17  and  C_20
    8  A    between atoms: C_22  and  C_32
    9  A    between atoms: C_27  and  C_32
                            x       y       z     vdW  Elec       q    Type
                         _______ _______ _______ _____ _____    ______ ____

>  <TORSDO>
F 9

$$$$
=
 OpenBabel11052421373D

 32 36  0  0  1  0  0  0  0  0999 V2000
  183.9280  178.9530  143.1080 C   0  0  2  0  0  3  0  0  0  0  0  0
  188.3220  176.7650  144.5420 C   0  0  0  0  0  0  0  0  0  0  0  0
  189.8430  173.8200  140.9830 C   0  0  0  0  0  2  0  0  0  0  0  0
  191.0240  173.4410  141.8840 C   0  0  0  0  0  2  0  0  0  0  0  0
  186.2940  178.0970  144.4810 C   0  0  0  0  0  0  0  0  0  0  0  0
  186.5990  176.2720  142.9090 C   0  0  0  0  0  3  0  0  0  0  0  0
  184.4600  177.5540  142.8060 C   0  0  0  0  0  2  0  0  0  0  0  0
  189.1360  175.0740  141.5070 C   0  0  0  0  0  2  0  0  0  0  0  0
  187.8510  175.9910  143.4670 C   0  0  0  0  0  0  0  0  0  0  0  0
  188.6450  174.8330  142.9340 C   0  0  0  0  0  0  0  0  0  0  0  0
  190.2680  175.1820  144.8220 C   0  0  0  0  0  0  0  0  0  0  0  0
  184.0520  179.2320  144.6000 C   0  0  0  0  0  2  0  0  0  0  0  0
  185.8240  177.3300  143.3930 C   0  0  0  0  0  0  0  0  0  0  0  0
  185.5260  179.2840  144.9920 C   0  0  0  0  0  2  0  0  0  0  0  0
  190.5610  173.2100  143.3250 C   0  0  0  0  0  2  0  0  0  0  0  0
  189.8160  174.4260  143.7960 C   0  0  0  0  0  0  0  0  0  0  0  0
  187.5470  177.8210  145.0310 C   0  0  0  0  0  3  0  0  0  0  0  0
  189.6730  176.5300  145.1430 C   0  0  0  0  0  3  0  0  0  0  0  0
  182.5900  179.0380  142.7220 O   0  0  0  0  0  0  0  0  0  0  0  0
  182.5090  178.2910  141.5440 C   0  0  0  0  0  2  0  0  0  0  0  0
  181.1300  178.4380  140.9260 C   0  0  0  0  0  2  0  0  0  0  0  0
  178.8860  177.5760  141.9900 C   0  0  0  0  0  1  0  0  0  0  0  0
  179.9410  179.0420  142.1640 S   0  0  0  0  0  0  0  0  0  0  0  0
  191.4610  174.7510  145.6250 C   0  0  0  0  0  2  0  0  0  0  0  0
  192.5840  175.7790  145.5290 C   0  0  2  0  0  3  0  0  0  0  0  0
  194.0730  175.5430  143.4470 C   0  0  1  0  0  3  0  0  0  0  0  0
  194.8420  176.2230  144.5620 C   0  0  0  0  0  2  0  0  0  0  0  0
  193.8310  175.1470  144.9070 C   0  0  1  0  0  3  0  0  0  0  0  0
  193.0940  176.4150  142.9620 O   0  0  0  0  0  1  0  0  0  0  0  0
  192.8950  176.4150  146.8870 C   0  0  0  0  0  2  0  0  0  0  0  0
  191.9030  176.0020  147.9640 C   0  0  0  0  0  2  0  0  0  0  0  0
  191.3070  177.2390  148.6010 C   0  0  0  0  0  1  0  0  0  0  0  0
  1 19  1  1  0  0  0
  1 12  1  0  0  0  0
  2 17  2  0  0  0  0
  2 18  1  0  0  0  0
  3  8  1  0  0  0  0
  3  4  1  0  0  0  0
  4 15  1  0  0  0  0
  5 14  1  0  0  0  0
  5 17  1  0  0  0  0
  6 13  1  0  0  0  0
  6  9  2  0  0  0  0
  7  1  1  0  0  0  0
  7 13  1  0  0  0  0
  8 10  1  0  0  0  0
  9  2  1  0  0  0  0
 10  9  1  0  0  0  0
 10 16  2  0  0  0  0
 11 18  2  0  0  0  0
 11 24  1  0  0  0  0
 12 14  1  0  0  0  0
 13  5  2  0  0  0  0
 15 16  1  0  0  0  0
 16 11  1  0  0  0  0
 20 19  1  0  0  0  0
 21 20  1  0  0  0  0
 21 23  1  0  0  0  0
 22 23  1  0  0  0  0
 25 24  1  1  0  0  0
 25 30  1  0  0  0  0
 26 29  1  1  0  0  0
 26 27  1  0  0  0  0
 26 28  1  0  0  0  0
 27 28  1  0  0  0  0
 28 25  1  1  0  0  0
 30 31  1  0  0  0  0
 31 32  1  0  0  0  0
M  END
>  <MODEL>
5

>  <REMARK>
 VINA RESULT:      -6.6      1.661      3.364
  Name = 
  9 active torsions:
  status: ('A' for Active; 'I' for Inactive)
    1  A    between atoms: C_2  and  O_24
    2  A    between atoms: C_6  and  C_7
    3  A    between atoms: C_7  and  C_32
    4  A    between atoms: C_10  and  C_20
    5  A    between atoms: C_10  and  O_24
    6  A    between atoms: C_16  and  C_27
    7  A    between atoms: S_17  and  C_20
    8  A    between atoms: C_22  and  C_32
    9  A    between atoms: C_27  and  C_32
                            x       y       z     vdW  Elec       q    Type
                         _______ _______ _______ _____ _____    ______ ____

>  <TORSDO>
F 9

$$$$
=
 OpenBabel11052421373D

 32 36  0  0  1  0  0  0  0  0999 V2000
  195.5880  173.4400  145.4330 C   0  0  2  0  0  3  0  0  0  0  0  0
  191.2910  176.0460  144.4870 C   0  0  0  0  0  0  0  0  0  0  0  0
  188.2270  173.1790  142.0270 C   0  0  0  0  0  2  0  0  0  0  0  0
  187.2550  174.3630  141.9770 C   0  0  0  0  0  2  0  0  0  0  0  0
  193.5070  175.4020  145.2380 C   0  0  0  0  0  0  0  0  0  0  0  0
  192.3640  174.0840  143.5480 C   0  0  0  0  0  3  0  0  0  0  0  0
  194.6610  173.3760  144.2210 C   0  0  0  0  0  2  0  0  0  0  0  0
  189.3370  173.4260  143.0530 C   0  0  0  0  0  2  0  0  0  0  0  0
  191.2640  174.9470  143.6110 C   0  0  0  0  0  0  0  0  0  0  0  0
  190.0940  174.7050  142.7000 C   0  0  0  0  0  0  0  0  0  0  0  0
  189.1420  176.8990  143.4730 C   0  0  0  0  0  0  0  0  0  0  0  0
  195.9190  174.8950  145.7420 C   0  0  0  0  0  2  0  0  0  0  0  0
  193.4770  174.2900  144.3670 C   0  0  0  0  0  0  0  0  0  0  0  0
  194.6540  175.6270  146.1830 C   0  0  0  0  0  2  0  0  0  0  0  0
  187.9910  175.6620  141.6400 C   0  0  0  0  0  2  0  0  0  0  0  0
  189.1140  175.8520  142.6200 C   0  0  0  0  0  0  0  0  0  0  0  0
  192.4050  176.2560  145.3030 C   0  0  0  0  0  3  0  0  0  0  0  0
  190.1200  176.9700  144.6190 C   0  0  0  0  0  3  0  0  0  0  0  0
  196.7620  172.7380  145.1600 O   0  0  0  0  0  0  0  0  0  0  0  0
  196.7470  171.6570  146.0450 C   0  0  0  0  0  2  0  0  0  0  0  0
  197.2700  170.4100  145.3550 C   0  0  0  0  0  2  0  0  0  0  0  0
  194.8200  169.8280  146.1110 C   0  0  0  0  0  1  0  0  0  0  0  0
  196.3930  168.9350  145.9580 S   0  0  0  0  0  0  0  0  0  0  0  0
  188.1210  177.9950  143.3770 C   0  0  0  0  0  2  0  0  0  0  0  0
  187.2940  178.0860  144.6550 C   0  0  2  0  0  3  0  0  0  0  0  0
  187.1670  176.4590  146.6410 C   0  0  1  0  0  3  0  0  0  0  0  0
  185.7740  176.7720  146.1360 C   0  0  0  0  0  2  0  0  0  0  0  0
  186.9200  176.6860  145.1460 C   0  0  1  0  0  3  0  0  0  0  0  0
  187.6950  177.5890  147.2720 O   0  0  0  0  0  1  0  0  0  0  0  0
  186.0550  178.9670  144.4740 C   0  0  0  0  0  2  0  0  0  0  0  0
  185.5740  179.0050  143.0310 C   0  0  0  0  0  2  0  0  0  0  0  0
  184.3340  178.1470  142.8910 C   0  0  0  0  0  1  0  0  0  0  0  0
  1 19  1  6  0  0  0
  1 12  1  0  0  0  0
  2 18  1  0  0  0  0
  2 17  2  0  0  0  0
  3  8  1  0  0  0  0
  4  3  1  0  0  0  0
  5 17  1  0  0  0  0
  5 14  1  0  0  0  0
  6  9  2  0  0  0  0
  6 13  1  0  0  0  0
  7 13  1  0  0  0  0
  7  1  1  0  0  0  0
  9  2  1  0  0  0  0
 10  8  1  0  0  0  0
 10  9  1  0  0  0  0
 11 18  2  0  0  0  0
 12 14  1  0  0  0  0
 13  5  2  0  0  0  0
 15  4  1  0  0  0  0
 15 16  1  0  0  0  0
 16 10  2  0  0  0  0
 16 11  1  0  0  0  0
 19 20  1  0  0  0  0
 21 23  1  0  0  0  0
 21 20  1  0  0  0  0
 23 22  1  0  0  0  0
 24 11  1  0  0  0  0
 25 24  1  6  0  0  0
 26 29  1  1  0  0  0
 27 26  1  0  0  0  0
 28 25  1  1  0  0  0
 28 27  1  0  0  0  0
 28 26  1  0  0  0  0
 30 25  1  0  0  0  0
 31 30  1  0  0  0  0
 32 31  1  0  0  0  0
M  END
>  <MODEL>
6

>  <REMARK>
 VINA RESULT:      -6.6      4.460     10.077
  Name = 
  9 active torsions:
  status: ('A' for Active; 'I' for Inactive)
    1  A    between atoms: C_2  and  O_24
    2  A    between atoms: C_6  and  C_7
    3  A    between atoms: C_7  and  C_32
    4  A    between atoms: C_10  and  C_20
    5  A    between atoms: C_10  and  O_24
    6  A    between atoms: C_16  and  C_27
    7  A    between atoms: S_17  and  C_20
    8  A    between atoms: C_22  and  C_32
    9  A    between atoms: C_27  and  C_32
                            x       y       z     vdW  Elec       q    Type
                         _______ _______ _______ _____ _____    ______ ____

>  <TORSDO>
F 9

$$$$
=
 OpenBabel11052421373D

 32 36  0  0  1  0  0  0  0  0999 V2000
  186.2870  178.0400  145.5350 C   0  0  2  0  0  3  0  0  0  0  0  0
  190.8070  175.6540  145.7080 C   0  0  0  0  0  0  0  0  0  0  0  0
  191.7030  173.6750  141.3570 C   0  0  0  0  0  2  0  0  0  0  0  0
  193.0020  173.1130  141.9480 C   0  0  0  0  0  2  0  0  0  0  0  0
  188.8200  176.9240  146.2820 C   0  0  0  0  0  0  0  0  0  0  0  0
  188.8430  175.5340  144.2910 C   0  0  0  0  0  3  0  0  0  0  0  0
  186.7390  176.7640  144.8290 C   0  0  0  0  0  2  0  0  0  0  0  0
  191.1100  174.7540  142.2690 C   0  0  0  0  0  2  0  0  0  0  0  0
  190.1610  175.1520  144.5660 C   0  0  0  0  0  0  0  0  0  0  0  0
  190.8410  174.1700  143.6550 C   0  0  0  0  0  0  0  0  0  0  0  0
  192.7420  174.0860  145.2970 C   0  0  0  0  0  0  0  0  0  0  0  0
  186.6450  177.9560  147.0140 C   0  0  0  0  0  2  0  0  0  0  0  0
  188.1730  176.4310  145.1280 C   0  0  0  0  0  0  0  0  0  0  0  0
  188.1630  177.9400  147.1750 C   0  0  0  0  0  2  0  0  0  0  0  0
  192.7630  172.5360  143.3450 C   0  0  0  0  0  2  0  0  0  0  0  0
  192.1230  173.5900  144.2030 C   0  0  0  0  0  0  0  0  0  0  0  0
  190.1370  176.5470  146.5490 C   0  0  0  0  0  3  0  0  0  0  0  0
  192.2300  175.3070  146.0190 C   0  0  0  0  0  3  0  0  0  0  0  0
  184.9070  178.1890  145.3930 O   0  0  0  0  0  0  0  0  0  0  0  0
  184.7510  179.0510  144.3050 C   0  0  0  0  0  2  0  0  0  0  0  0
  184.0320  178.3390  143.1730 C   0  0  0  0  0  2  0  0  0  0  0  0
  183.6650  178.2920  140.5700 C   0  0  0  0  0  1  0  0  0  0  0  0
  185.0890  178.2660  141.6950 S   0  0  0  0  0  0  0  0  0  0  0  0
  194.0360  173.4980  145.7800 C   0  0  0  0  0  2  0  0  0  0  0  0
  195.1790  174.4970  145.6300 C   0  0  2  0  0  3  0  0  0  0  0  0
  195.2630  176.5220  144.0480 C   0  0  1  0  0  3  0  0  0  0  0  0
  196.5620  175.7470  143.9700 C   0  0  0  0  0  2  0  0  0  0  0  0
  195.2620  174.9960  144.1850 C   0  0  1  0  0  3  0  0  0  0  0  0
  195.1840  177.1690  145.2850 O   0  0  0  0  0  1  0  0  0  0  0  0
  196.5150  173.9130  146.0990 C   0  0  0  0  0  2  0  0  0  0  0  0
  196.5790  172.4010  145.9350 C   0  0  0  0  0  2  0  0  0  0  0  0
  197.5540  172.0560  144.8290 C   0  0  0  0  0  1  0  0  0  0  0  0
  1 19  1  1  0  0  0
  1 12  1  0  0  0  0
  2 18  1  0  0  0  0
  2 17  2  0  0  0  0
  3  4  1  0  0  0  0
  3  8  1  0  0  0  0
  4 15  1  0  0  0  0
  5 17  1  0  0  0  0
  5 14  1  0  0  0  0
  6  9  2  0  0  0  0
  6 13  1  0  0  0  0
  7 13  1  0  0  0  0
  7  1  1  0  0  0  0
  8 10  1  0  0  0  0
  9  2  1  0  0  0  0
 10 16  2  0  0  0  0
 10  9  1  0  0  0  0
 11 24  1  0  0  0  0
 11 18  2  0  0  0  0
 12 14  1  0  0  0  0
 13  5  2  0  0  0  0
 15 16  1  0  0  0  0
 16 11  1  0  0  0  0
 20 19  1  0  0  0  0
 21 20  1  0  0  0  0
 22 23  1  0  0  0  0
 23 21  1  0  0  0  0
 25 24  1  6  0  0  0
 25 30  1  0  0  0  0
 26 28  1  0  0  0  0
 26 29  1  1  0  0  0
 27 26  1  0  0  0  0
 27 28  1  0  0  0  0
 28 25  1  1  0  0  0
 31 30  1  0  0  0  0
 32 31  1  0  0  0  0
M  END
>  <MODEL>
7

>  <REMARK>
 VINA RESULT:      -6.5      2.465      5.159
  Name = 
  9 active torsions:
  status: ('A' for Active; 'I' for Inactive)
    1  A    between atoms: C_2  and  O_24
    2  A    between atoms: C_6  and  C_7
    3  A    between atoms: C_7  and  C_32
    4  A    between atoms: C_10  and  C_20
    5  A    between atoms: C_10  and  O_24
    6  A    between atoms: C_16  and  C_27
    7  A    between atoms: S_17  and  C_20
    8  A    between atoms: C_22  and  C_32
    9  A    between atoms: C_27  and  C_32
                            x       y       z     vdW  Elec       q    Type
                         _______ _______ _______ _____ _____    ______ ____

>  <TORSDO>
F 9

$$$$
=
 OpenBabel11052421373D

 32 36  0  0  1  0  0  0  0  0999 V2000
  185.6280  178.3330  145.6560 C   0  0  2  0  0  3  0  0  0  0  0  0
  190.0920  175.8580  145.9660 C   0  0  0  0  0  0  0  0  0  0  0  0
  191.3300  174.2930  141.5300 C   0  0  0  0  0  2  0  0  0  0  0  0
  192.5680  173.6530  142.1680 C   0  0  0  0  0  2  0  0  0  0  0  0
  188.0770  177.1040  146.4950 C   0  0  0  0  0  0  0  0  0  0  0  0
  188.2530  175.9120  144.3870 C   0  0  0  0  0  3  0  0  0  0  0  0
  186.1240  177.1230  144.8670 C   0  0  0  0  0  2  0  0  0  0  0  0
  190.6730  175.2900  142.4910 C   0  0  0  0  0  2  0  0  0  0  0  0
  189.5390  175.4810  144.7300 C   0  0  0  0  0  0  0  0  0  0  0  0
  190.2830  174.5790  143.7860 C   0  0  0  0  0  0  0  0  0  0  0  0
  192.0390  174.3020  145.5640 C   0  0  0  0  0  0  0  0  0  0  0  0
  185.8600  178.0990  147.1430 C   0  0  0  0  0  2  0  0  0  0  0  0
  187.5250  176.7360  145.2490 C   0  0  0  0  0  0  0  0  0  0  0  0
  187.3590  178.0400  147.4260 C   0  0  0  0  0  2  0  0  0  0  0  0
  192.2070  172.9480  143.4770 C   0  0  0  0  0  2  0  0  0  0  0  0
  191.5080  173.9250  144.3790 C   0  0  0  0  0  0  0  0  0  0  0  0
  189.3640  176.6780  146.8320 C   0  0  0  0  0  3  0  0  0  0  0  0
  191.4810  175.4560  146.3570 C   0  0  0  0  0  3  0  0  0  0  0  0
  184.2660  178.5210  145.4150 O   0  0  0  0  0  0  0  0  0  0  0  0
  184.2130  179.3410  144.2860 C   0  0  0  0  0  2  0  0  0  0  0  0
  183.4780  178.6340  143.1610 C   0  0  0  0  0  2  0  0  0  0  0  0
  183.2950  178.3020  140.5600 C   0  0  0  0  0  1  0  0  0  0  0  0
  184.6200  178.2520  141.7980 S   0  0  0  0  0  0  0  0  0  0  0  0
  193.2820  173.6460  146.0910 C   0  0  0  0  0  2  0  0  0  0  0  0
  194.5330  174.3320  145.5500 C   0  0  2  0  0  3  0  0  0  0  0  0
  196.4270  172.9800  144.4600 C   0  0  1  0  0  3  0  0  0  0  0  0
  197.0020  174.1400  145.2450 C   0  0  0  0  0  2  0  0  0  0  0  0
  195.7590  173.4410  145.7590 C   0  0  1  0  0  3  0  0  0  0  0  0
  195.7760  173.4670  143.3230 O   0  0  0  0  0  1  0  0  0  0  0  0
  194.7360  175.7190  146.1660 C   0  0  0  0  0  2  0  0  0  0  0  0
  194.8850  176.8070  145.1120 C   0  0  0  0  0  2  0  0  0  0  0  0
  194.1340  176.4030  143.8610 C   0  0  0  0  0  1  0  0  0  0  0  0
  1 19  1  1  0  0  0
  1 12  1  0  0  0  0
  2 18  1  0  0  0  0
  2 17  2  0  0  0  0
  3  4  1  0  0  0  0
  3  8  1  0  0  0  0
  4 15  1  0  0  0  0
  5 17  1  0  0  0  0
  5 14  1  0  0  0  0
  6  9  2  0  0  0  0
  6 13  1  0  0  0  0
  7 13  1  0  0  0  0
  7  1  1  0  0  0  0
  8 10  1  0  0  0  0
  9  2  1  0  0  0  0
 10 16  2  0  0  0  0
 10  9  1  0  0  0  0
 11 24  1  0  0  0  0
 11 18  2  0  0  0  0
 12 14  1  0  0  0  0
 13  5  2  0  0  0  0
 15 16  1  0  0  0  0
 16 11  1  0  0  0  0
 20 19  1  0  0  0  0
 21 20  1  0  0  0  0
 22 23  1  0  0  0  0
 23 21  1  0  0  0  0
 25 24  1  1  0  0  0
 25 30  1  0  0  0  0
 26 29  1  6  0  0  0
 26 27  1  0  0  0  0
 26 28  1  0  0  0  0
 27 28  1  0  0  0  0
 28 25  1  6  0  0  0
 31 30  1  0  0  0  0
 32 31  1  0  0  0  0
M  END
>  <MODEL>
8

>  <REMARK>
 VINA RESULT:      -6.4      2.476      4.799
  Name = 
  9 active torsions:
  status: ('A' for Active; 'I' for Inactive)
    1  A    between atoms: C_2  and  O_24
    2  A    between atoms: C_6  and  C_7
    3  A    between atoms: C_7  and  C_32
    4  A    between atoms: C_10  and  C_20
    5  A    between atoms: C_10  and  O_24
    6  A    between atoms: C_16  and  C_27
    7  A    between atoms: S_17  and  C_20
    8  A    between atoms: C_22  and  C_32
    9  A    between atoms: C_27  and  C_32
                            x       y       z     vdW  Elec       q    Type
                         _______ _______ _______ _____ _____    ______ ____

>  <TORSDO>
F 9

$$$$
=
 OpenBabel11052421373D

 32 36  0  0  1  0  0  0  0  0999 V2000
  185.7780  177.4510  143.3420 C   0  0  2  0  0  3  0  0  0  0  0  0
  190.6870  176.1060  142.8450 C   0  0  0  0  0  0  0  0  0  0  0  0
  192.8510  176.4350  147.1880 C   0  0  0  0  0  2  0  0  0  0  0  0
  194.1570  176.0200  146.5010 C   0  0  0  0  0  2  0  0  0  0  0  0
  188.3530  176.6100  142.4060 C   0  0  0  0  0  0  0  0  0  0  0  0
  189.3980  177.3750  144.4600 C   0  0  0  0  0  3  0  0  0  0  0  0
  187.0090  177.9840  144.0710 C   0  0  0  0  0  2  0  0  0  0  0  0
  191.6460  176.1630  146.2820 C   0  0  0  0  0  2  0  0  0  0  0  0
  190.6060  176.7820  144.0750 C   0  0  0  0  0  0  0  0  0  0  0  0
  191.8060  176.9240  144.9660 C   0  0  0  0  0  0  0  0  0  0  0  0
  193.1820  175.8700  143.1450 C   0  0  0  0  0  0  0  0  0  0  0  0
  186.0440  177.4330  141.8420 C   0  0  0  0  0  2  0  0  0  0  0  0
  188.2660  177.2790  143.6460 C   0  0  0  0  0  0  0  0  0  0  0  0
  187.1470  176.4260  141.5280 C   0  0  0  0  0  2  0  0  0  0  0  0
  194.3340  176.7560  145.1710 C   0  0  0  0  0  2  0  0  0  0  0  0
  193.1150  176.5290  144.3240 C   0  0  0  0  0  0  0  0  0  0  0  0
  189.5570  176.0130  142.0270 C   0  0  0  0  0  3  0  0  0  0  0  0
  191.9450  175.4200  142.4100 C   0  0  0  0  0  3  0  0  0  0  0  0
  184.6820  178.2700  143.6170 O   0  0  0  0  0  0  0  0  0  0  0  0
  185.0640  179.0160  144.7340 C   0  0  0  0  0  2  0  0  0  0  0  0
  184.1850  178.6640  145.9220 C   0  0  0  0  0  2  0  0  0  0  0  0
  185.7800  176.9300  147.0880 C   0  0  0  0  0  1  0  0  0  0  0  0
  185.1740  178.6020  147.4470 S   0  0  0  0  0  0  0  0  0  0  0  0
  194.5070  175.4650  142.5670 C   0  0  0  0  0  2  0  0  0  0  0  0
  195.0370  174.2070  143.2480 C   0  0  2  0  0  3  0  0  0  0  0  0
  197.5950  174.0550  143.4550 C   0  0  1  0  0  3  0  0  0  0  0  0
  196.9930  172.6650  143.4230 C   0  0  0  0  0  2  0  0  0  0  0  0
  196.3550  173.7690  142.6030 C   0  0  1  0  0  3  0  0  0  0  0  0
  197.2780  174.6690  144.6700 O   0  0  0  0  0  1  0  0  0  0  0  0
  194.0060  173.0740  143.2410 C   0  0  0  0  0  2  0  0  0  0  0  0
  193.5120  172.7290  144.6380 C   0  0  0  0  0  2  0  0  0  0  0  0
  191.9980  172.7110  144.6470 C   0  0  0  0  0  1  0  0  0  0  0  0
  1 19  1  6  0  0  0
  1  7  1  0  0  0  0
  2  9  1  0  0  0  0
  4  3  1  0  0  0  0
  5 13  1  0  0  0  0
  8  3  1  0  0  0  0
  9  6  1  0  0  0  0
  9 10  2  0  0  0  0
 10  8  1  0  0  0  0
 11 16  2  0  0  0  0
 12  1  1  0  0  0  0
 13  7  1  0  0  0  0
 13  6  2  0  0  0  0
 14 12  1  0  0  0  0
 14  5  1  0  0  0  0
 15  4  1  0  0  0  0
 16 10  1  0  0  0  0
 16 15  1  0  0  0  0
 17  5  2  0  0  0  0
 17  2  1  0  0  0  0
 18  2  2  0  0  0  0
 18 11  1  0  0  0  0
 19 20  1  0  0  0  0
 20 21  1  0  0  0  0
 21 23  1  0  0  0  0
 22 23  1  0  0  0  0
 24 11  1  0  0  0  0
 25 24  1  6  0  0  0
 26 29  1  1  0  0  0
 27 26  1  0  0  0  0
 28 25  1  1  0  0  0
 28 27  1  0  0  0  0
 28 26  1  0  0  0  0
 30 25  1  0  0  0  0
 30 31  1  0  0  0  0
 31 32  1  0  0  0  0
M  END
>  <MODEL>
9

>  <REMARK>
 VINA RESULT:      -6.4      2.995      4.228
  Name = 
  9 active torsions:
  status: ('A' for Active; 'I' for Inactive)
    1  A    between atoms: C_2  and  O_24
    2  A    between atoms: C_6  and  C_7
    3  A    between atoms: C_7  and  C_32
    4  A    between atoms: C_10  and  C_20
    5  A    between atoms: C_10  and  O_24
    6  A    between atoms: C_16  and  C_27
    7  A    between atoms: S_17  and  C_20
    8  A    between atoms: C_22  and  C_32
    9  A    between atoms: C_27  and  C_32
                            x       y       z     vdW  Elec       q    Type
                         _______ _______ _______ _____ _____    ______ ____

>  <TORSDO>
F 9

$$$$
