=
 OpenBabel11052418443D

 34 39  0  0  1  0  0  0  0  0999 V2000
  188.7220  174.4000  141.2840 C   0  0  1  0  0  3  0  0  0  0  0  0
  191.0960  173.8410  142.0590 C   0  0  2  0  0  3  0  0  0  0  0  0
  189.5280  175.1940  143.5240 C   0  0  0  0  0  0  0  0  0  0  0  0
  190.1900  176.0080  145.6910 N   0  0  0  0  0  0  0  0  0  0  0  0
  189.8090  172.2580  140.5960 C   0  0  0  0  0  3  0  0  0  0  0  0
  190.9720  172.6520  141.1360 C   0  0  0  0  0  3  0  0  0  0  0  0
  191.7340  174.7350  144.6900 C   0  0  0  0  0  3  0  0  0  0  0  0
  189.7690  174.4980  142.3740 C   0  0  0  0  0  0  0  0  0  0  0  0
  191.2270  175.9430  146.5380 C   0  0  0  0  0  3  0  0  0  0  0  0
  188.5070  172.9340  140.9260 C   0  0  0  0  0  2  0  0  0  0  0  0
  188.2760  175.8580  143.7220 C   0  0  0  0  0  0  0  0  0  0  0  0
  187.4760  174.9830  141.6490 O   0  0  0  0  0  0  0  0  0  0  0  0
  192.0410  174.8540  141.4390 C   0  0  0  0  0  1  0  0  0  0  0  0
  189.0300  176.6640  145.8910 C   0  0  0  0  0  3  0  0  0  0  0  0
  188.0350  176.6200  144.9070 C   0  0  0  0  0  0  0  0  0  0  0  0
  192.1880  175.1580  145.9270 C   0  0  0  0  0  0  0  0  0  0  0  0
  190.4690  175.2990  144.5800 C   0  0  0  0  0  0  0  0  0  0  0  0
  187.3040  175.7300  142.8120 C   0  0  0  0  0  3  0  0  0  0  0  0
  185.3520  179.3160  144.8120 C   0  0  0  0  0  0  0  0  0  0  0  0
  184.4250  178.8100  145.7270 C   0  0  0  0  0  3  0  0  0  0  0  0
  186.7770  177.3730  145.1660 C   0  0  0  0  0  0  0  0  0  0  0  0
  184.6700  177.5930  146.3680 C   0  0  0  0  0  3  0  0  0  0  0  0
  186.5230  178.6050  144.5390 C   0  0  0  0  0  3  0  0  0  0  0  0
  185.8420  176.8820  146.0920 C   0  0  0  0  0  3  0  0  0  0  0  0
  185.1180  180.4980  144.1940 F   0  0  0  0  0  0  0  0  0  0  0  0
  193.4620  174.8230  146.4750 N   0  0  0  0  0  2  0  0  0  0  0  0
  194.5990  175.7250  146.3970 C   0  0  0  0  0  2  0  0  0  0  0  0
  196.7930  173.7380  146.1460 C   0  0  0  0  0  1  0  0  0  0  0  0
  195.3200  175.5140  145.1080 C   0  0  0  0  0  0  0  0  0  0  0  0
  196.3660  174.5820  144.9930 C   0  0  0  0  0  0  0  0  0  0  0  0
  196.6560  175.1950  142.7210 C   0  0  0  0  0  3  0  0  0  0  0  0
  195.6230  176.1260  142.8370 C   0  0  0  0  0  3  0  0  0  0  0  0
  194.9810  176.2650  144.0270 N   0  0  0  0  0  0  0  0  0  0  0  0
  197.0050  174.4460  143.8010 N   0  0  0  0  0  0  0  0  0  0  0  0
  1 10  1  1  0  0  0
  1 12  1  0  0  0  0
  1  8  1  0  0  0  0
  2 13  1  6  0  0  0
  2  8  1  0  0  0  0
  3 11  1  0  0  0  0
  3 17  1  0  0  0  0
  4 14  1  0  0  0  0
  4  9  1  0  0  0  0
  5 10  1  0  0  0  0
  5  6  2  0  0  0  0
  6  2  1  0  0  0  0
  7 16  1  0  0  0  0
  8  3  2  0  0  0  0
 11 15  1  0  0  0  0
 12 18  1  0  0  0  0
 15 21  1  0  0  0  0
 15 14  2  0  0  0  0
 16 26  1  0  0  0  0
 16  9  2  0  0  0  0
 17  7  2  0  0  0  0
 17  4  1  0  0  0  0
 18 11  2  0  0  0  0
 19 20  1  0  0  0  0
 20 22  2  0  0  0  0
 21 24  2  0  0  0  0
 23 19  2  0  0  0  0
 23 21  1  0  0  0  0
 24 22  1  0  0  0  0
 25 19  1  0  0  0  0
 27 26  1  0  0  0  0
 29 27  1  0  0  0  0
 30 29  1  0  0  0  0
 30 28  1  0  0  0  0
 31 32  2  0  0  0  0
 31 34  1  0  0  0  0
 32 33  1  0  0  0  0
 33 29  2  0  0  0  0
 34 30  2  0  0  0  0
M  END
>  <MODEL>
1

>  <REMARK>
 VINA RESULT:      -9.0      0.000      0.000
  Name = 
  4 active torsions:
  status: ('A' for Active; 'I' for Inactive)
    1  A    between atoms: C_3  and  C_13
    2  A    between atoms: C_3  and  N_17
    3  A    between atoms: C_12  and  C_28
    4  A    between atoms: N_17  and  C_29
                            x       y       z     vdW  Elec       q    Type
                         _______ _______ _______ _____ _____    ______ ____

>  <TORSDO>
F 4

$$$$
=
 OpenBabel11052418443D

 34 39  0  0  1  0  0  0  0  0999 V2000
  188.7020  174.2490  141.6250 C   0  0  1  0  0  3  0  0  0  0  0  0
  191.1170  173.8790  142.3840 C   0  0  2  0  0  3  0  0  0  0  0  0
  189.5200  175.2970  143.7540 C   0  0  0  0  0  0  0  0  0  0  0  0
  190.1930  176.3500  145.8110 N   0  0  0  0  0  0  0  0  0  0  0  0
  189.8740  172.1010  141.1200 C   0  0  0  0  0  3  0  0  0  0  0  0
  191.0290  172.6000  141.5850 C   0  0  0  0  0  3  0  0  0  0  0  0
  191.7730  175.0560  144.8960 C   0  0  0  0  0  3  0  0  0  0  0  0
  189.7670  174.5020  142.6710 C   0  0  0  0  0  0  0  0  0  0  0  0
  191.2510  176.4170  146.6310 C   0  0  0  0  0  3  0  0  0  0  0  0
  188.5500  172.7460  141.4180 C   0  0  0  0  0  2  0  0  0  0  0  0
  188.2420  175.9180  143.9210 C   0  0  0  0  0  0  0  0  0  0  0  0
  187.4380  174.8070  141.9670 O   0  0  0  0  0  0  0  0  0  0  0  0
  191.9980  174.8680  141.6420 C   0  0  0  0  0  1  0  0  0  0  0  0
  189.0070  176.9690  145.9780 C   0  0  0  0  0  3  0  0  0  0  0  0
  187.9930  176.7820  145.0320 C   0  0  0  0  0  0  0  0  0  0  0  0
  192.2340  175.6200  146.0730 C   0  0  0  0  0  0  0  0  0  0  0  0
  190.4800  175.5480  144.7680 C   0  0  0  0  0  0  0  0  0  0  0  0
  187.2570  175.6570  143.0550 C   0  0  0  0  0  3  0  0  0  0  0  0
  185.2200  179.3790  144.8200 C   0  0  0  0  0  0  0  0  0  0  0  0
  184.2990  178.8690  145.7370 C   0  0  0  0  0  3  0  0  0  0  0  0
  186.7060  177.4990  145.2510 C   0  0  0  0  0  0  0  0  0  0  0  0
  184.5770  177.6810  146.4180 C   0  0  0  0  0  3  0  0  0  0  0  0
  186.4190  178.7010  144.5840 C   0  0  0  0  0  3  0  0  0  0  0  0
  185.7750  177.0030  146.1800 C   0  0  0  0  0  3  0  0  0  0  0  0
  184.9550  180.5340  144.1640 F   0  0  0  0  0  0  0  0  0  0  0  0
  193.5350  175.4000  146.6150 N   0  0  0  0  0  2  0  0  0  0  0  0
  194.7150  176.0720  146.0940 C   0  0  0  0  0  2  0  0  0  0  0  0
  195.1740  176.0560  143.1590 C   0  0  0  0  0  1  0  0  0  0  0  0
  195.6170  175.0740  145.4480 C   0  0  0  0  0  0  0  0  0  0  0  0
  195.8250  175.0600  144.0580 C   0  0  0  0  0  0  0  0  0  0  0  0
  197.2520  173.1820  144.2960 C   0  0  0  0  0  3  0  0  0  0  0  0
  197.0400  173.1910  145.6750 C   0  0  0  0  0  3  0  0  0  0  0  0
  196.2270  174.1350  146.2190 N   0  0  0  0  0  0  0  0  0  0  0  0
  196.6390  174.1140  143.5200 N   0  0  0  0  0  0  0  0  0  0  0  0
  1 10  1  1  0  0  0
  1 12  1  0  0  0  0
  1  8  1  0  0  0  0
  2 13  1  6  0  0  0
  2  8  1  0  0  0  0
  3 11  1  0  0  0  0
  3 17  1  0  0  0  0
  4 14  1  0  0  0  0
  4  9  1  0  0  0  0
  5 10  1  0  0  0  0
  5  6  2  0  0  0  0
  6  2  1  0  0  0  0
  7 16  1  0  0  0  0
  8  3  2  0  0  0  0
 11 15  1  0  0  0  0
 12 18  1  0  0  0  0
 15 21  1  0  0  0  0
 15 14  2  0  0  0  0
 16 26  1  0  0  0  0
 16  9  2  0  0  0  0
 17  7  2  0  0  0  0
 17  4  1  0  0  0  0
 18 11  2  0  0  0  0
 19 20  1  0  0  0  0
 20 22  2  0  0  0  0
 21 24  2  0  0  0  0
 23 19  2  0  0  0  0
 23 21  1  0  0  0  0
 24 22  1  0  0  0  0
 25 19  1  0  0  0  0
 27 26  1  0  0  0  0
 28 30  1  0  0  0  0
 29 27  1  0  0  0  0
 29 33  1  0  0  0  0
 30 29  2  0  0  0  0
 31 32  1  0  0  0  0
 32 33  2  0  0  0  0
 34 30  1  0  0  0  0
 34 31  2  0  0  0  0
M  END
>  <MODEL>
2

>  <REMARK>
 VINA RESULT:      -9.0      0.686      1.314
  Name = 
  4 active torsions:
  status: ('A' for Active; 'I' for Inactive)
    1  A    between atoms: C_3  and  C_13
    2  A    between atoms: C_3  and  N_17
    3  A    between atoms: C_12  and  C_28
    4  A    between atoms: N_17  and  C_29
                            x       y       z     vdW  Elec       q    Type
                         _______ _______ _______ _____ _____    ______ ____

>  <TORSDO>
F 4

$$$$
=
 OpenBabel11052418443D

 34 39  0  0  1  0  0  0  0  0999 V2000
  190.7480  174.9580  146.4000 C   0  0  1  0  0  3  0  0  0  0  0  0
  191.5340  173.5120  144.4410 C   0  0  2  0  0  3  0  0  0  0  0  0
  189.5220  175.0400  144.2120 C   0  0  0  0  0  0  0  0  0  0  0  0
  188.2710  175.2020  142.1630 N   0  0  0  0  0  0  0  0  0  0  0  0
  193.1730  174.4360  146.1040 C   0  0  0  0  0  3  0  0  0  0  0  0
  192.8880  173.5830  145.1080 C   0  0  0  0  0  3  0  0  0  0  0  0
  190.0680  173.8770  142.0240 C   0  0  0  0  0  3  0  0  0  0  0  0
  190.5560  174.5460  144.9560 C   0  0  0  0  0  0  0  0  0  0  0  0
  188.2990  174.7410  140.9040 C   0  0  0  0  0  3  0  0  0  0  0  0
  192.1780  175.4490  146.5960 C   0  0  0  0  0  2  0  0  0  0  0  0
  188.5870  175.9570  144.7880 C   0  0  0  0  0  0  0  0  0  0  0  0
  189.8420  175.9710  146.8190 O   0  0  0  0  0  0  0  0  0  0  0  0
  190.9620  172.1180  144.6280 C   0  0  0  0  0  1  0  0  0  0  0  0
  187.3600  176.0460  142.6880 C   0  0  0  0  0  3  0  0  0  0  0  0
  187.4820  176.4450  144.0240 C   0  0  0  0  0  0  0  0  0  0  0  0
  189.4070  173.9200  140.8090 C   0  0  0  0  0  0  0  0  0  0  0  0
  189.3120  174.6980  142.8510 C   0  0  0  0  0  0  0  0  0  0  0  0
  188.7710  176.3970  146.0370 C   0  0  0  0  0  3  0  0  0  0  0  0
  185.3730  179.5500  144.6450 C   0  0  0  0  0  0  0  0  0  0  0  0
  184.5200  179.1030  145.6550 C   0  0  0  0  0  3  0  0  0  0  0  0
  186.4440  177.3650  144.5660 C   0  0  0  0  0  0  0  0  0  0  0  0
  184.6270  177.7930  146.1290 C   0  0  0  0  0  3  0  0  0  0  0  0
  186.3330  178.6890  144.1080 C   0  0  0  0  0  3  0  0  0  0  0  0
  185.5860  176.9310  145.5910 C   0  0  0  0  0  3  0  0  0  0  0  0
  185.2750  180.8220  144.1880 F   0  0  0  0  0  0  0  0  0  0  0  0
  189.8240  173.2150  139.6400 N   0  0  0  0  0  2  0  0  0  0  0  0
  188.8770  172.5470  138.7610 C   0  0  0  0  0  2  0  0  0  0  0  0
  189.8290  170.7380  136.6060 C   0  0  0  0  0  1  0  0  0  0  0  0
  189.0660  173.0290  137.3610 C   0  0  0  0  0  0  0  0  0  0  0  0
  189.5280  172.1750  136.3450 C   0  0  0  0  0  0  0  0  0  0  0  0
  189.4490  173.9760  134.8040 C   0  0  0  0  0  3  0  0  0  0  0  0
  188.9980  174.8250  135.8150 C   0  0  0  0  0  3  0  0  0  0  0  0
  188.8190  174.3330  137.0700 N   0  0  0  0  0  0  0  0  0  0  0  0
  189.7040  172.6720  135.0920 N   0  0  0  0  0  0  0  0  0  0  0  0
  1 10  1  6  0  0  0
  1 12  1  0  0  0  0
  2 13  1  1  0  0  0
  2  8  1  0  0  0  0
  2  6  1  0  0  0  0
  3 11  1  0  0  0  0
  3  8  2  0  0  0  0
  4 14  1  0  0  0  0
  4 17  1  0  0  0  0
  5 10  1  0  0  0  0
  6  5  2  0  0  0  0
  7 17  2  0  0  0  0
  8  1  1  0  0  0  0
  9  4  1  0  0  0  0
 11 18  2  0  0  0  0
 14 15  2  0  0  0  0
 15 21  1  0  0  0  0
 15 11  1  0  0  0  0
 16  9  2  0  0  0  0
 16  7  1  0  0  0  0
 17  3  1  0  0  0  0
 18 12  1  0  0  0  0
 19 20  1  0  0  0  0
 20 22  2  0  0  0  0
 21 24  2  0  0  0  0
 23 21  1  0  0  0  0
 23 19  2  0  0  0  0
 24 22  1  0  0  0  0
 25 19  1  0  0  0  0
 26 16  1  0  0  0  0
 27 26  1  0  0  0  0
 29 27  1  0  0  0  0
 30 28  1  0  0  0  0
 30 29  2  0  0  0  0
 31 34  2  0  0  0  0
 31 32  1  0  0  0  0
 32 33  2  0  0  0  0
 33 29  1  0  0  0  0
 34 30  1  0  0  0  0
M  END
>  <MODEL>
3

>  <REMARK>
 VINA RESULT:      -8.7      3.579      6.261
  Name = 
  4 active torsions:
  status: ('A' for Active; 'I' for Inactive)
    1  A    between atoms: C_3  and  C_13
    2  A    between atoms: C_3  and  N_17
    3  A    between atoms: C_12  and  C_28
    4  A    between atoms: N_17  and  C_29
                            x       y       z     vdW  Elec       q    Type
                         _______ _______ _______ _____ _____    ______ ____

>  <TORSDO>
F 4

$$$$
=
 OpenBabel11052418443D

 34 39  0  0  1  0  0  0  0  0999 V2000
  190.7620  175.0110  146.4390 C   0  0  1  0  0  3  0  0  0  0  0  0
  191.5690  173.6020  144.4620 C   0  0  2  0  0  3  0  0  0  0  0  0
  189.5260  175.0910  144.2560 C   0  0  0  0  0  0  0  0  0  0  0  0
  188.2630  175.2490  142.2140 N   0  0  0  0  0  0  0  0  0  0  0  0
  193.1960  174.5410  146.1280 C   0  0  0  0  0  3  0  0  0  0  0  0
  192.9240  173.6940  145.1250 C   0  0  0  0  0  3  0  0  0  0  0  0
  190.0870  173.9620  142.0550 C   0  0  0  0  0  3  0  0  0  0  0  0
  190.5730  174.6110  144.9910 C   0  0  0  0  0  0  0  0  0  0  0  0
  188.2960  174.8020  140.9500 C   0  0  0  0  0  3  0  0  0  0  0  0
  192.1830  175.5290  146.6340 C   0  0  0  0  0  2  0  0  0  0  0  0
  188.5750  175.9830  144.8450 C   0  0  0  0  0  0  0  0  0  0  0  0
  189.8360  176.0020  146.8720 O   0  0  0  0  0  0  0  0  0  0  0  0
  191.0260  172.1950  144.6370 C   0  0  0  0  0  1  0  0  0  0  0  0
  187.3380  176.0680  142.7520 C   0  0  0  0  0  3  0  0  0  0  0  0
  187.4570  176.4560  144.0910 C   0  0  0  0  0  0  0  0  0  0  0  0
  189.4200  174.0040  140.8420 C   0  0  0  0  0  0  0  0  0  0  0  0
  189.3170  174.7590  142.8930 C   0  0  0  0  0  0  0  0  0  0  0  0
  188.7540  176.4140  146.0990 C   0  0  0  0  0  3  0  0  0  0  0  0
  185.2690  179.5030  144.7290 C   0  0  0  0  0  0  0  0  0  0  0  0
  184.4490  179.0390  145.7600 C   0  0  0  0  0  3  0  0  0  0  0  0
  186.4020  177.3500  144.6460 C   0  0  0  0  0  0  0  0  0  0  0  0
  184.6040  177.7360  146.2420 C   0  0  0  0  0  3  0  0  0  0  0  0
  186.2430  178.6660  144.1800 C   0  0  0  0  0  3  0  0  0  0  0  0
  185.5780  176.8990  145.6910 C   0  0  0  0  0  3  0  0  0  0  0  0
  185.1240  180.7670  144.2650 F   0  0  0  0  0  0  0  0  0  0  0  0
  189.8460  173.3200  139.6650 N   0  0  0  0  0  2  0  0  0  0  0  0
  191.0980  172.5830  139.6100 C   0  0  0  0  0  2  0  0  0  0  0  0
  190.8520  170.2410  141.4210 C   0  0  0  0  0  1  0  0  0  0  0  0
  190.8490  171.2080  139.0840 C   0  0  0  0  0  0  0  0  0  0  0  0
  190.7450  170.0990  139.9400 C   0  0  0  0  0  0  0  0  0  0  0  0
  190.4410  168.6840  138.0620 C   0  0  0  0  0  3  0  0  0  0  0  0
  190.5520  169.7850  137.2120 C   0  0  0  0  0  3  0  0  0  0  0  0
  190.7560  171.0200  137.7410 N   0  0  0  0  0  0  0  0  0  0  0  0
  190.5410  168.8660  139.4060 N   0  0  0  0  0  0  0  0  0  0  0  0
  1 10  1  6  0  0  0
  1 12  1  0  0  0  0
  2 13  1  1  0  0  0
  2  8  1  0  0  0  0
  2  6  1  0  0  0  0
  3 11  1  0  0  0  0
  3  8  2  0  0  0  0
  4 14  1  0  0  0  0
  4 17  1  0  0  0  0
  5 10  1  0  0  0  0
  6  5  2  0  0  0  0
  7 17  2  0  0  0  0
  8  1  1  0  0  0  0
  9  4  1  0  0  0  0
 11 18  2  0  0  0  0
 14 15  2  0  0  0  0
 15 21  1  0  0  0  0
 15 11  1  0  0  0  0
 16  9  2  0  0  0  0
 16  7  1  0  0  0  0
 17  3  1  0  0  0  0
 18 12  1  0  0  0  0
 19 20  1  0  0  0  0
 20 22  2  0  0  0  0
 21 24  2  0  0  0  0
 23 21  1  0  0  0  0
 23 19  2  0  0  0  0
 24 22  1  0  0  0  0
 25 19  1  0  0  0  0
 26 16  1  0  0  0  0
 27 26  1  0  0  0  0
 29 27  1  0  0  0  0
 29 30  1  0  0  0  0
 30 28  1  0  0  0  0
 31 34  1  0  0  0  0
 32 33  1  0  0  0  0
 32 31  2  0  0  0  0
 33 29  2  0  0  0  0
 34 30  2  0  0  0  0
M  END
>  <MODEL>
4

>  <REMARK>
 VINA RESULT:      -8.6      3.193      5.648
  Name = 
  4 active torsions:
  status: ('A' for Active; 'I' for Inactive)
    1  A    between atoms: C_3  and  C_13
    2  A    between atoms: C_3  and  N_17
    3  A    between atoms: C_12  and  C_28
    4  A    between atoms: N_17  and  C_29
                            x       y       z     vdW  Elec       q    Type
                         _______ _______ _______ _____ _____    ______ ____

>  <TORSDO>
F 4

$$$$
=
 OpenBabel11052418443D

 34 39  0  0  1  0  0  0  0  0999 V2000
  190.7410  174.9840  146.4370 C   0  0  1  0  0  3  0  0  0  0  0  0
  191.5460  173.5760  144.4580 C   0  0  2  0  0  3  0  0  0  0  0  0
  189.5080  175.0730  144.2530 C   0  0  0  0  0  0  0  0  0  0  0  0
  188.2480  175.2390  142.2090 N   0  0  0  0  0  0  0  0  0  0  0  0
  193.1740  174.5070  146.1280 C   0  0  0  0  0  3  0  0  0  0  0  0
  192.9000  173.6620  145.1220 C   0  0  0  0  0  3  0  0  0  0  0  0
  190.0670  173.9460  142.0500 C   0  0  0  0  0  3  0  0  0  0  0  0
  190.5520  174.5880  144.9880 C   0  0  0  0  0  0  0  0  0  0  0  0
  188.2800  174.7940  140.9450 C   0  0  0  0  0  3  0  0  0  0  0  0
  192.1630  175.4970  146.6350 C   0  0  0  0  0  2  0  0  0  0  0  0
  188.5590  175.9680  144.8430 C   0  0  0  0  0  0  0  0  0  0  0  0
  189.8190  175.9770  146.8710 O   0  0  0  0  0  0  0  0  0  0  0  0
  190.9980  172.1710  144.6300 C   0  0  0  0  0  1  0  0  0  0  0  0
  187.3250  176.0610  142.7480 C   0  0  0  0  0  3  0  0  0  0  0  0
  187.4440  176.4460  144.0880 C   0  0  0  0  0  0  0  0  0  0  0  0
  189.4020  173.9930  140.8370 C   0  0  0  0  0  0  0  0  0  0  0  0
  189.3000  174.7440  142.8890 C   0  0  0  0  0  0  0  0  0  0  0  0
  188.7390  176.3950  146.0970 C   0  0  0  0  0  3  0  0  0  0  0  0
  185.2650  179.4990  144.7290 C   0  0  0  0  0  0  0  0  0  0  0  0
  184.4430  179.0360  145.7590 C   0  0  0  0  0  3  0  0  0  0  0  0
  186.3920  177.3420  144.6430 C   0  0  0  0  0  0  0  0  0  0  0  0
  184.5950  177.7330  146.2390 C   0  0  0  0  0  3  0  0  0  0  0  0
  186.2370  178.6590  144.1790 C   0  0  0  0  0  3  0  0  0  0  0  0
  185.5670  176.8930  145.6880 C   0  0  0  0  0  3  0  0  0  0  0  0
  185.1230  180.7640  144.2650 F   0  0  0  0  0  0  0  0  0  0  0  0
  189.8270  173.3100  139.6590 N   0  0  0  0  0  2  0  0  0  0  0  0
  191.1280  172.6680  139.5650 C   0  0  0  0  0  2  0  0  0  0  0  0
  193.5590  173.7010  140.9240 C   0  0  0  0  0  1  0  0  0  0  0  0
  192.0880  173.5760  138.8700 C   0  0  0  0  0  0  0  0  0  0  0  0
  193.2310  174.0740  139.5180 C   0  0  0  0  0  0  0  0  0  0  0  0
  193.8010  175.2900  137.5640 C   0  0  0  0  0  3  0  0  0  0  0  0
  192.6620  174.8010  136.9230 C   0  0  0  0  0  3  0  0  0  0  0  0
  191.8310  173.9580  137.5910 N   0  0  0  0  0  0  0  0  0  0  0  0
  194.0590  174.9170  138.8450 N   0  0  0  0  0  0  0  0  0  0  0  0
  1 10  1  6  0  0  0
  1 12  1  0  0  0  0
  2 13  1  1  0  0  0
  2  8  1  0  0  0  0
  2  6  1  0  0  0  0
  3 11  1  0  0  0  0
  3  8  2  0  0  0  0
  4 14  1  0  0  0  0
  4 17  1  0  0  0  0
  5 10  1  0  0  0  0
  6  5  2  0  0  0  0
  7 17  2  0  0  0  0
  8  1  1  0  0  0  0
  9  4  1  0  0  0  0
 11 18  2  0  0  0  0
 14 15  2  0  0  0  0
 15 21  1  0  0  0  0
 15 11  1  0  0  0  0
 16  9  2  0  0  0  0
 16  7  1  0  0  0  0
 17  3  1  0  0  0  0
 18 12  1  0  0  0  0
 19 20  1  0  0  0  0
 20 22  2  0  0  0  0
 21 24  2  0  0  0  0
 23 21  1  0  0  0  0
 23 19  2  0  0  0  0
 24 22  1  0  0  0  0
 25 19  1  0  0  0  0
 26 16  1  0  0  0  0
 27 26  1  0  0  0  0
 29 30  1  0  0  0  0
 29 27  1  0  0  0  0
 30 28  1  0  0  0  0
 31 34  1  0  0  0  0
 32 31  2  0  0  0  0
 32 33  1  0  0  0  0
 33 29  2  0  0  0  0
 34 30  2  0  0  0  0
M  END
>  <MODEL>
5

>  <REMARK>
 VINA RESULT:      -8.5      2.764      4.809
  Name = 
  4 active torsions:
  status: ('A' for Active; 'I' for Inactive)
    1  A    between atoms: C_3  and  C_13
    2  A    between atoms: C_3  and  N_17
    3  A    between atoms: C_12  and  C_28
    4  A    between atoms: N_17  and  C_29
                            x       y       z     vdW  Elec       q    Type
                         _______ _______ _______ _____ _____    ______ ____

>  <TORSDO>
F 4

$$$$
=
 OpenBabel11052418443D

 34 39  0  0  1  0  0  0  0  0999 V2000
  191.0790  175.5160  146.3240 C   0  0  1  0  0  3  0  0  0  0  0  0
  191.9290  174.1000  144.3700 C   0  0  2  0  0  3  0  0  0  0  0  0
  189.7340  175.3620  144.2110 C   0  0  0  0  0  0  0  0  0  0  0  0
  188.3610  175.2890  142.2350 N   0  0  0  0  0  0  0  0  0  0  0  0
  193.5300  175.2810  145.9020 C   0  0  0  0  0  3  0  0  0  0  0  0
  193.2980  174.3620  144.9520 C   0  0  0  0  0  3  0  0  0  0  0  0
  190.2990  174.1880  142.0330 C   0  0  0  0  0  3  0  0  0  0  0  0
  190.8600  175.0270  144.9080 C   0  0  0  0  0  0  0  0  0  0  0  0
  188.3770  174.7860  140.9930 C   0  0  0  0  0  3  0  0  0  0  0  0
  192.4450  176.1840  146.4190 C   0  0  0  0  0  2  0  0  0  0  0  0
  188.7250  176.1800  144.8110 C   0  0  0  0  0  0  0  0  0  0  0  0
  190.0780  176.4270  146.7630 O   0  0  0  0  0  0  0  0  0  0  0  0
  191.5450  172.6560  144.6360 C   0  0  0  0  0  1  0  0  0  0  0  0
  187.3830  176.0360  142.7860 C   0  0  0  0  0  3  0  0  0  0  0  0
  187.5280  176.4990  144.0990 C   0  0  0  0  0  0  0  0  0  0  0  0
  189.5710  174.1030  140.8580 C   0  0  0  0  0  0  0  0  0  0  0  0
  189.4930  174.9430  142.8770 C   0  0  0  0  0  0  0  0  0  0  0  0
  188.9210  176.6880  146.0330 C   0  0  0  0  0  3  0  0  0  0  0  0
  185.0910  179.3490  144.7460 C   0  0  0  0  0  0  0  0  0  0  0  0
  184.3530  178.8390  145.8160 C   0  0  0  0  0  3  0  0  0  0  0  0
  186.4150  177.3070  144.6710 C   0  0  0  0  0  0  0  0  0  0  0  0
  184.6440  177.5700  146.3220 C   0  0  0  0  0  3  0  0  0  0  0  0
  186.1200  178.5900  144.1810 C   0  0  0  0  0  3  0  0  0  0  0  0
  185.6720  176.8100  145.7550 C   0  0  0  0  0  3  0  0  0  0  0  0
  184.8140  180.5820  144.2580 F   0  0  0  0  0  0  0  0  0  0  0  0
  190.0080  173.4080  139.6910 N   0  0  0  0  0  2  0  0  0  0  0  0
  189.1940  172.3880  139.0490 C   0  0  0  0  0  2  0  0  0  0  0  0
  189.6910  171.1270  136.4060 C   0  0  0  0  0  1  0  0  0  0  0  0
  189.9810  171.1270  138.9190 C   0  0  0  0  0  0  0  0  0  0  0  0
  190.2050  170.5240  137.6690 C   0  0  0  0  0  0  0  0  0  0  0  0
  191.3940  168.7710  138.7340 C   0  0  0  0  0  3  0  0  0  0  0  0
  191.1640  169.3650  139.9750 C   0  0  0  0  0  3  0  0  0  0  0  0
  190.4620  170.5270  140.0390 N   0  0  0  0  0  0  0  0  0  0  0  0
  190.9090  169.3630  137.6100 N   0  0  0  0  0  0  0  0  0  0  0  0
  1 10  1  6  0  0  0
  1 12  1  0  0  0  0
  2 13  1  1  0  0  0
  2  8  1  0  0  0  0
  2  6  1  0  0  0  0
  3 11  1  0  0  0  0
  3  8  2  0  0  0  0
  4 14  1  0  0  0  0
  4 17  1  0  0  0  0
  5 10  1  0  0  0  0
  6  5  2  0  0  0  0
  7 17  2  0  0  0  0
  8  1  1  0  0  0  0
  9  4  1  0  0  0  0
 11 18  2  0  0  0  0
 14 15  2  0  0  0  0
 15 21  1  0  0  0  0
 15 11  1  0  0  0  0
 16  9  2  0  0  0  0
 16  7  1  0  0  0  0
 17  3  1  0  0  0  0
 18 12  1  0  0  0  0
 19 20  1  0  0  0  0
 20 22  2  0  0  0  0
 21 24  2  0  0  0  0
 23 21  1  0  0  0  0
 23 19  2  0  0  0  0
 24 22  1  0  0  0  0
 25 19  1  0  0  0  0
 26 16  1  0  0  0  0
 27 26  1  0  0  0  0
 28 30  1  0  0  0  0
 29 27  1  0  0  0  0
 29 33  1  0  0  0  0
 30 29  2  0  0  0  0
 31 32  1  0  0  0  0
 32 33  2  0  0  0  0
 34 30  1  0  0  0  0
 34 31  2  0  0  0  0
M  END
>  <MODEL>
6

>  <REMARK>
 VINA RESULT:      -8.3      3.162      5.917
  Name = 
  4 active torsions:
  status: ('A' for Active; 'I' for Inactive)
    1  A    between atoms: C_3  and  C_13
    2  A    between atoms: C_3  and  N_17
    3  A    between atoms: C_12  and  C_28
    4  A    between atoms: N_17  and  C_29
                            x       y       z     vdW  Elec       q    Type
                         _______ _______ _______ _____ _____    ______ ____

>  <TORSDO>
F 4

$$$$
=
 OpenBabel11052418443D

 34 39  0  0  1  0  0  0  0  0999 V2000
  188.5910  174.4550  140.9280 C   0  0  1  0  0  3  0  0  0  0  0  0
  190.8830  173.6650  141.7440 C   0  0  2  0  0  3  0  0  0  0  0  0
  189.4040  175.1140  143.2090 C   0  0  0  0  0  0  0  0  0  0  0  0
  190.0790  175.8070  145.4130 N   0  0  0  0  0  0  0  0  0  0  0  0
  189.4990  172.2430  140.2060 C   0  0  0  0  0  3  0  0  0  0  0  0
  190.6790  172.5160  140.7840 C   0  0  0  0  0  3  0  0  0  0  0  0
  191.5290  174.4270  144.4130 C   0  0  0  0  0  3  0  0  0  0  0  0
  189.6120  174.4290  142.0460 C   0  0  0  0  0  0  0  0  0  0  0  0
  191.0840  175.6270  146.2830 C   0  0  0  0  0  3  0  0  0  0  0  0
  188.2550  173.0240  140.5230 C   0  0  0  0  0  2  0  0  0  0  0  0
  188.2110  175.8820  143.3960 C   0  0  0  0  0  0  0  0  0  0  0  0
  187.3920  175.1370  141.2800 O   0  0  0  0  0  0  0  0  0  0  0  0
  191.9320  174.6040  141.1760 C   0  0  0  0  0  1  0  0  0  0  0  0
  188.9770  176.5600  145.6040 C   0  0  0  0  0  3  0  0  0  0  0  0
  188.0090  176.6310  144.5960 C   0  0  0  0  0  0  0  0  0  0  0  0
  191.9860  174.7750  145.6730 C   0  0  0  0  0  0  0  0  0  0  0  0
  190.3230  175.1060  144.2900 C   0  0  0  0  0  0  0  0  0  0  0  0
  187.2570  175.8660  142.4600 C   0  0  0  0  0  3  0  0  0  0  0  0
  184.7040  177.9120  145.9800 C   0  0  0  0  0  0  0  0  0  0  0  0
  184.5390  179.0890  145.2470 C   0  0  0  0  0  3  0  0  0  0  0  0
  186.8160  177.4870  144.8460 C   0  0  0  0  0  0  0  0  0  0  0  0
  185.5030  179.4670  144.3090 C   0  0  0  0  0  3  0  0  0  0  0  0
  185.8320  177.1130  145.7760 C   0  0  0  0  0  3  0  0  0  0  0  0
  186.6330  178.6680  144.1070 C   0  0  0  0  0  3  0  0  0  0  0  0
  183.7670  177.5410  146.8860 F   0  0  0  0  0  0  0  0  0  0  0  0
  193.2100  174.3120  146.2420 N   0  0  0  0  0  2  0  0  0  0  0  0
  194.4320  174.2020  145.4610 C   0  0  0  0  0  2  0  0  0  0  0  0
  197.3580  173.7870  145.7580 C   0  0  0  0  0  1  0  0  0  0  0  0
  195.0160  172.8390  145.6340 C   0  0  0  0  0  0  0  0  0  0  0  0
  196.4020  172.6430  145.7620 C   0  0  0  0  0  0  0  0  0  0  0  0
  196.0520  170.3020  145.8980 C   0  0  0  0  0  3  0  0  0  0  0  0
  194.6770  170.4960  145.7630 C   0  0  0  0  0  3  0  0  0  0  0  0
  194.1920  171.7590  145.6320 N   0  0  0  0  0  0  0  0  0  0  0  0
  196.8830  171.3780  145.8930 N   0  0  0  0  0  0  0  0  0  0  0  0
  1 10  1  1  0  0  0
  1 12  1  0  0  0  0
  1  8  1  0  0  0  0
  2 13  1  6  0  0  0
  2  8  1  0  0  0  0
  3 11  1  0  0  0  0
  3 17  1  0  0  0  0
  4 14  1  0  0  0  0
  4  9  1  0  0  0  0
  5 10  1  0  0  0  0
  5  6  2  0  0  0  0
  6  2  1  0  0  0  0
  7 16  1  0  0  0  0
  8  3  2  0  0  0  0
 11 15  1  0  0  0  0
 12 18  1  0  0  0  0
 15 21  1  0  0  0  0
 15 14  2  0  0  0  0
 16 26  1  0  0  0  0
 16  9  2  0  0  0  0
 17  7  2  0  0  0  0
 17  4  1  0  0  0  0
 18 11  2  0  0  0  0
 19 25  1  0  0  0  0
 20 19  2  0  0  0  0
 21 23  2  0  0  0  0
 22 20  1  0  0  0  0
 23 19  1  0  0  0  0
 24 22  2  0  0  0  0
 24 21  1  0  0  0  0
 27 29  1  0  0  0  0
 27 26  1  0  0  0  0
 28 30  1  0  0  0  0
 29 30  1  0  0  0  0
 30 34  2  0  0  0  0
 32 31  2  0  0  0  0
 33 29  2  0  0  0  0
 33 32  1  0  0  0  0
 34 31  1  0  0  0  0
M  END
>  <MODEL>
7

>  <REMARK>
 VINA RESULT:      -8.2      1.566      2.264
  Name = 
  4 active torsions:
  status: ('A' for Active; 'I' for Inactive)
    1  A    between atoms: C_3  and  C_13
    2  A    between atoms: C_3  and  N_17
    3  A    between atoms: C_12  and  C_28
    4  A    between atoms: N_17  and  C_29
                            x       y       z     vdW  Elec       q    Type
                         _______ _______ _______ _____ _____    ______ ____

>  <TORSDO>
F 4

$$$$
=
 OpenBabel11052418443D

 34 39  0  0  1  0  0  0  0  0999 V2000
  187.7460  177.7890  144.7450 C   0  0  1  0  0  3  0  0  0  0  0  0
  186.6130  176.9110  142.6260 C   0  0  2  0  0  3  0  0  0  0  0  0
  188.9530  176.1650  143.2610 C   0  0  0  0  0  0  0  0  0  0  0  0
  190.2060  174.6110  141.9160 N   0  0  0  0  0  0  0  0  0  0  0  0
  185.2690  177.4740  144.6700 C   0  0  0  0  0  3  0  0  0  0  0  0
  185.3240  177.2000  143.3580 C   0  0  0  0  0  3  0  0  0  0  0  0
  188.1260  174.9780  141.1770 C   0  0  0  0  0  3  0  0  0  0  0  0
  187.8260  176.8870  143.5310 C   0  0  0  0  0  0  0  0  0  0  0  0
  190.0600  173.8530  140.8190 C   0  0  0  0  0  3  0  0  0  0  0  0
  186.4930  177.4470  145.5420 C   0  0  0  0  0  2  0  0  0  0  0  0
  190.0940  176.2500  144.1210 C   0  0  0  0  0  0  0  0  0  0  0  0
  188.8850  177.6890  145.5930 O   0  0  0  0  0  0  0  0  0  0  0  0
  186.8040  177.9440  141.5310 C   0  0  0  0  0  1  0  0  0  0  0  0
  191.3040  174.6950  142.6930 C   0  0  0  0  0  3  0  0  0  0  0  0
  191.2880  175.5260  143.8190 C   0  0  0  0  0  0  0  0  0  0  0  0
  188.7770  174.0740  140.3540 C   0  0  0  0  0  0  0  0  0  0  0  0
  189.0690  175.2940  142.1470 C   0  0  0  0  0  0  0  0  0  0  0  0
  190.0300  176.9800  145.2390 C   0  0  0  0  0  3  0  0  0  0  0  0
  194.5140  176.7910  145.3910 C   0  0  0  0  0  0  0  0  0  0  0  0
  194.9060  175.6810  146.1400 C   0  0  0  0  0  3  0  0  0  0  0  0
  192.5300  175.5980  144.6390 C   0  0  0  0  0  0  0  0  0  0  0  0
  194.1200  174.5260  146.1390 C   0  0  0  0  0  3  0  0  0  0  0  0
  193.3370  176.7480  144.6400 C   0  0  0  0  0  3  0  0  0  0  0  0
  192.9410  174.4830  145.3880 C   0  0  0  0  0  3  0  0  0  0  0  0
  195.2780  177.9100  145.3870 F   0  0  0  0  0  0  0  0  0  0  0  0
  188.1920  173.4690  139.2020 N   0  0  0  0  0  2  0  0  0  0  0  0
  188.8620  173.4560  137.9120 C   0  0  0  0  0  2  0  0  0  0  0  0
  190.1390  174.1820  135.3300 C   0  0  0  0  0  1  0  0  0  0  0  0
  188.3340  174.5620  137.0600 C   0  0  0  0  0  0  0  0  0  0  0  0
  188.9460  174.9130  135.8450 C   0  0  0  0  0  0  0  0  0  0  0  0
  187.3540  176.6450  135.5490 C   0  0  0  0  0  3  0  0  0  0  0  0
  186.7510  176.3020  136.7600 C   0  0  0  0  0  3  0  0  0  0  0  0
  187.2550  175.2710  137.4880 N   0  0  0  0  0  0  0  0  0  0  0  0
  188.4370  175.9450  135.1210 N   0  0  0  0  0  0  0  0  0  0  0  0
  1 10  1  1  0  0  0
  1 12  1  0  0  0  0
  2 13  1  6  0  0  0
  2  6  1  0  0  0  0
  2  8  1  0  0  0  0
  3  8  2  0  0  0  0
  3 11  1  0  0  0  0
  4 17  1  0  0  0  0
  4 14  1  0  0  0  0
  5 10  1  0  0  0  0
  6  5  2  0  0  0  0
  7 17  2  0  0  0  0
  8  1  1  0  0  0  0
  9  4  1  0  0  0  0
 11 18  2  0  0  0  0
 14 15  2  0  0  0  0
 15 11  1  0  0  0  0
 15 21  1  0  0  0  0
 16  9  2  0  0  0  0
 16  7  1  0  0  0  0
 17  3  1  0  0  0  0
 18 12  1  0  0  0  0
 19 20  1  0  0  0  0
 21 23  1  0  0  0  0
 21 24  2  0  0  0  0
 22 20  2  0  0  0  0
 23 19  2  0  0  0  0
 24 22  1  0  0  0  0
 25 19  1  0  0  0  0
 26 16  1  0  0  0  0
 27 26  1  0  0  0  0
 28 30  1  0  0  0  0
 29 33  1  0  0  0  0
 29 27  1  0  0  0  0
 30 29  2  0  0  0  0
 31 32  1  0  0  0  0
 32 33  2  0  0  0  0
 34 31  2  0  0  0  0
 34 30  1  0  0  0  0
M  END
>  <MODEL>
8

>  <REMARK>
 VINA RESULT:      -8.1      4.183      7.970
  Name = 
  4 active torsions:
  status: ('A' for Active; 'I' for Inactive)
    1  A    between atoms: C_3  and  C_13
    2  A    between atoms: C_3  and  N_17
    3  A    between atoms: C_12  and  C_28
    4  A    between atoms: N_17  and  C_29
                            x       y       z     vdW  Elec       q    Type
                         _______ _______ _______ _____ _____    ______ ____

>  <TORSDO>
F 4

$$$$
=
 OpenBabel11052418443D

 34 39  0  0  1  0  0  0  0  0999 V2000
  185.4220  178.2790  147.0130 C   0  0  1  0  0  3  0  0  0  0  0  0
  187.9000  177.7030  146.7370 C   0  0  2  0  0  3  0  0  0  0  0  0
  186.3890  177.9730  144.7170 C   0  0  0  0  0  0  0  0  0  0  0  0
  187.2060  177.7050  142.4690 N   0  0  0  0  0  0  0  0  0  0  0  0
  187.1110  179.1380  148.6410 C   0  0  0  0  0  3  0  0  0  0  0  0
  188.0680  178.3890  148.0730 C   0  0  0  0  0  3  0  0  0  0  0  0
  188.7940  177.5390  144.0360 C   0  0  0  0  0  3  0  0  0  0  0  0
  186.5750  178.0060  146.0700 C   0  0  0  0  0  0  0  0  0  0  0  0
  188.3550  177.4820  141.8140 C   0  0  0  0  0  3  0  0  0  0  0  0
  185.8030  179.4160  147.9550 C   0  0  0  0  0  2  0  0  0  0  0  0
  185.0910  178.1920  144.1580 C   0  0  0  0  0  0  0  0  0  0  0  0
  184.2140  178.6120  146.3380 O   0  0  0  0  0  0  0  0  0  0  0  0
  188.0560  176.2050  146.9260 C   0  0  0  0  0  1  0  0  0  0  0  0
  185.9880  177.8800  141.9170 C   0  0  0  0  0  3  0  0  0  0  0  0
  184.8860  178.1200  142.7450 C   0  0  0  0  0  0  0  0  0  0  0  0
  189.3430  177.3770  142.7750 C   0  0  0  0  0  0  0  0  0  0  0  0
  187.4410  177.7390  143.7940 C   0  0  0  0  0  0  0  0  0  0  0  0
  184.0670  178.5080  144.9570 C   0  0  0  0  0  3  0  0  0  0  0  0
  181.2080  178.9220  142.1840 C   0  0  0  0  0  0  0  0  0  0  0  0
  181.0460  178.5370  140.8520 C   0  0  0  0  0  3  0  0  0  0  0  0
  183.5580  178.2910  142.0910 C   0  0  0  0  0  0  0  0  0  0  0  0
  182.1310  178.0240  140.1370 C   0  0  0  0  0  3  0  0  0  0  0  0
  182.4550  178.7930  142.8020 C   0  0  0  0  0  3  0  0  0  0  0  0
  183.3780  177.8980  140.7550 C   0  0  0  0  0  3  0  0  0  0  0  0
  180.1560  179.4140  142.8810 F   0  0  0  0  0  0  0  0  0  0  0  0
  190.7270  177.1400  142.5240 N   0  0  0  0  0  2  0  0  0  0  0  0
  191.3480  175.8490  142.7760 C   0  0  0  0  0  2  0  0  0  0  0  0
  190.4540  174.1750  145.0610 C   0  0  0  0  0  1  0  0  0  0  0  0
  192.0520  175.8790  144.0920 C   0  0  0  0  0  0  0  0  0  0  0  0
  191.6210  175.0950  145.1760 C   0  0  0  0  0  0  0  0  0  0  0  0
  193.3510  176.0060  146.5160 C   0  0  0  0  0  3  0  0  0  0  0  0
  193.7750  176.7900  145.4420 C   0  0  0  0  0  3  0  0  0  0  0  0
  193.1150  176.7100  144.2570 N   0  0  0  0  0  0  0  0  0  0  0  0
  192.2850  175.1790  146.3590 N   0  0  0  0  0  0  0  0  0  0  0  0
  1 10  1  1  0  0  0
  2 13  1  1  0  0  0
  2  6  1  0  0  0  0
  3  8  2  0  0  0  0
  4 17  1  0  0  0  0
  6  5  2  0  0  0  0
  8  2  1  0  0  0  0
  8  1  1  0  0  0  0
  9  4  1  0  0  0  0
  9 16  2  0  0  0  0
 10  5  1  0  0  0  0
 11  3  1  0  0  0  0
 11 18  2  0  0  0  0
 12  1  1  0  0  0  0
 14  4  1  0  0  0  0
 14 15  2  0  0  0  0
 15 11  1  0  0  0  0
 16  7  1  0  0  0  0
 17  7  2  0  0  0  0
 17  3  1  0  0  0  0
 18 12  1  0  0  0  0
 19 23  1  0  0  0  0
 19 25  1  0  0  0  0
 20 19  2  0  0  0  0
 21 15  1  0  0  0  0
 21 23  2  0  0  0  0
 22 24  2  0  0  0  0
 22 20  1  0  0  0  0
 24 21  1  0  0  0  0
 26 16  1  0  0  0  0
 26 27  1  0  0  0  0
 27 29  1  0  0  0  0
 28 30  1  0  0  0  0
 29 33  2  0  0  0  0
 29 30  1  0  0  0  0
 30 34  2  0  0  0  0
 32 31  2  0  0  0  0
 33 32  1  0  0  0  0
 34 31  1  0  0  0  0
M  END
>  <MODEL>
9

>  <REMARK>
 VINA RESULT:      -7.9      3.109      5.844
  Name = 
  4 active torsions:
  status: ('A' for Active; 'I' for Inactive)
    1  A    between atoms: C_3  and  C_13
    2  A    between atoms: C_3  and  N_17
    3  A    between atoms: C_12  and  C_28
    4  A    between atoms: N_17  and  C_29
                            x       y       z     vdW  Elec       q    Type
                         _______ _______ _______ _____ _____    ______ ____

>  <TORSDO>
F 4

$$$$
