=
 OpenBabel11052418153D

 28 32  0  0  1  0  0  0  0  0999 V2000
  191.9900  176.7130  142.9090 C   0  0  0  0  0  3  0  0  0  0  0  0
  188.3840  175.1170  147.3370 O   0  0  0  0  0  1  0  0  0  0  0  0
  191.7600  174.3700  143.4650 C   0  0  0  0  0  0  0  0  0  0  0  0
  189.8530  175.8790  144.0000 C   0  0  2  0  0  3  0  0  0  0  0  0
  193.7740  175.1560  142.4730 C   0  0  0  0  0  0  0  0  0  0  0  0
  191.2170  175.6660  143.4270 C   0  0  0  0  0  0  0  0  0  0  0  0
  189.8160  173.4940  145.3660 S   0  0  0  0  0  0  0  0  0  0  0  0
  193.0110  174.1490  142.9770 N   0  0  0  0  0  0  0  0  0  0  0  0
  187.5750  176.5490  145.5520 C   0  0  2  0  0  3  0  0  0  0  0  0
  189.3450  177.3170  143.9920 C   0  0  0  0  0  2  0  0  0  0  0  0
  190.9410  173.1950  143.9300 C   0  0  0  0  0  2  0  0  0  0  0  0
  188.7910  175.9770  146.3140 C   0  0  2  0  0  3  0  0  0  0  0  0
  195.1380  174.8670  141.9590 C   0  0  0  0  0  1  0  0  0  0  0  0
  193.2750  176.4580  142.4280 C   0  0  0  0  0  3  0  0  0  0  0  0
  189.8550  175.3260  145.4110 C   0  0  2  0  0  3  0  0  0  0  0  0
  187.9090  177.3610  144.3430 N   0  0  1  0  0  0  0  0  0  0  0  0
  187.0360  177.0100  143.1750 C   0  0  1  0  0  0  0  0  0  0  0  0
  185.8640  177.9920  142.9740 C   0  0  2  0  0  3  0  0  0  0  0  0
  186.8360  177.7610  140.9310 C   0  0  2  0  0  0  0  0  0  0  0  0
  188.1280  178.4410  141.3400 C   0  0  0  0  0  2  0  0  0  0  0  0
  187.7790  177.0330  141.8410 C   0  0  1  0  0  3  0  0  0  0  0  0
  186.7370  177.1890  139.5330 C   0  0  0  0  0  1  0  0  0  0  0  0
  186.4460  175.6050  143.3140 C   0  0  0  0  0  1  0  0  0  0  0  0
  185.6500  178.1490  141.5890 O   0  0  0  0  0  0  0  0  0  0  0  0
  186.0940  179.3750  143.5840 C   0  0  0  0  0  2  0  0  0  0  0  0
  184.9090  179.7710  144.4440 C   0  0  0  0  0  1  0  0  0  0  0  0
  185.4150  176.8160  146.5700 O   0  0  0  0  0  1  0  0  0  0  0  0
  186.7040  177.3500  146.5140 C   0  0  0  0  0  2  0  0  0  0  0  0
  1  6  1  0  0  0  0
  3 11  1  0  0  0  0
  4 10  1  1  0  0  0
  4 15  1  0  0  0  0
  5  8  2  0  0  0  0
  6  3  2  0  0  0  0
  6  4  1  0  0  0  0
  8  3  1  0  0  0  0
  9 12  1  0  0  0  0
  9 28  1  1  0  0  0
 11  7  1  0  0  0  0
 12  2  1  1  0  0  0
 13  5  1  0  0  0  0
 14  5  1  0  0  0  0
 14  1  2  0  0  0  0
 15  7  1  6  0  0  0
 15 12  1  0  0  0  0
 16 10  1  6  0  0  0
 16  9  1  0  0  0  0
 17 23  1  1  0  0  0
 17 16  1  0  0  0  0
 18 17  1  0  0  0  0
 18 25  1  6  0  0  0
 19 22  1  6  0  0  0
 19 20  1  0  0  0  0
 19 24  1  0  0  0  0
 19 21  1  0  0  0  0
 21 20  1  1  0  0  0
 21 17  1  0  0  0  0
 24 18  1  0  0  0  0
 25 26  1  0  0  0  0
 28 27  1  0  0  0  0
M  END
>  <MODEL>
1

>  <REMARK>
 VINA RESULT:      -6.8      0.000      0.000
  Name = 
  3 active torsions:
  status: ('A' for Active; 'I' for Inactive)
    1  A    between atoms: C_1  and  N_27
    2  A    between atoms: C_2  and  C_3
    3  A    between atoms: C_16  and  C_21
                            x       y       z     vdW  Elec       q    Type
                         _______ _______ _______ _____ _____    ______ ____

>  <TORSDO>
F 3

$$$$
=
 OpenBabel11052418153D

 28 32  0  0  1  0  0  0  0  0999 V2000
  188.7120  173.8450  141.2460 C   0  0  0  0  0  3  0  0  0  0  0  0
  185.3290  177.3700  144.6060 O   0  0  0  0  0  1  0  0  0  0  0  0
  187.7570  175.8470  140.2790 C   0  0  0  0  0  0  0  0  0  0  0  0
  188.1570  175.8260  142.7370 C   0  0  2  0  0  3  0  0  0  0  0  0
  188.2460  173.9800  138.8880 C   0  0  0  0  0  0  0  0  0  0  0  0
  188.2350  175.1530  141.4040 C   0  0  0  0  0  0  0  0  0  0  0  0
  186.3820  177.7530  141.9030 S   0  0  0  0  0  0  0  0  0  0  0  0
  187.7880  175.2490  139.0560 N   0  0  0  0  0  0  0  0  0  0  0  0
  187.5410  176.7100  145.3610 C   0  0  2  0  0  3  0  0  0  0  0  0
  188.6270  174.9990  143.9290 C   0  0  0  0  0  2  0  0  0  0  0  0
  187.3160  177.2830  140.3770 C   0  0  0  0  0  2  0  0  0  0  0  0
  186.3450  176.4270  144.4230 C   0  0  2  0  0  3  0  0  0  0  0  0
  188.2540  173.3670  137.5340 C   0  0  0  0  0  1  0  0  0  0  0  0
  188.7190  173.2540  139.9820 C   0  0  0  0  0  3  0  0  0  0  0  0
  186.7250  176.2800  142.9380 C   0  0  2  0  0  3  0  0  0  0  0  0
  188.7400  175.8470  145.1350 N   0  0  1  0  0  0  0  0  0  0  0  0
  190.0100  176.6440  145.1420 C   0  0  1  0  0  0  0  0  0  0  0  0
  190.6920  176.6890  146.5250 C   0  0  2  0  0  3  0  0  0  0  0  0
  192.3270  176.1290  145.0450 C   0  0  2  0  0  0  0  0  0  0  0  0
  191.7250  174.7770  144.7140 C   0  0  0  0  0  2  0  0  0  0  0  0
  191.0810  176.0770  144.2120 C   0  0  1  0  0  3  0  0  0  0  0  0
  193.5700  176.5630  144.2990 C   0  0  0  0  0  1  0  0  0  0  0  0
  189.7740  178.0880  144.6930 C   0  0  0  0  0  1  0  0  0  0  0  0
  192.0900  176.6590  146.3300 O   0  0  0  0  0  0  0  0  0  0  0  0
  190.3110  175.5330  147.4490 C   0  0  0  0  0  2  0  0  0  0  0  0
  191.4270  175.2660  148.4400 C   0  0  0  0  0  1  0  0  0  0  0  0
  187.1390  177.8750  147.4230 O   0  0  0  0  0  1  0  0  0  0  0  0
  187.0800  176.6210  146.8110 C   0  0  0  0  0  2  0  0  0  0  0  0
  1  6  1  0  0  0  0
  3 11  1  0  0  0  0
  3  6  2  0  0  0  0
  4 15  1  0  0  0  0
  4 10  1  1  0  0  0
  5  8  2  0  0  0  0
  5 14  1  0  0  0  0
  6  4  1  0  0  0  0
  8  3  1  0  0  0  0
  9 28  1  1  0  0  0
 11  7  1  0  0  0  0
 12  2  1  6  0  0  0
 12  9  1  0  0  0  0
 13  5  1  0  0  0  0
 14  1  2  0  0  0  0
 15  7  1  6  0  0  0
 15 12  1  0  0  0  0
 16 10  1  6  0  0  0
 16 17  1  0  0  0  0
 16  9  1  0  0  0  0
 17 23  1  6  0  0  0
 17 18  1  0  0  0  0
 18 25  1  1  0  0  0
 19 22  1  6  0  0  0
 19 24  1  0  0  0  0
 20 19  1  0  0  0  0
 21 20  1  1  0  0  0
 21 19  1  0  0  0  0
 21 17  1  0  0  0  0
 24 18  1  0  0  0  0
 25 26  1  0  0  0  0
 28 27  1  0  0  0  0
M  END
>  <MODEL>
2

>  <REMARK>
 VINA RESULT:      -6.3      2.782      5.501
  Name = 
  3 active torsions:
  status: ('A' for Active; 'I' for Inactive)
    1  A    between atoms: C_1  and  N_27
    2  A    between atoms: C_2  and  C_3
    3  A    between atoms: C_16  and  C_21
                            x       y       z     vdW  Elec       q    Type
                         _______ _______ _______ _____ _____    ______ ____

>  <TORSDO>
F 3

$$$$
=
 OpenBabel11052418153D

 28 32  0  0  1  0  0  0  0  0999 V2000
  193.8440  172.3450  145.5270 C   0  0  0  0  0  3  0  0  0  0  0  0
  190.7000  174.5190  140.9940 O   0  0  0  0  0  1  0  0  0  0  0  0
  194.9950  173.4370  143.7010 C   0  0  0  0  0  0  0  0  0  0  0  0
  192.6380  174.1050  144.1480 C   0  0  2  0  0  3  0  0  0  0  0  0
  196.1130  171.7660  144.9720 C   0  0  0  0  0  0  0  0  0  0  0  0
  193.8420  173.2880  144.4900 C   0  0  0  0  0  0  0  0  0  0  0  0
  193.5410  174.7810  141.6410 S   0  0  0  0  0  0  0  0  0  0  0  0
  196.0970  172.6860  143.9700 N   0  0  0  0  0  0  0  0  0  0  0  0
  190.1360  175.1210  143.2780 C   0  0  2  0  0  3  0  0  0  0  0  0
  191.3970  173.8510  144.9970 C   0  0  0  0  0  2  0  0  0  0  0  0
  195.0770  174.4940  142.6320 C   0  0  0  0  0  2  0  0  0  0  0  0
  190.8540  174.1340  142.3290 C   0  0  2  0  0  3  0  0  0  0  0  0
  197.3390  170.9630  145.2220 C   0  0  0  0  0  1  0  0  0  0  0  0
  194.9850  171.5800  145.7710 C   0  0  0  0  0  3  0  0  0  0  0  0
  192.3320  173.8790  142.6810 C   0  0  2  0  0  3  0  0  0  0  0  0
  190.3700  174.8820  144.7350 N   0  0  1  0  0  0  0  0  0  0  0  0
  190.6550  176.1570  145.4710 C   0  0  1  0  0  0  0  0  0  0  0  0
  189.3860  176.8350  146.0270 C   0  0  2  0  0  3  0  0  0  0  0  0
  190.8660  176.7770  147.7530 C   0  0  2  0  0  0  0  0  0  0  0  0
  190.8430  175.2660  147.8740 C   0  0  0  0  0  2  0  0  0  0  0  0
  191.5440  175.9570  146.6960 C   0  0  1  0  0  3  0  0  0  0  0  0
  191.8050  177.5550  148.6500 C   0  0  0  0  0  1  0  0  0  0  0  0
  191.3730  177.1740  144.5810 C   0  0  0  0  0  1  0  0  0  0  0  0
  189.7050  177.4170  147.2720 O   0  0  0  0  0  0  0  0  0  0  0  0
  188.2050  175.8860  146.2290 C   0  0  0  0  0  2  0  0  0  0  0  0
  187.0610  176.6110  146.9100 C   0  0  0  0  0  1  0  0  0  0  0  0
  188.2240  176.4110  142.6060 O   0  0  0  0  0  1  0  0  0  0  0  0
  188.6440  175.1280  142.9660 C   0  0  0  0  0  2  0  0  0  0  0  0
  1 14  1  0  0  0  0
  3  8  2  0  0  0  0
  3  6  1  0  0  0  0
  4  6  1  0  0  0  0
  4 10  1  1  0  0  0
  5 13  1  0  0  0  0
  5 14  2  0  0  0  0
  6  1  2  0  0  0  0
  7 11  1  0  0  0  0
  8  5  1  0  0  0  0
  9 28  1  1  0  0  0
  9 16  1  0  0  0  0
 11  3  1  0  0  0  0
 12  2  1  6  0  0  0
 12 15  1  0  0  0  0
 12  9  1  0  0  0  0
 15  7  1  6  0  0  0
 15  4  1  0  0  0  0
 16 10  1  6  0  0  0
 16 17  1  0  0  0  0
 17 23  1  6  0  0  0
 17 18  1  0  0  0  0
 17 21  1  0  0  0  0
 18 25  1  1  0  0  0
 18 24  1  0  0  0  0
 19 20  1  0  0  0  0
 19 22  1  1  0  0  0
 21 19  1  0  0  0  0
 21 20  1  1  0  0  0
 24 19  1  0  0  0  0
 25 26  1  0  0  0  0
 27 28  1  0  0  0  0
M  END
>  <MODEL>
3

>  <REMARK>
 VINA RESULT:      -6.1      3.047      5.442
  Name = 
  3 active torsions:
  status: ('A' for Active; 'I' for Inactive)
    1  A    between atoms: C_1  and  N_27
    2  A    between atoms: C_2  and  C_3
    3  A    between atoms: C_16  and  C_21
                            x       y       z     vdW  Elec       q    Type
                         _______ _______ _______ _____ _____    ______ ____

>  <TORSDO>
F 3

$$$$
=
 OpenBabel11052418153D

 28 32  0  0  1  0  0  0  0  0999 V2000
  190.5720  171.1740  142.5470 C   0  0  0  0  0  3  0  0  0  0  0  0
  186.8160  175.7440  142.1410 O   0  0  0  0  0  1  0  0  0  0  0  0
  190.1420  172.1670  140.3830 C   0  0  0  0  0  0  0  0  0  0  0  0
  189.8560  173.6060  142.3960 C   0  0  2  0  0  3  0  0  0  0  0  0
  190.7810  169.8800  140.5280 C   0  0  0  0  0  0  0  0  0  0  0  0
  190.2170  172.2920  141.7820 C   0  0  0  0  0  0  0  0  0  0  0  0
  188.5970  174.5580  140.1450 S   0  0  0  0  0  0  0  0  0  0  0  0
  190.4380  170.9750  139.7970 N   0  0  0  0  0  0  0  0  0  0  0  0
  188.6530  175.8030  143.7270 C   0  0  2  0  0  3  0  0  0  0  0  0
  189.8920  173.6620  143.9190 C   0  0  0  0  0  2  0  0  0  0  0  0
  189.8520  173.3570  139.5090 C   0  0  0  0  0  2  0  0  0  0  0  0
  187.7320  174.9450  142.8300 C   0  0  2  0  0  3  0  0  0  0  0  0
  191.0870  168.5980  139.8420 C   0  0  0  0  0  1  0  0  0  0  0  0
  190.8570  169.9610  141.9180 C   0  0  0  0  0  3  0  0  0  0  0  0
  188.4820  173.9900  141.8830 C   0  0  2  0  0  3  0  0  0  0  0  0
  189.7660  175.0580  144.3900 N   0  0  1  0  0  0  0  0  0  0  0  0
  191.0670  175.7980  144.2980 C   0  0  1  0  0  0  0  0  0  0  0  0
  191.3790  176.6360  145.5550 C   0  0  2  0  0  3  0  0  0  0  0  0
  193.2690  175.4500  145.1150 C   0  0  2  0  0  0  0  0  0  0  0  0
  192.6380  174.1070  145.4290 C   0  0  0  0  0  2  0  0  0  0  0  0
  192.2750  174.8750  144.1510 C   0  0  1  0  0  3  0  0  0  0  0  0
  194.6980  175.4720  144.6140 C   0  0  0  0  0  1  0  0  0  0  0  0
  191.0960  176.7400  143.0920 C   0  0  0  0  0  1  0  0  0  0  0  0
  192.7700  176.5850  145.7870 O   0  0  0  0  0  0  0  0  0  0  0  0
  190.6640  176.1610  146.8190 C   0  0  0  0  0  2  0  0  0  0  0  0
  191.3670  176.6980  148.0510 C   0  0  0  0  0  1  0  0  0  0  0  0
  188.0630  177.9140  144.7120 O   0  0  0  0  0  1  0  0  0  0  0  0
  187.8100  176.5410  144.7610 C   0  0  0  0  0  2  0  0  0  0  0  0
  3  6  1  0  0  0  0
  4 10  1  1  0  0  0
  5 14  2  0  0  0  0
  6  4  1  0  0  0  0
  6  1  2  0  0  0  0
  8  3  2  0  0  0  0
  8  5  1  0  0  0  0
  9 16  1  0  0  0  0
  9 28  1  1  0  0  0
 11  7  1  0  0  0  0
 11  3  1  0  0  0  0
 12  2  1  6  0  0  0
 12  9  1  0  0  0  0
 13  5  1  0  0  0  0
 14  1  1  0  0  0  0
 15  7  1  6  0  0  0
 15  4  1  0  0  0  0
 15 12  1  0  0  0  0
 16 10  1  6  0  0  0
 17 23  1  6  0  0  0
 17 16  1  0  0  0  0
 17 18  1  0  0  0  0
 18 24  1  0  0  0  0
 18 25  1  1  0  0  0
 19 22  1  6  0  0  0
 19 20  1  0  0  0  0
 19 24  1  0  0  0  0
 21 17  1  0  0  0  0
 21 19  1  0  0  0  0
 21 20  1  1  0  0  0
 25 26  1  0  0  0  0
 27 28  1  0  0  0  0
M  END
>  <MODEL>
4

>  <REMARK>
 VINA RESULT:      -6.0      3.190      5.680
  Name = 
  3 active torsions:
  status: ('A' for Active; 'I' for Inactive)
    1  A    between atoms: C_1  and  N_27
    2  A    between atoms: C_2  and  C_3
    3  A    between atoms: C_16  and  C_21
                            x       y       z     vdW  Elec       q    Type
                         _______ _______ _______ _____ _____    ______ ____

>  <TORSDO>
F 3

$$$$
=
 OpenBabel11052418153D

 28 32  0  0  1  0  0  0  0  0999 V2000
  190.4220  173.0400  141.6370 C   0  0  0  0  0  3  0  0  0  0  0  0
  188.8710  175.8710  146.6110 O   0  0  0  0  0  1  0  0  0  0  0  0
  188.9030  174.9190  141.5080 C   0  0  0  0  0  0  0  0  0  0  0  0
  190.4980  174.8480  143.4200 C   0  0  2  0  0  3  0  0  0  0  0  0
  188.8100  173.2090  139.8570 C   0  0  0  0  0  0  0  0  0  0  0  0
  189.9570  174.2540  142.1590 C   0  0  0  0  0  0  0  0  0  0  0  0
  188.3540  176.5250  143.8060 S   0  0  0  0  0  0  0  0  0  0  0  0
  188.3710  174.3880  140.3740 N   0  0  0  0  0  0  0  0  0  0  0  0
  191.2140  175.5120  146.0830 C   0  0  2  0  0  3  0  0  0  0  0  0
  191.5930  174.0480  144.1160 C   0  0  0  0  0  2  0  0  0  0  0  0
  188.4250  176.2680  141.9760 C   0  0  0  0  0  2  0  0  0  0  0  0
  189.7440  175.0980  145.8410 C   0  0  2  0  0  3  0  0  0  0  0  0
  188.1910  172.6660  138.6200 C   0  0  0  0  0  1  0  0  0  0  0  0
  189.8470  172.5140  140.4800 C   0  0  0  0  0  3  0  0  0  0  0  0
  189.3290  175.0750  144.3580 C   0  0  2  0  0  3  0  0  0  0  0  0
  192.2140  174.8480  145.1930 N   0  0  1  0  0  0  0  0  0  0  0  0
  193.2190  175.8240  144.6570 C   0  0  1  0  0  0  0  0  0  0  0  0
  194.5720  175.7720  145.3980 C   0  0  2  0  0  3  0  0  0  0  0  0
  195.0750  175.6950  143.1810 C   0  0  2  0  0  0  0  0  0  0  0  0
  194.4520  174.3290  142.9680 C   0  0  0  0  0  2  0  0  0  0  0  0
  193.5810  175.5720  143.1950 C   0  0  1  0  0  3  0  0  0  0  0  0
  195.6390  176.4220  141.9790 C   0  0  0  0  0  1  0  0  0  0  0  0
  192.7040  177.2620  144.7300 C   0  0  0  0  0  1  0  0  0  0  0  0
  195.6000  175.9890  144.4570 O   0  0  0  0  0  0  0  0  0  0  0  0
  194.8450  174.4480  146.1120 C   0  0  0  0  0  2  0  0  0  0  0  0
  196.3350  174.1660  146.1380 C   0  0  0  0  0  1  0  0  0  0  0  0
  191.5660  176.5040  148.2430 O   0  0  0  0  0  1  0  0  0  0  0  0
  191.5680  175.2920  147.5500 C   0  0  0  0  0  2  0  0  0  0  0  0
  1  6  1  0  0  0  0
  3 11  1  0  0  0  0
  3  6  2  0  0  0  0
  4 10  1  1  0  0  0
  4 15  1  0  0  0  0
  5  8  2  0  0  0  0
  5 14  1  0  0  0  0
  6  4  1  0  0  0  0
  8  3  1  0  0  0  0
  9 28  1  1  0  0  0
 11  7  1  0  0  0  0
 12  9  1  0  0  0  0
 12  2  1  1  0  0  0
 13  5  1  0  0  0  0
 14  1  2  0  0  0  0
 15  7  1  6  0  0  0
 15 12  1  0  0  0  0
 16 10  1  6  0  0  0
 16  9  1  0  0  0  0
 17 23  1  1  0  0  0
 17 16  1  0  0  0  0
 17 18  1  0  0  0  0
 18 25  1  6  0  0  0
 19 22  1  6  0  0  0
 19 21  1  0  0  0  0
 19 24  1  0  0  0  0
 20 19  1  0  0  0  0
 21 20  1  1  0  0  0
 21 17  1  0  0  0  0
 24 18  1  0  0  0  0
 25 26  1  0  0  0  0
 28 27  1  0  0  0  0
M  END
>  <MODEL>
5

>  <REMARK>
 VINA RESULT:      -5.9      3.088      6.481
  Name = 
  3 active torsions:
  status: ('A' for Active; 'I' for Inactive)
    1  A    between atoms: C_1  and  N_27
    2  A    between atoms: C_2  and  C_3
    3  A    between atoms: C_16  and  C_21
                            x       y       z     vdW  Elec       q    Type
                         _______ _______ _______ _____ _____    ______ ____

>  <TORSDO>
F 3

$$$$
=
 OpenBabel11052418153D

 28 32  0  0  1  0  0  0  0  0999 V2000
  189.1660  177.4060  142.4240 C   0  0  0  0  0  3  0  0  0  0  0  0
  191.9520  172.5820  140.3930 O   0  0  0  0  0  1  0  0  0  0  0  0
  187.8980  175.3850  142.0210 C   0  0  0  0  0  0  0  0  0  0  0  0
  190.3210  175.1470  142.5470 C   0  0  2  0  0  3  0  0  0  0  0  0
  186.8250  177.5030  141.8750 C   0  0  0  0  0  0  0  0  0  0  0  0
  189.1150  176.0070  142.3490 C   0  0  0  0  0  0  0  0  0  0  0  0
  189.2080  172.9380  141.3460 S   0  0  0  0  0  0  0  0  0  0  0  0
  186.7900  176.1440  141.8080 N   0  0  0  0  0  0  0  0  0  0  0  0
  192.7740  173.7330  142.3670 C   0  0  2  0  0  3  0  0  0  0  0  0
  191.6260  175.8830  142.8330 C   0  0  0  0  0  2  0  0  0  0  0  0
  187.7670  173.8850  142.0140 C   0  0  0  0  0  2  0  0  0  0  0  0
  191.9120  173.7950  141.0850 C   0  0  2  0  0  3  0  0  0  0  0  0
  185.5890  178.2890  141.6260 C   0  0  0  0  0  1  0  0  0  0  0  0
  188.0160  178.1590  142.1870 C   0  0  0  0  0  3  0  0  0  0  0  0
  190.4660  174.2710  141.3180 C   0  0  2  0  0  3  0  0  0  0  0  0
  192.6750  174.9300  143.2560 N   0  0  1  0  0  0  0  0  0  0  0  0
  192.5350  174.5460  144.6980 C   0  0  1  0  0  0  0  0  0  0  0  0
  193.8070  174.8180  145.5260 C   0  0  2  0  0  3  0  0  0  0  0  0
  192.0880  175.7090  146.7200 C   0  0  2  0  0  0  0  0  0  0  0  0
  191.7910  176.7920  145.7010 C   0  0  0  0  0  2  0  0  0  0  0  0
  191.4400  175.3240  145.4240 C   0  0  1  0  0  3  0  0  0  0  0  0
  191.1920  175.5990  147.9340 C   0  0  0  0  0  1  0  0  0  0  0  0
  192.1850  173.0650  144.8550 C   0  0  0  0  0  1  0  0  0  0  0  0
  193.4150  175.2400  146.8140 O   0  0  0  0  0  0  0  0  0  0  0  0
  194.7280  175.8820  144.9310 C   0  0  0  0  0  2  0  0  0  0  0  0
  196.0930  175.2910  144.6400 C   0  0  0  0  0  1  0  0  0  0  0  0
  194.8010  174.5940  141.4050 O   0  0  0  0  0  1  0  0  0  0  0  0
  194.2260  173.4620  141.9880 C   0  0  0  0  0  2  0  0  0  0  0  0
  3  6  2  0  0  0  0
  4 10  1  6  0  0  0
  5 14  1  0  0  0  0
  6  1  1  0  0  0  0
  6  4  1  0  0  0  0
  7 11  1  0  0  0  0
  8  5  2  0  0  0  0
  8  3  1  0  0  0  0
  9 28  1  6  0  0  0
  9 16  1  0  0  0  0
 11  3  1  0  0  0  0
 12  2  1  1  0  0  0
 12 15  1  0  0  0  0
 12  9  1  0  0  0  0
 13  5  1  0  0  0  0
 14  1  2  0  0  0  0
 15  7  1  1  0  0  0
 15  4  1  0  0  0  0
 16 10  1  6  0  0  0
 16 17  1  0  0  0  0
 17 23  1  1  0  0  0
 17 21  1  0  0  0  0
 17 18  1  0  0  0  0
 18 25  1  6  0  0  0
 18 24  1  0  0  0  0
 19 24  1  0  0  0  0
 19 22  1  1  0  0  0
 20 19  1  0  0  0  0
 21 20  1  6  0  0  0
 21 19  1  0  0  0  0
 26 25  1  0  0  0  0
 27 28  1  0  0  0  0
M  END
>  <MODEL>
6

>  <REMARK>
 VINA RESULT:      -5.9      3.209      7.155
  Name = 
  3 active torsions:
  status: ('A' for Active; 'I' for Inactive)
    1  A    between atoms: C_1  and  N_27
    2  A    between atoms: C_2  and  C_3
    3  A    between atoms: C_16  and  C_21
                            x       y       z     vdW  Elec       q    Type
                         _______ _______ _______ _____ _____    ______ ____

>  <TORSDO>
F 3

$$$$
=
 OpenBabel11052418153D

 28 32  0  0  1  0  0  0  0  0999 V2000
  187.1230  175.4300  142.3690 C   0  0  0  0  0  3  0  0  0  0  0  0
  191.3380  171.7580  144.3460 O   0  0  0  0  0  1  0  0  0  0  0  0
  189.0200  176.3370  143.5670 C   0  0  0  0  0  0  0  0  0  0  0  0
  189.3380  174.1860  142.3510 C   0  0  2  0  0  3  0  0  0  0  0  0
  186.9370  177.4850  143.6100 C   0  0  0  0  0  0  0  0  0  0  0  0
  188.4700  175.3380  142.7440 C   0  0  0  0  0  0  0  0  0  0  0  0
  191.2380  174.6810  144.2750 S   0  0  0  0  0  0  0  0  0  0  0  0
  188.2470  177.3830  143.9640 N   0  0  0  0  0  0  0  0  0  0  0  0
  190.6440  171.6900  142.0200 C   0  0  2  0  0  3  0  0  0  0  0  0
  188.6670  173.1020  141.5140 C   0  0  0  0  0  2  0  0  0  0  0  0
  190.4820  176.3330  143.9260 C   0  0  0  0  0  2  0  0  0  0  0  0
  190.3100  172.1130  143.4690 C   0  0  2  0  0  3  0  0  0  0  0  0
  186.1310  178.6430  144.0760 C   0  0  0  0  0  1  0  0  0  0  0  0
  186.3520  176.5090  142.8030 C   0  0  0  0  0  3  0  0  0  0  0  0
  189.9160  173.5940  143.6210 C   0  0  2  0  0  3  0  0  0  0  0  0
  189.6760  172.1600  140.9830 N   0  0  1  0  0  0  0  0  0  0  0  0
  190.3740  172.7090  139.7750 C   0  0  1  0  0  0  0  0  0  0  0  0
  190.6780  171.6370  138.7090 C   0  0  2  0  0  3  0  0  0  0  0  0
  189.7060  173.3640  137.5920 C   0  0  2  0  0  0  0  0  0  0  0  0
  188.3550  173.1850  138.2560 C   0  0  0  0  0  2  0  0  0  0  0  0
  189.5500  173.7580  139.0300 C   0  0  1  0  0  3  0  0  0  0  0  0
  189.8880  174.5220  136.6340 C   0  0  0  0  0  1  0  0  0  0  0  0
  191.6950  173.3850  140.1460 C   0  0  0  0  0  1  0  0  0  0  0  0
  190.5190  172.2220  137.4350 O   0  0  0  0  0  0  0  0  0  0  0  0
  189.7800  170.4030  138.7860 C   0  0  0  0  0  2  0  0  0  0  0  0
  189.8340  169.6330  137.4810 C   0  0  0  0  0  1  0  0  0  0  0  0
  192.0660  169.8350  141.4650 O   0  0  0  0  0  1  0  0  0  0  0  0
  190.8050  170.1750  141.9590 C   0  0  0  0  0  2  0  0  0  0  0  0
  1  6  2  0  0  0  0
  1 14  1  0  0  0  0
  3 11  1  0  0  0  0
  3  8  2  0  0  0  0
  4 10  1  1  0  0  0
  4  6  1  0  0  0  0
  4 15  1  0  0  0  0
  5  8  1  0  0  0  0
  5 13  1  0  0  0  0
  6  3  1  0  0  0  0
  9 28  1  1  0  0  0
  9 12  1  0  0  0  0
 11  7  1  0  0  0  0
 12 15  1  0  0  0  0
 12  2  1  1  0  0  0
 14  5  2  0  0  0  0
 15  7  1  6  0  0  0
 16 10  1  1  0  0  0
 16  9  1  0  0  0  0
 17 23  1  1  0  0  0
 17 16  1  0  0  0  0
 18 25  1  6  0  0  0
 18 17  1  0  0  0  0
 19 22  1  6  0  0  0
 19 20  1  0  0  0  0
 19 21  1  0  0  0  0
 21 20  1  1  0  0  0
 21 17  1  0  0  0  0
 24 19  1  0  0  0  0
 24 18  1  0  0  0  0
 26 25  1  0  0  0  0
 27 28  1  0  0  0  0
M  END
>  <MODEL>
7

>  <REMARK>
 VINA RESULT:      -5.7      4.210      6.914
  Name = 
  3 active torsions:
  status: ('A' for Active; 'I' for Inactive)
    1  A    between atoms: C_1  and  N_27
    2  A    between atoms: C_2  and  C_3
    3  A    between atoms: C_16  and  C_21
                            x       y       z     vdW  Elec       q    Type
                         _______ _______ _______ _____ _____    ______ ____

>  <TORSDO>
F 3

$$$$
=
 OpenBabel11052418153D

 28 32  0  0  1  0  0  0  0  0999 V2000
  186.9830  175.6810  143.0320 C   0  0  0  0  0  3  0  0  0  0  0  0
  192.0280  174.1750  145.7600 O   0  0  0  0  0  1  0  0  0  0  0  0
  188.5480  177.4120  143.6730 C   0  0  0  0  0  0  0  0  0  0  0  0
  189.4550  175.1320  143.2430 C   0  0  2  0  0  3  0  0  0  0  0  0
  186.2290  177.9170  143.5070 C   0  0  0  0  0  0  0  0  0  0  0  0
  188.3010  176.0810  143.2930 C   0  0  0  0  0  0  0  0  0  0  0  0
  191.1290  176.7520  144.7030 S   0  0  0  0  0  0  0  0  0  0  0  0
  187.5130  178.2910  143.7550 N   0  0  0  0  0  0  0  0  0  0  0  0
  191.3990  173.1120  143.6700 C   0  0  2  0  0  3  0  0  0  0  0  0
  189.1150  173.6880  142.8910 C   0  0  0  0  0  2  0  0  0  0  0  0
  189.9510  177.9160  143.8790 C   0  0  0  0  0  2  0  0  0  0  0  0
  190.9490  173.9170  144.9110 C   0  0  2  0  0  3  0  0  0  0  0  0
  185.1310  178.9130  143.6180 C   0  0  0  0  0  1  0  0  0  0  0  0
  185.9410  176.6020  143.1380 C   0  0  0  0  0  3  0  0  0  0  0  0
  190.1630  175.1990  144.5810 C   0  0  2  0  0  3  0  0  0  0  0  0
  190.3480  172.9160  142.6260 N   0  0  1  0  0  0  0  0  0  0  0  0
  190.8790  173.1640  141.2460 C   0  0  1  0  0  0  0  0  0  0  0  0
  191.3320  171.8760  140.5280 C   0  0  2  0  0  3  0  0  0  0  0  0
  190.0080  172.9800  139.0440 C   0  0  2  0  0  0  0  0  0  0  0  0
  188.7440  172.8000  139.8620 C   0  0  0  0  0  2  0  0  0  0  0  0
  189.8430  173.7750  140.3050 C   0  0  1  0  0  3  0  0  0  0  0  0
  189.9280  173.7910  137.7680 C   0  0  0  0  0  1  0  0  0  0  0  0
  192.0660  174.1300  141.2630 C   0  0  0  0  0  1  0  0  0  0  0  0
  191.0120  171.9960  139.1590 O   0  0  0  0  0  0  0  0  0  0  0  0
  190.6840  170.5990  141.0620 C   0  0  0  0  0  2  0  0  0  0  0  0
  190.8750  169.4630  140.0760 C   0  0  0  0  0  1  0  0  0  0  0  0
  193.2760  171.6120  143.6440 O   0  0  0  0  0  1  0  0  0  0  0  0
  191.9710  171.7710  144.1170 C   0  0  0  0  0  2  0  0  0  0  0  0
  1 14  2  0  0  0  0
  1  6  1  0  0  0  0
  3  8  1  0  0  0  0
  3 11  1  0  0  0  0
  4 10  1  1  0  0  0
  4  6  1  0  0  0  0
  4 15  1  0  0  0  0
  5 13  1  0  0  0  0
  5  8  2  0  0  0  0
  6  3  2  0  0  0  0
  9 28  1  1  0  0  0
  9 12  1  0  0  0  0
 11  7  1  0  0  0  0
 12  2  1  6  0  0  0
 14  5  1  0  0  0  0
 15  7  1  6  0  0  0
 15 12  1  0  0  0  0
 16 10  1  1  0  0  0
 16  9  1  0  0  0  0
 17 23  1  1  0  0  0
 17 16  1  0  0  0  0
 18 25  1  1  0  0  0
 18 17  1  0  0  0  0
 19 22  1  6  0  0  0
 19 24  1  0  0  0  0
 19 20  1  0  0  0  0
 19 21  1  0  0  0  0
 21 20  1  1  0  0  0
 21 17  1  0  0  0  0
 24 18  1  0  0  0  0
 26 25  1  0  0  0  0
 27 28  1  0  0  0  0
M  END
>  <MODEL>
8

>  <REMARK>
 VINA RESULT:      -5.7      3.459      6.649
  Name = 
  3 active torsions:
  status: ('A' for Active; 'I' for Inactive)
    1  A    between atoms: C_1  and  N_27
    2  A    between atoms: C_2  and  C_3
    3  A    between atoms: C_16  and  C_21
                            x       y       z     vdW  Elec       q    Type
                         _______ _______ _______ _____ _____    ______ ____

>  <TORSDO>
F 3

$$$$
=
 OpenBabel11052418153D

 28 32  0  0  1  0  0  0  0  0999 V2000
  188.9640  175.5790  146.2380 C   0  0  0  0  0  3  0  0  0  0  0  0
  194.4170  177.6510  145.1720 O   0  0  0  0  0  1  0  0  0  0  0  0
  189.2530  177.4180  144.6930 C   0  0  0  0  0  0  0  0  0  0  0  0
  191.1620  175.8470  144.9930 C   0  0  2  0  0  3  0  0  0  0  0  0
  187.2070  177.1860  145.8830 C   0  0  0  0  0  0  0  0  0  0  0  0
  189.7620  176.2630  145.3110 C   0  0  0  0  0  0  0  0  0  0  0  0
  191.8600  178.2660  143.8880 S   0  0  0  0  0  0  0  0  0  0  0  0
  187.9920  177.8380  144.9840 N   0  0  0  0  0  0  0  0  0  0  0  0
  193.9410  175.2800  144.9550 C   0  0  2  0  0  3  0  0  0  0  0  0
  191.6820  174.6260  145.7450 C   0  0  0  0  0  2  0  0  0  0  0  0
  190.0330  178.1400  143.6260 C   0  0  0  0  0  2  0  0  0  0  0  0
  193.5190  176.6460  145.5420 C   0  0  2  0  0  3  0  0  0  0  0  0
  185.8380  177.6870  146.1730 C   0  0  0  0  0  1  0  0  0  0  0  0
  187.6790  176.0410  146.5250 C   0  0  0  0  0  3  0  0  0  0  0  0
  192.0620  177.0420  145.2370 C   0  0  2  0  0  3  0  0  0  0  0  0
  192.9640  174.1690  145.1670 N   0  0  1  0  0  0  0  0  0  0  0  0
  192.7600  173.3590  143.9220 C   0  0  1  0  0  0  0  0  0  0  0  0
  193.4980  172.0060  143.9490 C   0  0  2  0  0  3  0  0  0  0  0  0
  191.3690  171.5370  143.3030 C   0  0  2  0  0  0  0  0  0  0  0  0
  190.7570  171.9160  144.6370 C   0  0  0  0  0  2  0  0  0  0  0  0
  191.2990  172.9860  143.6800 C   0  0  1  0  0  3  0  0  0  0  0  0
  190.4420  171.1300  142.1770 C   0  0  0  0  0  1  0  0  0  0  0  0
  193.2210  174.1160  142.6750 C   0  0  0  0  0  1  0  0  0  0  0  0
  192.6920  171.0480  143.2990 O   0  0  0  0  0  0  0  0  0  0  0  0
  193.8160  171.4930  145.3540 C   0  0  0  0  0  2  0  0  0  0  0  0
  195.2940  171.1780  145.4740 C   0  0  0  0  0  1  0  0  0  0  0  0
  196.2450  174.8140  144.4590 O   0  0  0  0  0  1  0  0  0  0  0  0
  195.3150  174.8990  145.4970 C   0  0  0  0  0  2  0  0  0  0  0  0
  1 14  1  0  0  0  0
  3  8  2  0  0  0  0
  3  6  1  0  0  0  0
  4 15  1  0  0  0  0
  4  6  1  0  0  0  0
  4 10  1  1  0  0  0
  5 13  1  0  0  0  0
  5 14  2  0  0  0  0
  6  1  2  0  0  0  0
  8  5  1  0  0  0  0
  9 16  1  0  0  0  0
  9 28  1  1  0  0  0
  9 12  1  0  0  0  0
 11  7  1  0  0  0  0
 11  3  1  0  0  0  0
 12  2  1  6  0  0  0
 15  7  1  6  0  0  0
 15 12  1  0  0  0  0
 16 10  1  6  0  0  0
 17 23  1  6  0  0  0
 17 18  1  0  0  0  0
 17 16  1  0  0  0  0
 18 25  1  1  0  0  0
 19 22  1  6  0  0  0
 19 21  1  0  0  0  0
 19 20  1  0  0  0  0
 21 17  1  0  0  0  0
 21 20  1  1  0  0  0
 24 19  1  0  0  0  0
 24 18  1  0  0  0  0
 25 26  1  0  0  0  0
 27 28  1  0  0  0  0
M  END
>  <MODEL>
9

>  <REMARK>
 VINA RESULT:      -5.6      3.744      7.464
  Name = 
  3 active torsions:
  status: ('A' for Active; 'I' for Inactive)
    1  A    between atoms: C_1  and  N_27
    2  A    between atoms: C_2  and  C_3
    3  A    between atoms: C_16  and  C_21
                            x       y       z     vdW  Elec       q    Type
                         _______ _______ _______ _____ _____    ______ ____

>  <TORSDO>
F 3

$$$$
