=
 OpenBabel11052417083D

 30 32  0  0  1  0  0  0  0  0999 V2000
  192.3590  177.4410  144.2400 C   0  0  0  0  0  2  0  0  0  0  0  0
  191.1060  176.5760  144.1070 C   0  0  2  0  0  0  0  0  0  0  0  0
  192.4590  176.0620  143.6080 C   0  0  2  0  0  0  0  0  0  0  0  0
  190.2010  176.9500  143.0380 N   0  0  0  0  0  0  0  0  0  0  0  0
  188.1820  177.7890  142.0100 C   0  0  1  0  0  3  0  0  0  0  0  0
  186.8660  178.4770  142.3910 C   0  0  0  0  0  2  0  0  0  0  0  0
  188.8930  178.6110  141.1340 O   0  0  0  0  0  1  0  0  0  0  0  0
  188.4820  177.7150  144.6070 C   0  0  0  0  0  2  0  0  0  0  0  0
  186.3690  176.8730  145.8420 C   0  0  0  0  0  1  0  0  0  0  0  0
  189.0300  177.4610  143.2190 C   0  0  0  0  0  0  0  0  0  0  0  0
  186.2370  177.8280  143.5920 C   0  0  0  0  0  3  0  0  0  0  0  0
  186.9980  177.4810  144.6370 C   0  0  0  0  0  0  0  0  0  0  0  0
  189.4010  173.9430  146.3390 C   0  0  0  0  0  3  0  0  0  0  0  0
  189.9230  174.5490  145.1860 C   0  0  0  0  0  0  0  0  0  0  0  0
  190.6010  176.4500  146.5430 C   0  0  0  0  0  3  0  0  0  0  0  0
  190.5220  175.8290  145.2880 C   0  0  0  0  0  0  0  0  0  0  0  0
  189.4830  174.5780  147.5800 C   0  0  0  0  0  3  0  0  0  0  0  0
  190.0860  175.8300  147.6810 C   0  0  0  0  0  3  0  0  0  0  0  0
  188.6120  174.1900  143.2130 O   0  0  0  0  0  1  0  0  0  0  0  0
  189.8000  173.8370  143.8670 C   0  0  2  0  0  3  0  0  0  0  0  0
  191.3810  172.0940  144.0130 C   0  0  0  0  0  1  0  0  0  0  0  0
  189.3850  171.6790  142.8620 C   0  0  0  0  0  1  0  0  0  0  0  0
  189.9570  172.3820  144.0040 N   0  0  0  0  0  0  0  0  0  0  0  0
  195.1640  176.3980  144.7380 O   0  0  0  0  0  0  0  0  0  0  0  0
  194.4450  175.2320  144.9720 C   0  0  0  0  0  0  0  0  0  0  0  0
  194.9630  174.3080  145.6520 O   0  0  0  0  0  1  0  0  0  0  0  0
  193.1240  175.0720  144.4540 N   0  0  0  0  0  2  0  0  0  0  0  0
  194.0040  176.5600  141.8330 O   0  0  0  0  0  1  0  0  0  0  0  0
  192.6400  174.6260  141.5660 C   0  0  0  0  0  1  0  0  0  0  0  0
  192.7380  176.0410  142.1040 C   0  0  1  0  0  3  0  0  0  0  0  0
  2  4  1  6  0  0  0
  2  1  1  0  0  0  0
  2 16  1  0  0  0  0
  3  2  1  0  0  0  0
  3  1  1  0  0  0  0
  3 27  1  1  0  0  0
  4 10  2  0  0  0  0
  5  7  1  6  0  0  0
  5  6  1  0  0  0  0
  5 10  1  0  0  0  0
  6 11  1  0  0  0  0
  8 12  1  0  0  0  0
 10  8  1  0  0  0  0
 11 12  2  0  0  0  0
 12  9  1  0  0  0  0
 13 17  1  0  0  0  0
 14 16  1  0  0  0  0
 14 13  2  0  0  0  0
 15 18  1  0  0  0  0
 16 15  2  0  0  0  0
 17 18  2  0  0  0  0
 20 19  1  1  0  0  0
 20 23  1  0  0  0  0
 20 14  1  0  0  0  0
 22 23  1  0  0  0  0
 23 21  1  0  0  0  0
 24 25  2  0  0  0  0
 25 26  1  0  0  0  0
 27 25  1  0  0  0  0
 28 30  1  0  0  0  0
 30 29  1  1  0  0  0
 30  3  1  0  0  0  0
M  END
>  <MODEL>
1

>  <REMARK>
 VINA RESULT:      -6.1      0.000      0.000
  Name = 
  6 active torsions:
  status: ('A' for Active; 'I' for Inactive)
    1  A    between atoms: N_1  and  C_5
    2  A    between atoms: C_5  and  C_12
    3  A    between atoms: C_8  and  C_13
    4  A    between atoms: C_13  and  N_30
    5  A    between atoms: C_23  and  N_25
    6  A    between atoms: C_23  and  C_26
                            x       y       z     vdW  Elec       q    Type
                         _______ _______ _______ _____ _____    ______ ____

>  <TORSDO>
F 6

$$$$
=
 OpenBabel11052417083D

 30 32  0  0  1  0  0  0  0  0999 V2000
  187.5990  175.8320  145.5480 C   0  0  0  0  0  2  0  0  0  0  0  0
  188.1350  177.0730  144.8350 C   0  0  2  0  0  0  0  0  0  0  0  0
  188.1980  176.9680  146.3610 C   0  0  2  0  0  0  0  0  0  0  0  0
  187.1280  178.0030  144.3620 N   0  0  0  0  0  0  0  0  0  0  0  0
  185.4380  178.9120  142.8940 C   0  0  1  0  0  3  0  0  0  0  0  0
  184.6480  178.5360  141.6350 C   0  0  0  0  0  2  0  0  0  0  0  0
  184.5490  179.1300  143.9460 O   0  0  0  0  0  1  0  0  0  0  0  0
  186.6530  176.6550  142.3720 C   0  0  0  0  0  2  0  0  0  0  0  0
  187.3380  176.4300  139.8870 C   0  0  0  0  0  1  0  0  0  0  0  0
  186.4480  177.8520  143.2760 C   0  0  0  0  0  0  0  0  0  0  0  0
  185.5420  177.9400  140.5840 C   0  0  0  0  0  3  0  0  0  0  0  0
  186.4770  177.0480  140.9320 C   0  0  0  0  0  0  0  0  0  0  0  0
  191.2860  176.0250  142.8880 C   0  0  0  0  0  3  0  0  0  0  0  0
  190.0340  175.9250  143.5140 C   0  0  0  0  0  0  0  0  0  0  0  0
  190.1700  178.2880  144.0700 C   0  0  0  0  0  3  0  0  0  0  0  0
  189.4720  177.0730  144.1260 C   0  0  0  0  0  0  0  0  0  0  0  0
  191.9690  177.2410  142.8480 C   0  0  0  0  0  3  0  0  0  0  0  0
  191.4090  178.3730  143.4360 C   0  0  0  0  0  3  0  0  0  0  0  0
  189.9030  173.7540  144.5200 O   0  0  0  0  0  1  0  0  0  0  0  0
  189.3390  174.5920  143.5490 C   0  0  2  0  0  3  0  0  0  0  0  0
  187.9420  173.4280  142.0460 C   0  0  0  0  0  1  0  0  0  0  0  0
  190.2050  172.8330  142.1350 C   0  0  0  0  0  1  0  0  0  0  0  0
  189.2830  173.9590  142.2230 N   0  0  0  0  0  0  0  0  0  0  0  0
  188.8760  174.4060  147.6590 O   0  0  0  0  0  0  0  0  0  0  0  0
  189.8170  175.4250  147.5830 C   0  0  0  0  0  0  0  0  0  0  0  0
  190.9570  175.2590  148.0910 O   0  0  0  0  0  1  0  0  0  0  0  0
  189.5090  176.6580  146.9310 N   0  0  0  0  0  2  0  0  0  0  0  0
  186.3020  176.9250  147.8400 O   0  0  0  0  0  1  0  0  0  0  0  0
  187.9440  178.6020  148.2390 C   0  0  0  0  0  1  0  0  0  0  0  0
  187.2080  177.7730  147.2040 C   0  0  1  0  0  3  0  0  0  0  0  0
  1  3  1  0  0  0  0
  2  4  1  6  0  0  0
  2  1  1  0  0  0  0
  2  3  1  0  0  0  0
  3 27  1  1  0  0  0
  3 30  1  0  0  0  0
  5 10  1  0  0  0  0
  5  7  1  1  0  0  0
  6  5  1  0  0  0  0
  8 10  1  0  0  0  0
  9 12  1  0  0  0  0
 10  4  2  0  0  0  0
 11 12  2  0  0  0  0
 11  6  1  0  0  0  0
 12  8  1  0  0  0  0
 13 14  1  0  0  0  0
 14 20  1  0  0  0  0
 14 16  2  0  0  0  0
 15 16  1  0  0  0  0
 16  2  1  0  0  0  0
 17 13  2  0  0  0  0
 17 18  1  0  0  0  0
 18 15  2  0  0  0  0
 20 19  1  1  0  0  0
 21 23  1  0  0  0  0
 22 23  1  0  0  0  0
 23 20  1  0  0  0  0
 25 24  2  0  0  0  0
 25 26  1  0  0  0  0
 27 25  1  0  0  0  0
 30 28  1  0  0  0  0
 30 29  1  1  0  0  0
M  END
>  <MODEL>
2

>  <REMARK>
 VINA RESULT:      -6.1      2.684      4.786
  Name = 
  6 active torsions:
  status: ('A' for Active; 'I' for Inactive)
    1  A    between atoms: N_1  and  C_5
    2  A    between atoms: C_5  and  C_12
    3  A    between atoms: C_8  and  C_13
    4  A    between atoms: C_13  and  N_30
    5  A    between atoms: C_23  and  N_25
    6  A    between atoms: C_23  and  C_26
                            x       y       z     vdW  Elec       q    Type
                         _______ _______ _______ _____ _____    ______ ____

>  <TORSDO>
F 6

$$$$
=
 OpenBabel11052417083D

 30 32  0  0  1  0  0  0  0  0999 V2000
  186.8780  176.0950  143.8350 C   0  0  0  0  0  2  0  0  0  0  0  0
  187.8730  176.9490  143.0510 C   0  0  2  0  0  0  0  0  0  0  0  0
  186.9010  177.6010  144.0370 C   0  0  2  0  0  0  0  0  0  0  0  0
  187.5310  177.1860  141.6620 N   0  0  0  0  0  0  0  0  0  0  0  0
  187.1900  176.6750  139.3250 C   0  0  1  0  0  3  0  0  0  0  0  0
  187.1740  175.4740  138.3730 C   0  0  0  0  0  2  0  0  0  0  0  0
  185.9400  177.2930  139.3060 O   0  0  0  0  0  1  0  0  0  0  0  0
  187.9630  174.8560  141.0380 C   0  0  0  0  0  2  0  0  0  0  0  0
  189.8440  173.3370  140.1170 C   0  0  0  0  0  1  0  0  0  0  0  0
  187.5570  176.2830  140.7400 C   0  0  0  0  0  0  0  0  0  0  0  0
  188.3460  174.5640  138.6190 C   0  0  0  0  0  3  0  0  0  0  0  0
  188.7070  174.2670  139.8730 C   0  0  0  0  0  0  0  0  0  0  0  0
  191.3960  176.1280  144.3680 C   0  0  0  0  0  3  0  0  0  0  0  0
  190.0410  175.9580  144.0450 C   0  0  0  0  0  0  0  0  0  0  0  0
  190.0170  178.2150  143.1400 C   0  0  0  0  0  3  0  0  0  0  0  0
  189.3360  177.0230  143.4320 C   0  0  0  0  0  0  0  0  0  0  0  0
  192.0550  177.3230  144.0760 C   0  0  0  0  0  3  0  0  0  0  0  0
  191.3660  178.3650  143.4580 C   0  0  0  0  0  3  0  0  0  0  0  0
  189.2460  174.5080  145.7790 O   0  0  0  0  0  1  0  0  0  0  0  0
  189.3660  174.6600  144.3920 C   0  0  2  0  0  3  0  0  0  0  0  0
  188.9900  172.5070  143.5050 C   0  0  0  0  0  1  0  0  0  0  0  0
  191.0020  172.8990  144.6360 C   0  0  0  0  0  1  0  0  0  0  0  0
  190.0150  173.5070  143.7520 N   0  0  0  0  0  0  0  0  0  0  0  0
  185.7910  176.8380  146.6620 O   0  0  0  0  0  0  0  0  0  0  0  0
  186.9050  177.6650  146.5850 C   0  0  0  0  0  0  0  0  0  0  0  0
  187.4270  178.1050  147.6420 O   0  0  0  0  0  1  0  0  0  0  0  0
  187.4680  178.0160  145.3200 N   0  0  0  0  0  2  0  0  0  0  0  0
  184.5090  177.6930  143.8130 O   0  0  0  0  0  1  0  0  0  0  0  0
  185.6490  179.7680  144.0630 C   0  0  0  0  0  1  0  0  0  0  0  0
  185.6900  178.3620  143.4950 C   0  0  1  0  0  3  0  0  0  0  0  0
  1  3  1  0  0  0  0
  2  4  1  6  0  0  0
  2 16  1  0  0  0  0
  2  1  1  0  0  0  0
  2  3  1  0  0  0  0
  3 27  1  1  0  0  0
  5  7  1  1  0  0  0
  5 10  1  0  0  0  0
  6 11  1  0  0  0  0
  6  5  1  0  0  0  0
 10  8  1  0  0  0  0
 10  4  2  0  0  0  0
 11 12  2  0  0  0  0
 12  9  1  0  0  0  0
 12  8  1  0  0  0  0
 14 13  2  0  0  0  0
 14 20  1  0  0  0  0
 15 16  2  0  0  0  0
 15 18  1  0  0  0  0
 16 14  1  0  0  0  0
 17 13  1  0  0  0  0
 18 17  2  0  0  0  0
 20 19  1  1  0  0  0
 21 23  1  0  0  0  0
 23 20  1  0  0  0  0
 23 22  1  0  0  0  0
 25 24  2  0  0  0  0
 25 26  1  0  0  0  0
 27 25  1  0  0  0  0
 30 28  1  0  0  0  0
 30  3  1  0  0  0  0
 30 29  1  1  0  0  0
M  END
>  <MODEL>
3

>  <REMARK>
 VINA RESULT:      -5.7      2.873      5.534
  Name = 
  6 active torsions:
  status: ('A' for Active; 'I' for Inactive)
    1  A    between atoms: N_1  and  C_5
    2  A    between atoms: C_5  and  C_12
    3  A    between atoms: C_8  and  C_13
    4  A    between atoms: C_13  and  N_30
    5  A    between atoms: C_23  and  N_25
    6  A    between atoms: C_23  and  C_26
                            x       y       z     vdW  Elec       q    Type
                         _______ _______ _______ _____ _____    ______ ____

>  <TORSDO>
F 6

$$$$
=
 OpenBabel11052417083D

 30 32  0  0  1  0  0  0  0  0999 V2000
  189.9910  173.4770  143.6040 C   0  0  0  0  0  2  0  0  0  0  0  0
  191.2020  174.3740  143.3500 C   0  0  2  0  0  0  0  0  0  0  0  0
  190.3650  173.8530  142.1790 C   0  0  2  0  0  0  0  0  0  0  0  0
  192.4940  173.7260  143.4690 N   0  0  0  0  0  0  0  0  0  0  0  0
  194.6370  173.1740  144.4390 C   0  0  1  0  0  3  0  0  0  0  0  0
  195.4470  173.4160  145.7170 C   0  0  0  0  0  2  0  0  0  0  0  0
  194.4290  171.8040  144.2790 O   0  0  0  0  0  1  0  0  0  0  0  0
  192.9840  174.8390  145.5960 C   0  0  0  0  0  2  0  0  0  0  0  0
  194.1640  176.9390  146.5420 C   0  0  0  0  0  1  0  0  0  0  0  0
  193.3110  173.9040  144.4510 C   0  0  0  0  0  0  0  0  0  0  0  0
  195.3900  174.8580  146.1380 C   0  0  0  0  0  3  0  0  0  0  0  0
  194.2280  175.5210  146.0900 C   0  0  0  0  0  0  0  0  0  0  0  0
  190.1970  177.9050  144.5090 C   0  0  0  0  0  3  0  0  0  0  0  0
  190.1670  176.5090  144.3700 C   0  0  0  0  0  0  0  0  0  0  0  0
  192.1440  176.6480  142.9620 C   0  0  0  0  0  3  0  0  0  0  0  0
  191.1490  175.8710  143.5730 C   0  0  0  0  0  0  0  0  0  0  0  0
  191.1910  178.6630  143.8880 C   0  0  0  0  0  3  0  0  0  0  0  0
  192.1670  178.0330  143.1170 C   0  0  0  0  0  3  0  0  0  0  0  0
  187.8190  176.0410  144.4880 O   0  0  0  0  0  1  0  0  0  0  0  0
  189.0690  175.7330  145.0430 C   0  0  2  0  0  3  0  0  0  0  0  0
  189.3170  174.5770  147.0840 C   0  0  0  0  0  1  0  0  0  0  0  0
  187.8060  176.3640  147.0040 C   0  0  0  0  0  1  0  0  0  0  0  0
  189.0910  175.8900  146.5040 N   0  0  0  0  0  0  0  0  0  0  0  0
  187.4490  173.4600  141.9630 O   0  0  0  0  0  1  0  0  0  0  0  0
  188.0440  174.6000  141.4380 C   0  0  0  0  0  0  0  0  0  0  0  0
  187.3340  175.4560  140.8490 O   0  0  0  0  0  0  0  0  0  0  0  0
  189.4500  174.8140  141.5640 N   0  0  0  0  0  2  0  0  0  0  0  0
  190.0930  171.5940  141.3990 O   0  0  0  0  0  1  0  0  0  0  0  0
  191.0370  173.1580  139.8710 C   0  0  0  0  0  1  0  0  0  0  0  0
  190.9170  172.7160  141.3170 C   0  0  1  0  0  3  0  0  0  0  0  0
  2  4  1  1  0  0  0
  2 16  1  0  0  0  0
  2  1  1  0  0  0  0
  3 27  1  6  0  0  0
  3  2  1  0  0  0  0
  3  1  1  0  0  0  0
  4 10  2  0  0  0  0
  5  7  1  1  0  0  0
  5 10  1  0  0  0  0
  5  6  1  0  0  0  0
  6 11  1  0  0  0  0
  8 12  1  0  0  0  0
 10  8  1  0  0  0  0
 12 11  2  0  0  0  0
 12  9  1  0  0  0  0
 14 13  1  0  0  0  0
 14 20  1  0  0  0  0
 15 18  2  0  0  0  0
 15 16  1  0  0  0  0
 16 14  2  0  0  0  0
 17 13  2  0  0  0  0
 18 17  1  0  0  0  0
 20 19  1  6  0  0  0
 20 23  1  0  0  0  0
 23 22  1  0  0  0  0
 23 21  1  0  0  0  0
 25 27  1  0  0  0  0
 25 24  1  0  0  0  0
 26 25  2  0  0  0  0
 30 29  1  6  0  0  0
 30 28  1  0  0  0  0
 30  3  1  0  0  0  0
M  END
>  <MODEL>
4

>  <REMARK>
 VINA RESULT:      -5.5      2.478      6.044
  Name = 
  6 active torsions:
  status: ('A' for Active; 'I' for Inactive)
    1  A    between atoms: N_1  and  C_5
    2  A    between atoms: C_5  and  C_12
    3  A    between atoms: C_8  and  C_13
    4  A    between atoms: C_13  and  N_30
    5  A    between atoms: C_23  and  N_25
    6  A    between atoms: C_23  and  C_26
                            x       y       z     vdW  Elec       q    Type
                         _______ _______ _______ _____ _____    ______ ____

>  <TORSDO>
F 6

$$$$
=
 OpenBabel11052417083D

 30 32  0  0  1  0  0  0  0  0999 V2000
  190.7040  173.8630  145.2780 C   0  0  0  0  0  2  0  0  0  0  0  0
  192.0590  173.9090  144.5750 C   0  0  2  0  0  0  0  0  0  0  0  0
  190.8010  174.4120  143.8640 C   0  0  2  0  0  0  0  0  0  0  0  0
  192.5410  172.6390  144.0660 N   0  0  0  0  0  0  0  0  0  0  0  0
  193.9370  170.6720  143.9240 C   0  0  1  0  0  3  0  0  0  0  0  0
  195.0590  169.9680  144.6940 C   0  0  0  0  0  2  0  0  0  0  0  0
  192.8370  169.8190  143.8340 O   0  0  0  0  0  1  0  0  0  0  0  0
  194.3010  172.4950  145.7640 C   0  0  0  0  0  2  0  0  0  0  0  0
  196.7960  173.0760  146.1280 C   0  0  0  0  0  1  0  0  0  0  0  0
  193.5300  171.9800  144.5680 C   0  0  0  0  0  0  0  0  0  0  0  0
  196.1130  170.9430  145.1400 C   0  0  0  0  0  3  0  0  0  0  0  0
  195.7530  172.1260  145.6530 C   0  0  0  0  0  0  0  0  0  0  0  0
  195.0480  176.3300  144.4090 C   0  0  0  0  0  3  0  0  0  0  0  0
  194.1340  175.3420  144.0130 C   0  0  0  0  0  0  0  0  0  0  0  0
  192.9850  175.6120  146.1390 C   0  0  0  0  0  3  0  0  0  0  0  0
  193.0920  174.9670  144.8980 C   0  0  0  0  0  0  0  0  0  0  0  0
  194.9300  176.9550  145.6510 C   0  0  0  0  0  3  0  0  0  0  0  0
  193.8960  176.5980  146.5150 C   0  0  0  0  0  3  0  0  0  0  0  0
  195.6390  174.2990  142.4670 O   0  0  0  0  0  1  0  0  0  0  0  0
  194.3070  174.6820  142.6730 C   0  0  2  0  0  3  0  0  0  0  0  0
  193.1660  174.6110  140.6100 C   0  0  0  0  0  1  0  0  0  0  0  0
  194.8540  176.2110  140.8830 C   0  0  0  0  0  1  0  0  0  0  0  0
  193.7810  175.5060  141.5750 N   0  0  0  0  0  0  0  0  0  0  0  0
  188.3980  175.8710  144.7600 O   0  0  0  0  0  1  0  0  0  0  0  0
  189.4640  176.5570  144.1930 C   0  0  0  0  0  0  0  0  0  0  0  0
  189.3920  177.8040  144.0420 O   0  0  0  0  0  0  0  0  0  0  0  0
  190.6440  175.8640  143.7830 N   0  0  0  0  0  2  0  0  0  0  0  0
  189.0680  172.8510  143.2760 O   0  0  0  0  0  1  0  0  0  0  0  0
  189.7330  174.4070  141.6010 C   0  0  0  0  0  1  0  0  0  0  0  0
  190.1660  173.5480  142.7730 C   0  0  1  0  0  3  0  0  0  0  0  0
  2  4  1  6  0  0  0
  2 16  1  0  0  0  0
  2  1  1  0  0  0  0
  3 27  1  6  0  0  0
  3  2  1  0  0  0  0
  3  1  1  0  0  0  0
  4 10  2  0  0  0  0
  5  7  1  1  0  0  0
  5 10  1  0  0  0  0
  5  6  1  0  0  0  0
  6 11  1  0  0  0  0
 10  8  1  0  0  0  0
 11 12  2  0  0  0  0
 12  8  1  0  0  0  0
 12  9  1  0  0  0  0
 13 17  1  0  0  0  0
 14 13  2  0  0  0  0
 14 16  1  0  0  0  0
 15 18  1  0  0  0  0
 16 15  2  0  0  0  0
 17 18  2  0  0  0  0
 20 19  1  6  0  0  0
 20 14  1  0  0  0  0
 21 23  1  0  0  0  0
 22 23  1  0  0  0  0
 23 20  1  0  0  0  0
 25 24  1  0  0  0  0
 26 25  2  0  0  0  0
 27 25  1  0  0  0  0
 30 29  1  6  0  0  0
 30 28  1  0  0  0  0
 30  3  1  0  0  0  0
M  END
>  <MODEL>
5

>  <REMARK>
 VINA RESULT:      -5.5      2.569      6.774
  Name = 
  6 active torsions:
  status: ('A' for Active; 'I' for Inactive)
    1  A    between atoms: N_1  and  C_5
    2  A    between atoms: C_5  and  C_12
    3  A    between atoms: C_8  and  C_13
    4  A    between atoms: C_13  and  N_30
    5  A    between atoms: C_23  and  N_25
    6  A    between atoms: C_23  and  C_26
                            x       y       z     vdW  Elec       q    Type
                         _______ _______ _______ _____ _____    ______ ____

>  <TORSDO>
F 6

$$$$
=
 OpenBabel11052417083D

 30 32  0  0  1  0  0  0  0  0999 V2000
  190.1780  177.2050  145.0380 C   0  0  0  0  0  2  0  0  0  0  0  0
  190.7230  175.7930  144.8310 C   0  0  2  0  0  0  0  0  0  0  0  0
  190.1430  176.2080  146.1850 C   0  0  2  0  0  0  0  0  0  0  0  0
  192.1680  175.6760  144.8330 N   0  0  0  0  0  0  0  0  0  0  0  0
  194.3990  175.5090  143.9190 C   0  0  1  0  0  3  0  0  0  0  0  0
  195.1290  175.5970  142.5740 C   0  0  0  0  0  2  0  0  0  0  0  0
  194.8930  176.4950  144.7740 O   0  0  0  0  0  1  0  0  0  0  0  0
  192.2920  175.7410  142.3860 C   0  0  0  0  0  2  0  0  0  0  0  0
  192.3600  174.1660  140.3350 C   0  0  0  0  0  1  0  0  0  0  0  0
  192.9000  175.6520  143.7700 C   0  0  0  0  0  0  0  0  0  0  0  0
  194.4060  174.8240  141.5070 C   0  0  0  0  0  3  0  0  0  0  0  0
  193.0730  174.9020  141.4150 C   0  0  0  0  0  0  0  0  0  0  0  0
  188.1680  173.9740  142.5980 C   0  0  0  0  0  3  0  0  0  0  0  0
  188.8360  175.0260  143.2420 C   0  0  0  0  0  0  0  0  0  0  0  0
  190.3530  173.4030  144.2310 C   0  0  0  0  0  3  0  0  0  0  0  0
  189.9390  174.7350  144.0830 C   0  0  0  0  0  0  0  0  0  0  0  0
  188.5890  172.6530  142.7630 C   0  0  0  0  0  3  0  0  0  0  0  0
  189.6840  172.3690  143.5770 C   0  0  0  0  0  3  0  0  0  0  0  0
  187.0170  176.5660  143.4950 O   0  0  0  0  0  1  0  0  0  0  0  0
  188.3390  176.4320  143.0500 C   0  0  2  0  0  3  0  0  0  0  0  0
  188.9420  178.2910  141.7280 C   0  0  0  0  0  1  0  0  0  0  0  0
  187.2610  176.8680  140.9310 C   0  0  0  0  0  1  0  0  0  0  0  0
  188.5190  176.9020  141.6680 N   0  0  0  0  0  0  0  0  0  0  0  0
  187.8520  177.9310  146.8810 O   0  0  0  0  0  0  0  0  0  0  0  0
  187.7090  176.5500  146.8570 C   0  0  0  0  0  0  0  0  0  0  0  0
  186.6000  176.0340  147.1550 O   0  0  0  0  0  1  0  0  0  0  0  0
  188.8040  175.7080  146.4920 N   0  0  0  0  0  2  0  0  0  0  0  0
  190.6670  177.6120  148.0660 O   0  0  0  0  0  1  0  0  0  0  0  0
  191.1910  175.2980  148.2670 C   0  0  0  0  0  1  0  0  0  0  0  0
  191.0970  176.4980  147.3450 C   0  0  1  0  0  3  0  0  0  0  0  0
  1  3  1  0  0  0  0
  2  4  1  6  0  0  0
  2  1  1  0  0  0  0
  2  3  1  0  0  0  0
  3 27  1  1  0  0  0
  3 30  1  0  0  0  0
  5  7  1  1  0  0  0
  6  5  1  0  0  0  0
  8 10  1  0  0  0  0
  9 12  1  0  0  0  0
 10  5  1  0  0  0  0
 10  4  2  0  0  0  0
 11  6  1  0  0  0  0
 12 11  2  0  0  0  0
 12  8  1  0  0  0  0
 13 17  2  0  0  0  0
 13 14  1  0  0  0  0
 14 16  2  0  0  0  0
 16 15  1  0  0  0  0
 16  2  1  0  0  0  0
 17 18  1  0  0  0  0
 18 15  2  0  0  0  0
 20 14  1  0  0  0  0
 20 19  1  6  0  0  0
 22 23  1  0  0  0  0
 23 21  1  0  0  0  0
 23 20  1  0  0  0  0
 25 24  2  0  0  0  0
 25 26  1  0  0  0  0
 27 25  1  0  0  0  0
 30 28  1  0  0  0  0
 30 29  1  1  0  0  0
M  END
>  <MODEL>
6

>  <REMARK>
 VINA RESULT:      -5.5      2.250      5.827
  Name = 
  6 active torsions:
  status: ('A' for Active; 'I' for Inactive)
    1  A    between atoms: N_1  and  C_5
    2  A    between atoms: C_5  and  C_12
    3  A    between atoms: C_8  and  C_13
    4  A    between atoms: C_13  and  N_30
    5  A    between atoms: C_23  and  N_25
    6  A    between atoms: C_23  and  C_26
                            x       y       z     vdW  Elec       q    Type
                         _______ _______ _______ _____ _____    ______ ____

>  <TORSDO>
F 6

$$$$
=
 OpenBabel11052417083D

 30 32  0  0  1  0  0  0  0  0999 V2000
  193.4410  175.9550  141.6550 C   0  0  0  0  0  2  0  0  0  0  0  0
  193.0010  174.8720  142.6390 C   0  0  2  0  0  0  0  0  0  0  0  0
  194.4320  174.8910  142.0970 C   0  0  2  0  0  0  0  0  0  0  0  0
  192.1840  173.8130  142.0770 N   0  0  0  0  0  0  0  0  0  0  0  0
  190.1890  172.7250  141.2570 C   0  0  1  0  0  3  0  0  0  0  0  0
  188.7260  173.0430  140.9280 C   0  0  0  0  0  2  0  0  0  0  0  0
  190.8310  172.2750  140.1030 O   0  0  0  0  0  1  0  0  0  0  0  0
  190.1620  175.1950  142.1170 C   0  0  0  0  0  2  0  0  0  0  0  0
  188.1140  175.7200  143.6100 C   0  0  0  0  0  1  0  0  0  0  0  0
  190.9220  173.9190  141.8290 C   0  0  0  0  0  0  0  0  0  0  0  0
  188.0870  173.8650  142.0130 C   0  0  0  0  0  3  0  0  0  0  0  0
  188.7610  174.8830  142.5620 C   0  0  0  0  0  0  0  0  0  0  0  0
  192.9750  174.5400  146.4740 C   0  0  0  0  0  3  0  0  0  0  0  0
  193.1430  174.1890  145.1260 C   0  0  0  0  0  0  0  0  0  0  0  0
  192.4480  176.4340  144.4990 C   0  0  0  0  0  3  0  0  0  0  0  0
  192.8620  175.1480  144.1210 C   0  0  0  0  0  0  0  0  0  0  0  0
  192.5550  175.8220  146.8320 C   0  0  0  0  0  3  0  0  0  0  0  0
  192.2950  176.7700  145.8440 C   0  0  0  0  0  3  0  0  0  0  0  0
  192.4790  171.9390  144.6380 O   0  0  0  0  0  1  0  0  0  0  0  0
  193.5810  172.7920  144.7840 C   0  0  2  0  0  3  0  0  0  0  0  0
  195.8870  172.6840  145.2690 C   0  0  0  0  0  1  0  0  0  0  0  0
  194.5660  170.8140  145.7630 C   0  0  0  0  0  1  0  0  0  0  0  0
  194.5740  172.2720  145.7350 N   0  0  0  0  0  0  0  0  0  0  0  0
  196.3150  177.0670  141.4480 O   0  0  0  0  0  0  0  0  0  0  0  0
  196.3860  176.4210  142.6750 C   0  0  0  0  0  0  0  0  0  0  0  0
  197.2730  176.7530  143.5030 O   0  0  0  0  0  1  0  0  0  0  0  0
  195.4600  175.3860  143.0110 N   0  0  0  0  0  2  0  0  0  0  0  0
  195.1840  174.5230  139.8420 O   0  0  0  0  0  1  0  0  0  0  0  0
  195.9990  173.0310  141.5090 C   0  0  0  0  0  1  0  0  0  0  0  0
  194.8350  173.8750  141.0260 C   0  0  1  0  0  3  0  0  0  0  0  0
  1  3  1  0  0  0  0
  1  2  1  0  0  0  0
  2  4  1  6  0  0  0
  2 16  1  0  0  0  0
  3  2  1  0  0  0  0
  3 27  1  1  0  0  0
  5  7  1  6  0  0  0
  5 10  1  0  0  0  0
  6  5  1  0  0  0  0
  6 11  1  0  0  0  0
  8 12  1  0  0  0  0
 10  4  2  0  0  0  0
 10  8  1  0  0  0  0
 11 12  2  0  0  0  0
 12  9  1  0  0  0  0
 13 17  1  0  0  0  0
 14 13  2  0  0  0  0
 15 18  1  0  0  0  0
 16 15  2  0  0  0  0
 16 14  1  0  0  0  0
 18 17  2  0  0  0  0
 20 19  1  1  0  0  0
 20 14  1  0  0  0  0
 20 23  1  0  0  0  0
 21 23  1  0  0  0  0
 23 22  1  0  0  0  0
 24 25  2  0  0  0  0
 25 27  1  0  0  0  0
 25 26  1  0  0  0  0
 28 30  1  0  0  0  0
 30 29  1  1  0  0  0
 30  3  1  0  0  0  0
M  END
>  <MODEL>
7

>  <REMARK>
 VINA RESULT:      -5.5      2.821      4.042
  Name = 
  6 active torsions:
  status: ('A' for Active; 'I' for Inactive)
    1  A    between atoms: N_1  and  C_5
    2  A    between atoms: C_5  and  C_12
    3  A    between atoms: C_8  and  C_13
    4  A    between atoms: C_13  and  N_30
    5  A    between atoms: C_23  and  N_25
    6  A    between atoms: C_23  and  C_26
                            x       y       z     vdW  Elec       q    Type
                         _______ _______ _______ _____ _____    ______ ____

>  <TORSDO>
F 6

$$$$
=
 OpenBabel11052417083D

 30 32  0  0  1  0  0  0  0  0999 V2000
  190.3610  176.7060  145.2710 C   0  0  0  0  0  2  0  0  0  0  0  0
  189.7890  175.8560  144.1370 C   0  0  2  0  0  0  0  0  0  0  0  0
  191.2210  176.3900  144.0590 C   0  0  2  0  0  0  0  0  0  0  0  0
  188.8680  176.5390  143.2500 N   0  0  0  0  0  0  0  0  0  0  0  0
  186.9630  177.8770  142.6040 C   0  0  1  0  0  3  0  0  0  0  0  0
  185.8620  178.7390  143.2340 C   0  0  0  0  0  2  0  0  0  0  0  0
  187.7260  178.6660  141.7430 O   0  0  0  0  0  1  0  0  0  0  0  0
  187.5200  177.3860  145.1120 C   0  0  0  0  0  2  0  0  0  0  0  0
  185.4270  176.7900  146.5120 C   0  0  0  0  0  1  0  0  0  0  0  0
  187.8520  177.2300  143.6430 C   0  0  0  0  0  0  0  0  0  0  0  0
  185.2490  178.0580  144.4260 C   0  0  0  0  0  3  0  0  0  0  0  0
  186.0320  177.4320  145.3130 C   0  0  0  0  0  0  0  0  0  0  0  0
  189.4160  172.1070  143.3490 C   0  0  0  0  0  3  0  0  0  0  0  0
  189.5390  173.4880  143.1370 C   0  0  0  0  0  0  0  0  0  0  0  0
  189.6800  173.8030  145.5440 C   0  0  0  0  0  3  0  0  0  0  0  0
  189.6600  174.3520  144.2530 C   0  0  0  0  0  0  0  0  0  0  0  0
  189.4310  171.5780  144.6410 C   0  0  0  0  0  3  0  0  0  0  0  0
  189.5670  172.4260  145.7380 C   0  0  0  0  0  3  0  0  0  0  0  0
  188.1960  174.0070  141.2210 O   0  0  0  0  0  1  0  0  0  0  0  0
  189.5020  174.0170  141.7290 C   0  0  2  0  0  3  0  0  0  0  0  0
  191.7400  173.9890  140.9850 C   0  0  0  0  0  1  0  0  0  0  0  0
  190.0590  173.4360  139.4510 C   0  0  0  0  0  1  0  0  0  0  0  0
  190.4550  173.3240  140.8500 N   0  0  0  0  0  0  0  0  0  0  0  0
  193.3630  176.7910  146.0480 O   0  0  0  0  0  1  0  0  0  0  0  0
  193.3340  175.6400  145.2710 C   0  0  0  0  0  0  0  0  0  0  0  0
  194.2390  174.7770  145.4040 O   0  0  0  0  0  0  0  0  0  0  0  0
  192.2850  175.4230  144.3260 N   0  0  0  0  0  2  0  0  0  0  0  0
  191.6040  178.7570  143.8660 O   0  0  0  0  0  1  0  0  0  0  0  0
  192.8260  177.3420  142.3910 C   0  0  0  0  0  1  0  0  0  0  0  0
  191.5250  177.5720  143.1350 C   0  0  1  0  0  3  0  0  0  0  0  0
  2  4  1  6  0  0  0
  2 16  1  0  0  0  0
  2  1  1  0  0  0  0
  3  2  1  0  0  0  0
  3 27  1  1  0  0  0
  3  1  1  0  0  0  0
  4 10  2  0  0  0  0
  5  7  1  6  0  0  0
  5  6  1  0  0  0  0
  5 10  1  0  0  0  0
  6 11  1  0  0  0  0
  8 12  1  0  0  0  0
 10  8  1  0  0  0  0
 11 12  2  0  0  0  0
 12  9  1  0  0  0  0
 13 17  1  0  0  0  0
 14 13  2  0  0  0  0
 14 16  1  0  0  0  0
 15 18  1  0  0  0  0
 16 15  2  0  0  0  0
 17 18  2  0  0  0  0
 20 19  1  6  0  0  0
 20 14  1  0  0  0  0
 22 23  1  0  0  0  0
 23 21  1  0  0  0  0
 23 20  1  0  0  0  0
 25 26  2  0  0  0  0
 25 24  1  0  0  0  0
 27 25  1  0  0  0  0
 30 29  1  1  0  0  0
 30 28  1  0  0  0  0
 30  3  1  0  0  0  0
M  END
>  <MODEL>
8

>  <REMARK>
 VINA RESULT:      -5.5      1.660      2.396
  Name = 
  6 active torsions:
  status: ('A' for Active; 'I' for Inactive)
    1  A    between atoms: N_1  and  C_5
    2  A    between atoms: C_5  and  C_12
    3  A    between atoms: C_8  and  C_13
    4  A    between atoms: C_13  and  N_30
    5  A    between atoms: C_23  and  N_25
    6  A    between atoms: C_23  and  C_26
                            x       y       z     vdW  Elec       q    Type
                         _______ _______ _______ _____ _____    ______ ____

>  <TORSDO>
F 6

$$$$
=
 OpenBabel11052417083D

 30 32  0  0  1  0  0  0  0  0999 V2000
  195.1500  175.7720  143.7860 C   0  0  0  0  0  2  0  0  0  0  0  0
  193.9140  174.8960  143.5810 C   0  0  2  0  0  0  0  0  0  0  0  0
  194.9100  175.1100  142.4380 C   0  0  2  0  0  0  0  0  0  0  0  0
  192.6660  175.6120  143.3990 N   0  0  0  0  0  0  0  0  0  0  0  0
  190.7120  176.8910  144.0200 C   0  0  1  0  0  3  0  0  0  0  0  0
  190.1130  177.6090  145.2340 C   0  0  0  0  0  2  0  0  0  0  0  0
  190.9090  177.8130  142.9920 O   0  0  0  0  0  1  0  0  0  0  0  0
  192.5060  176.1680  145.7800 C   0  0  0  0  0  2  0  0  0  0  0  0
  191.4650  175.2960  147.9830 C   0  0  0  0  0  1  0  0  0  0  0  0
  192.0130  176.1920  144.3500 C   0  0  0  0  0  0  0  0  0  0  0  0
  190.2170  176.7680  146.4750 C   0  0  0  0  0  3  0  0  0  0  0  0
  191.3480  176.1000  146.7350 C   0  0  0  0  0  0  0  0  0  0  0  0
  192.9800  171.2080  144.1640 C   0  0  0  0  0  3  0  0  0  0  0  0
  192.9860  172.4860  143.5850 C   0  0  0  0  0  0  0  0  0  0  0  0
  194.6710  173.1640  145.2020 C   0  0  0  0  0  3  0  0  0  0  0  0
  193.8360  173.4850  144.1220 C   0  0  0  0  0  0  0  0  0  0  0  0
  193.8120  170.9080  145.2430 C   0  0  0  0  0  3  0  0  0  0  0  0
  194.6600  171.8850  145.7600 C   0  0  0  0  0  3  0  0  0  0  0  0
  190.7590  173.0270  142.8840 O   0  0  0  0  0  1  0  0  0  0  0  0
  192.0610  172.7710  142.4340 C   0  0  2  0  0  3  0  0  0  0  0  0
  193.2300  172.0050  140.5340 C   0  0  0  0  0  1  0  0  0  0  0  0
  190.9050  171.7300  140.5850 C   0  0  0  0  0  1  0  0  0  0  0  0
  192.1070  171.7180  141.4100 N   0  0  0  0  0  0  0  0  0  0  0  0
  197.8480  175.3540  142.3320 O   0  0  0  0  0  1  0  0  0  0  0  0
  197.2360  174.1330  142.0800 C   0  0  0  0  0  0  0  0  0  0  0  0
  197.9410  173.1330  141.7840 O   0  0  0  0  0  0  0  0  0  0  0  0
  195.8170  173.9970  142.1580 N   0  0  0  0  0  2  0  0  0  0  0  0
  195.4150  177.1370  141.2460 O   0  0  0  0  0  1  0  0  0  0  0  0
  194.5660  175.3160  139.9680 C   0  0  0  0  0  1  0  0  0  0  0  0
  194.5380  176.0530  141.2930 C   0  0  1  0  0  3  0  0  0  0  0  0
  2  4  1  6  0  0  0
  2  1  1  0  0  0  0
  2 16  1  0  0  0  0
  3 27  1  6  0  0  0
  3  2  1  0  0  0  0
  3  1  1  0  0  0  0
  4 10  2  0  0  0  0
  5  7  1  6  0  0  0
  5 10  1  0  0  0  0
  5  6  1  0  0  0  0
  6 11  1  0  0  0  0
  8 12  1  0  0  0  0
 10  8  1  0  0  0  0
 11 12  2  0  0  0  0
 12  9  1  0  0  0  0
 13 17  1  0  0  0  0
 14 16  1  0  0  0  0
 14 13  2  0  0  0  0
 15 18  1  0  0  0  0
 16 15  2  0  0  0  0
 17 18  2  0  0  0  0
 20 19  1  1  0  0  0
 20 14  1  0  0  0  0
 21 23  1  0  0  0  0
 22 23  1  0  0  0  0
 23 20  1  0  0  0  0
 25 27  1  0  0  0  0
 25 24  1  0  0  0  0
 26 25  2  0  0  0  0
 28 30  1  0  0  0  0
 30 29  1  6  0  0  0
 30  3  1  0  0  0  0
M  END
>  <MODEL>
9

>  <REMARK>
 VINA RESULT:      -5.4      2.637      4.046
  Name = 
  6 active torsions:
  status: ('A' for Active; 'I' for Inactive)
    1  A    between atoms: N_1  and  C_5
    2  A    between atoms: C_5  and  C_12
    3  A    between atoms: C_8  and  C_13
    4  A    between atoms: C_13  and  N_30
    5  A    between atoms: C_23  and  N_25
    6  A    between atoms: C_23  and  C_26
                            x       y       z     vdW  Elec       q    Type
                         _______ _______ _______ _____ _____    ______ ____

>  <TORSDO>
F 6

$$$$
