=
 OpenBabel11052418543D

 34 39  0  0  1  0  0  0  0  0999 V2000
  191.4010  173.4950  140.4000 C   0  0  0  0  0  0  0  0  0  0  0  0
  189.2850  173.7120  141.7170 C   0  0  0  0  0  0  0  0  0  0  0  0
  191.5060  174.5180  142.7050 C   0  0  0  0  0  0  0  0  0  0  0  0
  192.0300  175.5220  144.8660 C   0  0  1  0  0  3  0  0  0  0  0  0
  189.2980  172.5210  139.6000 C   0  0  0  0  0  3  0  0  0  0  0  0
  188.6030  172.9740  140.6430 C   0  0  0  0  0  3  0  0  0  0  0  0
  189.9820  176.1630  143.6670 N   0  0  0  0  0  0  0  0  0  0  0  0
  190.6610  174.3000  141.4540 C   0  0  1  0  0  3  0  0  0  0  0  0
  188.6760  177.5830  145.0520 N   0  0  0  0  0  2  0  0  0  0  0  0
  190.9940  176.3760  146.0990 S   0  0  0  0  0  0  0  0  0  0  0  0
  190.7580  172.7070  139.5310 C   0  0  0  0  0  3  0  0  0  0  0  0
  192.8890  173.9090  142.8620 C   0  0  1  0  0  3  0  0  0  0  0  0
  193.1830  173.4600  140.4380 S   0  0  0  0  0  0  0  0  0  0  0  0
  188.6810  173.9010  142.8050 O   0  0  0  0  0  0  0  0  0  0  0  0
  192.3990  174.2350  145.3200 O   0  0  0  0  0  0  0  0  0  0  0  0
  193.2010  173.5690  144.3430 C   0  0  2  0  0  3  0  0  0  0  0  0
  189.7950  176.7300  144.8110 C   0  0  0  0  0  0  0  0  0  0  0  0
  191.1700  175.3910  143.6580 C   0  0  0  0  0  0  0  0  0  0  0  0
  193.1060  172.8030  142.0280 O   0  0  0  0  0  0  0  0  0  0  0  0
  196.7810  174.8010  144.2320 C   0  0  0  0  0  0  0  0  0  0  0  0
  197.3870  173.9990  145.2020 C   0  0  0  0  0  3  0  0  0  0  0  0
  194.6590  173.7070  144.6480 C   0  0  0  0  0  0  0  0  0  0  0  0
  196.6320  173.0500  145.8990 C   0  0  0  0  0  3  0  0  0  0  0  0
  195.4180  174.6550  143.9550 C   0  0  0  0  0  3  0  0  0  0  0  0
  195.2690  172.9040  145.6220 C   0  0  0  0  0  3  0  0  0  0  0  0
  197.5310  175.7430  143.5420 O   0  0  0  0  0  1  0  0  0  0  0  0
  187.6850  177.8680  144.0240 C   0  0  0  0  0  2  0  0  0  0  0  0
  185.7170  179.9600  143.8210 F   0  0  0  0  0  0  0  0  0  0  0  0
  186.2860  177.7790  144.6110 C   0  0  2  0  0  3  0  0  0  0  0  0
  185.7740  179.1790  144.9610 C   0  0  2  0  0  3  0  0  0  0  0  0
  184.5230  178.3650  146.8130 C   0  0  0  0  0  2  0  0  0  0  0  0
  184.9480  176.9230  146.5520 C   0  0  0  0  0  2  0  0  0  0  0  0
  186.3120  176.9140  145.8710 C   0  0  0  0  0  2  0  0  0  0  0  0
  184.4370  179.0940  145.5480 N   0  0  0  0  0  2  0  0  0  0  0  0
  1 13  1  0  0  0  0
  2 14  2  0  0  0  0
  3 12  1  0  0  0  0
  3 18  2  0  0  0  0
  4 18  1  6  0  0  0
  4 15  1  0  0  0  0
  4 10  1  0  0  0  0
  5  6  2  0  0  0  0
  6  2  1  0  0  0  0
  7 17  2  0  0  0  0
  8  1  1  6  0  0  0
  8  2  1  0  0  0  0
  8  3  1  0  0  0  0
 11  5  1  0  0  0  0
 11  1  2  0  0  0  0
 12 19  1  6  0  0  0
 12 16  1  0  0  0  0
 13 19  1  0  0  0  0
 16 22  1  1  0  0  0
 16 15  1  0  0  0  0
 17  9  1  0  0  0  0
 17 10  1  0  0  0  0
 18  7  1  0  0  0  0
 20 21  1  0  0  0  0
 21 23  2  0  0  0  0
 22 25  2  0  0  0  0
 24 20  2  0  0  0  0
 24 22  1  0  0  0  0
 25 23  1  0  0  0  0
 26 20  1  0  0  0  0
 27  9  1  0  0  0  0
 29 27  1  1  0  0  0
 29 30  1  0  0  0  0
 29 33  1  0  0  0  0
 30 28  1  6  0  0  0
 30 34  1  0  0  0  0
 32 31  1  0  0  0  0
 33 32  1  0  0  0  0
 34 31  1  0  0  0  0
M  END
>  <MODEL>
1

>  <REMARK>
 VINA RESULT:      -8.6      0.000      0.000
  Name = 
  3 active torsions:
  status: ('A' for Active; 'I' for Inactive)
    1  A    between atoms: C_3  and  C_13
    2  A    between atoms: C_3  and  N_17
    3  A    between atoms: C_12  and  C_28
                            x       y       z     vdW  Elec       q    Type
                         _______ _______ _______ _____ _____    ______ ____

>  <TORSDO>
F 3

$$$$
=
 OpenBabel11052418543D

 34 39  0  0  1  0  0  0  0  0999 V2000
  186.7560  177.2520  146.4820 C   0  0  0  0  0  0  0  0  0  0  0  0
  185.5660  179.1410  145.3550 C   0  0  0  0  0  0  0  0  0  0  0  0
  186.6470  177.2850  143.9610 C   0  0  0  0  0  0  0  0  0  0  0  0
  186.7850  176.9660  141.5460 C   0  0  1  0  0  3  0  0  0  0  0  0
  185.9200  179.1710  147.7580 C   0  0  0  0  0  3  0  0  0  0  0  0
  185.4010  179.7580  146.6790 C   0  0  0  0  0  3  0  0  0  0  0  0
  184.7110  177.8000  142.5680 N   0  0  0  0  0  0  0  0  0  0  0  0
  185.9560  177.6750  145.2630 C   0  0  1  0  0  3  0  0  0  0  0  0
  183.1810  178.4050  140.8550 N   0  0  0  0  0  2  0  0  0  0  0  0
  185.8030  177.6420  140.1660 S   0  0  0  0  0  0  0  0  0  0  0  0
  186.7030  177.9300  147.6340 C   0  0  0  0  0  3  0  0  0  0  0  0
  188.0150  176.6240  143.9390 C   0  0  1  0  0  3  0  0  0  0  0  0
  187.9340  175.9230  146.3190 S   0  0  0  0  0  0  0  0  0  0  0  0
  185.3080  179.8230  144.3290 O   0  0  0  0  0  0  0  0  0  0  0  0
  188.0680  177.5560  141.5900 O   0  0  0  0  0  0  0  0  0  0  0  0
  188.8260  177.0290  142.6790 C   0  0  2  0  0  3  0  0  0  0  0  0
  184.4590  177.9650  141.3130 C   0  0  0  0  0  0  0  0  0  0  0  0
  186.0300  177.3310  142.7770 C   0  0  0  0  0  0  0  0  0  0  0  0
  188.7530  176.8380  145.1120 O   0  0  0  0  0  0  0  0  0  0  0  0
  190.0490  173.8320  141.0560 C   0  0  0  0  0  0  0  0  0  0  0  0
  191.4130  173.8620  141.3640 C   0  0  0  0  0  3  0  0  0  0  0  0
  189.7360  175.9300  142.2300 C   0  0  0  0  0  0  0  0  0  0  0  0
  191.9410  174.9250  142.1020 C   0  0  0  0  0  3  0  0  0  0  0  0
  189.2120  174.8650  141.4900 C   0  0  0  0  0  3  0  0  0  0  0  0
  191.1040  175.9580  142.5360 C   0  0  0  0  0  3  0  0  0  0  0  0
  189.5260  172.7770  140.3220 O   0  0  0  0  0  1  0  0  0  0  0  0
  182.0860  178.6880  141.7710 C   0  0  0  0  0  2  0  0  0  0  0  0
  180.9130  180.7590  140.1500 F   0  0  0  0  0  0  0  0  0  0  0  0
  180.7560  178.5510  141.0500 C   0  0  2  0  0  3  0  0  0  0  0  0
  180.0980  179.9260  140.8970 C   0  0  2  0  0  3  0  0  0  0  0  0
  177.9110  179.0090  141.0730 C   0  0  0  0  0  2  0  0  0  0  0  0
  178.4460  177.5870  141.2130 C   0  0  0  0  0  2  0  0  0  0  0  0
  179.8320  177.6290  141.8460 C   0  0  0  0  0  2  0  0  0  0  0  0
  178.8060  179.7950  140.2250 N   0  0  0  0  0  2  0  0  0  0  0  0
  1 11  2  0  0  0  0
  2  6  1  0  0  0  0
  4 10  1  6  0  0  0
  4 15  1  0  0  0  0
  4 18  1  0  0  0  0
  6  5  2  0  0  0  0
  7 18  1  0  0  0  0
  8  3  1  6  0  0  0
  8  2  1  0  0  0  0
  8  1  1  0  0  0  0
  9 17  1  0  0  0  0
  9 27  1  0  0  0  0
 10 17  1  0  0  0  0
 11  5  1  0  0  0  0
 12  3  1  1  0  0  0
 12 19  1  0  0  0  0
 13  1  1  0  0  0  0
 14  2  2  0  0  0  0
 15 16  1  0  0  0  0
 16 22  1  6  0  0  0
 16 12  1  0  0  0  0
 17  7  2  0  0  0  0
 18  3  2  0  0  0  0
 19 13  1  0  0  0  0
 20 21  2  0  0  0  0
 20 24  1  0  0  0  0
 21 23  1  0  0  0  0
 22 25  1  0  0  0  0
 23 25  2  0  0  0  0
 24 22  2  0  0  0  0
 26 20  1  0  0  0  0
 29 27  1  1  0  0  0
 29 33  1  0  0  0  0
 30 28  1  6  0  0  0
 30 29  1  0  0  0  0
 31 32  1  0  0  0  0
 32 33  1  0  0  0  0
 34 30  1  0  0  0  0
 34 31  1  0  0  0  0
M  END
>  <MODEL>
2

>  <REMARK>
 VINA RESULT:      -8.2      4.380      7.365
  Name = 
  3 active torsions:
  status: ('A' for Active; 'I' for Inactive)
    1  A    between atoms: C_3  and  C_13
    2  A    between atoms: C_3  and  N_17
    3  A    between atoms: C_12  and  C_28
                            x       y       z     vdW  Elec       q    Type
                         _______ _______ _______ _____ _____    ______ ____

>  <TORSDO>
F 3

$$$$
=
 OpenBabel11052418543D

 34 39  0  0  1  0  0  0  0  0999 V2000
  192.9040  174.1140  144.9680 C   0  0  0  0  0  0  0  0  0  0  0  0
  192.1840  176.3830  144.2000 C   0  0  0  0  0  0  0  0  0  0  0  0
  191.1520  174.2830  143.1590 C   0  0  0  0  0  0  0  0  0  0  0  0
  189.4800  174.0180  141.4020 C   0  0  1  0  0  3  0  0  0  0  0  0
  194.0320  176.1420  145.7570 C   0  0  0  0  0  3  0  0  0  0  0  0
  193.2260  176.9500  145.0680 C   0  0  0  0  0  3  0  0  0  0  0  0
  189.2320  175.7870  143.0910 N   0  0  0  0  0  0  0  0  0  0  0  0
  191.7630  174.9360  144.3940 C   0  0  1  0  0  3  0  0  0  0  0  0
  187.3830  177.1640  142.5180 N   0  0  0  0  0  2  0  0  0  0  0  0
  188.2230  175.1560  140.7310 S   0  0  0  0  0  0  0  0  0  0  0  0
  193.9240  174.6800  145.6230 C   0  0  0  0  0  3  0  0  0  0  0  0
  191.7100  173.0010  142.5630 C   0  0  1  0  0  3  0  0  0  0  0  0
  192.9760  172.3700  144.6030 S   0  0  0  0  0  0  0  0  0  0  0  0
  191.6130  177.1320  143.3640 O   0  0  0  0  0  0  0  0  0  0  0  0
  190.5420  173.8420  140.4860 O   0  0  0  0  0  0  0  0  0  0  0  0
  191.5270  172.9580  141.0230 C   0  0  2  0  0  3  0  0  0  0  0  0
  188.2990  176.1010  142.2560 C   0  0  0  0  0  0  0  0  0  0  0  0
  189.9940  174.6860  142.6300 C   0  0  0  0  0  0  0  0  0  0  0  0
  193.0420  172.7550  142.9260 O   0  0  0  0  0  0  0  0  0  0  0  0
  190.8890  169.2250  140.9970 C   0  0  0  0  0  0  0  0  0  0  0  0
  190.9610  168.9350  139.6310 C   0  0  0  0  0  3  0  0  0  0  0  0
  191.3360  171.5610  140.5270 C   0  0  0  0  0  0  0  0  0  0  0  0
  191.2180  169.9550  138.7110 C   0  0  0  0  0  3  0  0  0  0  0  0
  191.0770  170.5370  141.4440 C   0  0  0  0  0  3  0  0  0  0  0  0
  191.4060  171.2670  139.1580 C   0  0  0  0  0  3  0  0  0  0  0  0
  190.6330  168.2110  141.9100 O   0  0  0  0  0  1  0  0  0  0  0  0
  187.4410  177.9510  143.7410 C   0  0  0  0  0  2  0  0  0  0  0  0
  185.5750  180.1340  143.9480 F   0  0  0  0  0  0  0  0  0  0  0  0
  186.1150  177.8680  144.4770 C   0  0  2  0  0  3  0  0  0  0  0  0
  185.7190  179.2500  145.0040 C   0  0  2  0  0  3  0  0  0  0  0  0
  184.6440  178.3250  146.9120 C   0  0  0  0  0  2  0  0  0  0  0  0
  184.9600  176.8950  146.4810 C   0  0  0  0  0  2  0  0  0  0  0  0
  186.2360  176.8910  145.6470 C   0  0  0  0  0  2  0  0  0  0  0  0
  184.4540  179.1690  145.7330 N   0  0  0  0  0  2  0  0  0  0  0  0
  1 11  2  0  0  0  0
  2  8  1  0  0  0  0
  2  6  1  0  0  0  0
  4 15  1  6  0  0  0
  4 18  1  0  0  0  0
  6  5  2  0  0  0  0
  8  3  1  6  0  0  0
  8  1  1  0  0  0  0
  9 27  1  0  0  0  0
 10  4  1  0  0  0  0
 10 17  1  0  0  0  0
 11  5  1  0  0  0  0
 12 19  1  6  0  0  0
 12  3  1  0  0  0  0
 13  1  1  0  0  0  0
 14  2  2  0  0  0  0
 15 16  1  0  0  0  0
 16 22  1  1  0  0  0
 16 12  1  0  0  0  0
 17  9  1  0  0  0  0
 17  7  2  0  0  0  0
 18  7  1  0  0  0  0
 18  3  2  0  0  0  0
 19 13  1  0  0  0  0
 20 24  1  0  0  0  0
 20 26  1  0  0  0  0
 21 20  2  0  0  0  0
 22 24  2  0  0  0  0
 23 25  2  0  0  0  0
 23 21  1  0  0  0  0
 25 22  1  0  0  0  0
 29 27  1  1  0  0  0
 29 30  1  0  0  0  0
 29 33  1  0  0  0  0
 30 28  1  6  0  0  0
 30 34  1  0  0  0  0
 32 31  1  0  0  0  0
 33 32  1  0  0  0  0
 34 31  1  0  0  0  0
M  END
>  <MODEL>
3

>  <REMARK>
 VINA RESULT:      -8.2      2.316      5.161
  Name = 
  3 active torsions:
  status: ('A' for Active; 'I' for Inactive)
    1  A    between atoms: C_3  and  C_13
    2  A    between atoms: C_3  and  N_17
    3  A    between atoms: C_12  and  C_28
                            x       y       z     vdW  Elec       q    Type
                         _______ _______ _______ _____ _____    ______ ____

>  <TORSDO>
F 3

$$$$
=
 OpenBabel11052418543D

 34 39  0  0  1  0  0  0  0  0999 V2000
  193.6160  173.8230  145.2810 C   0  0  0  0  0  0  0  0  0  0  0  0
  192.6390  176.0670  144.7640 C   0  0  0  0  0  0  0  0  0  0  0  0
  191.5150  173.9380  143.8880 C   0  0  0  0  0  0  0  0  0  0  0  0
  189.5250  173.6250  142.5130 C   0  0  1  0  0  3  0  0  0  0  0  0
  194.7850  175.8910  145.8880 C   0  0  0  0  0  3  0  0  0  0  0  0
  193.8120  176.6690  145.4130 C   0  0  0  0  0  3  0  0  0  0  0  0
  189.5530  175.3350  144.2790 N   0  0  0  0  0  0  0  0  0  0  0  0
  192.3410  174.5940  144.9900 C   0  0  1  0  0  3  0  0  0  0  0  0
  187.5590  176.6200  144.1570 N   0  0  0  0  0  2  0  0  0  0  0  0
  188.0990  174.7070  142.1630 S   0  0  0  0  0  0  0  0  0  0  0  0
  194.7230  174.4280  145.7280 C   0  0  0  0  0  3  0  0  0  0  0  0
  191.9970  172.7050  143.1430 C   0  0  1  0  0  3  0  0  0  0  0  0
  193.6960  172.0950  144.8470 S   0  0  0  0  0  0  0  0  0  0  0  0
  191.8680  176.8030  144.0940 O   0  0  0  0  0  0  0  0  0  0  0  0
  190.3750  173.5300  141.3890 O   0  0  0  0  0  0  0  0  0  0  0  0
  191.4950  172.6900  141.6750 C   0  0  2  0  0  3  0  0  0  0  0  0
  188.4500  175.6170  143.6700 C   0  0  0  0  0  0  0  0  0  0  0  0
  190.2530  174.2900  143.6290 C   0  0  0  0  0  0  0  0  0  0  0  0
  193.3860  172.5250  143.2090 O   0  0  0  0  0  0  0  0  0  0  0  0
  191.1300  169.7390  139.3280 C   0  0  0  0  0  0  0  0  0  0  0  0
  190.8710  168.6960  140.2220 C   0  0  0  0  0  3  0  0  0  0  0  0
  191.2720  171.2960  141.1800 C   0  0  0  0  0  0  0  0  0  0  0  0
  190.8130  168.9490  141.5950 C   0  0  0  0  0  3  0  0  0  0  0  0
  191.3300  171.0380  139.8070 C   0  0  0  0  0  3  0  0  0  0  0  0
  191.0120  170.2480  142.0750 C   0  0  0  0  0  3  0  0  0  0  0  0
  191.1890  169.4870  137.9640 O   0  0  0  0  0  1  0  0  0  0  0  0
  187.8360  177.3790  145.3670 C   0  0  0  0  0  2  0  0  0  0  0  0
  186.1010  176.9760  147.6300 F   0  0  0  0  0  0  0  0  0  0  0  0
  186.6550  178.2740  145.7030 C   0  0  2  0  0  3  0  0  0  0  0  0
  185.5830  177.4710  146.4470 C   0  0  2  0  0  3  0  0  0  0  0  0
  183.8210  178.7520  145.4930 C   0  0  0  0  0  2  0  0  0  0  0  0
  184.7930  179.6360  144.7160 C   0  0  0  0  0  2  0  0  0  0  0  0
  186.0610  178.8460  144.4150 C   0  0  0  0  0  2  0  0  0  0  0  0
  184.4340  178.3250  146.7500 N   0  0  0  0  0  2  0  0  0  0  0  0
  1 11  2  0  0  0  0
  2  8  1  0  0  0  0
  2  6  1  0  0  0  0
  4 15  1  6  0  0  0
  4 18  1  0  0  0  0
  6  5  2  0  0  0  0
  8  3  1  6  0  0  0
  8  1  1  0  0  0  0
  9 27  1  0  0  0  0
 10  4  1  0  0  0  0
 10 17  1  0  0  0  0
 11  5  1  0  0  0  0
 12 19  1  6  0  0  0
 12  3  1  0  0  0  0
 13  1  1  0  0  0  0
 14  2  2  0  0  0  0
 15 16  1  0  0  0  0
 16 22  1  1  0  0  0
 16 12  1  0  0  0  0
 17  9  1  0  0  0  0
 17  7  2  0  0  0  0
 18  3  2  0  0  0  0
 18  7  1  0  0  0  0
 19 13  1  0  0  0  0
 20 24  2  0  0  0  0
 20 21  1  0  0  0  0
 21 23  2  0  0  0  0
 22 25  2  0  0  0  0
 23 25  1  0  0  0  0
 24 22  1  0  0  0  0
 26 20  1  0  0  0  0
 29 27  1  6  0  0  0
 29 30  1  0  0  0  0
 30 34  1  0  0  0  0
 30 28  1  1  0  0  0
 31 34  1  0  0  0  0
 32 31  1  0  0  0  0
 33 32  1  0  0  0  0
 33 29  1  0  0  0  0
M  END
>  <MODEL>
4

>  <REMARK>
 VINA RESULT:      -8.1      2.576      5.222
  Name = 
  3 active torsions:
  status: ('A' for Active; 'I' for Inactive)
    1  A    between atoms: C_3  and  C_13
    2  A    between atoms: C_3  and  N_17
    3  A    between atoms: C_12  and  C_28
                            x       y       z     vdW  Elec       q    Type
                         _______ _______ _______ _____ _____    ______ ____

>  <TORSDO>
F 3

$$$$
=
 OpenBabel11052418543D

 34 39  0  0  1  0  0  0  0  0999 V2000
  185.8730  177.1820  143.6270 C   0  0  0  0  0  0  0  0  0  0  0  0
  186.5140  177.0000  141.2160 C   0  0  0  0  0  0  0  0  0  0  0  0
  188.0970  176.1430  143.0390 C   0  0  0  0  0  0  0  0  0  0  0  0
  190.3050  175.1160  142.8930 C   0  0  1  0  0  3  0  0  0  0  0  0
  184.5070  178.2030  141.8660 C   0  0  0  0  0  3  0  0  0  0  0  0
  185.2980  177.7580  140.8900 C   0  0  0  0  0  3  0  0  0  0  0  0
  188.5550  174.5240  141.2720 N   0  0  0  0  0  0  0  0  0  0  0  0
  186.6570  176.3850  142.5990 C   0  0  1  0  0  3  0  0  0  0  0  0
  189.4830  173.1230  139.5940 N   0  0  0  0  0  2  0  0  0  0  0  0
  191.1740  174.2760  141.5280 S   0  0  0  0  0  0  0  0  0  0  0  0
  184.8630  177.9880  143.2790 C   0  0  0  0  0  3  0  0  0  0  0  0
  188.6560  176.7230  144.3270 C   0  0  1  0  0  3  0  0  0  0  0  0
  186.4280  177.1800  145.3220 S   0  0  0  0  0  0  0  0  0  0  0  0
  187.3780  176.8160  140.3180 O   0  0  0  0  0  0  0  0  0  0  0  0
  190.8610  176.3920  143.1360 O   0  0  0  0  0  0  0  0  0  0  0  0
  190.1680  177.0480  144.2000 C   0  0  2  0  0  3  0  0  0  0  0  0
  189.5880  173.9530  140.7490 C   0  0  0  0  0  0  0  0  0  0  0  0
  188.9000  175.2710  142.4240 C   0  0  0  0  0  0  0  0  0  0  0  0
  187.9340  177.8290  144.7960 O   0  0  0  0  0  0  0  0  0  0  0  0
  192.9390  176.4520  146.7130 C   0  0  0  0  0  0  0  0  0  0  0  0
  192.2520  176.5680  147.9250 C   0  0  0  0  0  3  0  0  0  0  0  0
  190.8820  176.8780  145.5030 C   0  0  0  0  0  0  0  0  0  0  0  0
  190.8810  176.8410  147.9300 C   0  0  0  0  0  3  0  0  0  0  0  0
  192.2540  176.6070  145.5030 C   0  0  0  0  0  3  0  0  0  0  0  0
  190.1960  176.9960  146.7200 C   0  0  0  0  0  3  0  0  0  0  0  0
  194.3000  176.1820  146.7100 O   0  0  0  0  0  1  0  0  0  0  0  0
  188.2090  172.8640  138.9400 C   0  0  0  0  0  2  0  0  0  0  0  0
  189.8690  171.7170  136.8860 F   0  0  0  0  0  0  0  0  0  0  0  0
  188.2490  173.3600  137.5050 C   0  0  2  0  0  3  0  0  0  0  0  0
  189.6240  173.0790  136.8910 C   0  0  2  0  0  3  0  0  0  0  0  0
  189.5290  175.0330  135.5380 C   0  0  0  0  0  2  0  0  0  0  0  0
  188.1440  175.4080  136.0600 C   0  0  0  0  0  2  0  0  0  0  0  0
  187.9740  174.8640  137.4730 C   0  0  0  0  0  2  0  0  0  0  0  0
  189.6740  173.5780  135.5170 N   0  0  0  0  0  2  0  0  0  0  0  0
  1 13  1  0  0  0  0
  4 10  1  6  0  0  0
  4 15  1  0  0  0  0
  5 11  1  0  0  0  0
  6  2  1  0  0  0  0
  6  5  2  0  0  0  0
  7 18  1  0  0  0  0
  8  2  1  6  0  0  0
  8  3  1  0  0  0  0
  8  1  1  0  0  0  0
  9 17  1  0  0  0  0
 11  1  2  0  0  0  0
 12  3  1  6  0  0  0
 12 19  1  0  0  0  0
 14  2  2  0  0  0  0
 15 16  1  0  0  0  0
 16 12  1  0  0  0  0
 16 22  1  1  0  0  0
 17  7  2  0  0  0  0
 17 10  1  0  0  0  0
 18  4  1  0  0  0  0
 18  3  2  0  0  0  0
 19 13  1  0  0  0  0
 20 21  1  0  0  0  0
 21 23  2  0  0  0  0
 22 25  2  0  0  0  0
 24 22  1  0  0  0  0
 24 20  2  0  0  0  0
 25 23  1  0  0  0  0
 26 20  1  0  0  0  0
 27  9  1  0  0  0  0
 29 27  1  1  0  0  0
 30 28  1  6  0  0  0
 30 29  1  0  0  0  0
 31 32  1  0  0  0  0
 32 33  1  0  0  0  0
 33 29  1  0  0  0  0
 34 31  1  0  0  0  0
 34 30  1  0  0  0  0
M  END
>  <MODEL>
5

>  <REMARK>
 VINA RESULT:      -8.0      3.894      7.161
  Name = 
  3 active torsions:
  status: ('A' for Active; 'I' for Inactive)
    1  A    between atoms: C_3  and  C_13
    2  A    between atoms: C_3  and  N_17
    3  A    between atoms: C_12  and  C_28
                            x       y       z     vdW  Elec       q    Type
                         _______ _______ _______ _____ _____    ______ ____

>  <TORSDO>
F 3

$$$$
=
 OpenBabel11052418543D

 34 39  0  0  1  0  0  0  0  0999 V2000
  189.1530  173.7260  141.5000 C   0  0  0  0  0  0  0  0  0  0  0  0
  191.4990  174.5330  141.8190 C   0  0  0  0  0  0  0  0  0  0  0  0
  189.7000  175.0820  143.5580 C   0  0  0  0  0  0  0  0  0  0  0  0
  189.8110  176.3610  145.6320 C   0  0  1  0  0  3  0  0  0  0  0  0
  190.8470  173.4360  139.7530 C   0  0  0  0  0  3  0  0  0  0  0  0
  191.8090  173.9970  140.4860 C   0  0  0  0  0  3  0  0  0  0  0  0
  191.6480  174.8520  145.0090 N   0  0  0  0  0  0  0  0  0  0  0  0
  190.2200  174.0980  142.5150 C   0  0  1  0  0  3  0  0  0  0  0  0
  193.4350  175.1140  146.5520 N   0  0  0  0  0  2  0  0  0  0  0  0
  191.2090  176.8320  146.7040 S   0  0  0  0  0  0  0  0  0  0  0  0
  189.4590  173.3900  140.2420 C   0  0  0  0  0  3  0  0  0  0  0  0
  188.2950  175.6570  143.4960 C   0  0  1  0  0  3  0  0  0  0  0  0
  187.4370  173.9170  141.9470 S   0  0  0  0  0  0  0  0  0  0  0  0
  192.3370  175.2840  142.3840 O   0  0  0  0  0  0  0  0  0  0  0  0
  189.3280  177.4780  144.9120 O   0  0  0  0  0  0  0  0  0  0  0  0
  188.2400  177.0980  144.0680 C   0  0  2  0  0  3  0  0  0  0  0  0
  192.1610  175.4720  146.0170 C   0  0  0  0  0  0  0  0  0  0  0  0
  190.3700  175.3630  144.6790 C   0  0  0  0  0  0  0  0  0  0  0  0
  187.7250  175.5930  142.2170 O   0  0  0  0  0  0  0  0  0  0  0  0
  184.7910  178.5430  144.6670 C   0  0  0  0  0  0  0  0  0  0  0  0
  184.4410  177.9460  145.8820 C   0  0  0  0  0  3  0  0  0  0  0  0
  186.9220  177.3890  144.7110 C   0  0  0  0  0  0  0  0  0  0  0  0
  185.3280  177.0700  146.5130 C   0  0  0  0  0  3  0  0  0  0  0  0
  186.0300  178.2650  144.0830 C   0  0  0  0  0  3  0  0  0  0  0  0
  186.5680  176.7910  145.9290 C   0  0  0  0  0  3  0  0  0  0  0  0
  183.9080  179.4130  144.0410 O   0  0  0  0  0  1  0  0  0  0  0  0
  194.2270  174.0260  145.9970 C   0  0  0  0  0  2  0  0  0  0  0  0
  194.6500  176.2580  144.2270 F   0  0  0  0  0  0  0  0  0  0  0  0
  195.5980  174.5370  145.5870 C   0  0  2  0  0  3  0  0  0  0  0  0
  195.5230  175.1840  144.2000 C   0  0  2  0  0  3  0  0  0  0  0  0
  197.7350  174.5030  143.6540 C   0  0  0  0  0  2  0  0  0  0  0  0
  197.9380  173.8400  145.0140 C   0  0  0  0  0  2  0  0  0  0  0  0
  196.5910  173.3760  145.5550 C   0  0  0  0  0  2  0  0  0  0  0  0
  196.8460  175.6560  143.7920 N   0  0  0  0  0  2  0  0  0  0  0  0
  1 13  1  0  0  0  0
  2 14  2  0  0  0  0
  2  8  1  0  0  0  0
  3 18  2  0  0  0  0
  4 18  1  6  0  0  0
  4 10  1  0  0  0  0
  5 11  1  0  0  0  0
  5  6  2  0  0  0  0
  6  2  1  0  0  0  0
  7 17  2  0  0  0  0
  8  1  1  6  0  0  0
  8  3  1  0  0  0  0
 11  1  2  0  0  0  0
 12 19  1  6  0  0  0
 12  3  1  0  0  0  0
 12 16  1  0  0  0  0
 13 19  1  0  0  0  0
 15  4  1  0  0  0  0
 16 22  1  1  0  0  0
 16 15  1  0  0  0  0
 17  9  1  0  0  0  0
 17 10  1  0  0  0  0
 18  7  1  0  0  0  0
 20 21  1  0  0  0  0
 21 23  2  0  0  0  0
 22 25  2  0  0  0  0
 24 20  2  0  0  0  0
 24 22  1  0  0  0  0
 25 23  1  0  0  0  0
 26 20  1  0  0  0  0
 27  9  1  0  0  0  0
 29 27  1  6  0  0  0
 30 28  1  1  0  0  0
 30 29  1  0  0  0  0
 31 34  1  0  0  0  0
 31 32  1  0  0  0  0
 32 33  1  0  0  0  0
 33 29  1  0  0  0  0
 34 30  1  0  0  0  0
M  END
>  <MODEL>
6

>  <REMARK>
 VINA RESULT:      -7.9      3.045      8.120
  Name = 
  3 active torsions:
  status: ('A' for Active; 'I' for Inactive)
    1  A    between atoms: C_3  and  C_13
    2  A    between atoms: C_3  and  N_17
    3  A    between atoms: C_12  and  C_28
                            x       y       z     vdW  Elec       q    Type
                         _______ _______ _______ _____ _____    ______ ____

>  <TORSDO>
F 3

$$$$
=
 OpenBabel11052418543D

 34 39  0  0  1  0  0  0  0  0999 V2000
  189.3710  173.4810  141.2280 C   0  0  0  0  0  0  0  0  0  0  0  0
  191.7620  174.2040  141.0870 C   0  0  0  0  0  0  0  0  0  0  0  0
  190.3620  174.7780  143.1540 C   0  0  0  0  0  0  0  0  0  0  0  0
  190.9250  176.0130  145.1800 C   0  0  1  0  0  3  0  0  0  0  0  0
  190.6760  173.1690  139.1770 C   0  0  0  0  0  3  0  0  0  0  0  0
  191.7830  173.6830  139.7130 C   0  0  0  0  0  3  0  0  0  0  0  0
  192.5480  174.4570  144.1880 N   0  0  0  0  0  0  0  0  0  0  0  0
  190.6300  173.7980  142.0160 C   0  0  1  0  0  3  0  0  0  0  0  0
  194.6120  174.6300  145.3500 N   0  0  0  0  0  2  0  0  0  0  0  0
  192.5230  176.4170  145.9600 S   0  0  0  0  0  0  0  0  0  0  0  0
  189.4110  173.1590  139.9300 C   0  0  0  0  0  3  0  0  0  0  0  0
  188.9930  175.4000  143.3780 C   0  0  1  0  0  3  0  0  0  0  0  0
  187.7850  173.7190  142.0080 S   0  0  0  0  0  0  0  0  0  0  0  0
  192.7210  174.9160  141.4840 O   0  0  0  0  0  0  0  0  0  0  0  0
  190.3510  177.1580  144.5840 O   0  0  0  0  0  0  0  0  0  0  0  0
  189.1050  176.8310  143.9670 C   0  0  2  0  0  3  0  0  0  0  0  0
  193.2720  175.0400  145.0830 C   0  0  0  0  0  0  0  0  0  0  0  0
  191.2490  175.0160  144.1230 C   0  0  0  0  0  0  0  0  0  0  0  0
  188.1810  175.3790  142.2360 O   0  0  0  0  0  0  0  0  0  0  0  0
  185.9430  178.4420  145.2930 C   0  0  0  0  0  0  0  0  0  0  0  0
  185.7720  177.7710  146.5080 C   0  0  0  0  0  3  0  0  0  0  0  0
  187.9510  177.1530  144.8620 C   0  0  0  0  0  0  0  0  0  0  0  0
  186.6860  176.7900  146.9010 C   0  0  0  0  0  3  0  0  0  0  0  0
  187.0320  178.1330  144.4710 C   0  0  0  0  0  3  0  0  0  0  0  0
  187.7750  176.4810  146.0800 C   0  0  0  0  0  3  0  0  0  0  0  0
  185.0340  179.4150  144.9020 O   0  0  0  0  0  1  0  0  0  0  0  0
  195.2400  173.5270  144.6370 C   0  0  0  0  0  2  0  0  0  0  0  0
  197.1910  172.5720  146.5270 F   0  0  0  0  0  0  0  0  0  0  0  0
  195.0940  172.2410  145.4330 C   0  0  2  0  0  3  0  0  0  0  0  0
  196.4750  171.6680  145.7630 C   0  0  2  0  0  3  0  0  0  0  0  0
  195.6810  169.4290  145.6530 C   0  0  0  0  0  2  0  0  0  0  0  0
  194.2570  169.8790  145.3400 C   0  0  0  0  0  2  0  0  0  0  0  0
  194.2980  171.2200  144.6190 C   0  0  0  0  0  2  0  0  0  0  0  0
  196.3370  170.4180  146.5080 N   0  0  0  0  0  2  0  0  0  0  0  0
  1 13  1  0  0  0  0
  1  8  1  0  0  0  0
  2 14  2  0  0  0  0
  3 12  1  0  0  0  0
  3 18  2  0  0  0  0
  4 18  1  6  0  0  0
  4 10  1  0  0  0  0
  5  6  2  0  0  0  0
  5 11  1  0  0  0  0
  6  2  1  0  0  0  0
  7 17  2  0  0  0  0
  8  2  1  6  0  0  0
  8  3  1  0  0  0  0
 11  1  2  0  0  0  0
 12 19  1  6  0  0  0
 12 16  1  0  0  0  0
 13 19  1  0  0  0  0
 15  4  1  0  0  0  0
 16 15  1  0  0  0  0
 16 22  1  1  0  0  0
 17  9  1  0  0  0  0
 17 10  1  0  0  0  0
 18  7  1  0  0  0  0
 20 21  1  0  0  0  0
 21 23  2  0  0  0  0
 22 25  2  0  0  0  0
 24 22  1  0  0  0  0
 24 20  2  0  0  0  0
 25 23  1  0  0  0  0
 26 20  1  0  0  0  0
 27  9  1  0  0  0  0
 29 27  1  6  0  0  0
 29 30  1  0  0  0  0
 30 34  1  0  0  0  0
 30 28  1  1  0  0  0
 31 34  1  0  0  0  0
 32 31  1  0  0  0  0
 33 32  1  0  0  0  0
 33 29  1  0  0  0  0
M  END
>  <MODEL>
7

>  <REMARK>
 VINA RESULT:      -7.8      3.704      8.098
  Name = 
  3 active torsions:
  status: ('A' for Active; 'I' for Inactive)
    1  A    between atoms: C_3  and  C_13
    2  A    between atoms: C_3  and  N_17
    3  A    between atoms: C_12  and  C_28
                            x       y       z     vdW  Elec       q    Type
                         _______ _______ _______ _____ _____    ______ ____

>  <TORSDO>
F 3

$$$$
=
 OpenBabel11052418543D

 34 39  0  0  1  0  0  0  0  0999 V2000
  191.3910  173.2210  139.9650 C   0  0  0  0  0  0  0  0  0  0  0  0
  189.1950  173.1380  141.1620 C   0  0  0  0  0  0  0  0  0  0  0  0
  191.3360  173.7300  142.4370 C   0  0  0  0  0  0  0  0  0  0  0  0
  191.7090  174.2530  144.7910 C   0  0  1  0  0  3  0  0  0  0  0  0
  189.3600  172.4260  138.8460 C   0  0  0  0  0  3  0  0  0  0  0  0
  188.5950  172.6420  139.9150 C   0  0  0  0  0  3  0  0  0  0  0  0
  189.7250  175.1210  143.6290 N   0  0  0  0  0  0  0  0  0  0  0  0
  190.5730  173.7780  141.1170 C   0  0  1  0  0  3  0  0  0  0  0  0
  188.3090  176.2040  145.1980 N   0  0  0  0  0  2  0  0  0  0  0  0
  190.5830  174.8170  146.1090 S   0  0  0  0  0  0  0  0  0  0  0  0
  190.8170  172.6320  138.9100 C   0  0  0  0  0  3  0  0  0  0  0  0
  192.7200  173.1100  142.5470 C   0  0  1  0  0  3  0  0  0  0  0  0
  193.1680  173.1910  140.1080 S   0  0  0  0  0  0  0  0  0  0  0  0
  188.5230  173.0870  142.2250 O   0  0  0  0  0  0  0  0  0  0  0  0
  192.0750  172.9020  144.9830 O   0  0  0  0  0  0  0  0  0  0  0  0
  192.9480  172.4640  143.9400 C   0  0  2  0  0  3  0  0  0  0  0  0
  189.4570  175.4300  144.8520 C   0  0  0  0  0  0  0  0  0  0  0  0
  190.9250  174.3780  143.5300 C   0  0  0  0  0  0  0  0  0  0  0  0
  193.0080  172.2090  141.5130 O   0  0  0  0  0  0  0  0  0  0  0  0
  196.2350  171.6370  145.6310 C   0  0  0  0  0  0  0  0  0  0  0  0
  197.0640  172.6560  145.1530 C   0  0  0  0  0  3  0  0  0  0  0  0
  194.3810  172.5440  144.3580 C   0  0  0  0  0  0  0  0  0  0  0  0
  196.5560  173.6190  144.2760 C   0  0  0  0  0  3  0  0  0  0  0  0
  194.8950  171.5820  145.2340 C   0  0  0  0  0  3  0  0  0  0  0  0
  195.2160  173.5640  143.8790 C   0  0  0  0  0  3  0  0  0  0  0  0
  196.7410  170.6810  146.5010 O   0  0  0  0  0  1  0  0  0  0  0  0
  187.3770  176.6950  144.1940 C   0  0  0  0  0  2  0  0  0  0  0  0
  185.4850  176.3670  146.3400 F   0  0  0  0  0  0  0  0  0  0  0  0
  186.5390  177.8250  144.7690 C   0  0  2  0  0  3  0  0  0  0  0  0
  185.2240  177.2720  145.3270 C   0  0  2  0  0  3  0  0  0  0  0  0
  184.0370  179.2540  144.7620 C   0  0  0  0  0  2  0  0  0  0  0  0
  185.2860  179.9210  144.1950 C   0  0  0  0  0  2  0  0  0  0  0  0
  186.2380  178.8500  143.6760 C   0  0  0  0  0  2  0  0  0  0  0  0
  184.4050  178.3610  145.8600 N   0  0  0  0  0  2  0  0  0  0  0  0
  1 13  1  0  0  0  0
  2 14  2  0  0  0  0
  3 12  1  0  0  0  0
  3 18  2  0  0  0  0
  4 18  1  6  0  0  0
  4 15  1  0  0  0  0
  4 10  1  0  0  0  0
  5 11  1  0  0  0  0
  5  6  2  0  0  0  0
  6  2  1  0  0  0  0
  7 17  2  0  0  0  0
  8  1  1  6  0  0  0
  8  2  1  0  0  0  0
  8  3  1  0  0  0  0
 11  1  2  0  0  0  0
 12 19  1  6  0  0  0
 12 16  1  0  0  0  0
 13 19  1  0  0  0  0
 16 22  1  1  0  0  0
 16 15  1  0  0  0  0
 17  9  1  0  0  0  0
 17 10  1  0  0  0  0
 18  7  1  0  0  0  0
 20 26  1  0  0  0  0
 21 20  2  0  0  0  0
 22 24  2  0  0  0  0
 23 21  1  0  0  0  0
 24 20  1  0  0  0  0
 25 23  2  0  0  0  0
 25 22  1  0  0  0  0
 27  9  1  0  0  0  0
 29 27  1  6  0  0  0
 29 30  1  0  0  0  0
 30 34  1  0  0  0  0
 30 28  1  1  0  0  0
 31 34  1  0  0  0  0
 32 31  1  0  0  0  0
 33 32  1  0  0  0  0
 33 29  1  0  0  0  0
M  END
>  <MODEL>
8

>  <REMARK>
 VINA RESULT:      -7.6      1.658      2.049
  Name = 
  3 active torsions:
  status: ('A' for Active; 'I' for Inactive)
    1  A    between atoms: C_3  and  C_13
    2  A    between atoms: C_3  and  N_17
    3  A    between atoms: C_12  and  C_28
                            x       y       z     vdW  Elec       q    Type
                         _______ _______ _______ _____ _____    ______ ____

>  <TORSDO>
F 3

$$$$
=
 OpenBabel11052418543D

 34 39  0  0  1  0  0  0  0  0999 V2000
  189.7090  173.7770  140.8530 C   0  0  0  0  0  0  0  0  0  0  0  0
  191.7810  174.6620  141.9410 C   0  0  0  0  0  0  0  0  0  0  0  0
  189.4730  175.3610  142.8040 C   0  0  0  0  0  0  0  0  0  0  0  0
  188.8240  176.8620  144.6140 C   0  0  1  0  0  3  0  0  0  0  0  0
  191.9300  173.3320  139.9140 C   0  0  0  0  0  3  0  0  0  0  0  0
  192.5570  173.9890  140.8900 C   0  0  0  0  0  3  0  0  0  0  0  0
  190.7260  175.3320  144.8970 N   0  0  0  0  0  0  0  0  0  0  0  0
  190.3250  174.2800  142.1470 C   0  0  1  0  0  3  0  0  0  0  0  0
  191.8070  175.7980  146.9600 N   0  0  0  0  0  2  0  0  0  0  0  0
  189.7270  177.4760  146.0750 S   0  0  0  0  0  0  0  0  0  0  0  0
  190.4590  173.3110  139.8470 C   0  0  0  0  0  3  0  0  0  0  0  0
  188.2070  175.8970  142.1550 C   0  0  1  0  0  3  0  0  0  0  0  0
  187.9560  173.9800  140.5980 S   0  0  0  0  0  0  0  0  0  0  0  0
  192.3610  175.4870  142.6940 O   0  0  0  0  0  0  0  0  0  0  0  0
  188.6730  177.8830  143.6490 O   0  0  0  0  0  0  0  0  0  0  0  0
  187.9740  177.3910  142.5030 C   0  0  2  0  0  3  0  0  0  0  0  0
  190.8360  176.0690  145.9500 C   0  0  0  0  0  0  0  0  0  0  0  0
  189.6780  175.7770  144.0560 C   0  0  0  0  0  0  0  0  0  0  0  0
  188.1600  175.6810  140.7710 O   0  0  0  0  0  0  0  0  0  0  0  0
  184.5690  178.3080  143.8860 C   0  0  0  0  0  0  0  0  0  0  0  0
  183.7960  178.3620  142.7220 C   0  0  0  0  0  3  0  0  0  0  0  0
  186.5180  177.7240  142.5680 C   0  0  0  0  0  0  0  0  0  0  0  0
  184.3810  178.0990  141.4800 C   0  0  0  0  0  3  0  0  0  0  0  0
  185.9280  177.9890  143.8080 C   0  0  0  0  0  3  0  0  0  0  0  0
  185.7400  177.7800  141.4020 C   0  0  0  0  0  3  0  0  0  0  0  0
  183.9870  178.5700  145.1180 O   0  0  0  0  0  1  0  0  0  0  0  0
  192.7250  174.6720  146.8670 C   0  0  0  0  0  2  0  0  0  0  0  0
  192.8000  172.8110  144.6710 F   0  0  0  0  0  0  0  0  0  0  0  0
  193.6210  174.8300  145.6490 C   0  0  2  0  0  3  0  0  0  0  0  0
  193.9600  173.4550  145.0660 C   0  0  2  0  0  3  0  0  0  0  0  0
  196.1100  174.1790  144.3520 C   0  0  0  0  0  2  0  0  0  0  0  0
  195.8810  175.5940  144.8750 C   0  0  0  0  0  2  0  0  0  0  0  0
  194.9100  175.5470  146.0490 C   0  0  0  0  0  2  0  0  0  0  0  0
  194.8410  173.6030  143.9080 N   0  0  0  0  0  2  0  0  0  0  0  0
  2  8  1  0  0  0  0
  2 14  2  0  0  0  0
  3 18  2  0  0  0  0
  4 15  1  6  0  0  0
  4 10  1  0  0  0  0
  5  6  2  0  0  0  0
  6  2  1  0  0  0  0
  7 17  2  0  0  0  0
  8  1  1  6  0  0  0
  8  3  1  0  0  0  0
 11  5  1  0  0  0  0
 11  1  2  0  0  0  0
 12 19  1  6  0  0  0
 12 16  1  0  0  0  0
 12  3  1  0  0  0  0
 13 19  1  0  0  0  0
 13  1  1  0  0  0  0
 16 22  1  1  0  0  0
 16 15  1  0  0  0  0
 17 10  1  0  0  0  0
 17  9  1  0  0  0  0
 18  4  1  0  0  0  0
 18  7  1  0  0  0  0
 20 26  1  0  0  0  0
 21 20  2  0  0  0  0
 22 24  2  0  0  0  0
 23 21  1  0  0  0  0
 24 20  1  0  0  0  0
 25 23  2  0  0  0  0
 25 22  1  0  0  0  0
 27  9  1  0  0  0  0
 29 33  1  0  0  0  0
 29 27  1  1  0  0  0
 30 28  1  6  0  0  0
 30 29  1  0  0  0  0
 31 32  1  0  0  0  0
 32 33  1  0  0  0  0
 34 31  1  0  0  0  0
 34 30  1  0  0  0  0
M  END
>  <MODEL>
9

>  <REMARK>
 VINA RESULT:      -7.5      3.175      7.950
  Name = 
  3 active torsions:
  status: ('A' for Active; 'I' for Inactive)
    1  A    between atoms: C_3  and  C_13
    2  A    between atoms: C_3  and  N_17
    3  A    between atoms: C_12  and  C_28
                            x       y       z     vdW  Elec       q    Type
                         _______ _______ _______ _____ _____    ______ ____

>  <TORSDO>
F 3

$$$$
