=
 OpenBabel11052420563D

 43 49  0  0  1  0  0  0  0  0999 V2000
  195.8500  173.8660  145.7000 C   0  0  0  0  0  0  0  0  0  0  0  0
  191.5010  173.5830  143.1390 C   0  0  0  0  0  0  0  0  0  0  0  0
  190.3890  176.1060  143.2500 C   0  0  0  0  0  0  0  0  0  0  0  0
  193.9600  173.0940  144.3960 C   0  0  0  0  0  0  0  0  0  0  0  0
  195.2890  175.1440  145.7660 C   0  0  0  0  0  3  0  0  0  0  0  0
  197.1520  173.5920  146.3620 C   0  0  0  0  0  1  0  0  0  0  0  0
  193.3860  174.3880  144.4590 C   0  0  0  0  0  0  0  0  0  0  0  0
  195.1870  172.8430  145.0170 C   0  0  0  0  0  3  0  0  0  0  0  0
  194.0620  175.4050  145.1480 C   0  0  0  0  0  3  0  0  0  0  0  0
  191.5770  175.8620  143.8680 N   0  0  0  0  0  0  0  0  0  0  0  0
  192.1520  174.6300  143.8280 C   0  0  0  0  0  0  0  0  0  0  0  0
  192.0800  172.3100  143.0880 C   0  0  0  0  0  3  0  0  0  0  0  0
  190.2760  173.8530  142.5170 C   0  0  0  0  0  0  0  0  0  0  0  0
  189.7510  175.1060  142.5870 N   0  0  0  0  0  0  0  0  0  0  0  0
  193.3050  172.0670  143.7140 C   0  0  0  0  0  3  0  0  0  0  0  0
  189.7680  177.4630  143.3050 C   0  0  1  0  0  3  0  0  0  0  0  0
  190.8440  178.5200  143.4850 C   0  0  0  0  0  1  0  0  0  0  0  0
  188.9570  177.7320  142.0450 C   0  0  0  0  0  2  0  0  0  0  0  0
  187.5410  178.0790  142.3730 C   0  0  0  0  0  0  0  0  0  0  0  0
  186.7030  178.1480  141.4860 O   0  0  0  0  0  0  0  0  0  0  0  0
  187.1550  178.3410  143.7910 C   0  0  0  0  0  2  0  0  0  0  0  0
  186.1690  177.2840  144.2950 C   0  0  2  0  0  3  0  0  0  0  0  0
  184.5580  177.8350  146.5270 C   0  0  0  0  0  2  0  0  0  0  0  0
  184.8220  177.6810  144.1170 O   0  0  0  0  0  0  0  0  0  0  0  0
  186.4460  176.7600  145.7270 C   0  0  2  0  0  3  0  0  0  0  0  0
  185.2380  176.5950  146.4450 O   0  0  0  0  0  0  0  0  0  0  0  0
  184.4640  178.5480  145.1690 C   0  0  0  0  0  2  0  0  0  0  0  0
  187.3900  177.5970  146.4710 N   0  0  0  0  0  2  0  0  0  0  0  0
  188.5150  176.8140  146.7640 N   0  0  0  0  0  0  0  0  0  0  0  0
  189.3030  174.5740  146.1840 C   0  0  0  0  0  2  0  0  0  0  0  0
  190.6360  176.3720  147.3010 C   0  0  0  0  0  3  0  0  0  0  0  0
  189.9040  175.0700  147.4890 C   0  0  1  0  0  3  0  0  0  0  0  0
  189.8200  177.3350  146.9130 C   0  0  0  0  0  3  0  0  0  0  0  0
  188.4570  175.4100  147.1300 C   0  0  1  0  0  3  0  0  0  0  0  0
  189.5990  172.8380  141.8310 O   0  0  0  0  0  0  0  0  0  0  0  0
  190.7120  173.5840  138.3360 C   0  0  0  0  0  3  0  0  0  0  0  0
  189.5160  173.7850  137.7710 C   0  0  0  0  0  0  0  0  0  0  0  0
  188.3350  173.3410  139.8610 C   0  0  0  0  0  3  0  0  0  0  0  0
  190.8340  173.4480  139.8290 C   0  0  0  0  0  2  0  0  0  0  0  0
  189.6010  172.7430  140.4130 C   0  0  1  0  0  3  0  0  0  0  0  0
  188.2960  173.7920  138.6030 C   0  0  0  0  0  3  0  0  0  0  0  0
  189.8160  172.8680  135.6180 O   0  0  0  0  0  1  0  0  0  0  0  0
  189.4190  174.0160  136.3030 C   0  0  0  0  0  2  0  0  0  0  0  0
  1  5  1  0  0  0  0
  1  6  1  0  0  0  0
  2 11  1  0  0  0  0
  3 16  1  0  0  0  0
  3 10  2  0  0  0  0
  4  7  1  0  0  0  0
  4  8  1  0  0  0  0
  7  9  1  0  0  0  0
  8  1  2  0  0  0  0
  9  5  2  0  0  0  0
 11 10  1  0  0  0  0
 11  7  2  0  0  0  0
 12  2  2  0  0  0  0
 12 15  1  0  0  0  0
 13 14  2  0  0  0  0
 13  2  1  0  0  0  0
 14  3  1  0  0  0  0
 15  4  2  0  0  0  0
 16 17  1  6  0  0  0
 18 19  1  0  0  0  0
 18 16  1  0  0  0  0
 19 21  1  0  0  0  0
 20 19  2  0  0  0  0
 22 21  1  1  0  0  0
 22 25  1  0  0  0  0
 24 22  1  0  0  0  0
 24 27  1  0  0  0  0
 25 26  1  0  0  0  0
 25 28  1  1  0  0  0
 26 23  1  0  0  0  0
 27 23  1  0  0  0  0
 28 29  1  0  0  0  0
 29 33  1  0  0  0  0
 29 34  1  0  0  0  0
 31 32  1  0  0  0  0
 32 30  1  6  0  0  0
 33 31  2  0  0  0  0
 34 30  1  6  0  0  0
 34 32  1  0  0  0  0
 35 13  1  0  0  0  0
 36 39  1  0  0  0  0
 37 36  2  0  0  0  0
 37 41  1  0  0  0  0
 38 40  1  0  0  0  0
 39 40  1  0  0  0  0
 40 35  1  1  0  0  0
 41 38  2  0  0  0  0
 42 43  1  0  0  0  0
 43 37  1  0  0  0  0
M  END
>  <MODEL>
1

>  <REMARK>
 VINA RESULT:      -8.3      0.000      0.000
  Name = 
  10 active torsions:
  status: ('A' for Active; 'I' for Inactive)
    1  A    between atoms: O_1  and  C_34
    2  A    between atoms: O_1  and  C_35
    3  A    between atoms: C_2  and  C_6
    4  A    between atoms: C_2  and  C_13
    5  A    between atoms: C_3  and  C_4
    6  A    between atoms: C_3  and  C_12
    7  A    between atoms: C_6  and  C_12
    8  A    between atoms: N_11  and  N_14
    9  A    between atoms: N_14  and  C_22
   10  A    between atoms: C_19  and  C_37
                            x       y       z     vdW  Elec       q    Type
                         _______ _______ _______ _____ _____    ______ ____

>  <TORSDO>
F 10

$$$$
=
 OpenBabel11052420563D

 43 49  0  0  1  0  0  0  0  0999 V2000
  190.8830  170.0870  137.0170 C   0  0  0  0  0  0  0  0  0  0  0  0
  189.0340  173.5290  140.2260 C   0  0  0  0  0  0  0  0  0  0  0  0
  190.0510  172.8780  142.7070 C   0  0  0  0  0  0  0  0  0  0  0  0
  189.7060  171.9650  137.9960 C   0  0  0  0  0  0  0  0  0  0  0  0
  191.3950  169.7480  138.2720 C   0  0  0  0  0  3  0  0  0  0  0  0
  191.2300  169.2680  135.8280 C   0  0  0  0  0  1  0  0  0  0  0  0
  190.2230  171.6270  139.2710 C   0  0  0  0  0  0  0  0  0  0  0  0
  190.0400  171.1930  136.8790 C   0  0  0  0  0  3  0  0  0  0  0  0
  191.0680  170.5140  139.3950 C   0  0  0  0  0  3  0  0  0  0  0  0
  190.3660  172.1150  141.6240 N   0  0  0  0  0  0  0  0  0  0  0  0
  189.8830  172.4130  140.3880 C   0  0  0  0  0  0  0  0  0  0  0  0
  188.5300  173.8480  138.9590 C   0  0  0  0  0  3  0  0  0  0  0  0
  188.7150  174.2950  141.3530 C   0  0  0  0  0  0  0  0  0  0  0  0
  189.2320  173.9520  142.5640 N   0  0  0  0  0  0  0  0  0  0  0  0
  188.8650  173.0700  137.8490 C   0  0  0  0  0  3  0  0  0  0  0  0
  190.5860  172.5360  144.0590 C   0  0  1  0  0  3  0  0  0  0  0  0
  189.4770  171.9640  144.9260 C   0  0  0  0  0  1  0  0  0  0  0  0
  191.7400  171.5500  143.9440 C   0  0  0  0  0  2  0  0  0  0  0  0
  193.0500  172.2100  144.2310 C   0  0  0  0  0  0  0  0  0  0  0  0
  194.0450  171.9080  143.5880 O   0  0  0  0  0  0  0  0  0  0  0  0
  193.1360  173.2400  145.3080 C   0  0  0  0  0  2  0  0  0  0  0  0
  193.3870  174.6300  144.7160 C   0  0  2  0  0  3  0  0  0  0  0  0
  194.4270  176.6680  146.3450 C   0  0  0  0  0  2  0  0  0  0  0  0
  194.7650  174.9480  144.6620 O   0  0  0  0  0  0  0  0  0  0  0  0
  192.5430  175.7700  145.3430 C   0  0  2  0  0  3  0  0  0  0  0  0
  193.3190  176.9410  145.5050 O   0  0  0  0  0  0  0  0  0  0  0  0
  195.1770  175.3900  145.9350 C   0  0  0  0  0  2  0  0  0  0  0  0
  191.9040  175.3840  146.6030 N   0  0  0  0  0  2  0  0  0  0  0  0
  190.5720  175.8160  146.5560 N   0  0  0  0  0  0  0  0  0  0  0  0
  189.3350  177.5930  145.4210 C   0  0  0  0  0  2  0  0  0  0  0  0
  188.3480  175.6580  146.6630 C   0  0  0  0  0  3  0  0  0  0  0  0
  188.6380  177.1360  146.6930 C   0  0  1  0  0  3  0  0  0  0  0  0
  189.4580  174.9470  146.6070 C   0  0  0  0  0  3  0  0  0  0  0  0
  190.1650  177.2080  146.6340 C   0  0  1  0  0  3  0  0  0  0  0  0
  187.8710  175.4040  141.2310 O   0  0  0  0  0  0  0  0  0  0  0  0
  185.9640  177.0380  144.0080 C   0  0  0  0  0  3  0  0  0  0  0  0
  186.1980  178.3190  143.7010 C   0  0  0  0  0  0  0  0  0  0  0  0
  187.5660  177.7170  141.7700 C   0  0  0  0  0  3  0  0  0  0  0  0
  186.3540  175.9440  143.0520 C   0  0  0  0  0  2  0  0  0  0  0  0
  187.6430  176.3120  142.3020 C   0  0  1  0  0  3  0  0  0  0  0  0
  186.9170  178.6630  142.4570 C   0  0  0  0  0  3  0  0  0  0  0  0
  184.3260  179.4280  144.6120 O   0  0  0  0  0  1  0  0  0  0  0  0
  185.7200  179.3990  144.6080 C   0  0  0  0  0  2  0  0  0  0  0  0
  1  5  1  0  0  0  0
  2 11  1  0  0  0  0
  2 13  1  0  0  0  0
  3 16  1  0  0  0  0
  4  7  1  0  0  0  0
  5  9  2  0  0  0  0
  6  1  1  0  0  0  0
  7  9  1  0  0  0  0
  7 11  2  0  0  0  0
  8  1  2  0  0  0  0
  8  4  1  0  0  0  0
 10  3  2  0  0  0  0
 11 10  1  0  0  0  0
 12  2  2  0  0  0  0
 13 14  2  0  0  0  0
 14  3  1  0  0  0  0
 15  4  2  0  0  0  0
 15 12  1  0  0  0  0
 16 17  1  1  0  0  0
 18 16  1  0  0  0  0
 18 19  1  0  0  0  0
 19 21  1  0  0  0  0
 20 19  2  0  0  0  0
 22 21  1  1  0  0  0
 22 25  1  0  0  0  0
 24 22  1  0  0  0  0
 24 27  1  0  0  0  0
 25 26  1  0  0  0  0
 25 28  1  1  0  0  0
 26 23  1  0  0  0  0
 27 23  1  0  0  0  0
 29 28  1  0  0  0  0
 29 33  1  0  0  0  0
 29 34  1  0  0  0  0
 31 32  1  0  0  0  0
 32 30  1  6  0  0  0
 33 31  2  0  0  0  0
 34 30  1  6  0  0  0
 34 32  1  0  0  0  0
 35 13  1  0  0  0  0
 37 36  2  0  0  0  0
 37 43  1  0  0  0  0
 38 40  1  0  0  0  0
 38 41  2  0  0  0  0
 39 36  1  0  0  0  0
 40 35  1  6  0  0  0
 40 39  1  0  0  0  0
 41 37  1  0  0  0  0
 43 42  1  0  0  0  0
M  END
>  <MODEL>
2

>  <REMARK>
 VINA RESULT:      -7.8      2.478      7.230
  Name = 
  10 active torsions:
  status: ('A' for Active; 'I' for Inactive)
    1  A    between atoms: O_1  and  C_34
    2  A    between atoms: O_1  and  C_35
    3  A    between atoms: C_2  and  C_6
    4  A    between atoms: C_2  and  C_13
    5  A    between atoms: C_3  and  C_4
    6  A    between atoms: C_3  and  C_12
    7  A    between atoms: C_6  and  C_12
    8  A    between atoms: N_11  and  N_14
    9  A    between atoms: N_14  and  C_22
   10  A    between atoms: C_19  and  C_37
                            x       y       z     vdW  Elec       q    Type
                         _______ _______ _______ _____ _____    ______ ____

>  <TORSDO>
F 10

$$$$
=
 OpenBabel11052420563D

 43 49  0  0  1  0  0  0  0  0999 V2000
  185.1840  178.2530  144.2120 C   0  0  0  0  0  0  0  0  0  0  0  0
  189.1380  175.1630  143.6010 C   0  0  0  0  0  0  0  0  0  0  0  0
  190.9030  175.7760  145.6320 C   0  0  0  0  0  0  0  0  0  0  0  0
  186.7140  176.5590  143.3990 C   0  0  0  0  0  0  0  0  0  0  0  0
  186.0770  178.5730  145.2390 C   0  0  0  0  0  3  0  0  0  0  0  0
  183.8970  178.9840  144.0930 C   0  0  0  0  0  1  0  0  0  0  0  0
  187.6230  176.8790  144.4380 C   0  0  0  0  0  0  0  0  0  0  0  0
  185.5020  177.2480  143.2940 C   0  0  0  0  0  3  0  0  0  0  0  0
  187.2910  177.8900  145.3520 C   0  0  0  0  0  3  0  0  0  0  0  0
  189.7300  176.4590  145.5240 N   0  0  0  0  0  0  0  0  0  0  0  0
  188.8390  176.1770  144.5360 C   0  0  0  0  0  0  0  0  0  0  0  0
  188.2300  174.8600  142.5790 C   0  0  0  0  0  3  0  0  0  0  0  0
  190.3530  174.4780  143.7240 C   0  0  0  0  0  0  0  0  0  0  0  0
  191.2040  174.8000  144.7360 N   0  0  0  0  0  0  0  0  0  0  0  0
  187.0230  175.5560  142.4790 C   0  0  0  0  0  3  0  0  0  0  0  0
  191.8740  176.0990  146.7190 C   0  0  1  0  0  3  0  0  0  0  0  0
  191.3160  175.6590  148.0620 C   0  0  0  0  0  1  0  0  0  0  0  0
  193.2170  175.4330  146.4520 C   0  0  0  0  0  2  0  0  0  0  0  0
  194.1390  176.3450  145.7100 C   0  0  0  0  0  0  0  0  0  0  0  0
  194.6040  177.3320  146.2610 O   0  0  0  0  0  0  0  0  0  0  0  0
  194.4890  176.0440  144.2900 C   0  0  0  0  0  2  0  0  0  0  0  0
  196.0070  175.9890  144.1000 C   0  0  2  0  0  3  0  0  0  0  0  0
  197.0720  175.3700  141.5780 C   0  0  0  0  0  2  0  0  0  0  0  0
  196.4780  177.0230  143.2560 O   0  0  0  0  0  0  0  0  0  0  0  0
  196.5670  174.6000  143.7010 C   0  0  2  0  0  3  0  0  0  0  0  0
  197.5880  174.7280  142.7310 O   0  0  0  0  0  0  0  0  0  0  0  0
  196.2740  176.6400  141.9150 C   0  0  0  0  0  2  0  0  0  0  0  0
  195.5280  173.6710  143.2520 N   0  0  0  0  0  2  0  0  0  0  0  0
  195.4010  172.6690  144.2250 N   0  0  0  0  0  0  0  0  0  0  0  0
  196.7770  171.8020  146.0500 C   0  0  0  0  0  2  0  0  0  0  0  0
  194.3640  171.2850  145.6360 C   0  0  0  0  0  3  0  0  0  0  0  0
  195.7780  170.7710  145.5490 C   0  0  1  0  0  3  0  0  0  0  0  0
  194.1840  172.3390  144.8630 C   0  0  0  0  0  3  0  0  0  0  0  0
  196.4540  171.7290  144.5670 C   0  0  1  0  0  3  0  0  0  0  0  0
  190.6870  173.4710  142.8110 O   0  0  0  0  0  0  0  0  0  0  0  0
  193.4740  174.3560  140.4750 C   0  0  0  0  0  3  0  0  0  0  0  0
  193.7890  173.1290  140.0450 C   0  0  0  0  0  0  0  0  0  0  0  0
  192.0850  172.0850  141.4480 C   0  0  0  0  0  3  0  0  0  0  0  0
  192.2380  174.5780  141.3040 C   0  0  0  0  0  2  0  0  0  0  0  0
  191.9760  173.3730  142.2190 C   0  0  1  0  0  3  0  0  0  0  0  0
  192.9700  171.9690  140.4530 C   0  0  0  0  0  3  0  0  0  0  0  0
  196.0380  172.4370  139.8750 O   0  0  0  0  0  1  0  0  0  0  0  0
  194.9590  172.9360  139.1450 C   0  0  0  0  0  2  0  0  0  0  0  0
  1  5  1  0  0  0  0
  2 13  1  0  0  0  0
  2 11  1  0  0  0  0
  3 16  1  0  0  0  0
  4  7  1  0  0  0  0
  5  9  2  0  0  0  0
  6  1  1  0  0  0  0
  7 11  2  0  0  0  0
  7  9  1  0  0  0  0
  8  4  1  0  0  0  0
  8  1  2  0  0  0  0
 10  3  2  0  0  0  0
 11 10  1  0  0  0  0
 12  2  2  0  0  0  0
 13 14  2  0  0  0  0
 14  3  1  0  0  0  0
 15 12  1  0  0  0  0
 15  4  2  0  0  0  0
 16 17  1  1  0  0  0
 18 16  1  0  0  0  0
 19 20  2  0  0  0  0
 19 18  1  0  0  0  0
 21 19  1  0  0  0  0
 22 21  1  6  0  0  0
 23 27  1  0  0  0  0
 23 26  1  0  0  0  0
 24 22  1  0  0  0  0
 25 28  1  6  0  0  0
 25 22  1  0  0  0  0
 26 25  1  0  0  0  0
 27 24  1  0  0  0  0
 28 29  1  0  0  0  0
 29 34  1  0  0  0  0
 29 33  1  0  0  0  0
 32 31  1  1  0  0  0
 32 30  1  0  0  0  0
 33 31  2  0  0  0  0
 34 32  1  0  0  0  0
 34 30  1  1  0  0  0
 35 13  1  0  0  0  0
 36 39  1  0  0  0  0
 37 41  1  0  0  0  0
 37 36  2  0  0  0  0
 38 40  1  0  0  0  0
 39 40  1  0  0  0  0
 40 35  1  6  0  0  0
 41 38  2  0  0  0  0
 43 42  1  0  0  0  0
 43 37  1  0  0  0  0
M  END
>  <MODEL>
3

>  <REMARK>
 VINA RESULT:      -7.6      3.261      7.835
  Name = 
  10 active torsions:
  status: ('A' for Active; 'I' for Inactive)
    1  A    between atoms: O_1  and  C_34
    2  A    between atoms: O_1  and  C_35
    3  A    between atoms: C_2  and  C_6
    4  A    between atoms: C_2  and  C_13
    5  A    between atoms: C_3  and  C_4
    6  A    between atoms: C_3  and  C_12
    7  A    between atoms: C_6  and  C_12
    8  A    between atoms: N_11  and  N_14
    9  A    between atoms: N_14  and  C_22
   10  A    between atoms: C_19  and  C_37
                            x       y       z     vdW  Elec       q    Type
                         _______ _______ _______ _____ _____    ______ ____

>  <TORSDO>
F 10

$$$$
=
 OpenBabel11052420563D

 43 49  0  0  1  0  0  0  0  0999 V2000
  189.8200  171.9580  137.0000 C   0  0  0  0  0  0  0  0  0  0  0  0
  190.5700  172.8630  141.9170 C   0  0  0  0  0  0  0  0  0  0  0  0
  189.3740  175.2950  142.4340 C   0  0  0  0  0  0  0  0  0  0  0  0
  190.4930  171.8010  139.3220 C   0  0  0  0  0  0  0  0  0  0  0  0
  189.2190  173.1950  137.2540 C   0  0  0  0  0  3  0  0  0  0  0  0
  189.7870  171.3840  135.6310 C   0  0  0  0  0  1  0  0  0  0  0  0
  189.8850  173.0530  139.5860 C   0  0  0  0  0  0  0  0  0  0  0  0
  190.4560  171.2630  138.0320 C   0  0  0  0  0  3  0  0  0  0  0  0
  189.2500  173.7400  138.5400 C   0  0  0  0  0  3  0  0  0  0  0  0
  189.3490  174.7820  141.1730 N   0  0  0  0  0  0  0  0  0  0  0  0
  189.9260  173.5840  140.8880 C   0  0  0  0  0  0  0  0  0  0  0  0
  191.1680  171.6280  141.6400 C   0  0  0  0  0  3  0  0  0  0  0  0
  190.5920  173.4120  143.2050 C   0  0  0  0  0  0  0  0  0  0  0  0
  189.9940  174.6130  143.4310 N   0  0  0  0  0  0  0  0  0  0  0  0
  191.1290  171.0990  140.3480 C   0  0  0  0  0  3  0  0  0  0  0  0
  188.7390  176.6140  142.7300 C   0  0  1  0  0  3  0  0  0  0  0  0
  189.7420  177.7340  142.5130 C   0  0  0  0  0  1  0  0  0  0  0  0
  187.5070  176.8210  141.8610 C   0  0  0  0  0  2  0  0  0  0  0  0
  186.7050  177.9950  142.3240 C   0  0  0  0  0  0  0  0  0  0  0  0
  186.0710  178.6620  141.5200 O   0  0  0  0  0  0  0  0  0  0  0  0
  186.6860  178.3480  143.7740 C   0  0  0  0  0  2  0  0  0  0  0  0
  185.7390  177.4270  144.5490 C   0  0  2  0  0  3  0  0  0  0  0  0
  184.6870  178.2670  147.0120 C   0  0  0  0  0  2  0  0  0  0  0  0
  184.4250  177.9450  144.6180 O   0  0  0  0  0  0  0  0  0  0  0  0
  186.2650  176.9630  145.9320 C   0  0  2  0  0  3  0  0  0  0  0  0
  185.2250  176.9620  146.8910 O   0  0  0  0  0  0  0  0  0  0  0  0
  184.3710  178.9050  145.6500 C   0  0  0  0  0  2  0  0  0  0  0  0
  187.4120  177.7430  146.4000 N   0  0  0  0  0  2  0  0  0  0  0  0
  188.4590  176.8480  146.6620 N   0  0  0  0  0  0  0  0  0  0  0  0
  190.7380  177.0090  147.5300 C   0  0  0  0  0  2  0  0  0  0  0  0
  189.4310  174.9060  147.1760 C   0  0  0  0  0  3  0  0  0  0  0  0
  190.5450  175.7780  146.6600 C   0  0  1  0  0  3  0  0  0  0  0  0
  188.2700  175.5330  147.1430 C   0  0  0  0  0  3  0  0  0  0  0  0
  189.8450  177.0900  146.3040 C   0  0  1  0  0  3  0  0  0  0  0  0
  191.2270  172.7290  144.2480 O   0  0  0  0  0  0  0  0  0  0  0  0
  194.3440  174.7770  144.5770 C   0  0  0  0  0  3  0  0  0  0  0  0
  195.1910  173.8150  144.9590 C   0  0  0  0  0  0  0  0  0  0  0  0
  193.4430  172.1100  144.9110 C   0  0  0  0  0  3  0  0  0  0  0  0
  192.9600  174.4270  144.1020 C   0  0  0  0  0  2  0  0  0  0  0  0
  192.4160  173.2090  144.8630 C   0  0  1  0  0  3  0  0  0  0  0  0
  194.7440  172.4070  144.9960 C   0  0  0  0  0  3  0  0  0  0  0  0
  197.0580  173.2640  146.2910 O   0  0  0  0  0  1  0  0  0  0  0  0
  196.5890  174.1630  145.3340 C   0  0  0  0  0  2  0  0  0  0  0  0
  1  5  2  0  0  0  0
  1  8  1  0  0  0  0
  2 13  1  0  0  0  0
  3 16  1  0  0  0  0
  3 14  1  0  0  0  0
  4  7  1  0  0  0  0
  4 15  1  0  0  0  0
  5  9  1  0  0  0  0
  6  1  1  0  0  0  0
  7 11  1  0  0  0  0
  8  4  2  0  0  0  0
  9  7  2  0  0  0  0
 10  3  2  0  0  0  0
 11 10  1  0  0  0  0
 11  2  2  0  0  0  0
 12  2  1  0  0  0  0
 13 14  2  0  0  0  0
 13 35  1  0  0  0  0
 15 12  2  0  0  0  0
 16 17  1  6  0  0  0
 18 19  1  0  0  0  0
 18 16  1  0  0  0  0
 19 21  1  0  0  0  0
 20 19  2  0  0  0  0
 22 21  1  1  0  0  0
 22 24  1  0  0  0  0
 22 25  1  0  0  0  0
 24 27  1  0  0  0  0
 25 28  1  1  0  0  0
 25 26  1  0  0  0  0
 26 23  1  0  0  0  0
 27 23  1  0  0  0  0
 28 29  1  0  0  0  0
 29 33  1  0  0  0  0
 32 31  1  1  0  0  0
 32 30  1  0  0  0  0
 33 31  2  0  0  0  0
 34 32  1  0  0  0  0
 34 29  1  0  0  0  0
 34 30  1  1  0  0  0
 36 37  2  0  0  0  0
 37 41  1  0  0  0  0
 37 43  1  0  0  0  0
 38 41  2  0  0  0  0
 39 36  1  0  0  0  0
 39 40  1  0  0  0  0
 40 35  1  6  0  0  0
 40 38  1  0  0  0  0
 43 42  1  0  0  0  0
M  END
>  <MODEL>
4

>  <REMARK>
 VINA RESULT:      -7.5      1.810      5.606
  Name = 
  10 active torsions:
  status: ('A' for Active; 'I' for Inactive)
    1  A    between atoms: O_1  and  C_34
    2  A    between atoms: O_1  and  C_35
    3  A    between atoms: C_2  and  C_6
    4  A    between atoms: C_2  and  C_13
    5  A    between atoms: C_3  and  C_4
    6  A    between atoms: C_3  and  C_12
    7  A    between atoms: C_6  and  C_12
    8  A    between atoms: N_11  and  N_14
    9  A    between atoms: N_14  and  C_22
   10  A    between atoms: C_19  and  C_37
                            x       y       z     vdW  Elec       q    Type
                         _______ _______ _______ _____ _____    ______ ____

>  <TORSDO>
F 10

$$$$
=
 OpenBabel11052420563D

 43 49  0  0  1  0  0  0  0  0999 V2000
  195.8510  173.8810  145.7490 C   0  0  0  0  0  0  0  0  0  0  0  0
  191.3700  175.7950  144.4030 C   0  0  0  0  0  0  0  0  0  0  0  0
  190.2780  173.9930  142.6210 C   0  0  0  0  0  0  0  0  0  0  0  0
  193.8900  175.2860  145.5230 C   0  0  0  0  0  0  0  0  0  0  0  0
  195.3060  172.9670  144.8410 C   0  0  0  0  0  3  0  0  0  0  0  0
  197.1840  173.6240  146.3500 C   0  0  0  0  0  1  0  0  0  0  0  0
  193.3320  174.3640  144.6030 C   0  0  0  0  0  0  0  0  0  0  0  0
  195.1440  175.0370  146.0890 C   0  0  0  0  0  3  0  0  0  0  0  0
  194.0530  173.2070  144.2710 C   0  0  0  0  0  3  0  0  0  0  0  0
  191.5060  173.7550  143.1590 N   0  0  0  0  0  0  0  0  0  0  0  0
  192.0690  174.6230  144.0420 C   0  0  0  0  0  0  0  0  0  0  0  0
  191.9350  176.6980  145.3120 C   0  0  0  0  0  3  0  0  0  0  0  0
  190.1120  176.0260  143.8330 C   0  0  0  0  0  0  0  0  0  0  0  0
  189.5970  175.1200  142.9570 N   0  0  0  0  0  0  0  0  0  0  0  0
  193.1900  176.4430  145.8700 C   0  0  0  0  0  3  0  0  0  0  0  0
  189.6740  173.0340  141.6490 C   0  0  1  0  0  3  0  0  0  0  0  0
  188.2300  172.7530  142.0260 C   0  0  0  0  0  1  0  0  0  0  0  0
  189.7620  173.5830  140.2320 C   0  0  0  0  0  2  0  0  0  0  0  0
  190.7130  172.7860  139.3970 C   0  0  0  0  0  0  0  0  0  0  0  0
  190.2940  172.0790  138.4930 O   0  0  0  0  0  0  0  0  0  0  0  0
  192.1780  172.8590  139.6760 C   0  0  0  0  0  2  0  0  0  0  0  0
  192.8410  173.9510  138.8320 C   0  0  2  0  0  3  0  0  0  0  0  0
  195.4750  173.6000  137.9240 C   0  0  0  0  0  2  0  0  0  0  0  0
  193.0830  173.5280  137.5030 O   0  0  0  0  0  0  0  0  0  0  0  0
  194.0870  174.6100  139.4770 C   0  0  2  0  0  3  0  0  0  0  0  0
  195.0970  174.8320  138.5110 O   0  0  0  0  0  0  0  0  0  0  0  0
  194.2650  172.7600  137.4810 C   0  0  0  0  0  2  0  0  0  0  0  0
  194.6080  173.8550  140.6190 N   0  0  0  0  0  2  0  0  0  0  0  0
  195.4430  174.7110  141.3510 N   0  0  0  0  0  0  0  0  0  0  0  0
  197.7930  175.3780  141.2650 C   0  0  0  0  0  2  0  0  0  0  0  0
  195.9960  176.4500  142.6360 C   0  0  0  0  0  3  0  0  0  0  0  0
  197.2030  175.5490  142.6550 C   0  0  1  0  0  3  0  0  0  0  0  0
  195.0200  175.9370  141.9100 C   0  0  0  0  0  3  0  0  0  0  0  0
  196.7870  174.3640  141.7820 C   0  0  1  0  0  3  0  0  0  0  0  0
  189.3940  177.1810  144.1620 O   0  0  0  0  0  0  0  0  0  0  0  0
  185.9010  178.3830  144.7700 C   0  0  0  0  0  3  0  0  0  0  0  0
  185.8260  178.1590  146.0870 C   0  0  0  0  0  0  0  0  0  0  0  0
  188.0930  177.2570  146.1700 C   0  0  0  0  0  3  0  0  0  0  0  0
  187.2160  178.2550  144.0510 C   0  0  0  0  0  2  0  0  0  0  0  0
  188.0670  177.1360  144.6710 C   0  0  1  0  0  3  0  0  0  0  0  0
  187.0180  177.7020  146.8290 C   0  0  0  0  0  3  0  0  0  0  0  0
  183.5570  178.7760  145.8990 O   0  0  0  0  0  1  0  0  0  0  0  0
  184.5410  178.3840  146.8060 C   0  0  0  0  0  2  0  0  0  0  0  0
  1  8  1  0  0  0  0
  1  6  1  0  0  0  0
  2 12  1  0  0  0  0
  3 14  1  0  0  0  0
  3 10  2  0  0  0  0
  4 15  1  0  0  0  0
  4  8  2  0  0  0  0
  5  1  2  0  0  0  0
  7  4  1  0  0  0  0
  9  7  2  0  0  0  0
  9  5  1  0  0  0  0
 10 11  1  0  0  0  0
 11  2  2  0  0  0  0
 11  7  1  0  0  0  0
 12 15  2  0  0  0  0
 13 35  1  0  0  0  0
 13  2  1  0  0  0  0
 14 13  2  0  0  0  0
 16 17  1  1  0  0  0
 16  3  1  0  0  0  0
 18 16  1  0  0  0  0
 19 21  1  0  0  0  0
 19 18  1  0  0  0  0
 20 19  2  0  0  0  0
 22 25  1  0  0  0  0
 22 21  1  1  0  0  0
 23 26  1  0  0  0  0
 24 22  1  0  0  0  0
 25 28  1  1  0  0  0
 26 25  1  0  0  0  0
 27 24  1  0  0  0  0
 27 23  1  0  0  0  0
 28 29  1  0  0  0  0
 29 34  1  0  0  0  0
 29 33  1  0  0  0  0
 31 32  1  0  0  0  0
 32 30  1  6  0  0  0
 33 31  2  0  0  0  0
 34 30  1  6  0  0  0
 34 32  1  0  0  0  0
 36 37  2  0  0  0  0
 37 43  1  0  0  0  0
 37 41  1  0  0  0  0
 38 41  2  0  0  0  0
 39 40  1  0  0  0  0
 39 36  1  0  0  0  0
 40 35  1  6  0  0  0
 40 38  1  0  0  0  0
 42 43  1  0  0  0  0
M  END
>  <MODEL>
5

>  <REMARK>
 VINA RESULT:      -7.5      2.648      7.742
  Name = 
  10 active torsions:
  status: ('A' for Active; 'I' for Inactive)
    1  A    between atoms: O_1  and  C_34
    2  A    between atoms: O_1  and  C_35
    3  A    between atoms: C_2  and  C_6
    4  A    between atoms: C_2  and  C_13
    5  A    between atoms: C_3  and  C_4
    6  A    between atoms: C_3  and  C_12
    7  A    between atoms: C_6  and  C_12
    8  A    between atoms: N_11  and  N_14
    9  A    between atoms: N_14  and  C_22
   10  A    between atoms: C_19  and  C_37
                            x       y       z     vdW  Elec       q    Type
                         _______ _______ _______ _____ _____    ______ ____

>  <TORSDO>
F 10

$$$$
=
 OpenBabel11052420563D

 43 49  0  0  1  0  0  0  0  0999 V2000
  185.0090  178.0530  146.0630 C   0  0  0  0  0  0  0  0  0  0  0  0
  188.8460  175.9270  143.5510 C   0  0  0  0  0  0  0  0  0  0  0  0
  190.9480  175.8060  145.3340 C   0  0  0  0  0  0  0  0  0  0  0  0
  186.3960  177.0240  144.3640 C   0  0  0  0  0  0  0  0  0  0  0  0
  186.0720  178.0020  146.9690 C   0  0  0  0  0  3  0  0  0  0  0  0
  183.7060  178.6320  146.4800 C   0  0  0  0  0  1  0  0  0  0  0  0
  187.4780  176.9680  145.2780 C   0  0  0  0  0  0  0  0  0  0  0  0
  185.1710  177.5660  144.7630 C   0  0  0  0  0  3  0  0  0  0  0  0
  187.3010  177.4620  146.5790 C   0  0  0  0  0  3  0  0  0  0  0  0
  189.7610  176.3480  145.7220 N   0  0  0  0  0  0  0  0  0  0  0  0
  188.7050  176.4180  144.8670 C   0  0  0  0  0  0  0  0  0  0  0  0
  187.7690  175.9910  142.6590 C   0  0  0  0  0  3  0  0  0  0  0  0
  190.0780  175.3810  143.1690 C   0  0  0  0  0  0  0  0  0  0  0  0
  191.0970  175.3340  144.0690 N   0  0  0  0  0  0  0  0  0  0  0  0
  186.5490  176.5370  143.0650 C   0  0  0  0  0  3  0  0  0  0  0  0
  192.0990  175.7400  146.2830 C   0  0  1  0  0  3  0  0  0  0  0  0
  191.5950  175.4900  147.6940 C   0  0  0  0  0  1  0  0  0  0  0  0
  193.0770  174.6510  145.8620 C   0  0  0  0  0  2  0  0  0  0  0  0
  194.4210  175.2210  145.5410 C   0  0  0  0  0  0  0  0  0  0  0  0
  195.2960  175.2500  146.3920 O   0  0  0  0  0  0  0  0  0  0  0  0
  194.6860  175.7550  144.1720 C   0  0  0  0  0  2  0  0  0  0  0  0
  196.1650  175.6050  143.8040 C   0  0  2  0  0  3  0  0  0  0  0  0
  196.9170  175.4410  141.1040 C   0  0  0  0  0  2  0  0  0  0  0  0
  196.6700  176.7470  143.1380 O   0  0  0  0  0  0  0  0  0  0  0  0
  196.5270  174.2870  143.0720 C   0  0  2  0  0  3  0  0  0  0  0  0
  197.4610  174.5250  142.0370 O   0  0  0  0  0  0  0  0  0  0  0  0
  196.3010  176.6770  141.7790 C   0  0  0  0  0  2  0  0  0  0  0  0
  195.3530  173.5720  142.5650 N   0  0  0  0  0  2  0  0  0  0  0  0
  195.1000  172.4990  143.4320 N   0  0  0  0  0  0  0  0  0  0  0  0
  195.8760  171.7980  145.6410 C   0  0  0  0  0  2  0  0  0  0  0  0
  193.9450  170.8380  144.3730 C   0  0  0  0  0  3  0  0  0  0  0  0
  195.3680  170.6260  144.8160 C   0  0  1  0  0  3  0  0  0  0  0  0
  193.8350  171.8870  143.5800 C   0  0  0  0  0  3  0  0  0  0  0  0
  196.1330  171.7670  144.1430 C   0  0  1  0  0  3  0  0  0  0  0  0
  190.2560  174.8910  141.8710 O   0  0  0  0  0  0  0  0  0  0  0  0
  190.0860  171.2060  142.5070 C   0  0  0  0  0  3  0  0  0  0  0  0
  190.8850  170.7830  141.5210 C   0  0  0  0  0  0  0  0  0  0  0  0
  191.2730  173.0560  140.7170 C   0  0  0  0  0  3  0  0  0  0  0  0
  189.9820  172.6730  142.8240 C   0  0  0  0  0  2  0  0  0  0  0  0
  190.1040  173.5150  141.5460 C   0  0  1  0  0  3  0  0  0  0  0  0
  191.6060  171.7620  140.6820 C   0  0  0  0  0  3  0  0  0  0  0  0
  192.3490  168.9370  141.6330 O   0  0  0  0  0  1  0  0  0  0  0  0
  191.0570  169.3240  141.2790 C   0  0  0  0  0  2  0  0  0  0  0  0
  1  6  1  0  0  0  0
  1  5  1  0  0  0  0
  2 11  1  0  0  0  0
  3 10  2  0  0  0  0
  3 16  1  0  0  0  0
  4  8  1  0  0  0  0
  4  7  1  0  0  0  0
  7  9  1  0  0  0  0
  8  1  2  0  0  0  0
  9  5  2  0  0  0  0
 11  7  2  0  0  0  0
 11 10  1  0  0  0  0
 12 15  1  0  0  0  0
 12  2  2  0  0  0  0
 13  2  1  0  0  0  0
 13 14  2  0  0  0  0
 14  3  1  0  0  0  0
 15  4  2  0  0  0  0
 16 17  1  1  0  0  0
 18 16  1  0  0  0  0
 19 18  1  0  0  0  0
 19 20  2  0  0  0  0
 21 19  1  0  0  0  0
 22 21  1  6  0  0  0
 23 27  1  0  0  0  0
 23 26  1  0  0  0  0
 24 22  1  0  0  0  0
 25 28  1  6  0  0  0
 25 22  1  0  0  0  0
 26 25  1  0  0  0  0
 27 24  1  0  0  0  0
 28 29  1  0  0  0  0
 29 33  1  0  0  0  0
 29 34  1  0  0  0  0
 32 31  1  6  0  0  0
 32 30  1  0  0  0  0
 33 31  2  0  0  0  0
 34 32  1  0  0  0  0
 34 30  1  1  0  0  0
 35 13  1  0  0  0  0
 36 39  1  0  0  0  0
 37 36  2  0  0  0  0
 38 40  1  0  0  0  0
 40 35  1  1  0  0  0
 40 39  1  0  0  0  0
 41 38  2  0  0  0  0
 41 37  1  0  0  0  0
 43 37  1  0  0  0  0
 43 42  1  0  0  0  0
M  END
>  <MODEL>
6

>  <REMARK>
 VINA RESULT:      -7.4      3.065      7.975
  Name = 
  10 active torsions:
  status: ('A' for Active; 'I' for Inactive)
    1  A    between atoms: O_1  and  C_34
    2  A    between atoms: O_1  and  C_35
    3  A    between atoms: C_2  and  C_6
    4  A    between atoms: C_2  and  C_13
    5  A    between atoms: C_3  and  C_4
    6  A    between atoms: C_3  and  C_12
    7  A    between atoms: C_6  and  C_12
    8  A    between atoms: N_11  and  N_14
    9  A    between atoms: N_14  and  C_22
   10  A    between atoms: C_19  and  C_37
                            x       y       z     vdW  Elec       q    Type
                         _______ _______ _______ _____ _____    ______ ____

>  <TORSDO>
F 10

$$$$
=
 OpenBabel11052420563D

 43 49  0  0  1  0  0  0  0  0999 V2000
  191.4630  170.6010  140.9390 C   0  0  0  0  0  0  0  0  0  0  0  0
  189.0660  174.9990  141.6210 C   0  0  0  0  0  0  0  0  0  0  0  0
  190.4000  176.2820  143.6670 C   0  0  0  0  0  0  0  0  0  0  0  0
  189.9340  172.4720  140.7670 C   0  0  0  0  0  0  0  0  0  0  0  0
  192.1390  171.2420  141.9810 C   0  0  0  0  0  3  0  0  0  0  0  0
  191.9120  169.2620  140.4770 C   0  0  0  0  0  1  0  0  0  0  0  0
  190.6150  173.1280  141.8230 C   0  0  0  0  0  0  0  0  0  0  0  0
  190.3630  171.2140  140.3330 C   0  0  0  0  0  3  0  0  0  0  0  0
  191.7170  172.5000  142.4210 C   0  0  0  0  0  3  0  0  0  0  0  0
  190.8110  175.0510  143.2570 N   0  0  0  0  0  0  0  0  0  0  0  0
  190.1760  174.3950  142.2490 C   0  0  0  0  0  0  0  0  0  0  0  0
  188.4020  174.3370  140.5810 C   0  0  0  0  0  3  0  0  0  0  0  0
  188.6530  176.2620  142.0620 C   0  0  0  0  0  0  0  0  0  0  0  0
  189.3300  176.8720  143.0730 N   0  0  0  0  0  0  0  0  0  0  0  0
  188.8360  173.0790  140.1550 C   0  0  0  0  0  3  0  0  0  0  0  0
  191.1040  176.9880  144.7780 C   0  0  1  0  0  3  0  0  0  0  0  0
  190.1050  177.4090  145.8420 C   0  0  0  0  0  1  0  0  0  0  0  0
  192.1830  176.0980  145.3780 C   0  0  0  0  0  2  0  0  0  0  0  0
  193.5510  176.6230  145.0810 C   0  0  0  0  0  0  0  0  0  0  0  0
  194.0260  177.5200  145.7610 O   0  0  0  0  0  0  0  0  0  0  0  0
  194.3320  176.0460  143.9480 C   0  0  0  0  0  2  0  0  0  0  0  0
  195.8320  176.0620  144.2530 C   0  0  2  0  0  3  0  0  0  0  0  0
  197.6680  175.3760  142.2430 C   0  0  0  0  0  2  0  0  0  0  0  0
  196.5130  177.0760  143.5370 O   0  0  0  0  0  0  0  0  0  0  0  0
  196.5380  174.6860  144.1410 C   0  0  2  0  0  3  0  0  0  0  0  0
  197.8100  174.8200  143.5380 O   0  0  0  0  0  0  0  0  0  0  0  0
  196.7610  176.6160  142.2280 C   0  0  0  0  0  2  0  0  0  0  0  0
  195.7290  173.6820  143.4470 N   0  0  0  0  0  2  0  0  0  0  0  0
  195.4850  172.6350  144.3460 N   0  0  0  0  0  0  0  0  0  0  0  0
  196.7960  171.3690  145.9750 C   0  0  0  0  0  2  0  0  0  0  0  0
  194.3060  171.3340  145.7260 C   0  0  0  0  0  3  0  0  0  0  0  0
  195.5900  170.5860  145.4810 C   0  0  1  0  0  3  0  0  0  0  0  0
  194.2740  172.4710  145.0550 C   0  0  0  0  0  3  0  0  0  0  0  0
  196.3640  171.4930  144.5230 C   0  0  1  0  0  3  0  0  0  0  0  0
  187.5520  176.8880  141.4680 O   0  0  0  0  0  0  0  0  0  0  0  0
  185.5010  179.2170  143.5610 C   0  0  0  0  0  3  0  0  0  0  0  0
  185.1130  178.3610  144.5130 C   0  0  0  0  0  0  0  0  0  0  0  0
  186.3000  176.4980  143.4710 C   0  0  0  0  0  3  0  0  0  0  0  0
  186.5440  178.8130  142.5550 C   0  0  0  0  0  2  0  0  0  0  0  0
  186.4230  177.3200  142.2160 C   0  0  1  0  0  3  0  0  0  0  0  0
  185.6460  176.9830  144.5320 C   0  0  0  0  0  3  0  0  0  0  0  0
  184.1590  177.8930  146.6190 O   0  0  0  0  0  1  0  0  0  0  0  0
  184.1530  178.8030  145.5620 C   0  0  0  0  0  2  0  0  0  0  0  0
  1  5  1  0  0  0  0
  2 13  1  0  0  0  0
  2 11  1  0  0  0  0
  3 16  1  0  0  0  0
  4  7  1  0  0  0  0
  5  9  2  0  0  0  0
  6  1  1  0  0  0  0
  7 11  2  0  0  0  0
  7  9  1  0  0  0  0
  8  4  1  0  0  0  0
  8  1  2  0  0  0  0
 10  3  2  0  0  0  0
 11 10  1  0  0  0  0
 12  2  2  0  0  0  0
 13 14  2  0  0  0  0
 14  3  1  0  0  0  0
 15 12  1  0  0  0  0
 15  4  2  0  0  0  0
 16 18  1  0  0  0  0
 16 17  1  1  0  0  0
 19 18  1  0  0  0  0
 19 20  2  0  0  0  0
 21 19  1  0  0  0  0
 22 21  1  6  0  0  0
 23 26  1  0  0  0  0
 24 22  1  0  0  0  0
 25 28  1  6  0  0  0
 25 22  1  0  0  0  0
 26 25  1  0  0  0  0
 27 23  1  0  0  0  0
 27 24  1  0  0  0  0
 28 29  1  0  0  0  0
 29 34  1  0  0  0  0
 29 33  1  0  0  0  0
 32 31  1  1  0  0  0
 32 30  1  0  0  0  0
 33 31  2  0  0  0  0
 34 32  1  0  0  0  0
 34 30  1  1  0  0  0
 35 13  1  0  0  0  0
 36 37  2  0  0  0  0
 37 41  1  0  0  0  0
 37 43  1  0  0  0  0
 38 41  2  0  0  0  0
 39 36  1  0  0  0  0
 40 35  1  1  0  0  0
 40 39  1  0  0  0  0
 40 38  1  0  0  0  0
 43 42  1  0  0  0  0
M  END
>  <MODEL>
7

>  <REMARK>
 VINA RESULT:      -7.4      2.975      7.768
  Name = 
  10 active torsions:
  status: ('A' for Active; 'I' for Inactive)
    1  A    between atoms: O_1  and  C_34
    2  A    between atoms: O_1  and  C_35
    3  A    between atoms: C_2  and  C_6
    4  A    between atoms: C_2  and  C_13
    5  A    between atoms: C_3  and  C_4
    6  A    between atoms: C_3  and  C_12
    7  A    between atoms: C_6  and  C_12
    8  A    between atoms: N_11  and  N_14
    9  A    between atoms: N_14  and  C_22
   10  A    between atoms: C_19  and  C_37
                            x       y       z     vdW  Elec       q    Type
                         _______ _______ _______ _____ _____    ______ ____

>  <TORSDO>
F 10

$$$$
=
 OpenBabel11052420563D

 43 49  0  0  1  0  0  0  0  0999 V2000
  195.7900  176.1650  143.2060 C   0  0  0  0  0  0  0  0  0  0  0  0
  191.0470  176.1020  144.9540 C   0  0  0  0  0  0  0  0  0  0  0  0
  189.4680  175.2990  142.8380 C   0  0  0  0  0  0  0  0  0  0  0  0
  193.8210  176.3350  144.6060 C   0  0  0  0  0  0  0  0  0  0  0  0
  194.9950  175.7650  142.1280 C   0  0  0  0  0  3  0  0  0  0  0  0
  197.2600  176.2930  143.0360 C   0  0  0  0  0  1  0  0  0  0  0  0
  193.0090  175.9290  143.5180 C   0  0  0  0  0  0  0  0  0  0  0  0
  195.2040  176.4500  144.4420 C   0  0  0  0  0  3  0  0  0  0  0  0
  193.6110  175.6470  142.2830 C   0  0  0  0  0  3  0  0  0  0  0  0
  190.8130  175.4240  142.6710 N   0  0  0  0  0  0  0  0  0  0  0  0
  191.6180  175.8140  143.6950 C   0  0  0  0  0  0  0  0  0  0  0  0
  191.8620  176.5040  146.0190 C   0  0  0  0  0  3  0  0  0  0  0  0
  189.6610  175.9760  145.1030 C   0  0  0  0  0  0  0  0  0  0  0  0
  188.9060  175.5770  144.0440 N   0  0  0  0  0  0  0  0  0  0  0  0
  193.2440  176.6190  145.8450 C   0  0  0  0  0  3  0  0  0  0  0  0
  188.5970  174.8730  141.7030 C   0  0  1  0  0  3  0  0  0  0  0  0
  187.7320  176.0360  141.2470 C   0  0  0  0  0  1  0  0  0  0  0  0
  189.4400  174.3480  140.5500 C   0  0  0  0  0  2  0  0  0  0  0  0
  189.3490  172.8600  140.4430 C   0  0  0  0  0  0  0  0  0  0  0  0
  188.4290  172.3420  139.8280 O   0  0  0  0  0  0  0  0  0  0  0  0
  190.3910  172.0090  141.0930 C   0  0  0  0  0  2  0  0  0  0  0  0
  191.7200  172.0990  140.3370 C   0  0  2  0  0  3  0  0  0  0  0  0
  193.1730  169.7580  139.7980 C   0  0  0  0  0  2  0  0  0  0  0  0
  191.6490  171.4990  139.0570 O   0  0  0  0  0  0  0  0  0  0  0  0
  192.9610  171.6320  141.1400 C   0  0  2  0  0  3  0  0  0  0  0  0
  193.8430  170.8920  140.3180 O   0  0  0  0  0  0  0  0  0  0  0  0
  191.7990  170.1050  139.2020 C   0  0  0  0  0  2  0  0  0  0  0  0
  192.6130  170.8810  142.3480 N   0  0  0  0  0  2  0  0  0  0  0  0
  193.1880  171.5420  143.4420 N   0  0  0  0  0  0  0  0  0  0  0  0
  195.3360  172.6040  143.9290 C   0  0  0  0  0  2  0  0  0  0  0  0
  193.2570  172.7570  145.3130 C   0  0  0  0  0  3  0  0  0  0  0  0
  194.6280  172.1430  145.1930 C   0  0  1  0  0  3  0  0  0  0  0  0
  192.4700  172.3800  144.3240 C   0  0  0  0  0  3  0  0  0  0  0  0
  194.5420  171.3080  143.9140 C   0  0  1  0  0  3  0  0  0  0  0  0
  189.0590  176.2590  146.3350 O   0  0  0  0  0  0  0  0  0  0  0  0
  185.4680  177.2190  146.7750 C   0  0  0  0  0  3  0  0  0  0  0  0
  185.3650  178.1160  145.7870 C   0  0  0  0  0  0  0  0  0  0  0  0
  187.7050  177.8360  145.1470 C   0  0  0  0  0  3  0  0  0  0  0  0
  186.6970  176.3610  146.8980 C   0  0  0  0  0  2  0  0  0  0  0  0
  187.9470  177.1370  146.4570 C   0  0  1  0  0  3  0  0  0  0  0  0
  186.4950  178.3280  144.8590 C   0  0  0  0  0  3  0  0  0  0  0  0
  183.8260  179.0420  144.2580 O   0  0  0  0  0  1  0  0  0  0  0  0
  184.1050  178.8900  145.6160 C   0  0  0  0  0  2  0  0  0  0  0  0
  1  8  1  0  0  0  0
  2 13  1  0  0  0  0
  2 12  1  0  0  0  0
  3 14  1  0  0  0  0
  4 15  1  0  0  0  0
  5  9  1  0  0  0  0
  5  1  2  0  0  0  0
  6  1  1  0  0  0  0
  7 11  1  0  0  0  0
  7  4  1  0  0  0  0
  8  4  2  0  0  0  0
  9  7  2  0  0  0  0
 10  3  2  0  0  0  0
 10 11  1  0  0  0  0
 11  2  2  0  0  0  0
 13 35  1  0  0  0  0
 14 13  2  0  0  0  0
 15 12  2  0  0  0  0
 16 17  1  6  0  0  0
 16  3  1  0  0  0  0
 18 16  1  0  0  0  0
 19 18  1  0  0  0  0
 19 21  1  0  0  0  0
 20 19  2  0  0  0  0
 22 21  1  1  0  0  0
 22 25  1  0  0  0  0
 23 26  1  0  0  0  0
 24 27  1  0  0  0  0
 24 22  1  0  0  0  0
 25 28  1  1  0  0  0
 26 25  1  0  0  0  0
 27 23  1  0  0  0  0
 28 29  1  0  0  0  0
 29 34  1  0  0  0  0
 29 33  1  0  0  0  0
 32 30  1  6  0  0  0
 32 31  1  0  0  0  0
 33 31  2  0  0  0  0
 34 30  1  6  0  0  0
 34 32  1  0  0  0  0
 36 39  1  0  0  0  0
 37 36  2  0  0  0  0
 38 40  1  0  0  0  0
 40 35  1  6  0  0  0
 40 39  1  0  0  0  0
 41 38  2  0  0  0  0
 41 37  1  0  0  0  0
 42 43  1  0  0  0  0
 43 37  1  0  0  0  0
M  END
>  <MODEL>
8

>  <REMARK>
 VINA RESULT:      -7.4      2.371      7.212
  Name = 
  10 active torsions:
  status: ('A' for Active; 'I' for Inactive)
    1  A    between atoms: O_1  and  C_34
    2  A    between atoms: O_1  and  C_35
    3  A    between atoms: C_2  and  C_6
    4  A    between atoms: C_2  and  C_13
    5  A    between atoms: C_3  and  C_4
    6  A    between atoms: C_3  and  C_12
    7  A    between atoms: C_6  and  C_12
    8  A    between atoms: N_11  and  N_14
    9  A    between atoms: N_14  and  C_22
   10  A    between atoms: C_19  and  C_37
                            x       y       z     vdW  Elec       q    Type
                         _______ _______ _______ _____ _____    ______ ____

>  <TORSDO>
F 10

$$$$
=
 OpenBabel11052420563D

 43 49  0  0  1  0  0  0  0  0999 V2000
  185.2650  178.4410  144.5730 C   0  0  0  0  0  0  0  0  0  0  0  0
  189.4360  175.7150  145.4290 C   0  0  0  0  0  0  0  0  0  0  0  0
  189.6100  173.9170  143.3440 C   0  0  0  0  0  0  0  0  0  0  0  0
  187.3010  177.5320  145.5220 C   0  0  0  0  0  0  0  0  0  0  0  0
  185.3430  177.5270  143.5180 C   0  0  0  0  0  3  0  0  0  0  0  0
  184.1400  179.4080  144.6350 C   0  0  0  0  0  1  0  0  0  0  0  0
  187.3860  176.6030  144.4550 C   0  0  0  0  0  0  0  0  0  0  0  0
  186.2420  178.4430  145.5730 C   0  0  0  0  0  3  0  0  0  0  0  0
  186.3990  176.6130  143.4580 C   0  0  0  0  0  3  0  0  0  0  0  0
  188.5690  174.7920  143.3980 N   0  0  0  0  0  0  0  0  0  0  0  0
  188.4580  175.6930  144.4110 C   0  0  0  0  0  0  0  0  0  0  0  0
  189.3370  176.6370  146.4780 C   0  0  0  0  0  3  0  0  0  0  0  0
  190.4940  174.8010  145.3590 C   0  0  0  0  0  0  0  0  0  0  0  0
  190.5550  173.9260  144.3190 N   0  0  0  0  0  0  0  0  0  0  0  0
  188.2730  177.5420  146.5230 C   0  0  0  0  0  3  0  0  0  0  0  0
  189.7160  172.9310  142.2270 C   0  0  1  0  0  3  0  0  0  0  0  0
  190.1250  171.5730  142.7710 C   0  0  0  0  0  1  0  0  0  0  0  0
  188.3970  172.8320  141.4740 C   0  0  0  0  0  2  0  0  0  0  0  0
  188.5050  173.4250  140.1060 C   0  0  0  0  0  0  0  0  0  0  0  0
  188.2140  174.5970  139.9190 O   0  0  0  0  0  0  0  0  0  0  0  0
  188.9710  172.5760  138.9700 C   0  0  0  0  0  2  0  0  0  0  0  0
  189.8130  173.3940  137.9860 C   0  0  2  0  0  3  0  0  0  0  0  0
  191.6110  172.0850  136.2720 C   0  0  0  0  0  2  0  0  0  0  0  0
  189.4550  173.1440  136.6400 O   0  0  0  0  0  0  0  0  0  0  0  0
  191.3450  173.3170  138.2140 C   0  0  2  0  0  3  0  0  0  0  0  0
  192.0340  173.2360  136.9810 O   0  0  0  0  0  0  0  0  0  0  0  0
  190.0810  171.9520  136.2200 C   0  0  0  0  0  2  0  0  0  0  0  0
  191.7370  172.2250  139.1080 N   0  0  0  0  0  2  0  0  0  0  0  0
  192.6280  172.7480  140.0550 N   0  0  0  0  0  0  0  0  0  0  0  0
  192.7070  174.7170  141.5010 C   0  0  0  0  0  2  0  0  0  0  0  0
  194.2200  172.7280  141.6200 C   0  0  0  0  0  3  0  0  0  0  0  0
  194.0940  174.1710  141.2060 C   0  0  1  0  0  3  0  0  0  0  0  0
  193.3950  171.9550  140.9380 C   0  0  0  0  0  3  0  0  0  0  0  0
  193.0110  174.1470  140.1260 C   0  0  1  0  0  3  0  0  0  0  0  0
  191.4790  174.7900  146.3540 O   0  0  0  0  0  0  0  0  0  0  0  0
  194.3120  176.3970  144.5100 C   0  0  0  0  0  3  0  0  0  0  0  0
  195.1730  175.3740  144.5090 C   0  0  0  0  0  0  0  0  0  0  0  0
  193.6340  173.9400  145.7510 C   0  0  0  0  0  3  0  0  0  0  0  0
  192.8920  176.1960  144.9650 C   0  0  0  0  0  2  0  0  0  0  0  0
  192.8270  175.1620  146.0980 C   0  0  1  0  0  3  0  0  0  0  0  0
  194.7590  174.0570  145.0360 C   0  0  0  0  0  3  0  0  0  0  0  0
  196.6350  176.7910  143.3180 O   0  0  0  0  0  1  0  0  0  0  0  0
  196.5470  175.5590  143.9650 C   0  0  0  0  0  2  0  0  0  0  0  0
  1  6  1  0  0  0  0
  1  8  1  0  0  0  0
  2 12  1  0  0  0  0
  3 10  2  0  0  0  0
  3 14  1  0  0  0  0
  4  8  2  0  0  0  0
  4 15  1  0  0  0  0
  5  1  2  0  0  0  0
  7  4  1  0  0  0  0
  9  5  1  0  0  0  0
  9  7  2  0  0  0  0
 10 11  1  0  0  0  0
 11  7  1  0  0  0  0
 11  2  2  0  0  0  0
 12 15  2  0  0  0  0
 13  2  1  0  0  0  0
 13 35  1  0  0  0  0
 14 13  2  0  0  0  0
 16 17  1  1  0  0  0
 16  3  1  0  0  0  0
 18 16  1  0  0  0  0
 19 18  1  0  0  0  0
 20 19  2  0  0  0  0
 21 19  1  0  0  0  0
 22 25  1  0  0  0  0
 22 21  1  1  0  0  0
 23 26  1  0  0  0  0
 24 22  1  0  0  0  0
 25 28  1  1  0  0  0
 26 25  1  0  0  0  0
 27 23  1  0  0  0  0
 27 24  1  0  0  0  0
 28 29  1  0  0  0  0
 29 34  1  0  0  0  0
 29 33  1  0  0  0  0
 32 30  1  1  0  0  0
 32 31  1  0  0  0  0
 33 31  2  0  0  0  0
 34 32  1  0  0  0  0
 34 30  1  1  0  0  0
 36 39  1  0  0  0  0
 37 36  2  0  0  0  0
 37 41  1  0  0  0  0
 38 40  1  0  0  0  0
 39 40  1  0  0  0  0
 40 35  1  6  0  0  0
 41 38  2  0  0  0  0
 42 43  1  0  0  0  0
 43 37  1  0  0  0  0
M  END
>  <MODEL>
9

>  <REMARK>
 VINA RESULT:      -7.3      2.465      8.286
  Name = 
  10 active torsions:
  status: ('A' for Active; 'I' for Inactive)
    1  A    between atoms: O_1  and  C_34
    2  A    between atoms: O_1  and  C_35
    3  A    between atoms: C_2  and  C_6
    4  A    between atoms: C_2  and  C_13
    5  A    between atoms: C_3  and  C_4
    6  A    between atoms: C_3  and  C_12
    7  A    between atoms: C_6  and  C_12
    8  A    between atoms: N_11  and  N_14
    9  A    between atoms: N_14  and  C_22
   10  A    between atoms: C_19  and  C_37
                            x       y       z     vdW  Elec       q    Type
                         _______ _______ _______ _____ _____    ______ ____

>  <TORSDO>
F 10

$$$$
