=
 OpenBabel11052419043D

 32 34  0  0  1  0  0  0  0  0999 V2000
  189.1650  175.1720  144.4360 C   0  0  1  0  0  3  0  0  0  0  0  0
  189.0830  177.4400  143.8170 C   0  0  1  0  0  3  0  0  0  0  0  0
  189.8510  174.1970  145.3950 C   0  0  0  0  0  2  0  0  0  0  0  0
  189.2350  176.5330  145.0160 C   0  0  1  0  0  3  0  0  0  0  0  0
  189.6750  176.7670  142.7230 O   0  0  0  0  0  0  0  0  0  0  0  0
  188.3460  176.6460  146.2610 C   0  0  2  0  0  3  0  0  0  0  0  0
  188.7240  175.5280  147.2180 C   0  0  0  0  0  3  0  0  0  0  0  0
  188.7040  174.7060  142.0710 C   0  0  0  0  0  1  0  0  0  0  0  0
  189.6950  175.3770  143.0110 C   0  0  2  0  0  0  0  0  0  0  0  0
  189.3620  174.4050  146.8180 C   0  0  0  0  0  3  0  0  0  0  0  0
  191.0990  174.7730  142.7160 C   0  0  2  0  0  3  0  0  0  0  0  0
  191.1600  173.4470  143.1620 O   0  0  0  0  0  1  0  0  0  0  0  0
  192.3950  175.5770  143.0880 C   0  0  2  0  0  0  0  0  0  0  0  0
  192.2740  176.8960  142.6400 O   0  0  0  0  0  1  0  0  0  0  0  0
  193.6520  174.9420  142.4180 C   0  0  1  0  0  3  0  0  0  0  0  0
  194.5700  175.9390  141.7310 C   0  0  0  0  0  1  0  0  0  0  0  0
  194.3990  174.2260  143.3540 O   0  0  0  0  0  1  0  0  0  0  0  0
  192.5580  175.6390  144.5030 O   0  0  0  0  0  0  0  0  0  0  0  0
  192.8780  176.9510  144.9170 C   0  0  0  0  0  2  0  0  0  0  0  0
  194.1860  176.9770  145.4010 O   0  0  0  0  0  1  0  0  0  0  0  0
  187.7420  177.7020  143.5250 O   0  0  0  0  0  0  0  0  0  0  0  0
  187.7520  178.2500  142.2430 C   0  0  0  0  0  2  0  0  0  0  0  0
  183.5360  178.2720  141.5150 C   0  0  0  0  0  2  0  0  0  0  0  0
  185.8110  177.5960  141.0020 O   0  0  0  0  0  0  0  0  0  0  0  0
  186.3400  178.6120  141.8220 C   0  0  1  0  0  3  0  0  0  0  0  0
  185.4570  178.8470  143.0630 C   0  0  0  0  0  2  0  0  0  0  0  0
  184.6290  178.1210  140.4470 C   0  0  0  0  0  2  0  0  0  0  0  0
  184.1000  178.1530  142.9340 C   0  0  0  0  0  2  0  0  0  0  0  0
  186.8590  176.5280  145.9210 C   0  0  0  0  0  2  0  0  0  0  0  0
  184.9690  177.8480  146.7040 C   0  0  0  0  0  0  0  0  0  0  0  0
  185.9950  177.0970  146.9970 C   0  0  0  0  0  3  0  0  0  0  0  0
  184.0040  178.5660  146.4180 O   0  0  0  0  0  0  0  0  0  0  0  0
  1  4  1  0  0  0  0
  1  3  1  1  0  0  0
  2 21  1  6  0  0  0
  2  4  1  0  0  0  0
  3 10  1  0  0  0  0
  4  6  1  0  0  0  0
  5  9  1  0  0  0  0
  5  2  1  0  0  0  0
  6  7  1  0  0  0  0
  8  9  1  0  0  0  0
  9  1  1  0  0  0  0
 10  7  2  0  0  0  0
 11  9  1  0  0  0  0
 11 13  1  0  0  0  0
 11 12  1  0  0  0  0
 13 18  1  0  0  0  0
 14 13  1  0  0  0  0
 15 13  1  0  0  0  0
 15 17  1  0  0  0  0
 16 15  1  0  0  0  0
 18 19  1  0  0  0  0
 19 20  1  0  0  0  0
 22 21  1  0  0  0  0
 23 28  1  0  0  0  0
 24 25  1  0  0  0  0
 25 22  1  0  0  0  0
 25 26  1  0  0  0  0
 27 24  1  0  0  0  0
 27 23  1  0  0  0  0
 28 26  1  0  0  0  0
 29  6  1  0  0  0  0
 29 31  1  0  0  0  0
 30 31  2  0  0  0  0
 32 30  2  0  0  0  0
M  END
>  <MODEL>
1

>  <REMARK>
 VINA RESULT:      -7.0      0.000      0.000
  Name = 
  10 active torsions:
  status: ('A' for Active; 'I' for Inactive)
    1  A    between atoms: C_2  and  O_6
    2  A    between atoms: C_3  and  C_22
    3  A    between atoms: O_6  and  C_17
    4  A    between atoms: C_7  and  O_15
    5  A    between atoms: C_12  and  C_17
    6  A    between atoms: C_14  and  C_29
    7  A    between atoms: O_15  and  C_22
    8  A    between atoms: C_16  and  C_22
    9  A    between atoms: C_16  and  C_27
   10  A    between atoms: C_18  and  C_29
                            x       y       z     vdW  Elec       q    Type
                         _______ _______ _______ _____ _____    ______ ____

>  <TORSDO>
F 10

$$$$
=
 OpenBabel11052419043D

 32 34  0  0  1  0  0  0  0  0999 V2000
  190.3820  175.6380  142.9350 C   0  0  1  0  0  3  0  0  0  0  0  0
  189.4300  175.7690  145.0820 C   0  0  1  0  0  3  0  0  0  0  0  0
  190.7250  174.6530  141.8140 C   0  0  0  0  0  2  0  0  0  0  0  0
  189.2940  175.0590  143.7560 C   0  0  1  0  0  3  0  0  0  0  0  0
  190.8080  176.0350  145.2580 O   0  0  0  0  0  0  0  0  0  0  0  0
  187.9770  175.0140  142.9700 C   0  0  2  0  0  3  0  0  0  0  0  0
  188.2320  174.2940  141.6560 C   0  0  0  0  0  3  0  0  0  0  0  0
  191.8420  177.4650  143.6770 C   0  0  0  0  0  1  0  0  0  0  0  0
  191.4310  176.0320  143.9830 C   0  0  2  0  0  0  0  0  0  0  0  0
  189.4650  174.1720  141.1140 C   0  0  0  0  0  3  0  0  0  0  0  0
  192.7260  175.1700  144.0030 C   0  0  2  0  0  3  0  0  0  0  0  0
  192.5040  173.9760  144.7000 O   0  0  0  0  0  1  0  0  0  0  0  0
  194.1010  175.8250  144.3850 C   0  0  2  0  0  0  0  0  0  0  0  0
  194.9880  174.8340  144.8180 O   0  0  0  0  0  1  0  0  0  0  0  0
  193.9200  176.8620  145.5360 C   0  0  1  0  0  3  0  0  0  0  0  0
  193.8610  176.2540  146.9280 C   0  0  0  0  0  1  0  0  0  0  0  0
  194.9450  177.8080  145.5100 O   0  0  0  0  0  1  0  0  0  0  0  0
  194.6980  176.4390  143.2460 O   0  0  0  0  0  0  0  0  0  0  0  0
  195.9470  175.8500  142.9520 C   0  0  0  0  0  2  0  0  0  0  0  0
  196.9500  176.8140  143.0530 O   0  0  0  0  0  1  0  0  0  0  0  0
  188.7230  176.9750  145.1060 O   0  0  0  0  0  0  0  0  0  0  0  0
  188.5820  177.2830  146.4580 C   0  0  0  0  0  2  0  0  0  0  0  0
  184.4240  178.2790  146.3010 C   0  0  0  0  0  2  0  0  0  0  0  0
  186.7250  178.4960  145.5550 O   0  0  0  0  0  0  0  0  0  0  0  0
  187.2030  177.8610  146.7180 C   0  0  1  0  0  3  0  0  0  0  0  0
  186.2410  176.7530  147.1880 C   0  0  0  0  0  2  0  0  0  0  0  0
  185.5840  179.2200  145.9490 C   0  0  0  0  0  2  0  0  0  0  0  0
  184.8920  176.8310  146.4710 C   0  0  0  0  0  2  0  0  0  0  0  0
  187.4340  176.4130  142.6730 C   0  0  0  0  0  2  0  0  0  0  0  0
  185.2830  177.5490  142.5550 C   0  0  0  0  0  0  0  0  0  0  0  0
  185.9710  176.5140  142.9520 C   0  0  0  0  0  3  0  0  0  0  0  0
  184.6410  178.5380  142.1820 O   0  0  0  0  0  0  0  0  0  0  0  0
  1  3  1  6  0  0  0
  1  4  1  0  0  0  0
  1  9  1  0  0  0  0
  2 21  1  6  0  0  0
  2  5  1  0  0  0  0
  4  2  1  0  0  0  0
  6  4  1  0  0  0  0
  7  6  1  0  0  0  0
  8  9  1  0  0  0  0
  9 11  1  0  0  0  0
  9  5  1  0  0  0  0
 10  7  2  0  0  0  0
 10  3  1  0  0  0  0
 11 13  1  0  0  0  0
 11 12  1  0  0  0  0
 13 14  1  0  0  0  0
 13 15  1  0  0  0  0
 15 16  1  0  0  0  0
 17 15  1  0  0  0  0
 18 13  1  0  0  0  0
 19 20  1  0  0  0  0
 19 18  1  0  0  0  0
 21 22  1  0  0  0  0
 22 25  1  0  0  0  0
 23 28  1  0  0  0  0
 24 27  1  0  0  0  0
 24 25  1  0  0  0  0
 25 26  1  0  0  0  0
 27 23  1  0  0  0  0
 28 26  1  0  0  0  0
 29 31  1  0  0  0  0
 29  6  1  0  0  0  0
 30 31  2  0  0  0  0
 32 30  2  0  0  0  0
M  END
>  <MODEL>
2

>  <REMARK>
 VINA RESULT:      -6.7      1.698      3.906
  Name = 
  10 active torsions:
  status: ('A' for Active; 'I' for Inactive)
    1  A    between atoms: C_2  and  O_6
    2  A    between atoms: C_3  and  C_22
    3  A    between atoms: O_6  and  C_17
    4  A    between atoms: C_7  and  O_15
    5  A    between atoms: C_12  and  C_17
    6  A    between atoms: C_14  and  C_29
    7  A    between atoms: O_15  and  C_22
    8  A    between atoms: C_16  and  C_22
    9  A    between atoms: C_16  and  C_27
   10  A    between atoms: C_18  and  C_29
                            x       y       z     vdW  Elec       q    Type
                         _______ _______ _______ _____ _____    ______ ____

>  <TORSDO>
F 10

$$$$
=
 OpenBabel11052419043D

 32 34  0  0  1  0  0  0  0  0999 V2000
  187.5330  177.0780  141.8490 C   0  0  1  0  0  3  0  0  0  0  0  0
  187.1060  176.2610  144.0130 C   0  0  1  0  0  3  0  0  0  0  0  0
  187.0120  177.0440  140.4110 C   0  0  0  0  0  2  0  0  0  0  0  0
  186.4140  176.7570  142.7650 C   0  0  1  0  0  3  0  0  0  0  0  0
  188.2920  175.6180  143.5900 O   0  0  0  0  0  0  0  0  0  0  0  0
  185.3780  177.8880  142.7840 C   0  0  2  0  0  3  0  0  0  0  0  0
  184.9620  178.1760  141.3510 C   0  0  0  0  0  3  0  0  0  0  0  0
  189.9020  176.9520  142.4740 C   0  0  0  0  0  1  0  0  0  0  0  0
  188.6400  176.1190  142.3080 C   0  0  2  0  0  0  0  0  0  0  0  0
  185.7210  177.8350  140.2850 C   0  0  0  0  0  3  0  0  0  0  0  0
  188.9740  174.9550  141.3320 C   0  0  2  0  0  3  0  0  0  0  0  0
  187.8660  174.1120  141.1830 O   0  0  0  0  0  1  0  0  0  0  0  0
  190.3070  174.1440  141.5030 C   0  0  2  0  0  0  0  0  0  0  0  0
  191.3460  175.0160  141.8480 O   0  0  0  0  0  1  0  0  0  0  0  0
  190.6910  173.4220  140.1750 C   0  0  1  0  0  3  0  0  0  0  0  0
  192.1410  173.6020  139.7560 C   0  0  0  0  0  1  0  0  0  0  0  0
  190.4240  172.0550  140.2640 O   0  0  0  0  0  1  0  0  0  0  0  0
  190.1910  173.2050  142.5690 O   0  0  0  0  0  0  0  0  0  0  0  0
  191.2010  173.4100  143.5350 C   0  0  0  0  0  2  0  0  0  0  0  0
  190.7050  173.0890  144.7980 O   0  0  0  0  0  1  0  0  0  0  0  0
  187.4340  177.3060  144.8810 O   0  0  0  0  0  0  0  0  0  0  0  0
  187.2570  176.7820  146.1610 C   0  0  0  0  0  2  0  0  0  0  0  0
  191.3170  175.7750  147.0610 C   0  0  0  0  0  2  0  0  0  0  0  0
  188.9670  175.2260  146.7840 O   0  0  0  0  0  0  0  0  0  0  0  0
  188.6040  176.5860  146.8330 C   0  0  1  0  0  3  0  0  0  0  0  0
  189.6680  177.4760  146.1630 C   0  0  0  0  0  2  0  0  0  0  0  0
  190.0730  175.0880  147.6440 C   0  0  0  0  0  2  0  0  0  0  0  0
  190.9650  176.7080  145.8990 C   0  0  0  0  0  2  0  0  0  0  0  0
  185.9340  179.1700  143.4070 C   0  0  0  0  0  2  0  0  0  0  0  0
  184.4210  179.0300  145.3100 C   0  0  0  0  0  0  0  0  0  0  0  0
  184.9850  179.7670  144.3930 C   0  0  0  0  0  3  0  0  0  0  0  0
  183.8850  178.3230  146.1700 O   0  0  0  0  0  0  0  0  0  0  0  0
  1  3  1  6  0  0  0
  1  9  1  0  0  0  0
  1  4  1  0  0  0  0
  2 21  1  1  0  0  0
  4  6  1  0  0  0  0
  4  2  1  0  0  0  0
  5  2  1  0  0  0  0
  6 29  1  0  0  0  0
  7  6  1  0  0  0  0
  9  8  1  0  0  0  0
  9  5  1  0  0  0  0
 10  3  1  0  0  0  0
 10  7  2  0  0  0  0
 11 13  1  0  0  0  0
 11  9  1  0  0  0  0
 12 11  1  0  0  0  0
 13 14  1  0  0  0  0
 13 18  1  0  0  0  0
 15 17  1  0  0  0  0
 15 13  1  0  0  0  0
 16 15  1  0  0  0  0
 18 19  1  0  0  0  0
 19 20  1  0  0  0  0
 21 22  1  0  0  0  0
 22 25  1  0  0  0  0
 23 27  1  0  0  0  0
 24 25  1  0  0  0  0
 24 27  1  0  0  0  0
 26 25  1  0  0  0  0
 28 26  1  0  0  0  0
 28 23  1  0  0  0  0
 29 31  1  0  0  0  0
 30 32  2  0  0  0  0
 31 30  2  0  0  0  0
M  END
>  <MODEL>
3

>  <REMARK>
 VINA RESULT:      -6.7      2.173      4.999
  Name = 
  10 active torsions:
  status: ('A' for Active; 'I' for Inactive)
    1  A    between atoms: C_2  and  O_6
    2  A    between atoms: C_3  and  C_22
    3  A    between atoms: O_6  and  C_17
    4  A    between atoms: C_7  and  O_15
    5  A    between atoms: C_12  and  C_17
    6  A    between atoms: C_14  and  C_29
    7  A    between atoms: O_15  and  C_22
    8  A    between atoms: C_16  and  C_22
    9  A    between atoms: C_16  and  C_27
   10  A    between atoms: C_18  and  C_29
                            x       y       z     vdW  Elec       q    Type
                         _______ _______ _______ _____ _____    ______ ____

>  <TORSDO>
F 10

$$$$
=
 OpenBabel11052419043D

 32 34  0  0  1  0  0  0  0  0999 V2000
  188.7910  176.4540  145.0260 C   0  0  1  0  0  3  0  0  0  0  0  0
  190.3090  175.3360  143.6190 C   0  0  1  0  0  3  0  0  0  0  0  0
  187.6200  176.2190  145.9830 C   0  0  0  0  0  2  0  0  0  0  0  0
  189.5880  175.2080  144.9400 C   0  0  1  0  0  3  0  0  0  0  0  0
  189.4500  176.0580  142.7580 O   0  0  0  0  0  0  0  0  0  0  0  0
  190.3170  174.9300  146.2610 C   0  0  2  0  0  3  0  0  0  0  0  0
  189.2920  174.9520  147.3840 C   0  0  0  0  0  3  0  0  0  0  0  0
  188.9070  178.2760  143.3880 C   0  0  0  0  0  1  0  0  0  0  0  0
  188.5460  176.8080  143.5540 C   0  0  2  0  0  0  0  0  0  0  0  0
  188.0960  175.5720  147.2720 C   0  0  0  0  0  3  0  0  0  0  0  0
  187.0860  176.6270  143.0480 C   0  0  2  0  0  3  0  0  0  0  0  0
  187.0570  175.7650  141.9450 O   0  0  0  0  0  1  0  0  0  0  0  0
  186.1660  177.8810  142.8350 C   0  0  2  0  0  0  0  0  0  0  0  0
  186.8630  178.8570  142.1150 O   0  0  0  0  0  1  0  0  0  0  0  0
  185.7350  178.4920  144.2040 C   0  0  1  0  0  3  0  0  0  0  0  0
  185.5650  180.0020  144.1940 C   0  0  0  0  0  1  0  0  0  0  0  0
  184.5450  177.9160  144.6460 O   0  0  0  0  0  1  0  0  0  0  0  0
  185.0220  177.5390  142.0570 O   0  0  0  0  0  0  0  0  0  0  0  0
  184.9430  178.3380  140.8960 C   0  0  0  0  0  2  0  0  0  0  0  0
  185.1420  177.5400  139.7700 O   0  0  0  0  0  1  0  0  0  0  0  0
  191.5180  176.0260  143.7470 O   0  0  0  0  0  0  0  0  0  0  0  0
  192.3850  175.4030  142.8510 C   0  0  0  0  0  2  0  0  0  0  0  0
  195.5830  174.9160  145.6520 C   0  0  0  0  0  2  0  0  0  0  0  0
  194.0760  176.2680  144.3100 O   0  0  0  0  0  0  0  0  0  0  0  0
  193.7300  175.1600  143.5120 C   0  0  1  0  0  3  0  0  0  0  0  0
  193.6880  173.8620  144.3420 C   0  0  0  0  0  2  0  0  0  0  0  0
  195.4250  176.0830  144.6670 C   0  0  0  0  0  2  0  0  0  0  0  0
  194.3210  174.0510  145.7220 C   0  0  0  0  0  2  0  0  0  0  0  0
  191.3980  175.9720  146.5540 C   0  0  0  0  0  2  0  0  0  0  0  0
  191.5660  177.1660  148.6700 C   0  0  0  0  0  0  0  0  0  0  0  0
  191.7160  176.0500  148.0110 C   0  0  0  0  0  3  0  0  0  0  0  0
  191.4280  178.2300  149.2840 O   0  0  0  0  0  0  0  0  0  0  0  0
  1  3  1  1  0  0  0
  2 21  1  1  0  0  0
  2  4  1  0  0  0  0
  3 10  1  0  0  0  0
  4  1  1  0  0  0  0
  4  6  1  0  0  0  0
  5  9  1  0  0  0  0
  5  2  1  0  0  0  0
  6 29  1  0  0  0  0
  6  7  1  0  0  0  0
  8  9  1  0  0  0  0
  9  1  1  0  0  0  0
 10  7  2  0  0  0  0
 11  9  1  0  0  0  0
 12 11  1  0  0  0  0
 13 11  1  0  0  0  0
 13 15  1  0  0  0  0
 14 13  1  0  0  0  0
 15 17  1  0  0  0  0
 16 15  1  0  0  0  0
 18 13  1  0  0  0  0
 19 18  1  0  0  0  0
 20 19  1  0  0  0  0
 22 25  1  0  0  0  0
 22 21  1  0  0  0  0
 23 28  1  0  0  0  0
 24 27  1  0  0  0  0
 25 24  1  0  0  0  0
 25 26  1  0  0  0  0
 26 28  1  0  0  0  0
 27 23  1  0  0  0  0
 29 31  1  0  0  0  0
 30 32  2  0  0  0  0
 31 30  2  0  0  0  0
M  END
>  <MODEL>
4

>  <REMARK>
 VINA RESULT:      -6.5      1.989      7.128
  Name = 
  10 active torsions:
  status: ('A' for Active; 'I' for Inactive)
    1  A    between atoms: C_2  and  O_6
    2  A    between atoms: C_3  and  C_22
    3  A    between atoms: O_6  and  C_17
    4  A    between atoms: C_7  and  O_15
    5  A    between atoms: C_12  and  C_17
    6  A    between atoms: C_14  and  C_29
    7  A    between atoms: O_15  and  C_22
    8  A    between atoms: C_16  and  C_22
    9  A    between atoms: C_16  and  C_27
   10  A    between atoms: C_18  and  C_29
                            x       y       z     vdW  Elec       q    Type
                         _______ _______ _______ _____ _____    ______ ____

>  <TORSDO>
F 10

$$$$
=
 OpenBabel11052419043D

 32 34  0  0  1  0  0  0  0  0999 V2000
  189.1010  175.1320  144.4800 C   0  0  1  0  0  3  0  0  0  0  0  0
  189.2230  177.3710  143.7680 C   0  0  1  0  0  3  0  0  0  0  0  0
  189.7270  174.1280  145.4510 C   0  0  0  0  0  2  0  0  0  0  0  0
  189.3370  176.5000  144.9970 C   0  0  1  0  0  3  0  0  0  0  0  0
  189.6920  176.5980  142.6800 O   0  0  0  0  0  0  0  0  0  0  0  0
  188.5220  176.7530  146.2720 C   0  0  2  0  0  3  0  0  0  0  0  0
  188.8270  175.6400  147.2600 C   0  0  0  0  0  3  0  0  0  0  0  0
  188.4860  174.6260  142.1590 C   0  0  0  0  0  1  0  0  0  0  0  0
  189.5830  175.2260  143.0260 C   0  0  2  0  0  0  0  0  0  0  0  0
  189.3270  174.4420  146.8830 C   0  0  0  0  0  3  0  0  0  0  0  0
  190.9020  174.4680  142.7000 C   0  0  2  0  0  3  0  0  0  0  0  0
  191.7900  175.3100  142.0200 O   0  0  0  0  0  1  0  0  0  0  0  0
  190.8490  173.0350  142.0620 C   0  0  2  0  0  0  0  0  0  0  0  0
  189.7000  172.3690  142.5000 O   0  0  0  0  0  1  0  0  0  0  0  0
  192.0950  172.1950  142.4800 C   0  0  1  0  0  3  0  0  0  0  0  0
  191.7760  170.7820  142.9420 C   0  0  0  0  0  1  0  0  0  0  0  0
  193.0110  172.1200  141.4310 O   0  0  0  0  0  1  0  0  0  0  0  0
  190.7560  173.1210  140.6420 O   0  0  0  0  0  0  0  0  0  0  0  0
  189.8580  172.1550  140.1360 C   0  0  0  0  0  2  0  0  0  0  0  0
  190.5340  171.3090  139.2570 O   0  0  0  0  0  1  0  0  0  0  0  0
  187.9030  177.7590  143.5210 O   0  0  0  0  0  0  0  0  0  0  0  0
  187.8860  178.1480  142.1820 C   0  0  0  0  0  2  0  0  0  0  0  0
  183.6620  178.2560  141.5080 C   0  0  0  0  0  2  0  0  0  0  0  0
  185.9150  177.5150  140.9800 O   0  0  0  0  0  0  0  0  0  0  0  0
  186.4780  178.5350  141.7710 C   0  0  1  0  0  3  0  0  0  0  0  0
  185.6180  178.8180  143.0180 C   0  0  0  0  0  2  0  0  0  0  0  0
  184.7370  178.0550  140.4300 C   0  0  0  0  0  2  0  0  0  0  0  0
  184.2430  178.1530  142.9220 C   0  0  0  0  0  2  0  0  0  0  0  0
  187.0160  176.7770  146.0000 C   0  0  0  0  0  2  0  0  0  0  0  0
  185.0900  178.1270  146.6320 C   0  0  0  0  0  0  0  0  0  0  0  0
  186.3020  177.7270  146.9030 C   0  0  0  0  0  3  0  0  0  0  0  0
  183.9450  178.5060  146.3620 O   0  0  0  0  0  0  0  0  0  0  0  0
  1  4  1  0  0  0  0
  1  3  1  1  0  0  0
  2 21  1  6  0  0  0
  2  4  1  0  0  0  0
  3 10  1  0  0  0  0
  4  6  1  0  0  0  0
  5  9  1  0  0  0  0
  5  2  1  0  0  0  0
  6  7  1  0  0  0  0
  8  9  1  0  0  0  0
  9  1  1  0  0  0  0
 10  7  2  0  0  0  0
 11  9  1  0  0  0  0
 12 11  1  0  0  0  0
 13 15  1  0  0  0  0
 13 14  1  0  0  0  0
 13 11  1  0  0  0  0
 15 16  1  0  0  0  0
 17 15  1  0  0  0  0
 18 13  1  0  0  0  0
 19 18  1  0  0  0  0
 20 19  1  0  0  0  0
 22 21  1  0  0  0  0
 23 28  1  0  0  0  0
 24 25  1  0  0  0  0
 25 22  1  0  0  0  0
 25 26  1  0  0  0  0
 27 24  1  0  0  0  0
 27 23  1  0  0  0  0
 28 26  1  0  0  0  0
 29  6  1  0  0  0  0
 29 31  1  0  0  0  0
 30 31  2  0  0  0  0
 32 30  2  0  0  0  0
M  END
>  <MODEL>
5

>  <REMARK>
 VINA RESULT:      -6.5      1.635      2.862
  Name = 
  10 active torsions:
  status: ('A' for Active; 'I' for Inactive)
    1  A    between atoms: C_2  and  O_6
    2  A    between atoms: C_3  and  C_22
    3  A    between atoms: O_6  and  C_17
    4  A    between atoms: C_7  and  O_15
    5  A    between atoms: C_12  and  C_17
    6  A    between atoms: C_14  and  C_29
    7  A    between atoms: O_15  and  C_22
    8  A    between atoms: C_16  and  C_22
    9  A    between atoms: C_16  and  C_27
   10  A    between atoms: C_18  and  C_29
                            x       y       z     vdW  Elec       q    Type
                         _______ _______ _______ _____ _____    ______ ____

>  <TORSDO>
F 10

$$$$
=
 OpenBabel11052419043D

 32 34  0  0  1  0  0  0  0  0999 V2000
  189.8120  176.9180  145.3790 C   0  0  1  0  0  3  0  0  0  0  0  0
  189.7960  174.8530  144.2520 C   0  0  1  0  0  3  0  0  0  0  0  0
  189.4790  177.5740  146.7210 C   0  0  0  0  0  2  0  0  0  0  0  0
  190.0510  175.4740  145.6060 C   0  0  1  0  0  3  0  0  0  0  0  0
  188.7940  175.6350  143.6320 O   0  0  0  0  0  0  0  0  0  0  0  0
  191.3500  175.2480  146.3910 C   0  0  2  0  0  3  0  0  0  0  0  0
  191.2920  176.0880  147.6570 C   0  0  0  0  0  3  0  0  0  0  0  0
  189.3170  177.9030  143.1880 C   0  0  0  0  0  1  0  0  0  0  0  0
  188.7970  176.9220  144.2290 C   0  0  2  0  0  0  0  0  0  0  0  0
  190.4820  177.1620  147.7870 C   0  0  0  0  0  3  0  0  0  0  0  0
  187.3520  177.3610  144.6010 C   0  0  2  0  0  3  0  0  0  0  0  0
  186.7920  176.4610  145.5160 O   0  0  0  0  0  1  0  0  0  0  0  0
  186.3350  177.7590  143.4740 C   0  0  2  0  0  0  0  0  0  0  0  0
  186.8200  178.8700  142.7760 O   0  0  0  0  0  1  0  0  0  0  0  0
  184.9480  178.1270  144.0830 C   0  0  1  0  0  3  0  0  0  0  0  0
  184.9510  179.3760  144.9490 C   0  0  0  0  0  1  0  0  0  0  0  0
  183.9960  178.2900  143.0760 O   0  0  0  0  0  1  0  0  0  0  0  0
  186.2010  176.7060  142.5240 O   0  0  0  0  0  0  0  0  0  0  0  0
  186.4620  177.1700  141.2150 C   0  0  0  0  0  2  0  0  0  0  0  0
  187.4420  176.3700  140.6270 O   0  0  0  0  0  1  0  0  0  0  0  0
  190.9420  174.8530  143.4510 O   0  0  0  0  0  0  0  0  0  0  0  0
  190.8910  173.6500  142.7490 C   0  0  0  0  0  2  0  0  0  0  0  0
  194.6800  172.2010  144.1110 C   0  0  0  0  0  2  0  0  0  0  0  0
  193.2720  173.8070  142.9530 O   0  0  0  0  0  0  0  0  0  0  0  0
  192.1980  172.8960  142.9150 C   0  0  1  0  0  3  0  0  0  0  0  0
  192.1530  172.0270  144.1870 C   0  0  0  0  0  2  0  0  0  0  0  0
  194.4420  173.0320  142.8420 C   0  0  0  0  0  2  0  0  0  0  0  0
  193.4390  172.1560  145.0070 C   0  0  0  0  0  2  0  0  0  0  0  0
  192.5880  175.6470  145.5860 C   0  0  0  0  0  2  0  0  0  0  0  0
  194.9420  175.3570  146.1380 C   0  0  0  0  0  0  0  0  0  0  0  0
  193.7790  175.8530  146.4620 C   0  0  0  0  0  3  0  0  0  0  0  0
  196.0380  174.8770  145.8270 O   0  0  0  0  0  0  0  0  0  0  0  0
  1  4  1  0  0  0  0
  1  3  1  1  0  0  0
  2 21  1  6  0  0  0
  2  4  1  0  0  0  0
  3 10  1  0  0  0  0
  4  6  1  0  0  0  0
  5  9  1  0  0  0  0
  5  2  1  0  0  0  0
  6  7  1  0  0  0  0
  7 10  2  0  0  0  0
  8  9  1  0  0  0  0
  9 11  1  0  0  0  0
  9  1  1  0  0  0  0
 11 12  1  0  0  0  0
 13 15  1  0  0  0  0
 13 11  1  0  0  0  0
 14 13  1  0  0  0  0
 15 16  1  0  0  0  0
 17 15  1  0  0  0  0
 18 13  1  0  0  0  0
 19 18  1  0  0  0  0
 20 19  1  0  0  0  0
 22 25  1  0  0  0  0
 22 21  1  0  0  0  0
 23 28  1  0  0  0  0
 25 24  1  0  0  0  0
 25 26  1  0  0  0  0
 26 28  1  0  0  0  0
 27 24  1  0  0  0  0
 27 23  1  0  0  0  0
 29  6  1  0  0  0  0
 29 31  1  0  0  0  0
 30 31  2  0  0  0  0
 32 30  2  0  0  0  0
M  END
>  <MODEL>
6

>  <REMARK>
 VINA RESULT:      -6.5      2.082      7.444
  Name = 
  10 active torsions:
  status: ('A' for Active; 'I' for Inactive)
    1  A    between atoms: C_2  and  O_6
    2  A    between atoms: C_3  and  C_22
    3  A    between atoms: O_6  and  C_17
    4  A    between atoms: C_7  and  O_15
    5  A    between atoms: C_12  and  C_17
    6  A    between atoms: C_14  and  C_29
    7  A    between atoms: O_15  and  C_22
    8  A    between atoms: C_16  and  C_22
    9  A    between atoms: C_16  and  C_27
   10  A    between atoms: C_18  and  C_29
                            x       y       z     vdW  Elec       q    Type
                         _______ _______ _______ _____ _____    ______ ____

>  <TORSDO>
F 10

$$$$
=
 OpenBabel11052419043D

 32 34  0  0  1  0  0  0  0  0999 V2000
  190.4020  175.8120  143.3950 C   0  0  1  0  0  3  0  0  0  0  0  0
  189.3590  176.0260  145.4930 C   0  0  1  0  0  3  0  0  0  0  0  0
  190.6670  174.8160  142.2640 C   0  0  0  0  0  2  0  0  0  0  0  0
  189.1990  175.3720  144.1390 C   0  0  1  0  0  3  0  0  0  0  0  0
  190.7480  176.0910  145.7480 O   0  0  0  0  0  0  0  0  0  0  0  0
  187.9350  175.5300  143.2850 C   0  0  2  0  0  3  0  0  0  0  0  0
  188.1610  174.8130  141.9640 C   0  0  0  0  0  3  0  0  0  0  0  0
  192.0560  177.4000  144.2680 C   0  0  0  0  0  1  0  0  0  0  0  0
  191.4350  176.0320  144.5080 C   0  0  2  0  0  0  0  0  0  0  0  0
  189.3940  174.5330  141.4840 C   0  0  0  0  0  3  0  0  0  0  0  0
  192.5950  174.9970  144.5690 C   0  0  2  0  0  3  0  0  0  0  0  0
  192.8140  174.5910  145.8910 O   0  0  0  0  0  1  0  0  0  0  0  0
  193.9410  175.2790  143.8120 C   0  0  2  0  0  0  0  0  0  0  0  0
  194.3220  174.1410  143.0930 O   0  0  0  0  0  1  0  0  0  0  0  0
  195.0800  175.6300  144.8170 C   0  0  1  0  0  3  0  0  0  0  0  0
  196.3960  174.9170  144.5520 C   0  0  0  0  0  1  0  0  0  0  0  0
  195.3180  177.0040  144.8300 O   0  0  0  0  0  1  0  0  0  0  0  0
  193.7720  176.3260  142.8600 O   0  0  0  0  0  0  0  0  0  0  0  0
  194.3170  175.9640  141.6080 C   0  0  0  0  0  2  0  0  0  0  0  0
  195.4100  176.7820  141.3260 O   0  0  0  0  0  1  0  0  0  0  0  0
  188.8250  177.3170  145.5170 O   0  0  0  0  0  0  0  0  0  0  0  0
  188.4880  177.5430  146.8510 C   0  0  0  0  0  2  0  0  0  0  0  0
  184.3100  178.2010  146.2030 C   0  0  0  0  0  2  0  0  0  0  0  0
  186.6580  178.6350  145.7590 O   0  0  0  0  0  0  0  0  0  0  0  0
  187.0430  177.9950  146.9530 C   0  0  1  0  0  3  0  0  0  0  0  0
  186.1300  176.7940  147.2650 C   0  0  0  0  0  2  0  0  0  0  0  0
  185.4200  179.2480  146.0280 C   0  0  0  0  0  2  0  0  0  0  0  0
  184.8770  176.7900  146.3860 C   0  0  0  0  0  2  0  0  0  0  0  0
  187.6080  176.9990  143.0040 C   0  0  0  0  0  2  0  0  0  0  0  0
  185.9410  177.5670  141.3230 C   0  0  0  0  0  0  0  0  0  0  0  0
  186.2010  177.1770  142.5410 C   0  0  0  0  0  3  0  0  0  0  0  0
  185.7040  177.9440  140.1700 O   0  0  0  0  0  0  0  0  0  0  0  0
  1  3  1  6  0  0  0
  1  4  1  0  0  0  0
  1  9  1  0  0  0  0
  2 21  1  6  0  0  0
  2  5  1  0  0  0  0
  4  2  1  0  0  0  0
  6  4  1  0  0  0  0
  7  6  1  0  0  0  0
  8  9  1  0  0  0  0
  9 11  1  0  0  0  0
  9  5  1  0  0  0  0
 10  7  2  0  0  0  0
 10  3  1  0  0  0  0
 11 12  1  0  0  0  0
 13 11  1  0  0  0  0
 13 15  1  0  0  0  0
 14 13  1  0  0  0  0
 15 17  1  0  0  0  0
 16 15  1  0  0  0  0
 18 13  1  0  0  0  0
 19 18  1  0  0  0  0
 20 19  1  0  0  0  0
 21 22  1  0  0  0  0
 22 25  1  0  0  0  0
 23 28  1  0  0  0  0
 24 27  1  0  0  0  0
 24 25  1  0  0  0  0
 25 26  1  0  0  0  0
 27 23  1  0  0  0  0
 28 26  1  0  0  0  0
 29  6  1  0  0  0  0
 30 31  2  0  0  0  0
 31 29  1  0  0  0  0
 32 30  2  0  0  0  0
M  END
>  <MODEL>
7

>  <REMARK>
 VINA RESULT:      -6.5      1.672      3.958
  Name = 
  10 active torsions:
  status: ('A' for Active; 'I' for Inactive)
    1  A    between atoms: C_2  and  O_6
    2  A    between atoms: C_3  and  C_22
    3  A    between atoms: O_6  and  C_17
    4  A    between atoms: C_7  and  O_15
    5  A    between atoms: C_12  and  C_17
    6  A    between atoms: C_14  and  C_29
    7  A    between atoms: O_15  and  C_22
    8  A    between atoms: C_16  and  C_22
    9  A    between atoms: C_16  and  C_27
   10  A    between atoms: C_18  and  C_29
                            x       y       z     vdW  Elec       q    Type
                         _______ _______ _______ _____ _____    ______ ____

>  <TORSDO>
F 10

$$$$
=
 OpenBabel11052419043D

 32 34  0  0  1  0  0  0  0  0999 V2000
  190.0610  175.8770  143.2120 C   0  0  1  0  0  3  0  0  0  0  0  0
  189.2610  176.0680  145.4150 C   0  0  1  0  0  3  0  0  0  0  0  0
  190.0540  174.9540  141.9910 C   0  0  0  0  0  2  0  0  0  0  0  0
  188.8740  175.5690  144.0430 C   0  0  1  0  0  3  0  0  0  0  0  0
  190.6600  175.8920  145.5300 O   0  0  0  0  0  0  0  0  0  0  0  0
  187.5820  175.9980  143.3370 C   0  0  2  0  0  3  0  0  0  0  0  0
  187.5660  175.3720  141.9530 C   0  0  0  0  0  3  0  0  0  0  0  0
  192.0270  177.1020  144.0200 C   0  0  0  0  0  1  0  0  0  0  0  0
  191.2120  175.8330  144.2240 C   0  0  2  0  0  0  0  0  0  0  0  0
  188.6860  174.9440  141.3290 C   0  0  0  0  0  3  0  0  0  0  0  0
  192.1860  174.6270  144.0910 C   0  0  2  0  0  3  0  0  0  0  0  0
  191.6430  173.4940  144.7080 O   0  0  0  0  0  1  0  0  0  0  0  0
  193.7090  174.8050  144.4280 C   0  0  2  0  0  0  0  0  0  0  0  0
  194.1780  175.9960  143.8650 O   0  0  0  0  0  1  0  0  0  0  0  0
  194.5470  173.6230  143.8500 C   0  0  1  0  0  3  0  0  0  0  0  0
  194.2480  173.2910  142.3980 C   0  0  0  0  0  1  0  0  0  0  0  0
  195.9120  173.8830  143.9730 O   0  0  0  0  0  1  0  0  0  0  0  0
  193.9020  174.9140  145.8360 O   0  0  0  0  0  0  0  0  0  0  0  0
  194.5880  176.1050  146.1610 C   0  0  0  0  0  2  0  0  0  0  0  0
  193.8270  176.8460  147.0650 O   0  0  0  0  0  1  0  0  0  0  0  0
  188.9530  177.4210  145.5870 O   0  0  0  0  0  0  0  0  0  0  0  0
  188.6440  177.5510  146.9400 C   0  0  0  0  0  2  0  0  0  0  0  0
  184.4450  178.1730  146.4020 C   0  0  0  0  0  2  0  0  0  0  0  0
  186.7770  178.7200  146.0010 O   0  0  0  0  0  0  0  0  0  0  0  0
  187.1880  177.9490  147.1050 C   0  0  1  0  0  3  0  0  0  0  0  0
  186.3090  176.6950  147.2730 C   0  0  0  0  0  2  0  0  0  0  0  0
  185.5260  179.2620  146.3500 C   0  0  0  0  0  2  0  0  0  0  0  0
  185.0490  176.7650  146.4080 C   0  0  0  0  0  2  0  0  0  0  0  0
  187.4780  177.5180  143.1970 C   0  0  0  0  0  2  0  0  0  0  0  0
  185.1740  178.0510  142.6170 C   0  0  0  0  0  0  0  0  0  0  0  0
  186.4130  177.9170  142.2300 C   0  0  0  0  0  3  0  0  0  0  0  0
  184.0020  178.1690  142.9900 O   0  0  0  0  0  0  0  0  0  0  0  0
  1  3  1  6  0  0  0
  1  4  1  0  0  0  0
  1  9  1  0  0  0  0
  2  5  1  0  0  0  0
  2 21  1  6  0  0  0
  4  2  1  0  0  0  0
  6  4  1  0  0  0  0
  7  6  1  0  0  0  0
  8  9  1  0  0  0  0
  9  5  1  0  0  0  0
 10  7  2  0  0  0  0
 10  3  1  0  0  0  0
 11  9  1  0  0  0  0
 11 13  1  0  0  0  0
 11 12  1  0  0  0  0
 13 18  1  0  0  0  0
 14 13  1  0  0  0  0
 15 17  1  0  0  0  0
 15 13  1  0  0  0  0
 16 15  1  0  0  0  0
 18 19  1  0  0  0  0
 19 20  1  0  0  0  0
 21 22  1  0  0  0  0
 22 25  1  0  0  0  0
 23 28  1  0  0  0  0
 24 27  1  0  0  0  0
 24 25  1  0  0  0  0
 25 26  1  0  0  0  0
 27 23  1  0  0  0  0
 28 26  1  0  0  0  0
 29  6  1  0  0  0  0
 30 32  2  0  0  0  0
 31 30  2  0  0  0  0
 31 29  1  0  0  0  0
M  END
>  <MODEL>
8

>  <REMARK>
 VINA RESULT:      -6.4      1.754      3.598
  Name = 
  10 active torsions:
  status: ('A' for Active; 'I' for Inactive)
    1  A    between atoms: C_2  and  O_6
    2  A    between atoms: C_3  and  C_22
    3  A    between atoms: O_6  and  C_17
    4  A    between atoms: C_7  and  O_15
    5  A    between atoms: C_12  and  C_17
    6  A    between atoms: C_14  and  C_29
    7  A    between atoms: O_15  and  C_22
    8  A    between atoms: C_16  and  C_22
    9  A    between atoms: C_16  and  C_27
   10  A    between atoms: C_18  and  C_29
                            x       y       z     vdW  Elec       q    Type
                         _______ _______ _______ _____ _____    ______ ____

>  <TORSDO>
F 10

$$$$
=
 OpenBabel11052419043D

 32 34  0  0  1  0  0  0  0  0999 V2000
  189.9000  176.7160  145.8770 C   0  0  1  0  0  3  0  0  0  0  0  0
  189.4760  174.7670  144.6300 C   0  0  1  0  0  3  0  0  0  0  0  0
  189.9700  177.2540  147.3080 C   0  0  0  0  0  2  0  0  0  0  0  0
  190.1130  175.2510  145.9130 C   0  0  1  0  0  3  0  0  0  0  0  0
  188.3890  175.6330  144.3670 O   0  0  0  0  0  0  0  0  0  0  0  0
  191.5580  174.9140  146.3000 C   0  0  2  0  0  3  0  0  0  0  0  0
  191.8820  175.6340  147.5990 C   0  0  0  0  0  3  0  0  0  0  0  0
  188.8980  177.9160  143.9860 C   0  0  0  0  0  1  0  0  0  0  0  0
  188.6200  176.8590  145.0440 C   0  0  2  0  0  0  0  0  0  0  0  0
  191.1940  176.7150  148.0290 C   0  0  0  0  0  3  0  0  0  0  0  0
  187.3500  177.3040  145.8250 C   0  0  2  0  0  3  0  0  0  0  0  0
  186.9980  176.3350  146.7730 O   0  0  0  0  0  1  0  0  0  0  0  0
  186.0980  177.8460  145.0480 C   0  0  2  0  0  0  0  0  0  0  0  0
  186.4550  178.9850  144.3200 O   0  0  0  0  0  1  0  0  0  0  0  0
  184.9550  178.2310  146.0370 C   0  0  1  0  0  3  0  0  0  0  0  0
  185.4100  179.0410  147.2400 C   0  0  0  0  0  1  0  0  0  0  0  0
  183.9540  178.9440  145.3780 O   0  0  0  0  0  1  0  0  0  0  0  0
  185.6390  176.8830  144.1030 O   0  0  0  0  0  0  0  0  0  0  0  0
  185.4950  177.4620  142.8220 C   0  0  0  0  0  2  0  0  0  0  0  0
  186.3160  176.7900  141.9170 O   0  0  0  0  0  1  0  0  0  0  0  0
  190.3680  174.8070  143.5550 O   0  0  0  0  0  0  0  0  0  0  0  0
  190.0760  173.6720  142.8010 C   0  0  0  0  0  2  0  0  0  0  0  0
  189.5990  173.6550  138.5490 C   0  0  0  0  0  2  0  0  0  0  0  0
  190.6740  172.9310  140.6040 O   0  0  0  0  0  0  0  0  0  0  0  0
  190.1130  174.0060  141.3210 C   0  0  1  0  0  3  0  0  0  0  0  0
  188.6970  174.3410  140.8150 C   0  0  0  0  0  2  0  0  0  0  0  0
  190.9150  173.4150  139.3040 C   0  0  0  0  0  2  0  0  0  0  0  0
  188.3890  173.6440  139.4880 C   0  0  0  0  0  2  0  0  0  0  0  0
  192.5600  175.3490  145.2280 C   0  0  0  0  0  2  0  0  0  0  0  0
  194.4630  176.8130  145.6350 C   0  0  0  0  0  0  0  0  0  0  0  0
  193.9020  175.6470  145.8090 C   0  0  0  0  0  3  0  0  0  0  0  0
  194.9890  177.9170  145.4590 O   0  0  0  0  0  0  0  0  0  0  0  0
  1  4  1  0  0  0  0
  1  3  1  1  0  0  0
  2 21  1  6  0  0  0
  2  4  1  0  0  0  0
  3 10  1  0  0  0  0
  4  6  1  0  0  0  0
  5  2  1  0  0  0  0
  5  9  1  0  0  0  0
  6  7  1  0  0  0  0
  7 10  2  0  0  0  0
  8  9  1  0  0  0  0
  9 11  1  0  0  0  0
  9  1  1  0  0  0  0
 11 12  1  0  0  0  0
 13 11  1  0  0  0  0
 13 15  1  0  0  0  0
 14 13  1  0  0  0  0
 15 16  1  0  0  0  0
 17 15  1  0  0  0  0
 18 13  1  0  0  0  0
 19 18  1  0  0  0  0
 20 19  1  0  0  0  0
 22 21  1  0  0  0  0
 23 27  1  0  0  0  0
 23 28  1  0  0  0  0
 24 25  1  0  0  0  0
 25 22  1  0  0  0  0
 26 25  1  0  0  0  0
 27 24  1  0  0  0  0
 28 26  1  0  0  0  0
 29 31  1  0  0  0  0
 29  6  1  0  0  0  0
 30 31  2  0  0  0  0
 32 30  2  0  0  0  0
M  END
>  <MODEL>
9

>  <REMARK>
 VINA RESULT:      -6.4      2.024      6.719
  Name = 
  10 active torsions:
  status: ('A' for Active; 'I' for Inactive)
    1  A    between atoms: C_2  and  O_6
    2  A    between atoms: C_3  and  C_22
    3  A    between atoms: O_6  and  C_17
    4  A    between atoms: C_7  and  O_15
    5  A    between atoms: C_12  and  C_17
    6  A    between atoms: C_14  and  C_29
    7  A    between atoms: O_15  and  C_22
    8  A    between atoms: C_16  and  C_22
    9  A    between atoms: C_16  and  C_27
   10  A    between atoms: C_18  and  C_29
                            x       y       z     vdW  Elec       q    Type
                         _______ _______ _______ _____ _____    ______ ____

>  <TORSDO>
F 10

$$$$
