=
 OpenBabel11052420333D

 34 38  0  0  1  0  0  0  0  0999 V2000
  190.3370  177.1720  144.9160 C   0  0  0  0  0  0  0  0  0  0  0  0
  193.3590  176.2870  146.8370 C   0  0  0  0  0  2  0  0  0  0  0  0
  191.1180  176.1310  147.3670 C   0  0  0  0  0  3  0  0  0  0  0  0
  188.4200  177.3920  143.3040 C   0  0  1  0  0  3  0  0  0  0  0  0
  189.8580  177.8120  143.6310 C   0  0  0  0  0  2  0  0  0  0  0  0
  187.9700  177.2420  145.7300 C   0  0  0  0  0  0  0  0  0  0  0  0
  187.5120  177.4870  144.5010 C   0  0  0  0  0  3  0  0  0  0  0  0
  189.8130  176.4020  147.1220 N   0  0  0  0  0  0  0  0  0  0  0  0
  189.4040  176.9400  145.9460 C   0  0  0  0  0  0  0  0  0  0  0  0
  194.5630  176.8010  146.1250 C   0  0  0  0  0  2  0  0  0  0  0  0
  194.7720  176.1580  144.7990 C   0  0  0  0  0  0  0  0  0  0  0  0
  193.8460  176.2560  143.8490 C   0  0  0  0  0  3  0  0  0  0  0  0
  192.0980  176.3790  146.4040 C   0  0  0  0  0  0  0  0  0  0  0  0
  192.4760  176.7810  144.0100 C   0  0  0  0  0  2  0  0  0  0  0  0
  191.6960  176.8250  145.1100 C   0  0  0  0  0  0  0  0  0  0  0  0
  196.0450  175.5730  144.4920 N   0  0  0  0  0  0  0  0  0  0  0  0
  196.4350  174.5540  145.1000 O   0  0  0  0  0  0  0  0  0  0  0  0
  196.8420  176.1100  143.5060 O   0  0  0  0  0  0  0  0  0  0  0  0
  187.0140  177.2650  146.8740 C   0  0  0  0  0  2  0  0  0  0  0  0
  185.8240  176.6340  146.5070 O   0  0  0  0  0  1  0  0  0  0  0  0
  187.8990  178.1180  142.1900 O   0  0  0  0  0  0  0  0  0  0  0  0
  184.8640  177.8370  140.1640 O   0  0  0  0  0  0  0  0  0  0  0  0
  185.4890  178.5760  142.7830 C   0  0  0  0  0  3  0  0  0  0  0  0
  181.4840  178.6520  141.5570 C   0  0  0  0  0  0  0  0  0  0  0  0
  182.5780  178.2460  140.6450 C   0  0  0  0  0  3  0  0  0  0  0  0
  183.8480  178.2240  141.0440 C   0  0  2  0  0  3  0  0  0  0  0  0
  183.1550  179.0320  143.4040 C   0  0  0  0  0  3  0  0  0  0  0  0
  184.2060  178.6090  142.4210 C   0  0  0  0  0  0  0  0  0  0  0  0
  181.7630  179.0110  142.8220 C   0  0  0  0  0  3  0  0  0  0  0  0
  186.5450  178.1600  141.8260 C   0  0  0  0  0  0  0  0  0  0  0  0
  186.2040  177.8130  140.5780 C   0  0  0  0  0  3  0  0  0  0  0  0
  180.1230  178.6610  141.0840 N   0  0  0  0  0  0  0  0  0  0  0  0
  179.1560  177.6650  141.5220 C   0  0  0  0  0  1  0  0  0  0  0  0
  179.6640  179.6740  140.1450 C   0  0  0  0  0  1  0  0  0  0  0  0
  1 15  2  0  0  0  0
  1  9  1  0  0  0  0
  4 21  1  6  0  0  0
  4  5  1  0  0  0  0
  4  7  1  0  0  0  0
  5  1  1  0  0  0  0
  6  9  1  0  0  0  0
  6 19  1  0  0  0  0
  7  6  2  0  0  0  0
  8  3  1  0  0  0  0
  9  8  2  0  0  0  0
 10  2  1  0  0  0  0
 11 10  1  0  0  0  0
 12 14  1  0  0  0  0
 12 11  2  0  0  0  0
 13  2  1  0  0  0  0
 13  3  2  0  0  0  0
 14 15  1  0  0  0  0
 15 13  1  0  0  0  0
 16 11  1  0  0  0  0
 16 17  2  0  0  0  0
 18 16  2  0  0  0  0
 20 19  1  0  0  0  0
 22 31  1  0  0  0  0
 22 26  1  0  0  0  0
 24 29  1  0  0  0  0
 25 24  2  0  0  0  0
 26 25  1  6  0  0  0
 26 28  1  0  0  0  0
 28 23  2  0  0  0  0
 28 27  1  0  0  0  0
 29 27  2  0  0  0  0
 30 21  1  0  0  0  0
 30 23  1  0  0  0  0
 31 30  2  0  0  0  0
 32 33  1  0  0  0  0
 32 24  1  0  0  0  0
 34 32  1  0  0  0  0
M  END
>  <MODEL>
1

>  <REMARK>
 VINA RESULT:      -8.9      0.000      0.000
  Name = 
  5 active torsions:
  status: ('A' for Active; 'I' for Inactive)
    1  A    between atoms: N_3  and  C_25
    2  A    between atoms: C_7  and  N_11
    3  A    between atoms: C_8  and  O_18
    4  A    between atoms: C_10  and  C_12
    5  A    between atoms: O_18  and  C_30
                            x       y       z     vdW  Elec       q    Type
                         _______ _______ _______ _____ _____    ______ ____

>  <TORSDO>
F 5

$$$$
=
 OpenBabel11052420333D

 34 38  0  0  1  0  0  0  0  0999 V2000
  195.0470  173.5220  143.9280 C   0  0  0  0  0  0  0  0  0  0  0  0
  197.5330  171.2180  145.3830 C   0  0  0  0  0  2  0  0  0  0  0  0
  197.7290  173.3900  144.6250 C   0  0  0  0  0  3  0  0  0  0  0  0
  193.1450  175.0800  143.4000 C   0  0  1  0  0  3  0  0  0  0  0  0
  193.6140  173.6210  143.4520 C   0  0  0  0  0  2  0  0  0  0  0  0
  195.4620  175.7490  142.8590 C   0  0  0  0  0  0  0  0  0  0  0  0
  194.1530  175.9810  142.7390 C   0  0  0  0  0  3  0  0  0  0  0  0
  197.2440  174.4740  143.9730 N   0  0  0  0  0  0  0  0  0  0  0  0
  195.9450  174.5550  143.5910 C   0  0  0  0  0  0  0  0  0  0  0  0
  196.9380  169.8560  145.4890 C   0  0  0  0  0  2  0  0  0  0  0  0
  195.7890  169.7960  146.4320 C   0  0  0  0  0  0  0  0  0  0  0  0
  194.7040  170.5380  146.2220 C   0  0  0  0  0  3  0  0  0  0  0  0
  196.9010  172.3130  144.9500 C   0  0  0  0  0  0  0  0  0  0  0  0
  194.5610  171.6200  145.2290 C   0  0  0  0  0  2  0  0  0  0  0  0
  195.5040  172.4130  144.6790 C   0  0  0  0  0  0  0  0  0  0  0  0
  195.7850  168.8150  147.4790 N   0  0  0  0  0  0  0  0  0  0  0  0
  196.8600  168.3830  147.9440 O   0  0  0  0  0  0  0  0  0  0  0  0
  194.5970  168.3540  148.0010 O   0  0  0  0  0  0  0  0  0  0  0  0
  196.4240  176.7160  142.2570 C   0  0  0  0  0  2  0  0  0  0  0  0
  196.7660  176.3010  140.9690 O   0  0  0  0  0  1  0  0  0  0  0  0
  191.8570  175.1990  142.7950 O   0  0  0  0  0  0  0  0  0  0  0  0
  189.1270  177.5900  143.2750 O   0  0  0  0  0  0  0  0  0  0  0  0
  190.1740  175.4060  144.6650 C   0  0  0  0  0  3  0  0  0  0  0  0
  186.8910  177.4480  146.2760 C   0  0  0  0  0  0  0  0  0  0  0  0
  187.5140  177.8480  144.9930 C   0  0  0  0  0  3  0  0  0  0  0  0
  188.5560  177.1930  144.4890 C   0  0  2  0  0  3  0  0  0  0  0  0
  188.5540  175.5700  146.5060 C   0  0  0  0  0  3  0  0  0  0  0  0
  189.1290  176.0370  145.2020 C   0  0  0  0  0  0  0  0  0  0  0  0
  187.3790  176.4000  146.9620 C   0  0  0  0  0  3  0  0  0  0  0  0
  190.7580  175.8520  143.3740 C   0  0  0  0  0  0  0  0  0  0  0  0
  190.2270  176.9040  142.7400 C   0  0  0  0  0  3  0  0  0  0  0  0
  185.7630  178.1860  146.7870 N   0  0  0  0  0  0  0  0  0  0  0  0
  184.3950  177.7970  146.4780 C   0  0  0  0  0  1  0  0  0  0  0  0
  185.9540  179.3530  147.6340 C   0  0  0  0  0  1  0  0  0  0  0  0
  1 15  1  0  0  0  0
  2 10  1  0  0  0  0
  3 13  1  0  0  0  0
  4 21  1  6  0  0  0
  4  5  1  0  0  0  0
  5  1  1  0  0  0  0
  6  9  1  0  0  0  0
  7  6  2  0  0  0  0
  7  4  1  0  0  0  0
  8  3  2  0  0  0  0
  9  1  2  0  0  0  0
  9  8  1  0  0  0  0
 10 11  1  0  0  0  0
 11 16  1  0  0  0  0
 12 11  2  0  0  0  0
 13  2  1  0  0  0  0
 14 12  1  0  0  0  0
 15 13  2  0  0  0  0
 15 14  1  0  0  0  0
 16 17  2  0  0  0  0
 16 18  2  0  0  0  0
 19  6  1  0  0  0  0
 20 19  1  0  0  0  0
 21 30  1  0  0  0  0
 22 26  1  0  0  0  0
 23 28  2  0  0  0  0
 24 32  1  0  0  0  0
 24 29  1  0  0  0  0
 25 24  2  0  0  0  0
 26 25  1  1  0  0  0
 26 28  1  0  0  0  0
 27 29  2  0  0  0  0
 28 27  1  0  0  0  0
 30 23  1  0  0  0  0
 31 22  1  0  0  0  0
 31 30  2  0  0  0  0
 32 34  1  0  0  0  0
 33 32  1  0  0  0  0
M  END
>  <MODEL>
2

>  <REMARK>
 VINA RESULT:      -8.2      3.995      7.186
  Name = 
  5 active torsions:
  status: ('A' for Active; 'I' for Inactive)
    1  A    between atoms: N_3  and  C_25
    2  A    between atoms: C_7  and  N_11
    3  A    between atoms: C_8  and  O_18
    4  A    between atoms: C_10  and  C_12
    5  A    between atoms: O_18  and  C_30
                            x       y       z     vdW  Elec       q    Type
                         _______ _______ _______ _____ _____    ______ ____

>  <TORSDO>
F 5

$$$$
=
 OpenBabel11052420333D

 34 38  0  0  1  0  0  0  0  0999 V2000
  189.7380  176.7440  144.6080 C   0  0  0  0  0  0  0  0  0  0  0  0
  186.0810  177.2190  144.7170 C   0  0  0  0  0  2  0  0  0  0  0  0
  187.6890  177.3840  146.3660 C   0  0  0  0  0  3  0  0  0  0  0  0
  192.2240  176.8380  144.2430 C   0  0  1  0  0  3  0  0  0  0  0  0
  190.8820  176.3190  143.7140 C   0  0  0  0  0  2  0  0  0  0  0  0
  191.3290  176.6500  146.5390 C   0  0  0  0  0  0  0  0  0  0  0  0
  192.3830  176.6050  145.7220 C   0  0  0  0  0  3  0  0  0  0  0  0
  188.9520  177.2030  146.8230 N   0  0  0  0  0  0  0  0  0  0  0  0
  189.9690  176.8590  145.9940 C   0  0  0  0  0  0  0  0  0  0  0  0
  185.4880  176.7670  143.4270 C   0  0  0  0  0  2  0  0  0  0  0  0
  185.9280  177.5880  142.2670 C   0  0  0  0  0  0  0  0  0  0  0  0
  187.2180  177.6670  141.9470 C   0  0  0  0  0  3  0  0  0  0  0  0
  187.3850  177.2410  145.0110 C   0  0  0  0  0  0  0  0  0  0  0  0
  188.3520  177.1790  142.7530 C   0  0  0  0  0  2  0  0  0  0  0  0
  188.4470  177.0050  144.0880 C   0  0  0  0  0  0  0  0  0  0  0  0
  184.9450  178.1620  141.3950 N   0  0  0  0  0  0  0  0  0  0  0  0
  185.2590  178.5270  140.2430 O   0  0  0  0  0  0  0  0  0  0  0  0
  183.6380  178.2960  141.8060 O   0  0  0  0  0  0  0  0  0  0  0  0
  191.5480  176.4960  148.0060 C   0  0  0  0  0  2  0  0  0  0  0  0
  191.2450  175.1910  148.3950 O   0  0  0  0  0  1  0  0  0  0  0  0
  193.3240  176.3050  143.5060 O   0  0  0  0  0  0  0  0  0  0  0  0
  193.9420  172.7160  143.1290 O   0  0  0  0  0  0  0  0  0  0  0  0
  194.9520  174.7910  144.7020 C   0  0  0  0  0  3  0  0  0  0  0  0
  196.5140  170.9350  145.1870 C   0  0  0  0  0  0  0  0  0  0  0  0
  195.4430  171.2320  144.2080 C   0  0  0  0  0  3  0  0  0  0  0  0
  194.9530  172.4610  144.0600 C   0  0  2  0  0  3  0  0  0  0  0  0
  196.5530  173.3540  145.8910 C   0  0  0  0  0  3  0  0  0  0  0  0
  195.4680  173.5740  144.8780 C   0  0  0  0  0  0  0  0  0  0  0  0
  197.0150  171.9180  145.9540 C   0  0  0  0  0  3  0  0  0  0  0  0
  193.8780  175.0310  143.7050 C   0  0  0  0  0  0  0  0  0  0  0  0
  193.4210  174.0090  142.9700 C   0  0  0  0  0  3  0  0  0  0  0  0
  197.0160  169.5900  145.3150 N   0  0  0  0  0  0  0  0  0  0  0  0
  197.2560  168.9850  146.6170 C   0  0  0  0  0  1  0  0  0  0  0  0
  197.3020  168.7840  144.1380 C   0  0  0  0  0  1  0  0  0  0  0  0
  1  9  1  0  0  0  0
  2 13  1  0  0  0  0
  3  8  1  0  0  0  0
  4 21  1  6  0  0  0
  4  7  1  0  0  0  0
  5  4  1  0  0  0  0
  5  1  1  0  0  0  0
  6 19  1  0  0  0  0
  7  6  2  0  0  0  0
  9  6  1  0  0  0  0
  9  8  2  0  0  0  0
 10  2  1  0  0  0  0
 11 10  1  0  0  0  0
 12 11  2  0  0  0  0
 12 14  1  0  0  0  0
 13  3  2  0  0  0  0
 14 15  1  0  0  0  0
 15  1  2  0  0  0  0
 15 13  1  0  0  0  0
 16 18  2  0  0  0  0
 16 11  1  0  0  0  0
 17 16  2  0  0  0  0
 19 20  1  0  0  0  0
 21 30  1  0  0  0  0
 22 26  1  0  0  0  0
 23 28  2  0  0  0  0
 24 32  1  0  0  0  0
 24 29  1  0  0  0  0
 25 24  2  0  0  0  0
 26 25  1  1  0  0  0
 26 28  1  0  0  0  0
 27 29  2  0  0  0  0
 28 27  1  0  0  0  0
 30 23  1  0  0  0  0
 31 22  1  0  0  0  0
 31 30  2  0  0  0  0
 32 33  1  0  0  0  0
 34 32  1  0  0  0  0
M  END
>  <MODEL>
3

>  <REMARK>
 VINA RESULT:      -8.1      3.381     10.814
  Name = 
  5 active torsions:
  status: ('A' for Active; 'I' for Inactive)
    1  A    between atoms: N_3  and  C_25
    2  A    between atoms: C_7  and  N_11
    3  A    between atoms: C_8  and  O_18
    4  A    between atoms: C_10  and  C_12
    5  A    between atoms: O_18  and  C_30
                            x       y       z     vdW  Elec       q    Type
                         _______ _______ _______ _____ _____    ______ ____

>  <TORSDO>
F 5

$$$$
=
 OpenBabel11052420333D

 34 38  0  0  1  0  0  0  0  0999 V2000
  188.2310  176.2510  144.5740 C   0  0  0  0  0  0  0  0  0  0  0  0
  190.8580  173.7840  145.3670 C   0  0  0  0  0  2  0  0  0  0  0  0
  189.2910  174.8250  146.7050 C   0  0  0  0  0  3  0  0  0  0  0  0
  186.2320  177.5490  143.7720 C   0  0  1  0  0  3  0  0  0  0  0  0
  187.6710  177.1150  143.4650 C   0  0  0  0  0  2  0  0  0  0  0  0
  186.7990  177.5340  146.1780 C   0  0  0  0  0  0  0  0  0  0  0  0
  186.0770  178.0510  145.1830 C   0  0  0  0  0  3  0  0  0  0  0  0
  188.3380  175.7650  146.9160 N   0  0  0  0  0  0  0  0  0  0  0  0
  187.8230  176.5010  145.8990 C   0  0  0  0  0  0  0  0  0  0  0  0
  191.7440  173.6110  144.1810 C   0  0  0  0  0  2  0  0  0  0  0  0
  191.0370  173.0280  143.0090 C   0  0  0  0  0  0  0  0  0  0  0  0
  189.9970  173.6570  142.4660 C   0  0  0  0  0  3  0  0  0  0  0  0
  189.7700  174.5600  145.4210 C   0  0  0  0  0  0  0  0  0  0  0  0
  189.2890  174.8240  143.0260 C   0  0  0  0  0  2  0  0  0  0  0  0
  189.1660  175.2200  144.3100 C   0  0  0  0  0  0  0  0  0  0  0  0
  191.5810  171.8690  142.3610 N   0  0  0  0  0  0  0  0  0  0  0  0
  192.4550  171.1810  142.9290 O   0  0  0  0  0  0  0  0  0  0  0  0
  191.1310  171.4870  141.1170 O   0  0  0  0  0  0  0  0  0  0  0  0
  186.5500  178.0050  147.5710 C   0  0  0  0  0  2  0  0  0  0  0  0
  185.3340  178.6860  147.6270 O   0  0  0  0  0  1  0  0  0  0  0  0
  185.7530  178.4980  142.8200 O   0  0  0  0  0  0  0  0  0  0  0  0
  183.2770  177.9150  140.1870 O   0  0  0  0  0  0  0  0  0  0  0  0
  183.2430  178.7670  142.8460 C   0  0  0  0  0  3  0  0  0  0  0  0
  179.6200  178.4780  140.7650 C   0  0  0  0  0  0  0  0  0  0  0  0
  180.9170  178.1430  140.1350 C   0  0  0  0  0  3  0  0  0  0  0  0
  182.0640  178.2370  140.8040 C   0  0  2  0  0  3  0  0  0  0  0  0
  180.8010  179.0410  142.9170 C   0  0  0  0  0  3  0  0  0  0  0  0
  182.0750  178.6840  142.2090 C   0  0  0  0  0  0  0  0  0  0  0  0
  179.5800  178.8900  142.0440 C   0  0  0  0  0  3  0  0  0  0  0  0
  184.5150  178.4180  142.1640 C   0  0  0  0  0  0  0  0  0  0  0  0
  184.4880  178.0140  140.8880 C   0  0  0  0  0  3  0  0  0  0  0  0
  178.4020  178.3610  140.0030 N   0  0  0  0  0  0  0  0  0  0  0  0
  177.7480  177.0760  139.8010 C   0  0  0  0  0  1  0  0  0  0  0  0
  177.7790  179.5320  139.4050 C   0  0  0  0  0  1  0  0  0  0  0  0
  1  9  1  0  0  0  0
  2 13  1  0  0  0  0
  3  8  1  0  0  0  0
  4 21  1  6  0  0  0
  4  7  1  0  0  0  0
  5  4  1  0  0  0  0
  5  1  1  0  0  0  0
  6 19  1  0  0  0  0
  7  6  2  0  0  0  0
  9  6  1  0  0  0  0
  9  8  2  0  0  0  0
 10  2  1  0  0  0  0
 11 10  1  0  0  0  0
 12 11  2  0  0  0  0
 12 14  1  0  0  0  0
 13  3  2  0  0  0  0
 14 15  1  0  0  0  0
 15  1  2  0  0  0  0
 15 13  1  0  0  0  0
 16 17  2  0  0  0  0
 16 11  1  0  0  0  0
 18 16  2  0  0  0  0
 19 20  1  0  0  0  0
 22 26  1  0  0  0  0
 22 31  1  0  0  0  0
 24 29  1  0  0  0  0
 25 24  2  0  0  0  0
 26 25  1  6  0  0  0
 26 28  1  0  0  0  0
 28 23  2  0  0  0  0
 28 27  1  0  0  0  0
 29 27  2  0  0  0  0
 30 21  1  0  0  0  0
 30 23  1  0  0  0  0
 31 30  2  0  0  0  0
 32 24  1  0  0  0  0
 33 32  1  0  0  0  0
 34 32  1  0  0  0  0
M  END
>  <MODEL>
4

>  <REMARK>
 VINA RESULT:      -8.0      2.786      3.204
  Name = 
  5 active torsions:
  status: ('A' for Active; 'I' for Inactive)
    1  A    between atoms: N_3  and  C_25
    2  A    between atoms: C_7  and  N_11
    3  A    between atoms: C_8  and  O_18
    4  A    between atoms: C_10  and  C_12
    5  A    between atoms: O_18  and  C_30
                            x       y       z     vdW  Elec       q    Type
                         _______ _______ _______ _____ _____    ______ ____

>  <TORSDO>
F 5

$$$$
=
 OpenBabel11052420333D

 34 38  0  0  1  0  0  0  0  0999 V2000
  192.7580  171.8110  144.1650 C   0  0  0  0  0  0  0  0  0  0  0  0
  193.8910  168.4130  145.0470 C   0  0  0  0  0  2  0  0  0  0  0  0
  192.6150  169.1840  143.2850 C   0  0  0  0  0  3  0  0  0  0  0  0
  192.4800  174.2150  143.4840 C   0  0  1  0  0  3  0  0  0  0  0  0
  192.7330  173.2460  144.6450 C   0  0  0  0  0  2  0  0  0  0  0  0
  191.1160  172.4670  142.3920 C   0  0  0  0  0  0  0  0  0  0  0  0
  191.3480  173.7650  142.6000 C   0  0  0  0  0  3  0  0  0  0  0  0
  191.9030  170.1550  142.6630 N   0  0  0  0  0  0  0  0  0  0  0  0
  191.9280  171.4420  143.0880 C   0  0  0  0  0  0  0  0  0  0  0  0
  194.4950  168.4340  146.4090 C   0  0  0  0  0  2  0  0  0  0  0  0
  195.7290  169.2610  146.4850 C   0  0  0  0  0  0  0  0  0  0  0  0
  195.6890  170.5600  146.1980 C   0  0  0  0  0  3  0  0  0  0  0  0
  193.4230  169.4760  144.3850 C   0  0  0  0  0  0  0  0  0  0  0  0
  194.5600  171.2900  145.5910 C   0  0  0  0  0  2  0  0  0  0  0  0
  193.5760  170.8360  144.7870 C   0  0  0  0  0  0  0  0  0  0  0  0
  196.9290  168.6910  147.0260 N   0  0  0  0  0  0  0  0  0  0  0  0
  197.9380  168.5430  146.3060 O   0  0  0  0  0  0  0  0  0  0  0  0
  196.9920  168.3230  148.3510 O   0  0  0  0  0  0  0  0  0  0  0  0
  190.0370  172.0710  141.4430 C   0  0  0  0  0  2  0  0  0  0  0  0
  188.7890  172.3240  142.0140 O   0  0  0  0  0  1  0  0  0  0  0  0
  192.2860  175.5530  143.9450 O   0  0  0  0  0  0  0  0  0  0  0  0
  189.4490  177.7340  143.1770 O   0  0  0  0  0  0  0  0  0  0  0  0
  190.1130  175.9060  145.1800 C   0  0  0  0  0  3  0  0  0  0  0  0
  186.4230  177.8760  145.3790 C   0  0  0  0  0  0  0  0  0  0  0  0
  187.3850  178.1190  144.2800 C   0  0  0  0  0  3  0  0  0  0  0  0
  188.5560  177.4880  144.2240 C   0  0  2  0  0  3  0  0  0  0  0  0
  188.0100  176.2170  146.4140 C   0  0  0  0  0  3  0  0  0  0  0  0
  188.9320  176.5180  145.2690 C   0  0  0  0  0  0  0  0  0  0  0  0
  186.7220  177.0000  146.3530 C   0  0  0  0  0  3  0  0  0  0  0  0
  191.0400  176.1880  144.0550 C   0  0  0  0  0  0  0  0  0  0  0  0
  190.6840  177.0720  143.1150 C   0  0  0  0  0  3  0  0  0  0  0  0
  185.1660  178.5820  145.3990 N   0  0  0  0  0  0  0  0  0  0  0  0
  184.1730  178.3410  146.4360 C   0  0  0  0  0  1  0  0  0  0  0  0
  184.8440  179.5660  144.3770 C   0  0  0  0  0  1  0  0  0  0  0  0
  1  5  1  0  0  0  0
  1 15  1  0  0  0  0
  2 10  1  0  0  0  0
  3 13  1  0  0  0  0
  4 21  1  1  0  0  0
  4  5  1  0  0  0  0
  6  7  2  0  0  0  0
  6  9  1  0  0  0  0
  7  4  1  0  0  0  0
  8  9  1  0  0  0  0
  8  3  2  0  0  0  0
  9  1  2  0  0  0  0
 10 11  1  0  0  0  0
 11 16  1  0  0  0  0
 12 11  2  0  0  0  0
 13 15  2  0  0  0  0
 13  2  1  0  0  0  0
 14 12  1  0  0  0  0
 15 14  1  0  0  0  0
 16 18  2  0  0  0  0
 17 16  2  0  0  0  0
 19 20  1  0  0  0  0
 19  6  1  0  0  0  0
 21 30  1  0  0  0  0
 22 26  1  0  0  0  0
 23 28  2  0  0  0  0
 24 32  1  0  0  0  0
 24 29  1  0  0  0  0
 25 24  2  0  0  0  0
 26 25  1  1  0  0  0
 26 28  1  0  0  0  0
 28 27  1  0  0  0  0
 29 27  2  0  0  0  0
 30 23  1  0  0  0  0
 31 22  1  0  0  0  0
 31 30  2  0  0  0  0
 32 33  1  0  0  0  0
 34 32  1  0  0  0  0
M  END
>  <MODEL>
5

>  <REMARK>
 VINA RESULT:      -7.9      4.857      6.656
  Name = 
  5 active torsions:
  status: ('A' for Active; 'I' for Inactive)
    1  A    between atoms: N_3  and  C_25
    2  A    between atoms: C_7  and  N_11
    3  A    between atoms: C_8  and  O_18
    4  A    between atoms: C_10  and  C_12
    5  A    between atoms: O_18  and  C_30
                            x       y       z     vdW  Elec       q    Type
                         _______ _______ _______ _____ _____    ______ ____

>  <TORSDO>
F 5

$$$$
=
 OpenBabel11052420333D

 34 38  0  0  1  0  0  0  0  0999 V2000
  189.7730  175.6860  143.5820 C   0  0  0  0  0  0  0  0  0  0  0  0
  191.4330  173.1440  141.4870 C   0  0  0  0  0  2  0  0  0  0  0  0
  191.6330  173.6320  143.7340 C   0  0  0  0  0  3  0  0  0  0  0  0
  188.2230  177.1450  144.9200 C   0  0  1  0  0  3  0  0  0  0  0  0
  188.8300  176.8690  143.5390 C   0  0  0  0  0  2  0  0  0  0  0  0
  190.3110  176.3130  145.9460 C   0  0  0  0  0  0  0  0  0  0  0  0
  189.2570  177.1280  146.0130 C   0  0  0  0  0  3  0  0  0  0  0  0
  191.3990  174.4250  144.8070 N   0  0  0  0  0  0  0  0  0  0  0  0
  190.5190  175.4570  144.7550 C   0  0  0  0  0  0  0  0  0  0  0  0
  191.1180  173.4040  140.0540 C   0  0  0  0  0  2  0  0  0  0  0  0
  189.6710  173.2490  139.7400 C   0  0  0  0  0  0  0  0  0  0  0  0
  188.7630  174.0080  140.3490 C   0  0  0  0  0  3  0  0  0  0  0  0
  190.9580  173.8340  142.5280 C   0  0  0  0  0  0  0  0  0  0  0  0
  188.9950  174.8980  141.5020 C   0  0  0  0  0  2  0  0  0  0  0  0
  189.9350  174.8260  142.4690 C   0  0  0  0  0  0  0  0  0  0  0  0
  189.2710  172.3930  138.6610 N   0  0  0  0  0  0  0  0  0  0  0  0
  189.5340  171.1730  138.6910 O   0  0  0  0  0  0  0  0  0  0  0  0
  188.5720  172.9010  137.5880 O   0  0  0  0  0  0  0  0  0  0  0  0
  191.2650  176.2710  147.0920 C   0  0  0  0  0  2  0  0  0  0  0  0
  190.8560  175.3040  148.0110 O   0  0  0  0  0  1  0  0  0  0  0  0
  187.4660  178.3560  144.9300 O   0  0  0  0  0  0  0  0  0  0  0  0
  183.8670  179.0100  144.8010 O   0  0  0  0  0  0  0  0  0  0  0  0
  185.8500  178.2350  142.9950 C   0  0  0  0  0  3  0  0  0  0  0  0
  181.9190  178.6780  141.6200 C   0  0  0  0  0  0  0  0  0  0  0  0
  182.2890  178.9200  143.0340 C   0  0  0  0  0  3  0  0  0  0  0  0
  183.5410  178.7770  143.4620 C   0  0  0  0  0  0  0  0  0  0  0  0
  184.3120  178.1050  141.0820 C   0  0  0  0  0  2  0  0  0  0  0  0
  184.6070  178.3680  142.5290 C   0  0  0  0  0  0  0  0  0  0  0  0
  182.8570  178.3040  140.7340 C   0  0  0  0  0  3  0  0  0  0  0  0
  186.1650  178.4900  144.4240 C   0  0  0  0  0  0  0  0  0  0  0  0
  185.1850  178.8600  145.2580 C   0  0  0  0  0  3  0  0  0  0  0  0
  180.5500  178.8440  141.2000 N   0  0  0  0  0  0  0  0  0  0  0  0
  180.1180  180.0180  140.4550 C   0  0  0  0  0  1  0  0  0  0  0  0
  179.5450  177.8380  141.5090 C   0  0  0  0  0  1  0  0  0  0  0  0
  1  9  1  0  0  0  0
  2 13  1  0  0  0  0
  3  8  1  0  0  0  0
  4 21  1  6  0  0  0
  4  7  1  0  0  0  0
  5  1  1  0  0  0  0
  5  4  1  0  0  0  0
  6  7  2  0  0  0  0
  6 19  1  0  0  0  0
  9  8  2  0  0  0  0
  9  6  1  0  0  0  0
 10  2  1  0  0  0  0
 11 10  1  0  0  0  0
 11 12  2  0  0  0  0
 12 14  1  0  0  0  0
 13  3  2  0  0  0  0
 14 15  1  0  0  0  0
 15 13  1  0  0  0  0
 15  1  2  0  0  0  0
 16 17  2  0  0  0  0
 16 11  1  0  0  0  0
 18 16  2  0  0  0  0
 19 20  1  0  0  0  0
 22 31  1  0  0  0  0
 23 30  1  0  0  0  0
 24 25  1  0  0  0  0
 25 26  2  0  0  0  0
 26 22  1  0  0  0  0
 27 28  1  0  0  0  0
 28 23  2  0  0  0  0
 28 26  1  0  0  0  0
 29 27  1  0  0  0  0
 29 24  2  0  0  0  0
 30 21  1  0  0  0  0
 30 31  2  0  0  0  0
 32 34  1  0  0  0  0
 32 24  1  0  0  0  0
 33 32  1  0  0  0  0
M  END
>  <MODEL>
6

>  <REMARK>
 VINA RESULT:      -7.8      3.528      4.779
  Name = 
  5 active torsions:
  status: ('A' for Active; 'I' for Inactive)
    1  A    between atoms: N_3  and  C_25
    2  A    between atoms: C_7  and  N_11
    3  A    between atoms: C_8  and  O_18
    4  A    between atoms: C_10  and  C_12
    5  A    between atoms: O_18  and  C_30
                            x       y       z     vdW  Elec       q    Type
                         _______ _______ _______ _____ _____    ______ ____

>  <TORSDO>
F 5

$$$$
=
 OpenBabel11052420333D

 34 38  0  0  1  0  0  0  0  0999 V2000
  190.3300  176.5390  145.0440 C   0  0  0  0  0  0  0  0  0  0  0  0
  193.4640  176.6080  146.9880 C   0  0  0  0  0  2  0  0  0  0  0  0
  191.2550  176.6630  147.6570 C   0  0  0  0  0  3  0  0  0  0  0  0
  188.3370  176.0180  143.6020 C   0  0  1  0  0  3  0  0  0  0  0  0
  189.7710  176.5580  143.6370 C   0  0  0  0  0  2  0  0  0  0  0  0
  188.0000  176.9170  145.8790 C   0  0  0  0  0  0  0  0  0  0  0  0
  187.4790  176.6040  144.6910 C   0  0  0  0  0  3  0  0  0  0  0  0
  189.9320  176.7830  147.3920 N   0  0  0  0  0  0  0  0  0  0  0  0
  189.4520  176.7580  146.1240 C   0  0  0  0  0  0  0  0  0  0  0  0
  194.6160  176.7840  146.0590 C   0  0  0  0  0  2  0  0  0  0  0  0
  194.7890  175.6380  145.1260 C   0  0  0  0  0  0  0  0  0  0  0  0
  193.8190  175.3050  144.2780 C   0  0  0  0  0  3  0  0  0  0  0  0
  192.1830  176.4870  146.6280 C   0  0  0  0  0  0  0  0  0  0  0  0
  192.4400  175.8270  144.2750 C   0  0  0  0  0  2  0  0  0  0  0  0
  191.7080  176.3290  145.2920 C   0  0  0  0  0  0  0  0  0  0  0  0
  196.0680  174.9950  145.0290 N   0  0  0  0  0  0  0  0  0  0  0  0
  196.8440  175.2720  144.0910 O   0  0  0  0  0  0  0  0  0  0  0  0
  196.4670  174.0820  145.9790 O   0  0  0  0  0  0  0  0  0  0  0  0
  187.0950  177.4160  146.9540 C   0  0  0  0  0  2  0  0  0  0  0  0
  186.2400  178.3900  146.4370 O   0  0  0  0  0  1  0  0  0  0  0  0
  187.7410  176.1870  142.3150 O   0  0  0  0  0  0  0  0  0  0  0  0
  187.8140  175.0290  138.8440 O   0  0  0  0  0  0  0  0  0  0  0  0
  188.8410  174.1600  141.2900 C   0  0  0  0  0  3  0  0  0  0  0  0
  189.6230  171.9050  137.8480 C   0  0  0  0  0  0  0  0  0  0  0  0
  188.8190  173.1480  137.8080 C   0  0  0  0  0  3  0  0  0  0  0  0
  188.5760  173.8580  138.9070 C   0  0  2  0  0  3  0  0  0  0  0  0
  189.9300  172.1740  140.3340 C   0  0  0  0  0  3  0  0  0  0  0  0
  189.1060  173.4220  140.2110 C   0  0  0  0  0  0  0  0  0  0  0  0
  190.1270  171.4680  139.0150 C   0  0  0  0  0  3  0  0  0  0  0  0
  188.0290  175.3990  141.1910 C   0  0  0  0  0  0  0  0  0  0  0  0
  187.5540  175.7810  139.9990 C   0  0  0  0  0  3  0  0  0  0  0  0
  189.8610  171.1660  136.6340 N   0  0  0  0  0  0  0  0  0  0  0  0
  190.5810  169.9000  136.6400 C   0  0  0  0  0  1  0  0  0  0  0  0
  189.3880  171.6630  135.3510 C   0  0  0  0  0  1  0  0  0  0  0  0
  1 15  2  0  0  0  0
  1  9  1  0  0  0  0
  4 21  1  6  0  0  0
  4  5  1  0  0  0  0
  4  7  1  0  0  0  0
  5  1  1  0  0  0  0
  6  9  1  0  0  0  0
  6 19  1  0  0  0  0
  7  6  2  0  0  0  0
  8  3  1  0  0  0  0
  9  8  2  0  0  0  0
 10  2  1  0  0  0  0
 11 10  1  0  0  0  0
 12 11  2  0  0  0  0
 13  2  1  0  0  0  0
 13  3  2  0  0  0  0
 14 12  1  0  0  0  0
 14 15  1  0  0  0  0
 15 13  1  0  0  0  0
 16 11  1  0  0  0  0
 16 18  2  0  0  0  0
 17 16  2  0  0  0  0
 20 19  1  0  0  0  0
 22 26  1  0  0  0  0
 22 31  1  0  0  0  0
 24 29  1  0  0  0  0
 25 24  2  0  0  0  0
 26 25  1  1  0  0  0
 26 28  1  0  0  0  0
 28 27  1  0  0  0  0
 28 23  2  0  0  0  0
 29 27  2  0  0  0  0
 30 23  1  0  0  0  0
 30 21  1  0  0  0  0
 31 30  2  0  0  0  0
 32 33  1  0  0  0  0
 32 24  1  0  0  0  0
 34 32  1  0  0  0  0
M  END
>  <MODEL>
7

>  <REMARK>
 VINA RESULT:      -7.8      4.177      5.959
  Name = 
  5 active torsions:
  status: ('A' for Active; 'I' for Inactive)
    1  A    between atoms: N_3  and  C_25
    2  A    between atoms: C_7  and  N_11
    3  A    between atoms: C_8  and  O_18
    4  A    between atoms: C_10  and  C_12
    5  A    between atoms: O_18  and  C_30
                            x       y       z     vdW  Elec       q    Type
                         _______ _______ _______ _____ _____    ______ ____

>  <TORSDO>
F 5

$$$$
=
 OpenBabel11052420333D

 34 38  0  0  1  0  0  0  0  0999 V2000
  194.5840  175.1440  142.9000 C   0  0  0  0  0  0  0  0  0  0  0  0
  197.4010  175.7200  140.5900 C   0  0  0  0  0  2  0  0  0  0  0  0
  197.0710  176.3680  142.7810 C   0  0  0  0  0  3  0  0  0  0  0  0
  192.8080  174.2650  144.4490 C   0  0  1  0  0  3  0  0  0  0  0  0
  193.1870  174.5680  142.9940 C   0  0  0  0  0  2  0  0  0  0  0  0
  194.2170  176.1690  145.1560 C   0  0  0  0  0  0  0  0  0  0  0  0
  193.1480  175.4010  145.3760 C   0  0  0  0  0  3  0  0  0  0  0  0
  196.2850  176.5190  143.8740 N   0  0  0  0  0  0  0  0  0  0  0  0
  195.0520  175.9590  143.9500 C   0  0  0  0  0  0  0  0  0  0  0  0
  197.0100  175.2860  139.2190 C   0  0  0  0  0  2  0  0  0  0  0  0
  196.7530  173.8230  139.1250 C   0  0  0  0  0  0  0  0  0  0  0  0
  195.7990  173.2570  139.8600 C   0  0  0  0  0  3  0  0  0  0  0  0
  196.6470  175.6090  141.6880 C   0  0  0  0  0  0  0  0  0  0  0  0
  195.0500  173.8880  140.9620 C   0  0  0  0  0  2  0  0  0  0  0  0
  195.4120  174.9000  141.7780 C   0  0  0  0  0  0  0  0  0  0  0  0
  197.4260  173.0520  138.1200 N   0  0  0  0  0  0  0  0  0  0  0  0
  197.8330  173.5970  137.0730 O   0  0  0  0  0  0  0  0  0  0  0  0
  197.6520  171.7060  138.3050 O   0  0  0  0  0  0  0  0  0  0  0  0
  194.5600  177.2290  146.1470 C   0  0  0  0  0  2  0  0  0  0  0  0
  193.6860  177.1600  147.2320 O   0  0  0  0  0  1  0  0  0  0  0  0
  191.4380  173.8810  144.5680 O   0  0  0  0  0  0  0  0  0  0  0  0
  188.8820  176.1210  143.2070 O   0  0  0  0  0  0  0  0  0  0  0  0
  189.6250  175.1940  145.7350 C   0  0  0  0  0  3  0  0  0  0  0  0
  186.3960  177.8420  145.4160 C   0  0  0  0  0  0  0  0  0  0  0  0
  187.1550  177.3820  144.2310 C   0  0  0  0  0  3  0  0  0  0  0  0
  188.1800  176.5400  144.3420 C   0  0  2  0  0  3  0  0  0  0  0  0
  187.8740  176.4550  146.9110 C   0  0  0  0  0  3  0  0  0  0  0  0
  188.5940  176.0360  145.6640 C   0  0  0  0  0  0  0  0  0  0  0  0
  186.7360  177.4090  146.6420 C   0  0  0  0  0  3  0  0  0  0  0  0
  190.3520  174.7660  144.5120 C   0  0  0  0  0  0  0  0  0  0  0  0
  189.9640  175.2340  143.3190 C   0  0  0  0  0  3  0  0  0  0  0  0
  185.2930  178.7550  145.2510 N   0  0  0  0  0  0  0  0  0  0  0  0
  185.3260  179.8200  144.2590 C   0  0  0  0  0  1  0  0  0  0  0  0
  184.0990  178.6430  146.0750 C   0  0  0  0  0  1  0  0  0  0  0  0
  1  5  1  0  0  0  0
  1  9  1  0  0  0  0
  2 13  1  0  0  0  0
  3  8  1  0  0  0  0
  4 21  1  6  0  0  0
  4  7  1  0  0  0  0
  5  4  1  0  0  0  0
  6  7  2  0  0  0  0
  6 19  1  0  0  0  0
  8  9  2  0  0  0  0
  9  6  1  0  0  0  0
 10  2  1  0  0  0  0
 11 10  1  0  0  0  0
 11 12  2  0  0  0  0
 12 14  1  0  0  0  0
 13 15  1  0  0  0  0
 13  3  2  0  0  0  0
 14 15  1  0  0  0  0
 15  1  2  0  0  0  0
 16 18  2  0  0  0  0
 16 11  1  0  0  0  0
 17 16  2  0  0  0  0
 19 20  1  0  0  0  0
 22 31  1  0  0  0  0
 22 26  1  0  0  0  0
 24 29  1  0  0  0  0
 25 24  2  0  0  0  0
 26 25  1  1  0  0  0
 26 28  1  0  0  0  0
 28 23  2  0  0  0  0
 28 27  1  0  0  0  0
 29 27  2  0  0  0  0
 30 21  1  0  0  0  0
 30 23  1  0  0  0  0
 31 30  2  0  0  0  0
 32 24  1  0  0  0  0
 32 34  1  0  0  0  0
 33 32  1  0  0  0  0
M  END
>  <MODEL>
8

>  <REMARK>
 VINA RESULT:      -7.7      3.616      6.424
  Name = 
  5 active torsions:
  status: ('A' for Active; 'I' for Inactive)
    1  A    between atoms: N_3  and  C_25
    2  A    between atoms: C_7  and  N_11
    3  A    between atoms: C_8  and  O_18
    4  A    between atoms: C_10  and  C_12
    5  A    between atoms: O_18  and  C_30
                            x       y       z     vdW  Elec       q    Type
                         _______ _______ _______ _____ _____    ______ ____

>  <TORSDO>
F 5

$$$$
=
 OpenBabel11052420333D

 34 38  0  0  1  0  0  0  0  0999 V2000
  187.6930  175.5230  141.8360 C   0  0  0  0  0  0  0  0  0  0  0  0
  186.0310  178.7540  142.4740 C   0  0  0  0  0  2  0  0  0  0  0  0
  186.3100  177.5430  140.5280 C   0  0  0  0  0  3  0  0  0  0  0  0
  188.4480  173.1300  141.6820 C   0  0  1  0  0  3  0  0  0  0  0  0
  188.5240  174.4360  142.4820 C   0  0  0  0  0  2  0  0  0  0  0  0
  188.1960  174.4700  139.6210 C   0  0  0  0  0  0  0  0  0  0  0  0
  188.6340  173.3530  140.2050 C   0  0  0  0  0  3  0  0  0  0  0  0
  186.8720  176.5300  139.8250 N   0  0  0  0  0  0  0  0  0  0  0  0
  187.5800  175.5450  140.4310 C   0  0  0  0  0  0  0  0  0  0  0  0
  186.3350  179.1980  143.8630 C   0  0  0  0  0  2  0  0  0  0  0  0
  185.7750  178.2890  144.8990 C   0  0  0  0  0  0  0  0  0  0  0  0
  186.1460  177.0110  144.9470 C   0  0  0  0  0  3  0  0  0  0  0  0
  186.4240  177.6030  141.9190 C   0  0  0  0  0  0  0  0  0  0  0  0
  186.9330  176.2880  143.9310 C   0  0  0  0  0  2  0  0  0  0  0  0
  187.0510  176.5230  142.6070 C   0  0  0  0  0  0  0  0  0  0  0  0
  184.9600  178.8300  145.9480 N   0  0  0  0  0  0  0  0  0  0  0  0
  183.7360  179.0020  145.7720 O   0  0  0  0  0  0  0  0  0  0  0  0
  185.5110  179.1450  147.1700 O   0  0  0  0  0  0  0  0  0  0  0  0
  188.3270  174.6080  138.1420 C   0  0  0  0  0  2  0  0  0  0  0  0
  189.4730  173.9430  137.7050 O   0  0  0  0  0  1  0  0  0  0  0  0
  189.3570  172.1500  142.1840 O   0  0  0  0  0  0  0  0  0  0  0  0
  192.0700  172.2870  144.6380 O   0  0  0  0  0  0  0  0  0  0  0  0
  191.6570  173.1770  142.0240 C   0  0  0  0  0  3  0  0  0  0  0  0
  195.3320  173.9610  143.8740 C   0  0  0  0  0  0  0  0  0  0  0  0
  194.2460  173.2270  144.5630 C   0  0  0  0  0  3  0  0  0  0  0  0
  193.0810  172.9820  143.9670 C   0  0  0  0  0  0  0  0  0  0  0  0
  193.8880  174.1910  141.8230 C   0  0  0  0  0  2  0  0  0  0  0  0
  192.8370  173.4410  142.5880 C   0  0  0  0  0  0  0  0  0  0  0  0
  195.1550  174.3990  142.6160 C   0  0  0  0  0  3  0  0  0  0  0  0
  190.6030  172.4370  142.7620 C   0  0  0  0  0  0  0  0  0  0  0  0
  190.8410  172.0270  144.0140 C   0  0  0  0  0  3  0  0  0  0  0  0
  196.5780  174.2050  144.5580 N   0  0  0  0  0  0  0  0  0  0  0  0
  197.6970  174.8580  143.8940 C   0  0  0  0  0  1  0  0  0  0  0  0
  196.7610  173.8030  145.9440 C   0  0  0  0  0  1  0  0  0  0  0  0
  1  5  1  0  0  0  0
  1 15  1  0  0  0  0
  2 10  1  0  0  0  0
  3 13  1  0  0  0  0
  4 21  1  1  0  0  0
  4  5  1  0  0  0  0
  6  7  2  0  0  0  0
  6  9  1  0  0  0  0
  7  4  1  0  0  0  0
  8  9  1  0  0  0  0
  8  3  2  0  0  0  0
  9  1  2  0  0  0  0
 10 11  1  0  0  0  0
 11 12  2  0  0  0  0
 11 16  1  0  0  0  0
 13  2  1  0  0  0  0
 13 15  2  0  0  0  0
 14 12  1  0  0  0  0
 15 14  1  0  0  0  0
 16 18  2  0  0  0  0
 17 16  2  0  0  0  0
 19  6  1  0  0  0  0
 20 19  1  0  0  0  0
 21 30  1  0  0  0  0
 23 28  2  0  0  0  0
 23 30  1  0  0  0  0
 24 32  1  0  0  0  0
 24 25  1  0  0  0  0
 26 25  2  0  0  0  0
 26 22  1  0  0  0  0
 27 28  1  0  0  0  0
 27 29  1  0  0  0  0
 28 26  1  0  0  0  0
 29 24  2  0  0  0  0
 30 31  2  0  0  0  0
 31 22  1  0  0  0  0
 32 34  1  0  0  0  0
 33 32  1  0  0  0  0
M  END
>  <MODEL>
9

>  <REMARK>
 VINA RESULT:      -7.6      4.023     10.403
  Name = 
  5 active torsions:
  status: ('A' for Active; 'I' for Inactive)
    1  A    between atoms: N_3  and  C_25
    2  A    between atoms: C_7  and  N_11
    3  A    between atoms: C_8  and  O_18
    4  A    between atoms: C_10  and  C_12
    5  A    between atoms: O_18  and  C_30
                            x       y       z     vdW  Elec       q    Type
                         _______ _______ _______ _____ _____    ______ ____

>  <TORSDO>
F 5

$$$$
