=
 OpenBabel11052419443D

 55 60  0  0  1  0  0  0  0  0999 V2000
  195.8830  176.4160  142.3690 N   0  0  0  0  0  0  0  0  0  0  0  0
  196.2220  174.9080  144.6580 C   0  0  0  0  0  0  0  0  0  0  0  0
  194.9440  175.3230  144.2740 C   0  0  0  0  0  3  0  0  0  0  0  0
  197.1340  176.0170  142.7240 C   0  0  0  0  0  3  0  0  0  0  0  0
  194.7920  176.0830  143.1130 C   0  0  0  0  0  0  0  0  0  0  0  0
  197.3260  175.2550  143.8780 C   0  0  0  0  0  3  0  0  0  0  0  0
  193.4480  176.5830  142.7250 C   0  0  0  0  0  2  0  0  0  0  0  0
  192.6750  176.9820  143.9730 C   0  0  0  0  0  2  0  0  0  0  0  0
  190.2520  172.4620  144.1660 C   0  0  0  0  0  2  0  0  0  0  0  0
  190.1400  170.7260  142.3800 C   0  0  0  0  0  1  0  0  0  0  0  0
  190.1340  174.0940  142.5490 C   0  0  0  0  0  0  0  0  0  0  0  0
  189.4740  173.0050  142.0240 O   0  0  0  0  0  0  0  0  0  0  0  0
  189.4510  171.9410  142.9650 C   0  0  2  0  0  3  0  0  0  0  0  0
  190.5640  173.8650  143.7680 C   0  0  0  0  0  0  0  0  0  0  0  0
  190.4840  176.5580  142.7690 C   0  0  2  0  0  3  0  0  0  0  0  0
  190.3950  175.3630  141.8080 C   0  0  0  0  0  2  0  0  0  0  0  0
  191.4260  174.8350  144.5260 C   0  0  1  0  0  3  0  0  0  0  0  0
  191.3130  176.3030  144.0470 C   0  0  1  0  0  3  0  0  0  0  0  0
  188.3260  177.5660  142.0270 C   0  0  0  0  0  3  0  0  0  0  0  0
  186.6400  178.3140  143.6070 C   0  0  0  0  0  0  0  0  0  0  0  0
  188.7120  177.3270  144.4040 C   0  0  0  0  0  3  0  0  0  0  0  0
  187.4660  177.9040  144.6640 C   0  0  0  0  0  3  0  0  0  0  0  0
  187.0790  178.1430  142.2870 C   0  0  0  0  0  3  0  0  0  0  0  0
  189.1460  177.1540  143.0810 C   0  0  0  0  0  0  0  0  0  0  0  0
  185.3300  178.9240  143.8750 C   0  0  0  0  0  0  0  0  0  0  0  0
  184.2770  178.2370  143.7980 O   0  0  0  0  0  0  0  0  0  0  0  0
  185.2400  180.2690  144.2210 O   0  0  0  0  0  1  0  0  0  0  0  0
  192.7490  174.7060  146.6730 C   0  0  0  0  0  1  0  0  0  0  0  0
  191.3630  174.6520  146.0560 C   0  0  1  0  0  3  0  0  0  0  0  0
  189.1240  174.7870  147.3010 C   0  0  0  0  0  1  0  0  0  0  0  0
  190.3680  175.5270  146.8370 C   0  0  0  0  0  3  0  0  0  0  0  0
  191.0170  176.2600  147.9910 C   0  0  0  0  0  1  0  0  0  0  0  0
  196.4150  174.1020  145.9000 C   0  0  0  0  0  2  0  0  0  0  0  0
  197.2440  172.8500  145.6270 C   0  0  0  0  0  2  0  0  0  0  0  0
  196.4470  170.5190  146.0600 C   0  0  0  0  0  1  0  0  0  0  0  0
  196.3690  171.7070  145.1180 C   0  0  2  0  0  3  0  0  0  0  0  0
  196.7220  171.3120  143.6840 C   0  0  0  0  0  2  0  0  0  0  0  0
  195.5430  170.6770  142.9480 C   0  0  0  0  0  2  0  0  0  0  0  0
  194.9980  172.1740  138.5430 C   0  0  2  0  0  3  0  0  0  0  0  0
  194.3580  170.8150  140.7110 C   0  0  1  0  0  3  0  0  0  0  0  0
  193.6730  172.2140  142.6810 C   0  0  0  0  0  1  0  0  0  0  0  0
  196.9290  171.4340  139.8890 O   0  0  0  0  0  0  0  0  0  0  0  0
  196.3050  171.3550  138.6130 C   0  0  0  0  0  2  0  0  0  0  0  0
  194.8620  171.6180  141.9470 C   0  0  1  0  0  0  0  0  0  0  0  0
  196.5200  173.8520  139.4840 C   0  0  0  0  0  2  0  0  0  0  0  0
  195.2340  173.6050  138.8210 N   0  0  0  0  0  0  0  0  0  0  0  0
  195.8040  172.8010  141.6370 C   0  0  0  0  0  2  0  0  0  0  0  0
  193.3730  169.7040  141.0620 C   0  0  0  0  0  1  0  0  0  0  0  0
  196.8230  172.7260  140.4810 C   0  0  1  0  0  3  0  0  0  0  0  0
  193.8980  171.5850  139.4530 C   0  0  1  0  0  3  0  0  0  0  0  0
  192.6550  172.4140  139.5970 C   0  0  0  0  0  0  0  0  0  0  0  0
  192.7040  173.5670  140.1010 O   0  0  0  0  0  0  0  0  0  0  0  0
  191.4070  171.8840  139.1710 N   0  0  0  0  0  1  0  0  0  0  0  0
  195.1930  174.3500  137.5640 C   0  0  0  0  0  2  0  0  0  0  0  0
  193.8830  174.6970  137.2210 O   0  0  0  0  0  1  0  0  0  0  0  0
  1  4  2  0  0  0  0
  1  5  1  0  0  0  0
  2 33  1  0  0  0  0
  3  2  1  0  0  0  0
  4  6  1  0  0  0  0
  5  3  2  0  0  0  0
  6  2  2  0  0  0  0
  7  5  1  0  0  0  0
  7  8  1  0  0  0  0
 11 14  2  0  0  0  0
 12 11  1  0  0  0  0
 12 13  1  0  0  0  0
 13 10  1  6  0  0  0
 13  9  1  0  0  0  0
 14  9  1  0  0  0  0
 14 17  1  0  0  0  0
 15 24  1  1  0  0  0
 15 18  1  0  0  0  0
 16 11  1  0  0  0  0
 16 15  1  0  0  0  0
 17 29  1  1  0  0  0
 18  8  1  6  0  0  0
 18 17  1  0  0  0  0
 19 23  2  0  0  0  0
 19 24  1  0  0  0  0
 20 25  1  0  0  0  0
 20 22  2  0  0  0  0
 21 22  1  0  0  0  0
 23 20  1  0  0  0  0
 24 21  2  0  0  0  0
 25 27  1  0  0  0  0
 26 25  2  0  0  0  0
 29 28  1  1  0  0  0
 29 31  1  0  0  0  0
 31 30  1  0  0  0  0
 31 32  1  0  0  0  0
 34 33  1  0  0  0  0
 36 34  1  0  0  0  0
 36 35  1  1  0  0  0
 37 36  1  0  0  0  0
 38 37  1  0  0  0  0
 39 43  1  1  0  0  0
 39 46  1  0  0  0  0
 39 50  1  0  0  0  0
 40 48  1  1  0  0  0
 40 44  1  0  0  0  0
 42 49  1  0  0  0  0
 43 42  1  0  0  0  0
 44 41  1  1  0  0  0
 44 38  1  0  0  0  0
 46 45  1  0  0  0  0
 47 44  1  0  0  0  0
 49 45  1  6  0  0  0
 49 47  1  0  0  0  0
 50 51  1  1  0  0  0
 50 40  1  0  0  0  0
 51 52  2  0  0  0  0
 53 51  1  0  0  0  0
 54 46  1  0  0  0  0
 55 54  1  0  0  0  0
M  END
>  <MODEL>
1

>  <REMARK>
 VINA RESULT:      -6.9      0.000      0.000
  Name = 
  15 active torsions:
  status: ('A' for Active; 'I' for Inactive)
    1  A    between atoms: C_1  and  C_53
    2  A    between atoms: C_2  and  C_28
    3  A    between atoms: C_2  and  C_49
    4  A    between atoms: C_8  and  C_20
    5  A    between atoms: C_8  and  C_22
    6  A    between atoms: C_10  and  C_32
    7  A    between atoms: C_11  and  N_38
    8  A    between atoms: C_19  and  C_40
    9  A    between atoms: C_22  and  C_43
   10  A    between atoms: C_27  and  C_54
   11  A    between atoms: C_28  and  C_44
   12  A    between atoms: C_33  and  C_52
   13  A    between atoms: C_40  and  C_45
   14  A    between atoms: C_43  and  C_51
   15  A    between atoms: C_51  and  C_54
                            x       y       z     vdW  Elec       q    Type
                         _______ _______ _______ _____ _____    ______ ____

>  <TORSDO>
F 15

$$$$
=
 OpenBabel11052419443D

 55 60  0  0  1  0  0  0  0  0999 V2000
  194.9340  176.7820  142.3600 N   0  0  0  0  0  0  0  0  0  0  0  0
  195.3760  175.3590  144.6860 C   0  0  0  0  0  0  0  0  0  0  0  0
  194.0750  175.7160  144.3180 C   0  0  0  0  0  3  0  0  0  0  0  0
  196.2060  176.4400  142.7000 C   0  0  0  0  0  3  0  0  0  0  0  0
  193.8720  176.4330  143.1380 C   0  0  0  0  0  0  0  0  0  0  0  0
  196.4490  175.7220  143.8720 C   0  0  0  0  0  3  0  0  0  0  0  0
  192.5010  176.8700  142.7640 C   0  0  0  0  0  2  0  0  0  0  0  0
  191.7300  177.2480  144.0200 C   0  0  0  0  0  2  0  0  0  0  0  0
  189.0180  173.0870  142.7270 C   0  0  0  0  0  2  0  0  0  0  0  0
  188.4400  172.3090  140.4300 C   0  0  0  0  0  1  0  0  0  0  0  0
  188.7420  175.2620  142.0300 C   0  0  0  0  0  0  0  0  0  0  0  0
  187.9110  174.5090  141.2310 O   0  0  0  0  0  0  0  0  0  0  0  0
  187.9720  173.1400  141.6060 C   0  0  2  0  0  3  0  0  0  0  0  0
  189.3670  174.5240  142.9190 C   0  0  0  0  0  0  0  0  0  0  0  0
  189.3290  177.3820  143.2150 C   0  0  2  0  0  3  0  0  0  0  0  0
  188.9680  176.7290  141.8730 C   0  0  0  0  0  2  0  0  0  0  0  0
  190.4290  175.0690  143.8320 C   0  0  1  0  0  3  0  0  0  0  0  0
  190.3530  176.5980  144.0650 C   0  0  1  0  0  3  0  0  0  0  0  0
  188.0590  177.4070  145.3620 C   0  0  0  0  0  3  0  0  0  0  0  0
  185.8720  178.4470  145.5560 C   0  0  0  0  0  0  0  0  0  0  0  0
  187.0560  178.4760  143.4350 C   0  0  0  0  0  3  0  0  0  0  0  0
  185.9380  178.8110  144.2030 C   0  0  0  0  0  3  0  0  0  0  0  0
  186.9390  177.7430  146.1300 C   0  0  0  0  0  3  0  0  0  0  0  0
  188.1230  177.7730  144.0150 C   0  0  0  0  0  0  0  0  0  0  0  0
  184.6960  178.7950  146.3670 C   0  0  0  0  0  0  0  0  0  0  0  0
  184.7860  178.8760  147.6210 O   0  0  0  0  0  1  0  0  0  0  0  0
  183.4710  179.0410  145.7560 O   0  0  0  0  0  0  0  0  0  0  0  0
  191.8980  173.4000  145.0300 C   0  0  0  0  0  1  0  0  0  0  0  0
  190.6320  174.2320  145.1120 C   0  0  1  0  0  3  0  0  0  0  0  0
  189.3370  174.5380  147.3050 C   0  0  0  0  0  1  0  0  0  0  0  0
  190.5270  174.9630  146.4620 C   0  0  0  0  0  3  0  0  0  0  0  0
  191.8080  174.8880  147.2660 C   0  0  0  0  0  1  0  0  0  0  0  0
  195.6240  174.6000  145.9470 C   0  0  0  0  0  2  0  0  0  0  0  0
  196.2350  173.2310  145.6610 C   0  0  0  0  0  2  0  0  0  0  0  0
  194.8630  171.1820  146.0830 C   0  0  0  0  0  1  0  0  0  0  0  0
  195.1970  172.2720  145.0820 C   0  0  2  0  0  3  0  0  0  0  0  0
  195.6440  171.6880  143.7410 C   0  0  0  0  0  2  0  0  0  0  0  0
  195.2820  172.5910  142.5630 C   0  0  0  0  0  2  0  0  0  0  0  0
  193.2210  172.4980  138.3570 C   0  0  2  0  0  3  0  0  0  0  0  0
  194.8960  171.6860  140.2260 C   0  0  1  0  0  3  0  0  0  0  0  0
  193.8200  170.6680  142.2530 C   0  0  0  0  0  1  0  0  0  0  0  0
  194.0420  174.2920  139.8390 O   0  0  0  0  0  0  0  0  0  0  0  0
  193.9760  173.8380  138.4930 C   0  0  0  0  0  2  0  0  0  0  0  0
  194.2480  171.9780  141.6120 C   0  0  1  0  0  0  0  0  0  0  0  0
  191.6150  173.7740  139.7020 C   0  0  0  0  0  2  0  0  0  0  0  0
  191.8330  172.6000  138.8480 N   0  0  0  0  0  0  0  0  0  0  0  0
  192.9880  172.8690  141.5860 C   0  0  0  0  0  2  0  0  0  0  0  0
  196.0940  170.7430  140.2950 C   0  0  0  0  0  1  0  0  0  0  0  0
  192.8510  174.0260  140.5750 C   0  0  1  0  0  3  0  0  0  0  0  0
  193.9850  171.3360  139.0290 C   0  0  1  0  0  3  0  0  0  0  0  0
  193.2480  170.0310  139.1140 C   0  0  0  0  0  0  0  0  0  0  0  0
  192.1690  169.9410  139.7570 O   0  0  0  0  0  0  0  0  0  0  0  0
  193.7810  168.8820  138.4710 N   0  0  0  0  0  1  0  0  0  0  0  0
  190.9240  172.6660  137.7050 C   0  0  0  0  0  2  0  0  0  0  0  0
  190.7310  171.4040  137.1360 O   0  0  0  0  0  1  0  0  0  0  0  0
  1  4  2  0  0  0  0
  1  5  1  0  0  0  0
  2 33  1  0  0  0  0
  3  2  1  0  0  0  0
  4  6  1  0  0  0  0
  5  3  2  0  0  0  0
  6  2  2  0  0  0  0
  7  5  1  0  0  0  0
  7  8  1  0  0  0  0
  9 14  1  0  0  0  0
 11 14  2  0  0  0  0
 12 13  1  0  0  0  0
 12 11  1  0  0  0  0
 13 10  1  6  0  0  0
 13  9  1  0  0  0  0
 14 17  1  0  0  0  0
 15 24  1  1  0  0  0
 15 18  1  0  0  0  0
 16 11  1  0  0  0  0
 16 15  1  0  0  0  0
 17 18  1  0  0  0  0
 17 29  1  1  0  0  0
 18  8  1  6  0  0  0
 19 23  1  0  0  0  0
 20 23  2  0  0  0  0
 20 25  1  0  0  0  0
 21 24  1  0  0  0  0
 21 22  2  0  0  0  0
 22 20  1  0  0  0  0
 24 19  2  0  0  0  0
 25 26  1  0  0  0  0
 27 25  2  0  0  0  0
 29 28  1  6  0  0  0
 29 31  1  0  0  0  0
 31 32  1  0  0  0  0
 31 30  1  0  0  0  0
 34 33  1  0  0  0  0
 36 34  1  0  0  0  0
 36 35  1  1  0  0  0
 37 36  1  0  0  0  0
 38 37  1  0  0  0  0
 39 43  1  1  0  0  0
 39 46  1  0  0  0  0
 39 50  1  0  0  0  0
 40 48  1  1  0  0  0
 40 44  1  0  0  0  0
 42 49  1  0  0  0  0
 43 42  1  0  0  0  0
 44 41  1  1  0  0  0
 44 38  1  0  0  0  0
 46 45  1  0  0  0  0
 47 44  1  0  0  0  0
 49 45  1  6  0  0  0
 49 47  1  0  0  0  0
 50 51  1  1  0  0  0
 50 40  1  0  0  0  0
 51 52  2  0  0  0  0
 53 51  1  0  0  0  0
 54 46  1  0  0  0  0
 55 54  1  0  0  0  0
M  END
>  <MODEL>
2

>  <REMARK>
 VINA RESULT:      -6.7      1.715      2.424
  Name = 
  15 active torsions:
  status: ('A' for Active; 'I' for Inactive)
    1  A    between atoms: C_1  and  C_53
    2  A    between atoms: C_2  and  C_28
    3  A    between atoms: C_2  and  C_49
    4  A    between atoms: C_8  and  C_20
    5  A    between atoms: C_8  and  C_22
    6  A    between atoms: C_10  and  C_32
    7  A    between atoms: C_11  and  N_38
    8  A    between atoms: C_19  and  C_40
    9  A    between atoms: C_22  and  C_43
   10  A    between atoms: C_27  and  C_54
   11  A    between atoms: C_28  and  C_44
   12  A    between atoms: C_33  and  C_52
   13  A    between atoms: C_40  and  C_45
   14  A    between atoms: C_43  and  C_51
   15  A    between atoms: C_51  and  C_54
                            x       y       z     vdW  Elec       q    Type
                         _______ _______ _______ _____ _____    ______ ____

>  <TORSDO>
F 15

$$$$
=
 OpenBabel11052419443D

 55 60  0  0  1  0  0  0  0  0999 V2000
  194.5810  176.5620  144.1110 N   0  0  0  0  0  0  0  0  0  0  0  0
  196.0310  174.6180  145.4320 C   0  0  0  0  0  0  0  0  0  0  0  0
  194.7610  174.9800  145.8920 C   0  0  0  0  0  3  0  0  0  0  0  0
  195.8120  176.2200  143.6460 C   0  0  0  0  0  3  0  0  0  0  0  0
  194.0430  175.9630  145.2090 C   0  0  0  0  0  0  0  0  0  0  0  0
  196.5610  175.2400  144.3010 C   0  0  0  0  0  3  0  0  0  0  0  0
  192.7180  176.4010  145.7210 C   0  0  0  0  0  2  0  0  0  0  0  0
  191.9640  177.1310  144.6190 C   0  0  0  0  0  2  0  0  0  0  0  0
  189.3050  173.5390  142.0970 C   0  0  0  0  0  2  0  0  0  0  0  0
  188.9180  173.3860  139.6400 C   0  0  0  0  0  1  0  0  0  0  0  0
  189.1300  175.8280  141.9560 C   0  0  0  0  0  0  0  0  0  0  0  0
  188.3590  175.3330  140.9270 O   0  0  0  0  0  0  0  0  0  0  0  0
  188.3620  173.9130  140.9460 C   0  0  2  0  0  3  0  0  0  0  0  0
  189.6610  174.8660  142.6750 C   0  0  0  0  0  0  0  0  0  0  0  0
  189.6460  177.5570  143.6830 C   0  0  2  0  0  3  0  0  0  0  0  0
  189.3940  177.2770  142.1940 C   0  0  0  0  0  2  0  0  0  0  0  0
  190.6480  175.1220  143.7800 C   0  0  1  0  0  3  0  0  0  0  0  0
  190.5780  176.5450  144.3860 C   0  0  1  0  0  3  0  0  0  0  0  0
  187.2960  178.3840  143.8140 C   0  0  0  0  0  3  0  0  0  0  0  0
  185.9980  178.2630  145.8630 C   0  0  0  0  0  0  0  0  0  0  0  0
  188.2770  177.4230  145.8080 C   0  0  0  0  0  3  0  0  0  0  0  0
  187.0910  177.6620  146.5060 C   0  0  0  0  0  3  0  0  0  0  0  0
  186.1090  178.6230  144.5130 C   0  0  0  0  0  3  0  0  0  0  0  0
  188.3830  177.7820  144.4560 C   0  0  0  0  0  0  0  0  0  0  0  0
  184.7490  178.5200  146.5950 C   0  0  0  0  0  0  0  0  0  0  0  0
  184.7220  178.4630  147.8530 O   0  0  0  0  0  1  0  0  0  0  0  0
  183.5830  178.8320  145.9030 O   0  0  0  0  0  0  0  0  0  0  0  0
  189.6450  174.1340  145.8760 C   0  0  0  0  0  1  0  0  0  0  0  0
  190.7220  173.9840  144.8180 C   0  0  1  0  0  3  0  0  0  0  0  0
  192.1230  171.8560  144.5160 C   0  0  0  0  0  1  0  0  0  0  0  0
  190.7870  172.5410  144.2860 C   0  0  0  0  0  3  0  0  0  0  0  0
  189.6500  171.6810  144.7940 C   0  0  0  0  0  1  0  0  0  0  0  0
  196.8260  173.5750  146.1460 C   0  0  0  0  0  2  0  0  0  0  0  0
  197.2770  172.4710  145.1950 C   0  0  0  0  0  2  0  0  0  0  0  0
  196.5680  170.1160  145.6540 C   0  0  0  0  0  1  0  0  0  0  0  0
  196.1790  171.4280  144.9970 C   0  0  2  0  0  3  0  0  0  0  0  0
  195.8330  171.2370  143.5200 C   0  0  0  0  0  2  0  0  0  0  0  0
  194.9260  172.3440  142.9870 C   0  0  0  0  0  2  0  0  0  0  0  0
  192.0980  171.4230  139.3670 C   0  0  2  0  0  3  0  0  0  0  0  0
  193.3520  172.9680  141.1000 C   0  0  1  0  0  3  0  0  0  0  0  0
  195.8480  173.0470  140.8450 C   0  0  0  0  0  1  0  0  0  0  0  0
  192.4740  170.3840  141.5730 O   0  0  0  0  0  0  0  0  0  0  0  0
  191.4860  170.7810  140.6300 C   0  0  0  0  0  2  0  0  0  0  0  0
  194.6980  172.2780  141.4720 C   0  0  1  0  0  0  0  0  0  0  0  0
  193.4430  169.3770  139.5180 C   0  0  0  0  0  2  0  0  0  0  0  0
  193.0130  170.4960  138.6710 N   0  0  0  0  0  0  0  0  0  0  0  0
  194.8540  170.8180  140.9960 C   0  0  0  0  0  2  0  0  0  0  0  0
  193.2730  174.4310  141.5270 C   0  0  0  0  0  1  0  0  0  0  0  0
  193.6480  169.8570  140.9600 C   0  0  1  0  0  3  0  0  0  0  0  0
  192.7770  172.7750  139.6780 C   0  0  1  0  0  3  0  0  0  0  0  0
  193.5620  173.3870  138.5550 C   0  0  0  0  0  0  0  0  0  0  0  0
  194.5360  172.7760  138.0410 O   0  0  0  0  0  0  0  0  0  0  0  0
  193.2080  174.6770  138.0750 N   0  0  0  0  0  1  0  0  0  0  0  0
  192.3460  169.9670  137.4830 C   0  0  0  0  0  2  0  0  0  0  0  0
  193.0540  170.2830  136.3200 O   0  0  0  0  0  1  0  0  0  0  0  0
  1  5  1  0  0  0  0
  2  3  1  0  0  0  0
  2 33  1  0  0  0  0
  4  1  2  0  0  0  0
  4  6  1  0  0  0  0
  5  7  1  0  0  0  0
  5  3  2  0  0  0  0
  6  2  2  0  0  0  0
  8  7  1  0  0  0  0
  9 14  1  0  0  0  0
 11 16  1  0  0  0  0
 11 14  2  0  0  0  0
 12 13  1  0  0  0  0
 12 11  1  0  0  0  0
 13 10  1  6  0  0  0
 13  9  1  0  0  0  0
 14 17  1  0  0  0  0
 15 18  1  0  0  0  0
 15 24  1  1  0  0  0
 16 15  1  0  0  0  0
 17 18  1  0  0  0  0
 17 29  1  1  0  0  0
 18  8  1  6  0  0  0
 19 24  2  0  0  0  0
 19 23  1  0  0  0  0
 20 22  1  0  0  0  0
 20 25  1  0  0  0  0
 21 22  2  0  0  0  0
 23 20  2  0  0  0  0
 24 21  1  0  0  0  0
 25 26  1  0  0  0  0
 27 25  2  0  0  0  0
 29 28  1  1  0  0  0
 31 30  1  0  0  0  0
 31 32  1  0  0  0  0
 31 29  1  0  0  0  0
 34 33  1  0  0  0  0
 36 34  1  0  0  0  0
 36 35  1  6  0  0  0
 37 36  1  0  0  0  0
 38 37  1  0  0  0  0
 39 50  1  0  0  0  0
 39 43  1  1  0  0  0
 40 44  1  0  0  0  0
 40 48  1  6  0  0  0
 43 42  1  0  0  0  0
 44 41  1  6  0  0  0
 44 38  1  0  0  0  0
 46 39  1  0  0  0  0
 46 45  1  0  0  0  0
 47 44  1  0  0  0  0
 49 45  1  6  0  0  0
 49 47  1  0  0  0  0
 49 42  1  0  0  0  0
 50 51  1  6  0  0  0
 50 40  1  0  0  0  0
 52 51  2  0  0  0  0
 53 51  1  0  0  0  0
 54 46  1  0  0  0  0
 55 54  1  0  0  0  0
M  END
>  <MODEL>
3

>  <REMARK>
 VINA RESULT:      -6.4      1.822      2.936
  Name = 
  15 active torsions:
  status: ('A' for Active; 'I' for Inactive)
    1  A    between atoms: C_1  and  C_53
    2  A    between atoms: C_2  and  C_28
    3  A    between atoms: C_2  and  C_49
    4  A    between atoms: C_8  and  C_20
    5  A    between atoms: C_8  and  C_22
    6  A    between atoms: C_10  and  C_32
    7  A    between atoms: C_11  and  N_38
    8  A    between atoms: C_19  and  C_40
    9  A    between atoms: C_22  and  C_43
   10  A    between atoms: C_27  and  C_54
   11  A    between atoms: C_28  and  C_44
   12  A    between atoms: C_33  and  C_52
   13  A    between atoms: C_40  and  C_45
   14  A    between atoms: C_43  and  C_51
   15  A    between atoms: C_51  and  C_54
                            x       y       z     vdW  Elec       q    Type
                         _______ _______ _______ _____ _____    ______ ____

>  <TORSDO>
F 15

$$$$
=
 OpenBabel11052419443D

 55 60  0  0  1  0  0  0  0  0999 V2000
  193.3460  177.2090  145.4480 N   0  0  0  0  0  0  0  0  0  0  0  0
  193.9180  174.5630  144.9020 C   0  0  0  0  0  0  0  0  0  0  0  0
  193.1910  175.3270  143.9850 C   0  0  0  0  0  3  0  0  0  0  0  0
  194.0590  176.4830  146.3500 C   0  0  0  0  0  3  0  0  0  0  0  0
  192.9130  176.6630  144.2780 C   0  0  0  0  0  0  0  0  0  0  0  0
  194.3580  175.1440  146.0920 C   0  0  0  0  0  3  0  0  0  0  0  0
  192.0890  177.4710  143.3400 C   0  0  0  0  0  2  0  0  0  0  0  0
  190.8240  177.9340  144.0470 C   0  0  0  0  0  2  0  0  0  0  0  0
  189.3550  173.0200  144.2200 C   0  0  0  0  0  2  0  0  0  0  0  0
  190.1360  171.1530  142.7650 C   0  0  0  0  0  1  0  0  0  0  0  0
  189.4460  174.4350  142.4090 C   0  0  0  0  0  0  0  0  0  0  0  0
  189.2010  173.1830  141.8890 O   0  0  0  0  0  0  0  0  0  0  0  0
  189.0830  172.2290  142.9340 C   0  0  2  0  0  3  0  0  0  0  0  0
  189.5080  174.4160  143.7210 C   0  0  0  0  0  0  0  0  0  0  0  0
  189.2420  176.9240  142.3420 C   0  0  2  0  0  3  0  0  0  0  0  0
  189.6840  175.6600  141.5900 C   0  0  0  0  0  2  0  0  0  0  0  0
  189.8900  175.6190  144.5380 C   0  0  1  0  0  3  0  0  0  0  0  0
  189.6600  176.9760  143.8280 C   0  0  1  0  0  3  0  0  0  0  0  0
  187.3140  177.5360  140.8820 C   0  0  0  0  0  3  0  0  0  0  0  0
  185.0740  177.8470  141.7660 C   0  0  0  0  0  0  0  0  0  0  0  0
  186.8990  177.2360  143.2480 C   0  0  0  0  0  3  0  0  0  0  0  0
  185.5500  177.5430  143.0500 C   0  0  0  0  0  3  0  0  0  0  0  0
  185.9640  177.8420  140.6840 C   0  0  0  0  0  3  0  0  0  0  0  0
  187.7870  177.2300  142.1610 C   0  0  0  0  0  0  0  0  0  0  0  0
  183.6560  178.1740  141.5530 C   0  0  0  0  0  0  0  0  0  0  0  0
  183.1620  178.1530  140.3950 O   0  0  0  0  0  0  0  0  0  0  0  0
  182.8440  178.5080  142.6330 O   0  0  0  0  0  1  0  0  0  0  0  0
  190.5110  175.2130  146.9510 C   0  0  0  0  0  1  0  0  0  0  0  0
  189.3860  175.5610  145.9940 C   0  0  1  0  0  3  0  0  0  0  0  0
  187.2100  176.3690  147.0870 C   0  0  0  0  0  1  0  0  0  0  0  0
  188.5620  176.7540  146.5090 C   0  0  0  0  0  3  0  0  0  0  0  0
  189.3340  177.6200  147.4810 C   0  0  0  0  0  1  0  0  0  0  0  0
  194.2230  173.1290  144.6190 C   0  0  0  0  0  2  0  0  0  0  0  0
  195.7190  172.9070  144.4160 C   0  0  0  0  0  2  0  0  0  0  0  0
  196.6200  174.1750  142.4560 C   0  0  0  0  0  1  0  0  0  0  0  0
  196.0720  172.8420  142.9320 C   0  0  2  0  0  3  0  0  0  0  0  0
  194.8860  172.3850  142.0820 C   0  0  0  0  0  2  0  0  0  0  0  0
  195.0060  172.8340  140.6260 C   0  0  0  0  0  2  0  0  0  0  0  0
  192.3430  172.7300  136.7730 C   0  0  2  0  0  3  0  0  0  0  0  0
  193.2400  171.8530  139.0940 C   0  0  1  0  0  3  0  0  0  0  0  0
  192.6540  173.2850  141.0720 C   0  0  0  0  0  1  0  0  0  0  0  0
  194.7060  173.2760  137.2250 O   0  0  0  0  0  0  0  0  0  0  0  0
  193.8200  172.6040  136.3400 C   0  0  0  0  0  2  0  0  0  0  0  0
  193.6560  173.0890  139.9460 C   0  0  1  0  0  0  0  0  0  0  0  0
  193.0350  175.0810  136.8720 C   0  0  0  0  0  2  0  0  0  0  0  0
  191.9090  174.1400  136.8310 N   0  0  0  0  0  0  0  0  0  0  0  0
  193.7110  174.4340  139.1900 C   0  0  0  0  0  2  0  0  0  0  0  0
  193.1280  170.5620  139.9000 C   0  0  0  0  0  1  0  0  0  0  0  0
  194.1740  174.5030  137.7200 C   0  0  1  0  0  3  0  0  0  0  0  0
  192.0660  171.9880  138.0990 C   0  0  1  0  0  3  0  0  0  0  0  0
  190.7070  172.2060  138.6990 C   0  0  0  0  0  0  0  0  0  0  0  0
  190.2870  173.3690  138.9370 O   0  0  0  0  0  0  0  0  0  0  0  0
  189.8920  171.0860  139.0130 N   0  0  0  0  0  1  0  0  0  0  0  0
  191.0820  174.4340  135.6630 C   0  0  0  0  0  2  0  0  0  0  0  0
  190.0950  175.3780  135.9640 O   0  0  0  0  0  1  0  0  0  0  0  0
  1  4  1  0  0  0  0
  2  6  1  0  0  0  0
  3  5  1  0  0  0  0
  3  2  2  0  0  0  0
  5  1  2  0  0  0  0
  6  4  2  0  0  0  0
  7  8  1  0  0  0  0
  7  5  1  0  0  0  0
 11 14  2  0  0  0  0
 12 11  1  0  0  0  0
 12 13  1  0  0  0  0
 13 10  1  6  0  0  0
 13  9  1  0  0  0  0
 14  9  1  0  0  0  0
 14 17  1  0  0  0  0
 15 24  1  1  0  0  0
 15 18  1  0  0  0  0
 16 15  1  0  0  0  0
 16 11  1  0  0  0  0
 17 29  1  1  0  0  0
 18  8  1  6  0  0  0
 18 17  1  0  0  0  0
 19 24  1  0  0  0  0
 20 22  2  0  0  0  0
 22 21  1  0  0  0  0
 23 19  2  0  0  0  0
 23 20  1  0  0  0  0
 24 21  2  0  0  0  0
 25 20  1  0  0  0  0
 25 27  1  0  0  0  0
 26 25  2  0  0  0  0
 29 31  1  0  0  0  0
 29 28  1  1  0  0  0
 31 30  1  0  0  0  0
 31 32  1  0  0  0  0
 33  2  1  0  0  0  0
 34 33  1  0  0  0  0
 36 35  1  6  0  0  0
 36 34  1  0  0  0  0
 37 36  1  0  0  0  0
 38 37  1  0  0  0  0
 39 43  1  1  0  0  0
 39 46  1  0  0  0  0
 39 50  1  0  0  0  0
 40 48  1  1  0  0  0
 40 44  1  0  0  0  0
 42 49  1  0  0  0  0
 43 42  1  0  0  0  0
 44 38  1  0  0  0  0
 44 41  1  1  0  0  0
 46 45  1  0  0  0  0
 47 44  1  0  0  0  0
 49 45  1  6  0  0  0
 49 47  1  0  0  0  0
 50 51  1  1  0  0  0
 50 40  1  0  0  0  0
 51 52  2  0  0  0  0
 51 53  1  0  0  0  0
 54 55  1  0  0  0  0
 54 46  1  0  0  0  0
M  END
>  <MODEL>
4

>  <REMARK>
 VINA RESULT:      -6.2      1.979      2.747
  Name = 
  15 active torsions:
  status: ('A' for Active; 'I' for Inactive)
    1  A    between atoms: C_1  and  C_53
    2  A    between atoms: C_2  and  C_28
    3  A    between atoms: C_2  and  C_49
    4  A    between atoms: C_8  and  C_20
    5  A    between atoms: C_8  and  C_22
    6  A    between atoms: C_10  and  C_32
    7  A    between atoms: C_11  and  N_38
    8  A    between atoms: C_19  and  C_40
    9  A    between atoms: C_22  and  C_43
   10  A    between atoms: C_27  and  C_54
   11  A    between atoms: C_28  and  C_44
   12  A    between atoms: C_33  and  C_52
   13  A    between atoms: C_40  and  C_45
   14  A    between atoms: C_43  and  C_51
   15  A    between atoms: C_51  and  C_54
                            x       y       z     vdW  Elec       q    Type
                         _______ _______ _______ _____ _____    ______ ____

>  <TORSDO>
F 15

$$$$
=
 OpenBabel11052419443D

 55 60  0  0  1  0  0  0  0  0999 V2000
  195.8700  176.5030  142.3450 N   0  0  0  0  0  0  0  0  0  0  0  0
  196.2540  174.8500  144.5240 C   0  0  0  0  0  0  0  0  0  0  0  0
  194.9670  175.2770  144.1850 C   0  0  0  0  0  3  0  0  0  0  0  0
  197.1300  176.0940  142.6560 C   0  0  0  0  0  3  0  0  0  0  0  0
  194.7930  176.1110  143.0790 C   0  0  0  0  0  0  0  0  0  0  0  0
  197.3440  175.2590  143.7550 C   0  0  0  0  0  3  0  0  0  0  0  0
  193.4380  176.6210  142.7430 C   0  0  0  0  0  2  0  0  0  0  0  0
  192.6570  176.8710  144.0240 C   0  0  0  0  0  2  0  0  0  0  0  0
  190.3790  172.2730  144.1490 C   0  0  0  0  0  2  0  0  0  0  0  0
  190.4320  170.5080  142.3900 C   0  0  0  0  0  1  0  0  0  0  0  0
  190.3030  173.8760  142.5010 C   0  0  0  0  0  0  0  0  0  0  0  0
  189.7130  172.7570  141.9570 O   0  0  0  0  0  0  0  0  0  0  0  0
  189.6690  171.7070  142.9130 C   0  0  2  0  0  3  0  0  0  0  0  0
  190.6680  173.6800  143.7470 C   0  0  0  0  0  0  0  0  0  0  0  0
  190.5570  176.3530  142.7000 C   0  0  2  0  0  3  0  0  0  0  0  0
  190.5650  175.1420  141.7560 C   0  0  0  0  0  2  0  0  0  0  0  0
  191.4490  174.6910  144.5390 C   0  0  1  0  0  3  0  0  0  0  0  0
  191.3170  176.1470  144.0290 C   0  0  1  0  0  3  0  0  0  0  0  0
  188.7370  177.9540  142.1100 C   0  0  0  0  0  3  0  0  0  0  0  0
  186.6310  178.0150  143.3170 C   0  0  0  0  0  0  0  0  0  0  0  0
  188.3510  176.4180  143.9400 C   0  0  0  0  0  3  0  0  0  0  0  0
  187.0820  176.9680  144.1350 C   0  0  0  0  0  3  0  0  0  0  0  0
  187.4660  178.5040  142.3050 C   0  0  0  0  0  3  0  0  0  0  0  0
  189.1840  176.9090  142.9230 C   0  0  0  0  0  0  0  0  0  0  0  0
  185.2970  178.6000  143.5210 C   0  0  0  0  0  0  0  0  0  0  0  0
  185.1750  179.7880  143.9200 O   0  0  0  0  0  1  0  0  0  0  0  0
  184.1550  177.8460  143.2710 O   0  0  0  0  0  0  0  0  0  0  0  0
  192.6460  174.6360  146.7620 C   0  0  0  0  0  1  0  0  0  0  0  0
  191.3020  174.5270  146.0650 C   0  0  1  0  0  3  0  0  0  0  0  0
  189.0900  174.5760  147.3640 C   0  0  0  0  0  1  0  0  0  0  0  0
  190.2340  175.3810  146.7710 C   0  0  0  0  0  3  0  0  0  0  0  0
  190.8250  176.3140  147.8070 C   0  0  0  0  0  1  0  0  0  0  0  0
  196.4700  173.9650  145.7070 C   0  0  0  0  0  2  0  0  0  0  0  0
  196.5010  172.4940  145.3020 C   0  0  0  0  0  2  0  0  0  0  0  0
  194.6210  171.0180  146.0420 C   0  0  0  0  0  1  0  0  0  0  0  0
  195.1020  171.9810  144.9710 C   0  0  2  0  0  3  0  0  0  0  0  0
  195.0380  171.3530  143.5790 C   0  0  0  0  0  2  0  0  0  0  0  0
  196.0680  171.9510  142.6220 C   0  0  0  0  0  2  0  0  0  0  0  0
  194.2290  173.5020  138.6020 C   0  0  2  0  0  3  0  0  0  0  0  0
  196.1760  172.9530  140.2960 C   0  0  1  0  0  3  0  0  0  0  0  0
  196.5590  170.5090  140.7220 C   0  0  0  0  0  1  0  0  0  0  0  0
  193.5980  173.6990  140.9800 O   0  0  0  0  0  0  0  0  0  0  0  0
  193.7070  174.3980  139.7470 C   0  0  0  0  0  2  0  0  0  0  0  0
  195.7420  171.7200  141.1420 C   0  0  1  0  0  0  0  0  0  0  0  0
  192.4340  172.0850  139.4900 C   0  0  0  0  0  2  0  0  0  0  0  0
  193.3420  172.3460  138.3660 N   0  0  0  0  0  0  0  0  0  0  0  0
  194.2630  171.3020  141.0050 C   0  0  0  0  0  2  0  0  0  0  0  0
  197.6610  173.2830  140.4070 C   0  0  0  0  0  1  0  0  0  0  0  0
  193.1510  172.3550  140.8190 C   0  0  1  0  0  3  0  0  0  0  0  0
  195.6920  173.0670  138.8330 C   0  0  1  0  0  3  0  0  0  0  0  0
  196.2290  172.0450  137.8730 C   0  0  0  0  0  0  0  0  0  0  0  0
  195.6850  170.9150  137.7640 O   0  0  0  0  0  0  0  0  0  0  0  0
  197.3730  172.3540  137.0890 N   0  0  0  0  0  1  0  0  0  0  0  0
  192.5520  172.5870  137.1610 C   0  0  0  0  0  2  0  0  0  0  0  0
  191.2600  173.0170  137.4770 O   0  0  0  0  0  1  0  0  0  0  0  0
  1  4  2  0  0  0  0
  1  5  1  0  0  0  0
  2 33  1  0  0  0  0
  3  2  1  0  0  0  0
  4  6  1  0  0  0  0
  5  3  2  0  0  0  0
  6  2  2  0  0  0  0
  7  5  1  0  0  0  0
  7  8  1  0  0  0  0
 11 14  2  0  0  0  0
 12 11  1  0  0  0  0
 12 13  1  0  0  0  0
 13 10  1  6  0  0  0
 13  9  1  0  0  0  0
 14  9  1  0  0  0  0
 14 17  1  0  0  0  0
 15 24  1  1  0  0  0
 15 18  1  0  0  0  0
 16 11  1  0  0  0  0
 16 15  1  0  0  0  0
 17 29  1  1  0  0  0
 18  8  1  6  0  0  0
 18 17  1  0  0  0  0
 19 23  2  0  0  0  0
 19 24  1  0  0  0  0
 20 25  1  0  0  0  0
 20 22  2  0  0  0  0
 21 22  1  0  0  0  0
 23 20  1  0  0  0  0
 24 21  2  0  0  0  0
 25 26  1  0  0  0  0
 27 25  2  0  0  0  0
 29 28  1  1  0  0  0
 29 31  1  0  0  0  0
 31 30  1  0  0  0  0
 31 32  1  0  0  0  0
 34 33  1  0  0  0  0
 36 34  1  0  0  0  0
 36 35  1  1  0  0  0
 37 36  1  0  0  0  0
 38 37  1  0  0  0  0
 39 50  1  0  0  0  0
 39 43  1  1  0  0  0
 40 48  1  6  0  0  0
 40 44  1  0  0  0  0
 43 42  1  0  0  0  0
 44 41  1  6  0  0  0
 44 38  1  0  0  0  0
 46 39  1  0  0  0  0
 46 45  1  0  0  0  0
 47 44  1  0  0  0  0
 49 45  1  6  0  0  0
 49 42  1  0  0  0  0
 49 47  1  0  0  0  0
 50 51  1  1  0  0  0
 50 40  1  0  0  0  0
 52 51  2  0  0  0  0
 53 51  1  0  0  0  0
 54 55  1  0  0  0  0
 54 46  1  0  0  0  0
M  END
>  <MODEL>
5

>  <REMARK>
 VINA RESULT:      -6.2      1.137      2.204
  Name = 
  15 active torsions:
  status: ('A' for Active; 'I' for Inactive)
    1  A    between atoms: C_1  and  C_53
    2  A    between atoms: C_2  and  C_28
    3  A    between atoms: C_2  and  C_49
    4  A    between atoms: C_8  and  C_20
    5  A    between atoms: C_8  and  C_22
    6  A    between atoms: C_10  and  C_32
    7  A    between atoms: C_11  and  N_38
    8  A    between atoms: C_19  and  C_40
    9  A    between atoms: C_22  and  C_43
   10  A    between atoms: C_27  and  C_54
   11  A    between atoms: C_28  and  C_44
   12  A    between atoms: C_33  and  C_52
   13  A    between atoms: C_40  and  C_45
   14  A    between atoms: C_43  and  C_51
   15  A    between atoms: C_51  and  C_54
                            x       y       z     vdW  Elec       q    Type
                         _______ _______ _______ _____ _____    ______ ____

>  <TORSDO>
F 15

$$$$
=
 OpenBabel11052419443D

 55 60  0  0  1  0  0  0  0  0999 V2000
  187.5590  176.2710  140.3430 N   0  0  0  0  0  0  0  0  0  0  0  0
  186.2630  176.4740  142.7740 C   0  0  0  0  0  0  0  0  0  0  0  0
  186.9560  175.3060  142.4430 C   0  0  0  0  0  3  0  0  0  0  0  0
  186.8940  177.4180  140.6490 C   0  0  0  0  0  3  0  0  0  0  0  0
  187.6070  175.2230  141.2110 C   0  0  0  0  0  0  0  0  0  0  0  0
  186.2320  177.5390  141.8720 C   0  0  0  0  0  3  0  0  0  0  0  0
  188.2960  173.9660  140.8210 C   0  0  0  0  0  2  0  0  0  0  0  0
  189.0980  173.4390  142.0020 C   0  0  0  0  0  2  0  0  0  0  0  0
  191.2880  170.6520  138.2900 C   0  0  0  0  0  2  0  0  0  0  0  0
  190.7230  168.3210  137.6120 C   0  0  0  0  0  1  0  0  0  0  0  0
  190.8990  170.0800  140.4840 C   0  0  0  0  0  0  0  0  0  0  0  0
  191.3020  168.9180  139.8640 O   0  0  0  0  0  0  0  0  0  0  0  0
  191.6110  169.1670  138.5010 C   0  0  2  0  0  3  0  0  0  0  0  0
  190.9050  171.1020  139.6590 C   0  0  0  0  0  0  0  0  0  0  0  0
  190.7270  171.5580  142.4910 C   0  0  2  0  0  3  0  0  0  0  0  0
  190.4420  170.1690  141.9020 C   0  0  0  0  0  2  0  0  0  0  0  0
  190.3890  172.4620  140.0390 C   0  0  1  0  0  3  0  0  0  0  0  0
  190.3790  172.7420  141.5620 C   0  0  1  0  0  3  0  0  0  0  0  0
  192.4500  170.9240  144.1800 C   0  0  0  0  0  3  0  0  0  0  0  0
  194.6780  171.8910  144.1760 C   0  0  0  0  0  0  0  0  0  0  0  0
  193.0580  172.5460  142.4890 C   0  0  0  0  0  3  0  0  0  0  0  0
  194.3350  172.6500  143.0480 C   0  0  0  0  0  3  0  0  0  0  0  0
  193.7280  171.0280  144.7390 C   0  0  0  0  0  3  0  0  0  0  0  0
  192.1100  171.6790  143.0540 C   0  0  0  0  0  0  0  0  0  0  0  0
  196.0190  171.9990  144.7700 C   0  0  0  0  0  0  0  0  0  0  0  0
  196.2610  171.4950  145.8980 O   0  0  0  0  0  1  0  0  0  0  0  0
  197.0360  172.6590  144.0870 O   0  0  0  0  0  0  0  0  0  0  0  0
  192.4510  173.7890  139.4350 C   0  0  0  0  0  1  0  0  0  0  0  0
  190.9660  173.6040  139.1780 C   0  0  1  0  0  3  0  0  0  0  0  0
  189.2120  173.9120  137.3320 C   0  0  0  0  0  1  0  0  0  0  0  0
  190.6560  173.5840  137.6720 C   0  0  0  0  0  3  0  0  0  0  0  0
  191.6040  174.4500  136.8700 C   0  0  0  0  0  1  0  0  0  0  0  0
  185.5510  176.5870  144.0810 C   0  0  0  0  0  2  0  0  0  0  0  0
  186.0550  177.7800  144.8880 C   0  0  0  0  0  2  0  0  0  0  0  0
  186.5100  178.6780  147.1780 C   0  0  0  0  0  1  0  0  0  0  0  0
  186.1600  177.4400  146.3720 C   0  0  2  0  0  3  0  0  0  0  0  0
  187.1490  176.3020  146.6300 C   0  0  0  0  0  2  0  0  0  0  0  0
  188.5350  176.8130  147.0210 C   0  0  0  0  0  2  0  0  0  0  0  0
  192.3840  177.1020  144.3660 C   0  0  2  0  0  3  0  0  0  0  0  0
  191.0370  176.8040  146.6150 C   0  0  1  0  0  3  0  0  0  0  0  0
  189.6980  174.6870  146.7830 C   0  0  0  0  0  1  0  0  0  0  0  0
  190.2420  178.3240  144.4410 O   0  0  0  0  0  0  0  0  0  0  0  0
  191.6500  178.4580  144.2970 C   0  0  0  0  0  2  0  0  0  0  0  0
  189.6800  176.1190  146.2760 C   0  0  1  0  0  0  0  0  0  0  0  0
  190.6450  176.5800  142.7170 C   0  0  0  0  0  2  0  0  0  0  0  0
  191.9270  176.1790  143.3080 N   0  0  0  0  0  0  0  0  0  0  0  0
  189.3330  176.0320  144.7740 C   0  0  0  0  0  2  0  0  0  0  0  0
  191.3710  176.8010  148.1040 C   0  0  0  0  0  1  0  0  0  0  0  0
  189.7250  177.1610  143.7980 C   0  0  1  0  0  3  0  0  0  0  0  0
  192.2840  176.4620  145.7690 C   0  0  1  0  0  3  0  0  0  0  0  0
  192.8030  175.0600  145.8870 C   0  0  0  0  0  0  0  0  0  0  0  0
  192.0880  174.0770  145.5580 O   0  0  0  0  0  0  0  0  0  0  0  0
  194.1150  174.8380  146.3860 N   0  0  0  0  0  1  0  0  0  0  0  0
  192.9400  176.1190  142.2560 C   0  0  0  0  0  2  0  0  0  0  0  0
  194.2300  176.0930  142.7930 O   0  0  0  0  0  1  0  0  0  0  0  0
  1  4  2  0  0  0  0
  1  5  1  0  0  0  0
  2 33  1  0  0  0  0
  3  2  1  0  0  0  0
  4  6  1  0  0  0  0
  5  3  2  0  0  0  0
  6  2  2  0  0  0  0
  7  5  1  0  0  0  0
  7  8  1  0  0  0  0
  9 13  1  0  0  0  0
  9 14  1  0  0  0  0
 11 16  1  0  0  0  0
 12 11  1  0  0  0  0
 13 10  1  6  0  0  0
 13 12  1  0  0  0  0
 14 17  1  0  0  0  0
 14 11  2  0  0  0  0
 15 24  1  6  0  0  0
 16 15  1  0  0  0  0
 17 29  1  6  0  0  0
 17 18  1  0  0  0  0
 18  8  1  1  0  0  0
 18 15  1  0  0  0  0
 19 23  1  0  0  0  0
 20 23  2  0  0  0  0
 20 25  1  0  0  0  0
 21 22  2  0  0  0  0
 21 24  1  0  0  0  0
 22 20  1  0  0  0  0
 24 19  2  0  0  0  0
 25 26  1  0  0  0  0
 27 25  2  0  0  0  0
 29 28  1  6  0  0  0
 30 31  1  0  0  0  0
 31 29  1  0  0  0  0
 32 31  1  0  0  0  0
 33 34  1  0  0  0  0
 34 36  1  0  0  0  0
 36 37  1  0  0  0  0
 36 35  1  1  0  0  0
 37 38  1  0  0  0  0
 39 43  1  1  0  0  0
 39 50  1  0  0  0  0
 40 48  1  1  0  0  0
 43 42  1  0  0  0  0
 44 40  1  0  0  0  0
 44 41  1  1  0  0  0
 44 38  1  0  0  0  0
 45 46  1  0  0  0  0
 46 39  1  0  0  0  0
 47 44  1  0  0  0  0
 49 45  1  6  0  0  0
 49 42  1  0  0  0  0
 49 47  1  0  0  0  0
 50 51  1  6  0  0  0
 50 40  1  0  0  0  0
 51 53  1  0  0  0  0
 52 51  2  0  0  0  0
 54 55  1  0  0  0  0
 54 46  1  0  0  0  0
M  END
>  <MODEL>
6

>  <REMARK>
 VINA RESULT:      -6.1      2.887      8.715
  Name = 
  15 active torsions:
  status: ('A' for Active; 'I' for Inactive)
    1  A    between atoms: C_1  and  C_53
    2  A    between atoms: C_2  and  C_28
    3  A    between atoms: C_2  and  C_49
    4  A    between atoms: C_8  and  C_20
    5  A    between atoms: C_8  and  C_22
    6  A    between atoms: C_10  and  C_32
    7  A    between atoms: C_11  and  N_38
    8  A    between atoms: C_19  and  C_40
    9  A    between atoms: C_22  and  C_43
   10  A    between atoms: C_27  and  C_54
   11  A    between atoms: C_28  and  C_44
   12  A    between atoms: C_33  and  C_52
   13  A    between atoms: C_40  and  C_45
   14  A    between atoms: C_43  and  C_51
   15  A    between atoms: C_51  and  C_54
                            x       y       z     vdW  Elec       q    Type
                         _______ _______ _______ _____ _____    ______ ____

>  <TORSDO>
F 15

$$$$
=
 OpenBabel11052419443D

 55 60  0  0  1  0  0  0  0  0999 V2000
  193.7780  177.2520  145.1600 N   0  0  0  0  0  0  0  0  0  0  0  0
  194.3820  174.5660  144.9370 C   0  0  0  0  0  0  0  0  0  0  0  0
  193.5770  175.1870  143.9770 C   0  0  0  0  0  3  0  0  0  0  0  0
  194.5670  176.6670  146.1020 C   0  0  0  0  0  3  0  0  0  0  0  0
  193.2850  176.5460  144.1060 C   0  0  0  0  0  0  0  0  0  0  0  0
  194.8820  175.3100  146.0070 C   0  0  0  0  0  3  0  0  0  0  0  0
  192.3820  177.2050  143.1270 C   0  0  0  0  0  2  0  0  0  0  0  0
  191.1910  177.8050  143.8590 C   0  0  0  0  0  2  0  0  0  0  0  0
  189.5900  172.9540  144.3550 C   0  0  0  0  0  2  0  0  0  0  0  0
  190.0960  171.0300  142.8530 C   0  0  0  0  0  1  0  0  0  0  0  0
  189.4790  174.3280  142.5130 C   0  0  0  0  0  0  0  0  0  0  0  0
  189.1200  173.0770  142.0640 O   0  0  0  0  0  0  0  0  0  0  0  0
  189.1150  172.1480  143.1380 C   0  0  2  0  0  3  0  0  0  0  0  0
  189.7200  174.3340  143.8040 C   0  0  0  0  0  0  0  0  0  0  0  0
  189.3540  176.8210  142.4130 C   0  0  2  0  0  3  0  0  0  0  0  0
  189.6430  175.5270  141.6400 C   0  0  0  0  0  2  0  0  0  0  0  0
  190.2530  175.5370  144.5310 C   0  0  1  0  0  3  0  0  0  0  0  0
  189.9750  176.8870  143.8260 C   0  0  1  0  0  3  0  0  0  0  0  0
  187.3730  177.9110  141.3590 C   0  0  0  0  0  3  0  0  0  0  0  0
  185.1850  177.9090  142.4150 C   0  0  0  0  0  0  0  0  0  0  0  0
  187.0650  176.8130  143.4950 C   0  0  0  0  0  3  0  0  0  0  0  0
  185.7160  177.1770  143.4870 C   0  0  0  0  0  3  0  0  0  0  0  0
  186.0220  178.2740  141.3520 C   0  0  0  0  0  3  0  0  0  0  0  0
  187.8990  177.1780  142.4270 C   0  0  0  0  0  0  0  0  0  0  0  0
  183.7660  178.2970  142.4040 C   0  0  0  0  0  0  0  0  0  0  0  0
  183.0690  178.1360  141.3680 O   0  0  0  0  0  0  0  0  0  0  0  0
  183.1800  178.8420  143.5410 O   0  0  0  0  0  1  0  0  0  0  0  0
  191.2350  175.4550  146.8560 C   0  0  0  0  0  1  0  0  0  0  0  0
  189.9550  175.5270  146.0440 C   0  0  1  0  0  3  0  0  0  0  0  0
  187.7100  176.0630  147.1630 C   0  0  0  0  0  1  0  0  0  0  0  0
  189.0060  176.6090  146.5870 C   0  0  0  0  0  3  0  0  0  0  0  0
  189.6820  177.5350  147.5750 C   0  0  0  0  0  1  0  0  0  0  0  0
  194.7040  173.1120  144.8290 C   0  0  0  0  0  2  0  0  0  0  0  0
  193.4620  172.2910  144.4960 C   0  0  0  0  0  2  0  0  0  0  0  0
  194.7250  170.2730  143.7290 C   0  0  0  0  0  1  0  0  0  0  0  0
  193.7230  171.3410  143.3300 C   0  0  2  0  0  3  0  0  0  0  0  0
  194.1680  172.0880  142.0720 C   0  0  0  0  0  2  0  0  0  0  0  0
  192.9870  172.6260  141.2670 C   0  0  0  0  0  2  0  0  0  0  0  0
  191.2860  173.0880  136.9260 C   0  0  2  0  0  3  0  0  0  0  0  0
  193.0010  173.5020  138.8880 C   0  0  1  0  0  3  0  0  0  0  0  0
  194.3310  171.4900  139.5830 C   0  0  0  0  0  1  0  0  0  0  0  0
  190.2830  173.0580  139.1810 O   0  0  0  0  0  0  0  0  0  0  0  0
  190.2640  173.6970  137.9100 C   0  0  0  0  0  2  0  0  0  0  0  0
  193.0190  172.2300  139.7860 C   0  0  1  0  0  0  0  0  0  0  0  0
  190.1660  171.0530  137.7170 C   0  0  0  0  0  2  0  0  0  0  0  0
  191.0300  171.6520  136.6930 N   0  0  0  0  0  0  0  0  0  0  0  0
  191.9030  171.2000  139.5090 C   0  0  0  0  0  2  0  0  0  0  0  0
  194.1630  174.4550  139.1480 C   0  0  0  0  0  1  0  0  0  0  0  0
  190.4880  171.6510  139.0930 C   0  0  1  0  0  3  0  0  0  0  0  0
  192.7410  173.3480  137.3720 C   0  0  1  0  0  3  0  0  0  0  0  0
  193.8030  172.6370  136.5850 C   0  0  0  0  0  0  0  0  0  0  0  0
  194.7340  173.2800  136.0310 O   0  0  0  0  0  0  0  0  0  0  0  0
  193.7500  171.2230  136.4540 N   0  0  0  0  0  1  0  0  0  0  0  0
  190.4050  171.4840  135.3830 C   0  0  0  0  0  2  0  0  0  0  0  0
  189.0110  171.5330  135.4750 O   0  0  0  0  0  1  0  0  0  0  0  0
  1  4  1  0  0  0  0
  2  6  1  0  0  0  0
  3  5  1  0  0  0  0
  3  2  2  0  0  0  0
  5  1  2  0  0  0  0
  6  4  2  0  0  0  0
  7  8  1  0  0  0  0
  7  5  1  0  0  0  0
 11 14  2  0  0  0  0
 12 11  1  0  0  0  0
 12 13  1  0  0  0  0
 13 10  1  6  0  0  0
 13  9  1  0  0  0  0
 14  9  1  0  0  0  0
 14 17  1  0  0  0  0
 15 24  1  1  0  0  0
 15 18  1  0  0  0  0
 16 15  1  0  0  0  0
 16 11  1  0  0  0  0
 17 29  1  1  0  0  0
 18  8  1  6  0  0  0
 18 17  1  0  0  0  0
 19 24  1  0  0  0  0
 20 22  2  0  0  0  0
 22 21  1  0  0  0  0
 23 19  2  0  0  0  0
 23 20  1  0  0  0  0
 24 21  2  0  0  0  0
 25 20  1  0  0  0  0
 25 27  1  0  0  0  0
 26 25  2  0  0  0  0
 29 31  1  0  0  0  0
 29 28  1  1  0  0  0
 31 30  1  0  0  0  0
 31 32  1  0  0  0  0
 33  2  1  0  0  0  0
 34 33  1  0  0  0  0
 36 35  1  1  0  0  0
 36 34  1  0  0  0  0
 37 36  1  0  0  0  0
 38 37  1  0  0  0  0
 39 50  1  0  0  0  0
 39 43  1  1  0  0  0
 40 48  1  6  0  0  0
 40 44  1  0  0  0  0
 43 42  1  0  0  0  0
 44 41  1  6  0  0  0
 44 38  1  0  0  0  0
 46 39  1  0  0  0  0
 46 45  1  0  0  0  0
 47 44  1  0  0  0  0
 49 45  1  6  0  0  0
 49 42  1  0  0  0  0
 49 47  1  0  0  0  0
 50 51  1  1  0  0  0
 50 40  1  0  0  0  0
 52 51  2  0  0  0  0
 53 51  1  0  0  0  0
 54 55  1  0  0  0  0
 54 46  1  0  0  0  0
M  END
>  <MODEL>
7

>  <REMARK>
 VINA RESULT:      -6.1      2.062      3.342
  Name = 
  15 active torsions:
  status: ('A' for Active; 'I' for Inactive)
    1  A    between atoms: C_1  and  C_53
    2  A    between atoms: C_2  and  C_28
    3  A    between atoms: C_2  and  C_49
    4  A    between atoms: C_8  and  C_20
    5  A    between atoms: C_8  and  C_22
    6  A    between atoms: C_10  and  C_32
    7  A    between atoms: C_11  and  N_38
    8  A    between atoms: C_19  and  C_40
    9  A    between atoms: C_22  and  C_43
   10  A    between atoms: C_27  and  C_54
   11  A    between atoms: C_28  and  C_44
   12  A    between atoms: C_33  and  C_52
   13  A    between atoms: C_40  and  C_45
   14  A    between atoms: C_43  and  C_51
   15  A    between atoms: C_51  and  C_54
                            x       y       z     vdW  Elec       q    Type
                         _______ _______ _______ _____ _____    ______ ____

>  <TORSDO>
F 15

$$$$
=
 OpenBabel11052419443D

 55 60  0  0  1  0  0  0  0  0999 V2000
  187.7070  176.2170  140.3050 N   0  0  0  0  0  0  0  0  0  0  0  0
  186.4340  176.5100  142.7390 C   0  0  0  0  0  0  0  0  0  0  0  0
  187.0910  175.3160  142.4300 C   0  0  0  0  0  3  0  0  0  0  0  0
  187.0760  177.3890  140.5900 C   0  0  0  0  0  3  0  0  0  0  0  0
  187.7310  175.1880  141.1960 C   0  0  0  0  0  0  0  0  0  0  0  0
  186.4260  177.5550  141.8140 C   0  0  0  0  0  3  0  0  0  0  0  0
  188.3820  173.9030  140.8300 C   0  0  0  0  0  2  0  0  0  0  0  0
  189.1010  174.0600  139.4980 C   0  0  0  0  0  2  0  0  0  0  0  0
  192.1370  171.4140  136.3170 C   0  0  0  0  0  2  0  0  0  0  0  0
  191.5550  169.3650  135.0210 C   0  0  0  0  0  1  0  0  0  0  0  0
  190.8560  170.6410  138.0640 C   0  0  0  0  0  0  0  0  0  0  0  0
  191.2990  169.5160  137.4040 O   0  0  0  0  0  0  0  0  0  0  0  0
  192.1410  169.8790  136.3190 C   0  0  2  0  0  3  0  0  0  0  0  0
  191.3240  171.7420  137.5220 C   0  0  0  0  0  0  0  0  0  0  0  0
  190.1340  171.8340  140.1360 C   0  0  2  0  0  3  0  0  0  0  0  0
  189.9050  170.6280  139.2140 C   0  0  0  0  0  2  0  0  0  0  0  0
  190.8980  173.1140  137.9640 C   0  0  1  0  0  3  0  0  0  0  0  0
  190.3410  173.1800  139.4070 C   0  0  1  0  0  3  0  0  0  0  0  0
  190.8300  171.0270  142.3920 C   0  0  0  0  0  3  0  0  0  0  0  0
  193.1360  171.1350  143.1460 C   0  0  0  0  0  0  0  0  0  0  0  0
  192.5360  171.9270  140.9290 C   0  0  0  0  0  3  0  0  0  0  0  0
  193.5000  171.7010  141.9150 C   0  0  0  0  0  3  0  0  0  0  0  0
  191.7950  170.8000  143.3780 C   0  0  0  0  0  3  0  0  0  0  0  0
  191.1950  171.5870  141.1650 C   0  0  0  0  0  0  0  0  0  0  0  0
  194.1470  170.8990  144.1880 C   0  0  0  0  0  0  0  0  0  0  0  0
  194.0100  169.9530  145.0080 O   0  0  0  0  0  1  0  0  0  0  0  0
  195.2680  171.7180  144.2760 O   0  0  0  0  0  0  0  0  0  0  0  0
  193.3200  173.8240  138.0400 C   0  0  0  0  0  1  0  0  0  0  0  0
  191.9170  174.2180  137.6160 C   0  0  1  0  0  3  0  0  0  0  0  0
  190.5070  174.9360  135.5970 C   0  0  0  0  0  1  0  0  0  0  0  0
  191.9000  174.7740  136.1820 C   0  0  0  0  0  3  0  0  0  0  0  0
  192.6910  176.0580  136.0450 C   0  0  0  0  0  1  0  0  0  0  0  0
  185.7340  176.6730  144.0480 C   0  0  0  0  0  2  0  0  0  0  0  0
  186.5240  177.5730  144.9930 C   0  0  0  0  0  2  0  0  0  0  0  0
  186.0860  177.1740  147.4230 C   0  0  0  0  0  1  0  0  0  0  0  0
  186.9670  176.8130  146.2410 C   0  0  2  0  0  3  0  0  0  0  0  0
  188.4470  177.0380  146.5520 C   0  0  0  0  0  2  0  0  0  0  0  0
  189.3000  175.8100  146.2380 C   0  0  0  0  0  2  0  0  0  0  0  0
  193.6360  174.8250  144.7620 C   0  0  2  0  0  3  0  0  0  0  0  0
  191.0000  174.7720  144.6700 C   0  0  1  0  0  3  0  0  0  0  0  0
  189.9050  176.9790  144.1900 C   0  0  0  0  0  1  0  0  0  0  0  0
  192.5370  174.8930  146.9700 O   0  0  0  0  0  0  0  0  0  0  0  0
  193.4380  174.1660  146.1450 C   0  0  0  0  0  2  0  0  0  0  0  0
  190.4700  176.0980  145.2910 C   0  0  1  0  0  0  0  0  0  0  0  0
  194.0050  176.7570  146.2290 C   0  0  0  0  0  2  0  0  0  0  0  0
  194.1690  176.1970  144.8820 N   0  0  0  0  0  0  0  0  0  0  0  0
  191.5210  176.9580  146.0250 C   0  0  0  0  0  2  0  0  0  0  0  0
  189.9420  173.9930  143.8930 C   0  0  0  0  0  1  0  0  0  0  0  0
  192.6660  176.3050  146.8270 C   0  0  1  0  0  3  0  0  0  0  0  0
  192.3460  174.7820  143.9130 C   0  0  1  0  0  3  0  0  0  0  0  0
  192.3820  175.5600  142.6300 C   0  0  0  0  0  0  0  0  0  0  0  0
  192.2360  174.9820  141.5210 O   0  0  0  0  0  0  0  0  0  0  0  0
  192.5960  176.9640  142.6680 N   0  0  0  0  0  1  0  0  0  0  0  0
  195.5900  176.1890  144.5380 C   0  0  0  0  0  2  0  0  0  0  0  0
  195.7880  175.8160  143.2050 O   0  0  0  0  0  1  0  0  0  0  0  0
  1  4  2  0  0  0  0
  1  5  1  0  0  0  0
  2 33  1  0  0  0  0
  3  2  1  0  0  0  0
  4  6  1  0  0  0  0
  5  3  2  0  0  0  0
  6  2  2  0  0  0  0
  7  5  1  0  0  0  0
  8  7  1  0  0  0  0
  9 13  1  0  0  0  0
  9 14  1  0  0  0  0
 11 16  1  0  0  0  0
 12 11  1  0  0  0  0
 13 10  1  6  0  0  0
 13 12  1  0  0  0  0
 14 17  1  0  0  0  0
 14 11  2  0  0  0  0
 15 24  1  6  0  0  0
 16 15  1  0  0  0  0
 17 29  1  1  0  0  0
 17 18  1  0  0  0  0
 18  8  1  6  0  0  0
 18 15  1  0  0  0  0
 19 23  1  0  0  0  0
 20 23  2  0  0  0  0
 20 25  1  0  0  0  0
 21 24  1  0  0  0  0
 21 22  2  0  0  0  0
 22 20  1  0  0  0  0
 24 19  2  0  0  0  0
 25 27  2  0  0  0  0
 25 26  1  0  0  0  0
 29 28  1  6  0  0  0
 30 31  1  0  0  0  0
 31 29  1  0  0  0  0
 32 31  1  0  0  0  0
 33 34  1  0  0  0  0
 34 36  1  0  0  0  0
 36 37  1  0  0  0  0
 36 35  1  1  0  0  0
 38 37  1  0  0  0  0
 39 46  1  0  0  0  0
 39 43  1  1  0  0  0
 40 48  1  6  0  0  0
 40 44  1  0  0  0  0
 43 42  1  0  0  0  0
 44 41  1  6  0  0  0
 44 47  1  0  0  0  0
 44 38  1  0  0  0  0
 45 49  1  0  0  0  0
 46 45  1  0  0  0  0
 49 47  1  6  0  0  0
 49 42  1  0  0  0  0
 50 51  1  6  0  0  0
 50 40  1  0  0  0  0
 50 39  1  0  0  0  0
 51 53  1  0  0  0  0
 52 51  2  0  0  0  0
 54 46  1  0  0  0  0
 55 54  1  0  0  0  0
M  END
>  <MODEL>
8

>  <REMARK>
 VINA RESULT:      -5.9      2.982      8.497
  Name = 
  15 active torsions:
  status: ('A' for Active; 'I' for Inactive)
    1  A    between atoms: C_1  and  C_53
    2  A    between atoms: C_2  and  C_28
    3  A    between atoms: C_2  and  C_49
    4  A    between atoms: C_8  and  C_20
    5  A    between atoms: C_8  and  C_22
    6  A    between atoms: C_10  and  C_32
    7  A    between atoms: C_11  and  N_38
    8  A    between atoms: C_19  and  C_40
    9  A    between atoms: C_22  and  C_43
   10  A    between atoms: C_27  and  C_54
   11  A    between atoms: C_28  and  C_44
   12  A    between atoms: C_33  and  C_52
   13  A    between atoms: C_40  and  C_45
   14  A    between atoms: C_43  and  C_51
   15  A    between atoms: C_51  and  C_54
                            x       y       z     vdW  Elec       q    Type
                         _______ _______ _______ _____ _____    ______ ____

>  <TORSDO>
F 15

$$$$
=
 OpenBabel11052419443D

 55 60  0  0  1  0  0  0  0  0999 V2000
  194.7560  176.6140  144.4240 N   0  0  0  0  0  0  0  0  0  0  0  0
  195.8660  174.3550  143.2870 C   0  0  0  0  0  0  0  0  0  0  0  0
  194.7210  174.9310  142.7290 C   0  0  0  0  0  3  0  0  0  0  0  0
  195.8730  176.0700  144.9780 C   0  0  0  0  0  3  0  0  0  0  0  0
  194.1760  176.0740  143.3170 C   0  0  0  0  0  0  0  0  0  0  0  0
  196.4480  174.9280  144.4180 C   0  0  0  0  0  3  0  0  0  0  0  0
  192.9250  176.6610  142.7710 C   0  0  0  0  0  2  0  0  0  0  0  0
  192.0730  177.1930  143.9150 C   0  0  0  0  0  2  0  0  0  0  0  0
  190.2510  172.4000  144.1260 C   0  0  0  0  0  2  0  0  0  0  0  0
  190.0480  170.7720  142.2490 C   0  0  0  0  0  1  0  0  0  0  0  0
  189.6820  174.0960  142.6800 C   0  0  0  0  0  0  0  0  0  0  0  0
  189.0750  172.9650  142.1810 O   0  0  0  0  0  0  0  0  0  0  0  0
  189.3290  171.8530  143.0280 C   0  0  2  0  0  3  0  0  0  0  0  0
  190.3300  173.8520  143.7960 C   0  0  0  0  0  0  0  0  0  0  0  0
  189.7780  176.5670  143.0360 C   0  0  2  0  0  3  0  0  0  0  0  0
  189.6710  175.4300  142.0100 C   0  0  0  0  0  2  0  0  0  0  0  0
  191.1860  174.8770  144.4850 C   0  0  1  0  0  3  0  0  0  0  0  0
  190.8290  176.3450  144.1460 C   0  0  1  0  0  3  0  0  0  0  0  0
  188.4010  177.5400  144.8740 C   0  0  0  0  0  3  0  0  0  0  0  0
  185.9830  177.7150  144.7210 C   0  0  0  0  0  0  0  0  0  0  0  0
  187.2590  176.7700  142.8830 C   0  0  0  0  0  3  0  0  0  0  0  0
  186.0330  177.1410  143.4420 C   0  0  0  0  0  3  0  0  0  0  0  0
  187.1740  177.9120  145.4330 C   0  0  0  0  0  3  0  0  0  0  0  0
  188.4490  176.9710  143.5980 C   0  0  0  0  0  0  0  0  0  0  0  0
  184.6950  178.1040  145.3150 C   0  0  0  0  0  0  0  0  0  0  0  0
  183.9450  178.9280  144.7290 O   0  0  0  0  0  0  0  0  0  0  0  0
  184.2920  177.5620  146.5310 O   0  0  0  0  0  1  0  0  0  0  0  0
  192.8730  174.5460  146.3350 C   0  0  0  0  0  1  0  0  0  0  0  0
  191.3970  174.5970  145.9870 C   0  0  1  0  0  3  0  0  0  0  0  0
  189.2860  174.8690  147.4190 C   0  0  0  0  0  1  0  0  0  0  0  0
  190.6150  175.4650  146.9880 C   0  0  0  0  0  3  0  0  0  0  0  0
  191.4440  175.8540  148.1940 C   0  0  0  0  0  1  0  0  0  0  0  0
  196.4670  173.1280  142.6840 C   0  0  0  0  0  2  0  0  0  0  0  0
  195.7110  171.8720  143.1100 C   0  0  0  0  0  2  0  0  0  0  0  0
  197.2240  170.0180  142.3820 C   0  0  0  0  0  1  0  0  0  0  0  0
  195.9160  170.7370  142.1100 C   0  0  2  0  0  3  0  0  0  0  0  0
  195.8340  171.2280  140.6640 C   0  0  0  0  0  2  0  0  0  0  0  0
  195.1580  170.2140  139.7420 C   0  0  0  0  0  2  0  0  0  0  0  0
  191.6830  172.4280  137.5120 C   0  0  2  0  0  3  0  0  0  0  0  0
  193.2910  170.4030  138.0380 C   0  0  1  0  0  3  0  0  0  0  0  0
  192.9540  169.3300  140.2820 C   0  0  0  0  0  1  0  0  0  0  0  0
  193.9290  173.0860  138.2950 O   0  0  0  0  0  0  0  0  0  0  0  0
  192.9980  173.1850  137.2250 C   0  0  0  0  0  2  0  0  0  0  0  0
  193.6570  170.4610  139.5500 C   0  0  1  0  0  0  0  0  0  0  0  0
  191.9010  173.7350  139.5770 C   0  0  0  0  0  2  0  0  0  0  0  0
  191.0100  172.9430  138.7210 N   0  0  0  0  0  0  0  0  0  0  0  0
  193.2550  171.7560  140.2870 C   0  0  0  0  0  2  0  0  0  0  0  0
  193.6420  169.0760  137.3710 C   0  0  0  0  0  1  0  0  0  0  0  0
  193.3090  173.1260  139.5780 C   0  0  1  0  0  3  0  0  0  0  0  0
  191.9010  170.9010  137.5820 C   0  0  1  0  0  3  0  0  0  0  0  0
  190.7220  170.0930  138.0410 C   0  0  0  0  0  0  0  0  0  0  0  0
  190.0570  170.4390  139.0520 O   0  0  0  0  0  0  0  0  0  0  0  0
  190.3610  168.9160  137.3310 N   0  0  0  0  0  1  0  0  0  0  0  0
  189.8730  173.7700  138.3200 C   0  0  0  0  0  2  0  0  0  0  0  0
  188.8160  173.6550  139.2270 O   0  0  0  0  0  1  0  0  0  0  0  0
  1  4  1  0  0  0  0
  2  6  1  0  0  0  0
  3  2  2  0  0  0  0
  3  5  1  0  0  0  0
  5  1  2  0  0  0  0
  6  4  2  0  0  0  0
  7  5  1  0  0  0  0
  7  8  1  0  0  0  0
 11 14  2  0  0  0  0
 12 11  1  0  0  0  0
 12 13  1  0  0  0  0
 13 10  1  6  0  0  0
 13  9  1  0  0  0  0
 14  9  1  0  0  0  0
 14 17  1  0  0  0  0
 15 24  1  1  0  0  0
 15 18  1  0  0  0  0
 16 11  1  0  0  0  0
 16 15  1  0  0  0  0
 17 29  1  1  0  0  0
 18  8  1  6  0  0  0
 18 17  1  0  0  0  0
 19 23  1  0  0  0  0
 20 25  1  0  0  0  0
 20 23  2  0  0  0  0
 21 22  2  0  0  0  0
 21 24  1  0  0  0  0
 22 20  1  0  0  0  0
 24 19  2  0  0  0  0
 25 27  1  0  0  0  0
 26 25  2  0  0  0  0
 29 28  1  1  0  0  0
 29 31  1  0  0  0  0
 31 30  1  0  0  0  0
 31 32  1  0  0  0  0
 33 34  1  0  0  0  0
 33  2  1  0  0  0  0
 36 35  1  1  0  0  0
 36 34  1  0  0  0  0
 37 36  1  0  0  0  0
 38 37  1  0  0  0  0
 39 43  1  1  0  0  0
 39 50  1  0  0  0  0
 39 46  1  0  0  0  0
 40 48  1  1  0  0  0
 40 44  1  0  0  0  0
 42 49  1  0  0  0  0
 43 42  1  0  0  0  0
 44 38  1  0  0  0  0
 44 41  1  1  0  0  0
 44 47  1  0  0  0  0
 46 45  1  0  0  0  0
 49 45  1  6  0  0  0
 49 47  1  0  0  0  0
 50 40  1  0  0  0  0
 50 51  1  1  0  0  0
 51 52  2  0  0  0  0
 53 51  1  0  0  0  0
 54 46  1  0  0  0  0
 54 55  1  0  0  0  0
M  END
>  <MODEL>
9

>  <REMARK>
 VINA RESULT:      -5.6      1.665      2.688
  Name = 
  15 active torsions:
  status: ('A' for Active; 'I' for Inactive)
    1  A    between atoms: C_1  and  C_53
    2  A    between atoms: C_2  and  C_28
    3  A    between atoms: C_2  and  C_49
    4  A    between atoms: C_8  and  C_20
    5  A    between atoms: C_8  and  C_22
    6  A    between atoms: C_10  and  C_32
    7  A    between atoms: C_11  and  N_38
    8  A    between atoms: C_19  and  C_40
    9  A    between atoms: C_22  and  C_43
   10  A    between atoms: C_27  and  C_54
   11  A    between atoms: C_28  and  C_44
   12  A    between atoms: C_33  and  C_52
   13  A    between atoms: C_40  and  C_45
   14  A    between atoms: C_43  and  C_51
   15  A    between atoms: C_51  and  C_54
                            x       y       z     vdW  Elec       q    Type
                         _______ _______ _______ _____ _____    ______ ____

>  <TORSDO>
F 15

$$$$
