=
 OpenBabel11052417253D

 25 28  0  0  1  0  0  0  0  0999 V2000
  185.7200  177.6420  143.8880 C   0  0  0  0  0  0  0  0  0  0  0  0
  186.5150  177.1180  142.8690 C   0  0  0  0  0  0  0  0  0  0  0  0
  184.1280  178.5570  142.3120 C   0  0  0  0  0  3  0  0  0  0  0  0
  185.8350  177.6250  145.2540 C   0  0  1  0  0  3  0  0  0  0  0  0
  185.4940  177.9390  147.9810 C   0  0  0  0  0  3  0  0  0  0  0  0
  184.9100  178.0400  141.2620 C   0  0  0  0  0  3  0  0  0  0  0  0
  184.7400  178.3120  145.7360 C   0  0  0  0  0  0  0  0  0  0  0  0
  184.5410  178.4870  147.1040 C   0  0  0  0  0  3  0  0  0  0  0  0
  186.9050  176.7970  140.5090 C   0  0  0  0  0  0  0  0  0  0  0  0
  186.5510  176.9690  139.0690 C   0  0  0  0  0  1  0  0  0  0  0  0
  187.6560  176.4310  143.1350 N   0  0  0  0  0  0  0  0  0  0  0  0
  186.6120  177.2360  147.4820 C   0  0  0  0  0  3  0  0  0  0  0  0
  184.5600  178.3420  143.6190 C   0  0  0  0  0  0  0  0  0  0  0  0
  183.9380  178.7650  144.7440 N   0  0  0  0  0  0  0  0  0  0  0  0
  188.0380  176.1170  140.8300 N   0  0  0  0  0  0  0  0  0  0  0  0
  186.7950  177.0700  146.0990 C   0  0  0  0  0  3  0  0  0  0  0  0
  188.4110  175.9260  142.1240 C   0  0  0  0  0  0  0  0  0  0  0  0
  186.1010  177.3230  141.5310 C   0  0  0  0  0  0  0  0  0  0  0  0
  189.6720  175.2020  142.4330 C   0  0  0  0  0  2  0  0  0  0  0  0
  190.0830  175.5000  143.7940 N   0  0  0  0  0  2  0  0  0  0  0  0
  190.0310  174.5200  144.8330 C   0  0  0  0  0  0  0  0  0  0  0  0
  189.6170  173.3540  144.5910 O   0  0  0  0  0  0  0  0  0  0  0  0
  190.4530  174.8730  146.2190 C   0  0  1  0  0  3  0  0  0  0  0  0
  190.8350  176.2140  146.2750 O   0  0  0  0  0  1  0  0  0  0  0  0
  189.3160  174.6250  147.1910 C   0  0  0  0  0  1  0  0  0  0  0  0
  1  4  1  0  0  0  0
  2 11  1  0  0  0  0
  2  1  1  0  0  0  0
  3 13  1  0  0  0  0
  4  7  1  0  0  0  0
  4 16  1  1  0  0  0
  6 18  1  0  0  0  0
  6  3  2  0  0  0  0
  7  8  1  0  0  0  0
  8  5  2  0  0  0  0
  9 15  2  0  0  0  0
  9 18  1  0  0  0  0
 10  9  1  0  0  0  0
 12  5  1  0  0  0  0
 13  1  2  0  0  0  0
 13 14  1  0  0  0  0
 14  7  2  0  0  0  0
 15 17  1  0  0  0  0
 16 12  2  0  0  0  0
 17 19  1  0  0  0  0
 17 11  2  0  0  0  0
 18  2  2  0  0  0  0
 19 20  1  0  0  0  0
 20 21  1  0  0  0  0
 21 23  1  0  0  0  0
 22 21  2  0  0  0  0
 23 24  1  0  0  0  0
 23 25  1  1  0  0  0
M  END
>  <MODEL>
1

>  <REMARK>
 VINA RESULT:      -7.6      0.000      0.000
  Name = 
  3 active torsions:
  status: ('A' for Active; 'I' for Inactive)
    1  A    between atoms: C_2  and  C_21
    2  A    between atoms: C_6  and  N_15
    3  A    between atoms: C_6  and  C_23
                            x       y       z     vdW  Elec       q    Type
                         _______ _______ _______ _____ _____    ______ ____

>  <TORSDO>
F 3

$$$$
=
 OpenBabel11052417253D

 25 28  0  0  1  0  0  0  0  0999 V2000
  186.8560  176.7530  144.3520 C   0  0  0  0  0  0  0  0  0  0  0  0
  187.9880  175.9800  144.0940 C   0  0  0  0  0  0  0  0  0  0  0  0
  186.2490  176.8260  142.0110 C   0  0  0  0  0  3  0  0  0  0  0  0
  186.3250  177.2600  145.5100 C   0  0  1  0  0  3  0  0  0  0  0  0
  184.7890  178.5270  147.4300 C   0  0  0  0  0  3  0  0  0  0  0  0
  187.3840  176.0480  141.7190 C   0  0  0  0  0  3  0  0  0  0  0  0
  185.1890  177.9480  145.1370 C   0  0  0  0  0  0  0  0  0  0  0  0
  184.3950  178.5960  146.0800 C   0  0  0  0  0  3  0  0  0  0  0  0
  189.3980  174.8490  142.4940 C   0  0  0  0  0  0  0  0  0  0  0  0
  189.7640  174.4300  141.1100 C   0  0  0  0  0  1  0  0  0  0  0  0
  188.8200  175.5770  145.0880 N   0  0  0  0  0  0  0  0  0  0  0  0
  185.9520  177.8210  147.8050 C   0  0  0  0  0  3  0  0  0  0  0  0
  186.0100  177.1650  143.3410 C   0  0  0  0  0  0  0  0  0  0  0  0
  184.9740  177.9040  143.8020 N   0  0  0  0  0  0  0  0  0  0  0  0
  190.1980  174.4720  143.5270 N   0  0  0  0  0  0  0  0  0  0  0  0
  186.7400  177.1730  146.8380 C   0  0  0  0  0  3  0  0  0  0  0  0
  189.9140  174.8210  144.8110 C   0  0  0  0  0  0  0  0  0  0  0  0
  188.2560  175.6230  142.7500 C   0  0  0  0  0  0  0  0  0  0  0  0
  190.8290  174.4130  145.9090 C   0  0  0  0  0  2  0  0  0  0  0  0
  192.1710  174.8940  145.6280 N   0  0  0  0  0  2  0  0  0  0  0  0
  192.7360  176.0100  146.3200 C   0  0  0  0  0  0  0  0  0  0  0  0
  192.0720  176.6170  147.2030 O   0  0  0  0  0  0  0  0  0  0  0  0
  194.1140  176.4760  145.9910 C   0  0  1  0  0  3  0  0  0  0  0  0
  194.5120  177.4640  146.8930 O   0  0  0  0  0  1  0  0  0  0  0  0
  195.0870  175.3150  146.0450 C   0  0  0  0  0  1  0  0  0  0  0  0
  1  4  1  0  0  0  0
  2  1  1  0  0  0  0
  2 11  1  0  0  0  0
  3 13  1  0  0  0  0
  4 16  1  1  0  0  0
  5 12  1  0  0  0  0
  6  3  2  0  0  0  0
  6 18  1  0  0  0  0
  7  4  1  0  0  0  0
  7  8  1  0  0  0  0
  8  5  2  0  0  0  0
  9 18  1  0  0  0  0
  9 15  2  0  0  0  0
 10  9  1  0  0  0  0
 13 14  1  0  0  0  0
 13  1  2  0  0  0  0
 14  7  2  0  0  0  0
 15 17  1  0  0  0  0
 16 12  2  0  0  0  0
 17 11  2  0  0  0  0
 17 19  1  0  0  0  0
 18  2  2  0  0  0  0
 20 19  1  0  0  0  0
 20 21  1  0  0  0  0
 21 22  2  0  0  0  0
 23 25  1  1  0  0  0
 23 21  1  0  0  0  0
 23 24  1  0  0  0  0
M  END
>  <MODEL>
2

>  <REMARK>
 VINA RESULT:      -7.4      1.916      3.068
  Name = 
  3 active torsions:
  status: ('A' for Active; 'I' for Inactive)
    1  A    between atoms: C_2  and  C_21
    2  A    between atoms: C_6  and  N_15
    3  A    between atoms: C_6  and  C_23
                            x       y       z     vdW  Elec       q    Type
                         _______ _______ _______ _____ _____    ______ ____

>  <TORSDO>
F 3

$$$$
=
 OpenBabel11052417253D

 25 28  0  0  1  0  0  0  0  0999 V2000
  187.0650  177.6580  144.1710 C   0  0  0  0  0  0  0  0  0  0  0  0
  188.3880  177.4060  144.5330 C   0  0  0  0  0  0  0  0  0  0  0  0
  186.3440  177.7420  146.4790 C   0  0  0  0  0  3  0  0  0  0  0  0
  186.4480  177.7950  142.9540 C   0  0  0  0  0  0  0  0  0  0  0  0
  184.6580  178.1660  140.8780 C   0  0  0  0  0  3  0  0  0  0  0  0
  187.6690  177.4880  146.8750 C   0  0  0  0  0  3  0  0  0  0  0  0
  185.1170  178.0350  143.2280 C   0  0  0  0  0  0  0  0  0  0  0  0
  184.1920  178.2260  142.2050 C   0  0  0  0  0  2  0  0  0  0  0  0
  190.0250  177.0630  146.2730 C   0  0  0  0  0  0  0  0  0  0  0  0
  190.4400  176.9480  147.7020 C   0  0  0  0  0  1  0  0  0  0  0  0
  189.3650  177.2450  143.6040 N   0  0  0  0  0  0  0  0  0  0  0  0
  186.0200  177.9210  140.6040 C   0  0  0  0  0  3  0  0  0  0  0  0
  186.0700  177.8210  145.1150 C   0  0  0  0  0  0  0  0  0  0  0  0
  184.8600  178.0550  144.5560 N   0  0  0  0  0  0  0  0  0  0  0  0
  190.9650  176.9080  145.3020 N   0  0  0  0  0  0  0  0  0  0  0  0
  186.9390  177.7310  141.6510 C   0  0  0  0  0  3  0  0  0  0  0  0
  190.6470  177.0050  143.9830 C   0  0  0  0  0  0  0  0  0  0  0  0
  188.6940  177.3190  145.9130 C   0  0  0  0  0  0  0  0  0  0  0  0
  191.6980  176.8020  142.9510 C   0  0  0  0  0  2  0  0  0  0  0  0
  193.0030  176.7490  143.5890 N   0  0  0  0  0  2  0  0  0  0  0  0
  193.7470  175.5340  143.6930 C   0  0  0  0  0  0  0  0  0  0  0  0
  193.2810  174.4580  143.2300 O   0  0  0  0  0  0  0  0  0  0  0  0
  195.0770  175.5240  144.3660 C   0  0  1  0  0  3  0  0  0  0  0  0
  195.8320  176.6200  143.9480 O   0  0  0  0  0  1  0  0  0  0  0  0
  194.9020  175.5700  145.8720 C   0  0  0  0  0  1  0  0  0  0  0  0
  1  2  2  0  0  0  0
  1 13  1  0  0  0  0
  2 18  1  0  0  0  0
  3  6  1  0  0  0  0
  4  7  1  0  0  0  0
  4  1  1  0  0  0  0
  5  8  1  0  0  0  0
  7 14  2  0  0  0  0
  8  7  1  0  0  0  0
  9 10  1  0  0  0  0
 11 17  2  0  0  0  0
 11  2  1  0  0  0  0
 12  5  2  0  0  0  0
 12 16  1  0  0  0  0
 13  3  2  0  0  0  0
 14 13  1  0  0  0  0
 15  9  2  0  0  0  0
 16  4  2  0  0  0  0
 17 15  1  0  0  0  0
 18  9  1  0  0  0  0
 18  6  2  0  0  0  0
 19 20  1  0  0  0  0
 19 17  1  0  0  0  0
 20 21  1  0  0  0  0
 21 23  1  0  0  0  0
 22 21  2  0  0  0  0
 23 25  1  1  0  0  0
 24 23  1  0  0  0  0
M  END
>  <MODEL>
3

>  <REMARK>
 VINA RESULT:      -7.1      2.612      4.789
  Name = 
  3 active torsions:
  status: ('A' for Active; 'I' for Inactive)
    1  A    between atoms: C_2  and  C_21
    2  A    between atoms: C_6  and  N_15
    3  A    between atoms: C_6  and  C_23
                            x       y       z     vdW  Elec       q    Type
                         _______ _______ _______ _____ _____    ______ ____

>  <TORSDO>
F 3

$$$$
=
 OpenBabel11052417253D

 25 28  0  0  1  0  0  0  0  0999 V2000
  186.6690  177.6340  143.3990 C   0  0  0  0  0  0  0  0  0  0  0  0
  186.9660  177.4490  144.7500 C   0  0  0  0  0  0  0  0  0  0  0  0
  185.2750  179.5560  143.8660 C   0  0  0  0  0  3  0  0  0  0  0  0
  187.0450  176.9570  142.2670 C   0  0  0  0  0  0  0  0  0  0  0  0
  187.4210  176.0540  139.6800 C   0  0  0  0  0  3  0  0  0  0  0  0
  185.5550  179.3940  145.2350 C   0  0  0  0  0  3  0  0  0  0  0  0
  186.4320  177.6080  141.2160 C   0  0  0  0  0  0  0  0  0  0  0  0
  186.6030  177.1770  139.9020 C   0  0  0  0  0  2  0  0  0  0  0  0
  186.6940  178.1550  147.0410 C   0  0  0  0  0  0  0  0  0  0  0  0
  186.1350  179.0480  148.0980 C   0  0  0  0  0  1  0  0  0  0  0  0
  187.7730  176.4420  145.1720 N   0  0  0  0  0  0  0  0  0  0  0  0
  188.0450  175.3930  140.7600 C   0  0  0  0  0  3  0  0  0  0  0  0
  185.8480  178.6570  142.9680 C   0  0  0  0  0  0  0  0  0  0  0  0
  185.6880  178.6610  141.6250 N   0  0  0  0  0  0  0  0  0  0  0  0
  187.5080  177.1300  147.4110 N   0  0  0  0  0  0  0  0  0  0  0  0
  187.8610  175.8440  142.0790 C   0  0  0  0  0  3  0  0  0  0  0  0
  188.0500  176.2850  146.4930 C   0  0  0  0  0  0  0  0  0  0  0  0
  186.3960  178.3470  145.6840 C   0  0  0  0  0  0  0  0  0  0  0  0
  188.9110  175.1590  146.9400 C   0  0  0  0  0  2  0  0  0  0  0  0
  190.2120  175.2580  146.3000 N   0  0  0  0  0  2  0  0  0  0  0  0
  191.3140  175.9230  146.9210 C   0  0  0  0  0  0  0  0  0  0  0  0
  191.1820  176.4530  148.0570 O   0  0  0  0  0  0  0  0  0  0  0  0
  192.6280  176.0100  146.2220 C   0  0  1  0  0  3  0  0  0  0  0  0
  193.5130  176.7920  146.9650 O   0  0  0  0  0  1  0  0  0  0  0  0
  193.2110  174.6230  146.0300 C   0  0  0  0  0  1  0  0  0  0  0  0
  1  2  2  0  0  0  0
  2 11  1  0  0  0  0
  2 18  1  0  0  0  0
  3  6  1  0  0  0  0
  4  1  1  0  0  0  0
  5  8  1  0  0  0  0
  5 12  2  0  0  0  0
  6 18  2  0  0  0  0
  7 14  2  0  0  0  0
  7  4  1  0  0  0  0
  8  7  1  0  0  0  0
  9 15  2  0  0  0  0
  9 10  1  0  0  0  0
 11 17  2  0  0  0  0
 12 16  1  0  0  0  0
 13  1  1  0  0  0  0
 13  3  2  0  0  0  0
 14 13  1  0  0  0  0
 16  4  2  0  0  0  0
 17 19  1  0  0  0  0
 17 15  1  0  0  0  0
 18  9  1  0  0  0  0
 20 21  1  0  0  0  0
 20 19  1  0  0  0  0
 21 22  2  0  0  0  0
 23 25  1  1  0  0  0
 23 21  1  0  0  0  0
 23 24  1  0  0  0  0
M  END
>  <MODEL>
4

>  <REMARK>
 VINA RESULT:      -7.1      1.994      4.848
  Name = 
  3 active torsions:
  status: ('A' for Active; 'I' for Inactive)
    1  A    between atoms: C_2  and  C_21
    2  A    between atoms: C_6  and  N_15
    3  A    between atoms: C_6  and  C_23
                            x       y       z     vdW  Elec       q    Type
                         _______ _______ _______ _____ _____    ______ ____

>  <TORSDO>
F 3

$$$$
=
 OpenBabel11052417253D

 25 28  0  0  1  0  0  0  0  0999 V2000
  187.0440  177.0060  143.4350 C   0  0  0  0  0  0  0  0  0  0  0  0
  187.8630  175.9390  143.0670 C   0  0  0  0  0  0  0  0  0  0  0  0
  186.4400  177.4660  141.1380 C   0  0  0  0  0  3  0  0  0  0  0  0
  186.7300  177.5560  144.6520 C   0  0  1  0  0  3  0  0  0  0  0  0
  185.7230  179.0780  146.7300 C   0  0  0  0  0  3  0  0  0  0  0  0
  187.2600  176.3960  140.7350 C   0  0  0  0  0  3  0  0  0  0  0  0
  185.8660  178.5980  144.3850 C   0  0  0  0  0  0  0  0  0  0  0  0
  185.3420  179.3820  145.4100 C   0  0  0  0  0  3  0  0  0  0  0  0
  188.8000  174.5580  141.3230 C   0  0  0  0  0  0  0  0  0  0  0  0
  188.9820  174.1630  139.8960 C   0  0  0  0  0  1  0  0  0  0  0  0
  188.5440  175.2100  143.9880 N   0  0  0  0  0  0  0  0  0  0  0  0
  186.6070  178.0110  146.9960 C   0  0  0  0  0  3  0  0  0  0  0  0
  186.3520  177.7490  142.4990 C   0  0  0  0  0  0  0  0  0  0  0  0
  185.6180  178.7370  143.0620 N   0  0  0  0  0  0  0  0  0  0  0  0
  189.4600  173.8610  142.2870 N   0  0  0  0  0  0  0  0  0  0  0  0
  187.1240  177.2300  145.9480 C   0  0  0  0  0  3  0  0  0  0  0  0
  189.3320  174.1720  143.6040 C   0  0  0  0  0  0  0  0  0  0  0  0
  187.9720  175.6300  141.6900 C   0  0  0  0  0  0  0  0  0  0  0  0
  190.0920  173.4030  144.6240 C   0  0  0  0  0  2  0  0  0  0  0  0
  191.0630  174.2740  145.2660 N   0  0  0  0  0  2  0  0  0  0  0  0
  190.8190  174.8730  146.5400 C   0  0  0  0  0  0  0  0  0  0  0  0
  189.7350  174.6610  147.1480 O   0  0  0  0  0  0  0  0  0  0  0  0
  191.8390  175.7690  147.1560 C   0  0  1  0  0  3  0  0  0  0  0  0
  192.5850  176.3990  146.1590 O   0  0  0  0  0  1  0  0  0  0  0  0
  191.1640  176.8120  148.0240 C   0  0  0  0  0  1  0  0  0  0  0  0
  1  4  1  0  0  0  0
  2  1  1  0  0  0  0
  2 11  1  0  0  0  0
  3 13  1  0  0  0  0
  4 16  1  1  0  0  0
  5 12  1  0  0  0  0
  6  3  2  0  0  0  0
  6 18  1  0  0  0  0
  7  4  1  0  0  0  0
  7  8  1  0  0  0  0
  8  5  2  0  0  0  0
  9 18  1  0  0  0  0
  9 15  2  0  0  0  0
 10  9  1  0  0  0  0
 13 14  1  0  0  0  0
 13  1  2  0  0  0  0
 14  7  2  0  0  0  0
 15 17  1  0  0  0  0
 16 12  2  0  0  0  0
 17 11  2  0  0  0  0
 17 19  1  0  0  0  0
 18  2  2  0  0  0  0
 19 20  1  0  0  0  0
 20 21  1  0  0  0  0
 21 22  2  0  0  0  0
 21 23  1  0  0  0  0
 23 25  1  6  0  0  0
 24 23  1  0  0  0  0
M  END
>  <MODEL>
5

>  <REMARK>
 VINA RESULT:      -7.1      1.593      2.314
  Name = 
  3 active torsions:
  status: ('A' for Active; 'I' for Inactive)
    1  A    between atoms: C_2  and  C_21
    2  A    between atoms: C_6  and  N_15
    3  A    between atoms: C_6  and  C_23
                            x       y       z     vdW  Elec       q    Type
                         _______ _______ _______ _____ _____    ______ ____

>  <TORSDO>
F 3

$$$$
=
 OpenBabel11052417253D

 25 28  0  0  1  0  0  0  0  0999 V2000
  185.7070  177.7680  143.9470 C   0  0  0  0  0  0  0  0  0  0  0  0
  186.4990  177.3120  142.8940 C   0  0  0  0  0  0  0  0  0  0  0  0
  183.9690  178.5260  142.4450 C   0  0  0  0  0  3  0  0  0  0  0  0
  185.8850  177.7680  145.3070 C   0  0  1  0  0  3  0  0  0  0  0  0
  185.6410  178.0630  148.0460 C   0  0  0  0  0  3  0  0  0  0  0  0
  184.7460  178.0780  141.3610 C   0  0  0  0  0  3  0  0  0  0  0  0
  184.7550  178.3550  145.8370 C   0  0  0  0  0  0  0  0  0  0  0  0
  184.6030  178.5180  147.2130 C   0  0  0  0  0  3  0  0  0  0  0  0
  186.8090  177.0160  140.5180 C   0  0  0  0  0  0  0  0  0  0  0  0
  186.3760  177.1490  139.0960 C   0  0  0  0  0  1  0  0  0  0  0  0
  187.7090  176.7330  143.1070 N   0  0  0  0  0  0  0  0  0  0  0  0
  186.7940  177.4620  147.4980 C   0  0  0  0  0  3  0  0  0  0  0  0
  184.4770  178.3580  143.7310 C   0  0  0  0  0  0  0  0  0  0  0  0
  183.8710  178.7280  144.8830 N   0  0  0  0  0  0  0  0  0  0  0  0
  188.0130  176.4440  140.7880 N   0  0  0  0  0  0  0  0  0  0  0  0
  186.9290  177.3060  146.1070 C   0  0  0  0  0  3  0  0  0  0  0  0
  188.4590  176.2940  142.0640 C   0  0  0  0  0  0  0  0  0  0  0  0
  186.0080  177.4720  141.5760 C   0  0  0  0  0  0  0  0  0  0  0  0
  189.7940  175.6890  142.3150 C   0  0  0  0  0  2  0  0  0  0  0  0
  189.6320  174.4320  143.0270 N   0  0  0  0  0  2  0  0  0  0  0  0
  189.5460  173.1800  142.3430 C   0  0  0  0  0  0  0  0  0  0  0  0
  189.6050  173.1340  141.0840 O   0  0  0  0  0  0  0  0  0  0  0  0
  189.3690  171.9160  143.1130 C   0  0  1  0  0  3  0  0  0  0  0  0
  190.1730  170.9110  142.5730 O   0  0  0  0  0  1  0  0  0  0  0  0
  189.7350  172.1340  144.5680 C   0  0  0  0  0  1  0  0  0  0  0  0
  1  4  1  0  0  0  0
  2 11  1  0  0  0  0
  2  1  1  0  0  0  0
  3 13  1  0  0  0  0
  4  7  1  0  0  0  0
  4 16  1  1  0  0  0
  6 18  1  0  0  0  0
  6  3  2  0  0  0  0
  7  8  1  0  0  0  0
  8  5  2  0  0  0  0
  9 15  2  0  0  0  0
  9 18  1  0  0  0  0
 10  9  1  0  0  0  0
 12  5  1  0  0  0  0
 13  1  2  0  0  0  0
 13 14  1  0  0  0  0
 14  7  2  0  0  0  0
 15 17  1  0  0  0  0
 16 12  2  0  0  0  0
 17 19  1  0  0  0  0
 17 11  2  0  0  0  0
 18  2  2  0  0  0  0
 19 20  1  0  0  0  0
 21 20  1  0  0  0  0
 21 23  1  0  0  0  0
 22 21  2  0  0  0  0
 23 25  1  1  0  0  0
 24 23  1  0  0  0  0
M  END
>  <MODEL>
6

>  <REMARK>
 VINA RESULT:      -7.1      1.803      1.988
  Name = 
  3 active torsions:
  status: ('A' for Active; 'I' for Inactive)
    1  A    between atoms: C_2  and  C_21
    2  A    between atoms: C_6  and  N_15
    3  A    between atoms: C_6  and  C_23
                            x       y       z     vdW  Elec       q    Type
                         _______ _______ _______ _____ _____    ______ ____

>  <TORSDO>
F 3

$$$$
=
 OpenBabel11052417253D

 25 28  0  0  1  0  0  0  0  0999 V2000
  187.3710  176.4640  145.2220 C   0  0  0  0  0  0  0  0  0  0  0  0
  188.0970  175.8400  144.2070 C   0  0  0  0  0  0  0  0  0  0  0  0
  188.8570  175.6290  146.9380 C   0  0  0  0  0  3  0  0  0  0  0  0
  186.2430  177.2450  145.2070 C   0  0  0  0  0  0  0  0  0  0  0  0
  184.0680  178.8300  145.8420 C   0  0  0  0  0  3  0  0  0  0  0  0
  189.6100  174.9880  145.9380 C   0  0  0  0  0  3  0  0  0  0  0  0
  185.9930  177.5730  146.5230 C   0  0  0  0  0  0  0  0  0  0  0  0
  184.9050  178.3700  146.8750 C   0  0  0  0  0  3  0  0  0  0  0  0
  189.9650  174.4580  143.5530 C   0  0  0  0  0  0  0  0  0  0  0  0
  191.1770  173.6390  143.8460 C   0  0  0  0  0  1  0  0  0  0  0  0
  187.7340  175.9400  142.9030 N   0  0  0  0  0  0  0  0  0  0  0  0
  184.3300  178.4910  144.4970 C   0  0  0  0  0  3  0  0  0  0  0  0
  187.7380  176.3630  146.5490 C   0  0  2  0  0  3  0  0  0  0  0  0
  186.9030  177.0390  147.3700 N   0  0  0  0  0  0  0  0  0  0  0  0
  189.5570  174.5900  142.2620 N   0  0  0  0  0  0  0  0  0  0  0  0
  185.4330  177.6860  144.1630 C   0  0  0  0  0  3  0  0  0  0  0  0
  188.4620  175.3260  141.9340 C   0  0  0  0  0  0  0  0  0  0  0  0
  189.2390  175.0870  144.5750 C   0  0  0  0  0  0  0  0  0  0  0  0
  188.0320  175.4220  140.5140 C   0  0  0  0  0  2  0  0  0  0  0  0
  188.5460  174.2820  139.7720 N   0  0  0  0  0  2  0  0  0  0  0  0
  188.2920  174.1110  138.3760 C   0  0  0  0  0  0  0  0  0  0  0  0
  187.6030  174.9550  137.7430 O   0  0  0  0  0  0  0  0  0  0  0  0
  188.8300  172.9200  137.6580 C   0  0  1  0  0  3  0  0  0  0  0  0
  189.8520  173.3060  136.7900 O   0  0  0  0  0  1  0  0  0  0  0  0
  189.3600  171.9050  138.6510 C   0  0  0  0  0  1  0  0  0  0  0  0
  1 13  1  0  0  0  0
  2 18  2  0  0  0  0
  2  1  1  0  0  0  0
  4  1  2  0  0  0  0
  4  7  1  0  0  0  0
  5  8  2  0  0  0  0
  6  3  2  0  0  0  0
  7  8  1  0  0  0  0
  7 14  2  0  0  0  0
  9 10  1  0  0  0  0
  9 18  1  0  0  0  0
 11  2  1  0  0  0  0
 12  5  1  0  0  0  0
 13  3  1  1  0  0  0
 13 14  1  0  0  0  0
 15  9  2  0  0  0  0
 16 12  2  0  0  0  0
 16  4  1  0  0  0  0
 17 15  1  0  0  0  0
 17 11  2  0  0  0  0
 18  6  1  0  0  0  0
 19 17  1  0  0  0  0
 20 19  1  0  0  0  0
 21 20  1  0  0  0  0
 22 21  2  0  0  0  0
 23 21  1  0  0  0  0
 23 25  1  1  0  0  0
 24 23  1  0  0  0  0
M  END
>  <MODEL>
7

>  <REMARK>
 VINA RESULT:      -7.0      2.994      5.239
  Name = 
  3 active torsions:
  status: ('A' for Active; 'I' for Inactive)
    1  A    between atoms: C_2  and  C_21
    2  A    between atoms: C_6  and  N_15
    3  A    between atoms: C_6  and  C_23
                            x       y       z     vdW  Elec       q    Type
                         _______ _______ _______ _____ _____    ______ ____

>  <TORSDO>
F 3

$$$$
=
 OpenBabel11052417253D

 25 28  0  0  1  0  0  0  0  0999 V2000
  186.9140  176.8470  143.9860 C   0  0  0  0  0  0  0  0  0  0  0  0
  188.0420  176.1390  144.3990 C   0  0  0  0  0  0  0  0  0  0  0  0
  186.1330  177.1270  146.2590 C   0  0  0  0  0  3  0  0  0  0  0  0
  186.4560  177.2200  142.7480 C   0  0  0  0  0  0  0  0  0  0  0  0
  185.0330  178.2430  140.6080 C   0  0  0  0  0  3  0  0  0  0  0  0
  187.2610  176.4150  146.7060 C   0  0  0  0  0  3  0  0  0  0  0  0
  185.2790  177.9050  142.9690 C   0  0  0  0  0  0  0  0  0  0  0  0
  184.5400  178.4320  141.9120 C   0  0  0  0  0  2  0  0  0  0  0  0
  189.3520  175.2040  146.1980 C   0  0  0  0  0  0  0  0  0  0  0  0
  189.6150  174.9180  147.6380 C   0  0  0  0  0  1  0  0  0  0  0  0
  188.9540  175.6660  143.5100 N   0  0  0  0  0  0  0  0  0  0  0  0
  186.2380  177.5420  140.3880 C   0  0  0  0  0  3  0  0  0  0  0  0
  185.9850  177.3280  144.8880 C   0  0  0  0  0  0  0  0  0  0  0  0
  184.9680  177.9840  144.2830 N   0  0  0  0  0  0  0  0  0  0  0  0
  190.2330  174.7510  145.2660 N   0  0  0  0  0  0  0  0  0  0  0  0
  186.9700  177.0180  141.4680 C   0  0  0  0  0  3  0  0  0  0  0  0
  190.0470  174.9830  143.9390 C   0  0  0  0  0  0  0  0  0  0  0  0
  188.2170  175.9190  145.7860 C   0  0  0  0  0  0  0  0  0  0  0  0
  191.0200  174.4480  142.9500 C   0  0  0  0  0  2  0  0  0  0  0  0
  190.4740  174.5800  141.6100 N   0  0  0  0  0  2  0  0  0  0  0  0
  189.8370  173.4890  140.9410 C   0  0  0  0  0  0  0  0  0  0  0  0
  189.7340  172.3660  141.5040 O   0  0  0  0  0  0  0  0  0  0  0  0
  189.3000  173.6670  139.5610 C   0  0  1  0  0  3  0  0  0  0  0  0
  190.3210  173.4940  138.6260 O   0  0  0  0  0  1  0  0  0  0  0  0
  188.1920  172.6660  139.2970 C   0  0  0  0  0  1  0  0  0  0  0  0
  1  2  2  0  0  0  0
  1 13  1  0  0  0  0
  2 18  1  0  0  0  0
  3  6  1  0  0  0  0
  4  7  1  0  0  0  0
  4  1  1  0  0  0  0
  5  8  1  0  0  0  0
  7 14  2  0  0  0  0
  8  7  1  0  0  0  0
  9 10  1  0  0  0  0
 11 17  2  0  0  0  0
 11  2  1  0  0  0  0
 12  5  2  0  0  0  0
 12 16  1  0  0  0  0
 13  3  2  0  0  0  0
 14 13  1  0  0  0  0
 15  9  2  0  0  0  0
 16  4  2  0  0  0  0
 17 15  1  0  0  0  0
 18  9  1  0  0  0  0
 18  6  2  0  0  0  0
 19 17  1  0  0  0  0
 20 19  1  0  0  0  0
 21 22  2  0  0  0  0
 21 20  1  0  0  0  0
 23 25  1  6  0  0  0
 23 21  1  0  0  0  0
 24 23  1  0  0  0  0
M  END
>  <MODEL>
8

>  <REMARK>
 VINA RESULT:      -6.9      2.135      5.084
  Name = 
  3 active torsions:
  status: ('A' for Active; 'I' for Inactive)
    1  A    between atoms: C_2  and  C_21
    2  A    between atoms: C_6  and  N_15
    3  A    between atoms: C_6  and  C_23
                            x       y       z     vdW  Elec       q    Type
                         _______ _______ _______ _____ _____    ______ ____

>  <TORSDO>
F 3

$$$$
=
 OpenBabel11052417253D

 25 28  0  0  1  0  0  0  0  0999 V2000
  190.2070  175.2480  144.1350 C   0  0  0  0  0  0  0  0  0  0  0  0
  189.2810  175.5440  143.1350 C   0  0  0  0  0  0  0  0  0  0  0  0
  191.2430  173.5140  142.8040 C   0  0  0  0  0  3  0  0  0  0  0  0
  190.4140  175.7680  145.3870 C   0  0  1  0  0  3  0  0  0  0  0  0
  191.3280  176.3630  147.9290 C   0  0  0  0  0  3  0  0  0  0  0  0
  190.3220  173.7880  141.7770 C   0  0  0  0  0  3  0  0  0  0  0  0
  191.4810  175.0700  145.9150 C   0  0  0  0  0  0  0  0  0  0  0  0
  191.9640  175.3470  147.1920 C   0  0  0  0  0  3  0  0  0  0  0  0
  188.4060  175.0950  140.9300 C   0  0  0  0  0  0  0  0  0  0  0  0
  188.3890  174.3560  139.6340 C   0  0  0  0  0  1  0  0  0  0  0  0
  188.3420  176.5130  143.2920 N   0  0  0  0  0  0  0  0  0  0  0  0
  190.2370  177.0730  147.3830 C   0  0  0  0  0  3  0  0  0  0  0  0
  191.1600  174.2630  143.9770 C   0  0  0  0  0  0  0  0  0  0  0  0
  191.9580  174.1350  145.0620 N   0  0  0  0  0  0  0  0  0  0  0  0
  187.4870  176.0750  141.1400 N   0  0  0  0  0  0  0  0  0  0  0  0
  189.7650  176.7800  146.0920 C   0  0  0  0  0  3  0  0  0  0  0  0
  187.4550  176.7840  142.3000 C   0  0  0  0  0  0  0  0  0  0  0  0
  189.3410  174.7970  141.9330 C   0  0  0  0  0  0  0  0  0  0  0  0
  186.4160  177.8280  142.5020 C   0  0  0  0  0  2  0  0  0  0  0  0
  186.0280  177.8640  143.9020 N   0  0  0  0  0  2  0  0  0  0  0  0
  185.6360  179.0770  144.5480 C   0  0  0  0  0  0  0  0  0  0  0  0
  185.6220  180.1650  143.9110 O   0  0  0  0  0  0  0  0  0  0  0  0
  185.2560  179.0690  145.9900 C   0  0  1  0  0  3  0  0  0  0  0  0
  183.9390  178.6310  146.1340 O   0  0  0  0  0  1  0  0  0  0  0  0
  186.1850  178.1600  146.7710 C   0  0  0  0  0  1  0  0  0  0  0  0
  1  4  1  0  0  0  0
  2 11  1  0  0  0  0
  2  1  1  0  0  0  0
  3 13  1  0  0  0  0
  4  7  1  0  0  0  0
  4 16  1  6  0  0  0
  6 18  1  0  0  0  0
  6  3  2  0  0  0  0
  7  8  1  0  0  0  0
  8  5  2  0  0  0  0
  9 15  2  0  0  0  0
  9 18  1  0  0  0  0
 10  9  1  0  0  0  0
 12  5  1  0  0  0  0
 13  1  2  0  0  0  0
 13 14  1  0  0  0  0
 14  7  2  0  0  0  0
 15 17  1  0  0  0  0
 16 12  2  0  0  0  0
 17 19  1  0  0  0  0
 17 11  2  0  0  0  0
 18  2  2  0  0  0  0
 19 20  1  0  0  0  0
 20 21  1  0  0  0  0
 21 23  1  0  0  0  0
 22 21  2  0  0  0  0
 23 24  1  0  0  0  0
 23 25  1  1  0  0  0
M  END
>  <MODEL>
9

>  <REMARK>
 VINA RESULT:      -6.9      2.637      5.688
  Name = 
  3 active torsions:
  status: ('A' for Active; 'I' for Inactive)
    1  A    between atoms: C_2  and  C_21
    2  A    between atoms: C_6  and  N_15
    3  A    between atoms: C_6  and  C_23
                            x       y       z     vdW  Elec       q    Type
                         _______ _______ _______ _____ _____    ______ ____

>  <TORSDO>
F 3

$$$$
