=
 OpenBabel11052418253D

 27 32  0  0  1  0  0  0  0  0999 V2000
  188.9240  177.3800  145.0290 N   0  0  0  0  0  2  0  0  0  0  0  0
  187.9590  176.4220  142.8280 C   0  0  0  0  0  0  0  0  0  0  0  0
  188.8790  174.4050  143.9530 N   0  0  0  0  0  0  0  0  0  0  0  0
  188.2010  174.5320  139.1040 C   0  0  0  0  0  3  0  0  0  0  0  0
  188.7470  172.5630  137.6700 C   0  0  0  0  0  1  0  0  0  0  0  0
  187.5720  177.0650  141.6440 C   0  0  0  0  0  3  0  0  0  0  0  0
  188.9980  173.1390  141.4000 C   0  0  0  0  0  3  0  0  0  0  0  0
  186.4720  176.7290  144.8870 C   0  0  1  0  0  3  0  0  0  0  0  0
  189.7110  174.8030  147.4860 C   0  0  0  0  0  2  0  0  0  0  0  0
  186.6460  178.1220  144.2950 C   0  0  0  0  0  2  0  0  0  0  0  0
  189.0650  172.5230  140.1470 C   0  0  0  0  0  3  0  0  0  0  0  0
  191.0430  175.4880  147.7260 C   0  0  0  0  0  2  0  0  0  0  0  0
  188.5280  174.4540  141.5150 C   0  0  0  0  0  0  0  0  0  0  0  0
  187.7640  177.1080  144.1650 C   0  0  1  0  0  0  0  0  0  0  0  0
  188.6660  173.2190  139.0010 C   0  0  0  0  0  0  0  0  0  0  0  0
  188.1230  175.1520  140.3530 C   0  0  0  0  0  0  0  0  0  0  0  0
  189.9830  176.3910  144.8230 C   0  0  1  0  0  3  0  0  0  0  0  0
  188.4680  175.1030  142.7590 C   0  0  0  0  0  0  0  0  0  0  0  0
  189.6580  174.2080  146.1580 N   0  0  0  0  0  2  0  0  0  0  0  0
  187.6670  176.4280  140.4480 N   0  0  0  0  0  0  0  0  0  0  0  0
  191.0620  176.8570  147.0740 C   0  0  0  0  0  2  0  0  0  0  0  0
  191.2660  176.7370  145.5730 C   0  0  0  0  0  2  0  0  0  0  0  0
  189.5030  174.9610  144.9510 C   0  0  0  0  0  0  0  0  0  0  0  0
  186.5980  176.7930  146.4030 C   0  0  0  0  0  2  0  0  0  0  0  0
  186.6270  178.6870  147.9470 C   0  0  0  0  0  2  0  0  0  0  0  0
  185.6100  177.7910  148.3290 O   0  0  0  0  0  0  0  0  0  0  0  0
  185.8100  177.9690  146.9460 C   0  0  2  0  0  3  0  0  0  0  0  0
  2 14  1  0  0  0  0
  3 23  2  0  0  0  0
  4 16  1  0  0  0  0
  5 15  1  0  0  0  0
  6  2  2  0  0  0  0
  7 13  1  0  0  0  0
  8 24  1  1  0  0  0
  9 12  1  0  0  0  0
 10  8  1  0  0  0  0
 11  7  2  0  0  0  0
 13 18  2  0  0  0  0
 14 10  1  6  0  0  0
 14  8  1  0  0  0  0
 14  1  1  0  0  0  0
 15  4  2  0  0  0  0
 15 11  1  0  0  0  0
 16 20  2  0  0  0  0
 16 13  1  0  0  0  0
 17 23  1  0  0  0  0
 17  1  1  0  0  0  0
 17 22  1  1  0  0  0
 18  2  1  0  0  0  0
 18  3  1  0  0  0  0
 19  9  1  0  0  0  0
 20  6  1  0  0  0  0
 21 12  1  0  0  0  0
 22 21  1  0  0  0  0
 23 19  1  0  0  0  0
 25 26  1  0  0  0  0
 27 24  1  6  0  0  0
 27 25  1  0  0  0  0
 27 26  1  0  0  0  0
M  END
>  <MODEL>
1

>  <REMARK>
 VINA RESULT:      -7.3      0.000      0.000
  Name = 
  2 active torsions:
  status: ('A' for Active; 'I' for Inactive)
    1  A    between atoms: C_9  and  C_27
    2  A    between atoms: C_25  and  C_27
                            x       y       z     vdW  Elec       q    Type
                         _______ _______ _______ _____ _____    ______ ____

>  <TORSDO>
F 2

$$$$
=
 OpenBabel11052418253D

 27 32  0  0  1  0  0  0  0  0999 V2000
  193.9450  173.3510  143.2780 N   0  0  0  0  0  2  0  0  0  0  0  0
  191.9390  174.9820  143.3710 C   0  0  0  0  0  0  0  0  0  0  0  0
  193.2010  175.5390  145.4400 N   0  0  0  0  0  0  0  0  0  0  0  0
  188.4320  176.5660  145.0110 C   0  0  0  0  0  3  0  0  0  0  0  0
  187.1800  177.6890  146.8560 C   0  0  0  0  0  1  0  0  0  0  0  0
  190.7260  174.9790  142.6700 C   0  0  0  0  0  3  0  0  0  0  0  0
  190.7970  176.6380  146.5110 C   0  0  0  0  0  3  0  0  0  0  0  0
  194.0600  175.5860  142.0750 C   0  0  1  0  0  3  0  0  0  0  0  0
  196.5980  174.2110  145.6280 C   0  0  0  0  0  2  0  0  0  0  0  0
  193.3100  174.5930  141.1960 C   0  0  0  0  0  2  0  0  0  0  0  0
  189.6160  177.1670  147.0370 C   0  0  0  0  0  3  0  0  0  0  0  0
  196.6620  172.7520  146.0360 C   0  0  0  0  0  2  0  0  0  0  0  0
  190.8050  176.0730  145.2280 C   0  0  0  0  0  0  0  0  0  0  0  0
  193.2060  174.4870  142.7040 C   0  0  1  0  0  0  0  0  0  0  0  0
  188.4350  177.1320  146.2880 C   0  0  0  0  0  0  0  0  0  0  0  0
  189.6100  176.0420  144.4740 C   0  0  0  0  0  0  0  0  0  0  0  0
  193.7670  173.2810  144.7290 C   0  0  1  0  0  3  0  0  0  0  0  0
  191.9740  175.5160  144.6830 C   0  0  0  0  0  0  0  0  0  0  0  0
  195.3490  174.8240  146.0600 N   0  0  0  0  0  2  0  0  0  0  0  0
  189.6010  175.4960  143.2300 N   0  0  0  0  0  0  0  0  0  0  0  0
  195.8680  171.8940  145.0700 C   0  0  0  0  0  2  0  0  0  0  0  0
  194.3760  172.0210  145.3370 C   0  0  0  0  0  2  0  0  0  0  0  0
  194.0840  174.5820  145.4370 C   0  0  0  0  0  0  0  0  0  0  0  0
  195.5460  175.2570  142.0750 C   0  0  0  0  0  2  0  0  0  0  0  0
  197.6030  176.3010  142.8820 C   0  0  0  0  0  2  0  0  0  0  0  0
  196.4950  176.9660  143.4400 O   0  0  0  0  0  0  0  0  0  0  0  0
  196.3660  176.5320  142.1060 C   0  0  2  0  0  3  0  0  0  0  0  0
  1 17  1  0  0  0  0
  2 18  1  0  0  0  0
  4 15  2  0  0  0  0
  6 20  1  0  0  0  0
  6  2  2  0  0  0  0
  7 11  2  0  0  0  0
  8 24  1  1  0  0  0
  8 14  1  0  0  0  0
  9 12  1  0  0  0  0
  9 19  1  0  0  0  0
 10  8  1  0  0  0  0
 13  7  1  0  0  0  0
 14 10  1  6  0  0  0
 14  1  1  0  0  0  0
 14  2  1  0  0  0  0
 15  5  1  0  0  0  0
 15 11  1  0  0  0  0
 16  4  1  0  0  0  0
 16 13  1  0  0  0  0
 17 22  1  1  0  0  0
 17 23  1  0  0  0  0
 18 13  2  0  0  0  0
 18  3  1  0  0  0  0
 20 16  2  0  0  0  0
 21 22  1  0  0  0  0
 21 12  1  0  0  0  0
 23  3  2  0  0  0  0
 23 19  1  0  0  0  0
 25 26  1  0  0  0  0
 27 24  1  1  0  0  0
 27 25  1  0  0  0  0
 27 26  1  0  0  0  0
M  END
>  <MODEL>
2

>  <REMARK>
 VINA RESULT:      -7.0      4.730      7.358
  Name = 
  2 active torsions:
  status: ('A' for Active; 'I' for Inactive)
    1  A    between atoms: C_9  and  C_27
    2  A    between atoms: C_25  and  C_27
                            x       y       z     vdW  Elec       q    Type
                         _______ _______ _______ _____ _____    ______ ____

>  <TORSDO>
F 2

$$$$
=
 OpenBabel11052418253D

 27 32  0  0  1  0  0  0  0  0999 V2000
  188.4270  175.5410  144.3680 N   0  0  0  0  0  2  0  0  0  0  0  0
  190.8230  175.4030  145.3360 C   0  0  0  0  0  0  0  0  0  0  0  0
  191.0760  177.0160  143.4600 N   0  0  0  0  0  0  0  0  0  0  0  0
  194.9070  174.5070  145.1990 C   0  0  0  0  0  3  0  0  0  0  0  0
  197.1940  174.8170  144.2480 C   0  0  0  0  0  1  0  0  0  0  0  0
  191.4060  174.4680  146.2010 C   0  0  0  0  0  3  0  0  0  0  0  0
  193.8610  176.4030  143.4200 C   0  0  0  0  0  3  0  0  0  0  0  0
  189.1030  177.0220  146.3180 C   0  0  1  0  0  3  0  0  0  0  0  0
  187.9670  178.3500  142.0880 C   0  0  0  0  0  2  0  0  0  0  0  0
  188.7250  175.6460  146.8530 C   0  0  0  0  0  2  0  0  0  0  0  0
  195.2240  176.0930  143.3950 C   0  0  0  0  0  3  0  0  0  0  0  0
  187.2710  177.4090  141.1240 C   0  0  0  0  0  2  0  0  0  0  0  0
  193.0120  175.7700  144.3380 C   0  0  0  0  0  0  0  0  0  0  0  0
  189.3600  175.7690  145.4830 C   0  0  1  0  0  0  0  0  0  0  0  0
  195.7460  175.1480  144.2840 C   0  0  0  0  0  0  0  0  0  0  0  0
  193.5450  174.8160  145.2360 C   0  0  0  0  0  0  0  0  0  0  0  0
  189.1120  175.6310  143.0770 C   0  0  1  0  0  3  0  0  0  0  0  0
  191.6350  176.0470  144.3710 C   0  0  0  0  0  0  0  0  0  0  0  0
  189.3850  178.0400  142.1950 N   0  0  0  0  0  2  0  0  0  0  0  0
  192.7340  174.1930  146.1300 N   0  0  0  0  0  0  0  0  0  0  0  0
  186.9650  176.0860  141.7990 C   0  0  0  0  0  2  0  0  0  0  0  0
  188.2180  175.2320  141.9060 C   0  0  0  0  0  2  0  0  0  0  0  0
  189.9040  176.9100  142.9040 C   0  0  0  0  0  0  0  0  0  0  0  0
  187.8490  177.7730  145.8930 C   0  0  0  0  0  2  0  0  0  0  0  0
  185.4930  177.5320  146.4950 C   0  0  0  0  0  2  0  0  0  0  0  0
  185.9180  178.8400  146.7960 O   0  0  0  0  0  0  0  0  0  0  0  0
  186.8450  177.8040  147.0290 C   0  0  2  0  0  3  0  0  0  0  0  0
  1 14  1  0  0  0  0
  2 14  1  0  0  0  0
  2  6  1  0  0  0  0
  3 18  1  0  0  0  0
  4 16  1  0  0  0  0
  5 15  1  0  0  0  0
  7 13  1  0  0  0  0
  8 24  1  6  0  0  0
  8 10  1  0  0  0  0
  9 19  1  0  0  0  0
 11  7  2  0  0  0  0
 11 15  1  0  0  0  0
 12 21  1  0  0  0  0
 12  9  1  0  0  0  0
 13 18  1  0  0  0  0
 13 16  2  0  0  0  0
 14  8  1  0  0  0  0
 14 10  1  1  0  0  0
 15  4  2  0  0  0  0
 16 20  1  0  0  0  0
 17 22  1  6  0  0  0
 17  1  1  0  0  0  0
 18  2  2  0  0  0  0
 19 23  1  0  0  0  0
 20  6  2  0  0  0  0
 21 22  1  0  0  0  0
 23 17  1  0  0  0  0
 23  3  2  0  0  0  0
 25 26  1  0  0  0  0
 25 27  1  0  0  0  0
 26 27  1  0  0  0  0
 27 24  1  6  0  0  0
M  END
>  <MODEL>
3

>  <REMARK>
 VINA RESULT:      -7.0      2.640      5.710
  Name = 
  2 active torsions:
  status: ('A' for Active; 'I' for Inactive)
    1  A    between atoms: C_9  and  C_27
    2  A    between atoms: C_25  and  C_27
                            x       y       z     vdW  Elec       q    Type
                         _______ _______ _______ _____ _____    ______ ____

>  <TORSDO>
F 2

$$$$
=
 OpenBabel11052418253D

 27 32  0  0  1  0  0  0  0  0999 V2000
  190.6840  176.2380  145.5200 N   0  0  0  0  0  2  0  0  0  0  0  0
  188.1050  176.4430  145.5300 C   0  0  0  0  0  0  0  0  0  0  0  0
  188.6260  176.1390  143.1180 N   0  0  0  0  0  0  0  0  0  0  0  0
  184.4550  178.2520  144.5780 C   0  0  0  0  0  3  0  0  0  0  0  0
  182.7600  179.0450  142.9260 C   0  0  0  0  0  1  0  0  0  0  0  0
  187.2300  176.9120  146.5200 C   0  0  0  0  0  3  0  0  0  0  0  0
  186.1150  177.3480  142.5100 C   0  0  0  0  0  3  0  0  0  0  0  0
  189.2430  174.1860  145.9230 C   0  0  1  0  0  3  0  0  0  0  0  0
  192.0050  174.9820  142.3610 C   0  0  0  0  0  2  0  0  0  0  0  0
  189.3860  174.9510  147.2330 C   0  0  0  0  0  2  0  0  0  0  0  0
  184.8880  177.9500  142.2140 C   0  0  0  0  0  3  0  0  0  0  0  0
  193.0510  176.0810  142.4010 C   0  0  0  0  0  2  0  0  0  0  0  0
  186.5180  177.1900  143.8430 C   0  0  0  0  0  0  0  0  0  0  0  0
  189.3710  175.7080  145.9200 C   0  0  1  0  0  0  0  0  0  0  0  0
  184.0590  178.3990  143.2470 C   0  0  0  0  0  0  0  0  0  0  0  0
  185.6760  177.6450  144.8840 C   0  0  0  0  0  0  0  0  0  0  0  0
  190.5920  176.9940  144.2690 C   0  0  1  0  0  3  0  0  0  0  0  0
  187.7540  176.6070  144.1680 C   0  0  0  0  0  0  0  0  0  0  0  0
  190.6730  175.5310  142.1460 N   0  0  0  0  0  2  0  0  0  0  0  0
  186.0530  177.5000  146.1800 N   0  0  0  0  0  0  0  0  0  0  0  0
  193.0690  176.7480  143.7630 C   0  0  0  0  0  2  0  0  0  0  0  0
  191.8950  177.7030  143.9120 C   0  0  0  0  0  2  0  0  0  0  0  0
  189.9240  176.2240  143.1490 C   0  0  0  0  0  0  0  0  0  0  0  0
  190.5490  173.4780  145.5920 C   0  0  0  0  0  2  0  0  0  0  0  0
  191.3400  171.8950  143.9070 C   0  0  0  0  0  2  0  0  0  0  0  0
  190.0860  172.4010  143.5160 O   0  0  0  0  0  0  0  0  0  0  0  0
  190.2710  172.1620  144.8930 C   0  0  2  0  0  3  0  0  0  0  0  0
  1 14  1  0  0  0  0
  2 14  1  0  0  0  0
  2  6  1  0  0  0  0
  3 23  2  0  0  0  0
  3 18  1  0  0  0  0
  4 16  1  0  0  0  0
  5 15  1  0  0  0  0
  7 13  1  0  0  0  0
  8 24  1  6  0  0  0
  8 10  1  0  0  0  0
  9 12  1  0  0  0  0
 11  7  2  0  0  0  0
 11 15  1  0  0  0  0
 12 21  1  0  0  0  0
 13 18  1  0  0  0  0
 13 16  2  0  0  0  0
 14  8  1  0  0  0  0
 14 10  1  1  0  0  0
 15  4  2  0  0  0  0
 16 20  1  0  0  0  0
 17 22  1  6  0  0  0
 17  1  1  0  0  0  0
 18  2  2  0  0  0  0
 19  9  1  0  0  0  0
 19 23  1  0  0  0  0
 20  6  2  0  0  0  0
 21 22  1  0  0  0  0
 23 17  1  0  0  0  0
 25 27  1  0  0  0  0
 26 25  1  0  0  0  0
 26 27  1  0  0  0  0
 27 24  1  1  0  0  0
M  END
>  <MODEL>
4

>  <REMARK>
 VINA RESULT:      -6.8      3.148      5.571
  Name = 
  2 active torsions:
  status: ('A' for Active; 'I' for Inactive)
    1  A    between atoms: C_9  and  C_27
    2  A    between atoms: C_25  and  C_27
                            x       y       z     vdW  Elec       q    Type
                         _______ _______ _______ _____ _____    ______ ____

>  <TORSDO>
F 2

$$$$
=
 OpenBabel11052418253D

 27 32  0  0  1  0  0  0  0  0999 V2000
  192.7720  173.4990  143.3200 N   0  0  0  0  0  2  0  0  0  0  0  0
  190.5290  174.4180  142.4150 C   0  0  0  0  0  0  0  0  0  0  0  0
  191.4560  176.3560  143.6680 N   0  0  0  0  0  0  0  0  0  0  0  0
  186.6560  175.9570  142.7750 C   0  0  0  0  0  3  0  0  0  0  0  0
  185.0490  177.7060  143.5440 C   0  0  0  0  0  1  0  0  0  0  0  0
  189.4150  173.7510  141.8880 C   0  0  0  0  0  3  0  0  0  0  0  0
  188.8040  177.3890  143.8640 C   0  0  0  0  0  3  0  0  0  0  0  0
  192.6510  174.4980  140.9870 C   0  0  1  0  0  3  0  0  0  0  0  0
  194.9820  176.1110  144.5800 C   0  0  0  0  0  2  0  0  0  0  0  0
  192.1710  173.0530  140.9290 C   0  0  0  0  0  2  0  0  0  0  0  0
  187.5030  177.8880  143.9680 C   0  0  0  0  0  3  0  0  0  0  0  0
  195.2390  175.2550  145.8060 C   0  0  0  0  0  2  0  0  0  0  0  0
  189.0410  176.1720  143.2110 C   0  0  0  0  0  0  0  0  0  0  0  0
  191.9240  173.8750  142.1780 C   0  0  1  0  0  0  0  0  0  0  0  0
  186.4310  177.1740  143.4230 C   0  0  0  0  0  0  0  0  0  0  0  0
  187.9540  175.4540  142.6600 C   0  0  0  0  0  0  0  0  0  0  0  0
  192.4530  174.3000  144.5040 C   0  0  1  0  0  3  0  0  0  0  0  0
  190.3360  175.6370  143.1090 C   0  0  0  0  0  0  0  0  0  0  0  0
  193.6120  176.6040  144.5590 N   0  0  0  0  0  2  0  0  0  0  0  0
  188.1680  174.2730  142.0250 N   0  0  0  0  0  0  0  0  0  0  0  0
  194.7020  173.8530  145.5970 C   0  0  0  0  0  2  0  0  0  0  0  0
  193.1900  173.8250  145.7530 C   0  0  0  0  0  2  0  0  0  0  0  0
  192.4770  175.7910  144.2440 C   0  0  0  0  0  0  0  0  0  0  0  0
  194.1620  174.5330  141.1660 C   0  0  0  0  0  2  0  0  0  0  0  0
  196.0740  176.0320  140.9040 C   0  0  0  0  0  2  0  0  0  0  0  0
  194.9160  176.7950  141.1480 O   0  0  0  0  0  0  0  0  0  0  0  0
  194.7620  175.6520  140.3380 C   0  0  2  0  0  3  0  0  0  0  0  0
  1 17  1  0  0  0  0
  2 18  1  0  0  0  0
  3 23  2  0  0  0  0
  4 15  2  0  0  0  0
  6 20  1  0  0  0  0
  6  2  2  0  0  0  0
  7 11  2  0  0  0  0
  8 24  1  1  0  0  0
  8 14  1  0  0  0  0
  9 12  1  0  0  0  0
 10  8  1  0  0  0  0
 13  7  1  0  0  0  0
 14 10  1  6  0  0  0
 14  2  1  0  0  0  0
 14  1  1  0  0  0  0
 15  5  1  0  0  0  0
 15 11  1  0  0  0  0
 16  4  1  0  0  0  0
 16 13  1  0  0  0  0
 17 22  1  1  0  0  0
 18 13  2  0  0  0  0
 18  3  1  0  0  0  0
 19  9  1  0  0  0  0
 20 16  2  0  0  0  0
 21 22  1  0  0  0  0
 21 12  1  0  0  0  0
 23 17  1  0  0  0  0
 23 19  1  0  0  0  0
 25 26  1  0  0  0  0
 27 25  1  0  0  0  0
 27 26  1  0  0  0  0
 27 24  1  1  0  0  0
M  END
>  <MODEL>
5

>  <REMARK>
 VINA RESULT:      -6.8      4.033      6.372
  Name = 
  2 active torsions:
  status: ('A' for Active; 'I' for Inactive)
    1  A    between atoms: C_9  and  C_27
    2  A    between atoms: C_25  and  C_27
                            x       y       z     vdW  Elec       q    Type
                         _______ _______ _______ _____ _____    ______ ____

>  <TORSDO>
F 2

$$$$
=
 OpenBabel11052418253D

 27 32  0  0  1  0  0  0  0  0999 V2000
  188.9380  176.8210  142.9170 N   0  0  0  0  0  2  0  0  0  0  0  0
  188.7930  174.6670  141.4910 C   0  0  0  0  0  0  0  0  0  0  0  0
  189.3150  173.7940  143.7600 N   0  0  0  0  0  0  0  0  0  0  0  0
  190.3180  171.1890  139.7360 C   0  0  0  0  0  3  0  0  0  0  0  0
  191.3540  168.9230  139.8870 C   0  0  0  0  0  1  0  0  0  0  0  0
  188.8190  174.4880  140.1010 C   0  0  0  0  0  3  0  0  0  0  0  0
  190.3150  171.4250  142.5270 C   0  0  0  0  0  3  0  0  0  0  0  0
  186.6920  175.7030  142.5180 C   0  0  1  0  0  3  0  0  0  0  0  0
  188.8940  176.1660  146.5040 C   0  0  0  0  0  2  0  0  0  0  0  0
  187.0300  176.5700  141.3120 C   0  0  0  0  0  2  0  0  0  0  0  0
  190.8150  170.2690  141.9210 C   0  0  0  0  0  3  0  0  0  0  0  0
  190.0530  177.1330  146.6600 C   0  0  0  0  0  2  0  0  0  0  0  0
  189.8100  172.4700  141.7420 C   0  0  0  0  0  0  0  0  0  0  0  0
  188.1440  175.8990  142.0890 C   0  0  1  0  0  0  0  0  0  0  0  0
  190.8140  170.1510  140.5270 C   0  0  0  0  0  0  0  0  0  0  0  0
  189.8100  172.3450  140.3340 C   0  0  0  0  0  0  0  0  0  0  0  0
  190.0220  176.1180  143.6040 C   0  0  1  0  0  3  0  0  0  0  0  0
  189.3210  173.6510  142.3250 C   0  0  0  0  0  0  0  0  0  0  0  0
  189.3050  174.9620  145.7960 N   0  0  0  0  0  2  0  0  0  0  0  0
  189.3250  173.3500  139.5590 N   0  0  0  0  0  0  0  0  0  0  0  0
  190.2660  177.9170  145.3800 C   0  0  0  0  0  2  0  0  0  0  0  0
  190.9690  177.0650  144.3350 C   0  0  0  0  0  2  0  0  0  0  0  0
  189.5530  174.9100  144.3880 C   0  0  0  0  0  0  0  0  0  0  0  0
  186.2960  176.5840  143.6940 C   0  0  0  0  0  2  0  0  0  0  0  0
  185.5120  178.8980  143.7800 C   0  0  0  0  0  2  0  0  0  0  0  0
  184.5860  178.0690  144.4410 O   0  0  0  0  0  0  0  0  0  0  0  0
  185.1940  177.5420  143.2840 C   0  0  2  0  0  3  0  0  0  0  0  0
  1 17  1  0  0  0  0
  2 14  1  0  0  0  0
  2 18  1  0  0  0  0
  3 23  2  0  0  0  0
  4 16  1  0  0  0  0
  4 15  2  0  0  0  0
  5 15  1  0  0  0  0
  6  2  2  0  0  0  0
  8 24  1  1  0  0  0
  9 12  1  0  0  0  0
 10  8  1  0  0  0  0
 11  7  2  0  0  0  0
 13 18  2  0  0  0  0
 13  7  1  0  0  0  0
 14 10  1  6  0  0  0
 14  8  1  0  0  0  0
 14  1  1  0  0  0  0
 15 11  1  0  0  0  0
 16 13  1  0  0  0  0
 17 22  1  1  0  0  0
 17 23  1  0  0  0  0
 18  3  1  0  0  0  0
 19  9  1  0  0  0  0
 20  6  1  0  0  0  0
 20 16  2  0  0  0  0
 21 12  1  0  0  0  0
 22 21  1  0  0  0  0
 23 19  1  0  0  0  0
 25 26  1  0  0  0  0
 27 24  1  1  0  0  0
 27 25  1  0  0  0  0
 27 26  1  0  0  0  0
M  END
>  <MODEL>
6

>  <REMARK>
 VINA RESULT:      -6.7      2.010      2.895
  Name = 
  2 active torsions:
  status: ('A' for Active; 'I' for Inactive)
    1  A    between atoms: C_9  and  C_27
    2  A    between atoms: C_25  and  C_27
                            x       y       z     vdW  Elec       q    Type
                         _______ _______ _______ _____ _____    ______ ____

>  <TORSDO>
F 2

$$$$
=
 OpenBabel11052418253D

 27 32  0  0  1  0  0  0  0  0999 V2000
  191.1520  174.9490  142.2470 N   0  0  0  0  0  2  0  0  0  0  0  0
  189.7220  176.8270  143.3060 C   0  0  0  0  0  0  0  0  0  0  0  0
  189.2800  174.8880  144.7980 N   0  0  0  0  0  0  0  0  0  0  0  0
  186.1410  178.6350  144.4930 C   0  0  0  0  0  3  0  0  0  0  0  0
  184.0450  178.6800  145.8480 C   0  0  0  0  0  1  0  0  0  0  0  0
  189.3080  178.0620  142.7880 C   0  0  0  0  0  3  0  0  0  0  0  0
  186.8630  176.1680  145.6060 C   0  0  0  0  0  3  0  0  0  0  0  0
  192.1930  176.5600  143.9130 C   0  0  1  0  0  3  0  0  0  0  0  0
  191.5570  172.0570  144.4320 C   0  0  0  0  0  2  0  0  0  0  0  0
  192.1760  177.2170  142.5380 C   0  0  0  0  0  2  0  0  0  0  0  0
  185.6740  176.7920  145.9930 C   0  0  0  0  0  3  0  0  0  0  0  0
  191.2350  171.1630  143.2500 C   0  0  0  0  0  2  0  0  0  0  0  0
  187.7020  176.7750  144.6620 C   0  0  0  0  0  0  0  0  0  0  0  0
  191.0710  176.2540  142.9220 C   0  0  1  0  0  0  0  0  0  0  0  0
  185.3140  178.0240  145.4390 C   0  0  0  0  0  0  0  0  0  0  0  0
  187.3350  178.0220  144.1050 C   0  0  0  0  0  0  0  0  0  0  0  0
  190.0340  174.0840  142.6270 C   0  0  1  0  0  3  0  0  0  0  0  0
  188.8920  176.1610  144.2410 C   0  0  0  0  0  0  0  0  0  0  0  0
  190.3890  172.8200  144.8480 N   0  0  0  0  0  2  0  0  0  0  0  0
  188.1370  178.6230  143.1880 N   0  0  0  0  0  0  0  0  0  0  0  0
  191.2530  171.9590  141.9590 C   0  0  0  0  0  2  0  0  0  0  0  0
  189.9880  172.7900  141.8210 C   0  0  0  0  0  2  0  0  0  0  0  0
  189.8680  173.9410  144.1260 C   0  0  0  0  0  0  0  0  0  0  0  0
  193.2610  175.4770  143.9550 C   0  0  0  0  0  2  0  0  0  0  0  0
  195.5100  175.3850  144.9060 C   0  0  0  0  0  2  0  0  0  0  0  0
  194.9210  176.6230  145.2270 O   0  0  0  0  0  0  0  0  0  0  0  0
  194.6420  176.1020  143.9470 C   0  0  2  0  0  3  0  0  0  0  0  0
  1 17  1  0  0  0  0
  1 14  1  0  0  0  0
  2 18  1  0  0  0  0
  4 15  2  0  0  0  0
  6 20  1  0  0  0  0
  6  2  2  0  0  0  0
  7 11  2  0  0  0  0
  8 24  1  6  0  0  0
  9 19  1  0  0  0  0
 10  8  1  0  0  0  0
 12  9  1  0  0  0  0
 13  7  1  0  0  0  0
 14 10  1  6  0  0  0
 14  2  1  0  0  0  0
 14  8  1  0  0  0  0
 15  5  1  0  0  0  0
 15 11  1  0  0  0  0
 16  4  1  0  0  0  0
 16 13  1  0  0  0  0
 17 22  1  6  0  0  0
 17 23  1  0  0  0  0
 18 13  2  0  0  0  0
 18  3  1  0  0  0  0
 20 16  2  0  0  0  0
 21 12  1  0  0  0  0
 22 21  1  0  0  0  0
 23  3  2  0  0  0  0
 23 19  1  0  0  0  0
 25 26  1  0  0  0  0
 27 24  1  1  0  0  0
 27 25  1  0  0  0  0
 27 26  1  0  0  0  0
M  END
>  <MODEL>
7

>  <REMARK>
 VINA RESULT:      -6.5      3.060      6.112
  Name = 
  2 active torsions:
  status: ('A' for Active; 'I' for Inactive)
    1  A    between atoms: C_9  and  C_27
    2  A    between atoms: C_25  and  C_27
                            x       y       z     vdW  Elec       q    Type
                         _______ _______ _______ _____ _____    ______ ____

>  <TORSDO>
F 2

$$$$
=
 OpenBabel11052418253D

 27 32  0  0  1  0  0  0  0  0999 V2000
  190.3570  175.1750  144.7660 N   0  0  0  0  0  2  0  0  0  0  0  0
  188.5980  176.3850  143.3040 C   0  0  0  0  0  0  0  0  0  0  0  0
  188.5600  177.6980  145.4150 N   0  0  0  0  0  0  0  0  0  0  0  0
  184.7450  177.7010  142.3430 C   0  0  0  0  0  3  0  0  0  0  0  0
  182.6950  179.0410  142.8290 C   0  0  0  0  0  1  0  0  0  0  0  0
  187.9440  175.9740  142.1340 C   0  0  0  0  0  3  0  0  0  0  0  0
  185.9470  178.5990  144.7090 C   0  0  0  0  0  3  0  0  0  0  0  0
  191.0790  176.9830  143.1330 C   0  0  1  0  0  3  0  0  0  0  0  0
  191.3430  177.1010  147.7010 C   0  0  0  0  0  2  0  0  0  0  0  0
  190.9200  175.6710  142.3750 C   0  0  0  0  0  2  0  0  0  0  0  0
  184.6630  179.0310  144.3660 C   0  0  0  0  0  3  0  0  0  0  0  0
  191.1900  175.8440  148.5350 C   0  0  0  0  0  2  0  0  0  0  0  0
  186.6410  177.7180  143.8690 C   0  0  0  0  0  0  0  0  0  0  0  0
  190.0290  175.9610  143.5660 C   0  0  1  0  0  0  0  0  0  0  0  0
  184.0640  178.5840  143.1840 C   0  0  0  0  0  0  0  0  0  0  0  0
  186.0320  177.2700  142.6740 C   0  0  0  0  0  0  0  0  0  0  0  0
  189.4330  175.4710  145.8630 C   0  0  1  0  0  3  0  0  0  0  0  0
  187.9250  177.2520  144.1990 C   0  0  0  0  0  0  0  0  0  0  0  0
  190.0520  177.5750  147.2220 N   0  0  0  0  0  2  0  0  0  0  0  0
  186.6910  176.4140  141.8510 N   0  0  0  0  0  0  0  0  0  0  0  0
  191.0380  174.6280  147.6410 C   0  0  0  0  0  2  0  0  0  0  0  0
  189.6330  174.5540  147.0660 C   0  0  0  0  0  2  0  0  0  0  0  0
  189.3150  176.9500  146.1660 C   0  0  0  0  0  0  0  0  0  0  0  0
  192.3390  176.9370  143.9860 C   0  0  0  0  0  2  0  0  0  0  0  0
  194.0410  175.2010  144.2320 C   0  0  0  0  0  2  0  0  0  0  0  0
  194.6640  176.4160  143.8900 O   0  0  0  0  0  0  0  0  0  0  0  0
  193.4230  176.1470  143.2790 C   0  0  2  0  0  3  0  0  0  0  0  0
  1 17  1  0  0  0  0
  2 14  1  0  0  0  0
  2 18  1  0  0  0  0
  3 23  2  0  0  0  0
  4 16  1  0  0  0  0
  4 15  2  0  0  0  0
  5 15  1  0  0  0  0
  6  2  2  0  0  0  0
  8 14  1  0  0  0  0
  8 24  1  1  0  0  0
  9 12  1  0  0  0  0
 10  8  1  0  0  0  0
 11  7  2  0  0  0  0
 13 18  2  0  0  0  0
 13  7  1  0  0  0  0
 14 10  1  6  0  0  0
 14  1  1  0  0  0  0
 15 11  1  0  0  0  0
 16 13  1  0  0  0  0
 17 23  1  0  0  0  0
 17 22  1  1  0  0  0
 18  3  1  0  0  0  0
 19  9  1  0  0  0  0
 20  6  1  0  0  0  0
 20 16  2  0  0  0  0
 21 12  1  0  0  0  0
 22 21  1  0  0  0  0
 23 19  1  0  0  0  0
 26 25  1  0  0  0  0
 27 26  1  0  0  0  0
 27 24  1  1  0  0  0
 27 25  1  0  0  0  0
M  END
>  <MODEL>
8

>  <REMARK>
 VINA RESULT:      -6.5      3.018      5.451
  Name = 
  2 active torsions:
  status: ('A' for Active; 'I' for Inactive)
    1  A    between atoms: C_9  and  C_27
    2  A    between atoms: C_25  and  C_27
                            x       y       z     vdW  Elec       q    Type
                         _______ _______ _______ _____ _____    ______ ____

>  <TORSDO>
F 2

$$$$
=
 OpenBabel11052418253D

 27 32  0  0  1  0  0  0  0  0999 V2000
  193.2430  173.9660  142.3190 N   0  0  0  0  0  2  0  0  0  0  0  0
  191.7030  175.6860  143.4870 C   0  0  0  0  0  0  0  0  0  0  0  0
  192.1260  174.0160  145.2800 N   0  0  0  0  0  0  0  0  0  0  0  0
  188.1930  176.9320  145.3910 C   0  0  0  0  0  3  0  0  0  0  0  0
  186.5470  176.8120  147.2640 C   0  0  0  0  0  1  0  0  0  0  0  0
  190.8870  176.6920  142.9520 C   0  0  0  0  0  3  0  0  0  0  0  0
  189.7440  174.9160  146.5640 C   0  0  0  0  0  3  0  0  0  0  0  0
  194.2350  176.0390  143.4020 C   0  0  1  0  0  3  0  0  0  0  0  0
  194.8640  171.6820  144.6540 C   0  0  0  0  0  2  0  0  0  0  0  0
  193.7230  176.4070  142.0150 C   0  0  0  0  0  2  0  0  0  0  0  0
  188.5710  175.3510  147.1870 C   0  0  0  0  0  3  0  0  0  0  0  0
  194.4900  170.5340  143.7370 C   0  0  0  0  0  2  0  0  0  0  0  0
  190.1520  175.4890  145.3520 C   0  0  0  0  0  0  0  0  0  0  0  0
  193.0150  175.3330  142.8160 C   0  0  1  0  0  0  0  0  0  0  0  0
  187.7980  176.3590  146.6020 C   0  0  0  0  0  0  0  0  0  0  0  0
  189.3680  176.5090  144.7650 C   0  0  0  0  0  0  0  0  0  0  0  0
  192.4980  172.9840  143.1070 C   0  0  1  0  0  3  0  0  0  0  0  0
  191.3160  175.0570  144.6950 C   0  0  0  0  0  0  0  0  0  0  0  0
  193.6830  172.2600  145.2810 N   0  0  0  0  0  2  0  0  0  0  0  0
  189.7490  177.0730  143.5900 N   0  0  0  0  0  0  0  0  0  0  0  0
  193.9970  171.0580  142.4020 C   0  0  0  0  0  2  0  0  0  0  0  0
  192.5730  171.5770  142.5200 C   0  0  0  0  0  2  0  0  0  0  0  0
  192.7450  173.0960  144.5970 C   0  0  0  0  0  0  0  0  0  0  0  0
  195.5120  175.2200  143.2810 C   0  0  0  0  0  2  0  0  0  0  0  0
  197.8730  175.8330  143.1380 C   0  0  0  0  0  2  0  0  0  0  0  0
  197.1000  176.9980  143.3020 O   0  0  0  0  0  0  0  0  0  0  0  0
  196.5540  175.9850  142.4890 C   0  0  2  0  0  3  0  0  0  0  0  0
  1 14  1  0  0  0  0
  1 17  1  0  0  0  0
  2 18  1  0  0  0  0
  4 15  2  0  0  0  0
  6  2  2  0  0  0  0
  6 20  1  0  0  0  0
  7 11  2  0  0  0  0
  8 24  1  6  0  0  0
  9 19  1  0  0  0  0
 10  8  1  0  0  0  0
 12  9  1  0  0  0  0
 13  7  1  0  0  0  0
 14 10  1  6  0  0  0
 14  8  1  0  0  0  0
 14  2  1  0  0  0  0
 15 11  1  0  0  0  0
 15  5  1  0  0  0  0
 16 13  1  0  0  0  0
 16  4  1  0  0  0  0
 17 22  1  6  0  0  0
 17 23  1  0  0  0  0
 18  3  1  0  0  0  0
 18 13  2  0  0  0  0
 20 16  2  0  0  0  0
 21 22  1  0  0  0  0
 21 12  1  0  0  0  0
 23  3  2  0  0  0  0
 23 19  1  0  0  0  0
 25 26  1  0  0  0  0
 27 25  1  0  0  0  0
 27 24  1  1  0  0  0
 27 26  1  0  0  0  0
M  END
>  <MODEL>
9

>  <REMARK>
 VINA RESULT:      -6.5      4.504      7.244
  Name = 
  2 active torsions:
  status: ('A' for Active; 'I' for Inactive)
    1  A    between atoms: C_9  and  C_27
    2  A    between atoms: C_25  and  C_27
                            x       y       z     vdW  Elec       q    Type
                         _______ _______ _______ _____ _____    ______ ____

>  <TORSDO>
F 2

$$$$
