=
 OpenBabel11052418203D

 27 30  0  0  1  0  0  0  0  0999 V2000
  190.5500  175.7810  144.5590 N   0  0  0  0  0  0  0  0  0  0  0  0
  191.8740  175.9120  145.1250 C   0  0  0  0  0  0  0  0  0  0  0  0
  192.0340  176.2910  146.4720 C   0  0  0  0  0  3  0  0  0  0  0  0
  194.3000  175.8020  144.9050 C   0  0  0  0  0  0  0  0  0  0  0  0
  194.4370  176.1750  146.2500 C   0  0  0  0  0  3  0  0  0  0  0  0
  193.0240  175.6680  144.3550 C   0  0  0  0  0  3  0  0  0  0  0  0
  193.3060  176.4260  147.0300 C   0  0  0  0  0  3  0  0  0  0  0  0
  195.4930  175.4190  144.0830 C   0  0  2  0  0  3  0  0  0  0  0  0
  196.3780  174.5850  144.8800 N   0  0  0  0  0  1  0  0  0  0  0  0
  197.4370  176.2270  142.9550 O   0  0  0  0  0  0  0  0  0  0  0  0
  196.3780  176.6120  142.1120 C   0  0  0  0  0  2  0  0  0  0  0  0
  196.2520  176.6440  143.5880 C   0  0  1  0  0  3  0  0  0  0  0  0
  189.3540  172.2400  142.5350 C   0  0  0  0  0  3  0  0  0  0  0  0
  190.1130  174.5910  143.8690 C   0  0  0  0  0  0  0  0  0  0  0  0
  189.8530  174.6110  142.4890 C   0  0  0  0  0  3  0  0  0  0  0  0
  189.4730  173.4390  141.8260 C   0  0  0  0  0  3  0  0  0  0  0  0
  189.6240  172.2090  143.9060 C   0  0  0  0  0  3  0  0  0  0  0  0
  190.0040  173.3790  144.5690 C   0  0  0  0  0  3  0  0  0  0  0  0
  189.6270  176.9170  144.6120 C   0  0  0  0  0  2  0  0  0  0  0  0
  188.7310  175.0470  147.3320 Cl  0  0  0  0  0  0  0  0  0  0  0  0
  185.6410  176.9550  146.2400 C   0  0  0  0  0  3  0  0  0  0  0  0
  185.8110  176.9580  144.7500 C   0  0  1  0  0  3  0  0  0  0  0  0
  188.2340  176.4830  145.0520 C   0  0  2  0  0  3  0  0  0  0  0  0
  186.6730  176.7380  147.0690 C   0  0  0  0  0  3  0  0  0  0  0  0
  184.6210  178.0500  144.0110 Cl  0  0  0  0  0  0  0  0  0  0  0  0
  187.2170  177.3910  144.3650 C   0  0  0  0  0  2  0  0  0  0  0  0
  188.0900  176.5370  146.5890 C   0  0  1  0  0  3  0  0  0  0  0  0
  1 19  1  0  0  0  0
  1  2  1  0  0  0  0
  2  3  1  0  0  0  0
  3  7  2  0  0  0  0
  4  5  2  0  0  0  0
  5  7  1  0  0  0  0
  6  4  1  0  0  0  0
  6  2  2  0  0  0  0
  8  9  1  1  0  0  0
  8  4  1  0  0  0  0
 10 12  1  0  0  0  0
 11 10  1  0  0  0  0
 11 12  1  0  0  0  0
 12  8  1  6  0  0  0
 13 17  1  0  0  0  0
 14  1  1  0  0  0  0
 14 18  1  0  0  0  0
 15 14  2  0  0  0  0
 16 15  1  0  0  0  0
 16 13  2  0  0  0  0
 17 18  2  0  0  0  0
 21 24  2  0  0  0  0
 22 25  1  6  0  0  0
 22 21  1  0  0  0  0
 23 19  1  1  0  0  0
 23 27  1  0  0  0  0
 26 22  1  0  0  0  0
 26 23  1  0  0  0  0
 27 24  1  0  0  0  0
 27 20  1  1  0  0  0
M  END
>  <MODEL>
1

>  <REMARK>
 VINA RESULT:      -7.2      0.000      0.000
  Name = 
  6 active torsions:
  status: ('A' for Active; 'I' for Inactive)
    1  A    between atoms: C_1  and  N_15
    2  A    between atoms: C_1  and  C_18
    3  A    between atoms: C_2  and  N_15
    4  A    between atoms: C_8  and  C_14
    5  A    between atoms: C_8  and  C_16
    6  A    between atoms: C_9  and  N_15
                            x       y       z     vdW  Elec       q    Type
                         _______ _______ _______ _____ _____    ______ ____

>  <TORSDO>
F 6

$$$$
=
 OpenBabel11052418203D

 27 30  0  0  1  0  0  0  0  0999 V2000
  187.5850  176.5570  145.2080 N   0  0  0  0  0  0  0  0  0  0  0  0
  188.8850  176.2470  145.7610 C   0  0  0  0  0  0  0  0  0  0  0  0
  188.9900  175.4640  146.9270 C   0  0  0  0  0  3  0  0  0  0  0  0
  191.3170  176.4150  145.6980 C   0  0  0  0  0  0  0  0  0  0  0  0
  191.3990  175.6290  146.8570 C   0  0  0  0  0  3  0  0  0  0  0  0
  190.0640  176.7130  145.1560 C   0  0  0  0  0  3  0  0  0  0  0  0
  190.2380  175.1610  147.4730 C   0  0  0  0  0  3  0  0  0  0  0  0
  192.5500  176.8330  144.9570 C   0  0  2  0  0  3  0  0  0  0  0  0
  192.5160  176.2780  143.6140 N   0  0  0  0  0  1  0  0  0  0  0  0
  194.9230  176.5950  144.8290 O   0  0  0  0  0  0  0  0  0  0  0  0
  194.7360  177.5160  145.8760 C   0  0  0  0  0  2  0  0  0  0  0  0
  193.8160  176.3730  145.6690 C   0  0  1  0  0  3  0  0  0  0  0  0
  184.6530  178.6390  147.4750 C   0  0  0  0  0  3  0  0  0  0  0  0
  186.5740  177.2730  145.9490 C   0  0  0  0  0  0  0  0  0  0  0  0
  185.2750  176.7540  146.0840 C   0  0  0  0  0  3  0  0  0  0  0  0
  184.3190  177.4370  146.8430 C   0  0  0  0  0  3  0  0  0  0  0  0
  185.9470  179.1540  147.3570 C   0  0  0  0  0  3  0  0  0  0  0  0
  186.9040  178.4720  146.5990 C   0  0  0  0  0  3  0  0  0  0  0  0
  187.2350  176.0690  143.8720 C   0  0  0  0  0  2  0  0  0  0  0  0
  189.2100  178.0120  141.8670 Cl  0  0  0  0  0  0  0  0  0  0  0  0
  185.6740  178.2820  140.5250 C   0  0  0  0  0  3  0  0  0  0  0  0
  184.8750  178.2350  141.7940 C   0  0  1  0  0  3  0  0  0  0  0  0
  186.8240  177.2110  142.9510 C   0  0  2  0  0  3  0  0  0  0  0  0
  186.9360  177.8320  140.4670 C   0  0  0  0  0  3  0  0  0  0  0  0
  183.1490  178.0600  141.4120 Cl  0  0  0  0  0  0  0  0  0  0  0  0
  185.3280  177.0840  142.6780 C   0  0  0  0  0  2  0  0  0  0  0  0
  187.6410  177.1940  141.6400 C   0  0  1  0  0  3  0  0  0  0  0  0
  1  2  1  0  0  0  0
  1 14  1  0  0  0  0
  2  3  1  0  0  0  0
  3  7  2  0  0  0  0
  4  5  2  0  0  0  0
  5  7  1  0  0  0  0
  6  4  1  0  0  0  0
  6  2  2  0  0  0  0
  8  9  1  6  0  0  0
  8  4  1  0  0  0  0
 10 12  1  0  0  0  0
 10 11  1  0  0  0  0
 12  8  1  6  0  0  0
 12 11  1  0  0  0  0
 14 15  2  0  0  0  0
 14 18  1  0  0  0  0
 15 16  1  0  0  0  0
 16 13  2  0  0  0  0
 17 13  1  0  0  0  0
 18 17  2  0  0  0  0
 19  1  1  0  0  0  0
 21 22  1  0  0  0  0
 22 25  1  6  0  0  0
 22 26  1  0  0  0  0
 23 19  1  1  0  0  0
 24 21  2  0  0  0  0
 24 27  1  0  0  0  0
 26 23  1  0  0  0  0
 27 20  1  1  0  0  0
 27 23  1  0  0  0  0
M  END
>  <MODEL>
2

>  <REMARK>
 VINA RESULT:      -7.1      2.829      4.924
  Name = 
  6 active torsions:
  status: ('A' for Active; 'I' for Inactive)
    1  A    between atoms: C_1  and  N_15
    2  A    between atoms: C_1  and  C_18
    3  A    between atoms: C_2  and  N_15
    4  A    between atoms: C_8  and  C_14
    5  A    between atoms: C_8  and  C_16
    6  A    between atoms: C_9  and  N_15
                            x       y       z     vdW  Elec       q    Type
                         _______ _______ _______ _____ _____    ______ ____

>  <TORSDO>
F 6

$$$$
=
 OpenBabel11052418203D

 27 30  0  0  1  0  0  0  0  0999 V2000
  189.9880  176.7510  144.4140 N   0  0  0  0  0  0  0  0  0  0  0  0
  189.4940  175.8130  143.4310 C   0  0  0  0  0  0  0  0  0  0  0  0
  188.8720  176.2800  142.2570 C   0  0  0  0  0  3  0  0  0  0  0  0
  189.1380  173.5250  142.6660 C   0  0  0  0  0  0  0  0  0  0  0  0
  188.5270  174.0120  141.5010 C   0  0  0  0  0  3  0  0  0  0  0  0
  189.6220  174.4260  143.6170 C   0  0  0  0  0  3  0  0  0  0  0  0
  188.3880  175.3860  141.3010 C   0  0  0  0  0  3  0  0  0  0  0  0
  189.3990  172.0610  142.8490 C   0  0  2  0  0  3  0  0  0  0  0  0
  189.3790  171.7430  144.2670 N   0  0  0  0  0  1  0  0  0  0  0  0
  190.8390  170.2470  142.2730 O   0  0  0  0  0  0  0  0  0  0  0  0
  190.5290  170.8330  141.0320 C   0  0  0  0  0  2  0  0  0  0  0  0
  190.7370  171.6490  142.2510 C   0  0  1  0  0  3  0  0  0  0  0  0
  193.9110  176.4160  146.0150 C   0  0  0  0  0  3  0  0  0  0  0  0
  191.3170  176.6680  144.9720 C   0  0  0  0  0  0  0  0  0  0  0  0
  191.5100  176.4270  146.3430 C   0  0  0  0  0  3  0  0  0  0  0  0
  192.8030  176.3040  146.8610 C   0  0  0  0  0  3  0  0  0  0  0  0
  193.7260  176.6420  144.6480 C   0  0  0  0  0  3  0  0  0  0  0  0
  192.4340  176.7650  144.1290 C   0  0  0  0  0  3  0  0  0  0  0  0
  189.0940  177.7890  144.9330 C   0  0  0  0  0  2  0  0  0  0  0  0
  188.3600  175.2940  147.1540 Cl  0  0  0  0  0  0  0  0  0  0  0  0
  185.1810  177.3030  146.6650 C   0  0  0  0  0  3  0  0  0  0  0  0
  185.2870  177.6690  145.2130 C   0  0  1  0  0  3  0  0  0  0  0  0
  187.7320  177.2160  145.3050 C   0  0  2  0  0  3  0  0  0  0  0  0
  186.2530  176.9290  147.3790 C   0  0  0  0  0  3  0  0  0  0  0  0
  184.0410  178.8650  144.8020 Cl  0  0  0  0  0  0  0  0  0  0  0  0
  186.6650  178.2280  144.8930 C   0  0  0  0  0  2  0  0  0  0  0  0
  187.6530  176.8970  146.8150 C   0  0  1  0  0  3  0  0  0  0  0  0
  1 19  1  0  0  0  0
  1 14  1  0  0  0  0
  2  6  1  0  0  0  0
  2  1  1  0  0  0  0
  3  2  2  0  0  0  0
  4  8  1  0  0  0  0
  4  6  2  0  0  0  0
  5  4  1  0  0  0  0
  7  5  2  0  0  0  0
  7  3  1  0  0  0  0
  8  9  1  1  0  0  0
 11 12  1  0  0  0  0
 11 10  1  0  0  0  0
 12 10  1  0  0  0  0
 12  8  1  1  0  0  0
 13 16  1  0  0  0  0
 14 15  1  0  0  0  0
 15 16  2  0  0  0  0
 17 13  2  0  0  0  0
 18 17  1  0  0  0  0
 18 14  2  0  0  0  0
 21 24  2  0  0  0  0
 22 25  1  1  0  0  0
 22 21  1  0  0  0  0
 23 19  1  1  0  0  0
 23 27  1  0  0  0  0
 26 22  1  0  0  0  0
 26 23  1  0  0  0  0
 27 20  1  6  0  0  0
 27 24  1  0  0  0  0
M  END
>  <MODEL>
3

>  <REMARK>
 VINA RESULT:      -7.1      2.512      5.114
  Name = 
  6 active torsions:
  status: ('A' for Active; 'I' for Inactive)
    1  A    between atoms: C_1  and  N_15
    2  A    between atoms: C_1  and  C_18
    3  A    between atoms: C_2  and  N_15
    4  A    between atoms: C_8  and  C_14
    5  A    between atoms: C_8  and  C_16
    6  A    between atoms: C_9  and  N_15
                            x       y       z     vdW  Elec       q    Type
                         _______ _______ _______ _____ _____    ______ ____

>  <TORSDO>
F 6

$$$$
=
 OpenBabel11052418203D

 27 30  0  0  1  0  0  0  0  0999 V2000
  190.5670  176.0090  144.5220 N   0  0  0  0  0  0  0  0  0  0  0  0
  190.1030  174.8680  143.7640 C   0  0  0  0  0  0  0  0  0  0  0  0
  189.9300  173.6210  144.3940 C   0  0  0  0  0  3  0  0  0  0  0  0
  189.3730  173.8660  141.6630 C   0  0  0  0  0  0  0  0  0  0  0  0
  189.2020  172.6350  142.3130 C   0  0  0  0  0  3  0  0  0  0  0  0
  189.8150  174.9730  142.3920 C   0  0  0  0  0  3  0  0  0  0  0  0
  189.4860  172.5110  143.6740 C   0  0  0  0  0  3  0  0  0  0  0  0
  188.9660  174.0490  140.2330 C   0  0  2  0  0  3  0  0  0  0  0  0
  188.0250  175.1530  140.1380 N   0  0  0  0  0  1  0  0  0  0  0  0
  188.0720  172.9820  138.2940 O   0  0  0  0  0  0  0  0  0  0  0  0
  189.2010  172.2060  138.6100 C   0  0  0  0  0  2  0  0  0  0  0  0
  188.3350  172.7870  139.6620 C   0  0  1  0  0  3  0  0  0  0  0  0
  194.4580  176.3130  146.2050 C   0  0  0  0  0  3  0  0  0  0  0  0
  191.8920  176.0790  145.0890 C   0  0  0  0  0  0  0  0  0  0  0  0
  193.0330  175.9710  144.2760 C   0  0  0  0  0  3  0  0  0  0  0  0
  194.3100  176.0850  144.8330 C   0  0  0  0  0  3  0  0  0  0  0  0
  193.3290  176.4360  147.0190 C   0  0  0  0  0  3  0  0  0  0  0  0
  192.0510  176.3210  146.4620 C   0  0  0  0  0  3  0  0  0  0  0  0
  189.6460  177.1130  144.7990 C   0  0  0  0  0  2  0  0  0  0  0  0
  188.7240  175.0460  147.3630 Cl  0  0  0  0  0  0  0  0  0  0  0  0
  185.6040  176.9060  146.2710 C   0  0  0  0  0  3  0  0  0  0  0  0
  185.8290  177.0080  144.7910 C   0  0  1  0  0  3  0  0  0  0  0  0
  188.2560  176.6030  145.1570 C   0  0  2  0  0  3  0  0  0  0  0  0
  186.6130  176.6740  147.1240 C   0  0  0  0  0  3  0  0  0  0  0  0
  184.6250  178.1000  144.0740 Cl  0  0  0  0  0  0  0  0  0  0  0  0
  187.2300  177.5140  144.4870 C   0  0  0  0  0  2  0  0  0  0  0  0
  188.0540  176.5560  146.6880 C   0  0  1  0  0  3  0  0  0  0  0  0
  1 19  1  0  0  0  0
  1 14  1  0  0  0  0
  2  3  1  0  0  0  0
  2  1  1  0  0  0  0
  4  5  2  0  0  0  0
  4  6  1  0  0  0  0
  5  7  1  0  0  0  0
  6  2  2  0  0  0  0
  7  3  2  0  0  0  0
  8  9  1  1  0  0  0
  8  4  1  0  0  0  0
 10 11  1  0  0  0  0
 10 12  1  0  0  0  0
 11 12  1  0  0  0  0
 12  8  1  1  0  0  0
 13 17  1  0  0  0  0
 14 18  1  0  0  0  0
 15 16  1  0  0  0  0
 15 14  2  0  0  0  0
 16 13  2  0  0  0  0
 18 17  2  0  0  0  0
 21 24  2  0  0  0  0
 22 25  1  1  0  0  0
 22 21  1  0  0  0  0
 23 19  1  1  0  0  0
 23 27  1  0  0  0  0
 26 22  1  0  0  0  0
 26 23  1  0  0  0  0
 27 24  1  0  0  0  0
 27 20  1  6  0  0  0
M  END
>  <MODEL>
4

>  <REMARK>
 VINA RESULT:      -7.1      2.562      5.427
  Name = 
  6 active torsions:
  status: ('A' for Active; 'I' for Inactive)
    1  A    between atoms: C_1  and  N_15
    2  A    between atoms: C_1  and  C_18
    3  A    between atoms: C_2  and  N_15
    4  A    between atoms: C_8  and  C_14
    5  A    between atoms: C_8  and  C_16
    6  A    between atoms: C_9  and  N_15
                            x       y       z     vdW  Elec       q    Type
                         _______ _______ _______ _____ _____    ______ ____

>  <TORSDO>
F 6

$$$$
=
 OpenBabel11052418203D

 27 30  0  0  1  0  0  0  0  0999 V2000
  190.0380  176.1750  142.8480 N   0  0  0  0  0  0  0  0  0  0  0  0
  188.8290  176.9650  142.9160 C   0  0  0  0  0  0  0  0  0  0  0  0
  188.2320  177.4490  141.7360 C   0  0  0  0  0  3  0  0  0  0  0  0
  187.0590  178.0370  144.2070 C   0  0  0  0  0  0  0  0  0  0  0  0
  186.4780  178.5040  143.0180 C   0  0  0  0  0  3  0  0  0  0  0  0
  188.2230  177.2680  144.1470 C   0  0  0  0  0  3  0  0  0  0  0  0
  187.0680  178.2170  141.7860 C   0  0  0  0  0  3  0  0  0  0  0  0
  186.3830  178.2370  145.5290 C   0  0  2  0  0  3  0  0  0  0  0  0
  187.1540  177.5760  146.5680 N   0  0  0  0  0  1  0  0  0  0  0  0
  184.3730  177.9240  146.7780 O   0  0  0  0  0  0  0  0  0  0  0  0
  183.9860  178.7880  145.7370 C   0  0  0  0  0  2  0  0  0  0  0  0
  184.9610  177.6920  145.5210 C   0  0  1  0  0  3  0  0  0  0  0  0
  190.0630  171.9750  142.1970 C   0  0  0  0  0  3  0  0  0  0  0  0
  190.0250  174.7530  142.6020 C   0  0  0  0  0  0  0  0  0  0  0  0
  190.6940  174.2060  141.4940 C   0  0  0  0  0  3  0  0  0  0  0  0
  190.7110  172.8220  141.2930 C   0  0  0  0  0  3  0  0  0  0  0  0
  189.4070  172.5090  143.3090 C   0  0  0  0  0  3  0  0  0  0  0  0
  189.3900  173.8930  143.5110 C   0  0  0  0  0  3  0  0  0  0  0  0
  191.3310  176.8110  143.1110 C   0  0  0  0  0  2  0  0  0  0  0  0
  194.3420  175.1890  143.1540 Cl  0  0  0  0  0  0  0  0  0  0  0  0
  193.6000  176.2300  146.7240 C   0  0  0  0  0  3  0  0  0  0  0  0
  192.1100  176.0630  146.7740 C   0  0  1  0  0  3  0  0  0  0  0  0
  192.0430  176.1570  144.2890 C   0  0  2  0  0  3  0  0  0  0  0  0
  194.2590  176.3530  145.5620 C   0  0  0  0  0  3  0  0  0  0  0  0
  191.4750  176.7640  148.2770 Cl  0  0  0  0  0  0  0  0  0  0  0  0
  191.4490  176.7250  145.5750 C   0  0  0  0  0  2  0  0  0  0  0  0
  193.5690  176.3930  144.2200 C   0  0  1  0  0  3  0  0  0  0  0  0
  1  2  1  0  0  0  0
  1 19  1  0  0  0  0
  2  6  1  0  0  0  0
  3  7  1  0  0  0  0
  3  2  2  0  0  0  0
  4  8  1  0  0  0  0
  5  4  1  0  0  0  0
  6  4  2  0  0  0  0
  7  5  2  0  0  0  0
  8  9  1  1  0  0  0
 11 10  1  0  0  0  0
 12  8  1  1  0  0  0
 12 11  1  0  0  0  0
 12 10  1  0  0  0  0
 13 17  1  0  0  0  0
 14  1  1  0  0  0  0
 14 18  1  0  0  0  0
 15 14  2  0  0  0  0
 16 15  1  0  0  0  0
 16 13  2  0  0  0  0
 17 18  2  0  0  0  0
 21 22  1  0  0  0  0
 22 25  1  1  0  0  0
 23 19  1  6  0  0  0
 23 26  1  0  0  0  0
 24 21  2  0  0  0  0
 26 22  1  0  0  0  0
 27 20  1  6  0  0  0
 27 23  1  0  0  0  0
 27 24  1  0  0  0  0
M  END
>  <MODEL>
5

>  <REMARK>
 VINA RESULT:      -6.8      3.700      7.045
  Name = 
  6 active torsions:
  status: ('A' for Active; 'I' for Inactive)
    1  A    between atoms: C_1  and  N_15
    2  A    between atoms: C_1  and  C_18
    3  A    between atoms: C_2  and  N_15
    4  A    between atoms: C_8  and  C_14
    5  A    between atoms: C_8  and  C_16
    6  A    between atoms: C_9  and  N_15
                            x       y       z     vdW  Elec       q    Type
                         _______ _______ _______ _____ _____    ______ ____

>  <TORSDO>
F 6

$$$$
=
 OpenBabel11052418203D

 27 30  0  0  1  0  0  0  0  0999 V2000
  188.1150  177.6160  144.4320 N   0  0  0  0  0  0  0  0  0  0  0  0
  187.9250  177.0770  143.1030 C   0  0  0  0  0  0  0  0  0  0  0  0
  187.5710  177.9280  142.0380 C   0  0  0  0  0  3  0  0  0  0  0  0
  187.8950  175.1900  141.5590 C   0  0  0  0  0  0  0  0  0  0  0  0
  187.5480  176.0570  140.5110 C   0  0  0  0  0  3  0  0  0  0  0  0
  188.0870  175.7060  142.8420 C   0  0  0  0  0  3  0  0  0  0  0  0
  187.3790  177.4210  140.7520 C   0  0  0  0  0  3  0  0  0  0  0  0
  188.1920  173.7450  141.3010 C   0  0  2  0  0  3  0  0  0  0  0  0
  188.9660  173.2080  142.4080 N   0  0  0  0  0  1  0  0  0  0  0  0
  189.2890  172.1910  139.8570 O   0  0  0  0  0  0  0  0  0  0  0  0
  188.2090  172.6560  139.0860 C   0  0  0  0  0  2  0  0  0  0  0  0
  188.9580  173.5510  139.9990 C   0  0  1  0  0  3  0  0  0  0  0  0
  184.8480  178.1950  147.0870 C   0  0  0  0  0  3  0  0  0  0  0  0
  187.0210  177.8400  145.3450 C   0  0  0  0  0  0  0  0  0  0  0  0
  186.0850  178.8620  145.1140 C   0  0  0  0  0  3  0  0  0  0  0  0
  185.0040  179.0390  145.9840 C   0  0  0  0  0  3  0  0  0  0  0  0
  185.7670  177.1670  147.3170 C   0  0  0  0  0  3  0  0  0  0  0  0
  186.8480  176.9900  146.4480 C   0  0  0  0  0  3  0  0  0  0  0  0
  189.4560  178.0270  144.8580 C   0  0  0  0  0  2  0  0  0  0  0  0
  191.6590  176.4710  142.7540 Cl  0  0  0  0  0  0  0  0  0  0  0  0
  192.6650  175.5390  146.2900 C   0  0  0  0  0  3  0  0  0  0  0  0
  191.3260  175.4450  146.9600 C   0  0  1  0  0  3  0  0  0  0  0  0
  190.3460  176.8210  145.1340 C   0  0  2  0  0  3  0  0  0  0  0  0
  192.8370  176.2150  145.1440 C   0  0  0  0  0  3  0  0  0  0  0  0
  191.5410  175.2930  148.7160 Cl  0  0  0  0  0  0  0  0  0  0  0  0
  190.4750  176.6660  146.6470 C   0  0  0  0  0  2  0  0  0  0  0  0
  191.7280  176.9810  144.4630 C   0  0  1  0  0  3  0  0  0  0  0  0
  1 19  1  0  0  0  0
  1 14  1  0  0  0  0
  2  1  1  0  0  0  0
  3  2  2  0  0  0  0
  4  6  2  0  0  0  0
  5  7  2  0  0  0  0
  5  4  1  0  0  0  0
  6  2  1  0  0  0  0
  7  3  1  0  0  0  0
  8  4  1  0  0  0  0
  8  9  1  1  0  0  0
 10 12  1  0  0  0  0
 11 10  1  0  0  0  0
 11 12  1  0  0  0  0
 12  8  1  1  0  0  0
 13 17  1  0  0  0  0
 14 18  1  0  0  0  0
 15 14  2  0  0  0  0
 15 16  1  0  0  0  0
 16 13  2  0  0  0  0
 18 17  2  0  0  0  0
 21 22  1  0  0  0  0
 22 25  1  1  0  0  0
 23 19  1  1  0  0  0
 23 26  1  0  0  0  0
 24 21  2  0  0  0  0
 26 22  1  0  0  0  0
 27 20  1  6  0  0  0
 27 23  1  0  0  0  0
 27 24  1  0  0  0  0
M  END
>  <MODEL>
6

>  <REMARK>
 VINA RESULT:      -6.8      3.528      6.827
  Name = 
  6 active torsions:
  status: ('A' for Active; 'I' for Inactive)
    1  A    between atoms: C_1  and  N_15
    2  A    between atoms: C_1  and  C_18
    3  A    between atoms: C_2  and  N_15
    4  A    between atoms: C_8  and  C_14
    5  A    between atoms: C_8  and  C_16
    6  A    between atoms: C_9  and  N_15
                            x       y       z     vdW  Elec       q    Type
                         _______ _______ _______ _____ _____    ______ ____

>  <TORSDO>
F 6

$$$$
=
 OpenBabel11052418203D

 27 30  0  0  1  0  0  0  0  0999 V2000
  189.4250  176.1090  143.7190 N   0  0  0  0  0  0  0  0  0  0  0  0
  188.3640  176.8190  144.3980 C   0  0  0  0  0  0  0  0  0  0  0  0
  188.4200  177.0120  145.7920 C   0  0  0  0  0  3  0  0  0  0  0  0
  186.2370  178.0110  144.3550 C   0  0  0  0  0  0  0  0  0  0  0  0
  186.3160  178.1960  145.7440 C   0  0  0  0  0  3  0  0  0  0  0  0
  187.2620  177.3320  143.6930 C   0  0  0  0  0  3  0  0  0  0  0  0
  187.4010  177.6920  146.4610 C   0  0  0  0  0  3  0  0  0  0  0  0
  185.1410  178.6410  143.5510 C   0  0  2  0  0  3  0  0  0  0  0  0
  184.0630  179.0430  144.4400 N   0  0  0  0  0  1  0  0  0  0  0  0
  183.5060  178.2900  141.8480 O   0  0  0  0  0  0  0  0  0  0  0  0
  184.7230  178.2960  141.1440 C   0  0  0  0  0  2  0  0  0  0  0  0
  184.6030  177.6900  142.4910 C   0  0  1  0  0  3  0  0  0  0  0  0
  189.2950  171.8930  143.2010 C   0  0  0  0  0  3  0  0  0  0  0  0
  189.4150  174.6770  143.5430 C   0  0  0  0  0  0  0  0  0  0  0  0
  189.7480  173.8170  144.6020 C   0  0  0  0  0  3  0  0  0  0  0  0
  189.6900  172.4300  144.4300 C   0  0  0  0  0  3  0  0  0  0  0  0
  188.9490  172.7410  142.1460 C   0  0  0  0  0  3  0  0  0  0  0  0
  189.0060  174.1280  142.3170 C   0  0  0  0  0  3  0  0  0  0  0  0
  190.6010  176.8460  143.2500 C   0  0  0  0  0  2  0  0  0  0  0  0
  192.4640  174.6020  141.4640 Cl  0  0  0  0  0  0  0  0  0  0  0  0
  194.7470  176.0680  144.1130 C   0  0  0  0  0  3  0  0  0  0  0  0
  193.7930  176.2420  145.2580 C   0  0  1  0  0  3  0  0  0  0  0  0
  191.8940  176.1480  143.6530 C   0  0  2  0  0  3  0  0  0  0  0  0
  194.3190  175.9460  142.8480 C   0  0  0  0  0  3  0  0  0  0  0  0
  194.5660  177.1870  146.5480 Cl  0  0  0  0  0  0  0  0  0  0  0  0
  192.5190  176.9360  144.8020 C   0  0  0  0  0  2  0  0  0  0  0  0
  192.8630  176.0300  142.4560 C   0  0  1  0  0  3  0  0  0  0  0  0
  1  2  1  0  0  0  0
  2  3  1  0  0  0  0
  3  7  2  0  0  0  0
  4  5  2  0  0  0  0
  5  7  1  0  0  0  0
  6  4  1  0  0  0  0
  6  2  2  0  0  0  0
  8  4  1  0  0  0  0
  8  9  1  1  0  0  0
 10 12  1  0  0  0  0
 11 10  1  0  0  0  0
 11 12  1  0  0  0  0
 12  8  1  1  0  0  0
 13 16  1  0  0  0  0
 14  1  1  0  0  0  0
 14 15  1  0  0  0  0
 16 15  2  0  0  0  0
 17 18  1  0  0  0  0
 17 13  2  0  0  0  0
 18 14  2  0  0  0  0
 19  1  1  0  0  0  0
 21 22  1  0  0  0  0
 22 25  1  1  0  0  0
 23 19  1  6  0  0  0
 23 26  1  0  0  0  0
 24 21  2  0  0  0  0
 26 22  1  0  0  0  0
 27 20  1  1  0  0  0
 27 24  1  0  0  0  0
 27 23  1  0  0  0  0
M  END
>  <MODEL>
7

>  <REMARK>
 VINA RESULT:      -6.8      3.881      7.468
  Name = 
  6 active torsions:
  status: ('A' for Active; 'I' for Inactive)
    1  A    between atoms: C_1  and  N_15
    2  A    between atoms: C_1  and  C_18
    3  A    between atoms: C_2  and  N_15
    4  A    between atoms: C_8  and  C_14
    5  A    between atoms: C_8  and  C_16
    6  A    between atoms: C_9  and  N_15
                            x       y       z     vdW  Elec       q    Type
                         _______ _______ _______ _____ _____    ______ ____

>  <TORSDO>
F 6

$$$$
=
 OpenBabel11052418203D

 27 30  0  0  1  0  0  0  0  0999 V2000
  188.5700  177.5120  145.0120 N   0  0  0  0  0  0  0  0  0  0  0  0
  189.6020  177.2620  145.9950 C   0  0  0  0  0  0  0  0  0  0  0  0
  189.4890  177.7970  147.2920 C   0  0  0  0  0  3  0  0  0  0  0  0
  191.7270  176.2530  146.6360 C   0  0  0  0  0  0  0  0  0  0  0  0
  191.5910  176.7910  147.9240 C   0  0  0  0  0  3  0  0  0  0  0  0
  190.7310  176.4860  145.6850 C   0  0  0  0  0  3  0  0  0  0  0  0
  190.4780  177.5680  148.2490 C   0  0  0  0  0  3  0  0  0  0  0  0
  192.8550  175.3250  146.3000 C   0  0  2  0  0  3  0  0  0  0  0  0
  194.1190  176.0070  146.5140 N   0  0  0  0  0  1  0  0  0  0  0  0
  193.9030  174.0530  144.5720 O   0  0  0  0  0  0  0  0  0  0  0  0
  192.7040  173.3600  144.8140 C   0  0  0  0  0  2  0  0  0  0  0  0
  192.7730  174.8390  144.8580 C   0  0  1  0  0  3  0  0  0  0  0  0
  184.4850  177.9290  146.1060 C   0  0  0  0  0  3  0  0  0  0  0  0
  187.1750  177.6300  145.3610 C   0  0  0  0  0  0  0  0  0  0  0  0
  186.5400  176.6470  146.1400 C   0  0  0  0  0  3  0  0  0  0  0  0
  185.1990  176.7970  146.5080 C   0  0  0  0  0  3  0  0  0  0  0  0
  185.1120  178.9180  145.3430 C   0  0  0  0  0  3  0  0  0  0  0  0
  186.4530  178.7690  144.9740 C   0  0  0  0  0  3  0  0  0  0  0  0
  188.9270  177.5770  143.5930 C   0  0  0  0  0  2  0  0  0  0  0  0
  186.0540  177.1690  141.7820 Cl  0  0  0  0  0  0  0  0  0  0  0  0
  188.4830  174.5020  140.6110 C   0  0  0  0  0  3  0  0  0  0  0  0
  189.1890  174.1680  141.8920 C   0  0  1  0  0  3  0  0  0  0  0  0
  188.4430  176.3430  142.8400 C   0  0  2  0  0  3  0  0  0  0  0  0
  187.8150  175.6540  140.4520 C   0  0  0  0  0  3  0  0  0  0  0  0
  190.5890  173.1290  141.5530 Cl  0  0  0  0  0  0  0  0  0  0  0  0
  189.6450  175.4310  142.6060 C   0  0  0  0  0  2  0  0  0  0  0  0
  187.7620  176.7320  141.5090 C   0  0  1  0  0  3  0  0  0  0  0  0
  1 14  1  0  0  0  0
  1  2  1  0  0  0  0
  2  3  1  0  0  0  0
  3  7  2  0  0  0  0
  4  5  2  0  0  0  0
  5  7  1  0  0  0  0
  6  2  2  0  0  0  0
  6  4  1  0  0  0  0
  8  9  1  6  0  0  0
  8  4  1  0  0  0  0
 10 11  1  0  0  0  0
 10 12  1  0  0  0  0
 11 12  1  0  0  0  0
 12  8  1  1  0  0  0
 13 16  1  0  0  0  0
 14 15  1  0  0  0  0
 15 16  2  0  0  0  0
 17 13  2  0  0  0  0
 18 17  1  0  0  0  0
 18 14  2  0  0  0  0
 19  1  1  0  0  0  0
 21 22  1  0  0  0  0
 22 25  1  6  0  0  0
 22 26  1  0  0  0  0
 23 19  1  6  0  0  0
 24 21  2  0  0  0  0
 24 27  1  0  0  0  0
 26 23  1  0  0  0  0
 27 20  1  1  0  0  0
 27 23  1  0  0  0  0
M  END
>  <MODEL>
8

>  <REMARK>
 VINA RESULT:      -6.7      2.589      5.111
  Name = 
  6 active torsions:
  status: ('A' for Active; 'I' for Inactive)
    1  A    between atoms: C_1  and  N_15
    2  A    between atoms: C_1  and  C_18
    3  A    between atoms: C_2  and  N_15
    4  A    between atoms: C_8  and  C_14
    5  A    between atoms: C_8  and  C_16
    6  A    between atoms: C_9  and  N_15
                            x       y       z     vdW  Elec       q    Type
                         _______ _______ _______ _____ _____    ______ ____

>  <TORSDO>
F 6

$$$$
=
 OpenBabel11052418203D

 27 30  0  0  1  0  0  0  0  0999 V2000
  189.8360  175.2730  145.5120 N   0  0  0  0  0  0  0  0  0  0  0  0
  188.6610  176.1140  145.5590 C   0  0  0  0  0  0  0  0  0  0  0  0
  187.9670  176.2930  146.7710 C   0  0  0  0  0  3  0  0  0  0  0  0
  187.0470  177.5740  144.4600 C   0  0  0  0  0  0  0  0  0  0  0  0
  186.3740  177.7430  145.6790 C   0  0  0  0  0  3  0  0  0  0  0  0
  188.1860  176.7680  144.4100 C   0  0  0  0  0  3  0  0  0  0  0  0
  186.8290  177.0990  146.8300 C   0  0  0  0  0  3  0  0  0  0  0  0
  186.6430  178.3440  143.2390 C   0  0  2  0  0  3  0  0  0  0  0  0
  185.6970  179.3810  143.6160 N   0  0  0  0  0  1  0  0  0  0  0  0
  185.5630  178.2290  141.1130 O   0  0  0  0  0  0  0  0  0  0  0  0
  186.7700  177.5360  140.9110 C   0  0  0  0  0  2  0  0  0  0  0  0
  186.0190  177.4400  142.1850 C   0  0  1  0  0  3  0  0  0  0  0  0
  193.8090  176.7710  145.7080 C   0  0  0  0  0  3  0  0  0  0  0  0
  191.1760  175.8020  145.6040 C   0  0  0  0  0  0  0  0  0  0  0  0
  192.0290  175.4290  146.6560 C   0  0  0  0  0  3  0  0  0  0  0  0
  193.3390  175.9150  146.7080 C   0  0  0  0  0  3  0  0  0  0  0  0
  192.9710  177.1370  144.6500 C   0  0  0  0  0  3  0  0  0  0  0  0
  191.6610  176.6510  144.5980 C   0  0  0  0  0  3  0  0  0  0  0  0
  189.6840  173.8330  145.2880 C   0  0  0  0  0  2  0  0  0  0  0  0
  192.7190  172.3920  144.6470 Cl  0  0  0  0  0  0  0  0  0  0  0  0
  190.4950  171.6500  141.6670 C   0  0  0  0  0  3  0  0  0  0  0  0
  189.6880  172.9120  141.5830 C   0  0  1  0  0  3  0  0  0  0  0  0
  190.2740  173.4120  143.9480 C   0  0  2  0  0  3  0  0  0  0  0  0
  191.1350  171.2930  142.7900 C   0  0  0  0  0  3  0  0  0  0  0  0
  188.3590  172.7000  140.4230 Cl  0  0  0  0  0  0  0  0  0  0  0  0
  189.1290  173.2910  142.9450 C   0  0  0  0  0  2  0  0  0  0  0  0
  191.0580  172.0870  144.0730 C   0  0  1  0  0  3  0  0  0  0  0  0
  1  2  1  0  0  0  0
  1 14  1  0  0  0  0
  2  3  1  0  0  0  0
  3  7  2  0  0  0  0
  4  5  2  0  0  0  0
  5  7  1  0  0  0  0
  6  4  1  0  0  0  0
  6  2  2  0  0  0  0
  8  9  1  1  0  0  0
  8  4  1  0  0  0  0
 10 12  1  0  0  0  0
 11 10  1  0  0  0  0
 11 12  1  0  0  0  0
 12  8  1  1  0  0  0
 13 16  1  0  0  0  0
 14 15  1  0  0  0  0
 15 16  2  0  0  0  0
 17 13  2  0  0  0  0
 18 17  1  0  0  0  0
 18 14  2  0  0  0  0
 19  1  1  0  0  0  0
 21 24  2  0  0  0  0
 22 25  1  6  0  0  0
 22 21  1  0  0  0  0
 22 26  1  0  0  0  0
 23 27  1  0  0  0  0
 23 19  1  1  0  0  0
 24 27  1  0  0  0  0
 26 23  1  0  0  0  0
 27 20  1  6  0  0  0
M  END
>  <MODEL>
9

>  <REMARK>
 VINA RESULT:      -6.7      3.531      6.990
  Name = 
  6 active torsions:
  status: ('A' for Active; 'I' for Inactive)
    1  A    between atoms: C_1  and  N_15
    2  A    between atoms: C_1  and  C_18
    3  A    between atoms: C_2  and  N_15
    4  A    between atoms: C_8  and  C_14
    5  A    between atoms: C_8  and  C_16
    6  A    between atoms: C_9  and  N_15
                            x       y       z     vdW  Elec       q    Type
                         _______ _______ _______ _____ _____    ______ ____

>  <TORSDO>
F 6

$$$$
