=
 OpenBabel11052418213D

 27 31  0  0  1  0  0  0  0  0999 V2000
  191.5900  176.2020  144.3700 C   0  0  2  0  0  0  0  0  0  0  0  0
  189.2630  176.9000  143.5830 C   0  0  1  0  0  3  0  0  0  0  0  0
  189.7650  176.8590  146.0370 C   0  0  0  0  0  2  0  0  0  0  0  0
  185.2290  178.2930  144.3880 C   0  0  0  0  0  2  0  0  0  0  0  0
  183.6910  178.6660  146.1380 O   0  0  0  0  0  0  0  0  0  0  0  0
  188.2040  176.7890  142.4860 C   0  0  0  0  0  2  0  0  0  0  0  0
  186.8510  177.1840  146.6450 C   0  0  0  0  0  2  0  0  0  0  0  0
  191.5580  175.3150  148.0050 O   0  0  0  0  0  1  0  0  0  0  0  0
  185.3240  177.0510  146.6710 C   0  0  0  0  0  2  0  0  0  0  0  0
  193.4050  175.6050  146.5130 C   0  0  0  0  0  2  0  0  0  0  0  0
  188.6830  176.6170  144.9820 C   0  0  1  0  0  3  0  0  0  0  0  0
  190.4980  176.0210  143.2870 C   0  0  2  0  0  3  0  0  0  0  0  0
  184.6790  178.0580  145.7640 C   0  0  0  0  0  0  0  0  0  0  0  0
  186.4210  177.3790  144.1210 C   0  0  2  0  0  3  0  0  0  0  0  0
  192.1350  177.6250  144.2640 C   0  0  0  0  0  1  0  0  0  0  0  0
  187.4560  177.4980  145.2570 C   0  0  1  0  0  3  0  0  0  0  0  0
  192.0000  176.0670  146.9170 C   0  0  1  0  0  3  0  0  0  0  0  0
  187.0480  177.7340  142.7810 C   0  0  0  0  0  2  0  0  0  0  0  0
  193.3590  174.6020  145.3650 C   0  0  0  0  0  2  0  0  0  0  0  0
  192.7760  175.2500  144.1040 C   0  0  0  0  0  2  0  0  0  0  0  0
  190.9770  175.9640  145.7750 C   0  0  2  0  0  3  0  0  0  0  0  0
  189.5140  171.9160  142.3890 C   0  0  0  0  0  3  0  0  0  0  0  0
  190.1470  174.5780  142.9960 C   0  0  0  0  0  0  0  0  0  0  0  0
  189.6910  173.7110  144.0020 C   0  0  0  0  0  3  0  0  0  0  0  0
  189.3770  172.3850  143.6980 C   0  0  0  0  0  3  0  0  0  0  0  0
  189.9670  172.7750  141.3830 C   0  0  0  0  0  3  0  0  0  0  0  0
  190.2830  174.1020  141.6870 C   0  0  0  0  0  3  0  0  0  0  0  0
  1 15  1  6  0  0  0
  1 21  1  0  0  0  0
  2  6  1  6  0  0  0
  2 11  1  0  0  0  0
  4 13  1  0  0  0  0
  6 18  1  0  0  0  0
  7  9  1  0  0  0  0
 10 17  1  0  0  0  0
 11 16  1  0  0  0  0
 11  3  1  1  0  0  0
 12 23  1  1  0  0  0
 12  2  1  0  0  0  0
 12  1  1  0  0  0  0
 13  5  2  0  0  0  0
 13  9  1  0  0  0  0
 14 18  1  6  0  0  0
 14  4  1  0  0  0  0
 14 16  1  0  0  0  0
 16  7  1  1  0  0  0
 17  8  1  1  0  0  0
 19 10  1  0  0  0  0
 20  1  1  0  0  0  0
 20 19  1  0  0  0  0
 21  3  1  1  0  0  0
 21 17  1  0  0  0  0
 22 25  1  0  0  0  0
 23 24  1  0  0  0  0
 25 24  2  0  0  0  0
 26 27  1  0  0  0  0
 26 22  2  0  0  0  0
 27 23  2  0  0  0  0
M  END
>  <MODEL>
1

>  <REMARK>
 VINA RESULT:      -8.8      0.000      0.000
  Name = 
  1 active torsions:
  status: ('A' for Active; 'I' for Inactive)
    1  A    between atoms: C_9  and  C_15
                            x       y       z     vdW  Elec       q    Type
                         _______ _______ _______ _____ _____    ______ ____

>  <TORSDO>
F 1

$$$$
=
 OpenBabel11052418213D

 27 31  0  0  1  0  0  0  0  0999 V2000
  190.6160  173.2660  144.5220 C   0  0  2  0  0  0  0  0  0  0  0  0
  189.2470  175.1360  145.5950 C   0  0  1  0  0  3  0  0  0  0  0  0
  188.9170  174.6160  143.1670 C   0  0  0  0  0  2  0  0  0  0  0  0
  186.2130  178.2370  145.3870 C   0  0  0  0  0  2  0  0  0  0  0  0
  184.8620  179.4350  143.8700 O   0  0  0  0  0  0  0  0  0  0  0  0
  189.1760  176.1840  146.7060 C   0  0  0  0  0  2  0  0  0  0  0  0
  187.3240  177.1290  142.8390 C   0  0  0  0  0  2  0  0  0  0  0  0
  190.5500  173.5380  140.7900 O   0  0  0  0  0  1  0  0  0  0  0  0
  186.8250  178.5790  142.8830 C   0  0  0  0  0  2  0  0  0  0  0  0
  191.3760  171.7800  142.1860 C   0  0  0  0  0  2  0  0  0  0  0  0
  188.9430  175.7370  144.2090 C   0  0  1  0  0  3  0  0  0  0  0  0
  190.5890  174.3720  145.6050 C   0  0  2  0  0  3  0  0  0  0  0  0
  185.8830  178.7900  144.0320 C   0  0  0  0  0  0  0  0  0  0  0  0
  187.5620  177.5250  145.3650 C   0  0  2  0  0  3  0  0  0  0  0  0
  189.5950  172.1970  144.9080 C   0  0  0  0  0  1  0  0  0  0  0  0
  187.6070  176.4940  144.2190 C   0  0  1  0  0  3  0  0  0  0  0  0
  190.3110  172.8650  141.9880 C   0  0  1  0  0  3  0  0  0  0  0  0
  187.8070  176.8500  146.7060 C   0  0  0  0  0  2  0  0  0  0  0  0
  192.5120  172.2640  143.0810 C   0  0  0  0  0  2  0  0  0  0  0  0
  191.9960  172.5750  144.4900 C   0  0  0  0  0  2  0  0  0  0  0  0
  190.2560  173.8780  143.1420 C   0  0  2  0  0  3  0  0  0  0  0  0
  194.0500  176.9510  145.6200 C   0  0  0  0  0  3  0  0  0  0  0  0
  191.7960  175.2850  145.5890 C   0  0  0  0  0  0  0  0  0  0  0  0
  192.0560  176.1450  144.5100 C   0  0  0  0  0  3  0  0  0  0  0  0
  193.1800  176.9750  144.5260 C   0  0  0  0  0  3  0  0  0  0  0  0
  193.7950  176.0970  146.6970 C   0  0  0  0  0  3  0  0  0  0  0  0
  192.6710  175.2660  146.6800 C   0  0  0  0  0  3  0  0  0  0  0  0
  1 15  1  1  0  0  0
  1 12  1  0  0  0  0
  2 12  1  0  0  0  0
  2  6  1  1  0  0  0
  5 13  2  0  0  0  0
  7  9  1  0  0  0  0
  9 13  1  0  0  0  0
 10 19  1  0  0  0  0
 11  3  1  6  0  0  0
 11 16  1  0  0  0  0
 11  2  1  0  0  0  0
 12 23  1  6  0  0  0
 13  4  1  0  0  0  0
 14  4  1  1  0  0  0
 14 18  1  0  0  0  0
 16  7  1  6  0  0  0
 16 14  1  0  0  0  0
 17  8  1  6  0  0  0
 17 10  1  0  0  0  0
 17 21  1  0  0  0  0
 18  6  1  0  0  0  0
 19 20  1  0  0  0  0
 20  1  1  0  0  0  0
 21  3  1  1  0  0  0
 21  1  1  0  0  0  0
 22 26  1  0  0  0  0
 23 27  1  0  0  0  0
 24 25  1  0  0  0  0
 24 23  2  0  0  0  0
 25 22  2  0  0  0  0
 27 26  2  0  0  0  0
M  END
>  <MODEL>
2

>  <REMARK>
 VINA RESULT:      -8.5      2.026      4.421
  Name = 
  1 active torsions:
  status: ('A' for Active; 'I' for Inactive)
    1  A    between atoms: C_9  and  C_15
                            x       y       z     vdW  Elec       q    Type
                         _______ _______ _______ _____ _____    ______ ____

>  <TORSDO>
F 1

$$$$
=
 OpenBabel11052418213D

 27 31  0  0  1  0  0  0  0  0999 V2000
  189.5150  175.1430  144.9050 C   0  0  2  0  0  0  0  0  0  0  0  0
  189.2160  173.9640  142.6590 C   0  0  1  0  0  3  0  0  0  0  0  0
  191.5050  174.7040  143.3590 C   0  0  0  0  0  2  0  0  0  0  0  0
  190.8300  172.3060  138.9830 C   0  0  0  0  0  2  0  0  0  0  0  0
  192.7960  172.1980  137.6830 O   0  0  0  0  0  0  0  0  0  0  0  0
  188.2660  173.6460  141.5050 C   0  0  0  0  0  2  0  0  0  0  0  0
  192.5310  174.1660  140.5980 C   0  0  0  0  0  2  0  0  0  0  0  0
  192.8010  176.9290  145.0470 O   0  0  0  0  0  1  0  0  0  0  0  0
  192.7130  174.0980  139.0770 C   0  0  0  0  0  2  0  0  0  0  0  0
  191.2060  176.5090  146.7810 C   0  0  0  0  0  2  0  0  0  0  0  0
  190.5660  174.5200  142.1650 C   0  0  1  0  0  3  0  0  0  0  0  0
  188.5650  174.8920  143.7080 C   0  0  2  0  0  3  0  0  0  0  0  0
  192.1660  172.8150  138.5250 C   0  0  0  0  0  0  0  0  0  0  0  0
  190.2030  173.2700  139.9870 C   0  0  2  0  0  3  0  0  0  0  0  0
  189.6920  173.8260  145.6580 C   0  0  0  0  0  1  0  0  0  0  0  0
  191.1970  173.5860  141.1220 C   0  0  1  0  0  3  0  0  0  0  0  0
  191.8820  175.9860  145.5070 C   0  0  1  0  0  3  0  0  0  0  0  0
  188.9230  172.6660  140.5440 C   0  0  0  0  0  2  0  0  0  0  0  0
  189.8640  177.1650  146.4760 C   0  0  0  0  0  2  0  0  0  0  0  0
  188.8810  176.1430  145.8960 C   0  0  0  0  0  2  0  0  0  0  0  0
  190.8850  175.6530  144.3850 C   0  0  2  0  0  3  0  0  0  0  0  0
  186.8260  178.4600  142.0140 C   0  0  0  0  0  3  0  0  0  0  0  0
  187.9780  176.1510  143.1070 C   0  0  0  0  0  0  0  0  0  0  0  0
  188.7880  177.1380  142.5250 C   0  0  0  0  0  3  0  0  0  0  0  0
  188.2130  178.2890  141.9800 C   0  0  0  0  0  3  0  0  0  0  0  0
  186.0150  177.4800  142.5920 C   0  0  0  0  0  3  0  0  0  0  0  0
  186.5900  176.3290  143.1370 C   0  0  0  0  0  3  0  0  0  0  0  0
  1 15  1  1  0  0  0
  1 20  1  0  0  0  0
  2  6  1  6  0  0  0
  2 12  1  0  0  0  0
  5 13  2  0  0  0  0
  9  7  1  0  0  0  0
 11  2  1  0  0  0  0
 11  3  1  1  0  0  0
 12 23  1  6  0  0  0
 12  1  1  0  0  0  0
 13  4  1  0  0  0  0
 13  9  1  0  0  0  0
 14  4  1  6  0  0  0
 14 18  1  0  0  0  0
 14 16  1  0  0  0  0
 16  7  1  6  0  0  0
 16 11  1  0  0  0  0
 17  8  1  6  0  0  0
 17 10  1  0  0  0  0
 18  6  1  0  0  0  0
 19 10  1  0  0  0  0
 20 19  1  0  0  0  0
 21  3  1  6  0  0  0
 21  1  1  0  0  0  0
 21 17  1  0  0  0  0
 22 26  1  0  0  0  0
 23 27  1  0  0  0  0
 24 23  2  0  0  0  0
 25 22  2  0  0  0  0
 25 24  1  0  0  0  0
 26 27  2  0  0  0  0
M  END
>  <MODEL>
3

>  <REMARK>
 VINA RESULT:      -7.0      2.740      6.306
  Name = 
  1 active torsions:
  status: ('A' for Active; 'I' for Inactive)
    1  A    between atoms: C_9  and  C_15
                            x       y       z     vdW  Elec       q    Type
                         _______ _______ _______ _____ _____    ______ ____

>  <TORSDO>
F 1

$$$$
=
 OpenBabel11052418213D

 27 31  0  0  1  0  0  0  0  0999 V2000
  192.7260  174.2150  145.3980 C   0  0  2  0  0  0  0  0  0  0  0  0
  191.1340  172.9990  143.8150 C   0  0  1  0  0  3  0  0  0  0  0  0
  193.2060  174.0630  142.8900 C   0  0  0  0  0  2  0  0  0  0  0  0
  190.0450  171.5800  139.8570 C   0  0  0  0  0  2  0  0  0  0  0  0
  190.6340  171.7520  137.5790 O   0  0  0  0  0  0  0  0  0  0  0  0
  189.6980  172.5440  143.5550 C   0  0  0  0  0  2  0  0  0  0  0  0
  192.1730  173.6690  140.1070 C   0  0  0  0  0  2  0  0  0  0  0  0
  195.0450  176.4550  143.4970 O   0  0  0  0  0  1  0  0  0  0  0  0
  191.2990  173.6240  138.8490 C   0  0  0  0  0  2  0  0  0  0  0  0
  195.0760  175.8160  145.8030 C   0  0  0  0  0  2  0  0  0  0  0  0
  191.7360  173.7420  142.6060 C   0  0  1  0  0  3  0  0  0  0  0  0
  191.2550  173.8270  145.1120 C   0  0  2  0  0  3  0  0  0  0  0  0
  190.6660  172.2740  138.6800 C   0  0  0  0  0  0  0  0  0  0  0  0
  190.1500  172.4460  141.1080 C   0  0  2  0  0  3  0  0  0  0  0  0
  193.5030  172.9390  145.7170 C   0  0  0  0  0  1  0  0  0  0  0  0
  191.6050  172.9050  141.3250 C   0  0  1  0  0  3  0  0  0  0  0  0
  194.7790  175.3920  144.3590 C   0  0  1  0  0  3  0  0  0  0  0  0
  189.6460  171.6660  142.3140 C   0  0  0  0  0  2  0  0  0  0  0  0
  193.8130  176.2710  146.5260 C   0  0  0  0  0  2  0  0  0  0  0  0
  192.8140  175.1160  146.6490 C   0  0  0  0  0  2  0  0  0  0  0  0
  193.3320  174.9150  144.1530 C   0  0  2  0  0  3  0  0  0  0  0  0
  188.4550  177.1040  145.3400 C   0  0  0  0  0  3  0  0  0  0  0  0
  190.2840  174.9860  145.1730 C   0  0  0  0  0  0  0  0  0  0  0  0
  190.3580  176.0590  144.2700 C   0  0  0  0  0  3  0  0  0  0  0  0
  189.4470  177.1140  144.3540 C   0  0  0  0  0  3  0  0  0  0  0  0
  188.3770  176.0380  146.2410 C   0  0  0  0  0  3  0  0  0  0  0  0
  189.2900  174.9830  146.1570 C   0  0  0  0  0  3  0  0  0  0  0  0
  1 15  1  1  0  0  0
  1 20  1  0  0  0  0
  2  6  1  6  0  0  0
  2 12  1  0  0  0  0
  5 13  2  0  0  0  0
  9  7  1  0  0  0  0
 10 19  1  0  0  0  0
 11  3  1  1  0  0  0
 11  2  1  0  0  0  0
 12 23  1  6  0  0  0
 12  1  1  0  0  0  0
 13  9  1  0  0  0  0
 13  4  1  0  0  0  0
 14  4  1  6  0  0  0
 14 16  1  0  0  0  0
 14 18  1  0  0  0  0
 16  7  1  6  0  0  0
 16 11  1  0  0  0  0
 17  8  1  6  0  0  0
 17 10  1  0  0  0  0
 18  6  1  0  0  0  0
 19 20  1  0  0  0  0
 21  3  1  6  0  0  0
 21 17  1  0  0  0  0
 21  1  1  0  0  0  0
 22 26  1  0  0  0  0
 23 27  1  0  0  0  0
 24 25  1  0  0  0  0
 24 23  2  0  0  0  0
 25 22  2  0  0  0  0
 27 26  2  0  0  0  0
M  END
>  <MODEL>
4

>  <REMARK>
 VINA RESULT:      -6.9      3.119      6.234
  Name = 
  1 active torsions:
  status: ('A' for Active; 'I' for Inactive)
    1  A    between atoms: C_9  and  C_15
                            x       y       z     vdW  Elec       q    Type
                         _______ _______ _______ _____ _____    ______ ____

>  <TORSDO>
F 1

$$$$
=
 OpenBabel11052418213D

 27 31  0  0  1  0  0  0  0  0999 V2000
  190.5210  175.2880  145.2880 C   0  0  2  0  0  0  0  0  0  0  0  0
  188.1650  175.9560  146.0090 C   0  0  1  0  0  3  0  0  0  0  0  0
  189.0620  176.7980  143.8270 C   0  0  0  0  0  2  0  0  0  0  0  0
  184.4000  178.0030  145.2990 C   0  0  0  0  0  2  0  0  0  0  0  0
  183.3520  179.5470  143.8560 O   0  0  0  0  0  0  0  0  0  0  0  0
  187.2100  176.1870  147.1810 C   0  0  0  0  0  2  0  0  0  0  0  0
  186.7710  178.7130  143.6160 C   0  0  0  0  0  2  0  0  0  0  0  0
  191.7740  177.5400  142.5730 O   0  0  0  0  0  1  0  0  0  0  0  0
  185.6980  179.7710  143.9020 C   0  0  0  0  0  2  0  0  0  0  0  0
  192.6980  175.5050  143.4280 C   0  0  0  0  0  2  0  0  0  0  0  0
  188.1800  177.1450  145.0280 C   0  0  1  0  0  3  0  0  0  0  0  0
  189.5880  175.5900  146.4850 C   0  0  2  0  0  3  0  0  0  0  0  0
  184.4040  179.1310  144.3100 C   0  0  0  0  0  0  0  0  0  0  0  0
  185.8180  177.6980  145.7740 C   0  0  2  0  0  3  0  0  0  0  0  0
  190.0320  174.0080  144.6130 C   0  0  0  0  0  1  0  0  0  0  0  0
  186.7570  177.4960  144.5680 C   0  0  1  0  0  3  0  0  0  0  0  0
  191.4260  176.2900  143.0840 C   0  0  1  0  0  3  0  0  0  0  0  0
  185.8060  176.4630  146.6610 C   0  0  0  0  0  2  0  0  0  0  0  0
  193.0540  175.6300  144.9060 C   0  0  0  0  0  2  0  0  0  0  0  0
  191.9580  175.0120  145.7800 C   0  0  0  0  0  2  0  0  0  0  0  0
  190.4840  176.4720  144.2850 C   0  0  2  0  0  3  0  0  0  0  0  0
  191.2570  178.3590  149.3440 C   0  0  0  0  0  3  0  0  0  0  0  0
  190.1560  176.5770  147.4810 C   0  0  0  0  0  0  0  0  0  0  0  0
  189.6040  177.8570  147.6490 C   0  0  0  0  0  3  0  0  0  0  0  0
  190.1540  178.7440  148.5770 C   0  0  0  0  0  3  0  0  0  0  0  0
  191.8100  177.0860  149.1810 C   0  0  0  0  0  3  0  0  0  0  0  0
  191.2610  176.1980  148.2520 C   0  0  0  0  0  3  0  0  0  0  0  0
  1 15  1  6  0  0  0
  1 20  1  0  0  0  0
  1 12  1  0  0  0  0
  2 12  1  0  0  0  0
  2  6  1  1  0  0  0
  5 13  2  0  0  0  0
  7  9  1  0  0  0  0
  9 13  1  0  0  0  0
 10 19  1  0  0  0  0
 11  3  1  6  0  0  0
 11  2  1  0  0  0  0
 12 23  1  6  0  0  0
 13  4  1  0  0  0  0
 14  4  1  6  0  0  0
 14 18  1  0  0  0  0
 16  7  1  1  0  0  0
 16 11  1  0  0  0  0
 16 14  1  0  0  0  0
 17  8  1  1  0  0  0
 17 10  1  0  0  0  0
 17 21  1  0  0  0  0
 18  6  1  0  0  0  0
 19 20  1  0  0  0  0
 21  3  1  6  0  0  0
 21  1  1  0  0  0  0
 23 24  2  0  0  0  0
 23 27  1  0  0  0  0
 24 25  1  0  0  0  0
 25 22  2  0  0  0  0
 26 22  1  0  0  0  0
 27 26  2  0  0  0  0
M  END
>  <MODEL>
5

>  <REMARK>
 VINA RESULT:      -6.7      1.952      4.472
  Name = 
  1 active torsions:
  status: ('A' for Active; 'I' for Inactive)
    1  A    between atoms: C_9  and  C_15
                            x       y       z     vdW  Elec       q    Type
                         _______ _______ _______ _____ _____    ______ ____

>  <TORSDO>
F 1

$$$$
=
 OpenBabel11052418213D

 27 31  0  0  1  0  0  0  0  0999 V2000
  193.4600  174.3510  145.1240 C   0  0  2  0  0  0  0  0  0  0  0  0
  191.9850  176.2950  144.3730 C   0  0  1  0  0  3  0  0  0  0  0  0
  191.1880  173.9460  144.0190 C   0  0  0  0  0  2  0  0  0  0  0  0
  188.3170  177.8460  142.6380 C   0  0  0  0  0  2  0  0  0  0  0  0
  186.3670  177.1870  141.4860 O   0  0  0  0  0  0  0  0  0  0  0  0
  191.9370  177.7520  143.9100 C   0  0  0  0  0  2  0  0  0  0  0  0
  188.9830  174.9520  142.2610 C   0  0  0  0  0  2  0  0  0  0  0  0
  192.3770  171.1540  143.5060 O   0  0  0  0  0  1  0  0  0  0  0  0
  188.1630  175.6880  141.1950 C   0  0  0  0  0  2  0  0  0  0  0  0
  193.9490  171.5250  145.2720 C   0  0  0  0  0  2  0  0  0  0  0  0
  191.1960  175.3610  143.4350 C   0  0  1  0  0  3  0  0  0  0  0  0
  193.4330  175.8020  144.5850 C   0  0  2  0  0  3  0  0  0  0  0  0
  187.5240  176.9220  141.7610 C   0  0  0  0  0  0  0  0  0  0  0  0
  189.7510  177.3450  142.7910 C   0  0  2  0  0  3  0  0  0  0  0  0
  192.8760  174.3540  146.5350 C   0  0  0  0  0  1  0  0  0  0  0  0
  189.7610  175.8680  143.2340 C   0  0  1  0  0  3  0  0  0  0  0  0
  192.6300  171.9560  144.6180 C   0  0  1  0  0  3  0  0  0  0  0  0
  190.4920  178.2140  143.7960 C   0  0  0  0  0  2  0  0  0  0  0  0
  195.1150  172.3910  144.8090 C   0  0  0  0  0  2  0  0  0  0  0  0
  194.9150  173.8460  145.2440 C   0  0  0  0  0  2  0  0  0  0  0  0
  192.6180  173.4340  144.1960 C   0  0  2  0  0  3  0  0  0  0  0  0
  196.0270  176.4890  141.2050 C   0  0  0  0  0  3  0  0  0  0  0  0
  194.3250  176.0350  143.3850 C   0  0  0  0  0  0  0  0  0  0  0  0
  193.8980  175.7410  142.0800 C   0  0  0  0  0  3  0  0  0  0  0  0
  194.7470  175.9680  140.9940 C   0  0  0  0  0  3  0  0  0  0  0  0
  196.4560  176.7840  142.5020 C   0  0  0  0  0  3  0  0  0  0  0  0
  195.6070  176.5570  143.5880 C   0  0  0  0  0  3  0  0  0  0  0  0
  1 20  1  0  0  0  0
  1 15  1  1  0  0  0
  2  6  1  6  0  0  0
  2 12  1  0  0  0  0
  5 13  2  0  0  0  0
  9 13  1  0  0  0  0
  9  7  1  0  0  0  0
 11  3  1  1  0  0  0
 11  2  1  0  0  0  0
 12 23  1  6  0  0  0
 12  1  1  0  0  0  0
 13  4  1  0  0  0  0
 14  4  1  1  0  0  0
 14 16  1  0  0  0  0
 14 18  1  0  0  0  0
 16  7  1  6  0  0  0
 16 11  1  0  0  0  0
 17  8  1  6  0  0  0
 17 10  1  0  0  0  0
 18  6  1  0  0  0  0
 19 20  1  0  0  0  0
 19 10  1  0  0  0  0
 21  3  1  1  0  0  0
 21 17  1  0  0  0  0
 21  1  1  0  0  0  0
 22 26  1  0  0  0  0
 23 27  1  0  0  0  0
 24 23  2  0  0  0  0
 25 22  2  0  0  0  0
 25 24  1  0  0  0  0
 26 27  2  0  0  0  0
M  END
>  <MODEL>
6

>  <REMARK>
 VINA RESULT:      -6.7      2.846      4.806
  Name = 
  1 active torsions:
  status: ('A' for Active; 'I' for Inactive)
    1  A    between atoms: C_9  and  C_15
                            x       y       z     vdW  Elec       q    Type
                         _______ _______ _______ _____ _____    ______ ____

>  <TORSDO>
F 1

$$$$
=
 OpenBabel11052418213D

 27 31  0  0  1  0  0  0  0  0999 V2000
  194.5610  172.5900  144.5150 C   0  0  2  0  0  0  0  0  0  0  0  0
  193.5340  174.5670  145.7620 C   0  0  1  0  0  3  0  0  0  0  0  0
  192.0290  172.9440  144.5890 C   0  0  0  0  0  2  0  0  0  0  0  0
  190.0920  176.8310  147.1360 C   0  0  0  0  0  2  0  0  0  0  0  0
  187.7530  177.0180  146.8880 O   0  0  0  0  0  0  0  0  0  0  0  0
  193.7360  175.9940  146.2720 C   0  0  0  0  0  2  0  0  0  0  0  0
  189.7160  174.8070  144.9640 C   0  0  0  0  0  2  0  0  0  0  0  0
  192.0940  171.0870  142.1350 O   0  0  0  0  0  1  0  0  0  0  0  0
  188.8070  176.0410  145.0180 C   0  0  0  0  0  2  0  0  0  0  0  0
  194.2420  170.2910  142.8240 C   0  0  0  0  0  2  0  0  0  0  0  0
  192.2230  174.4140  144.9660 C   0  0  1  0  0  3  0  0  0  0  0  0
  194.7520  174.0600  144.9590 C   0  0  2  0  0  3  0  0  0  0  0  0
  188.8030  176.6480  146.3900 C   0  0  0  0  0  0  0  0  0  0  0  0
  191.2730  176.3560  146.2950 C   0  0  2  0  0  3  0  0  0  0  0  0
  194.5670  171.7090  145.7630 C   0  0  0  0  0  1  0  0  0  0  0  0
  191.0240  174.9250  145.7790 C   0  0  1  0  0  3  0  0  0  0  0  0
  192.9570  171.0250  143.2280 C   0  0  1  0  0  3  0  0  0  0  0  0
  192.5480  176.4160  147.1240 C   0  0  0  0  0  2  0  0  0  0  0  0
  195.3500  171.2660  142.4400 C   0  0  0  0  0  2  0  0  0  0  0  0
  195.7480  172.1320  143.6400 C   0  0  0  0  0  2  0  0  0  0  0  0
  193.2130  172.4430  143.7610 C   0  0  2  0  0  3  0  0  0  0  0  0
  195.9870  176.7430  141.8120 C   0  0  0  0  0  3  0  0  0  0  0  0
  195.1640  174.9970  143.8450 C   0  0  0  0  0  0  0  0  0  0  0  0
  194.3290  175.2460  142.7440 C   0  0  0  0  0  3  0  0  0  0  0  0
  194.7400  176.1160  141.7310 C   0  0  0  0  0  3  0  0  0  0  0  0
  196.8210  176.5000  142.9070 C   0  0  0  0  0  3  0  0  0  0  0  0
  196.4100  175.6290  143.9190 C   0  0  0  0  0  3  0  0  0  0  0  0
  1 12  1  0  0  0  0
  1 15  1  1  0  0  0
  2  6  1  6  0  0  0
  6 18  1  0  0  0  0
  7  9  1  0  0  0  0
  9 13  1  0  0  0  0
 10 17  1  0  0  0  0
 11  3  1  1  0  0  0
 11  2  1  0  0  0  0
 11 16  1  0  0  0  0
 12 23  1  6  0  0  0
 12  2  1  0  0  0  0
 13  5  2  0  0  0  0
 13  4  1  0  0  0  0
 14 18  1  1  0  0  0
 14  4  1  0  0  0  0
 16  7  1  6  0  0  0
 16 14  1  0  0  0  0
 17  8  1  6  0  0  0
 17 21  1  0  0  0  0
 19 10  1  0  0  0  0
 19 20  1  0  0  0  0
 20  1  1  0  0  0  0
 21  1  1  0  0  0  0
 21  3  1  1  0  0  0
 22 26  1  0  0  0  0
 23 27  1  0  0  0  0
 24 23  2  0  0  0  0
 25 22  2  0  0  0  0
 25 24  1  0  0  0  0
 26 27  2  0  0  0  0
M  END
>  <MODEL>
7

>  <REMARK>
 VINA RESULT:      -6.7      3.091      5.706
  Name = 
  1 active torsions:
  status: ('A' for Active; 'I' for Inactive)
    1  A    between atoms: C_9  and  C_15
                            x       y       z     vdW  Elec       q    Type
                         _______ _______ _______ _____ _____    ______ ____

>  <TORSDO>
F 1

$$$$
=
 OpenBabel11052418213D

 27 31  0  0  1  0  0  0  0  0999 V2000
  189.6320  175.3050  146.0300 C   0  0  2  0  0  0  0  0  0  0  0  0
  189.6030  173.7260  144.0230 C   0  0  1  0  0  3  0  0  0  0  0  0
  191.7820  174.2300  145.1530 C   0  0  0  0  0  2  0  0  0  0  0  0
  191.6150  171.0710  141.2360 C   0  0  0  0  0  2  0  0  0  0  0  0
  193.7550  170.3720  140.5290 O   0  0  0  0  0  0  0  0  0  0  0  0
  188.8880  173.3170  142.7350 C   0  0  0  0  0  2  0  0  0  0  0  0
  193.2610  172.9460  142.8900 C   0  0  0  0  0  2  0  0  0  0  0  0
  193.1010  176.5360  146.7080 O   0  0  0  0  0  1  0  0  0  0  0  0
  193.7590  172.5190  141.5040 C   0  0  0  0  0  2  0  0  0  0  0  0
  191.1090  176.7630  148.0140 C   0  0  0  0  0  2  0  0  0  0  0  0
  191.1140  173.9400  143.8070 C   0  0  1  0  0  3  0  0  0  0  0  0
  188.9420  174.9520  144.6900 C   0  0  2  0  0  3  0  0  0  0  0  0
  193.0950  171.2490  141.0590 C   0  0  0  0  0  0  0  0  0  0  0  0
  190.9940  172.3170  141.8600 C   0  0  2  0  0  3  0  0  0  0  0  0
  189.3610  174.1740  147.0190 C   0  0  0  0  0  1  0  0  0  0  0  0
  191.7540  172.7130  143.1420 C   0  0  1  0  0  3  0  0  0  0  0  0
  191.9280  175.8750  147.0700 C   0  0  1  0  0  3  0  0  0  0  0  0
  189.5250  172.0590  142.1630 C   0  0  0  0  0  2  0  0  0  0  0  0
  190.0330  177.5410  147.2620 C   0  0  0  0  0  2  0  0  0  0  0  0
  189.0140  176.5850  146.6340 C   0  0  0  0  0  2  0  0  0  0  0  0
  191.1590  175.4660  145.8030 C   0  0  2  0  0  3  0  0  0  0  0  0
  188.3990  178.2910  142.0090 C   0  0  0  0  0  3  0  0  0  0  0  0
  188.7750  176.1250  143.7490 C   0  0  0  0  0  0  0  0  0  0  0  0
  189.8800  176.8370  143.2550 C   0  0  0  0  0  3  0  0  0  0  0  0
  189.6910  177.9160  142.3880 C   0  0  0  0  0  3  0  0  0  0  0  0
  187.2960  177.5850  142.4980 C   0  0  0  0  0  3  0  0  0  0  0  0
  187.4850  176.5060  143.3660 C   0  0  0  0  0  3  0  0  0  0  0  0
  1 20  1  0  0  0  0
  1 15  1  1  0  0  0
  2  6  1  6  0  0  0
  2 12  1  0  0  0  0
  5 13  2  0  0  0  0
  9  7  1  0  0  0  0
 11  2  1  0  0  0  0
 11  3  1  1  0  0  0
 12 23  1  6  0  0  0
 12  1  1  0  0  0  0
 13  4  1  0  0  0  0
 13  9  1  0  0  0  0
 14  4  1  1  0  0  0
 14 18  1  0  0  0  0
 14 16  1  0  0  0  0
 16  7  1  6  0  0  0
 16 11  1  0  0  0  0
 17  8  1  6  0  0  0
 17 10  1  0  0  0  0
 18  6  1  0  0  0  0
 19 10  1  0  0  0  0
 20 19  1  0  0  0  0
 21  3  1  1  0  0  0
 21  1  1  0  0  0  0
 21 17  1  0  0  0  0
 22 25  2  0  0  0  0
 22 26  1  0  0  0  0
 24 23  2  0  0  0  0
 25 24  1  0  0  0  0
 26 27  2  0  0  0  0
 27 23  1  0  0  0  0
M  END
>  <MODEL>
8

>  <REMARK>
 VINA RESULT:      -6.6      2.598      6.262
  Name = 
  1 active torsions:
  status: ('A' for Active; 'I' for Inactive)
    1  A    between atoms: C_9  and  C_15
                            x       y       z     vdW  Elec       q    Type
                         _______ _______ _______ _____ _____    ______ ____

>  <TORSDO>
F 1

$$$$
=
 OpenBabel11052418213D

 27 31  0  0  1  0  0  0  0  0999 V2000
  189.5690  175.2370  144.7260 C   0  0  2  0  0  0  0  0  0  0  0  0
  191.5920  173.6900  144.9150 C   0  0  1  0  0  3  0  0  0  0  0  0
  191.9410  176.1710  144.9480 C   0  0  0  0  0  2  0  0  0  0  0  0
  195.8610  173.0410  145.3880 C   0  0  0  0  0  2  0  0  0  0  0  0
  197.9350  174.1640  145.3940 O   0  0  0  0  0  0  0  0  0  0  0  0
  192.1770  172.3140  144.5930 C   0  0  0  0  0  2  0  0  0  0  0  0
  194.8890  175.7670  144.6240 C   0  0  0  0  0  2  0  0  0  0  0  0
  190.6250  178.7060  143.8000 O   0  0  0  0  0  1  0  0  0  0  0  0
  196.2740  175.2980  144.1630 C   0  0  0  0  0  2  0  0  0  0  0  0
  188.4900  177.8890  144.5050 C   0  0  0  0  0  2  0  0  0  0  0  0
  192.5330  174.8350  144.4920 C   0  0  1  0  0  3  0  0  0  0  0  0
  190.1750  173.8690  144.3280 C   0  0  2  0  0  3  0  0  0  0  0  0
  196.7760  174.1720  145.0190 C   0  0  0  0  0  0  0  0  0  0  0  0
  194.4840  173.2350  144.7580 C   0  0  2  0  0  3  0  0  0  0  0  0
  189.3310  175.2330  146.2350 C   0  0  0  0  0  1  0  0  0  0  0  0
  193.9370  174.6390  145.0820 C   0  0  1  0  0  3  0  0  0  0  0  0
  190.0140  177.7810  144.6460 C   0  0  1  0  0  3  0  0  0  0  0  0
  193.5350  172.1570  145.2600 C   0  0  0  0  0  2  0  0  0  0  0  0
  187.9400  176.8500  143.5330 C   0  0  0  0  0  2  0  0  0  0  0  0
  188.1910  175.4330  144.0580 C   0  0  0  0  0  2  0  0  0  0  0  0
  190.5520  176.3740  144.3410 C   0  0  2  0  0  3  0  0  0  0  0  0
  189.9060  172.9510  140.1200 C   0  0  0  0  0  3  0  0  0  0  0  0
  190.0980  173.5630  142.8480 C   0  0  0  0  0  0  0  0  0  0  0  0
  190.9140  174.2230  141.9160 C   0  0  0  0  0  3  0  0  0  0  0  0
  190.8180  173.9180  140.5560 C   0  0  0  0  0  3  0  0  0  0  0  0
  189.0930  172.2910  141.0440 C   0  0  0  0  0  3  0  0  0  0  0  0
  189.1880  172.5970  142.4050 C   0  0  0  0  0  3  0  0  0  0  0  0
  1 15  1  1  0  0  0
  2  6  1  6  0  0  0
  6 18  1  0  0  0  0
  9  7  1  0  0  0  0
  9 13  1  0  0  0  0
 10 17  1  0  0  0  0
 11  2  1  0  0  0  0
 11  3  1  1  0  0  0
 11 16  1  0  0  0  0
 12 23  1  6  0  0  0
 12  1  1  0  0  0  0
 12  2  1  0  0  0  0
 13  4  1  0  0  0  0
 13  5  2  0  0  0  0
 14 16  1  0  0  0  0
 14 18  1  1  0  0  0
 14  4  1  0  0  0  0
 16  7  1  6  0  0  0
 17  8  1  6  0  0  0
 19 20  1  0  0  0  0
 19 10  1  0  0  0  0
 20  1  1  0  0  0  0
 21 17  1  0  0  0  0
 21  1  1  0  0  0  0
 21  3  1  1  0  0  0
 22 25  2  0  0  0  0
 22 26  1  0  0  0  0
 24 23  2  0  0  0  0
 25 24  1  0  0  0  0
 26 27  2  0  0  0  0
 27 23  1  0  0  0  0
M  END
>  <MODEL>
9

>  <REMARK>
 VINA RESULT:      -6.6      2.486      6.722
  Name = 
  1 active torsions:
  status: ('A' for Active; 'I' for Inactive)
    1  A    between atoms: C_9  and  C_15
                            x       y       z     vdW  Elec       q    Type
                         _______ _______ _______ _____ _____    ______ ____

>  <TORSDO>
F 1

$$$$
