=
 OpenBabel11052417133D

 30 35  0  0  1  0  0  0  0  0999 V2000
  189.7230  175.0720  144.3630 C   0  0  2  0  0  3  0  0  0  0  0  0
  191.6540  175.4280  145.9320 C   0  0  0  0  0  0  0  0  0  0  0  0
  187.0110  176.8850  147.2860 C   0  0  0  0  0  2  0  0  0  0  0  0
  188.5030  175.9560  143.9910 C   0  0  1  0  0  3  0  0  0  0  0  0
  189.5250  173.6320  143.9170 C   0  0  0  0  0  2  0  0  0  0  0  0
  188.6840  174.7950  140.5590 O   0  0  0  0  0  0  0  0  0  0  0  0
  186.1150  177.3690  142.6090 N   0  0  0  0  0  0  0  0  0  0  0  0
  188.6890  174.6600  141.7750 C   0  0  0  0  0  0  0  0  0  0  0  0
  185.6030  177.0410  143.9380 C   0  0  2  0  0  3  0  0  0  0  0  0
  186.0740  177.4940  146.2650 C   0  0  1  0  0  3  0  0  0  0  0  0
  189.5280  173.5630  142.3930 C   0  0  2  0  0  3  0  0  0  0  0  0
  187.8430  175.5650  142.6490 C   0  0  2  0  0  3  0  0  0  0  0  0
  192.1330  176.4530  146.8110 N   0  0  0  0  0  0  0  0  0  0  0  0
  184.5160  177.9480  144.0920 O   0  0  0  0  0  0  0  0  0  0  0  0
  185.2890  178.3910  142.0650 C   0  0  0  0  0  3  0  0  0  0  0  0
  192.4800  174.7390  145.2790 O   0  0  0  0  0  0  0  0  0  0  0  0
  187.8430  175.8810  146.5150 C   0  0  1  0  0  3  0  0  0  0  0  0
  191.3270  177.1870  147.5170 C   0  0  0  0  0  3  0  0  0  0  0  0
  190.1790  175.1330  145.8300 C   0  0  1  0  0  3  0  0  0  0  0  0
  187.3960  176.0230  145.0620 C   0  0  1  0  0  3  0  0  0  0  0  0
  185.9540  178.9830  146.5370 C   0  0  0  0  0  1  0  0  0  0  0  0
  186.6510  177.2720  144.9400 N   0  0  1  0  0  0  0  0  0  0  0  0
  184.3630  178.7200  142.9470 C   0  0  0  0  0  3  0  0  0  0  0  0
  188.3110  177.8290  141.6140 C   0  0  0  0  0  1  0  0  0  0  0  0
  189.8710  177.0050  147.4390 C   0  0  0  0  0  3  0  0  0  0  0  0
  189.3290  176.0660  146.6520 C   0  0  0  0  0  0  0  0  0  0  0  0
  187.2500  176.7730  141.9020 C   0  0  2  0  0  3  0  0  0  0  0  0
  189.0400  172.1900  141.9600 C   0  0  0  0  0  2  0  0  0  0  0  0
  190.5610  171.6160  140.4690 C   0  0  0  0  0  1  0  0  0  0  0  0
  190.1240  171.3340  141.7630 O   0  0  0  0  0  0  0  0  0  0  0  0
  1  5  1  1  0  0  0
  1 19  1  0  0  0  0
  2 13  1  0  0  0  0
  4  1  1  0  0  0  0
  4 20  1  0  0  0  0
  6  8  2  0  0  0  0
  7  9  1  0  0  0  0
  8 11  1  0  0  0  0
  8 12  1  0  0  0  0
  9 14  1  0  0  0  0
  9 22  1  0  0  0  0
 10 21  1  0  0  0  0
 10  3  1  0  0  0  0
 11  5  1  0  0  0  0
 12  4  1  0  0  0  0
 13 18  2  0  0  0  0
 15  7  1  0  0  0  0
 15 23  2  0  0  0  0
 16  2  2  0  0  0  0
 17 26  1  0  0  0  0
 17  3  1  0  0  0  0
 19  2  1  0  0  0  0
 19 26  1  0  0  0  0
 20 17  1  0  0  0  0
 22 20  1  0  0  0  0
 22 10  1  0  0  0  0
 23 14  1  0  0  0  0
 24 27  1  0  0  0  0
 25 18  1  0  0  0  0
 26 25  2  0  0  0  0
 27  7  1  0  0  0  0
 27 12  1  0  0  0  0
 28 11  1  0  0  0  0
 29 30  1  0  0  0  0
 30 28  1  0  0  0  0
M  END
>  <MODEL>
1

>  <REMARK>
 VINA RESULT:      -7.9      0.000      0.000
  Name = 
  2 active torsions:
  status: ('A' for Active; 'I' for Inactive)
    1  A    between atoms: C_9  and  C_12
    2  A    between atoms: C_9  and  O_21
                            x       y       z     vdW  Elec       q    Type
                         _______ _______ _______ _____ _____    ______ ____

>  <TORSDO>
F 2

$$$$
=
 OpenBabel11052417133D

 30 35  0  0  1  0  0  0  0  0999 V2000
  190.6940  175.2540  143.7650 C   0  0  2  0  0  3  0  0  0  0  0  0
  190.7120  173.4010  142.0670 C   0  0  0  0  0  0  0  0  0  0  0  0
  187.2830  177.0930  141.7230 C   0  0  0  0  0  2  0  0  0  0  0  0
  189.5380  175.9960  144.4890 C   0  0  1  0  0  3  0  0  0  0  0  0
  192.0090  176.0050  143.8990 C   0  0  0  0  0  2  0  0  0  0  0  0
  191.5300  176.1830  147.5150 O   0  0  0  0  0  0  0  0  0  0  0  0
  187.7280  177.5530  146.4670 N   0  0  0  0  0  0  0  0  0  0  0  0
  191.3350  176.2760  146.3110 C   0  0  0  0  0  0  0  0  0  0  0  0
  187.4760  178.2000  145.1810 C   0  0  2  0  0  3  0  0  0  0  0  0
  186.6490  177.6660  142.9730 C   0  0  1  0  0  3  0  0  0  0  0  0
  192.4680  175.9770  145.3540 C   0  0  2  0  0  3  0  0  0  0  0  0
  189.9810  176.7110  145.7870 C   0  0  2  0  0  3  0  0  0  0  0  0
  189.7590  172.5770  141.3840 N   0  0  0  0  0  0  0  0  0  0  0  0
  186.2140  178.8290  145.3850 O   0  0  0  0  0  0  0  0  0  0  0  0
  186.6480  177.8720  147.3340 C   0  0  0  0  0  3  0  0  0  0  0  0
  191.8100  172.9040  142.4300 O   0  0  0  0  0  0  0  0  0  0  0  0
  188.6930  176.7160  142.1270 C   0  0  1  0  0  3  0  0  0  0  0  0
  188.6160  173.0390  140.9780 C   0  0  0  0  0  3  0  0  0  0  0  0
  190.4330  174.8640  142.3020 C   0  0  1  0  0  3  0  0  0  0  0  0
  188.7740  177.0160  143.6230 C   0  0  1  0  0  3  0  0  0  0  0  0
  185.2140  177.1790  143.0610 C   0  0  0  0  0  1  0  0  0  0  0  0
  187.4130  177.1840  144.1230 N   0  0  1  0  0  0  0  0  0  0  0  0
  185.7710  178.6150  146.6840 C   0  0  0  0  0  3  0  0  0  0  0  0
  188.4250  175.3270  147.2300 C   0  0  0  0  0  1  0  0  0  0  0  0
  188.2370  174.4400  141.2120 C   0  0  0  0  0  3  0  0  0  0  0  0
  189.0650  175.2890  141.8340 C   0  0  0  0  0  0  0  0  0  0  0  0
  188.8770  176.7340  146.8590 C   0  0  2  0  0  3  0  0  0  0  0  0
  193.6090  176.9660  145.5300 C   0  0  0  0  0  2  0  0  0  0  0  0
  194.9390  175.2870  146.0550 C   0  0  0  0  0  1  0  0  0  0  0  0
  194.4850  176.5200  146.5200 O   0  0  0  0  0  0  0  0  0  0  0  0
  1  5  1  6  0  0  0
  1  4  1  0  0  0  0
  2 19  1  0  0  0  0
  2 16  2  0  0  0  0
  3 17  1  0  0  0  0
  3 10  1  0  0  0  0
  4 12  1  0  0  0  0
  5 11  1  0  0  0  0
  7 27  1  0  0  0  0
  7 15  1  0  0  0  0
  8  6  2  0  0  0  0
  9 14  1  0  0  0  0
  9  7  1  0  0  0  0
 10 21  1  0  0  0  0
 10 22  1  0  0  0  0
 11 28  1  0  0  0  0
 11  8  1  0  0  0  0
 12  8  1  0  0  0  0
 12 27  1  0  0  0  0
 13  2  1  0  0  0  0
 14 23  1  0  0  0  0
 17 20  1  0  0  0  0
 18 25  1  0  0  0  0
 18 13  2  0  0  0  0
 19  1  1  0  0  0  0
 20 22  1  0  0  0  0
 20  4  1  0  0  0  0
 22  9  1  0  0  0  0
 23 15  2  0  0  0  0
 25 26  2  0  0  0  0
 26 17  1  0  0  0  0
 26 19  1  0  0  0  0
 27 24  1  0  0  0  0
 28 30  1  0  0  0  0
 29 30  1  0  0  0  0
M  END
>  <MODEL>
2

>  <REMARK>
 VINA RESULT:      -7.9      1.987      5.131
  Name = 
  2 active torsions:
  status: ('A' for Active; 'I' for Inactive)
    1  A    between atoms: C_9  and  C_12
    2  A    between atoms: C_9  and  O_21
                            x       y       z     vdW  Elec       q    Type
                         _______ _______ _______ _____ _____    ______ ____

>  <TORSDO>
F 2

$$$$
=
 OpenBabel11052417133D

 30 35  0  0  1  0  0  0  0  0999 V2000
  187.2110  176.9740  143.7760 C   0  0  2  0  0  3  0  0  0  0  0  0
  185.8790  177.9370  141.8740 C   0  0  0  0  0  0  0  0  0  0  0  0
  188.6510  173.7780  141.1500 C   0  0  0  0  0  2  0  0  0  0  0  0
  188.6350  176.3590  143.8480 C   0  0  1  0  0  3  0  0  0  0  0  0
  186.3980  176.6450  145.0180 C   0  0  0  0  0  2  0  0  0  0  0  0
  189.1320  177.8470  147.1190 O   0  0  0  0  0  0  0  0  0  0  0  0
  191.4590  175.3860  144.6780 N   0  0  0  0  0  0  0  0  0  0  0  0
  188.5050  177.2350  146.2650 C   0  0  0  0  0  0  0  0  0  0  0  0
  190.8840  174.2360  143.9820 C   0  0  2  0  0  3  0  0  0  0  0  0
  190.0060  173.6380  141.8110 C   0  0  1  0  0  3  0  0  0  0  0  0
  186.9980  177.3570  146.2260 C   0  0  2  0  0  3  0  0  0  0  0  0
  189.2300  176.3440  145.2750 C   0  0  2  0  0  3  0  0  0  0  0  0
  186.0540  178.1870  140.4750 N   0  0  0  0  0  0  0  0  0  0  0  0
  192.0360  173.4870  143.6030 O   0  0  0  0  0  0  0  0  0  0  0  0
  192.8700  175.2200  144.7000 C   0  0  0  0  0  3  0  0  0  0  0  0
  185.2350  178.7630  142.5740 O   0  0  0  0  0  0  0  0  0  0  0  0
  187.8130  174.5810  142.1230 C   0  0  1  0  0  3  0  0  0  0  0  0
  186.7000  177.3660  139.7040 C   0  0  0  0  0  3  0  0  0  0  0  0
  186.4090  176.6720  142.5010 C   0  0  1  0  0  3  0  0  0  0  0  0
  188.7600  174.9370  143.2670 C   0  0  1  0  0  3  0  0  0  0  0  0
  191.0840  173.7970  140.7540 C   0  0  0  0  0  1  0  0  0  0  0  0
  190.1260  174.6970  142.8120 N   0  0  1  0  0  0  0  0  0  0  0  0
  193.1900  174.1080  144.0640 C   0  0  0  0  0  3  0  0  0  0  0  0
  191.1780  177.8230  144.6150 C   0  0  0  0  0  1  0  0  0  0  0  0
  187.2980  176.1340  140.2400 C   0  0  0  0  0  3  0  0  0  0  0  0
  187.1790  175.8100  141.5340 C   0  0  0  0  0  0  0  0  0  0  0  0
  190.7580  176.5200  145.2840 C   0  0  2  0  0  3  0  0  0  0  0  0
  186.3700  176.7950  147.4920 C   0  0  0  0  0  2  0  0  0  0  0  0
  185.1180  178.6110  147.4910 C   0  0  0  0  0  1  0  0  0  0  0  0
  185.9310  177.8340  148.3140 O   0  0  0  0  0  0  0  0  0  0  0  0
  1  4  1  0  0  0  0
  1  5  1  1  0  0  0
  2 19  1  0  0  0  0
  2 16  2  0  0  0  0
  3 10  1  0  0  0  0
  3 17  1  0  0  0  0
  4 12  1  0  0  0  0
  5 11  1  0  0  0  0
  7 15  1  0  0  0  0
  7 27  1  0  0  0  0
  8  6  2  0  0  0  0
  9  7  1  0  0  0  0
 10 22  1  0  0  0  0
 11  8  1  0  0  0  0
 11 28  1  0  0  0  0
 12 27  1  0  0  0  0
 12  8  1  0  0  0  0
 13  2  1  0  0  0  0
 14  9  1  0  0  0  0
 14 23  1  0  0  0  0
 17 20  1  0  0  0  0
 18 25  1  0  0  0  0
 18 13  2  0  0  0  0
 19  1  1  0  0  0  0
 20  4  1  0  0  0  0
 21 10  1  0  0  0  0
 22 20  1  0  0  0  0
 22  9  1  0  0  0  0
 23 15  2  0  0  0  0
 24 27  1  0  0  0  0
 25 26  2  0  0  0  0
 26 17  1  0  0  0  0
 26 19  1  0  0  0  0
 28 30  1  0  0  0  0
 29 30  1  0  0  0  0
M  END
>  <MODEL>
3

>  <REMARK>
 VINA RESULT:      -7.8      2.174      6.975
  Name = 
  2 active torsions:
  status: ('A' for Active; 'I' for Inactive)
    1  A    between atoms: C_9  and  C_12
    2  A    between atoms: C_9  and  O_21
                            x       y       z     vdW  Elec       q    Type
                         _______ _______ _______ _____ _____    ______ ____

>  <TORSDO>
F 2

$$$$
=
 OpenBabel11052417133D

 30 35  0  0  1  0  0  0  0  0999 V2000
  189.3010  175.5940  145.1080 C   0  0  2  0  0  3  0  0  0  0  0  0
  190.6300  176.3570  147.1000 C   0  0  0  0  0  0  0  0  0  0  0  0
  185.7390  177.5580  146.7310 C   0  0  0  0  0  2  0  0  0  0  0  0
  188.2200  176.2960  144.2430 C   0  0  1  0  0  3  0  0  0  0  0  0
  189.3140  174.0920  144.8730 C   0  0  0  0  0  2  0  0  0  0  0  0
  189.5100  174.6630  141.2720 O   0  0  0  0  0  0  0  0  0  0  0  0
  186.3210  177.2600  141.9890 N   0  0  0  0  0  0  0  0  0  0  0  0
  189.1420  174.7090  142.4370 C   0  0  0  0  0  0  0  0  0  0  0  0
  185.4360  177.0850  143.1390 C   0  0  2  0  0  3  0  0  0  0  0  0
  185.1390  177.9200  145.3890 C   0  0  1  0  0  3  0  0  0  0  0  0
  189.7940  173.7990  143.4550 C   0  0  2  0  0  3  0  0  0  0  0  0
  188.0270  175.6510  142.8510 C   0  0  2  0  0  3  0  0  0  0  0  0
  190.7670  177.5400  147.8950 N   0  0  0  0  0  0  0  0  0  0  0  0
  184.3170  177.9000  142.8050 O   0  0  0  0  0  0  0  0  0  0  0  0
  185.6620  178.1090  141.0590 C   0  0  0  0  0  3  0  0  0  0  0  0
  191.6480  175.6590  146.8500 O   0  0  0  0  0  0  0  0  0  0  0  0
  186.8120  176.5330  146.4280 C   0  0  1  0  0  3  0  0  0  0  0  0
  189.7510  178.2920  148.1920 C   0  0  0  0  0  3  0  0  0  0  0  0
  189.2750  175.9130  146.6110 C   0  0  1  0  0  3  0  0  0  0  0  0
  186.8330  176.4170  144.9050 C   0  0  1  0  0  3  0  0  0  0  0  0
  184.8770  179.4150  145.3560 C   0  0  0  0  0  1  0  0  0  0  0  0
  186.1090  177.5590  144.3550 N   0  0  1  0  0  0  0  0  0  0  0  0
  184.4940  178.4760  141.5530 C   0  0  0  0  0  3  0  0  0  0  0  0
  188.6960  177.7710  141.6360 C   0  0  0  0  0  1  0  0  0  0  0  0
  188.4000  177.9660  147.7120 C   0  0  0  0  0  3  0  0  0  0  0  0
  188.1710  176.8740  146.9700 C   0  0  0  0  0  0  0  0  0  0  0  0
  187.6450  176.6750  141.7680 C   0  0  2  0  0  3  0  0  0  0  0  0
  189.5250  172.3370  143.1350 C   0  0  0  0  0  2  0  0  0  0  0  0
  190.4410  171.1910  141.4890 C   0  0  0  0  0  1  0  0  0  0  0  0
  190.7080  171.7010  142.7580 O   0  0  0  0  0  0  0  0  0  0  0  0
  1  5  1  1  0  0  0
  1 19  1  0  0  0  0
  2 13  1  0  0  0  0
  4 20  1  0  0  0  0
  4  1  1  0  0  0  0
  6  8  2  0  0  0  0
  7  9  1  0  0  0  0
  8 12  1  0  0  0  0
  8 11  1  0  0  0  0
  9 22  1  0  0  0  0
 10  3  1  0  0  0  0
 11  5  1  0  0  0  0
 12  4  1  0  0  0  0
 13 18  2  0  0  0  0
 14  9  1  0  0  0  0
 15 23  2  0  0  0  0
 15  7  1  0  0  0  0
 16  2  2  0  0  0  0
 17  3  1  0  0  0  0
 17 26  1  0  0  0  0
 19 26  1  0  0  0  0
 19  2  1  0  0  0  0
 20 17  1  0  0  0  0
 21 10  1  0  0  0  0
 22 20  1  0  0  0  0
 22 10  1  0  0  0  0
 23 14  1  0  0  0  0
 24 27  1  0  0  0  0
 25 18  1  0  0  0  0
 26 25  2  0  0  0  0
 27  7  1  0  0  0  0
 27 12  1  0  0  0  0
 28 11  1  0  0  0  0
 29 30  1  0  0  0  0
 30 28  1  0  0  0  0
M  END
>  <MODEL>
4

>  <REMARK>
 VINA RESULT:      -7.7      1.116      1.278
  Name = 
  2 active torsions:
  status: ('A' for Active; 'I' for Inactive)
    1  A    between atoms: C_9  and  C_12
    2  A    between atoms: C_9  and  O_21
                            x       y       z     vdW  Elec       q    Type
                         _______ _______ _______ _____ _____    ______ ____

>  <TORSDO>
F 2

$$$$
=
 OpenBabel11052417133D

 30 35  0  0  1  0  0  0  0  0999 V2000
  187.3770  176.5840  143.5620 C   0  0  2  0  0  3  0  0  0  0  0  0
  185.6600  177.1930  145.2930 C   0  0  0  0  0  0  0  0  0  0  0  0
  190.5700  177.3090  146.4710 C   0  0  0  0  0  2  0  0  0  0  0  0
  188.6920  175.7620  143.6390 C   0  0  1  0  0  3  0  0  0  0  0  0
  187.3020  177.3970  142.2790 C   0  0  0  0  0  2  0  0  0  0  0  0
  188.0540  174.3960  140.3400 O   0  0  0  0  0  0  0  0  0  0  0  0
  191.1610  173.9680  143.0940 N   0  0  0  0  0  0  0  0  0  0  0  0
  188.1230  175.2880  141.1730 C   0  0  0  0  0  0  0  0  0  0  0  0
  191.7160  175.1180  143.8060 C   0  0  2  0  0  3  0  0  0  0  0  0
  191.5110  176.2530  145.9300 C   0  0  1  0  0  3  0  0  0  0  0  0
  187.1680  176.4580  141.0840 C   0  0  2  0  0  3  0  0  0  0  0  0
  189.1710  175.2330  142.2670 C   0  0  2  0  0  3  0  0  0  0  0  0
  185.4250  176.9540  146.6850 N   0  0  0  0  0  0  0  0  0  0  0  0
  192.9450  174.6110  144.3180 O   0  0  0  0  0  0  0  0  0  0  0  0
  192.0970  172.9020  143.1950 C   0  0  0  0  0  3  0  0  0  0  0  0
  184.6840  177.2290  144.4990 O   0  0  0  0  0  0  0  0  0  0  0  0
  189.5280  177.5070  145.3900 C   0  0  1  0  0  3  0  0  0  0  0  0
  186.3920  176.9170  147.5510 C   0  0  0  0  0  3  0  0  0  0  0  0
  187.0540  177.4570  144.7840 C   0  0  1  0  0  3  0  0  0  0  0  0
  189.8760  176.4870  144.3070 C   0  0  1  0  0  3  0  0  0  0  0  0
  191.8920  175.3130  147.0590 C   0  0  0  0  0  1  0  0  0  0  0  0
  190.8020  175.5170  144.8830 N   0  0  1  0  0  0  0  0  0  0  0  0
  193.1310  173.2940  143.9160 C   0  0  0  0  0  3  0  0  0  0  0  0
  188.9980  172.8130  142.9970 C   0  0  0  0  0  1  0  0  0  0  0  0
  187.7890  177.1090  147.1360 C   0  0  0  0  0  3  0  0  0  0  0  0
  188.1080  177.3480  145.8560 C   0  0  0  0  0  0  0  0  0  0  0  0
  189.8910  173.8770  142.3710 C   0  0  2  0  0  3  0  0  0  0  0  0
  187.3910  177.2510  139.8060 C   0  0  0  0  0  2  0  0  0  0  0  0
  186.6550  176.4010  137.9090 C   0  0  0  0  0  1  0  0  0  0  0  0
  186.2590  177.1820  138.9940 O   0  0  0  0  0  0  0  0  0  0  0  0
  1  5  1  6  0  0  0
  1  4  1  0  0  0  0
  1 19  1  0  0  0  0
  2 13  1  0  0  0  0
  4 20  1  0  0  0  0
  6  8  2  0  0  0  0
  7 15  1  0  0  0  0
  7  9  1  0  0  0  0
  8 12  1  0  0  0  0
  9 14  1  0  0  0  0
  9 22  1  0  0  0  0
 10  3  1  0  0  0  0
 10 21  1  0  0  0  0
 11  8  1  0  0  0  0
 11  5  1  0  0  0  0
 12 27  1  0  0  0  0
 12  4  1  0  0  0  0
 13 18  2  0  0  0  0
 15 23  2  0  0  0  0
 16  2  2  0  0  0  0
 17 26  1  0  0  0  0
 17  3  1  0  0  0  0
 19  2  1  0  0  0  0
 19 26  1  0  0  0  0
 20 22  1  0  0  0  0
 20 17  1  0  0  0  0
 22 10  1  0  0  0  0
 23 14  1  0  0  0  0
 25 18  1  0  0  0  0
 26 25  2  0  0  0  0
 27 24  1  0  0  0  0
 27  7  1  0  0  0  0
 28 11  1  0  0  0  0
 29 30  1  0  0  0  0
 30 28  1  0  0  0  0
M  END
>  <MODEL>
5

>  <REMARK>
 VINA RESULT:      -7.3      1.961      5.483
  Name = 
  2 active torsions:
  status: ('A' for Active; 'I' for Inactive)
    1  A    between atoms: C_9  and  C_12
    2  A    between atoms: C_9  and  O_21
                            x       y       z     vdW  Elec       q    Type
                         _______ _______ _______ _____ _____    ______ ____

>  <TORSDO>
F 2

$$$$
=
 OpenBabel11052417133D

 30 35  0  0  1  0  0  0  0  0999 V2000
  191.8790  174.9060  143.4600 C   0  0  2  0  0  3  0  0  0  0  0  0
  194.3440  175.3530  143.6590 C   0  0  0  0  0  0  0  0  0  0  0  0
  191.3260  176.0890  147.6410 C   0  0  0  0  0  2  0  0  0  0  0  0
  190.6330  175.6620  143.9970 C   0  0  1  0  0  3  0  0  0  0  0  0
  191.5230  173.5000  143.0030 C   0  0  0  0  0  2  0  0  0  0  0  0
  188.8130  174.8560  140.9640 O   0  0  0  0  0  0  0  0  0  0  0  0
  187.8260  176.8890  144.4740 N   0  0  0  0  0  0  0  0  0  0  0  0
  189.5390  174.6100  141.9170 C   0  0  0  0  0  0  0  0  0  0  0  0
  188.2110  176.3780  145.7880 C   0  0  2  0  0  3  0  0  0  0  0  0
  189.9400  176.6690  147.4530 C   0  0  1  0  0  3  0  0  0  0  0  0
  190.6310  173.5740  141.7670 C   0  0  2  0  0  3  0  0  0  0  0  0
  189.3290  175.3180  143.2420 C   0  0  2  0  0  3  0  0  0  0  0  0
  195.2000  176.3430  144.2390 N   0  0  0  0  0  0  0  0  0  0  0  0
  187.3820  177.1250  146.6740 O   0  0  0  0  0  0  0  0  0  0  0  0
  186.7930  177.8460  144.6660 C   0  0  0  0  0  3  0  0  0  0  0  0
  194.6580  174.8350  142.5540 O   0  0  0  0  0  0  0  0  0  0  0  0
  191.5900  175.2720  146.3930 C   0  0  1  0  0  3  0  0  0  0  0  0
  194.9310  176.9020  145.3800 C   0  0  0  0  0  3  0  0  0  0  0  0
  193.1060  174.8870  144.3830 C   0  0  1  0  0  3  0  0  0  0  0  0
  190.3670  175.4910  145.5050 C   0  0  1  0  0  3  0  0  0  0  0  0
  189.9350  178.0990  147.9600 C   0  0  0  0  0  1  0  0  0  0  0  0
  189.6360  176.6440  146.0220 N   0  0  1  0  0  0  0  0  0  0  0  0
  186.5490  177.9740  145.9570 C   0  0  0  0  0  3  0  0  0  0  0  0
  188.9920  177.7090  142.4760 C   0  0  0  0  0  1  0  0  0  0  0  0
  193.7180  176.5490  146.1310 C   0  0  0  0  0  3  0  0  0  0  0  0
  192.8610  175.6270  145.6730 C   0  0  0  0  0  0  0  0  0  0  0  0
  188.3550  176.5070  143.1630 C   0  0  2  0  0  3  0  0  0  0  0  0
  190.0460  172.1960  141.4980 C   0  0  0  0  0  2  0  0  0  0  0  0
  190.7350  170.1250  141.8150 C   0  0  0  0  0  1  0  0  0  0  0  0
  190.4370  171.3040  142.4970 O   0  0  0  0  0  0  0  0  0  0  0  0
  1  5  1  1  0  0  0
  1  4  1  0  0  0  0
  1 19  1  0  0  0  0
  2 13  1  0  0  0  0
  2 19  1  0  0  0  0
  4 20  1  0  0  0  0
  6  8  2  0  0  0  0
  7 15  1  0  0  0  0
  7  9  1  0  0  0  0
  8 12  1  0  0  0  0
  9 22  1  0  0  0  0
  9 14  1  0  0  0  0
 10  3  1  0  0  0  0
 10 21  1  0  0  0  0
 11  8  1  0  0  0  0
 11  5  1  0  0  0  0
 12  4  1  0  0  0  0
 13 18  2  0  0  0  0
 15 23  2  0  0  0  0
 16  2  2  0  0  0  0
 17  3  1  0  0  0  0
 18 25  1  0  0  0  0
 19 26  1  0  0  0  0
 20 22  1  0  0  0  0
 20 17  1  0  0  0  0
 22 10  1  0  0  0  0
 23 14  1  0  0  0  0
 24 27  1  0  0  0  0
 26 25  2  0  0  0  0
 26 17  1  0  0  0  0
 27 12  1  0  0  0  0
 27  7  1  0  0  0  0
 28 11  1  0  0  0  0
 28 30  1  0  0  0  0
 29 30  1  0  0  0  0
M  END
>  <MODEL>
6

>  <REMARK>
 VINA RESULT:      -7.2      2.005      3.029
  Name = 
  2 active torsions:
  status: ('A' for Active; 'I' for Inactive)
    1  A    between atoms: C_9  and  C_12
    2  A    between atoms: C_9  and  O_21
                            x       y       z     vdW  Elec       q    Type
                         _______ _______ _______ _____ _____    ______ ____

>  <TORSDO>
F 2

$$$$
=
 OpenBabel11052417133D

 30 35  0  0  1  0  0  0  0  0999 V2000
  188.3110  175.4390  142.8650 C   0  0  2  0  0  3  0  0  0  0  0  0
  186.4740  176.7890  143.9230 C   0  0  0  0  0  0  0  0  0  0  0  0
  191.2740  177.5710  145.2850 C   0  0  0  0  0  2  0  0  0  0  0  0
  189.5970  174.7900  143.4440 C   0  0  1  0  0  3  0  0  0  0  0  0
  188.3590  175.5110  141.3460 C   0  0  0  0  0  2  0  0  0  0  0  0
  189.1970  171.9600  141.2100 O   0  0  0  0  0  0  0  0  0  0  0  0
  192.0620  173.0120  144.0590 N   0  0  0  0  0  0  0  0  0  0  0  0
  189.2190  173.1490  141.4970 C   0  0  0  0  0  0  0  0  0  0  0  0
  192.5830  174.3740  144.1530 C   0  0  2  0  0  3  0  0  0  0  0  0
  192.2320  176.4060  145.4150 C   0  0  1  0  0  3  0  0  0  0  0  0
  188.3010  174.1020  140.7650 C   0  0  2  0  0  3  0  0  0  0  0  0
  190.1740  173.6630  142.5560 C   0  0  2  0  0  3  0  0  0  0  0  0
  186.1220  177.2640  145.2270 N   0  0  0  0  0  0  0  0  0  0  0  0
  193.7550  174.2110  144.9460 O   0  0  0  0  0  0  0  0  0  0  0  0
  192.9610  172.1540  144.7480 C   0  0  0  0  0  3  0  0  0  0  0  0
  185.5660  176.4080  143.1380 O   0  0  0  0  0  0  0  0  0  0  0  0
  190.3280  177.1890  144.1670 C   0  0  1  0  0  3  0  0  0  0  0  0
  187.0150  177.6780  146.0740 C   0  0  0  0  0  3  0  0  0  0  0  0
  187.9110  176.7960  143.4650 C   0  0  1  0  0  3  0  0  0  0  0  0
  190.7390  175.7750  143.7610 C   0  0  1  0  0  3  0  0  0  0  0  0
  192.4990  176.1530  146.8880 C   0  0  0  0  0  1  0  0  0  0  0  0
  191.5940  175.2350  144.8140 N   0  0  1  0  0  0  0  0  0  0  0  0
  193.9420  172.8710  145.2640 C   0  0  0  0  0  3  0  0  0  0  0  0
  189.8870  171.9160  144.3680 C   0  0  0  0  0  1  0  0  0  0  0  0
  188.4450  177.6690  145.7330 C   0  0  0  0  0  3  0  0  0  0  0  0
  188.8710  177.2520  144.5330 C   0  0  0  0  0  0  0  0  0  0  0  0
  190.8530  172.5500  143.3740 C   0  0  2  0  0  3  0  0  0  0  0  0
  188.6440  174.1660  139.2850 C   0  0  0  0  0  2  0  0  0  0  0  0
  188.9410  172.6780  137.6840 C   0  0  0  0  0  1  0  0  0  0  0  0
  187.9940  173.1410  138.5950 O   0  0  0  0  0  0  0  0  0  0  0  0
  1  5  1  6  0  0  0
  1  4  1  0  0  0  0
  1 19  1  0  0  0  0
  2 13  1  0  0  0  0
  3 10  1  0  0  0  0
  4 20  1  0  0  0  0
  6  8  2  0  0  0  0
  7  9  1  0  0  0  0
  7 15  1  0  0  0  0
  8 12  1  0  0  0  0
  9 22  1  0  0  0  0
  9 14  1  0  0  0  0
 10 21  1  0  0  0  0
 11  5  1  0  0  0  0
 11  8  1  0  0  0  0
 12 27  1  0  0  0  0
 12  4  1  0  0  0  0
 13 18  2  0  0  0  0
 14 23  1  0  0  0  0
 15 23  2  0  0  0  0
 16  2  2  0  0  0  0
 17 26  1  0  0  0  0
 17  3  1  0  0  0  0
 19  2  1  0  0  0  0
 19 26  1  0  0  0  0
 20 17  1  0  0  0  0
 20 22  1  0  0  0  0
 22 10  1  0  0  0  0
 25 18  1  0  0  0  0
 26 25  2  0  0  0  0
 27  7  1  0  0  0  0
 27 24  1  0  0  0  0
 28 11  1  0  0  0  0
 29 30  1  0  0  0  0
 30 28  1  0  0  0  0
M  END
>  <MODEL>
7

>  <REMARK>
 VINA RESULT:      -7.0      2.053      5.634
  Name = 
  2 active torsions:
  status: ('A' for Active; 'I' for Inactive)
    1  A    between atoms: C_9  and  C_12
    2  A    between atoms: C_9  and  O_21
                            x       y       z     vdW  Elec       q    Type
                         _______ _______ _______ _____ _____    ______ ____

>  <TORSDO>
F 2

$$$$
=
 OpenBabel11052417133D

 30 35  0  0  1  0  0  0  0  0999 V2000
  187.8890  176.4040  143.7460 C   0  0  2  0  0  3  0  0  0  0  0  0
  186.7730  176.9750  141.5680 C   0  0  0  0  0  0  0  0  0  0  0  0
  189.2740  172.6130  142.0440 C   0  0  0  0  0  2  0  0  0  0  0  0
  189.2550  175.7440  144.0780 C   0  0  1  0  0  3  0  0  0  0  0  0
  186.9670  176.4160  144.9550 C   0  0  0  0  0  2  0  0  0  0  0  0
  189.6250  177.9160  146.9600 O   0  0  0  0  0  0  0  0  0  0  0  0
  191.9320  174.8320  145.3490 N   0  0  0  0  0  0  0  0  0  0  0  0
  189.0170  177.1590  146.2150 C   0  0  0  0  0  0  0  0  0  0  0  0
  191.3260  173.5870  144.8830 C   0  0  2  0  0  3  0  0  0  0  0  0
  190.5640  172.5530  142.8340 C   0  0  1  0  0  3  0  0  0  0  0  0
  187.5300  177.3530  146.0190 C   0  0  2  0  0  3  0  0  0  0  0  0
  189.7430  176.0250  145.5180 C   0  0  2  0  0  3  0  0  0  0  0  0
  187.0660  176.8850  140.1690 N   0  0  0  0  0  0  0  0  0  0  0  0
  192.4430  172.7080  144.7840 O   0  0  0  0  0  0  0  0  0  0  0  0
  193.3220  174.5970  145.5300 C   0  0  0  0  0  3  0  0  0  0  0  0
  186.1430  177.9730  142.0040 O   0  0  0  0  0  0  0  0  0  0  0  0
  188.4300  173.6640  142.7340 C   0  0  1  0  0  3  0  0  0  0  0  0
  187.7040  175.8730  139.6620 C   0  0  0  0  0  3  0  0  0  0  0  0
  187.1610  175.8600  142.5070 C   0  0  1  0  0  3  0  0  0  0  0  0
  189.3160  174.2210  143.8460 C   0  0  1  0  0  3  0  0  0  0  0  0
  191.7240  172.4040  141.8660 C   0  0  0  0  0  1  0  0  0  0  0  0
  190.6900  173.8070  143.5770 N   0  0  1  0  0  0  0  0  0  0  0  0
  193.6040  173.3530  145.1920 C   0  0  0  0  0  3  0  0  0  0  0  0
  191.8380  177.2010  144.7130 C   0  0  0  0  0  1  0  0  0  0  0  0
  188.1680  174.7670  140.5110 C   0  0  0  0  0  3  0  0  0  0  0  0
  187.9330  174.7570  141.8300 C   0  0  0  0  0  0  0  0  0  0  0  0
  191.2760  176.1130  145.6200 C   0  0  2  0  0  3  0  0  0  0  0  0
  186.7720  177.1340  147.3190 C   0  0  0  0  0  2  0  0  0  0  0  0
  185.5660  178.9800  147.2630 C   0  0  0  0  0  1  0  0  0  0  0  0
  185.4600  177.5920  147.1940 O   0  0  0  0  0  0  0  0  0  0  0  0
  1  4  1  0  0  0  0
  1  5  1  1  0  0  0
  2 16  2  0  0  0  0
  2 19  1  0  0  0  0
  3 17  1  0  0  0  0
  3 10  1  0  0  0  0
  4 12  1  0  0  0  0
  5 11  1  0  0  0  0
  7 15  1  0  0  0  0
  7 27  1  0  0  0  0
  8  6  2  0  0  0  0
  9  7  1  0  0  0  0
 10 22  1  0  0  0  0
 11  8  1  0  0  0  0
 11 28  1  0  0  0  0
 12 27  1  0  0  0  0
 12  8  1  0  0  0  0
 13  2  1  0  0  0  0
 14  9  1  0  0  0  0
 14 23  1  0  0  0  0
 17 20  1  0  0  0  0
 18 13  2  0  0  0  0
 18 25  1  0  0  0  0
 19  1  1  0  0  0  0
 20  4  1  0  0  0  0
 21 10  1  0  0  0  0
 22 20  1  0  0  0  0
 22  9  1  0  0  0  0
 23 15  2  0  0  0  0
 24 27  1  0  0  0  0
 25 26  2  0  0  0  0
 26 19  1  0  0  0  0
 26 17  1  0  0  0  0
 30 29  1  0  0  0  0
 30 28  1  0  0  0  0
M  END
>  <MODEL>
8

>  <REMARK>
 VINA RESULT:      -7.0      2.059      7.034
  Name = 
  2 active torsions:
  status: ('A' for Active; 'I' for Inactive)
    1  A    between atoms: C_9  and  C_12
    2  A    between atoms: C_9  and  O_21
                            x       y       z     vdW  Elec       q    Type
                         _______ _______ _______ _____ _____    ______ ____

>  <TORSDO>
F 2

$$$$
=
 OpenBabel11052417133D

 30 35  0  0  1  0  0  0  0  0999 V2000
  188.7630  174.9030  141.6570 C   0  0  2  0  0  3  0  0  0  0  0  0
  188.8960  173.9100  139.3520 C   0  0  0  0  0  0  0  0  0  0  0  0
  191.3580  171.7190  143.1790 C   0  0  0  0  0  2  0  0  0  0  0  0
  189.8250  175.1000  142.7730 C   0  0  1  0  0  3  0  0  0  0  0  0
  187.3510  175.0710  142.1960 C   0  0  0  0  0  2  0  0  0  0  0  0
  188.3060  178.2650  143.6860 O   0  0  0  0  0  0  0  0  0  0  0  0
  191.5260  176.0660  145.1770 N   0  0  0  0  0  0  0  0  0  0  0  0
  188.2970  177.0790  143.3850 C   0  0  0  0  0  0  0  0  0  0  0  0
  191.4410  174.6190  145.3700 C   0  0  2  0  0  3  0  0  0  0  0  0
  192.0300  172.5650  144.2400 C   0  0  1  0  0  3  0  0  0  0  0  0
  187.1280  176.5240  142.6030 C   0  0  2  0  0  3  0  0  0  0  0  0
  189.4340  176.1720  143.8150 C   0  0  2  0  0  3  0  0  0  0  0  0
  189.8920  173.3330  138.5010 N   0  0  0  0  0  0  0  0  0  0  0  0
  192.5530  174.3460  146.2170 O   0  0  0  0  0  0  0  0  0  0  0  0
  192.6280  176.5410  145.9390 C   0  0  0  0  0  3  0  0  0  0  0  0
  187.9960  174.6330  138.8480 O   0  0  0  0  0  0  0  0  0  0  0  0
  190.1380  172.5080  142.7520 C   0  0  1  0  0  3  0  0  0  0  0  0
  190.8370  172.5720  138.9630 C   0  0  0  0  0  3  0  0  0  0  0  0
  188.8840  173.6130  140.8300 C   0  0  1  0  0  3  0  0  0  0  0  0
  190.2150  173.8180  143.5350 C   0  0  1  0  0  3  0  0  0  0  0  0
  193.5330  172.4960  144.0410 C   0  0  0  0  0  1  0  0  0  0  0  0
  191.5660  173.9420  144.0730 N   0  0  1  0  0  0  0  0  0  0  0  0
  193.2190  175.5230  146.5370 C   0  0  0  0  0  3  0  0  0  0  0  0
  191.4460  177.6130  143.2740 C   0  0  0  0  0  1  0  0  0  0  0  0
  190.9350  172.2720  140.3990 C   0  0  0  0  0  3  0  0  0  0  0  0
  190.0430  172.7590  141.2730 C   0  0  0  0  0  0  0  0  0  0  0  0
  190.6520  176.9260  144.3780 C   0  0  2  0  0  3  0  0  0  0  0  0
  185.8380  176.6190  143.4030 C   0  0  0  0  0  2  0  0  0  0  0  0
  184.4420  178.3050  143.6780 C   0  0  0  0  0  1  0  0  0  0  0  0
  184.9060  177.4020  142.7220 O   0  0  0  0  0  0  0  0  0  0  0  0
  1  5  1  1  0  0  0
  1  4  1  0  0  0  0
  2 19  1  0  0  0  0
  3 10  1  0  0  0  0
  4 20  1  0  0  0  0
  4 12  1  0  0  0  0
  5 11  1  0  0  0  0
  7  9  1  0  0  0  0
  7 15  1  0  0  0  0
  8  6  2  0  0  0  0
  8 12  1  0  0  0  0
  9 14  1  0  0  0  0
 11  8  1  0  0  0  0
 11 28  1  0  0  0  0
 12 27  1  0  0  0  0
 13 18  2  0  0  0  0
 13  2  1  0  0  0  0
 14 23  1  0  0  0  0
 15 23  2  0  0  0  0
 16  2  2  0  0  0  0
 17  3  1  0  0  0  0
 17 20  1  0  0  0  0
 18 25  1  0  0  0  0
 19 26  1  0  0  0  0
 19  1  1  0  0  0  0
 20 22  1  0  0  0  0
 21 10  1  0  0  0  0
 22 10  1  0  0  0  0
 22  9  1  0  0  0  0
 24 27  1  0  0  0  0
 25 26  2  0  0  0  0
 26 17  1  0  0  0  0
 27  7  1  0  0  0  0
 30 28  1  0  0  0  0
 30 29  1  0  0  0  0
M  END
>  <MODEL>
9

>  <REMARK>
 VINA RESULT:      -6.9      2.516      6.773
  Name = 
  2 active torsions:
  status: ('A' for Active; 'I' for Inactive)
    1  A    between atoms: C_9  and  C_12
    2  A    between atoms: C_9  and  O_21
                            x       y       z     vdW  Elec       q    Type
                         _______ _______ _______ _____ _____    ______ ____

>  <TORSDO>
F 2

$$$$
