=
 OpenBabel11052420273D

 34 38  0  0  1  0  0  0  0  0999 V2000
  191.3450  175.9750  144.1670 C   0  0  0  0  0  0  0  0  0  0  0  0
  191.0780  173.6520  141.1010 C   0  0  0  0  0  2  0  0  0  0  0  0
  192.9610  174.4680  142.5120 O   0  0  0  0  0  0  0  0  0  0  0  0
  190.2130  176.4360  146.4080 C   0  0  2  0  0  3  0  0  0  0  0  0
  190.4680  176.9100  144.9640 C   0  0  0  0  0  2  0  0  0  0  0  0
  192.7190  176.3010  146.9970 C   0  0  0  0  0  2  0  0  0  0  0  0
  194.7400  176.7940  145.5970 C   0  0  0  0  0  1  0  0  0  0  0  0
  191.3520  175.6050  147.0150 C   0  0  0  0  0  2  0  0  0  0  0  0
  193.5110  174.8520  143.7730 C   0  0  0  0  0  2  0  0  0  0  0  0
  192.6570  175.8830  144.4670 C   0  0  0  0  0  0  0  0  0  0  0  0
  193.2220  176.7120  145.6030 C   0  0  1  0  0  3  0  0  0  0  0  0
  189.6550  174.0220  140.6840 C   0  0  2  0  0  3  0  0  0  0  0  0
  188.7650  174.1370  141.9120 C   0  0  0  0  0  2  0  0  0  0  0  0
  191.5840  174.4680  142.2620 C   0  0  0  0  0  0  0  0  0  0  0  0
  189.2790  175.2710  142.7890 C   0  0  0  0  0  2  0  0  0  0  0  0
  190.7590  175.1650  143.0730 C   0  0  0  0  0  0  0  0  0  0  0  0
  188.9260  175.6250  146.4810 C   0  0  0  0  0  2  0  0  0  0  0  0
  186.0080  176.9100  144.4440 C   0  0  0  0  0  3  0  0  0  0  0  0
  187.3010  177.4950  146.8460 C   0  0  0  0  0  3  0  0  0  0  0  0
  185.5640  177.9940  145.2190 C   0  0  0  0  0  0  0  0  0  0  0  0
  186.2020  178.2750  146.4460 C   0  0  0  0  0  0  0  0  0  0  0  0
  187.7500  176.4360  146.0530 C   0  0  0  0  0  0  0  0  0  0  0  0
  187.0980  176.1420  144.8550 C   0  0  0  0  0  3  0  0  0  0  0  0
  184.7220  179.8350  143.9960 N   0  0  0  0  0  0  0  0  0  0  0  0
  184.1670  178.6690  143.4300 C   0  0  0  0  0  0  0  0  0  0  0  0
  184.3540  178.7760  144.7780 C   0  0  1  0  0  3  0  0  0  0  0  0
  183.8540  178.5000  140.9670 C   0  0  0  0  0  1  0  0  0  0  0  0
  183.7400  177.9270  142.2940 N   0  0  0  0  0  2  0  0  0  0  0  0
  185.7350  179.3210  147.2500 O   0  0  0  0  0  0  0  0  0  0  0  0
  186.4510  179.8060  148.3770 C   0  0  0  0  0  1  0  0  0  0  0  0
  189.0960  173.0140  139.6840 C   0  0  0  0  0  2  0  0  0  0  0  0
  189.4710  172.1460  137.5500 C   0  0  0  0  0  1  0  0  0  0  0  0
  188.3190  174.1530  137.8000 C   0  0  0  0  0  1  0  0  0  0  0  0
  189.4340  173.3790  138.3160 N   0  0  0  0  0  0  0  0  0  0  0  0
  1 10  2  0  0  0  0
  1  5  1  0  0  0  0
  2 14  1  0  0  0  0
  3  9  1  0  0  0  0
  4 17  1  6  0  0  0
  4  8  1  0  0  0  0
  5  4  1  0  0  0  0
  6  8  1  0  0  0  0
  9 10  1  0  0  0  0
 10 11  1  0  0  0  0
 11  7  1  1  0  0  0
 11  6  1  0  0  0  0
 12 31  1  6  0  0  0
 12  2  1  0  0  0  0
 12 13  1  0  0  0  0
 13 15  1  0  0  0  0
 14  3  1  0  0  0  0
 14 16  2  0  0  0  0
 15 16  1  0  0  0  0
 16  1  1  0  0  0  0
 18 23  2  0  0  0  0
 18 20  1  0  0  0  0
 20 21  2  0  0  0  0
 21 19  1  0  0  0  0
 21 29  1  0  0  0  0
 22 17  1  0  0  0  0
 22 19  2  0  0  0  0
 23 22  1  0  0  0  0
 24 26  1  0  0  0  0
 25 24  2  0  0  0  0
 25 26  1  0  0  0  0
 26 20  1  6  0  0  0
 27 28  1  0  0  0  0
 28 25  1  0  0  0  0
 29 30  1  0  0  0  0
 32 34  1  0  0  0  0
 33 34  1  0  0  0  0
 34 31  1  0  0  0  0
M  END
>  <MODEL>
1

>  <REMARK>
 VINA RESULT:      -7.9      0.000      0.000
  Name = 
  6 active torsions:
  status: ('A' for Active; 'I' for Inactive)
    1  A    between atoms: C_8  and  C_18
    2  A    between atoms: C_14  and  C_16
    3  A    between atoms: C_18  and  C_30
    4  A    between atoms: C_23  and  N_24
    5  A    between atoms: C_23  and  C_25
    6  A    between atoms: O_26  and  C_28
                            x       y       z     vdW  Elec       q    Type
                         _______ _______ _______ _____ _____    ______ ____

>  <TORSDO>
F 6

$$$$
=
 OpenBabel11052420273D

 34 38  0  0  1  0  0  0  0  0999 V2000
  189.4090  177.0640  145.5110 C   0  0  0  0  0  0  0  0  0  0  0  0
  192.5580  175.3030  146.8730 C   0  0  0  0  0  2  0  0  0  0  0  0
  190.1630  175.3640  147.5520 O   0  0  0  0  0  0  0  0  0  0  0  0
  188.2110  177.5600  143.3140 C   0  0  2  0  0  3  0  0  0  0  0  0
  189.0460  178.1100  144.4850 C   0  0  0  0  0  2  0  0  0  0  0  0
  186.3480  176.6380  144.8390 C   0  0  0  0  0  2  0  0  0  0  0  0
  186.1270  176.6900  147.3360 C   0  0  0  0  0  1  0  0  0  0  0  0
  187.3120  176.3690  143.6760 C   0  0  0  0  0  2  0  0  0  0  0  0
  188.7700  175.4190  147.2420 C   0  0  0  0  0  2  0  0  0  0  0  0
  188.4470  176.5620  146.3120 C   0  0  0  0  0  0  0  0  0  0  0  0
  187.0200  177.0500  146.1600 C   0  0  1  0  0  3  0  0  0  0  0  0
  193.5980  176.1150  146.1030 C   0  0  2  0  0  3  0  0  0  0  0  0
  193.1340  176.3350  144.6710 C   0  0  0  0  0  2  0  0  0  0  0  0
  191.1490  175.7920  146.6570 C   0  0  0  0  0  0  0  0  0  0  0  0
  191.8540  177.1580  144.6890 C   0  0  0  0  0  2  0  0  0  0  0  0
  190.8110  176.5960  145.6260 C   0  0  0  0  0  0  0  0  0  0  0  0
  189.1170  177.1530  142.1600 C   0  0  0  0  0  2  0  0  0  0  0  0
  190.3190  173.6420  142.8970 C   0  0  0  0  0  3  0  0  0  0  0  0
  188.5590  174.9280  141.1560 C   0  0  0  0  0  3  0  0  0  0  0  0
  189.6230  172.8860  141.9400 C   0  0  0  0  0  0  0  0  0  0  0  0
  188.7140  173.5340  141.0760 C   0  0  0  0  0  0  0  0  0  0  0  0
  189.2790  175.6720  142.0940 C   0  0  0  0  0  0  0  0  0  0  0  0
  190.1540  175.0260  142.9680 C   0  0  0  0  0  3  0  0  0  0  0  0
  190.7630  171.0200  141.0410 N   0  0  0  0  0  0  0  0  0  0  0  0
  190.9890  171.0170  142.4330 C   0  0  0  0  0  0  0  0  0  0  0  0
  189.7810  171.3880  141.9180 C   0  0  1  0  0  3  0  0  0  0  0  0
  193.2090  170.3490  143.3380 C   0  0  0  0  0  1  0  0  0  0  0  0
  191.8470  170.7980  143.5470 N   0  0  0  0  0  2  0  0  0  0  0  0
  187.9770  172.7820  140.1530 O   0  0  0  0  0  0  0  0  0  0  0  0
  188.3200  172.6990  138.7760 C   0  0  0  0  0  1  0  0  0  0  0  0
  194.9660  175.4390  146.1470 C   0  0  0  0  0  2  0  0  0  0  0  0
  196.5370  174.9500  144.4920 C   0  0  0  0  0  1  0  0  0  0  0  0
  195.2300  173.2470  145.3920 C   0  0  0  0  0  1  0  0  0  0  0  0
  195.1990  174.6320  144.9590 N   0  0  0  0  0  0  0  0  0  0  0  0
  1 16  1  0  0  0  0
  1 10  2  0  0  0  0
  4 17  1  6  0  0  0
  4  8  1  0  0  0  0
  4  5  1  0  0  0  0
  5  1  1  0  0  0  0
  6 11  1  0  0  0  0
  8  6  1  0  0  0  0
  9  3  1  0  0  0  0
 10  9  1  0  0  0  0
 11 10  1  0  0  0  0
 11  7  1  1  0  0  0
 12 31  1  6  0  0  0
 12  2  1  0  0  0  0
 13 15  1  0  0  0  0
 13 12  1  0  0  0  0
 14  2  1  0  0  0  0
 14  3  1  0  0  0  0
 15 16  1  0  0  0  0
 16 14  2  0  0  0  0
 18 23  1  0  0  0  0
 19 22  1  0  0  0  0
 20 18  2  0  0  0  0
 21 19  2  0  0  0  0
 21 20  1  0  0  0  0
 22 17  1  0  0  0  0
 22 23  2  0  0  0  0
 24 26  1  0  0  0  0
 24 25  2  0  0  0  0
 25 28  1  0  0  0  0
 26 20  1  6  0  0  0
 26 25  1  0  0  0  0
 27 28  1  0  0  0  0
 29 21  1  0  0  0  0
 30 29  1  0  0  0  0
 32 34  1  0  0  0  0
 34 33  1  0  0  0  0
 34 31  1  0  0  0  0
M  END
>  <MODEL>
2

>  <REMARK>
 VINA RESULT:      -7.5      3.410      7.517
  Name = 
  6 active torsions:
  status: ('A' for Active; 'I' for Inactive)
    1  A    between atoms: C_8  and  C_18
    2  A    between atoms: C_14  and  C_16
    3  A    between atoms: C_18  and  C_30
    4  A    between atoms: C_23  and  N_24
    5  A    between atoms: C_23  and  C_25
    6  A    between atoms: O_26  and  C_28
                            x       y       z     vdW  Elec       q    Type
                         _______ _______ _______ _____ _____    ______ ____

>  <TORSDO>
F 6

$$$$
=
 OpenBabel11052420273D

 34 38  0  0  1  0  0  0  0  0999 V2000
  189.6050  176.9860  145.8400 C   0  0  0  0  0  0  0  0  0  0  0  0
  192.7130  174.8790  146.7220 C   0  0  0  0  0  2  0  0  0  0  0  0
  190.3320  174.8650  147.4520 O   0  0  0  0  0  0  0  0  0  0  0  0
  188.3920  177.9780  143.8270 C   0  0  2  0  0  3  0  0  0  0  0  0
  189.2640  178.2380  145.0710 C   0  0  0  0  0  2  0  0  0  0  0  0
  186.5230  176.8070  145.1610 C   0  0  0  0  0  2  0  0  0  0  0  0
  186.3410  176.3270  147.6150 C   0  0  0  0  0  1  0  0  0  0  0  0
  187.4590  176.7650  143.9460 C   0  0  0  0  0  2  0  0  0  0  0  0
  188.9370  175.0280  147.1920 C   0  0  0  0  0  2  0  0  0  0  0  0
  188.6390  176.3520  146.5360 C   0  0  0  0  0  0  0  0  0  0  0  0
  187.2280  176.9040  146.5240 C   0  0  1  0  0  3  0  0  0  0  0  0
  193.7680  175.8060  146.1210 C   0  0  2  0  0  3  0  0  0  0  0  0
  193.2910  176.3420  144.7810 C   0  0  0  0  0  2  0  0  0  0  0  0
  191.3190  175.4450  146.6470 C   0  0  0  0  0  0  0  0  0  0  0  0
  192.0390  177.1800  145.0020 C   0  0  0  0  0  2  0  0  0  0  0  0
  190.9920  176.4620  145.8200 C   0  0  0  0  0  0  0  0  0  0  0  0
  189.2660  177.8020  142.5930 C   0  0  0  0  0  2  0  0  0  0  0  0
  188.0490  174.8030  140.6350 C   0  0  0  0  0  3  0  0  0  0  0  0
  190.0640  175.4320  142.4590 C   0  0  0  0  0  3  0  0  0  0  0  0
  188.9320  173.7960  141.0600 C   0  0  0  0  0  0  0  0  0  0  0  0
  189.9660  174.1210  141.9630 C   0  0  0  0  0  0  0  0  0  0  0  0
  189.1620  176.4170  142.0490 C   0  0  0  0  0  0  0  0  0  0  0  0
  188.1590  176.1010  141.1320 C   0  0  0  0  0  3  0  0  0  0  0  0
  188.1370  172.4470  139.2870 N   0  0  0  0  0  0  0  0  0  0  0  0
  189.5410  172.3190  139.3120 C   0  0  0  0  0  0  0  0  0  0  0  0
  188.8230  172.4140  140.4690 C   0  0  1  0  0  3  0  0  0  0  0  0
  190.8210  172.1630  137.1840 C   0  0  0  0  0  1  0  0  0  0  0  0
  190.7850  172.1940  138.6330 N   0  0  0  0  0  2  0  0  0  0  0  0
  190.8830  173.1370  142.3530 O   0  0  0  0  0  0  0  0  0  0  0  0
  191.6220  173.2080  143.5650 C   0  0  0  0  0  1  0  0  0  0  0  0
  195.1130  175.0960  145.9890 C   0  0  0  0  0  2  0  0  0  0  0  0
  196.6890  174.9660  144.2730 C   0  0  0  0  0  1  0  0  0  0  0  0
  195.2800  173.1620  144.6920 C   0  0  0  0  0  1  0  0  0  0  0  0
  195.3280  174.6120  144.6330 N   0  0  0  0  0  0  0  0  0  0  0  0
  1 10  2  0  0  0  0
  4 17  1  6  0  0  0
  4  8  1  0  0  0  0
  4  5  1  0  0  0  0
  5  1  1  0  0  0  0
  6 11  1  0  0  0  0
  8  6  1  0  0  0  0
  9  3  1  0  0  0  0
 10  9  1  0  0  0  0
 11 10  1  0  0  0  0
 11  7  1  1  0  0  0
 12 31  1  6  0  0  0
 12  2  1  0  0  0  0
 13 15  1  0  0  0  0
 13 12  1  0  0  0  0
 14  2  1  0  0  0  0
 14  3  1  0  0  0  0
 15 16  1  0  0  0  0
 16  1  1  0  0  0  0
 16 14  2  0  0  0  0
 18 20  2  0  0  0  0
 18 23  1  0  0  0  0
 20 21  1  0  0  0  0
 21 29  1  0  0  0  0
 21 19  2  0  0  0  0
 22 19  1  0  0  0  0
 22 17  1  0  0  0  0
 23 22  2  0  0  0  0
 24 25  2  0  0  0  0
 24 26  1  0  0  0  0
 25 26  1  0  0  0  0
 26 20  1  6  0  0  0
 27 28  1  0  0  0  0
 28 25  1  0  0  0  0
 29 30  1  0  0  0  0
 32 34  1  0  0  0  0
 34 33  1  0  0  0  0
 34 31  1  0  0  0  0
M  END
>  <MODEL>
3

>  <REMARK>
 VINA RESULT:      -7.3      2.949      6.966
  Name = 
  6 active torsions:
  status: ('A' for Active; 'I' for Inactive)
    1  A    between atoms: C_8  and  C_18
    2  A    between atoms: C_14  and  C_16
    3  A    between atoms: C_18  and  C_30
    4  A    between atoms: C_23  and  N_24
    5  A    between atoms: C_23  and  C_25
    6  A    between atoms: O_26  and  C_28
                            x       y       z     vdW  Elec       q    Type
                         _______ _______ _______ _____ _____    ______ ____

>  <TORSDO>
F 6

$$$$
=
 OpenBabel11052420273D

 34 38  0  0  1  0  0  0  0  0999 V2000
  188.8390  176.9800  143.6540 C   0  0  0  0  0  0  0  0  0  0  0  0
  191.4360  176.4000  146.4460 C   0  0  0  0  0  2  0  0  0  0  0  0
  189.3000  177.6700  146.2880 O   0  0  0  0  0  0  0  0  0  0  0  0
  187.5630  175.7150  141.8420 C   0  0  2  0  0  3  0  0  0  0  0  0
  188.6840  176.7190  142.1760 C   0  0  0  0  0  2  0  0  0  0  0  0
  185.7370  177.0780  143.0490 C   0  0  0  0  0  2  0  0  0  0  0  0
  185.8930  179.2500  144.2900 C   0  0  0  0  0  1  0  0  0  0  0  0
  186.3970  175.7080  142.8410 C   0  0  0  0  0  2  0  0  0  0  0  0
  187.9650  177.8280  145.8040 C   0  0  0  0  0  2  0  0  0  0  0  0
  187.8900  177.6820  144.3060 C   0  0  0  0  0  0  0  0  0  0  0  0
  186.6810  178.1870  143.5430 C   0  0  1  0  0  3  0  0  0  0  0  0
  192.5600  175.8480  145.5710 C   0  0  2  0  0  3  0  0  0  0  0  0
  191.9940  174.8860  144.5380 C   0  0  0  0  0  2  0  0  0  0  0  0
  190.2350  176.8460  145.6520 C   0  0  0  0  0  0  0  0  0  0  0  0
  191.0510  175.6490  143.6190 C   0  0  0  0  0  2  0  0  0  0  0  0
  190.0260  176.4600  144.3760 C   0  0  0  0  0  0  0  0  0  0  0  0
  188.1270  174.3040  141.7420 C   0  0  0  0  0  2  0  0  0  0  0  0
  188.8500  174.1650  138.0310 C   0  0  0  0  0  3  0  0  0  0  0  0
  190.1530  173.6210  140.4370 C   0  0  0  0  0  3  0  0  0  0  0  0
  190.1610  173.6600  138.0060 C   0  0  0  0  0  0  0  0  0  0  0  0
  190.8280  173.4090  139.2230 C   0  0  0  0  0  0  0  0  0  0  0  0
  188.8400  174.0970  140.4480 C   0  0  0  0  0  0  0  0  0  0  0  0
  188.1920  174.3740  139.2430 C   0  0  0  0  0  3  0  0  0  0  0  0
  190.2450  174.2190  135.7090 N   0  0  0  0  0  0  0  0  0  0  0  0
  191.4520  174.6590  136.2900 C   0  0  0  0  0  0  0  0  0  0  0  0
  190.8670  173.4910  136.6850 C   0  0  1  0  0  3  0  0  0  0  0  0
  192.4840  176.8020  135.5580 C   0  0  0  0  0  1  0  0  0  0  0  0
  192.4980  175.6180  136.3940 N   0  0  0  0  0  2  0  0  0  0  0  0
  192.1530  172.9550  139.2100 O   0  0  0  0  0  0  0  0  0  0  0  0
  192.5180  171.6310  139.5760 C   0  0  0  0  0  1  0  0  0  0  0  0
  193.6400  175.1810  146.4200 C   0  0  0  0  0  2  0  0  0  0  0  0
  195.6620  174.8590  145.2990 C   0  0  0  0  0  1  0  0  0  0  0  0
  194.7240  176.9860  145.4130 C   0  0  0  0  0  1  0  0  0  0  0  0
  194.9480  175.7710  146.1750 N   0  0  0  0  0  0  0  0  0  0  0  0
  1 10  2  0  0  0  0
  1 16  1  0  0  0  0
  4 17  1  1  0  0  0
  4  5  1  0  0  0  0
  4  8  1  0  0  0  0
  5  1  1  0  0  0  0
  6 11  1  0  0  0  0
  8  6  1  0  0  0  0
  9  3  1  0  0  0  0
 10  9  1  0  0  0  0
 11  7  1  1  0  0  0
 11 10  1  0  0  0  0
 12 31  1  1  0  0  0
 12  2  1  0  0  0  0
 13 12  1  0  0  0  0
 14  3  1  0  0  0  0
 14  2  1  0  0  0  0
 15 16  1  0  0  0  0
 15 13  1  0  0  0  0
 16 14  2  0  0  0  0
 18 23  1  0  0  0  0
 19 22  1  0  0  0  0
 20 18  2  0  0  0  0
 20 21  1  0  0  0  0
 21 19  2  0  0  0  0
 22 17  1  0  0  0  0
 23 22  2  0  0  0  0
 24 25  2  0  0  0  0
 24 26  1  0  0  0  0
 25 28  1  0  0  0  0
 25 26  1  0  0  0  0
 26 20  1  1  0  0  0
 27 28  1  0  0  0  0
 29 21  1  0  0  0  0
 29 30  1  0  0  0  0
 32 34  1  0  0  0  0
 33 34  1  0  0  0  0
 34 31  1  0  0  0  0
M  END
>  <MODEL>
4

>  <REMARK>
 VINA RESULT:      -7.2      3.147      8.119
  Name = 
  6 active torsions:
  status: ('A' for Active; 'I' for Inactive)
    1  A    between atoms: C_8  and  C_18
    2  A    between atoms: C_14  and  C_16
    3  A    between atoms: C_18  and  C_30
    4  A    between atoms: C_23  and  N_24
    5  A    between atoms: C_23  and  C_25
    6  A    between atoms: O_26  and  C_28
                            x       y       z     vdW  Elec       q    Type
                         _______ _______ _______ _____ _____    ______ ____

>  <TORSDO>
F 6

$$$$
=
 OpenBabel11052420273D

 34 38  0  0  1  0  0  0  0  0999 V2000
  189.5720  175.2320  143.6560 C   0  0  0  0  0  0  0  0  0  0  0  0
  188.6510  173.7930  140.1990 C   0  0  0  0  0  2  0  0  0  0  0  0
  187.3740  174.9210  142.0140 O   0  0  0  0  0  0  0  0  0  0  0  0
  191.3530  176.6590  144.7960 C   0  0  2  0  0  3  0  0  0  0  0  0
  190.7500  175.2550  144.5990 C   0  0  0  0  0  2  0  0  0  0  0  0
  189.1300  177.7010  145.5810 C   0  0  0  0  0  2  0  0  0  0  0  0
  186.8650  176.6620  145.8620 C   0  0  0  0  0  1  0  0  0  0  0  0
  190.3470  177.8100  144.6540 C   0  0  0  0  0  2  0  0  0  0  0  0
  187.2650  175.8880  143.0600 C   0  0  0  0  0  2  0  0  0  0  0  0
  188.4030  175.7810  144.0440 C   0  0  0  0  0  0  0  0  0  0  0  0
  188.2970  176.4190  145.4150 C   0  0  1  0  0  3  0  0  0  0  0  0
  189.9250  172.9830  139.9650 C   0  0  2  0  0  3  0  0  0  0  0  0
  191.1400  173.7840  140.4060 C   0  0  0  0  0  2  0  0  0  0  0  0
  188.6070  174.4480  141.5550 C   0  0  0  0  0  0  0  0  0  0  0  0
  191.0460  174.0390  141.9040 C   0  0  0  0  0  2  0  0  0  0  0  0
  189.7110  174.6140  142.3150 C   0  0  0  0  0  0  0  0  0  0  0  0
  192.4970  176.8870  143.8170 C   0  0  0  0  0  2  0  0  0  0  0  0
  195.2220  175.3080  145.9140 C   0  0  0  0  0  3  0  0  0  0  0  0
  194.4710  175.4620  143.2310 C   0  0  0  0  0  3  0  0  0  0  0  0
  196.0150  174.6790  144.9390 C   0  0  0  0  0  0  0  0  0  0  0  0
  195.6210  174.7370  143.5860 C   0  0  0  0  0  0  0  0  0  0  0  0
  193.7070  176.1070  144.2070 C   0  0  0  0  0  0  0  0  0  0  0  0
  194.0810  176.0240  145.5490 C   0  0  0  0  0  3  0  0  0  0  0  0
  197.1100  173.5100  146.6800 N   0  0  0  0  0  0  0  0  0  0  0  0
  196.8600  172.5830  145.6470 C   0  0  0  0  0  0  0  0  0  0  0  0
  197.2130  173.8710  145.3650 C   0  0  1  0  0  3  0  0  0  0  0  0
  196.2020  170.2470  146.1970 C   0  0  0  0  0  1  0  0  0  0  0  0
  196.4960  171.2760  145.2190 N   0  0  0  0  0  2  0  0  0  0  0  0
  196.3760  174.0690  142.6130 O   0  0  0  0  0  0  0  0  0  0  0  0
  195.9010  172.9210  141.9220 C   0  0  0  0  0  1  0  0  0  0  0  0
  190.0430  172.5510  138.5060 C   0  0  0  0  0  2  0  0  0  0  0  0
  191.8570  172.5390  137.0380 C   0  0  0  0  0  1  0  0  0  0  0  0
  190.1620  174.1120  136.7750 C   0  0  0  0  0  1  0  0  0  0  0  0
  190.9560  173.4120  137.7690 N   0  0  0  0  0  0  0  0  0  0  0  0
  1 10  2  0  0  0  0
  1  5  1  0  0  0  0
  2 14  1  0  0  0  0
  3  9  1  0  0  0  0
  4 17  1  6  0  0  0
  5  4  1  0  0  0  0
  8  4  1  0  0  0  0
  8  6  1  0  0  0  0
  9 10  1  0  0  0  0
 10 11  1  0  0  0  0
 11  6  1  0  0  0  0
 11  7  1  6  0  0  0
 12 31  1  6  0  0  0
 12  2  1  0  0  0  0
 12 13  1  0  0  0  0
 13 15  1  0  0  0  0
 14  3  1  0  0  0  0
 14 16  2  0  0  0  0
 15 16  1  0  0  0  0
 16  1  1  0  0  0  0
 17 22  1  0  0  0  0
 19 21  2  0  0  0  0
 19 22  1  0  0  0  0
 20 18  2  0  0  0  0
 21 20  1  0  0  0  0
 22 23  2  0  0  0  0
 23 18  1  0  0  0  0
 25 24  2  0  0  0  0
 26 20  1  6  0  0  0
 26 25  1  0  0  0  0
 26 24  1  0  0  0  0
 28 25  1  0  0  0  0
 28 27  1  0  0  0  0
 29 21  1  0  0  0  0
 30 29  1  0  0  0  0
 32 34  1  0  0  0  0
 33 34  1  0  0  0  0
 34 31  1  0  0  0  0
M  END
>  <MODEL>
5

>  <REMARK>
 VINA RESULT:      -7.2      3.462      7.971
  Name = 
  6 active torsions:
  status: ('A' for Active; 'I' for Inactive)
    1  A    between atoms: C_8  and  C_18
    2  A    between atoms: C_14  and  C_16
    3  A    between atoms: C_18  and  C_30
    4  A    between atoms: C_23  and  N_24
    5  A    between atoms: C_23  and  C_25
    6  A    between atoms: O_26  and  C_28
                            x       y       z     vdW  Elec       q    Type
                         _______ _______ _______ _____ _____    ______ ____

>  <TORSDO>
F 6

$$$$
=
 OpenBabel11052420273D

 34 38  0  0  1  0  0  0  0  0999 V2000
  188.8320  176.9300  143.7840 C   0  0  0  0  0  0  0  0  0  0  0  0
  191.5040  176.1650  146.4570 C   0  0  0  0  0  2  0  0  0  0  0  0
  189.3850  177.4710  146.4350 O   0  0  0  0  0  0  0  0  0  0  0  0
  187.4790  175.7810  141.9500 C   0  0  2  0  0  3  0  0  0  0  0  0
  188.6250  176.7500  142.3000 C   0  0  0  0  0  2  0  0  0  0  0  0
  185.7140  177.1030  143.2850 C   0  0  0  0  0  2  0  0  0  0  0  0
  185.9430  179.2040  144.6340 C   0  0  0  0  0  1  0  0  0  0  0  0
  186.3450  175.7370  142.9830 C   0  0  0  0  0  2  0  0  0  0  0  0
  188.0380  177.6740  146.0030 C   0  0  0  0  0  2  0  0  0  0  0  0
  187.9140  177.6090  144.5020 C   0  0  0  0  0  0  0  0  0  0  0  0
  186.6900  178.1710  143.8070 C   0  0  1  0  0  3  0  0  0  0  0  0
  192.5920  175.6440  145.5190 C   0  0  2  0  0  3  0  0  0  0  0  0
  191.9790  174.7470  144.4550 C   0  0  0  0  0  2  0  0  0  0  0  0
  190.2870  176.6700  145.7270 C   0  0  0  0  0  0  0  0  0  0  0  0
  191.0200  175.5710  143.6080 C   0  0  0  0  0  2  0  0  0  0  0  0
  190.0310  176.3550  144.4390 C   0  0  0  0  0  0  0  0  0  0  0  0
  188.0180  174.3700  141.7570 C   0  0  0  0  0  2  0  0  0  0  0  0
  190.0560  173.1670  138.8050 C   0  0  0  0  0  3  0  0  0  0  0  0
  187.8160  174.7590  139.2910 C   0  0  0  0  0  3  0  0  0  0  0  0
  189.4060  173.7910  137.7270 C   0  0  0  0  0  0  0  0  0  0  0  0
  188.2590  174.5750  137.9710 C   0  0  0  0  0  0  0  0  0  0  0  0
  188.4870  174.1560  140.3580 C   0  0  0  0  0  0  0  0  0  0  0  0
  189.6040  173.3550  140.1120 C   0  0  0  0  0  3  0  0  0  0  0  0
  191.2360  173.3280  136.3010 N   0  0  0  0  0  0  0  0  0  0  0  0
  190.3340  172.2490  136.1870 C   0  0  0  0  0  0  0  0  0  0  0  0
  189.8840  173.5310  136.3210 C   0  0  1  0  0  3  0  0  0  0  0  0
  191.1890  169.9230  135.9600 C   0  0  0  0  0  1  0  0  0  0  0  0
  190.0830  170.8560  136.0470 N   0  0  0  0  0  2  0  0  0  0  0  0
  187.5750  175.1580  136.8970 O   0  0  0  0  0  0  0  0  0  0  0  0
  186.4740  176.0410  137.0730 C   0  0  0  0  0  1  0  0  0  0  0  0
  193.6870  174.9180  146.2960 C   0  0  0  0  0  2  0  0  0  0  0  0
  195.9290  174.5460  145.7630 C   0  0  0  0  0  1  0  0  0  0  0  0
  194.8570  176.4630  144.9950 C   0  0  0  0  0  1  0  0  0  0  0  0
  194.9760  175.5760  146.1370 N   0  0  0  0  0  0  0  0  0  0  0  0
  1 16  1  0  0  0  0
  1 10  2  0  0  0  0
  4 17  1  1  0  0  0
  4  5  1  0  0  0  0
  4  8  1  0  0  0  0
  5  1  1  0  0  0  0
  6 11  1  0  0  0  0
  8  6  1  0  0  0  0
  9  3  1  0  0  0  0
 10  9  1  0  0  0  0
 11 10  1  0  0  0  0
 11  7  1  1  0  0  0
 12 31  1  1  0  0  0
 12  2  1  0  0  0  0
 13 12  1  0  0  0  0
 14  3  1  0  0  0  0
 14  2  1  0  0  0  0
 15 16  1  0  0  0  0
 15 13  1  0  0  0  0
 16 14  2  0  0  0  0
 18 23  1  0  0  0  0
 19 22  1  0  0  0  0
 20 21  1  0  0  0  0
 20 18  2  0  0  0  0
 21 19  2  0  0  0  0
 22 17  1  0  0  0  0
 23 22  2  0  0  0  0
 24 26  1  0  0  0  0
 25 24  2  0  0  0  0
 25 26  1  0  0  0  0
 26 20  1  1  0  0  0
 27 28  1  0  0  0  0
 28 25  1  0  0  0  0
 29 30  1  0  0  0  0
 29 21  1  0  0  0  0
 32 34  1  0  0  0  0
 33 34  1  0  0  0  0
 34 31  1  0  0  0  0
M  END
>  <MODEL>
6

>  <REMARK>
 VINA RESULT:      -7.1      3.325      8.122
  Name = 
  6 active torsions:
  status: ('A' for Active; 'I' for Inactive)
    1  A    between atoms: C_8  and  C_18
    2  A    between atoms: C_14  and  C_16
    3  A    between atoms: C_18  and  C_30
    4  A    between atoms: C_23  and  N_24
    5  A    between atoms: C_23  and  C_25
    6  A    between atoms: O_26  and  C_28
                            x       y       z     vdW  Elec       q    Type
                         _______ _______ _______ _____ _____    ______ ____

>  <TORSDO>
F 6

$$$$
=
 OpenBabel11052420273D

 34 38  0  0  1  0  0  0  0  0999 V2000
  190.1600  175.9240  144.4910 C   0  0  0  0  0  0  0  0  0  0  0  0
  188.1830  178.1670  142.0560 C   0  0  0  0  0  2  0  0  0  0  0  0
  190.5630  178.0500  142.7760 O   0  0  0  0  0  0  0  0  0  0  0  0
  190.4300  173.4740  145.1510 C   0  0  2  0  0  3  0  0  0  0  0  0
  189.8910  174.8660  145.5330 C   0  0  0  0  0  2  0  0  0  0  0  0
  192.8510  174.3000  144.8340 C   0  0  0  0  0  2  0  0  0  0  0  0
  193.8250  176.5970  145.0880 C   0  0  0  0  0  1  0  0  0  0  0  0
  191.6780  173.4980  144.2570 C   0  0  0  0  0  2  0  0  0  0  0  0
  191.7210  177.3130  143.1730 C   0  0  0  0  0  2  0  0  0  0  0  0
  191.4210  176.3620  144.3030 C   0  0  0  0  0  0  0  0  0  0  0  0
  192.5460  175.7770  145.1350 C   0  0  1  0  0  3  0  0  0  0  0  0
  186.7770  177.7920  142.5240 C   0  0  2  0  0  3  0  0  0  0  0  0
  186.6920  176.2940  142.7720 C   0  0  0  0  0  2  0  0  0  0  0  0
  189.2700  177.5280  142.8800 C   0  0  0  0  0  0  0  0  0  0  0  0
  187.6470  175.9260  143.8990 C   0  0  0  0  0  2  0  0  0  0  0  0
  189.0420  176.4650  143.6820 C   0  0  0  0  0  0  0  0  0  0  0  0
  189.3480  172.6580  144.4560 C   0  0  0  0  0  2  0  0  0  0  0  0
  189.8230  173.0190  140.7200 C   0  0  0  0  0  3  0  0  0  0  0  0
  190.2930  171.1260  142.7150 C   0  0  0  0  0  3  0  0  0  0  0  0
  190.3740  171.7750  140.3730 C   0  0  0  0  0  0  0  0  0  0  0  0
  190.6340  170.8270  141.3850 C   0  0  0  0  0  0  0  0  0  0  0  0
  189.7200  172.3570  143.0440 C   0  0  0  0  0  0  0  0  0  0  0  0
  189.4920  173.3050  142.0450 C   0  0  0  0  0  3  0  0  0  0  0  0
  189.6730  171.1940  138.1890 N   0  0  0  0  0  0  0  0  0  0  0  0
  190.2680  172.4700  138.1120 C   0  0  0  0  0  0  0  0  0  0  0  0
  190.7690  171.5110  138.9420 C   0  0  1  0  0  3  0  0  0  0  0  0
  189.3180  174.2010  136.5970 C   0  0  0  0  0  1  0  0  0  0  0  0
  190.3070  173.7870  137.5730 N   0  0  0  0  0  2  0  0  0  0  0  0
  191.2300  169.6040  141.0560 O   0  0  0  0  0  0  0  0  0  0  0  0
  190.8270  168.3690  141.6320 C   0  0  0  0  0  1  0  0  0  0  0  0
  185.7230  178.2510  141.5210 C   0  0  0  0  0  2  0  0  0  0  0  0
  184.0680  178.6670  143.1140 C   0  0  0  0  0  1  0  0  0  0  0  0
  183.4740  178.2920  140.8950 C   0  0  0  0  0  1  0  0  0  0  0  0
  184.3840  177.8670  141.9430 N   0  0  0  0  0  0  0  0  0  0  0  0
  1  5  1  0  0  0  0
  2 12  1  0  0  0  0
  2 14  1  0  0  0  0
  3 14  1  0  0  0  0
  3  9  1  0  0  0  0
  4 17  1  6  0  0  0
  4  5  1  0  0  0  0
  6 11  1  0  0  0  0
  8  6  1  0  0  0  0
  8  4  1  0  0  0  0
  9 10  1  0  0  0  0
 10  1  2  0  0  0  0
 10 11  1  0  0  0  0
 11  7  1  6  0  0  0
 12 31  1  6  0  0  0
 12 13  1  0  0  0  0
 13 15  1  0  0  0  0
 14 16  2  0  0  0  0
 16 15  1  0  0  0  0
 16  1  1  0  0  0  0
 18 23  1  0  0  0  0
 19 22  1  0  0  0  0
 20 18  2  0  0  0  0
 20 21  1  0  0  0  0
 21 19  2  0  0  0  0
 22 17  1  0  0  0  0
 23 22  2  0  0  0  0
 24 26  1  0  0  0  0
 25 24  2  0  0  0  0
 25 26  1  0  0  0  0
 26 20  1  1  0  0  0
 27 28  1  0  0  0  0
 28 25  1  0  0  0  0
 29 21  1  0  0  0  0
 29 30  1  0  0  0  0
 31 34  1  0  0  0  0
 33 34  1  0  0  0  0
 34 32  1  0  0  0  0
M  END
>  <MODEL>
7

>  <REMARK>
 VINA RESULT:      -6.9      2.386      6.961
  Name = 
  6 active torsions:
  status: ('A' for Active; 'I' for Inactive)
    1  A    between atoms: C_8  and  C_18
    2  A    between atoms: C_14  and  C_16
    3  A    between atoms: C_18  and  C_30
    4  A    between atoms: C_23  and  N_24
    5  A    between atoms: C_23  and  C_25
    6  A    between atoms: O_26  and  C_28
                            x       y       z     vdW  Elec       q    Type
                         _______ _______ _______ _____ _____    ______ ____

>  <TORSDO>
F 6

$$$$
=
 OpenBabel11052420273D

 34 38  0  0  1  0  0  0  0  0999 V2000
  192.2880  174.9700  144.8170 C   0  0  0  0  0  0  0  0  0  0  0  0
  189.5220  177.5970  145.3840 C   0  0  0  0  0  2  0  0  0  0  0  0
  191.6880  177.5840  144.1570 O   0  0  0  0  0  0  0  0  0  0  0  0
  192.5880  172.5060  144.2270 C   0  0  2  0  0  3  0  0  0  0  0  0
  192.6680  173.5960  145.3130 C   0  0  0  0  0  2  0  0  0  0  0  0
  194.2000  173.7250  142.6280 C   0  0  0  0  0  2  0  0  0  0  0  0
  195.3900  175.9160  142.8890 C   0  0  0  0  0  1  0  0  0  0  0  0
  192.8560  173.0060  142.8010 C   0  0  0  0  0  2  0  0  0  0  0  0
  192.6780  176.9290  143.3610 C   0  0  0  0  0  2  0  0  0  0  0  0
  193.1120  175.6200  143.9710 C   0  0  0  0  0  0  0  0  0  0  0  0
  194.4010  174.9560  143.5280 C   0  0  1  0  0  3  0  0  0  0  0  0
  188.7980  176.8910  146.5290 C   0  0  2  0  0  3  0  0  0  0  0  0
  188.6960  175.4010  146.2430 C   0  0  0  0  0  2  0  0  0  0  0  0
  190.7710  176.8790  144.9430 C   0  0  0  0  0  0  0  0  0  0  0  0
  190.0990  174.8140  146.1780 C   0  0  0  0  0  2  0  0  0  0  0  0
  191.0130  175.5870  145.2560 C   0  0  0  0  0  0  0  0  0  0  0  0
  191.2250  171.8260  144.2580 C   0  0  0  0  0  2  0  0  0  0  0  0
  189.9800  171.7490  140.6860 C   0  0  0  0  0  3  0  0  0  0  0  0
  189.4400  173.1110  143.0600 C   0  0  0  0  0  3  0  0  0  0  0  0
  188.9930  172.7480  140.6980 C   0  0  0  0  0  0  0  0  0  0  0  0
  188.7030  173.4200  141.9040 C   0  0  0  0  0  0  0  0  0  0  0  0
  190.4380  172.1350  143.0290 C   0  0  0  0  0  0  0  0  0  0  0  0
  190.7030  171.4510  141.8410 C   0  0  0  0  0  3  0  0  0  0  0  0
  188.6110  174.1700  138.8460 N   0  0  0  0  0  0  0  0  0  0  0  0
  188.9730  172.9060  138.3350 C   0  0  0  0  0  0  0  0  0  0  0  0
  188.1920  173.0160  139.4490 C   0  0  1  0  0  3  0  0  0  0  0  0
  190.4100  172.7420  136.3110 C   0  0  0  0  0  1  0  0  0  0  0  0
  189.6560  172.1090  137.3750 N   0  0  0  0  0  2  0  0  0  0  0  0
  187.6850  174.3800  141.9390 O   0  0  0  0  0  0  0  0  0  0  0  0
  187.8890  175.7040  142.4150 C   0  0  0  0  0  1  0  0  0  0  0  0
  187.4220  177.5060  146.7720 C   0  0  0  0  0  2  0  0  0  0  0  0
  185.2180  176.7880  146.4960 C   0  0  0  0  0  1  0  0  0  0  0  0
  186.1930  178.1790  144.9050 C   0  0  0  0  0  1  0  0  0  0  0  0
  186.4550  177.0530  145.7830 N   0  0  0  0  0  0  0  0  0  0  0  0
  1 16  1  0  0  0  0
  1  5  1  0  0  0  0
  2 12  1  0  0  0  0
  3 14  1  0  0  0  0
  4 17  1  6  0  0  0
  4  5  1  0  0  0  0
  6  8  1  0  0  0  0
  6 11  1  0  0  0  0
  8  4  1  0  0  0  0
  9 10  1  0  0  0  0
  9  3  1  0  0  0  0
 10  1  2  0  0  0  0
 11  7  1  6  0  0  0
 11 10  1  0  0  0  0
 12 31  1  6  0  0  0
 13 12  1  0  0  0  0
 14 16  2  0  0  0  0
 14  2  1  0  0  0  0
 15 13  1  0  0  0  0
 16 15  1  0  0  0  0
 18 20  2  0  0  0  0
 18 23  1  0  0  0  0
 20 21  1  0  0  0  0
 21 29  1  0  0  0  0
 21 19  2  0  0  0  0
 22 19  1  0  0  0  0
 22 17  1  0  0  0  0
 23 22  2  0  0  0  0
 24 26  1  0  0  0  0
 25 24  2  0  0  0  0
 25 26  1  0  0  0  0
 26 20  1  1  0  0  0
 27 28  1  0  0  0  0
 28 25  1  0  0  0  0
 29 30  1  0  0  0  0
 33 34  1  0  0  0  0
 34 32  1  0  0  0  0
 34 31  1  0  0  0  0
M  END
>  <MODEL>
8

>  <REMARK>
 VINA RESULT:      -6.9      2.412      6.534
  Name = 
  6 active torsions:
  status: ('A' for Active; 'I' for Inactive)
    1  A    between atoms: C_8  and  C_18
    2  A    between atoms: C_14  and  C_16
    3  A    between atoms: C_18  and  C_30
    4  A    between atoms: C_23  and  N_24
    5  A    between atoms: C_23  and  C_25
    6  A    between atoms: O_26  and  C_28
                            x       y       z     vdW  Elec       q    Type
                         _______ _______ _______ _____ _____    ______ ____

>  <TORSDO>
F 6

$$$$
=
 OpenBabel11052420273D

 34 38  0  0  1  0  0  0  0  0999 V2000
  190.1390  175.7480  144.8360 C   0  0  0  0  0  0  0  0  0  0  0  0
  188.4810  178.1470  142.3120 C   0  0  0  0  0  2  0  0  0  0  0  0
  190.7510  177.9740  143.3210 O   0  0  0  0  0  0  0  0  0  0  0  0
  190.3300  173.2610  145.3720 C   0  0  2  0  0  3  0  0  0  0  0  0
  189.7430  174.6290  145.7670 C   0  0  0  0  0  2  0  0  0  0  0  0
  192.7690  174.0930  145.4180 C   0  0  0  0  0  2  0  0  0  0  0  0
  193.6950  176.3650  145.9360 C   0  0  0  0  0  1  0  0  0  0  0  0
  191.6820  173.3340  144.6480 C   0  0  0  0  0  2  0  0  0  0  0  0
  191.8510  177.2090  143.8160 C   0  0  0  0  0  2  0  0  0  0  0  0
  191.4130  176.1910  144.8370 C   0  0  0  0  0  0  0  0  0  0  0  0
  192.4230  175.5500  145.7680 C   0  0  1  0  0  3  0  0  0  0  0  0
  187.0290  177.7510  142.5730 C   0  0  2  0  0  3  0  0  0  0  0  0
  186.9170  176.2410  142.7150 C   0  0  0  0  0  2  0  0  0  0  0  0
  189.4560  177.4530  143.2270 C   0  0  0  0  0  0  0  0  0  0  0  0
  187.7220  175.7990  143.9290 C   0  0  0  0  0  2  0  0  0  0  0  0
  189.1310  176.3440  143.9260 C   0  0  0  0  0  0  0  0  0  0  0  0
  189.3480  172.4950  144.4950 C   0  0  0  0  0  2  0  0  0  0  0  0
  191.3070  171.0590  141.5940 C   0  0  0  0  0  3  0  0  0  0  0  0
  189.5220  173.1470  142.0830 C   0  0  0  0  0  3  0  0  0  0  0  0
  190.9620  171.9310  140.5480 C   0  0  0  0  0  0  0  0  0  0  0  0
  190.0410  172.9710  140.7900 C   0  0  0  0  0  0  0  0  0  0  0  0
  189.8930  172.2900  143.1220 C   0  0  0  0  0  0  0  0  0  0  0  0
  190.7820  171.2430  142.8740 C   0  0  0  0  0  3  0  0  0  0  0  0
  192.4300  170.6750  139.1830 N   0  0  0  0  0  0  0  0  0  0  0  0
  191.1220  170.4530  138.7040 C   0  0  0  0  0  0  0  0  0  0  0  0
  191.5040  171.6800  139.1630 C   0  0  1  0  0  3  0  0  0  0  0  0
  190.4540  168.1990  137.8880 C   0  0  0  0  0  1  0  0  0  0  0  0
  190.1340  169.5870  138.1580 N   0  0  0  0  0  2  0  0  0  0  0  0
  189.6510  173.8130  139.7410 O   0  0  0  0  0  0  0  0  0  0  0  0
  188.4320  173.6460  139.0300 C   0  0  0  0  0  1  0  0  0  0  0  0
  186.1100  178.2760  141.4730 C   0  0  0  0  0  2  0  0  0  0  0  0
  184.2210  178.5170  142.8230 C   0  0  0  0  0  1  0  0  0  0  0  0
  183.9790  178.2920  140.5200 C   0  0  0  0  0  1  0  0  0  0  0  0
  184.7410  177.8180  141.6610 N   0  0  0  0  0  0  0  0  0  0  0  0
  1 10  2  0  0  0  0
  1  5  1  0  0  0  0
  2 12  1  0  0  0  0
  2 14  1  0  0  0  0
  3  9  1  0  0  0  0
  4 17  1  6  0  0  0
  4  5  1  0  0  0  0
  6 11  1  0  0  0  0
  8  4  1  0  0  0  0
  8  6  1  0  0  0  0
  9 10  1  0  0  0  0
 10 11  1  0  0  0  0
 11  7  1  6  0  0  0
 12 31  1  6  0  0  0
 12 13  1  0  0  0  0
 13 15  1  0  0  0  0
 14  3  1  0  0  0  0
 14 16  2  0  0  0  0
 16 15  1  0  0  0  0
 16  1  1  0  0  0  0
 18 23  1  0  0  0  0
 19 22  1  0  0  0  0
 20 21  1  0  0  0  0
 20 18  2  0  0  0  0
 21 19  2  0  0  0  0
 22 17  1  0  0  0  0
 23 22  2  0  0  0  0
 25 26  1  0  0  0  0
 25 24  2  0  0  0  0
 26 24  1  0  0  0  0
 26 20  1  1  0  0  0
 27 28  1  0  0  0  0
 28 25  1  0  0  0  0
 29 21  1  0  0  0  0
 30 29  1  0  0  0  0
 31 34  1  0  0  0  0
 33 34  1  0  0  0  0
 34 32  1  0  0  0  0
M  END
>  <MODEL>
9

>  <REMARK>
 VINA RESULT:      -6.9      2.529      7.085
  Name = 
  6 active torsions:
  status: ('A' for Active; 'I' for Inactive)
    1  A    between atoms: C_8  and  C_18
    2  A    between atoms: C_14  and  C_16
    3  A    between atoms: C_18  and  C_30
    4  A    between atoms: C_23  and  N_24
    5  A    between atoms: C_23  and  C_25
    6  A    between atoms: O_26  and  C_28
                            x       y       z     vdW  Elec       q    Type
                         _______ _______ _______ _____ _____    ______ ____

>  <TORSDO>
F 6

$$$$
