=
 OpenBabel11052418323D

 27 31  0  0  1  0  0  0  0  0999 V2000
  188.2030  176.2390  146.4130 C   0  0  0  0  0  2  0  0  0  0  0  0
  188.1970  176.1460  143.8780 C   0  0  1  0  0  3  0  0  0  0  0  0
  185.7570  176.1000  144.6300 C   0  0  0  0  0  2  0  0  0  0  0  0
  189.5030  175.1460  142.2380 C   0  0  1  0  0  3  0  0  0  0  0  0
  188.9610  176.3670  142.7180 O   0  0  0  0  0  0  0  0  0  0  0  0
  191.8740  175.7220  146.8830 C   0  0  0  0  0  2  0  0  0  0  0  0
  190.3460  176.2710  145.1160 N   0  0  1  0  0  0  0  0  0  0  0  0
  184.7630  178.8850  146.8360 C   0  0  0  0  0  3  0  0  0  0  0  0
  190.4580  174.8100  145.1830 C   0  0  2  0  0  3  0  0  0  0  0  0
  186.0160  179.1250  147.5610 C   0  0  0  0  0  0  0  0  0  0  0  0
  188.9290  176.6760  145.1300 C   0  0  2  0  0  3  0  0  0  0  0  0
  190.9730  174.9270  142.6300 C   0  0  2  0  0  3  0  0  0  0  0  0
  187.0130  177.1050  146.6340 C   0  0  0  0  0  0  0  0  0  0  0  0
  186.7880  176.7280  143.6790 C   0  0  1  0  0  3  0  0  0  0  0  0
  184.6140  177.7810  146.1030 C   0  0  0  0  0  3  0  0  0  0  0  0
  188.7020  174.0180  142.4710 O   0  0  0  0  0  1  0  0  0  0  0  0
  186.1310  180.1290  148.3110 O   0  0  0  0  0  0  0  0  0  0  0  0
  191.1850  174.4530  146.4620 C   0  0  0  0  0  2  0  0  0  0  0  0
  187.1490  178.2120  147.3700 C   0  0  0  0  0  3  0  0  0  0  0  0
  191.2290  174.2510  143.9850 C   0  0  0  0  0  2  0  0  0  0  0  0
  185.6750  176.7090  146.0370 C   0  0  1  0  0  3  0  0  0  0  0  0
  191.0380  176.8240  146.2780 C   0  0  0  0  0  2  0  0  0  0  0  0
  186.9480  178.7240  142.1990 C   0  0  0  0  0  2  0  0  0  0  0  0
  185.5590  178.7060  142.8000 C   0  0  0  0  0  2  0  0  0  0  0  0
  186.7480  178.2560  143.6270 C   0  0  0  0  0  3  0  0  0  0  0  0
  192.9970  175.8810  142.9520 O   0  0  0  0  0  1  0  0  0  0  0  0
  191.7460  176.1540  142.5100 N   0  0  0  0  0  2  0  0  0  0  0  0
  1 13  1  0  0  0  0
  2  5  1  6  0  0  0
  2 11  1  0  0  0  0
  4 16  1  1  0  0  0
  4 12  1  0  0  0  0
  4  5  1  0  0  0  0
  7 11  1  0  0  0  0
  7  9  1  0  0  0  0
  7 22  1  1  0  0  0
  8 10  1  0  0  0  0
  9 20  1  6  0  0  0
  9 18  1  0  0  0  0
 10 17  2  0  0  0  0
 11  1  1  1  0  0  0
 12 27  1  1  0  0  0
 12 20  1  0  0  0  0
 13 19  2  0  0  0  0
 14 25  1  1  0  0  0
 14  2  1  0  0  0  0
 14  3  1  0  0  0  0
 15  8  2  0  0  0  0
 18  6  1  0  0  0  0
 19 10  1  0  0  0  0
 21  3  1  6  0  0  0
 21 15  1  0  0  0  0
 21 13  1  0  0  0  0
 22  6  1  0  0  0  0
 23 24  1  0  0  0  0
 23 25  1  0  0  0  0
 24 25  1  0  0  0  0
 27 26  1  0  0  0  0
M  END
>  <MODEL>
1

>  <REMARK>
 VINA RESULT:      -7.7      0.000      0.000
  Name = 
  2 active torsions:
  status: ('A' for Active; 'I' for Inactive)
    1  A    between atoms: C_14  and  C_19
    2  A    between atoms: N_16  and  C_17
                            x       y       z     vdW  Elec       q    Type
                         _______ _______ _______ _____ _____    ______ ____

>  <TORSDO>
F 2

$$$$
=
 OpenBabel11052418323D

 27 31  0  0  1  0  0  0  0  0999 V2000
  188.9400  175.7140  143.5750 C   0  0  0  0  0  2  0  0  0  0  0  0
  188.0660  176.6650  145.7580 C   0  0  1  0  0  3  0  0  0  0  0  0
  189.4420  174.5950  146.3460 C   0  0  0  0  0  2  0  0  0  0  0  0
  186.1010  177.6760  146.4750 C   0  0  1  0  0  3  0  0  0  0  0  0
  187.5120  177.7990  146.3770 O   0  0  0  0  0  0  0  0  0  0  0  0
  186.8960  177.8520  141.2910 C   0  0  0  0  0  2  0  0  0  0  0  0
  187.5230  177.7790  143.6060 N   0  0  1  0  0  0  0  0  0  0  0  0
  192.8930  174.6080  145.0440 C   0  0  0  0  0  3  0  0  0  0  0  0
  186.2960  176.9920  143.4420 C   0  0  2  0  0  3  0  0  0  0  0  0
  192.7150  175.3530  143.7920 C   0  0  0  0  0  0  0  0  0  0  0  0
  188.5410  176.9940  144.3260 C   0  0  2  0  0  3  0  0  0  0  0  0
  185.3370  178.4440  145.3830 C   0  0  2  0  0  3  0  0  0  0  0  0
  190.2910  175.2730  144.0170 C   0  0  0  0  0  0  0  0  0  0  0  0
  189.1580  176.0710  146.6640 C   0  0  1  0  0  3  0  0  0  0  0  0
  191.8320  174.1580  145.7130 C   0  0  0  0  0  3  0  0  0  0  0  0
  185.6390  176.3610  146.6410 O   0  0  0  0  0  1  0  0  0  0  0  0
  193.7160  175.7140  143.1220 O   0  0  0  0  0  0  0  0  0  0  0  0
  186.0580  176.7970  141.9600 C   0  0  0  0  0  2  0  0  0  0  0  0
  191.3620  175.7140  143.3510 C   0  0  0  0  0  3  0  0  0  0  0  0
  185.0890  177.6980  144.0640 C   0  0  0  0  0  2  0  0  0  0  0  0
  190.4230  174.3270  145.1960 C   0  0  1  0  0  3  0  0  0  0  0  0
  188.0090  178.1290  142.2730 C   0  0  0  0  0  2  0  0  0  0  0  0
  190.2530  177.9110  147.9360 C   0  0  0  0  0  2  0  0  0  0  0  0
  191.1000  176.6680  148.1020 C   0  0  0  0  0  2  0  0  0  0  0  0
  190.4090  176.9420  146.7800 C   0  0  0  0  0  3  0  0  0  0  0  0
  185.3460  180.2470  144.0200 O   0  0  0  0  0  1  0  0  0  0  0  0
  185.9300  179.7500  145.1370 N   0  0  0  0  0  2  0  0  0  0  0  0
  1 13  1  0  0  0  0
  2  5  1  1  0  0  0
  2 14  1  0  0  0  0
  3 14  1  0  0  0  0
  4 16  1  6  0  0  0
  5  4  1  0  0  0  0
  6 18  1  0  0  0  0
  6 22  1  0  0  0  0
  7 22  1  6  0  0  0
  7 11  1  0  0  0  0
  8 15  2  0  0  0  0
  9 18  1  6  0  0  0
  9  7  1  0  0  0  0
  9 20  1  0  0  0  0
 10  8  1  0  0  0  0
 11  1  1  6  0  0  0
 11  2  1  0  0  0  0
 12 27  1  6  0  0  0
 12  4  1  0  0  0  0
 13 21  1  0  0  0  0
 14 25  1  6  0  0  0
 17 10  2  0  0  0  0
 19 10  1  0  0  0  0
 19 13  2  0  0  0  0
 20 12  1  0  0  0  0
 21 15  1  1  0  0  0
 21  3  1  0  0  0  0
 23 24  1  0  0  0  0
 25 23  1  0  0  0  0
 25 24  1  0  0  0  0
 26 27  1  0  0  0  0
M  END
>  <MODEL>
2

>  <REMARK>
 VINA RESULT:      -7.6      2.195      6.373
  Name = 
  2 active torsions:
  status: ('A' for Active; 'I' for Inactive)
    1  A    between atoms: C_14  and  C_19
    2  A    between atoms: N_16  and  C_17
                            x       y       z     vdW  Elec       q    Type
                         _______ _______ _______ _____ _____    ______ ____

>  <TORSDO>
F 2

$$$$
=
 OpenBabel11052418323D

 27 31  0  0  1  0  0  0  0  0999 V2000
  191.2340  176.7440  143.0140 C   0  0  0  0  0  2  0  0  0  0  0  0
  191.7730  175.9840  145.3730 C   0  0  1  0  0  3  0  0  0  0  0  0
  190.0360  177.8460  145.5700 C   0  0  0  0  0  2  0  0  0  0  0  0
  193.6730  175.2870  146.5130 C   0  0  1  0  0  3  0  0  0  0  0  0
  192.3410  174.9570  146.1480 O   0  0  0  0  0  0  0  0  0  0  0  0
  193.9680  174.8680  141.2900 C   0  0  0  0  0  2  0  0  0  0  0  0
  192.8840  174.9070  143.4310 N   0  0  1  0  0  0  0  0  0  0  0  0
  186.9520  177.3000  143.6210 C   0  0  0  0  0  3  0  0  0  0  0  0
  193.9990  175.8590  143.4690 C   0  0  2  0  0  3  0  0  0  0  0  0
  187.4790  176.5580  142.4690 C   0  0  0  0  0  0  0  0  0  0  0  0
  191.6440  175.5530  143.8960 C   0  0  2  0  0  3  0  0  0  0  0  0
  194.7380  174.6100  145.6340 C   0  0  2  0  0  3  0  0  0  0  0  0
  189.7740  176.9950  143.1590 C   0  0  0  0  0  0  0  0  0  0  0  0
  190.4500  176.4350  146.0150 C   0  0  1  0  0  3  0  0  0  0  0  0
  187.7850  177.9160  144.4600 C   0  0  0  0  0  3  0  0  0  0  0  0
  193.9080  176.6580  146.6970 O   0  0  0  0  0  1  0  0  0  0  0  0
  186.6910  176.0390  141.6370 O   0  0  0  0  0  0  0  0  0  0  0  0
  194.5020  176.0500  142.0530 C   0  0  0  0  0  2  0  0  0  0  0  0
  188.9290  176.3870  142.3220 C   0  0  0  0  0  3  0  0  0  0  0  0
  195.1420  175.3510  144.3510 C   0  0  0  0  0  2  0  0  0  0  0  0
  189.2790  177.9410  144.2380 C   0  0  1  0  0  3  0  0  0  0  0  0
  192.7290  174.4570  142.0500 C   0  0  0  0  0  2  0  0  0  0  0  0
  189.3160  174.5570  147.1950 C   0  0  0  0  0  2  0  0  0  0  0  0
  188.3020  175.6650  147.0110 C   0  0  0  0  0  2  0  0  0  0  0  0
  189.3320  175.3950  145.9310 C   0  0  0  0  0  3  0  0  0  0  0  0
  195.3330  172.7500  144.4960 O   0  0  0  0  0  1  0  0  0  0  0  0
  194.3920  173.2260  145.3460 N   0  0  0  0  0  2  0  0  0  0  0  0
  1 13  1  0  0  0  0
  2 14  1  0  0  0  0
  2  5  1  1  0  0  0
  3 14  1  0  0  0  0
  4 16  1  6  0  0  0
  5  4  1  0  0  0  0
  6 22  1  0  0  0  0
  6 18  1  0  0  0  0
  7 22  1  6  0  0  0
  7  9  1  0  0  0  0
  7 11  1  0  0  0  0
  8 15  2  0  0  0  0
  9 18  1  6  0  0  0
  9 20  1  0  0  0  0
 10  8  1  0  0  0  0
 11  1  1  6  0  0  0
 11  2  1  0  0  0  0
 12 27  1  6  0  0  0
 12  4  1  0  0  0  0
 13 21  1  0  0  0  0
 14 25  1  6  0  0  0
 17 10  2  0  0  0  0
 19 10  1  0  0  0  0
 19 13  2  0  0  0  0
 20 12  1  0  0  0  0
 21 15  1  1  0  0  0
 21  3  1  0  0  0  0
 24 23  1  0  0  0  0
 25 24  1  0  0  0  0
 25 23  1  0  0  0  0
 26 27  1  0  0  0  0
M  END
>  <MODEL>
3

>  <REMARK>
 VINA RESULT:      -6.8      2.718      5.105
  Name = 
  2 active torsions:
  status: ('A' for Active; 'I' for Inactive)
    1  A    between atoms: C_14  and  C_19
    2  A    between atoms: N_16  and  C_17
                            x       y       z     vdW  Elec       q    Type
                         _______ _______ _______ _____ _____    ______ ____

>  <TORSDO>
F 2

$$$$
=
 OpenBabel11052418323D

 27 31  0  0  1  0  0  0  0  0999 V2000
  187.6380  177.5270  143.0460 C   0  0  0  0  0  2  0  0  0  0  0  0
  187.8140  176.9240  145.5030 C   0  0  1  0  0  3  0  0  0  0  0  0
  186.5860  179.1600  145.3720 C   0  0  0  0  0  2  0  0  0  0  0  0
  189.4020  175.9200  146.8700 C   0  0  1  0  0  3  0  0  0  0  0  0
  188.0570  175.8830  146.4170 O   0  0  0  0  0  0  0  0  0  0  0  0
  189.9270  174.8700  141.7560 C   0  0  0  0  0  2  0  0  0  0  0  0
  188.7480  175.4050  143.7770 N   0  0  1  0  0  0  0  0  0  0  0  0
  183.5990  179.1620  143.2080 C   0  0  0  0  0  3  0  0  0  0  0  0
  190.0600  176.0580  143.8290 C   0  0  2  0  0  3  0  0  0  0  0  0
  184.0000  178.1920  142.1810 C   0  0  0  0  0  0  0  0  0  0  0  0
  187.6800  176.3770  144.0660 C   0  0  2  0  0  3  0  0  0  0  0  0
  190.3200  174.9140  146.1570 C   0  0  2  0  0  3  0  0  0  0  0  0
  186.2800  178.1370  143.0340 C   0  0  0  0  0  0  0  0  0  0  0  0
  186.6060  177.7490  145.9790 C   0  0  1  0  0  3  0  0  0  0  0  0
  184.5020  179.6470  144.0600 C   0  0  0  0  0  3  0  0  0  0  0  0
  189.9570  177.2060  146.9500 O   0  0  0  0  0  1  0  0  0  0  0  0
  183.1640  177.7900  141.3310 O   0  0  0  0  0  0  0  0  0  0  0  0
  190.6870  175.9650  142.4540 C   0  0  0  0  0  2  0  0  0  0  0  0
  185.3680  177.6620  142.1820 C   0  0  0  0  0  3  0  0  0  0  0  0
  190.9800  175.3900  144.8540 C   0  0  0  0  0  2  0  0  0  0  0  0
  185.9660  179.2870  143.9740 C   0  0  1  0  0  3  0  0  0  0  0  0
  188.5780  174.8560  142.4330 C   0  0  0  0  0  2  0  0  0  0  0  0
  184.9190  176.4210  147.2420 C   0  0  0  0  0  2  0  0  0  0  0  0
  184.2460  177.6920  146.7690 C   0  0  0  0  0  2  0  0  0  0  0  0
  185.2720  177.0060  145.8880 C   0  0  0  0  0  3  0  0  0  0  0  0
  190.4340  172.9090  145.1210 O   0  0  0  0  0  1  0  0  0  0  0  0
  189.6610  173.6320  145.9650 N   0  0  0  0  0  2  0  0  0  0  0  0
  2 14  1  0  0  0  0
  2  5  1  1  0  0  0
  3 14  1  0  0  0  0
  4 16  1  6  0  0  0
  5  4  1  0  0  0  0
  6 22  1  0  0  0  0
  6 18  1  0  0  0  0
  7 22  1  6  0  0  0
  7  9  1  0  0  0  0
  7 11  1  0  0  0  0
  8 15  2  0  0  0  0
  9 18  1  6  0  0  0
  9 20  1  0  0  0  0
 10 19  1  0  0  0  0
 10  8  1  0  0  0  0
 11  1  1  6  0  0  0
 11  2  1  0  0  0  0
 12 27  1  6  0  0  0
 12  4  1  0  0  0  0
 13  1  1  0  0  0  0
 13 21  1  0  0  0  0
 14 25  1  6  0  0  0
 17 10  2  0  0  0  0
 19 13  2  0  0  0  0
 20 12  1  0  0  0  0
 21 15  1  1  0  0  0
 21  3  1  0  0  0  0
 24 23  1  0  0  0  0
 25 24  1  0  0  0  0
 25 23  1  0  0  0  0
 26 27  1  0  0  0  0
M  END
>  <MODEL>
4

>  <REMARK>
 VINA RESULT:      -6.8      2.211      4.229
  Name = 
  2 active torsions:
  status: ('A' for Active; 'I' for Inactive)
    1  A    between atoms: C_14  and  C_19
    2  A    between atoms: N_16  and  C_17
                            x       y       z     vdW  Elec       q    Type
                         _______ _______ _______ _____ _____    ______ ____

>  <TORSDO>
F 2

$$$$
=
 OpenBabel11052418323D

 27 31  0  0  1  0  0  0  0  0999 V2000
  192.8300  174.9690  146.0390 C   0  0  0  0  0  2  0  0  0  0  0  0
  192.4960  176.3480  143.9370 C   0  0  1  0  0  3  0  0  0  0  0  0
  194.9910  176.4160  144.4820 C   0  0  0  0  0  2  0  0  0  0  0  0
  190.8780  177.8090  143.1340 C   0  0  1  0  0  3  0  0  0  0  0  0
  191.6200  176.6270  142.8730 O   0  0  0  0  0  0  0  0  0  0  0  0
  189.2160  174.5410  146.8880 C   0  0  0  0  0  2  0  0  0  0  0  0
  190.5570  175.2440  145.0250 N   0  0  1  0  0  0  0  0  0  0  0  0
  196.5870  173.1100  144.8410 C   0  0  0  0  0  3  0  0  0  0  0  0
  190.2810  176.4200  145.8570 C   0  0  2  0  0  3  0  0  0  0  0  0
  195.4770  172.3230  145.3900 C   0  0  0  0  0  0  0  0  0  0  0  0
  192.0010  175.1360  144.7550 C   0  0  2  0  0  3  0  0  0  0  0  0
  189.4560  177.5430  143.6530 C   0  0  2  0  0  3  0  0  0  0  0  0
  194.1340  174.3290  145.7150 C   0  0  0  0  0  0  0  0  0  0  0  0
  193.9270  176.2000  143.3940 C   0  0  1  0  0  3  0  0  0  0  0  0
  196.5080  174.4390  144.7920 C   0  0  0  0  0  3  0  0  0  0  0  0
  191.5630  178.7750  143.8880 O   0  0  0  0  0  1  0  0  0  0  0  0
  195.5810  171.0740  145.5030 O   0  0  0  0  0  0  0  0  0  0  0  0
  189.6880  175.9420  147.1660 C   0  0  0  0  0  2  0  0  0  0  0  0
  194.2280  172.9970  145.7630 C   0  0  0  0  0  3  0  0  0  0  0  0
  189.3000  177.3740  145.1720 C   0  0  0  0  0  2  0  0  0  0  0  0
  195.3260  175.1960  145.3520 C   0  0  1  0  0  3  0  0  0  0  0  0
  190.0920  174.0650  145.7540 C   0  0  0  0  0  2  0  0  0  0  0  0
  193.7640  175.2350  141.1040 C   0  0  0  0  0  2  0  0  0  0  0  0
  195.2210  175.2110  141.5110 C   0  0  0  0  0  2  0  0  0  0  0  0
  194.1420  174.9470  142.5440 C   0  0  0  0  0  3  0  0  0  0  0  0
  187.6230  176.2260  143.5260 O   0  0  0  0  0  1  0  0  0  0  0  0
  188.8260  176.4400  142.9420 N   0  0  0  0  0  2  0  0  0  0  0  0
  2  5  1  6  0  0  0
  2 11  1  0  0  0  0
  4 12  1  0  0  0  0
  4 16  1  1  0  0  0
  5  4  1  0  0  0  0
  6 18  1  0  0  0  0
  7 22  1  1  0  0  0
  7  9  1  0  0  0  0
  8 10  1  0  0  0  0
  9 20  1  6  0  0  0
  9 18  1  0  0  0  0
 10 17  2  0  0  0  0
 10 19  1  0  0  0  0
 11  7  1  0  0  0  0
 11  1  1  1  0  0  0
 12 27  1  6  0  0  0
 12 20  1  0  0  0  0
 13 19  2  0  0  0  0
 13  1  1  0  0  0  0
 14 25  1  1  0  0  0
 14  2  1  0  0  0  0
 14  3  1  0  0  0  0
 15  8  2  0  0  0  0
 15 21  1  0  0  0  0
 21  3  1  6  0  0  0
 21 13  1  0  0  0  0
 22  6  1  0  0  0  0
 23 24  1  0  0  0  0
 23 25  1  0  0  0  0
 24 25  1  0  0  0  0
 27 26  1  0  0  0  0
M  END
>  <MODEL>
5

>  <REMARK>
 VINA RESULT:      -6.8      3.194      7.328
  Name = 
  2 active torsions:
  status: ('A' for Active; 'I' for Inactive)
    1  A    between atoms: C_14  and  C_19
    2  A    between atoms: N_16  and  C_17
                            x       y       z     vdW  Elec       q    Type
                         _______ _______ _______ _____ _____    ______ ____

>  <TORSDO>
F 2

$$$$
=
 OpenBabel11052418323D

 27 31  0  0  1  0  0  0  0  0999 V2000
  188.3330  176.1720  146.0340 C   0  0  0  0  0  2  0  0  0  0  0  0
  189.6760  176.2580  143.8840 C   0  0  1  0  0  3  0  0  0  0  0  0
  187.2760  175.6640  143.2400 C   0  0  0  0  0  2  0  0  0  0  0  0
  191.8230  175.6610  143.2280 C   0  0  1  0  0  3  0  0  0  0  0  0
  190.8680  176.7100  143.2910 O   0  0  0  0  0  0  0  0  0  0  0  0
  191.2250  176.3790  148.3910 C   0  0  0  0  0  2  0  0  0  0  0  0
  190.7740  176.7280  146.0600 N   0  0  1  0  0  0  0  0  0  0  0  0
  184.7170  178.0270  144.4540 C   0  0  0  0  0  3  0  0  0  0  0  0
  191.1380  175.3200  146.2470 C   0  0  2  0  0  3  0  0  0  0  0  0
  185.3220  178.4650  145.7180 C   0  0  0  0  0  0  0  0  0  0  0  0
  189.5130  176.8360  145.3060 C   0  0  2  0  0  3  0  0  0  0  0  0
  192.8770  175.7180  144.3460 C   0  0  2  0  0  3  0  0  0  0  0  0
  187.0530  176.7600  145.5540 C   0  0  0  0  0  0  0  0  0  0  0  0
  188.4950  176.5530  142.9440 C   0  0  1  0  0  3  0  0  0  0  0  0
  185.2090  176.9700  143.8070 C   0  0  0  0  0  3  0  0  0  0  0  0
  191.2750  174.3800  143.0590 O   0  0  0  0  0  1  0  0  0  0  0  0
  184.8130  179.4160  146.3660 O   0  0  0  0  0  0  0  0  0  0  0  0
  191.1430  175.0280  147.7330 C   0  0  0  0  0  2  0  0  0  0  0  0
  186.5480  177.8170  146.1960 C   0  0  0  0  0  3  0  0  0  0  0  0
  192.5190  175.0140  145.6630 C   0  0  0  0  0  2  0  0  0  0  0  0
  186.3450  176.1430  144.3610 C   0  0  1  0  0  3  0  0  0  0  0  0
  190.6210  177.3280  147.3840 C   0  0  0  0  0  2  0  0  0  0  0  0
  188.9420  178.6270  141.6400 C   0  0  0  0  0  2  0  0  0  0  0  0
  187.4750  178.2890  141.4800 C   0  0  0  0  0  2  0  0  0  0  0  0
  188.1690  178.0410  142.8060 C   0  0  0  0  0  3  0  0  0  0  0  0
  194.1960  177.0360  145.6240 O   0  0  0  0  0  1  0  0  0  0  0  0
  193.3210  177.0820  144.5910 N   0  0  0  0  0  2  0  0  0  0  0  0
  2  5  1  6  0  0  0
  2 11  1  0  0  0  0
  4 16  1  1  0  0  0
  4  5  1  0  0  0  0
  4 12  1  0  0  0  0
  7  9  1  0  0  0  0
  7 22  1  1  0  0  0
  8 10  1  0  0  0  0
  9 20  1  1  0  0  0
  9 18  1  0  0  0  0
 10 19  1  0  0  0  0
 10 17  2  0  0  0  0
 11  1  1  1  0  0  0
 11  7  1  0  0  0  0
 12 27  1  1  0  0  0
 12 20  1  0  0  0  0
 13  1  1  0  0  0  0
 13 19  2  0  0  0  0
 14 25  1  1  0  0  0
 14  3  1  0  0  0  0
 14  2  1  0  0  0  0
 15 21  1  0  0  0  0
 15  8  2  0  0  0  0
 18  6  1  0  0  0  0
 21  3  1  6  0  0  0
 21 13  1  0  0  0  0
 22  6  1  0  0  0  0
 23 25  1  0  0  0  0
 24 23  1  0  0  0  0
 24 25  1  0  0  0  0
 27 26  1  0  0  0  0
M  END
>  <MODEL>
6

>  <REMARK>
 VINA RESULT:      -6.6      1.631      2.024
  Name = 
  2 active torsions:
  status: ('A' for Active; 'I' for Inactive)
    1  A    between atoms: C_14  and  C_19
    2  A    between atoms: N_16  and  C_17
                            x       y       z     vdW  Elec       q    Type
                         _______ _______ _______ _____ _____    ______ ____

>  <TORSDO>
F 2

$$$$
=
 OpenBabel11052418323D

 27 31  0  0  1  0  0  0  0  0999 V2000
  188.7760  175.6180  141.7570 C   0  0  0  0  0  2  0  0  0  0  0  0
  190.3270  174.5430  143.4530 C   0  0  1  0  0  3  0  0  0  0  0  0
  190.1440  177.0140  144.0730 C   0  0  0  0  0  2  0  0  0  0  0  0
  191.9740  172.9050  143.4110 C   0  0  1  0  0  3  0  0  0  0  0  0
  190.7550  173.3240  144.0070 O   0  0  0  0  0  0  0  0  0  0  0  0
  188.5940  172.7240  139.4010 C   0  0  0  0  0  2  0  0  0  0  0  0
  189.3140  173.1750  141.6450 N   0  0  1  0  0  0  0  0  0  0  0  0
  186.6980  178.2400  144.5530 C   0  0  0  0  0  3  0  0  0  0  0  0
  190.4470  173.4210  140.7460 C   0  0  2  0  0  3  0  0  0  0  0  0
  185.9700  177.4060  143.5890 C   0  0  0  0  0  0  0  0  0  0  0  0
  189.1050  174.3320  142.5330 C   0  0  2  0  0  3  0  0  0  0  0  0
  191.7910  171.8370  142.3210 C   0  0  2  0  0  3  0  0  0  0  0  0
  188.0540  176.5690  142.6460 C   0  0  0  0  0  0  0  0  0  0  0  0
  190.0980  175.5640  144.5800 C   0  0  1  0  0  3  0  0  0  0  0  0
  188.0300  178.2910  144.5250 C   0  0  0  0  0  3  0  0  0  0  0  0
  192.8210  173.9510  143.0150 O   0  0  0  0  0  1  0  0  0  0  0  0
  184.7130  177.4150  143.5680 O   0  0  0  0  0  0  0  0  0  0  0  0
  189.9270  173.4170  139.3240 C   0  0  0  0  0  2  0  0  0  0  0  0
  186.7190  176.5300  142.6810 C   0  0  0  0  0  3  0  0  0  0  0  0
  191.5270  172.3470  140.8960 C   0  0  0  0  0  2  0  0  0  0  0  0
  188.8410  177.5650  143.4770 C   0  0  1  0  0  3  0  0  0  0  0  0
  188.1290  172.9540  140.8190 C   0  0  0  0  0  2  0  0  0  0  0  0
  189.3160  174.2970  146.5760 C   0  0  0  0  0  2  0  0  0  0  0  0
  189.1480  175.7710  146.8720 C   0  0  0  0  0  2  0  0  0  0  0  0
  188.8960  175.2470  145.4710 C   0  0  0  0  0  3  0  0  0  0  0  0
  190.6650  169.9890  141.6640 O   0  0  0  0  0  1  0  0  0  0  0  0
  190.8000  170.8440  142.7070 N   0  0  0  0  0  2  0  0  0  0  0  0
  1 13  1  0  0  0  0
  2  5  1  1  0  0  0
  2 14  1  0  0  0  0
  3 14  1  0  0  0  0
  4 16  1  6  0  0  0
  4  5  1  0  0  0  0
  6 22  1  0  0  0  0
  7 22  1  6  0  0  0
  7 11  1  0  0  0  0
  9 18  1  6  0  0  0
  9 20  1  0  0  0  0
  9  7  1  0  0  0  0
 10  8  1  0  0  0  0
 11  1  1  6  0  0  0
 11  2  1  0  0  0  0
 12 27  1  1  0  0  0
 12  4  1  0  0  0  0
 13 19  2  0  0  0  0
 13 21  1  0  0  0  0
 14 25  1  6  0  0  0
 15  8  2  0  0  0  0
 17 10  2  0  0  0  0
 18  6  1  0  0  0  0
 19 10  1  0  0  0  0
 20 12  1  0  0  0  0
 21  3  1  1  0  0  0
 21 15  1  0  0  0  0
 23 24  1  0  0  0  0
 25 23  1  0  0  0  0
 25 24  1  0  0  0  0
 26 27  1  0  0  0  0
M  END
>  <MODEL>
7

>  <REMARK>
 VINA RESULT:      -6.3      2.600      4.997
  Name = 
  2 active torsions:
  status: ('A' for Active; 'I' for Inactive)
    1  A    between atoms: C_14  and  C_19
    2  A    between atoms: N_16  and  C_17
                            x       y       z     vdW  Elec       q    Type
                         _______ _______ _______ _____ _____    ______ ____

>  <TORSDO>
F 2

$$$$
=
 OpenBabel11052418323D

 27 31  0  0  1  0  0  0  0  0999 V2000
  192.2290  173.7760  143.5610 C   0  0  0  0  0  2  0  0  0  0  0  0
  189.7550  174.1790  143.1750 C   0  0  1  0  0  3  0  0  0  0  0  0
  190.1240  174.1840  145.7020 C   0  0  0  0  0  2  0  0  0  0  0  0
  188.1490  173.4140  141.6800 C   0  0  1  0  0  3  0  0  0  0  0  0
  188.7870  174.5580  142.2280 O   0  0  0  0  0  0  0  0  0  0  0  0
  193.1050  172.8820  140.0400 C   0  0  0  0  0  2  0  0  0  0  0  0
  191.2870  173.8860  141.2430 N   0  0  1  0  0  0  0  0  0  0  0  0
  192.6880  176.5570  146.8880 C   0  0  0  0  0  3  0  0  0  0  0  0
  191.0700  172.4360  141.2160 C   0  0  2  0  0  3  0  0  0  0  0  0
  193.6190  176.5490  145.7530 C   0  0  0  0  0  0  0  0  0  0  0  0
  191.1800  174.3940  142.6220 C   0  0  2  0  0  3  0  0  0  0  0  0
  188.6950  173.0060  140.3020 C   0  0  2  0  0  3  0  0  0  0  0  0
  192.4510  174.6750  144.7270 C   0  0  0  0  0  0  0  0  0  0  0  0
  189.4790  174.9000  144.5050 C   0  0  1  0  0  3  0  0  0  0  0  0
  191.7310  175.6330  146.9760 C   0  0  0  0  0  3  0  0  0  0  0  0
  188.0300  172.3310  142.5630 O   0  0  0  0  0  1  0  0  0  0  0  0
  194.5660  177.3760  145.7070 O   0  0  0  0  0  0  0  0  0  0  0  0
  192.3390  171.7790  140.7170 C   0  0  0  0  0  2  0  0  0  0  0  0
  193.4090  175.6030  144.6520 C   0  0  0  0  0  3  0  0  0  0  0  0
  189.9060  172.0600  140.2960 C   0  0  0  0  0  2  0  0  0  0  0  0
  191.5990  174.5120  145.9720 C   0  0  1  0  0  3  0  0  0  0  0  0
  192.6250  174.1450  140.7140 C   0  0  0  0  0  2  0  0  0  0  0  0
  188.5190  177.1160  143.8980 C   0  0  0  0  0  2  0  0  0  0  0  0
  188.7710  177.1160  145.3900 C   0  0  0  0  0  2  0  0  0  0  0  0
  189.7360  176.4060  144.4590 C   0  0  0  0  0  3  0  0  0  0  0  0
  189.4950  173.7130  138.3100 O   0  0  0  0  0  1  0  0  0  0  0  0
  188.9410  174.1660  139.4590 N   0  0  0  0  0  2  0  0  0  0  0  0
  1 13  1  0  0  0  0
  2  5  1  6  0  0  0
  2 14  1  0  0  0  0
  4  5  1  0  0  0  0
  4 16  1  1  0  0  0
  6 22  1  0  0  0  0
  6 18  1  0  0  0  0
  7 22  1  1  0  0  0
  7 11  1  0  0  0  0
  8 15  2  0  0  0  0
  9 20  1  6  0  0  0
  9  7  1  0  0  0  0
 10  8  1  0  0  0  0
 11  2  1  0  0  0  0
 11  1  1  1  0  0  0
 12 27  1  1  0  0  0
 12  4  1  0  0  0  0
 13 21  1  0  0  0  0
 14 25  1  6  0  0  0
 14  3  1  0  0  0  0
 17 10  2  0  0  0  0
 18  9  1  0  0  0  0
 19 13  2  0  0  0  0
 19 10  1  0  0  0  0
 20 12  1  0  0  0  0
 21  3  1  6  0  0  0
 21 15  1  0  0  0  0
 23 25  1  0  0  0  0
 23 24  1  0  0  0  0
 25 24  1  0  0  0  0
 26 27  1  0  0  0  0
M  END
>  <MODEL>
8

>  <REMARK>
 VINA RESULT:      -6.3      3.020      5.535
  Name = 
  2 active torsions:
  status: ('A' for Active; 'I' for Inactive)
    1  A    between atoms: C_14  and  C_19
    2  A    between atoms: N_16  and  C_17
                            x       y       z     vdW  Elec       q    Type
                         _______ _______ _______ _____ _____    ______ ____

>  <TORSDO>
F 2

$$$$
=
 OpenBabel11052418323D

 27 31  0  0  1  0  0  0  0  0999 V2000
  193.1860  173.6750  145.5130 C   0  0  0  0  0  2  0  0  0  0  0  0
  193.0560  175.6520  143.9290 C   0  0  1  0  0  3  0  0  0  0  0  0
  195.2450  175.8800  145.2260 C   0  0  0  0  0  2  0  0  0  0  0  0
  191.3810  177.0530  143.1370 C   0  0  1  0  0  3  0  0  0  0  0  0
  192.4280  176.1640  142.7800 O   0  0  0  0  0  0  0  0  0  0  0  0
  189.6900  172.4520  145.0100 C   0  0  0  0  0  2  0  0  0  0  0  0
  191.2370  173.9630  143.9670 N   0  0  1  0  0  0  0  0  0  0  0  0
  197.4580  172.9340  145.0570 C   0  0  0  0  0  3  0  0  0  0  0  0
  190.4860  174.7090  144.9830 C   0  0  2  0  0  3  0  0  0  0  0  0
  196.4720  171.8500  144.9650 C   0  0  0  0  0  0  0  0  0  0  0  0
  192.6840  174.1690  144.1460 C   0  0  2  0  0  3  0  0  0  0  0  0
  189.9830  176.4150  143.0760 C   0  0  2  0  0  3  0  0  0  0  0  0
  194.6450  173.3900  145.4380 C   0  0  0  0  0  0  0  0  0  0  0  0
  194.5680  175.9170  143.8460 C   0  0  1  0  0  3  0  0  0  0  0  0
  197.0720  174.1660  145.3880 C   0  0  0  0  0  3  0  0  0  0  0  0
  191.6020  177.7730  144.3210 O   0  0  0  0  0  1  0  0  0  0  0  0
  196.8450  170.6740  144.7240 O   0  0  0  0  0  0  0  0  0  0  0  0
  189.7240  173.7130  145.8300 C   0  0  0  0  0  2  0  0  0  0  0  0
  195.0450  172.1580  145.1110 C   0  0  0  0  0  3  0  0  0  0  0  0
  189.5030  175.6920  144.3440 C   0  0  0  0  0  2  0  0  0  0  0  0
  195.6410  174.4920  145.7470 C   0  0  1  0  0  3  0  0  0  0  0  0
  190.9080  172.5470  144.1220 C   0  0  0  0  0  2  0  0  0  0  0  0
  195.1560  175.7920  141.4300 C   0  0  0  0  0  2  0  0  0  0  0  0
  196.4460  175.8970  142.2120 C   0  0  0  0  0  2  0  0  0  0  0  0
  195.2840  175.0980  142.7720 C   0  0  0  0  0  3  0  0  0  0  0  0
  188.6080  174.9960  141.9790 O   0  0  0  0  0  1  0  0  0  0  0  0
  189.8360  175.5630  141.9060 N   0  0  0  0  0  2  0  0  0  0  0  0
  2  5  1  6  0  0  0
  2 11  1  0  0  0  0
  4 16  1  1  0  0  0
  5  4  1  0  0  0  0
  6 18  1  0  0  0  0
  7 22  1  1  0  0  0
  7 11  1  0  0  0  0
  7  9  1  0  0  0  0
  8 15  2  0  0  0  0
  9 20  1  6  0  0  0
  9 18  1  0  0  0  0
 10  8  1  0  0  0  0
 10 19  1  0  0  0  0
 11  1  1  1  0  0  0
 12 27  1  6  0  0  0
 12  4  1  0  0  0  0
 12 20  1  0  0  0  0
 13  1  1  0  0  0  0
 13 21  1  0  0  0  0
 14 25  1  6  0  0  0
 14  2  1  0  0  0  0
 14  3  1  0  0  0  0
 15 21  1  0  0  0  0
 17 10  2  0  0  0  0
 19 13  2  0  0  0  0
 21  3  1  6  0  0  0
 22  6  1  0  0  0  0
 23 24  1  0  0  0  0
 23 25  1  0  0  0  0
 24 25  1  0  0  0  0
 27 26  1  0  0  0  0
M  END
>  <MODEL>
9

>  <REMARK>
 VINA RESULT:      -6.3      3.630      7.899
  Name = 
  2 active torsions:
  status: ('A' for Active; 'I' for Inactive)
    1  A    between atoms: C_14  and  C_19
    2  A    between atoms: N_16  and  C_17
                            x       y       z     vdW  Elec       q    Type
                         _______ _______ _______ _____ _____    ______ ____

>  <TORSDO>
F 2

$$$$
