=
 OpenBabel11052421283D

 32 38  0  0  1  0  0  0  0  0999 V2000
  190.9710  172.6620  139.8140 S   0  0  0  0  0  0  0  0  0  0  0  0
  189.6670  176.4810  143.0180 N   0  0  0  0  0  0  0  0  0  0  0  0
  192.3180  174.9390  146.8310 C   0  0  0  0  0  3  0  0  0  0  0  0
  191.4470  175.6020  147.6980 C   0  0  0  0  0  3  0  0  0  0  0  0
  187.7290  177.9670  143.5450 C   0  0  2  0  0  3  0  0  0  0  0  0
  186.9130  176.9030  142.8550 C   0  0  0  0  0  0  0  0  0  0  0  0
  189.5140  174.6070  141.3380 C   0  0  1  0  0  3  0  0  0  0  0  0
  191.5380  174.8730  142.5530 C   0  0  0  0  0  2  0  0  0  0  0  0
  185.7520  178.2720  145.0560 C   0  0  0  0  0  0  0  0  0  0  0  0
  191.1140  172.7480  141.6370 C   0  0  0  0  0  2  0  0  0  0  0  0
  192.1660  175.0650  145.4480 C   0  0  0  0  0  3  0  0  0  0  0  0
  191.0200  176.0490  143.4060 C   0  0  2  0  0  3  0  0  0  0  0  0
  191.1310  175.8450  144.9140 C   0  0  0  0  0  0  0  0  0  0  0  0
  189.1860  177.3580  145.2290 C   0  0  0  0  0  0  0  0  0  0  0  0
  184.9800  177.5950  144.1970 C   0  0  0  0  0  3  0  0  0  0  0  0
  190.4690  173.9290  142.2350 N   0  0  2  0  0  0  0  0  0  0  0  0
  185.6030  176.7950  143.1170 C   0  0  0  0  0  3  0  0  0  0  0  0
  188.4980  173.6220  140.7450 C   0  0  0  0  0  2  0  0  0  0  0  0
  189.1500  172.5200  139.9060 C   0  0  1  0  0  3  0  0  0  0  0  0
  190.4240  176.4020  147.1860 C   0  0  0  0  0  3  0  0  0  0  0  0
  190.2680  176.5420  145.8010 C   0  0  0  0  0  0  0  0  0  0  0  0
  188.1050  177.8090  145.8500 C   0  0  0  0  0  3  0  0  0  0  0  0
  188.8570  175.7250  142.0980 C   0  0  0  0  0  0  0  0  0  0  0  0
  187.5680  175.9300  142.0300 N   0  0  0  0  0  0  0  0  0  0  0  0
  185.1440  178.9970  146.2040 C   0  0  0  0  0  1  0  0  0  0  0  0
  189.0460  177.4410  143.8260 N   0  0  0  0  0  0  0  0  0  0  0  0
  187.1720  178.2600  144.8630 N   0  0  0  0  0  0  0  0  0  0  0  0
  188.5900  172.5270  138.5660 N   0  0  0  0  0  2  0  0  0  0  0  0
  189.4910  173.3080  137.7360 C   0  0  0  0  0  2  0  0  0  0  0  0
  188.7240  174.3590  137.0160 C   0  0  0  0  0  0  0  0  0  0  0  0
  187.6040  174.9310  137.6050 O   0  0  0  0  0  1  0  0  0  0  0  0
  189.1110  174.7560  135.8860 O   0  0  0  0  0  0  0  0  0  0  0  0
  1 19  1  0  0  0  0
  1 10  1  0  0  0  0
  2 12  1  0  0  0  0
  2 26  1  0  0  0  0
  3  4  1  0  0  0  0
  5  6  1  1  0  0  0
  5 26  1  0  0  0  0
  5 27  1  0  0  0  0
  6 17  2  0  0  0  0
  7 18  1  1  0  0  0
  7 23  1  0  0  0  0
  7 16  1  0  0  0  0
  9 25  1  0  0  0  0
 11  3  2  0  0  0  0
 12  8  1  6  0  0  0
 12 13  1  0  0  0  0
 13 11  1  0  0  0  0
 13 21  2  0  0  0  0
 14 21  1  0  0  0  0
 14 22  2  0  0  0  0
 15  9  2  0  0  0  0
 16 10  1  6  0  0  0
 16  8  1  0  0  0  0
 17 15  1  0  0  0  0
 19 28  1  6  0  0  0
 19 18  1  0  0  0  0
 20  4  2  0  0  0  0
 21 20  1  0  0  0  0
 23  2  1  0  0  0  0
 24 23  2  0  0  0  0
 24  6  1  0  0  0  0
 26 14  1  0  0  0  0
 27  9  1  0  0  0  0
 27 22  1  0  0  0  0
 29 28  1  0  0  0  0
 30 31  1  0  0  0  0
 30 29  1  0  0  0  0
 32 30  2  0  0  0  0
M  END
>  <MODEL>
1

>  <REMARK>
 VINA RESULT:      -7.9      0.000      0.000
  Name = 
  3 active torsions:
  status: ('A' for Active; 'I' for Inactive)
    1  A    between atoms: C_1  and  C_10
    2  A    between atoms: C_10  and  N_19
    3  A    between atoms: N_19  and  C_24
                            x       y       z     vdW  Elec       q    Type
                         _______ _______ _______ _____ _____    ______ ____

>  <TORSDO>
F 3

$$$$
=
 OpenBabel11052421283D

 32 38  0  0  1  0  0  0  0  0999 V2000
  186.9380  177.5250  147.5950 S   0  0  0  0  0  0  0  0  0  0  0  0
  190.2670  174.5250  145.0500 N   0  0  0  0  0  0  0  0  0  0  0  0
  194.3250  176.8460  146.4960 C   0  0  0  0  0  3  0  0  0  0  0  0
  194.9820  176.4010  145.3470 C   0  0  0  0  0  3  0  0  0  0  0  0
  190.4360  173.2150  142.9300 C   0  0  2  0  0  3  0  0  0  0  0  0
  189.3160  174.1080  142.4600 C   0  0  0  0  0  0  0  0  0  0  0  0
  188.2790  175.9820  145.5820 C   0  0  1  0  0  3  0  0  0  0  0  0
  190.1080  175.9700  147.0970 C   0  0  0  0  0  2  0  0  0  0  0  0
  191.2580  173.2740  140.5620 C   0  0  0  0  0  0  0  0  0  0  0  0
  188.6860  177.8440  147.1550 C   0  0  0  0  0  2  0  0  0  0  0  0
  193.0240  176.4180  146.7740 C   0  0  0  0  0  3  0  0  0  0  0  0
  190.9720  175.0190  146.2450 C   0  0  2  0  0  3  0  0  0  0  0  0
  192.3580  175.5500  145.8960 C   0  0  0  0  0  0  0  0  0  0  0  0
  192.3350  174.1660  143.8340 C   0  0  0  0  0  0  0  0  0  0  0  0
  190.0760  173.7530  140.1540 C   0  0  0  0  0  3  0  0  0  0  0  0
  189.2750  176.8320  146.2610 N   0  0  2  0  0  0  0  0  0  0  0  0
  189.1140  174.2860  141.1470 C   0  0  0  0  0  3  0  0  0  0  0  0
  187.2000  176.8220  144.8850 C   0  0  0  0  0  2  0  0  0  0  0  0
  186.4070  177.7040  145.8540 C   0  0  1  0  0  3  0  0  0  0  0  0
  194.3450  175.5180  144.4730 C   0  0  0  0  0  3  0  0  0  0  0  0
  193.0440  175.0770  144.7460 C   0  0  0  0  0  0  0  0  0  0  0  0
  192.6540  173.8760  142.5800 C   0  0  0  0  0  3  0  0  0  0  0  0
  188.9990  175.0670  144.6310 C   0  0  0  0  0  0  0  0  0  0  0  0
  188.5640  174.8670  143.4160 N   0  0  0  0  0  0  0  0  0  0  0  0
  192.2730  172.8280  139.5700 C   0  0  0  0  0  1  0  0  0  0  0  0
  191.0110  173.7750  144.1320 N   0  0  0  0  0  0  0  0  0  0  0  0
  191.5350  173.2280  141.9680 N   0  0  0  0  0  0  0  0  0  0  0  0
  184.9900  177.4060  145.7410 N   0  0  0  0  0  2  0  0  0  0  0  0
  184.2970  178.6790  145.6500 C   0  0  0  0  0  2  0  0  0  0  0  0
  184.4580  179.2390  144.2810 C   0  0  0  0  0  0  0  0  0  0  0  0
  185.3590  180.2700  144.0510 O   0  0  0  0  0  1  0  0  0  0  0  0
  183.8000  178.7540  143.3230 O   0  0  0  0  0  0  0  0  0  0  0  0
  2 12  1  0  0  0  0
  3 11  1  0  0  0  0
  4  3  2  0  0  0  0
  5  6  1  6  0  0  0
  5 26  1  0  0  0  0
  6 24  1  0  0  0  0
  7 18  1  6  0  0  0
  7 16  1  0  0  0  0
  9 27  1  0  0  0  0
 10  1  1  0  0  0  0
 12  8  1  6  0  0  0
 13 12  1  0  0  0  0
 13 11  2  0  0  0  0
 14 26  1  0  0  0  0
 14 21  1  0  0  0  0
 15  9  2  0  0  0  0
 15 17  1  0  0  0  0
 16  8  1  1  0  0  0
 16 10  1  0  0  0  0
 17  6  2  0  0  0  0
 18 19  1  0  0  0  0
 19 28  1  1  0  0  0
 19  1  1  0  0  0  0
 20 21  2  0  0  0  0
 20  4  1  0  0  0  0
 21 13  1  0  0  0  0
 22 14  2  0  0  0  0
 23  2  1  0  0  0  0
 23  7  1  0  0  0  0
 24 23  2  0  0  0  0
 25  9  1  0  0  0  0
 26  2  1  0  0  0  0
 27 22  1  0  0  0  0
 27  5  1  0  0  0  0
 29 28  1  0  0  0  0
 30 29  1  0  0  0  0
 31 30  1  0  0  0  0
 32 30  2  0  0  0  0
M  END
>  <MODEL>
2

>  <REMARK>
 VINA RESULT:      -7.4      3.408      6.558
  Name = 
  3 active torsions:
  status: ('A' for Active; 'I' for Inactive)
    1  A    between atoms: C_1  and  C_10
    2  A    between atoms: C_10  and  N_19
    3  A    between atoms: N_19  and  C_24
                            x       y       z     vdW  Elec       q    Type
                         _______ _______ _______ _____ _____    ______ ____

>  <TORSDO>
F 3

$$$$
=
 OpenBabel11052421283D

 32 38  0  0  1  0  0  0  0  0999 V2000
  187.2060  177.8030  144.8890 S   0  0  0  0  0  0  0  0  0  0  0  0
  190.4090  173.7670  144.8950 N   0  0  0  0  0  0  0  0  0  0  0  0
  194.3220  176.1640  146.5950 C   0  0  0  0  0  3  0  0  0  0  0  0
  195.1560  175.2280  145.9800 C   0  0  0  0  0  3  0  0  0  0  0  0
  190.8650  171.6770  143.6050 C   0  0  2  0  0  3  0  0  0  0  0  0
  190.1160  172.3700  142.4960 C   0  0  0  0  0  0  0  0  0  0  0  0
  188.6900  175.4580  144.1600 C   0  0  1  0  0  3  0  0  0  0  0  0
  190.0100  175.9460  146.0740 C   0  0  0  0  0  2  0  0  0  0  0  0
  192.2810  170.6700  141.7960 C   0  0  0  0  0  0  0  0  0  0  0  0
  189.0350  177.7720  144.9550 C   0  0  0  0  0  2  0  0  0  0  0  0
  192.9350  175.9930  146.5740 C   0  0  0  0  0  3  0  0  0  0  0  0
  190.8570  174.6620  145.9750 C   0  0  2  0  0  3  0  0  0  0  0  0
  192.3640  174.8900  145.9230 C   0  0  0  0  0  0  0  0  0  0  0  0
  192.6090  172.7720  144.6480 C   0  0  0  0  0  0  0  0  0  0  0  0
  191.3720  171.0200  140.8780 C   0  0  0  0  0  3  0  0  0  0  0  0
  189.6210  176.4360  144.7530 N   0  0  2  0  0  0  0  0  0  0  0  0
  190.3100  171.9940  141.2250 C   0  0  0  0  0  3  0  0  0  0  0  0
  188.0290  176.0060  142.8880 C   0  0  0  0  0  2  0  0  0  0  0  0
  187.2040  177.2710  143.1390 C   0  0  1  0  0  3  0  0  0  0  0  0
  194.6080  174.1100  145.3470 C   0  0  0  0  0  3  0  0  0  0  0  0
  193.2200  173.9260  145.3270 C   0  0  0  0  0  0  0  0  0  0  0  0
  193.1830  171.9570  143.7740 C   0  0  0  0  0  3  0  0  0  0  0  0
  189.4360  174.1760  143.9150 C   0  0  0  0  0  0  0  0  0  0  0  0
  189.3080  173.5170  142.7950 N   0  0  0  0  0  0  0  0  0  0  0  0
  193.4100  169.7720  141.4340 C   0  0  0  0  0  1  0  0  0  0  0  0
  191.2020  172.6450  144.6230 N   0  0  0  0  0  0  0  0  0  0  0  0
  192.1600  171.1990  143.1230 N   0  0  0  0  0  0  0  0  0  0  0  0
  185.8370  177.0620  142.6920 N   0  0  0  0  0  2  0  0  0  0  0  0
  185.3840  178.3180  142.1190 C   0  0  0  0  0  2  0  0  0  0  0  0
  185.0700  178.1260  140.6770 C   0  0  0  0  0  0  0  0  0  0  0  0
  186.0540  177.6820  139.8040 O   0  0  0  0  0  0  0  0  0  0  0  0
  183.9020  178.3320  140.2560 O   0  0  0  0  0  1  0  0  0  0  0  0
  1 10  1  0  0  0  0
  2 12  1  0  0  0  0
  4  3  2  0  0  0  0
  5  6  1  6  0  0  0
  5 26  1  0  0  0  0
  6 24  1  0  0  0  0
  7 18  1  6  0  0  0
  7 16  1  0  0  0  0
  9 27  1  0  0  0  0
 11  3  1  0  0  0  0
 12  8  1  6  0  0  0
 13 12  1  0  0  0  0
 13 11  2  0  0  0  0
 14 21  1  0  0  0  0
 15 17  1  0  0  0  0
 15  9  2  0  0  0  0
 16 10  1  1  0  0  0
 16  8  1  0  0  0  0
 17  6  2  0  0  0  0
 18 19  1  0  0  0  0
 19 28  1  1  0  0  0
 19  1  1  0  0  0  0
 20  4  1  0  0  0  0
 21 20  2  0  0  0  0
 21 13  1  0  0  0  0
 22 14  2  0  0  0  0
 23  7  1  0  0  0  0
 23  2  1  0  0  0  0
 24 23  2  0  0  0  0
 25  9  1  0  0  0  0
 26 14  1  0  0  0  0
 26  2  1  0  0  0  0
 27  5  1  0  0  0  0
 27 22  1  0  0  0  0
 29 28  1  0  0  0  0
 30 29  1  0  0  0  0
 31 30  2  0  0  0  0
 32 30  1  0  0  0  0
M  END
>  <MODEL>
3

>  <REMARK>
 VINA RESULT:      -7.4      2.903      6.212
  Name = 
  3 active torsions:
  status: ('A' for Active; 'I' for Inactive)
    1  A    between atoms: C_1  and  C_10
    2  A    between atoms: C_10  and  N_19
    3  A    between atoms: N_19  and  C_24
                            x       y       z     vdW  Elec       q    Type
                         _______ _______ _______ _____ _____    ______ ____

>  <TORSDO>
F 3

$$$$
=
 OpenBabel11052421283D

 32 38  0  0  1  0  0  0  0  0999 V2000
  191.7320  172.1970  140.3380 S   0  0  0  0  0  0  0  0  0  0  0  0
  190.0560  176.2800  142.9980 N   0  0  0  0  0  0  0  0  0  0  0  0
  192.1880  175.0940  147.2400 C   0  0  0  0  0  3  0  0  0  0  0  0
  191.2180  175.8280  147.9270 C   0  0  0  0  0  3  0  0  0  0  0  0
  188.0760  177.7970  143.1400 C   0  0  2  0  0  3  0  0  0  0  0  0
  187.3480  176.6730  142.4490 C   0  0  0  0  0  0  0  0  0  0  0  0
  190.1050  174.2630  141.4860 C   0  0  1  0  0  3  0  0  0  0  0  0
  191.9590  174.6450  142.9200 C   0  0  0  0  0  2  0  0  0  0  0  0
  185.9240  178.2260  144.3540 C   0  0  0  0  0  0  0  0  0  0  0  0
  191.6410  172.4450  142.1490 C   0  0  0  0  0  2  0  0  0  0  0  0
  192.2150  175.0960  145.8430 C   0  0  0  0  0  3  0  0  0  0  0  0
  191.3450  175.8890  143.5930 C   0  0  2  0  0  3  0  0  0  0  0  0
  191.2610  175.8210  145.1140 C   0  0  0  0  0  0  0  0  0  0  0  0
  189.3020  177.3470  145.0430 C   0  0  0  0  0  0  0  0  0  0  0  0
  185.2630  177.4710  143.4670 C   0  0  0  0  0  3  0  0  0  0  0  0
  190.9330  173.6720  142.5530 N   0  0  2  0  0  0  0  0  0  0  0  0
  186.0140  176.5820  142.5500 C   0  0  0  0  0  3  0  0  0  0  0  0
  189.1660  173.2250  140.8570 C   0  0  0  0  0  2  0  0  0  0  0  0
  189.9130  172.0550  140.2090 C   0  0  1  0  0  3  0  0  0  0  0  0
  190.2740  176.5740  147.2190 C   0  0  0  0  0  3  0  0  0  0  0  0
  190.2970  176.5900  145.8190 C   0  0  0  0  0  0  0  0  0  0  0  0
  188.1540  177.8460  145.4790 C   0  0  0  0  0  3  0  0  0  0  0  0
  189.3640  175.4410  142.0530 C   0  0  0  0  0  0  0  0  0  0  0  0
  188.0960  175.6330  141.8040 N   0  0  0  0  0  0  0  0  0  0  0  0
  185.1800  179.0470  145.3460 C   0  0  0  0  0  1  0  0  0  0  0  0
  189.3420  177.3040  143.6320 N   0  0  0  0  0  0  0  0  0  0  0  0
  187.3570  178.2030  144.3460 N   0  0  0  0  0  0  0  0  0  0  0  0
  189.5280  171.9410  138.8130 N   0  0  0  0  0  2  0  0  0  0  0  0
  189.7910  170.5690  138.4140 C   0  0  0  0  0  2  0  0  0  0  0  0
  190.4750  170.5550  137.0930 C   0  0  0  0  0  0  0  0  0  0  0  0
  191.8550  170.4190  137.0240 O   0  0  0  0  0  1  0  0  0  0  0  0
  189.7980  170.6320  136.0350 O   0  0  0  0  0  0  0  0  0  0  0  0
  1 10  1  0  0  0  0
  2 12  1  0  0  0  0
  2 26  1  0  0  0  0
  3  4  1  0  0  0  0
  5  6  1  1  0  0  0
  5 26  1  0  0  0  0
  5 27  1  0  0  0  0
  6 17  2  0  0  0  0
  7 18  1  1  0  0  0
  7 23  1  0  0  0  0
  7 16  1  0  0  0  0
  9 25  1  0  0  0  0
 11  3  2  0  0  0  0
 12  8  1  6  0  0  0
 12 13  1  0  0  0  0
 13 21  2  0  0  0  0
 13 11  1  0  0  0  0
 14 22  2  0  0  0  0
 14 21  1  0  0  0  0
 15  9  2  0  0  0  0
 16 10  1  6  0  0  0
 16  8  1  0  0  0  0
 17 15  1  0  0  0  0
 19 28  1  6  0  0  0
 19  1  1  0  0  0  0
 19 18  1  0  0  0  0
 20  4  2  0  0  0  0
 21 20  1  0  0  0  0
 23  2  1  0  0  0  0
 24 23  2  0  0  0  0
 24  6  1  0  0  0  0
 26 14  1  0  0  0  0
 27  9  1  0  0  0  0
 27 22  1  0  0  0  0
 29 28  1  0  0  0  0
 30 29  1  0  0  0  0
 31 30  1  0  0  0  0
 32 30  2  0  0  0  0
M  END
>  <MODEL>
4

>  <REMARK>
 VINA RESULT:      -7.4      1.568      1.706
  Name = 
  3 active torsions:
  status: ('A' for Active; 'I' for Inactive)
    1  A    between atoms: C_1  and  C_10
    2  A    between atoms: C_10  and  N_19
    3  A    between atoms: N_19  and  C_24
                            x       y       z     vdW  Elec       q    Type
                         _______ _______ _______ _____ _____    ______ ____

>  <TORSDO>
F 3

$$$$
=
 OpenBabel11052421283D

 32 38  0  0  1  0  0  0  0  0999 V2000
  190.5720  172.3460  139.5340 S   0  0  0  0  0  0  0  0  0  0  0  0
  189.1010  176.2790  142.5210 N   0  0  0  0  0  0  0  0  0  0  0  0
  189.8060  174.0200  146.8040 C   0  0  0  0  0  3  0  0  0  0  0  0
  188.8550  174.8550  147.3940 C   0  0  0  0  0  3  0  0  0  0  0  0
  187.4860  178.1850  142.5270 C   0  0  2  0  0  3  0  0  0  0  0  0
  186.7540  177.3780  141.4850 C   0  0  0  0  0  0  0  0  0  0  0  0
  189.1410  174.5500  140.6860 C   0  0  1  0  0  3  0  0  0  0  0  0
  190.6050  174.2700  142.5360 C   0  0  0  0  0  2  0  0  0  0  0  0
  185.2220  178.9310  143.3040 C   0  0  0  0  0  0  0  0  0  0  0  0
  190.0720  172.3430  141.2950 C   0  0  0  0  0  2  0  0  0  0  0  0
  190.1880  174.2180  145.4740 C   0  0  0  0  0  3  0  0  0  0  0  0
  190.0940  175.5130  143.2910 C   0  0  2  0  0  3  0  0  0  0  0  0
  189.6130  175.2460  144.7140 C   0  0  0  0  0  0  0  0  0  0  0  0
  188.0730  177.1870  144.5230 C   0  0  0  0  0  0  0  0  0  0  0  0
  184.6750  178.4910  142.1640 C   0  0  0  0  0  3  0  0  0  0  0  0
  189.5370  173.6310  141.7700 N   0  0  2  0  0  0  0  0  0  0  0  0
  185.4480  177.5920  141.2750 C   0  0  0  0  0  3  0  0  0  0  0  0
  188.2100  173.8660  139.6760 C   0  0  0  0  0  2  0  0  0  0  0  0
  188.8550  172.6600  138.9880 C   0  0  1  0  0  3  0  0  0  0  0  0
  188.2870  175.8990  146.6610 C   0  0  0  0  0  3  0  0  0  0  0  0
  188.6700  176.1110  145.3310 C   0  0  0  0  0  0  0  0  0  0  0  0
  186.9720  177.8750  144.7890 C   0  0  0  0  0  3  0  0  0  0  0  0
  188.5240  175.7750  141.3010 C   0  0  0  0  0  0  0  0  0  0  0  0
  187.4240  176.2950  140.8250 N   0  0  0  0  0  0  0  0  0  0  0  0
  184.4240  179.7520  144.2540 C   0  0  0  0  0  1  0  0  0  0  0  0
  188.4630  177.3410  143.1740 N   0  0  0  0  0  0  0  0  0  0  0  0
  186.5770  178.5710  143.6030 N   0  0  0  0  0  0  0  0  0  0  0  0
  188.8250  172.8440  137.5470 N   0  0  0  0  0  2  0  0  0  0  0  0
  190.2060  172.8850  137.0980 C   0  0  0  0  0  2  0  0  0  0  0  0
  190.2870  172.4160  135.6880 C   0  0  0  0  0  0  0  0  0  0  0  0
  189.6640  171.2340  135.3100 O   0  0  0  0  0  1  0  0  0  0  0  0
  190.8930  173.1100  134.8300 O   0  0  0  0  0  0  0  0  0  0  0  0
  1 10  1  0  0  0  0
  2 26  1  0  0  0  0
  2 12  1  0  0  0  0
  3  4  1  0  0  0  0
  5  6  1  6  0  0  0
  5 26  1  0  0  0  0
  5 27  1  0  0  0  0
  7 18  1  6  0  0  0
  7 23  1  0  0  0  0
  7 16  1  0  0  0  0
  9 27  1  0  0  0  0
  9 25  1  0  0  0  0
 11  3  2  0  0  0  0
 12  8  1  6  0  0  0
 12 13  1  0  0  0  0
 13 21  2  0  0  0  0
 13 11  1  0  0  0  0
 14 22  2  0  0  0  0
 14 21  1  0  0  0  0
 15  9  2  0  0  0  0
 16 10  1  6  0  0  0
 16  8  1  0  0  0  0
 17  6  2  0  0  0  0
 17 15  1  0  0  0  0
 19 28  1  6  0  0  0
 19  1  1  0  0  0  0
 19 18  1  0  0  0  0
 20  4  2  0  0  0  0
 21 20  1  0  0  0  0
 23  2  1  0  0  0  0
 24 23  2  0  0  0  0
 24  6  1  0  0  0  0
 26 14  1  0  0  0  0
 27 22  1  0  0  0  0
 29 28  1  0  0  0  0
 30 29  1  0  0  0  0
 31 30  1  0  0  0  0
 32 30  2  0  0  0  0
M  END
>  <MODEL>
5

>  <REMARK>
 VINA RESULT:      -7.3      1.749      1.849
  Name = 
  3 active torsions:
  status: ('A' for Active; 'I' for Inactive)
    1  A    between atoms: C_1  and  C_10
    2  A    between atoms: C_10  and  N_19
    3  A    between atoms: N_19  and  C_24
                            x       y       z     vdW  Elec       q    Type
                         _______ _______ _______ _____ _____    ______ ____

>  <TORSDO>
F 3

$$$$
=
 OpenBabel11052421283D

 32 38  0  0  1  0  0  0  0  0999 V2000
  192.1500  174.5610  145.7780 S   0  0  0  0  0  0  0  0  0  0  0  0
  188.4970  177.8070  144.1430 N   0  0  0  0  0  0  0  0  0  0  0  0
  185.6980  177.5580  148.1490 C   0  0  0  0  0  3  0  0  0  0  0  0
  184.5820  177.9030  147.3840 C   0  0  0  0  0  3  0  0  0  0  0  0
  187.3530  178.5050  142.0350 C   0  0  2  0  0  3  0  0  0  0  0  0
  187.8390  177.1800  141.5050 C   0  0  0  0  0  0  0  0  0  0  0  0
  190.1650  175.9170  144.2120 C   0  0  1  0  0  3  0  0  0  0  0  0
  189.5690  176.9740  146.2540 C   0  0  0  0  0  2  0  0  0  0  0  0
  185.3230  178.1470  140.6070 C   0  0  0  0  0  0  0  0  0  0  0  0
  190.4430  174.7940  146.3950 C   0  0  0  0  0  2  0  0  0  0  0  0
  186.9710  177.5430  147.5720 C   0  0  0  0  0  3  0  0  0  0  0  0
  188.5390  177.9230  145.6100 C   0  0  2  0  0  3  0  0  0  0  0  0
  187.1400  177.8580  146.2160 C   0  0  0  0  0  0  0  0  0  0  0  0
  186.1950  178.5680  144.0300 C   0  0  0  0  0  0  0  0  0  0  0  0
  185.9610  177.1870  139.9250 C   0  0  0  0  0  3  0  0  0  0  0  0
  189.6190  175.6880  145.5630 N   0  0  2  0  0  0  0  0  0  0  0  0
  187.2180  176.6140  140.4600 C   0  0  0  0  0  3  0  0  0  0  0  0
  190.4960  174.5970  143.5040 C   0  0  0  0  0  2  0  0  0  0  0  0
  191.5470  173.7670  144.2450 C   0  0  1  0  0  3  0  0  0  0  0  0
  184.7330  178.2420  146.0380 C   0  0  0  0  0  3  0  0  0  0  0  0
  186.0050  178.2380  145.4520 C   0  0  0  0  0  0  0  0  0  0  0  0
  185.2660  178.6250  143.0870 C   0  0  0  0  0  3  0  0  0  0  0  0
  189.1870  176.7570  143.4390 C   0  0  0  0  0  0  0  0  0  0  0  0
  188.8700  176.4700  142.2040 N   0  0  0  0  0  0  0  0  0  0  0  0
  184.0100  178.6610  140.1330 C   0  0  0  0  0  1  0  0  0  0  0  0
  187.4920  178.5150  143.4730 N   0  0  0  0  0  0  0  0  0  0  0  0
  185.9160  178.6460  141.8130 N   0  0  0  0  0  0  0  0  0  0  0  0
  192.6680  173.4930  143.3610 N   0  0  0  0  0  2  0  0  0  0  0  0
  193.7700  174.3300  143.8060 C   0  0  0  0  0  2  0  0  0  0  0  0
  194.1870  175.2360  142.7020 C   0  0  0  0  0  0  0  0  0  0  0  0
  193.4750  176.4010  142.4500 O   0  0  0  0  0  1  0  0  0  0  0  0
  195.2070  174.9630  142.0180 O   0  0  0  0  0  0  0  0  0  0  0  0
  1 10  1  0  0  0  0
  2 12  1  0  0  0  0
  4  3  2  0  0  0  0
  5  6  1  1  0  0  0
  5 26  1  0  0  0  0
  6 24  1  0  0  0  0
  7 18  1  6  0  0  0
  7 16  1  0  0  0  0
  9 27  1  0  0  0  0
 11  3  1  0  0  0  0
 12 13  1  0  0  0  0
 12  8  1  1  0  0  0
 13 11  2  0  0  0  0
 14 21  1  0  0  0  0
 15 17  1  0  0  0  0
 15  9  2  0  0  0  0
 16  8  1  1  0  0  0
 16 10  1  0  0  0  0
 17  6  2  0  0  0  0
 18 19  1  0  0  0  0
 19 28  1  6  0  0  0
 19  1  1  0  0  0  0
 20  4  1  0  0  0  0
 21 20  2  0  0  0  0
 21 13  1  0  0  0  0
 22 14  2  0  0  0  0
 23  2  1  0  0  0  0
 23  7  1  0  0  0  0
 24 23  2  0  0  0  0
 25  9  1  0  0  0  0
 26 14  1  0  0  0  0
 26  2  1  0  0  0  0
 27  5  1  0  0  0  0
 27 22  1  0  0  0  0
 28 29  1  0  0  0  0
 30 29  1  0  0  0  0
 31 30  1  0  0  0  0
 32 30  2  0  0  0  0
M  END
>  <MODEL>
6

>  <REMARK>
 VINA RESULT:      -7.3      3.195      5.095
  Name = 
  3 active torsions:
  status: ('A' for Active; 'I' for Inactive)
    1  A    between atoms: C_1  and  C_10
    2  A    between atoms: C_10  and  N_19
    3  A    between atoms: N_19  and  C_24
                            x       y       z     vdW  Elec       q    Type
                         _______ _______ _______ _____ _____    ______ ____

>  <TORSDO>
F 3

$$$$
=
 OpenBabel11052421283D

 32 38  0  0  1  0  0  0  0  0999 V2000
  192.6440  175.2380  144.4390 S   0  0  0  0  0  0  0  0  0  0  0  0
  188.3110  177.9550  143.8080 N   0  0  0  0  0  0  0  0  0  0  0  0
  186.1650  176.5540  147.9770 C   0  0  0  0  0  3  0  0  0  0  0  0
  184.9130  176.7990  147.4090 C   0  0  0  0  0  3  0  0  0  0  0  0
  186.7900  178.7480  141.9920 C   0  0  2  0  0  3  0  0  0  0  0  0
  187.4140  177.6380  141.1840 C   0  0  0  0  0  0  0  0  0  0  0  0
  190.2650  176.4260  143.3600 C   0  0  1  0  0  3  0  0  0  0  0  0
  189.7840  177.0160  145.6100 C   0  0  0  0  0  2  0  0  0  0  0  0
  184.6740  178.2440  140.7450 C   0  0  0  0  0  0  0  0  0  0  0  0
  191.0230  175.0450  145.2650 C   0  0  0  0  0  2  0  0  0  0  0  0
  187.3310  176.8700  147.2750 C   0  0  0  0  0  3  0  0  0  0  0  0
  188.5320  177.8430  145.2600 C   0  0  2  0  0  3  0  0  0  0  0  0
  187.2600  177.4220  145.9880 C   0  0  0  0  0  0  0  0  0  0  0  0
  185.9210  178.2760  144.0770 C   0  0  0  0  0  0  0  0  0  0  0  0
  185.3640  177.5410  139.8390 C   0  0  0  0  0  3  0  0  0  0  0  0
  189.9550  175.8880  144.6980 N   0  0  2  0  0  0  0  0  0  0  0  0
  186.7610  177.1370  140.1270 C   0  0  0  0  0  3  0  0  0  0  0  0
  190.7130  175.3200  142.3960 C   0  0  0  0  0  2  0  0  0  0  0  0
  191.9800  174.5960  142.8600 C   0  0  1  0  0  3  0  0  0  0  0  0
  184.8210  177.3690  146.1370 C   0  0  0  0  0  3  0  0  0  0  0  0
  185.9830  177.6960  145.4290 C   0  0  0  0  0  0  0  0  0  0  0  0
  184.8750  178.3050  143.2630 C   0  0  0  0  0  3  0  0  0  0  0  0
  189.0650  177.1770  142.8580 C   0  0  0  0  0  0  0  0  0  0  0  0
  188.6350  177.0350  141.6330 N   0  0  0  0  0  0  0  0  0  0  0  0
  183.2410  178.5690  140.5130 C   0  0  0  0  0  1  0  0  0  0  0  0
  187.1200  178.5570  143.3860 N   0  0  0  0  0  0  0  0  0  0  0  0
  185.3330  178.6490  141.9520 N   0  0  0  0  0  0  0  0  0  0  0  0
  193.0000  174.6820  141.8290 N   0  0  0  0  0  2  0  0  0  0  0  0
  193.8230  175.8360  142.1440 C   0  0  0  0  0  2  0  0  0  0  0  0
  194.8190  176.0510  141.0600 C   0  0  0  0  0  0  0  0  0  0  0  0
  194.6300  175.4690  139.8140 O   0  0  0  0  0  0  0  0  0  0  0  0
  195.8180  176.7910  141.2630 O   0  0  0  0  0  1  0  0  0  0  0  0
  1 10  1  0  0  0  0
  2 12  1  0  0  0  0
  4  3  1  0  0  0  0
  5  6  1  6  0  0  0
  5 26  1  0  0  0  0
  6 24  1  0  0  0  0
  7 18  1  6  0  0  0
  7 16  1  0  0  0  0
  9 27  1  0  0  0  0
 11  3  2  0  0  0  0
 12  8  1  6  0  0  0
 12 13  1  0  0  0  0
 13 11  1  0  0  0  0
 14 21  1  0  0  0  0
 15 17  1  0  0  0  0
 15  9  2  0  0  0  0
 16 10  1  1  0  0  0
 16  8  1  0  0  0  0
 17  6  2  0  0  0  0
 18 19  1  0  0  0  0
 19 28  1  6  0  0  0
 19  1  1  0  0  0  0
 20  4  2  0  0  0  0
 21 13  2  0  0  0  0
 21 20  1  0  0  0  0
 22 14  2  0  0  0  0
 23  7  1  0  0  0  0
 23  2  1  0  0  0  0
 24 23  2  0  0  0  0
 25  9  1  0  0  0  0
 26  2  1  0  0  0  0
 26 14  1  0  0  0  0
 27  5  1  0  0  0  0
 27 22  1  0  0  0  0
 28 29  1  0  0  0  0
 30 32  1  0  0  0  0
 30 29  1  0  0  0  0
 31 30  2  0  0  0  0
M  END
>  <MODEL>
7

>  <REMARK>
 VINA RESULT:      -7.3      3.047      4.793
  Name = 
  3 active torsions:
  status: ('A' for Active; 'I' for Inactive)
    1  A    between atoms: C_1  and  C_10
    2  A    between atoms: C_10  and  N_19
    3  A    between atoms: N_19  and  C_24
                            x       y       z     vdW  Elec       q    Type
                         _______ _______ _______ _____ _____    ______ ____

>  <TORSDO>
F 3

$$$$
=
 OpenBabel11052421283D

 32 38  0  0  1  0  0  0  0  0999 V2000
  186.0080  177.2730  142.9200 S   0  0  0  0  0  0  0  0  0  0  0  0
  190.9320  175.7770  142.6710 N   0  0  0  0  0  0  0  0  0  0  0  0
  190.0510  171.2160  141.1330 C   0  0  0  0  0  3  0  0  0  0  0  0
  191.2620  170.8000  141.6900 C   0  0  0  0  0  3  0  0  0  0  0  0
  193.1130  176.1530  143.8290 C   0  0  2  0  0  3  0  0  0  0  0  0
  192.2570  176.6220  144.9770 C   0  0  0  0  0  0  0  0  0  0  0  0
  188.7720  176.7720  143.5060 C   0  0  1  0  0  3  0  0  0  0  0  0
  188.6960  175.3180  141.6290 C   0  0  0  0  0  2  0  0  0  0  0  0
  194.6720  175.2520  145.5750 C   0  0  0  0  0  0  0  0  0  0  0  0
  186.7060  175.5820  142.8560 C   0  0  0  0  0  2  0  0  0  0  0  0
  189.7000  172.5680  141.1400 C   0  0  0  0  0  3  0  0  0  0  0  0
  190.2050  175.0050  141.6500 C   0  0  2  0  0  3  0  0  0  0  0  0
  190.5510  173.5210  141.7190 C   0  0  0  0  0  0  0  0  0  0  0  0
  192.6800  174.1030  142.8600 C   0  0  0  0  0  0  0  0  0  0  0  0
  194.0640  175.9910  146.5120 C   0  0  0  0  0  3  0  0  0  0  0  0
  188.1730  175.5330  142.9760 N   0  0  2  0  0  0  0  0  0  0  0  0
  192.7500  176.6120  146.2230 C   0  0  0  0  0  3  0  0  0  0  0  0
  188.0920  177.2180  144.8070 C   0  0  0  0  0  2  0  0  0  0  0  0
  186.6000  177.5140  144.6340 C   0  0  1  0  0  3  0  0  0  0  0  0
  192.1330  171.7360  142.2510 C   0  0  0  0  0  3  0  0  0  0  0  0
  191.7950  173.0950  142.2560 C   0  0  0  0  0  0  0  0  0  0  0  0
  193.6970  173.8910  143.6830 C   0  0  0  0  0  3  0  0  0  0  0  0
  190.2500  176.5560  143.6720 C   0  0  0  0  0  0  0  0  0  0  0  0
  190.8780  176.9460  144.7480 N   0  0  0  0  0  0  0  0  0  0  0  0
  195.9420  174.5410  145.8840 C   0  0  0  0  0  1  0  0  0  0  0  0
  192.2810  175.4580  142.8740 N   0  0  0  0  0  0  0  0  0  0  0  0
  194.0610  175.1370  144.2840 N   0  0  0  0  0  0  0  0  0  0  0  0
  186.3160  178.8730  145.0630 N   0  0  0  0  0  2  0  0  0  0  0  0
  185.2540  178.7900  146.0510 C   0  0  0  0  0  2  0  0  0  0  0  0
  185.8440  178.6650  147.4110 C   0  0  0  0  0  0  0  0  0  0  0  0
  185.9410  177.4200  148.0170 O   0  0  0  0  0  1  0  0  0  0  0  0
  186.2880  179.6860  147.9980 O   0  0  0  0  0  0  0  0  0  0  0  0
  1 19  1  0  0  0  0
  2 26  1  0  0  0  0
  2 23  1  0  0  0  0
  3 11  2  0  0  0  0
  3  4  1  0  0  0  0
  4 20  2  0  0  0  0
  5 27  1  0  0  0  0
  5  6  1  1  0  0  0
  6 17  2  0  0  0  0
  7 23  1  0  0  0  0
  7 18  1  1  0  0  0
  9 25  1  0  0  0  0
  9 15  2  0  0  0  0
 10  1  1  0  0  0  0
 10 16  1  0  0  0  0
 11 13  1  0  0  0  0
 12  8  1  1  0  0  0
 12 13  1  0  0  0  0
 12  2  1  0  0  0  0
 13 21  2  0  0  0  0
 14 26  1  0  0  0  0
 14 22  2  0  0  0  0
 16  8  1  6  0  0  0
 16  7  1  0  0  0  0
 17 15  1  0  0  0  0
 19 18  1  0  0  0  0
 19 28  1  6  0  0  0
 20 21  1  0  0  0  0
 21 14  1  0  0  0  0
 22 27  1  0  0  0  0
 23 24  2  0  0  0  0
 24  6  1  0  0  0  0
 26  5  1  0  0  0  0
 27  9  1  0  0  0  0
 28 29  1  0  0  0  0
 29 30  1  0  0  0  0
 30 32  2  0  0  0  0
 30 31  1  0  0  0  0
M  END
>  <MODEL>
8

>  <REMARK>
 VINA RESULT:      -7.2      3.790      7.270
  Name = 
  3 active torsions:
  status: ('A' for Active; 'I' for Inactive)
    1  A    between atoms: C_1  and  C_10
    2  A    between atoms: C_10  and  N_19
    3  A    between atoms: N_19  and  C_24
                            x       y       z     vdW  Elec       q    Type
                         _______ _______ _______ _____ _____    ______ ____

>  <TORSDO>
F 3

$$$$
=
 OpenBabel11052421283D

 32 38  0  0  1  0  0  0  0  0999 V2000
  187.8220  177.0920  146.8840 S   0  0  0  0  0  0  0  0  0  0  0  0
  190.4950  174.2310  143.5340 N   0  0  0  0  0  0  0  0  0  0  0  0
  194.8220  176.3900  144.2850 C   0  0  0  0  0  3  0  0  0  0  0  0
  195.2250  176.0160  143.0020 C   0  0  0  0  0  3  0  0  0  0  0  0
  190.2030  173.0690  141.3420 C   0  0  2  0  0  3  0  0  0  0  0  0
  189.0370  174.0070  141.1640 C   0  0  0  0  0  0  0  0  0  0  0  0
  188.6930  175.6750  144.5460 C   0  0  1  0  0  3  0  0  0  0  0  0
  190.7860  175.5320  145.6600 C   0  0  0  0  0  2  0  0  0  0  0  0
  190.5390  173.2800  138.8660 C   0  0  0  0  0  0  0  0  0  0  0  0
  189.4550  177.4170  146.1240 C   0  0  0  0  0  2  0  0  0  0  0  0
  193.5910  175.9610  144.7900 C   0  0  0  0  0  3  0  0  0  0  0  0
  191.4360  174.6300  144.5930 C   0  0  2  0  0  3  0  0  0  0  0  0
  192.7400  175.1660  144.0090 C   0  0  0  0  0  0  0  0  0  0  0  0
  192.2690  173.9280  141.9070 C   0  0  0  0  0  0  0  0  0  0  0  0
  189.3130  173.8020  138.7350 C   0  0  0  0  0  3  0  0  0  0  0  0
  189.8270  176.4610  145.0660 N   0  0  2  0  0  0  0  0  0  0  0  0
  188.5820  174.2780  139.9330 C   0  0  0  0  0  3  0  0  0  0  0  0
  187.5200  176.5760  144.1360 C   0  0  0  0  0  2  0  0  0  0  0  0
  186.9610  177.3990  145.3000 C   0  0  1  0  0  3  0  0  0  0  0  0
  194.4020  175.2050  142.2170 C   0  0  0  0  0  3  0  0  0  0  0  0
  193.1700  174.7640  142.7160 C   0  0  0  0  0  0  0  0  0  0  0  0
  192.3240  173.7210  140.5990 C   0  0  0  0  0  3  0  0  0  0  0  0
  189.1840  174.8180  143.4140 C   0  0  0  0  0  0  0  0  0  0  0  0
  188.5110  174.7090  142.3000 N   0  0  0  0  0  0  0  0  0  0  0  0
  191.3230  172.8900  137.6640 C   0  0  0  0  0  1  0  0  0  0  0  0
  191.0210  173.5360  142.4380 N   0  0  0  0  0  0  0  0  0  0  0  0
  191.0890  173.1330  140.1820 N   0  0  0  0  0  0  0  0  0  0  0  0
  185.5420  177.1290  145.4540 N   0  0  0  0  0  2  0  0  0  0  0  0
  184.9000  178.3990  145.7460 C   0  0  0  0  0  2  0  0  0  0  0  0
  184.6680  179.1450  144.4800 C   0  0  0  0  0  0  0  0  0  0  0  0
  183.7320  178.6860  143.5630 O   0  0  0  0  0  0  0  0  0  0  0  0
  185.2960  180.2120  144.2570 O   0  0  0  0  0  1  0  0  0  0  0  0
  2 12  1  0  0  0  0
  3 11  1  0  0  0  0
  4  3  2  0  0  0  0
  5  6  1  6  0  0  0
  5 26  1  0  0  0  0
  6 24  1  0  0  0  0
  7 18  1  6  0  0  0
  7 16  1  0  0  0  0
  9 27  1  0  0  0  0
 10  1  1  0  0  0  0
 12  8  1  6  0  0  0
 13 12  1  0  0  0  0
 13 11  2  0  0  0  0
 14 26  1  0  0  0  0
 14 21  1  0  0  0  0
 15  9  2  0  0  0  0
 15 17  1  0  0  0  0
 16  8  1  1  0  0  0
 16 10  1  0  0  0  0
 17  6  2  0  0  0  0
 18 19  1  0  0  0  0
 19 28  1  1  0  0  0
 19  1  1  0  0  0  0
 20 21  2  0  0  0  0
 20  4  1  0  0  0  0
 21 13  1  0  0  0  0
 22 14  2  0  0  0  0
 23  2  1  0  0  0  0
 23  7  1  0  0  0  0
 24 23  2  0  0  0  0
 25  9  1  0  0  0  0
 26  2  1  0  0  0  0
 27 22  1  0  0  0  0
 27  5  1  0  0  0  0
 28 29  1  0  0  0  0
 30 29  1  0  0  0  0
 31 30  2  0  0  0  0
 32 30  1  0  0  0  0
M  END
>  <MODEL>
9

>  <REMARK>
 VINA RESULT:      -7.1      3.168      6.597
  Name = 
  3 active torsions:
  status: ('A' for Active; 'I' for Inactive)
    1  A    between atoms: C_1  and  C_10
    2  A    between atoms: C_10  and  N_19
    3  A    between atoms: N_19  and  C_24
                            x       y       z     vdW  Elec       q    Type
                         _______ _______ _______ _____ _____    ______ ____

>  <TORSDO>
F 3

$$$$
