=
 OpenBabel11052418523D

 34 38  0  0  1  0  0  0  0  0999 V2000
  187.1690  178.1150  142.9580 C   0  0  0  0  0  0  0  0  0  0  0  0
  186.0320  177.9120  145.0960 C   0  0  0  0  0  3  0  0  0  0  0  0
  188.3630  176.8980  144.7760 C   0  0  2  0  0  3  0  0  0  0  0  0
  189.2420  175.0090  146.1680 N   0  0  0  0  0  0  0  0  0  0  0  0
  185.0110  179.1600  143.2860 C   0  0  0  0  0  3  0  0  0  0  0  0
  183.8010  178.9730  145.4620 C   0  0  0  0  0  1  0  0  0  0  0  0
  187.5690  176.4260  147.0080 O   0  0  0  0  0  0  0  0  0  0  0  0
  187.1290  177.6150  144.2780 C   0  0  0  0  0  0  0  0  0  0  0  0
  186.1130  178.8870  142.4670 C   0  0  0  0  0  3  0  0  0  0  0  0
  188.9250  176.0530  143.6320 C   0  0  2  0  0  3  0  0  0  0  0  0
  188.3500  177.8230  142.1110 C   0  0  0  0  0  3  0  0  0  0  0  0
  184.9690  178.6710  144.5950 C   0  0  0  0  0  0  0  0  0  0  0  0
  189.6400  174.2990  145.0700 O   0  0  0  0  0  0  0  0  0  0  0  0
  190.1230  175.2290  144.1230 C   0  0  1  0  0  3  0  0  0  0  0  0
  188.2870  176.0760  146.0330 C   0  0  0  0  0  0  0  0  0  0  0  0
  189.1970  176.8960  142.4640 N   0  0  0  0  0  0  0  0  0  0  0  0
  190.8740  172.7680  141.2860 C   0  0  0  0  0  0  0  0  0  0  0  0
  192.2080  173.2300  140.7670 C   0  0  0  0  0  2  0  0  0  0  0  0
  190.8010  174.5060  142.9980 C   0  0  0  0  0  0  0  0  0  0  0  0
  192.7630  174.4090  141.5240 C   0  0  0  0  0  3  0  0  0  0  0  0
  190.2150  173.4610  142.4010 C   0  0  0  0  0  3  0  0  0  0  0  0
  192.1160  174.9880  142.5400 C   0  0  0  0  0  3  0  0  0  0  0  0
  190.3120  171.7750  140.7540 O   0  0  0  0  0  0  0  0  0  0  0  0
  189.8080  174.6890  147.4720 C   0  0  0  0  0  2  0  0  0  0  0  0
  190.9600  175.6310  147.8000 C   0  0  0  0  0  2  0  0  0  0  0  0
  192.2520  175.1700  147.1460 C   0  0  0  0  0  2  0  0  0  0  0  0
  193.2190  176.2530  147.1280 N   0  0  0  0  0  2  0  0  0  0  0  0
  193.3720  177.3530  144.6390 O   0  0  0  0  0  1  0  0  0  0  0  0
  194.3140  175.8300  146.2680 C   0  0  2  0  0  3  0  0  0  0  0  0
  194.5750  176.8560  145.1480 C   0  0  1  0  0  3  0  0  0  0  0  0
  196.1820  175.0330  144.3980 C   0  0  0  0  0  2  0  0  0  0  0  0
  195.2280  173.9260  144.8670 C   0  0  0  0  0  2  0  0  0  0  0  0
  194.0390  174.4430  145.6910 C   0  0  0  0  0  2  0  0  0  0  0  0
  195.4060  176.2830  143.9890 C   0  0  0  0  0  2  0  0  0  0  0  0
  1  8  1  0  0  0  0
  3  8  1  6  0  0  0
  3 15  1  0  0  0  0
  4 24  1  0  0  0  0
  5 12  2  0  0  0  0
  8  2  2  0  0  0  0
  9  1  2  0  0  0  0
  9  5  1  0  0  0  0
 10 16  1  6  0  0  0
 10 14  1  0  0  0  0
 10  3  1  0  0  0  0
 11 16  2  0  0  0  0
 11  1  1  0  0  0  0
 12  2  1  0  0  0  0
 12  6  1  0  0  0  0
 13  4  1  0  0  0  0
 14 19  1  6  0  0  0
 14 13  1  0  0  0  0
 15  4  1  0  0  0  0
 15  7  2  0  0  0  0
 17 21  1  0  0  0  0
 18 17  1  0  0  0  0
 18 20  1  0  0  0  0
 20 22  2  0  0  0  0
 21 19  2  0  0  0  0
 22 19  1  0  0  0  0
 23 17  2  0  0  0  0
 24 25  1  0  0  0  0
 26 25  1  0  0  0  0
 27 26  1  0  0  0  0
 29 27  1  6  0  0  0
 30 28  1  6  0  0  0
 30 29  1  0  0  0  0
 31 32  1  0  0  0  0
 32 33  1  0  0  0  0
 33 29  1  0  0  0  0
 34 31  1  0  0  0  0
 34 30  1  0  0  0  0
M  END
>  <MODEL>
1

>  <REMARK>
 VINA RESULT:      -7.9      0.000      0.000
  Name = 
  6 active torsions:
  status: ('A' for Active; 'I' for Inactive)
    1  A    between atoms: N_3  and  C_13
    2  A    between atoms: N_3  and  C_17
    3  A    between atoms: N_5  and  C_18
    4  A    between atoms: C_12  and  C_28
    5  A    between atoms: C_17  and  C_29
    6  A    between atoms: C_18  and  C_29
                            x       y       z     vdW  Elec       q    Type
                         _______ _______ _______ _____ _____    ______ ____

>  <TORSDO>
F 6

$$$$
=
 OpenBabel11052418523D

 34 38  0  0  1  0  0  0  0  0999 V2000
  191.5910  171.9230  141.1880 C   0  0  0  0  0  0  0  0  0  0  0  0
  189.8780  171.8680  139.4650 C   0  0  0  0  0  3  0  0  0  0  0  0
  190.0570  173.8810  141.0400 C   0  0  2  0  0  3  0  0  0  0  0  0
  188.1380  175.4160  141.5300 N   0  0  0  0  0  0  0  0  0  0  0  0
  191.4910  170.0660  139.6390 C   0  0  0  0  0  3  0  0  0  0  0  0
  189.7430  169.9620  137.8570 C   0  0  0  0  0  1  0  0  0  0  0  0
  188.2000  174.1930  139.5270 O   0  0  0  0  0  0  0  0  0  0  0  0
  190.4680  172.5070  140.5630 C   0  0  0  0  0  0  0  0  0  0  0  0
  192.1000  170.7070  140.7230 C   0  0  0  0  0  3  0  0  0  0  0  0
  190.2290  173.9350  142.5590 C   0  0  2  0  0  3  0  0  0  0  0  0
  192.2290  172.6230  142.3270 C   0  0  0  0  0  3  0  0  0  0  0  0
  190.3800  170.6430  139.0140 C   0  0  0  0  0  0  0  0  0  0  0  0
  188.3330  175.3350  142.8800 O   0  0  0  0  0  0  0  0  0  0  0  0
  189.7280  175.2820  143.0990 C   0  0  1  0  0  3  0  0  0  0  0  0
  188.7100  174.4280  140.6550 C   0  0  0  0  0  0  0  0  0  0  0  0
  191.6080  173.6020  142.9260 N   0  0  0  0  0  0  0  0  0  0  0  0
  189.6040  174.9300  146.9110 C   0  0  0  0  0  0  0  0  0  0  0  0
  190.7480  175.7870  147.3780 C   0  0  0  0  0  2  0  0  0  0  0  0
  190.0210  175.4390  144.5610 C   0  0  0  0  0  0  0  0  0  0  0  0
  191.4760  176.4700  146.2490 C   0  0  0  0  0  3  0  0  0  0  0  0
  189.3000  174.7870  145.4810 C   0  0  0  0  0  3  0  0  0  0  0  0
  191.1420  176.3060  144.9660 C   0  0  0  0  0  3  0  0  0  0  0  0
  188.8990  174.3210  147.7580 O   0  0  0  0  0  0  0  0  0  0  0  0
  187.3640  176.5220  140.9830 C   0  0  0  0  0  2  0  0  0  0  0  0
  187.9850  177.8560  141.3770 C   0  0  0  0  0  2  0  0  0  0  0  0
  187.2790  178.4580  142.5810 C   0  0  0  0  0  2  0  0  0  0  0  0
  185.8990  178.0070  142.6300 N   0  0  0  0  0  2  0  0  0  0  0  0
  184.4660  179.6740  144.2420 O   0  0  0  0  0  1  0  0  0  0  0  0
  185.6430  177.5730  143.9950 C   0  0  2  0  0  3  0  0  0  0  0  0
  184.4450  178.3250  144.6060 C   0  0  1  0  0  3  0  0  0  0  0  0
  185.2080  177.0500  146.6700 C   0  0  0  0  0  2  0  0  0  0  0  0
  186.6840  177.1850  146.2730 C   0  0  0  0  0  2  0  0  0  0  0  0
  186.8940  177.7380  144.8550 C   0  0  0  0  0  2  0  0  0  0  0  0
  184.3910  178.2260  146.1390 C   0  0  0  0  0  2  0  0  0  0  0  0
  1 11  1  0  0  0  0
  2  8  1  0  0  0  0
  3  8  1  1  0  0  0
  3 10  1  0  0  0  0
  4 13  1  0  0  0  0
  5  9  2  0  0  0  0
  6 12  1  0  0  0  0
  7 15  2  0  0  0  0
  8  1  2  0  0  0  0
  9  1  1  0  0  0  0
 10 16  1  6  0  0  0
 10 14  1  0  0  0  0
 11 16  2  0  0  0  0
 12  2  2  0  0  0  0
 12  5  1  0  0  0  0
 13 14  1  0  0  0  0
 14 19  1  1  0  0  0
 15  3  1  0  0  0  0
 15  4  1  0  0  0  0
 17 18  1  0  0  0  0
 17 23  2  0  0  0  0
 19 22  1  0  0  0  0
 19 21  2  0  0  0  0
 20 18  1  0  0  0  0
 21 17  1  0  0  0  0
 22 20  2  0  0  0  0
 24 25  1  0  0  0  0
 24  4  1  0  0  0  0
 25 26  1  0  0  0  0
 26 27  1  0  0  0  0
 29 27  1  6  0  0  0
 29 30  1  0  0  0  0
 29 33  1  0  0  0  0
 30 28  1  1  0  0  0
 30 34  1  0  0  0  0
 32 31  1  0  0  0  0
 33 32  1  0  0  0  0
 34 31  1  0  0  0  0
M  END
>  <MODEL>
2

>  <REMARK>
 VINA RESULT:      -7.8      2.617      7.815
  Name = 
  6 active torsions:
  status: ('A' for Active; 'I' for Inactive)
    1  A    between atoms: N_3  and  C_13
    2  A    between atoms: N_3  and  C_17
    3  A    between atoms: N_5  and  C_18
    4  A    between atoms: C_12  and  C_28
    5  A    between atoms: C_17  and  C_29
    6  A    between atoms: C_18  and  C_29
                            x       y       z     vdW  Elec       q    Type
                         _______ _______ _______ _____ _____    ______ ____

>  <TORSDO>
F 6

$$$$
=
 OpenBabel11052418523D

 34 38  0  0  1  0  0  0  0  0999 V2000
  186.9830  177.9980  142.8610 C   0  0  0  0  0  0  0  0  0  0  0  0
  186.2940  178.1430  145.1870 C   0  0  0  0  0  3  0  0  0  0  0  0
  188.7010  177.4930  144.5950 C   0  0  2  0  0  3  0  0  0  0  0  0
  190.1890  176.1870  146.1310 N   0  0  0  0  0  0  0  0  0  0  0  0
  184.7380  178.7090  143.4170 C   0  0  0  0  0  3  0  0  0  0  0  0
  183.9820  178.8660  145.7920 C   0  0  0  0  0  1  0  0  0  0  0  0
  188.4160  177.4620  146.9930 O   0  0  0  0  0  0  0  0  0  0  0  0
  187.2760  177.8430  144.2340 C   0  0  0  0  0  0  0  0  0  0  0  0
  185.7180  178.4330  142.4570 C   0  0  0  0  0  3  0  0  0  0  0  0
  189.2300  176.4980  143.5610 C   0  0  2  0  0  3  0  0  0  0  0  0
  188.0390  177.7100  141.8620 C   0  0  0  0  0  3  0  0  0  0  0  0
  185.0240  178.5610  144.7780 C   0  0  0  0  0  0  0  0  0  0  0  0
  190.5390  175.3050  145.1480 O   0  0  0  0  0  0  0  0  0  0  0  0
  190.6440  176.0390  143.9450 C   0  0  1  0  0  3  0  0  0  0  0  0
  189.0170  177.0090  145.9830 C   0  0  0  0  0  0  0  0  0  0  0  0
  189.1130  177.0580  142.2110 N   0  0  0  0  0  0  0  0  0  0  0  0
  192.9550  174.7510  141.1750 C   0  0  0  0  0  0  0  0  0  0  0  0
  192.4040  173.3850  140.8690 C   0  0  0  0  0  2  0  0  0  0  0  0
  191.2610  175.1850  142.8790 C   0  0  0  0  0  0  0  0  0  0  0  0
  191.1890  173.0380  141.6880 C   0  0  0  0  0  3  0  0  0  0  0  0
  192.3410  175.5990  142.2060 C   0  0  0  0  0  3  0  0  0  0  0  0
  190.6730  173.8620  142.6050 C   0  0  0  0  0  3  0  0  0  0  0  0
  193.9580  175.1720  140.5430 O   0  0  0  0  0  0  0  0  0  0  0  0
  191.0220  176.3030  147.3210 C   0  0  0  0  0  2  0  0  0  0  0  0
  192.2400  175.3940  147.2100 C   0  0  0  0  0  2  0  0  0  0  0  0
  193.4690  176.1720  146.7670 C   0  0  0  0  0  2  0  0  0  0  0  0
  193.9170  175.7040  145.4670 N   0  0  0  0  0  2  0  0  0  0  0  0
  196.4100  175.3220  144.4340 O   0  0  0  0  0  1  0  0  0  0  0  0
  194.5440  174.4080  145.6750 C   0  0  2  0  0  3  0  0  0  0  0  0
  196.0730  174.4920  145.5060 C   0  0  1  0  0  3  0  0  0  0  0  0
  195.8420  171.9730  145.7740 C   0  0  0  0  0  2  0  0  0  0  0  0
  194.5090  171.9610  145.0130 C   0  0  0  0  0  2  0  0  0  0  0  0
  193.9430  173.3630  144.7380 C   0  0  0  0  0  2  0  0  0  0  0  0
  196.7320  173.1190  145.2970 C   0  0  0  0  0  2  0  0  0  0  0  0
  1  8  1  0  0  0  0
  3  8  1  1  0  0  0
  3 15  1  0  0  0  0
  4 24  1  0  0  0  0
  5 12  2  0  0  0  0
  8  2  2  0  0  0  0
  9  1  2  0  0  0  0
  9  5  1  0  0  0  0
 10 16  1  6  0  0  0
 10 14  1  0  0  0  0
 10  3  1  0  0  0  0
 11 16  2  0  0  0  0
 11  1  1  0  0  0  0
 12  2  1  0  0  0  0
 12  6  1  0  0  0  0
 13  4  1  0  0  0  0
 14 19  1  6  0  0  0
 14 13  1  0  0  0  0
 15  4  1  0  0  0  0
 15  7  2  0  0  0  0
 17 21  1  0  0  0  0
 18 17  1  0  0  0  0
 18 20  1  0  0  0  0
 20 22  2  0  0  0  0
 21 19  2  0  0  0  0
 22 19  1  0  0  0  0
 23 17  2  0  0  0  0
 25 24  1  0  0  0  0
 26 25  1  0  0  0  0
 27 26  1  0  0  0  0
 29 27  1  6  0  0  0
 30 28  1  6  0  0  0
 30 29  1  0  0  0  0
 32 31  1  0  0  0  0
 33 32  1  0  0  0  0
 33 29  1  0  0  0  0
 34 30  1  0  0  0  0
 34 31  1  0  0  0  0
M  END
>  <MODEL>
3

>  <REMARK>
 VINA RESULT:      -7.7      1.464      1.945
  Name = 
  6 active torsions:
  status: ('A' for Active; 'I' for Inactive)
    1  A    between atoms: N_3  and  C_13
    2  A    between atoms: N_3  and  C_17
    3  A    between atoms: N_5  and  C_18
    4  A    between atoms: C_12  and  C_28
    5  A    between atoms: C_17  and  C_29
    6  A    between atoms: C_18  and  C_29
                            x       y       z     vdW  Elec       q    Type
                         _______ _______ _______ _____ _____    ______ ____

>  <TORSDO>
F 6

$$$$
=
 OpenBabel11052418523D

 34 38  0  0  1  0  0  0  0  0999 V2000
  187.5270  177.2100  142.4820 C   0  0  0  0  0  0  0  0  0  0  0  0
  186.7680  178.1000  144.6110 C   0  0  0  0  0  3  0  0  0  0  0  0
  188.8220  176.5720  144.5140 C   0  0  2  0  0  3  0  0  0  0  0  0
  189.6310  175.2320  146.4710 N   0  0  0  0  0  0  0  0  0  0  0  0
  185.6480  178.7330  142.5570 C   0  0  0  0  0  3  0  0  0  0  0  0
  184.8270  179.6670  144.7220 C   0  0  0  0  0  1  0  0  0  0  0  0
  188.3710  177.1840  146.8070 O   0  0  0  0  0  0  0  0  0  0  0  0
  187.6450  177.2830  143.8870 C   0  0  0  0  0  0  0  0  0  0  0  0
  186.5330  177.9360  141.8210 C   0  0  0  0  0  3  0  0  0  0  0  0
  189.0360  175.2500  143.7750 C   0  0  2  0  0  3  0  0  0  0  0  0
  188.4810  176.3680  141.7210 C   0  0  0  0  0  3  0  0  0  0  0  0
  185.7630  178.8110  143.9490 C   0  0  0  0  0  0  0  0  0  0  0  0
  189.7150  174.0840  145.7330 O   0  0  0  0  0  0  0  0  0  0  0  0
  190.1610  174.4470  144.4430 C   0  0  1  0  0  3  0  0  0  0  0  0
  188.8430  176.3390  145.9990 C   0  0  0  0  0  0  0  0  0  0  0  0
  189.2250  175.4940  142.3420 N   0  0  0  0  0  0  0  0  0  0  0  0
  192.1240  171.6720  142.6780 C   0  0  0  0  0  0  0  0  0  0  0  0
  191.0480  170.7520  142.1700 C   0  0  0  0  0  2  0  0  0  0  0  0
  190.5100  173.2180  143.6590 C   0  0  0  0  0  0  0  0  0  0  0  0
  189.6570  171.2360  142.4860 C   0  0  0  0  0  3  0  0  0  0  0  0
  191.7870  172.8880  143.4310 C   0  0  0  0  0  3  0  0  0  0  0  0
  189.4180  172.3610  143.1670 C   0  0  0  0  0  3  0  0  0  0  0  0
  193.3320  171.3940  142.4600 O   0  0  0  0  0  0  0  0  0  0  0  0
  190.3620  175.3310  147.7270 C   0  0  0  0  0  2  0  0  0  0  0  0
  191.8510  175.1050  147.4970 C   0  0  0  0  0  2  0  0  0  0  0  0
  192.4890  176.2950  146.8000 C   0  0  0  0  0  2  0  0  0  0  0  0
  193.7570  175.9070  146.2050 N   0  0  0  0  0  2  0  0  0  0  0  0
  195.7980  176.6680  144.5670 O   0  0  0  0  0  1  0  0  0  0  0  0
  193.5410  175.8170  144.7690 C   0  0  2  0  0  3  0  0  0  0  0  0
  194.8780  175.7810  144.0030 C   0  0  1  0  0  3  0  0  0  0  0  0
  193.2890  175.9200  142.0220 C   0  0  0  0  0  2  0  0  0  0  0  0
  192.3260  176.8350  142.7900 C   0  0  0  0  0  2  0  0  0  0  0  0
  192.6600  176.9670  144.2840 C   0  0  0  0  0  2  0  0  0  0  0  0
  194.7250  176.1080  142.5100 C   0  0  0  0  0  2  0  0  0  0  0  0
  1  8  1  0  0  0  0
  3  8  1  6  0  0  0
  3 15  1  0  0  0  0
  4 24  1  0  0  0  0
  5 12  2  0  0  0  0
  8  2  2  0  0  0  0
  9  1  2  0  0  0  0
  9  5  1  0  0  0  0
 10 16  1  6  0  0  0
 10 14  1  0  0  0  0
 10  3  1  0  0  0  0
 11 16  2  0  0  0  0
 11  1  1  0  0  0  0
 12  2  1  0  0  0  0
 12  6  1  0  0  0  0
 13  4  1  0  0  0  0
 14 19  1  6  0  0  0
 14 13  1  0  0  0  0
 15  4  1  0  0  0  0
 15  7  2  0  0  0  0
 17 21  1  0  0  0  0
 18 20  1  0  0  0  0
 18 17  1  0  0  0  0
 20 22  2  0  0  0  0
 21 19  2  0  0  0  0
 22 19  1  0  0  0  0
 23 17  2  0  0  0  0
 25 24  1  0  0  0  0
 26 25  1  0  0  0  0
 27 26  1  0  0  0  0
 29 27  1  1  0  0  0
 30 28  1  1  0  0  0
 30 29  1  0  0  0  0
 31 34  1  0  0  0  0
 31 32  1  0  0  0  0
 32 33  1  0  0  0  0
 33 29  1  0  0  0  0
 34 30  1  0  0  0  0
M  END
>  <MODEL>
4

>  <REMARK>
 VINA RESULT:      -7.3      1.487      2.098
  Name = 
  6 active torsions:
  status: ('A' for Active; 'I' for Inactive)
    1  A    between atoms: N_3  and  C_13
    2  A    between atoms: N_3  and  C_17
    3  A    between atoms: N_5  and  C_18
    4  A    between atoms: C_12  and  C_28
    5  A    between atoms: C_17  and  C_29
    6  A    between atoms: C_18  and  C_29
                            x       y       z     vdW  Elec       q    Type
                         _______ _______ _______ _____ _____    ______ ____

>  <TORSDO>
F 6

$$$$
=
 OpenBabel11052418523D

 34 38  0  0  1  0  0  0  0  0999 V2000
  187.5020  177.4350  146.5500 C   0  0  0  0  0  0  0  0  0  0  0  0
  186.1200  177.6400  144.5620 C   0  0  0  0  0  3  0  0  0  0  0  0
  188.1710  176.1030  144.5520 C   0  0  2  0  0  3  0  0  0  0  0  0
  189.3750  175.4330  142.4590 N   0  0  0  0  0  0  0  0  0  0  0  0
  185.5100  178.8090  146.5960 C   0  0  0  0  0  3  0  0  0  0  0  0
  184.0630  179.0550  144.5750 C   0  0  0  0  0  1  0  0  0  0  0  0
  187.1160  176.0670  142.3790 O   0  0  0  0  0  0  0  0  0  0  0  0
  187.2540  177.1180  145.1960 C   0  0  0  0  0  0  0  0  0  0  0  0
  186.6290  178.2760  147.2450 C   0  0  0  0  0  3  0  0  0  0  0  0
  189.5940  176.3520  145.0540 C   0  0  2  0  0  3  0  0  0  0  0  0
  188.6870  176.8520  147.2220 C   0  0  0  0  0  3  0  0  0  0  0  0
  185.2580  178.4940  145.2560 C   0  0  0  0  0  0  0  0  0  0  0  0
  190.5960  175.7590  142.9800 O   0  0  0  0  0  0  0  0  0  0  0  0
  190.5750  175.4060  144.3480 C   0  0  1  0  0  3  0  0  0  0  0  0
  188.1720  175.9500  143.0560 C   0  0  0  0  0  0  0  0  0  0  0  0
  189.6330  176.2960  146.5180 N   0  0  0  0  0  0  0  0  0  0  0  0
  193.9780  176.7610  145.4680 C   0  0  0  0  0  0  0  0  0  0  0  0
  194.6200  175.5790  146.1420 C   0  0  0  0  0  2  0  0  0  0  0  0
  191.9560  175.5070  144.9220 C   0  0  0  0  0  0  0  0  0  0  0  0
  193.7620  174.3410  146.1110 C   0  0  0  0  0  3  0  0  0  0  0  0
  192.6330  176.6610  144.8870 C   0  0  0  0  0  3  0  0  0  0  0  0
  192.5470  174.3150  145.5550 C   0  0  0  0  0  3  0  0  0  0  0  0
  194.6020  177.8520  145.4040 O   0  0  0  0  0  0  0  0  0  0  0  0
  189.3010  174.5430  141.3080 C   0  0  0  0  0  2  0  0  0  0  0  0
  189.1160  173.1000  141.7600 C   0  0  0  0  0  2  0  0  0  0  0  0
  190.4420  172.4750  142.1630 C   0  0  0  0  0  2  0  0  0  0  0  0
  191.4240  172.6600  141.1090 N   0  0  0  0  0  2  0  0  0  0  0  0
  192.9840  174.1780  139.4680 O   0  0  0  0  0  1  0  0  0  0  0  0
  192.5590  173.3510  141.7030 C   0  0  2  0  0  3  0  0  0  0  0  0
  193.0230  174.5260  140.8210 C   0  0  1  0  0  3  0  0  0  0  0  0
  194.8710  174.5860  142.5670 C   0  0  0  0  0  2  0  0  0  0  0  0
  194.8720  173.0570  142.6960 C   0  0  0  0  0  2  0  0  0  0  0  0
  193.7030  172.3750  141.9680 C   0  0  0  0  0  2  0  0  0  0  0  0
  194.4380  175.0150  141.1660 C   0  0  0  0  0  2  0  0  0  0  0  0
  1 11  1  0  0  0  0
  1  9  1  0  0  0  0
  2  8  1  0  0  0  0
  2 12  2  0  0  0  0
  3 15  1  6  0  0  0
  3 10  1  0  0  0  0
  3  8  1  0  0  0  0
  4 13  1  0  0  0  0
  4 15  1  0  0  0  0
  5  9  2  0  0  0  0
  6 12  1  0  0  0  0
  7 15  2  0  0  0  0
  8  1  2  0  0  0  0
 10 16  1  1  0  0  0
 12  5  1  0  0  0  0
 13 14  1  0  0  0  0
 14 19  1  1  0  0  0
 14 10  1  0  0  0  0
 16 11  2  0  0  0  0
 17 18  1  0  0  0  0
 19 22  1  0  0  0  0
 20 18  1  0  0  0  0
 21 19  2  0  0  0  0
 21 17  1  0  0  0  0
 22 20  2  0  0  0  0
 23 17  2  0  0  0  0
 24 25  1  0  0  0  0
 24  4  1  0  0  0  0
 25 26  1  0  0  0  0
 27 26  1  0  0  0  0
 29 27  1  6  0  0  0
 29 33  1  0  0  0  0
 30 28  1  6  0  0  0
 30 34  1  0  0  0  0
 30 29  1  0  0  0  0
 31 32  1  0  0  0  0
 33 32  1  0  0  0  0
 34 31  1  0  0  0  0
M  END
>  <MODEL>
5

>  <REMARK>
 VINA RESULT:      -7.3      1.941      4.461
  Name = 
  6 active torsions:
  status: ('A' for Active; 'I' for Inactive)
    1  A    between atoms: N_3  and  C_13
    2  A    between atoms: N_3  and  C_17
    3  A    between atoms: N_5  and  C_18
    4  A    between atoms: C_12  and  C_28
    5  A    between atoms: C_17  and  C_29
    6  A    between atoms: C_18  and  C_29
                            x       y       z     vdW  Elec       q    Type
                         _______ _______ _______ _____ _____    ______ ____

>  <TORSDO>
F 6

$$$$
=
 OpenBabel11052418523D

 34 38  0  0  1  0  0  0  0  0999 V2000
  187.0660  177.7560  145.2690 C   0  0  0  0  0  0  0  0  0  0  0  0
  186.0350  177.1760  143.1460 C   0  0  0  0  0  3  0  0  0  0  0  0
  188.1410  175.9470  143.9340 C   0  0  2  0  0  3  0  0  0  0  0  0
  189.7220  174.7900  142.3710 N   0  0  0  0  0  0  0  0  0  0  0  0
  185.0210  178.8490  144.5770 C   0  0  0  0  0  3  0  0  0  0  0  0
  183.9290  178.2910  142.4010 C   0  0  0  0  0  1  0  0  0  0  0  0
  187.4770  175.1170  141.7650 O   0  0  0  0  0  0  0  0  0  0  0  0
  187.0720  177.0060  144.0730 C   0  0  0  0  0  0  0  0  0  0  0  0
  186.0400  178.6730  145.5190 C   0  0  0  0  0  3  0  0  0  0  0  0
  189.4410  176.4940  144.5260 C   0  0  2  0  0  3  0  0  0  0  0  0
  188.1490  177.5460  146.2580 C   0  0  0  0  0  3  0  0  0  0  0  0
  185.0200  178.1050  143.3920 C   0  0  0  0  0  0  0  0  0  0  0  0
  190.8150  175.3940  142.9260 O   0  0  0  0  0  0  0  0  0  0  0  0
  190.5810  175.4870  144.3170 C   0  0  1  0  0  3  0  0  0  0  0  0
  188.4070  175.3330  142.5870 C   0  0  0  0  0  0  0  0  0  0  0  0
  189.2330  176.9040  145.9180 N   0  0  0  0  0  0  0  0  0  0  0  0
  194.1440  176.7060  145.0160 C   0  0  0  0  0  0  0  0  0  0  0  0
  194.1960  176.7890  146.5170 C   0  0  0  0  0  2  0  0  0  0  0  0
  191.8360  175.9130  145.0180 C   0  0  0  0  0  0  0  0  0  0  0  0
  192.9140  176.3560  147.1800 C   0  0  0  0  0  3  0  0  0  0  0  0
  192.9230  176.2710  144.3250 C   0  0  0  0  0  3  0  0  0  0  0  0
  191.8400  175.9590  146.4910 C   0  0  0  0  0  3  0  0  0  0  0  0
  195.1600  177.0190  144.3420 O   0  0  0  0  0  0  0  0  0  0  0  0
  189.8970  173.5820  141.5770 C   0  0  0  0  0  2  0  0  0  0  0  0
  189.6990  172.3420  142.4400 C   0  0  0  0  0  2  0  0  0  0  0  0
  191.0210  171.8470  143.0030 C   0  0  0  0  0  2  0  0  0  0  0  0
  192.1270  172.3670  142.2180 N   0  0  0  0  0  2  0  0  0  0  0  0
  194.3420  170.7840  142.3410 O   0  0  0  0  0  1  0  0  0  0  0  0
  193.1750  172.7410  143.1560 C   0  0  2  0  0  3  0  0  0  0  0  0
  194.5230  172.1000  142.7750 C   0  0  1  0  0  3  0  0  0  0  0  0
  195.1930  173.1410  144.9970 C   0  0  0  0  0  2  0  0  0  0  0  0
  193.8140  172.8570  145.6060 C   0  0  0  0  0  2  0  0  0  0  0  0
  192.7740  172.3740  144.5830 C   0  0  0  0  0  2  0  0  0  0  0  0
  195.5390  172.1070  143.9270 C   0  0  0  0  0  2  0  0  0  0  0  0
  1  9  1  0  0  0  0
  1 11  1  0  0  0  0
  2 12  2  0  0  0  0
  2  8  1  0  0  0  0
  3 15  1  6  0  0  0
  3  8  1  0  0  0  0
  3 10  1  0  0  0  0
  4 15  1  0  0  0  0
  4 13  1  0  0  0  0
  5  9  2  0  0  0  0
  6 12  1  0  0  0  0
  7 15  2  0  0  0  0
  8  1  2  0  0  0  0
 10 16  1  1  0  0  0
 12  5  1  0  0  0  0
 13 14  1  0  0  0  0
 14 10  1  0  0  0  0
 14 19  1  1  0  0  0
 16 11  2  0  0  0  0
 17 18  1  0  0  0  0
 18 20  1  0  0  0  0
 19 22  1  0  0  0  0
 21 17  1  0  0  0  0
 21 19  2  0  0  0  0
 22 20  2  0  0  0  0
 23 17  2  0  0  0  0
 24  4  1  0  0  0  0
 24 25  1  0  0  0  0
 25 26  1  0  0  0  0
 27 26  1  0  0  0  0
 29 27  1  6  0  0  0
 29 33  1  0  0  0  0
 30 28  1  1  0  0  0
 30 29  1  0  0  0  0
 30 34  1  0  0  0  0
 31 32  1  0  0  0  0
 33 32  1  0  0  0  0
 34 31  1  0  0  0  0
M  END
>  <MODEL>
6

>  <REMARK>
 VINA RESULT:      -7.3      2.090      4.338
  Name = 
  6 active torsions:
  status: ('A' for Active; 'I' for Inactive)
    1  A    between atoms: N_3  and  C_13
    2  A    between atoms: N_3  and  C_17
    3  A    between atoms: N_5  and  C_18
    4  A    between atoms: C_12  and  C_28
    5  A    between atoms: C_17  and  C_29
    6  A    between atoms: C_18  and  C_29
                            x       y       z     vdW  Elec       q    Type
                         _______ _______ _______ _____ _____    ______ ____

>  <TORSDO>
F 6

$$$$
=
 OpenBabel11052418523D

 34 38  0  0  1  0  0  0  0  0999 V2000
  187.4460  177.4310  146.1980 C   0  0  0  0  0  0  0  0  0  0  0  0
  186.0350  177.6000  144.2270 C   0  0  0  0  0  3  0  0  0  0  0  0
  188.0670  176.0390  144.2270 C   0  0  2  0  0  3  0  0  0  0  0  0
  189.2290  175.2990  142.1340 N   0  0  0  0  0  0  0  0  0  0  0  0
  185.4710  178.8300  146.2390 C   0  0  0  0  0  3  0  0  0  0  0  0
  183.9960  179.0410  144.2350 C   0  0  0  0  0  1  0  0  0  0  0  0
  186.9770  175.9580  142.0720 O   0  0  0  0  0  0  0  0  0  0  0  0
  187.1730  177.0820  144.8580 C   0  0  0  0  0  0  0  0  0  0  0  0
  186.5940  178.3010  146.8850 C   0  0  0  0  0  3  0  0  0  0  0  0
  189.5000  176.2830  144.6990 C   0  0  2  0  0  3  0  0  0  0  0  0
  188.6340  176.8510  146.8680 C   0  0  0  0  0  3  0  0  0  0  0  0
  185.1950  178.4840  144.9120 C   0  0  0  0  0  0  0  0  0  0  0  0
  190.4620  175.6230  142.6270 O   0  0  0  0  0  0  0  0  0  0  0  0
  190.4590  175.3060  144.0040 C   0  0  1  0  0  3  0  0  0  0  0  0
  188.0430  175.8460  142.7360 C   0  0  0  0  0  0  0  0  0  0  0  0
  189.5620  176.2640  146.1640 N   0  0  0  0  0  0  0  0  0  0  0  0
  194.2120  175.9890  144.3520 C   0  0  0  0  0  0  0  0  0  0  0  0
  194.5050  175.6080  145.7770 C   0  0  0  0  0  2  0  0  0  0  0  0
  191.8500  175.4050  144.5540 C   0  0  0  0  0  0  0  0  0  0  0  0
  193.2970  175.0890  146.5130 C   0  0  0  0  0  3  0  0  0  0  0  0
  192.8540  175.8760  143.8030 C   0  0  0  0  0  3  0  0  0  0  0  0
  192.0880  175.0010  145.9500 C   0  0  0  0  0  3  0  0  0  0  0  0
  195.1420  176.4170  143.6200 O   0  0  0  0  0  0  0  0  0  0  0  0
  189.1270  174.3800  141.0090 C   0  0  0  0  0  2  0  0  0  0  0  0
  188.9960  172.9440  141.5020 C   0  0  0  0  0  2  0  0  0  0  0  0
  190.1900  172.1050  141.0770 C   0  0  0  0  0  2  0  0  0  0  0  0
  190.4580  171.0760  142.0680 N   0  0  0  0  0  2  0  0  0  0  0  0
  190.8000  171.9170  144.6380 O   0  0  0  0  0  1  0  0  0  0  0  0
  191.8200  171.2830  142.5360 C   0  0  2  0  0  3  0  0  0  0  0  0
  191.8930  171.2530  144.0750 C   0  0  1  0  0  3  0  0  0  0  0  0
  194.2940  171.9290  143.5760 C   0  0  0  0  0  2  0  0  0  0  0  0
  193.8610  172.7760  142.3720 C   0  0  0  0  0  2  0  0  0  0  0  0
  192.3870  172.5880  141.9820 C   0  0  0  0  0  2  0  0  0  0  0  0
  193.1870  171.8710  144.6270 C   0  0  0  0  0  2  0  0  0  0  0  0
  1 11  1  0  0  0  0
  1  9  1  0  0  0  0
  2  8  1  0  0  0  0
  2 12  2  0  0  0  0
  3 15  1  6  0  0  0
  3 10  1  0  0  0  0
  3  8  1  0  0  0  0
  4 13  1  0  0  0  0
  4 15  1  0  0  0  0
  5  9  2  0  0  0  0
  6 12  1  0  0  0  0
  7 15  2  0  0  0  0
  8  1  2  0  0  0  0
 10 16  1  1  0  0  0
 12  5  1  0  0  0  0
 13 14  1  0  0  0  0
 14 19  1  1  0  0  0
 14 10  1  0  0  0  0
 16 11  2  0  0  0  0
 17 18  1  0  0  0  0
 18 20  1  0  0  0  0
 19 22  1  0  0  0  0
 21 17  1  0  0  0  0
 21 19  2  0  0  0  0
 22 20  2  0  0  0  0
 23 17  2  0  0  0  0
 24 25  1  0  0  0  0
 24  4  1  0  0  0  0
 26 25  1  0  0  0  0
 26 27  1  0  0  0  0
 29 27  1  1  0  0  0
 29 30  1  0  0  0  0
 30 34  1  0  0  0  0
 30 28  1  1  0  0  0
 31 34  1  0  0  0  0
 32 31  1  0  0  0  0
 33 32  1  0  0  0  0
 33 29  1  0  0  0  0
M  END
>  <MODEL>
7

>  <REMARK>
 VINA RESULT:      -7.3      2.101      4.568
  Name = 
  6 active torsions:
  status: ('A' for Active; 'I' for Inactive)
    1  A    between atoms: N_3  and  C_13
    2  A    between atoms: N_3  and  C_17
    3  A    between atoms: N_5  and  C_18
    4  A    between atoms: C_12  and  C_28
    5  A    between atoms: C_17  and  C_29
    6  A    between atoms: C_18  and  C_29
                            x       y       z     vdW  Elec       q    Type
                         _______ _______ _______ _____ _____    ______ ____

>  <TORSDO>
F 6

$$$$
=
 OpenBabel11052418523D

 34 38  0  0  1  0  0  0  0  0999 V2000
  187.0500  177.1470  146.3470 C   0  0  0  0  0  0  0  0  0  0  0  0
  185.7180  177.5610  144.3580 C   0  0  0  0  0  3  0  0  0  0  0  0
  187.7180  175.9620  144.2580 C   0  0  2  0  0  3  0  0  0  0  0  0
  188.9430  175.4260  142.1400 N   0  0  0  0  0  0  0  0  0  0  0  0
  185.1030  178.5780  146.4700 C   0  0  0  0  0  3  0  0  0  0  0  0
  183.7070  179.0390  144.4510 C   0  0  0  0  0  1  0  0  0  0  0  0
  186.7080  176.1400  142.0710 O   0  0  0  0  0  0  0  0  0  0  0  0
  186.8210  176.9510  144.9680 C   0  0  0  0  0  0  0  0  0  0  0  0
  186.1900  177.9570  147.0940 C   0  0  0  0  0  3  0  0  0  0  0  0
  189.1370  176.1210  144.8050 C   0  0  2  0  0  3  0  0  0  0  0  0
  188.2020  176.4710  146.9900 C   0  0  0  0  0  3  0  0  0  0  0  0
  184.8690  178.3840  145.1050 C   0  0  0  0  0  0  0  0  0  0  0  0
  190.1630  175.6670  142.7070 O   0  0  0  0  0  0  0  0  0  0  0  0
  190.1020  175.2030  144.0410 C   0  0  1  0  0  3  0  0  0  0  0  0
  187.7460  175.9320  142.7550 C   0  0  0  0  0  0  0  0  0  0  0  0
  189.1440  175.9430  146.2590 N   0  0  0  0  0  0  0  0  0  0  0  0
  193.5160  176.3490  145.3470 C   0  0  0  0  0  0  0  0  0  0  0  0
  194.1130  175.0900  145.9140 C   0  0  0  0  0  2  0  0  0  0  0  0
  191.4740  175.2100  144.6460 C   0  0  0  0  0  0  0  0  0  0  0  0
  193.2240  173.8850  145.7480 C   0  0  0  0  0  3  0  0  0  0  0  0
  192.1800  176.3430  144.7350 C   0  0  0  0  0  3  0  0  0  0  0  0
  192.0200  173.9460  145.1700 C   0  0  0  0  0  3  0  0  0  0  0  0
  194.1680  177.4240  145.4010 O   0  0  0  0  0  0  0  0  0  0  0  0
  188.8650  174.6370  140.9180 C   0  0  0  0  0  2  0  0  0  0  0  0
  188.6540  173.1640  141.2460 C   0  0  0  0  0  2  0  0  0  0  0  0
  189.6840  172.2910  140.5480 C   0  0  0  0  0  2  0  0  0  0  0  0
  190.3530  173.0450  139.5010 N   0  0  0  0  0  2  0  0  0  0  0  0
  188.6760  173.6020  137.4250 O   0  0  0  0  0  1  0  0  0  0  0  0
  190.4150  172.1820  138.3310 C   0  0  2  0  0  3  0  0  0  0  0  0
  189.8230  172.8780  137.0900 C   0  0  1  0  0  3  0  0  0  0  0  0
  190.2170  170.5690  136.0990 C   0  0  0  0  0  2  0  0  0  0  0  0
  189.8590  169.8810  137.4240 C   0  0  0  0  0  2  0  0  0  0  0  0
  189.7130  170.8540  138.6050 C   0  0  0  0  0  2  0  0  0  0  0  0
  189.4780  171.8980  135.9580 C   0  0  0  0  0  2  0  0  0  0  0  0
  1 11  1  0  0  0  0
  1  9  1  0  0  0  0
  2  8  1  0  0  0  0
  2 12  2  0  0  0  0
  3 15  1  6  0  0  0
  3 10  1  0  0  0  0
  3  8  1  0  0  0  0
  4 13  1  0  0  0  0
  4 15  1  0  0  0  0
  5  9  2  0  0  0  0
  6 12  1  0  0  0  0
  7 15  2  0  0  0  0
  8  1  2  0  0  0  0
 10 16  1  1  0  0  0
 12  5  1  0  0  0  0
 13 14  1  0  0  0  0
 14 19  1  1  0  0  0
 14 10  1  0  0  0  0
 16 11  2  0  0  0  0
 17 23  2  0  0  0  0
 17 18  1  0  0  0  0
 19 21  2  0  0  0  0
 19 22  1  0  0  0  0
 20 18  1  0  0  0  0
 21 17  1  0  0  0  0
 22 20  2  0  0  0  0
 24 25  1  0  0  0  0
 24  4  1  0  0  0  0
 26 25  1  0  0  0  0
 27 26  1  0  0  0  0
 29 33  1  0  0  0  0
 29 27  1  1  0  0  0
 30 28  1  1  0  0  0
 30 29  1  0  0  0  0
 31 32  1  0  0  0  0
 32 33  1  0  0  0  0
 34 31  1  0  0  0  0
 34 30  1  0  0  0  0
M  END
>  <MODEL>
8

>  <REMARK>
 VINA RESULT:      -7.2      2.704      6.137
  Name = 
  6 active torsions:
  status: ('A' for Active; 'I' for Inactive)
    1  A    between atoms: N_3  and  C_13
    2  A    between atoms: N_3  and  C_17
    3  A    between atoms: N_5  and  C_18
    4  A    between atoms: C_12  and  C_28
    5  A    between atoms: C_17  and  C_29
    6  A    between atoms: C_18  and  C_29
                            x       y       z     vdW  Elec       q    Type
                         _______ _______ _______ _____ _____    ______ ____

>  <TORSDO>
F 6

$$$$
=
 OpenBabel11052418523D

 34 38  0  0  1  0  0  0  0  0999 V2000
  188.7110  174.2960  141.3850 C   0  0  0  0  0  0  0  0  0  0  0  0
  191.0890  173.9990  141.7870 C   0  0  0  0  0  3  0  0  0  0  0  0
  189.5370  174.7030  143.7010 C   0  0  2  0  0  3  0  0  0  0  0  0
  190.3360  175.9190  145.7410 N   0  0  0  0  0  0  0  0  0  0  0  0
  190.1550  173.5340  139.5990 C   0  0  0  0  0  3  0  0  0  0  0  0
  192.6070  173.2220  139.9630 C   0  0  0  0  0  1  0  0  0  0  0  0
  191.8130  174.5790  144.5020 O   0  0  0  0  0  0  0  0  0  0  0  0
  189.8210  174.3660  142.2550 C   0  0  0  0  0  0  0  0  0  0  0  0
  188.8810  173.8780  140.0620 C   0  0  0  0  0  3  0  0  0  0  0  0
  188.4380  175.7650  143.7420 C   0  0  2  0  0  3  0  0  0  0  0  0
  187.3680  174.6540  141.8990 C   0  0  0  0  0  3  0  0  0  0  0  0
  191.2570  173.5980  140.4590 C   0  0  0  0  0  0  0  0  0  0  0  0
  189.3550  176.8650  145.6410 O   0  0  0  0  0  0  0  0  0  0  0  0
  188.1870  176.2090  145.1900 C   0  0  1  0  0  3  0  0  0  0  0  0
  190.6700  175.1000  144.6060 C   0  0  0  0  0  0  0  0  0  0  0  0
  187.2470  175.2910  143.0310 N   0  0  0  0  0  0  0  0  0  0  0  0
  185.7690  179.1260  144.6260 C   0  0  0  0  0  0  0  0  0  0  0  0
  184.6240  178.8130  145.5490 C   0  0  0  0  0  2  0  0  0  0  0  0
  187.0110  177.1330  145.2930 C   0  0  0  0  0  0  0  0  0  0  0  0
  184.8340  177.5540  146.3490 C   0  0  0  0  0  3  0  0  0  0  0  0
  186.9330  178.2340  144.5360 C   0  0  0  0  0  3  0  0  0  0  0  0
  185.9240  176.7910  146.2260 C   0  0  0  0  0  3  0  0  0  0  0  0
  185.7290  180.1660  143.9170 O   0  0  0  0  0  0  0  0  0  0  0  0
  191.0270  175.7350  147.0100 C   0  0  0  0  0  2  0  0  0  0  0  0
  192.1110  176.7910  147.1860 C   0  0  0  0  0  2  0  0  0  0  0  0
  193.4890  176.2220  146.8880 C   0  0  0  0  0  2  0  0  0  0  0  0
  194.0510  176.8620  145.7100 N   0  0  0  0  0  2  0  0  0  0  0  0
  194.3280  176.0410  143.1260 O   0  0  0  0  0  1  0  0  0  0  0  0
  195.2550  176.1230  145.3610 C   0  0  2  0  0  3  0  0  0  0  0  0
  195.5200  176.1710  143.8440 C   0  0  1  0  0  3  0  0  0  0  0  0
  197.3530  174.5410  144.5160 C   0  0  0  0  0  2  0  0  0  0  0  0
  196.4690  173.9110  145.6000 C   0  0  0  0  0  2  0  0  0  0  0  0
  195.1650  174.6820  145.8590 C   0  0  0  0  0  2  0  0  0  0  0  0
  196.5040  175.0890  143.3710 C   0  0  0  0  0  2  0  0  0  0  0  0
  1 11  1  0  0  0  0
  1  8  1  0  0  0  0
  2  8  2  0  0  0  0
  3  8  1  6  0  0  0
  3 10  1  0  0  0  0
  3 15  1  0  0  0  0
  4 24  1  0  0  0  0
  5  9  1  0  0  0  0
  5 12  2  0  0  0  0
  6 12  1  0  0  0  0
  7 15  2  0  0  0  0
  9  1  2  0  0  0  0
 10 16  1  1  0  0  0
 10 14  1  0  0  0  0
 11 16  2  0  0  0  0
 12  2  1  0  0  0  0
 13  4  1  0  0  0  0
 14 19  1  6  0  0  0
 14 13  1  0  0  0  0
 15  4  1  0  0  0  0
 17 18  1  0  0  0  0
 18 20  1  0  0  0  0
 19 22  1  0  0  0  0
 21 17  1  0  0  0  0
 21 19  2  0  0  0  0
 22 20  2  0  0  0  0
 23 17  2  0  0  0  0
 24 25  1  0  0  0  0
 26 25  1  0  0  0  0
 27 26  1  0  0  0  0
 29 27  1  6  0  0  0
 29 33  1  0  0  0  0
 30 28  1  6  0  0  0
 30 29  1  0  0  0  0
 31 32  1  0  0  0  0
 32 33  1  0  0  0  0
 34 30  1  0  0  0  0
 34 31  1  0  0  0  0
M  END
>  <MODEL>
9

>  <REMARK>
 VINA RESULT:      -7.2      1.747      5.529
  Name = 
  6 active torsions:
  status: ('A' for Active; 'I' for Inactive)
    1  A    between atoms: N_3  and  C_13
    2  A    between atoms: N_3  and  C_17
    3  A    between atoms: N_5  and  C_18
    4  A    between atoms: C_12  and  C_28
    5  A    between atoms: C_17  and  C_29
    6  A    between atoms: C_18  and  C_29
                            x       y       z     vdW  Elec       q    Type
                         _______ _______ _______ _____ _____    ______ ____

>  <TORSDO>
F 6

$$$$
