=
 OpenBabel11052418043D

 28 31  0  0  1  0  0  0  0  0999 V2000
  190.4330  175.0650  145.0800 C   0  0  1  0  0  3  0  0  0  0  0  0
  191.5410  175.2220  144.1970 O   0  0  0  0  0  0  0  0  0  0  0  0
  191.4610  175.9530  143.0160 C   0  0  0  0  0  0  0  0  0  0  0  0
  190.8730  177.9390  148.9340 C   0  0  0  0  0  1  0  0  0  0  0  0
  192.3430  175.8080  142.1310 O   0  0  0  0  0  0  0  0  0  0  0  0
  190.1410  177.8520  144.3880 S   0  0  0  0  0  0  0  0  0  0  0  0
  190.3750  176.9470  142.8230 C   0  0  2  0  0  3  0  0  0  0  0  0
  190.3250  176.6250  146.8880 C   0  0  0  0  0  0  0  0  0  0  0  0
  190.9200  175.3760  147.3090 C   0  0  0  0  0  0  0  0  0  0  0  0
  190.2880  177.7750  147.5730 C   0  0  0  0  0  3  0  0  0  0  0  0
  191.3840  175.1240  148.4520 O   0  0  0  0  0  0  0  0  0  0  0  0
  190.9040  174.4640  146.2810 O   0  0  0  0  0  0  0  0  0  0  0  0
  189.7550  176.4120  145.5030 C   0  0  2  0  0  0  0  0  0  0  0  0
  189.0810  176.3120  142.3320 C   0  0  0  0  0  3  0  0  0  0  0  0
  188.5100  177.1280  141.3730 F   0  0  0  0  0  0  0  0  0  0  0  0
  189.3360  175.0760  141.7660 F   0  0  0  0  0  0  0  0  0  0  0  0
  188.3580  176.1470  145.5580 O   0  0  0  0  0  0  0  0  0  0  0  0
  186.3250  176.5710  143.7450 C   0  0  0  0  0  2  0  0  0  0  0  0
  185.2350  178.0830  145.3580 C   0  0  2  0  0  3  0  0  0  0  0  0
  187.6310  177.3130  145.8720 C   0  0  1  0  0  3  0  0  0  0  0  0
  184.4250  177.9890  142.9920 C   0  0  0  0  0  0  0  0  0  0  0  0
  186.5920  177.6690  144.7790 C   0  0  1  0  0  3  0  0  0  0  0  0
  186.2580  178.4950  147.6310 C   0  0  0  0  0  2  0  0  0  0  0  0
  184.3900  178.6020  144.2900 N   0  0  0  0  0  2  0  0  0  0  0  0
  185.4100  179.0860  146.4900 C   0  0  0  0  0  2  0  0  0  0  0  0
  183.3290  178.5370  141.7430 Cl  0  0  0  0  0  0  0  0  0  0  0  0
  185.3510  177.0640  142.7030 C   0  0  0  0  0  3  0  0  0  0  0  0
  186.9840  177.1940  147.2570 C   0  0  0  0  0  2  0  0  0  0  0  0
  1  2  1  6  0  0  0
  1 13  1  0  0  0  0
  1 12  1  0  0  0  0
  3  2  1  0  0  0  0
  5  3  2  0  0  0  0
  6 13  1  0  0  0  0
  7 14  1  1  0  0  0
  7  3  1  0  0  0  0
  7  6  1  0  0  0  0
  8  9  1  0  0  0  0
  8 10  2  0  0  0  0
  9 11  2  0  0  0  0
 10  4  1  0  0  0  0
 12  9  1  0  0  0  0
 13 17  1  1  0  0  0
 13  8  1  0  0  0  0
 15 14  1  0  0  0  0
 16 14  1  0  0  0  0
 19 25  1  1  0  0  0
 20 17  1  6  0  0  0
 20 28  1  0  0  0  0
 21 24  1  0  0  0  0
 22 18  1  6  0  0  0
 22 19  1  0  0  0  0
 22 20  1  0  0  0  0
 24 19  1  0  0  0  0
 25 23  1  0  0  0  0
 26 21  1  0  0  0  0
 27 21  2  0  0  0  0
 27 18  1  0  0  0  0
 28 23  1  0  0  0  0
M  END
>  <MODEL>
1

>  <REMARK>
 VINA RESULT:      -7.6      0.000      0.000
  Name = 
  3 active torsions:
  status: ('A' for Active; 'I' for Inactive)
    1  A    between atoms: C_6  and  C_11
    2  A    between atoms: C_10  and  O_17
    3  A    between atoms: O_17  and  C_27
                            x       y       z     vdW  Elec       q    Type
                         _______ _______ _______ _____ _____    ______ ____

>  <TORSDO>
F 3

$$$$
=
 OpenBabel11052418043D

 28 31  0  0  1  0  0  0  0  0999 V2000
  191.8710  175.3570  143.3830 C   0  0  1  0  0  3  0  0  0  0  0  0
  192.7230  174.4740  144.1080 O   0  0  0  0  0  0  0  0  0  0  0  0
  192.7180  174.4000  145.4970 C   0  0  0  0  0  0  0  0  0  0  0  0
  188.1460  172.9680  141.4530 C   0  0  0  0  0  1  0  0  0  0  0  0
  193.6800  173.8540  146.0960 O   0  0  0  0  0  0  0  0  0  0  0  0
  190.0310  174.4150  145.3980 S   0  0  0  0  0  0  0  0  0  0  0  0
  191.5540  174.9050  146.2700 C   0  0  2  0  0  3  0  0  0  0  0  0
  189.8140  174.4090  142.6150 C   0  0  0  0  0  0  0  0  0  0  0  0
  190.8140  174.4100  141.5690 C   0  0  0  0  0  0  0  0  0  0  0  0
  188.6310  173.7830  142.6020 C   0  0  0  0  0  3  0  0  0  0  0  0
  190.6760  173.9340  140.4120 O   0  0  0  0  0  0  0  0  0  0  0  0
  191.9630  175.0280  142.0010 O   0  0  0  0  0  0  0  0  0  0  0  0
  190.3550  175.2380  143.7590 C   0  0  2  0  0  0  0  0  0  0  0  0
  191.6190  176.4070  146.5090 C   0  0  0  0  0  3  0  0  0  0  0  0
  190.5060  176.8000  147.2280 F   0  0  0  0  0  0  0  0  0  0  0  0
  192.7520  176.7310  147.2320 F   0  0  0  0  0  0  0  0  0  0  0  0
  189.8370  176.5620  143.7230 O   0  0  0  0  0  0  0  0  0  0  0  0
  187.8340  177.4470  145.3980 C   0  0  0  0  0  2  0  0  0  0  0  0
  186.4460  177.9600  143.4270 C   0  0  2  0  0  3  0  0  0  0  0  0
  188.5970  176.6070  143.0550 C   0  0  1  0  0  3  0  0  0  0  0  0
  185.4270  177.9910  145.7120 C   0  0  0  0  0  0  0  0  0  0  0  0
  187.4250  176.9380  144.0130 C   0  0  1  0  0  3  0  0  0  0  0  0
  187.3270  177.5620  141.0920 C   0  0  0  0  0  2  0  0  0  0  0  0
  185.2730  178.0560  144.2860 N   0  0  0  0  0  0  0  0  0  0  0  0
  186.0790  177.6010  141.9930 C   0  0  0  0  0  2  0  0  0  0  0  0
  184.0360  178.2220  146.7470 Cl  0  0  0  0  0  0  0  0  0  0  0  0
  186.6100  177.6680  146.2530 C   0  0  0  0  0  2  0  0  0  0  0  0
  188.6540  177.5740  141.8670 C   0  0  0  0  0  2  0  0  0  0  0  0
  1 12  1  6  0  0  0
  1 13  1  0  0  0  0
  1  2  1  0  0  0  0
  2  3  1  0  0  0  0
  3  5  2  0  0  0  0
  3  7  1  0  0  0  0
  4 10  1  0  0  0  0
  6  7  1  0  0  0  0
  7 14  1  6  0  0  0
  8 13  1  0  0  0  0
  9 12  1  0  0  0  0
  9  8  1  0  0  0  0
 10  8  2  0  0  0  0
 11  9  2  0  0  0  0
 13 17  1  6  0  0  0
 13  6  1  0  0  0  0
 14 15  1  0  0  0  0
 14 16  1  0  0  0  0
 18 27  1  0  0  0  0
 19 25  1  6  0  0  0
 19 22  1  0  0  0  0
 19 24  1  0  0  0  0
 20 17  1  1  0  0  0
 20 22  1  0  0  0  0
 21 27  1  0  0  0  0
 21 26  1  0  0  0  0
 22 18  1  1  0  0  0
 23 28  1  0  0  0  0
 23 25  1  0  0  0  0
 24 21  2  0  0  0  0
 28 20  1  0  0  0  0
M  END
>  <MODEL>
2

>  <REMARK>
 VINA RESULT:      -7.4      2.666      4.753
  Name = 
  3 active torsions:
  status: ('A' for Active; 'I' for Inactive)
    1  A    between atoms: C_6  and  C_11
    2  A    between atoms: C_10  and  O_17
    3  A    between atoms: O_17  and  C_27
                            x       y       z     vdW  Elec       q    Type
                         _______ _______ _______ _____ _____    ______ ____

>  <TORSDO>
F 3

$$$$
=
 OpenBabel11052418043D

 28 31  0  0  1  0  0  0  0  0999 V2000
  192.8640  175.7450  143.3690 C   0  0  1  0  0  3  0  0  0  0  0  0
  194.1900  175.2230  143.3560 O   0  0  0  0  0  0  0  0  0  0  0  0
  195.0710  175.3880  144.4200 C   0  0  0  0  0  0  0  0  0  0  0  0
  189.6420  172.2570  144.2410 C   0  0  0  0  0  1  0  0  0  0  0  0
  196.3010  175.1930  144.2480 O   0  0  0  0  0  0  0  0  0  0  0  0
  193.0480  174.7560  146.0750 S   0  0  0  0  0  0  0  0  0  0  0  0
  194.5580  175.7300  145.7710 C   0  0  2  0  0  3  0  0  0  0  0  0
  191.1630  174.2250  144.0860 C   0  0  0  0  0  0  0  0  0  0  0  0
  191.2400  174.2820  142.6420 C   0  0  0  0  0  0  0  0  0  0  0  0
  190.4740  173.3470  144.8240 C   0  0  0  0  0  3  0  0  0  0  0  0
  190.5590  173.5970  141.8360 O   0  0  0  0  0  0  0  0  0  0  0  0
  192.1680  175.2170  142.2460 O   0  0  0  0  0  0  0  0  0  0  0  0
  192.0280  175.3400  144.6310 C   0  0  2  0  0  0  0  0  0  0  0  0
  194.3190  177.2240  145.9440 C   0  0  0  0  0  3  0  0  0  0  0  0
  194.2610  177.5210  147.2930 F   0  0  0  0  0  0  0  0  0  0  0  0
  195.3530  177.9460  145.3760 F   0  0  0  0  0  0  0  0  0  0  0  0
  191.2460  176.4810  144.9650 O   0  0  0  0  0  0  0  0  0  0  0  0
  188.8110  176.6830  146.2410 C   0  0  0  0  0  2  0  0  0  0  0  0
  187.8630  177.7220  144.2170 C   0  0  2  0  0  3  0  0  0  0  0  0
  190.2000  176.6710  144.0390 C   0  0  1  0  0  3  0  0  0  0  0  0
  186.3470  176.9740  146.0610 C   0  0  0  0  0  0  0  0  0  0  0  0
  188.8050  176.6190  144.7110 C   0  0  1  0  0  3  0  0  0  0  0  0
  189.3060  178.1320  142.1830 C   0  0  0  0  0  2  0  0  0  0  0  0
  186.5210  177.4790  144.7290 N   0  0  0  0  0  0  0  0  0  0  0  0
  187.8890  177.8180  142.6970 C   0  0  0  0  0  2  0  0  0  0  0  0
  184.7360  176.7910  146.7170 Cl  0  0  0  0  0  0  0  0  0  0  0  0
  187.4040  176.5570  146.7720 C   0  0  0  0  0  2  0  0  0  0  0  0
  190.4040  177.9670  143.2460 C   0  0  0  0  0  2  0  0  0  0  0  0
  1 12  1  6  0  0  0
  1 13  1  0  0  0  0
  2  1  1  0  0  0  0
  2  3  1  0  0  0  0
  3  7  1  0  0  0  0
  4 10  1  0  0  0  0
  5  3  2  0  0  0  0
  7 14  1  6  0  0  0
  7  6  1  0  0  0  0
  8 13  1  0  0  0  0
  8 10  2  0  0  0  0
  9  8  1  0  0  0  0
 11  9  2  0  0  0  0
 12  9  1  0  0  0  0
 13 17  1  1  0  0  0
 13  6  1  0  0  0  0
 14 15  1  0  0  0  0
 16 14  1  0  0  0  0
 18 27  1  0  0  0  0
 19 25  1  6  0  0  0
 19 22  1  0  0  0  0
 19 24  1  0  0  0  0
 20 22  1  0  0  0  0
 20 17  1  1  0  0  0
 21 26  1  0  0  0  0
 21 27  1  0  0  0  0
 22 18  1  1  0  0  0
 23 25  1  0  0  0  0
 23 28  1  0  0  0  0
 24 21  2  0  0  0  0
 28 20  1  0  0  0  0
M  END
>  <MODEL>
3

>  <REMARK>
 VINA RESULT:      -7.3      3.268      4.883
  Name = 
  3 active torsions:
  status: ('A' for Active; 'I' for Inactive)
    1  A    between atoms: C_6  and  C_11
    2  A    between atoms: C_10  and  O_17
    3  A    between atoms: O_17  and  C_27
                            x       y       z     vdW  Elec       q    Type
                         _______ _______ _______ _____ _____    ______ ____

>  <TORSDO>
F 3

$$$$
=
 OpenBabel11052418043D

 28 31  0  0  1  0  0  0  0  0999 V2000
  186.2750  179.0400  143.6910 C   0  0  1  0  0  3  0  0  0  0  0  0
  185.0940  178.8730  142.9100 O   0  0  0  0  0  0  0  0  0  0  0  0
  185.0320  178.0140  141.8190 C   0  0  0  0  0  0  0  0  0  0  0  0
  185.9380  176.6450  147.8700 C   0  0  0  0  0  1  0  0  0  0  0  0
  184.0960  178.1280  140.9860 O   0  0  0  0  0  0  0  0  0  0  0  0
  186.3200  176.1790  143.3040 S   0  0  0  0  0  0  0  0  0  0  0  0
  186.0290  176.9230  141.6660 C   0  0  2  0  0  3  0  0  0  0  0  0
  186.4160  177.6820  145.6540 C   0  0  0  0  0  0  0  0  0  0  0  0
  185.9420  179.0120  145.9700 C   0  0  0  0  0  0  0  0  0  0  0  0
  186.4260  176.6150  146.4620 C   0  0  0  0  0  3  0  0  0  0  0  0
  185.5870  179.4220  147.1060 O   0  0  0  0  0  0  0  0  0  0  0  0
  185.9410  179.8020  144.8450 O   0  0  0  0  0  0  0  0  0  0  0  0
  186.8900  177.6980  144.2170 C   0  0  2  0  0  0  0  0  0  0  0  0
  187.3210  177.4000  141.0170 C   0  0  0  0  0  3  0  0  0  0  0  0
  188.1860  176.3290  140.8890 F   0  0  0  0  0  0  0  0  0  0  0  0
  187.0660  177.9160  139.7590 F   0  0  0  0  0  0  0  0  0  0  0  0
  188.3020  177.8590  144.1440 O   0  0  0  0  0  0  0  0  0  0  0  0
  190.2900  176.3500  142.9740 C   0  0  0  0  0  2  0  0  0  0  0  0
  191.2950  175.9940  145.1960 C   0  0  2  0  0  3  0  0  0  0  0  0
  188.9560  177.0520  145.0970 C   0  0  1  0  0  3  0  0  0  0  0  0
  192.0890  174.6540  143.2380 C   0  0  0  0  0  0  0  0  0  0  0  0
  189.9620  176.0720  144.4440 C   0  0  1  0  0  3  0  0  0  0  0  0
  190.2650  177.0330  147.2560 C   0  0  0  0  0  2  0  0  0  0  0  0
  192.0970  174.9060  144.6520 N   0  0  0  0  0  2  0  0  0  0  0  0
  191.0650  175.8440  146.6940 C   0  0  0  0  0  2  0  0  0  0  0  0
  193.1390  173.4240  142.5710 Cl  0  0  0  0  0  0  0  0  0  0  0  0
  191.2230  175.2910  142.4390 C   0  0  0  0  0  3  0  0  0  0  0  0
  189.6200  177.9160  146.1770 C   0  0  0  0  0  2  0  0  0  0  0  0
  1  2  1  1  0  0  0
  1 13  1  0  0  0  0
  1 12  1  0  0  0  0
  3  2  1  0  0  0  0
  5  3  2  0  0  0  0
  6 13  1  0  0  0  0
  7 14  1  1  0  0  0
  7  3  1  0  0  0  0
  7  6  1  0  0  0  0
  8  9  1  0  0  0  0
  8 10  2  0  0  0  0
  9 11  2  0  0  0  0
 10  4  1  0  0  0  0
 12  9  1  0  0  0  0
 13 17  1  6  0  0  0
 13  8  1  0  0  0  0
 15 14  1  0  0  0  0
 16 14  1  0  0  0  0
 19 25  1  1  0  0  0
 20 17  1  6  0  0  0
 20 28  1  0  0  0  0
 21 24  1  0  0  0  0
 22 18  1  6  0  0  0
 22 20  1  0  0  0  0
 22 19  1  0  0  0  0
 24 19  1  0  0  0  0
 25 23  1  0  0  0  0
 26 21  1  0  0  0  0
 27 18  1  0  0  0  0
 27 21  2  0  0  0  0
 28 23  1  0  0  0  0
M  END
>  <MODEL>
4

>  <REMARK>
 VINA RESULT:      -7.3      3.599      5.829
  Name = 
  3 active torsions:
  status: ('A' for Active; 'I' for Inactive)
    1  A    between atoms: C_6  and  C_11
    2  A    between atoms: C_10  and  O_17
    3  A    between atoms: O_17  and  C_27
                            x       y       z     vdW  Elec       q    Type
                         _______ _______ _______ _____ _____    ______ ____

>  <TORSDO>
F 3

$$$$
=
 OpenBabel11052418043D

 28 31  0  0  1  0  0  0  0  0999 V2000
  188.9610  175.6480  146.5330 C   0  0  1  0  0  3  0  0  0  0  0  0
  190.1030  176.1730  147.2050 O   0  0  0  0  0  0  0  0  0  0  0  0
  191.2950  176.4570  146.5490 C   0  0  0  0  0  0  0  0  0  0  0  0
  185.6540  179.0870  145.7960 C   0  0  0  0  0  1  0  0  0  0  0  0
  192.3520  176.6160  147.2130 O   0  0  0  0  0  0  0  0  0  0  0  0
  189.8430  177.5980  144.5950 S   0  0  0  0  0  0  0  0  0  0  0  0
  191.3150  176.6360  145.0750 C   0  0  2  0  0  3  0  0  0  0  0  0
  187.3530  177.2640  145.8120 C   0  0  0  0  0  0  0  0  0  0  0  0
  186.9670  176.6650  147.0710 C   0  0  0  0  0  0  0  0  0  0  0  0
  186.8030  178.3320  145.2220 C   0  0  0  0  0  3  0  0  0  0  0  0
  185.9540  176.9680  147.7550 O   0  0  0  0  0  0  0  0  0  0  0  0
  187.8600  175.6840  147.4320 O   0  0  0  0  0  0  0  0  0  0  0  0
  188.5250  176.4720  145.2740 C   0  0  2  0  0  0  0  0  0  0  0  0
  191.4020  175.3130  144.3260 C   0  0  0  0  0  3  0  0  0  0  0  0
  192.1410  175.4920  143.1720 F   0  0  0  0  0  0  0  0  0  0  0  0
  192.0270  174.3580  145.1080 F   0  0  0  0  0  0  0  0  0  0  0  0
  188.0990  175.5170  144.3090 O   0  0  0  0  0  0  0  0  0  0  0  0
  189.0400  173.7690  142.3960 C   0  0  0  0  0  2  0  0  0  0  0  0
  187.8900  175.0870  140.6600 C   0  0  2  0  0  3  0  0  0  0  0  0
  188.0330  176.0870  143.0220 C   0  0  1  0  0  3  0  0  0  0  0  0
  189.5390  173.3250  140.0010 C   0  0  0  0  0  0  0  0  0  0  0  0
  188.7100  175.1960  141.9500 C   0  0  1  0  0  3  0  0  0  0  0  0
  186.5240  177.1210  141.2810 C   0  0  0  0  0  2  0  0  0  0  0  0
  188.6820  174.4180  139.6370 N   0  0  0  0  0  0  0  0  0  0  0  0
  187.4060  176.4580  140.2060 C   0  0  0  0  0  2  0  0  0  0  0  0
  190.4020  172.4470  138.7570 Cl  0  0  0  0  0  0  0  0  0  0  0  0
  189.7520  173.0300  141.2900 C   0  0  0  0  0  2  0  0  0  0  0  0
  186.5850  176.4270  142.6510 C   0  0  0  0  0  2  0  0  0  0  0  0
  1  2  1  1  0  0  0
  1 12  1  0  0  0  0
  3  2  1  0  0  0  0
  3  5  2  0  0  0  0
  6  7  1  0  0  0  0
  6 13  1  0  0  0  0
  7 14  1  6  0  0  0
  7  3  1  0  0  0  0
  8  9  1  0  0  0  0
  9 12  1  0  0  0  0
  9 11  2  0  0  0  0
 10  4  1  0  0  0  0
 10  8  2  0  0  0  0
 13 17  1  6  0  0  0
 13  8  1  0  0  0  0
 13  1  1  0  0  0  0
 14 16  1  0  0  0  0
 15 14  1  0  0  0  0
 19 25  1  6  0  0  0
 19 22  1  0  0  0  0
 20 17  1  1  0  0  0
 21 27  1  0  0  0  0
 22 18  1  1  0  0  0
 22 20  1  0  0  0  0
 23 28  1  0  0  0  0
 24 21  2  0  0  0  0
 24 19  1  0  0  0  0
 25 23  1  0  0  0  0
 26 21  1  0  0  0  0
 27 18  1  0  0  0  0
 28 20  1  0  0  0  0
M  END
>  <MODEL>
5

>  <REMARK>
 VINA RESULT:      -7.1      3.129      4.964
  Name = 
  3 active torsions:
  status: ('A' for Active; 'I' for Inactive)
    1  A    between atoms: C_6  and  C_11
    2  A    between atoms: C_10  and  O_17
    3  A    between atoms: O_17  and  C_27
                            x       y       z     vdW  Elec       q    Type
                         _______ _______ _______ _____ _____    ______ ____

>  <TORSDO>
F 3

$$$$
=
 OpenBabel11052418043D

 28 31  0  0  1  0  0  0  0  0999 V2000
  189.9240  177.3520  144.8230 C   0  0  1  0  0  3  0  0  0  0  0  0
  191.3440  177.4410  144.9040 O   0  0  0  0  0  0  0  0  0  0  0  0
  192.0970  176.6460  145.7610 C   0  0  0  0  0  0  0  0  0  0  0  0
  188.5660  174.9340  140.8710 C   0  0  0  0  0  1  0  0  0  0  0  0
  193.2840  176.9650  146.0280 O   0  0  0  0  0  0  0  0  0  0  0  0
  190.6010  174.5510  144.9850 S   0  0  0  0  0  0  0  0  0  0  0  0
  191.5280  175.3900  146.3110 C   0  0  2  0  0  3  0  0  0  0  0  0
  189.0750  175.9300  143.0980 C   0  0  0  0  0  0  0  0  0  0  0  0
  189.0760  177.3160  142.6820 C   0  0  0  0  0  0  0  0  0  0  0  0
  188.8590  174.8560  142.3300 C   0  0  0  0  0  3  0  0  0  0  0  0
  188.7370  177.7500  141.5500 O   0  0  0  0  0  0  0  0  0  0  0  0
  189.4930  178.1280  143.7100 O   0  0  0  0  0  0  0  0  0  0  0  0
  189.3860  175.9020  144.5790 C   0  0  2  0  0  0  0  0  0  0  0  0
  190.6680  175.6290  147.5450 C   0  0  0  0  0  3  0  0  0  0  0  0
  191.1910  174.9160  148.6080 F   0  0  0  0  0  0  0  0  0  0  0  0
  190.6620  176.9720  147.8740 F   0  0  0  0  0  0  0  0  0  0  0  0
  188.1960  175.7900  145.3510 O   0  0  0  0  0  0  0  0  0  0  0  0
  185.9390  176.5690  143.9720 C   0  0  0  0  0  2  0  0  0  0  0  0
  185.4560  178.2160  145.7420 C   0  0  2  0  0  3  0  0  0  0  0  0
  187.7470  177.0550  145.7820 C   0  0  1  0  0  3  0  0  0  0  0  0
  184.1870  178.2910  143.5870 C   0  0  0  0  0  0  0  0  0  0  0  0
  186.5840  177.5920  144.9120 C   0  0  1  0  0  3  0  0  0  0  0  0
  186.9670  178.4210  147.7570 C   0  0  0  0  0  2  0  0  0  0  0  0
  184.5120  178.8820  144.8540 N   0  0  0  0  0  2  0  0  0  0  0  0
  186.0170  179.1600  146.7970 C   0  0  0  0  0  2  0  0  0  0  0  0
  182.9680  179.0300  142.5720 Cl  0  0  0  0  0  0  0  0  0  0  0  0
  184.8710  177.2300  143.1370 C   0  0  0  0  0  3  0  0  0  0  0  0
  187.3800  177.0230  147.2700 C   0  0  0  0  0  2  0  0  0  0  0  0
  1 12  1  6  0  0  0
  1  2  1  0  0  0  0
  2  3  1  0  0  0  0
  3  5  2  0  0  0  0
  3  7  1  0  0  0  0
  4 10  1  0  0  0  0
  6  7  1  0  0  0  0
  7 14  1  1  0  0  0
  8 13  1  0  0  0  0
  9  8  1  0  0  0  0
  9 12  1  0  0  0  0
 10  8  2  0  0  0  0
 11  9  2  0  0  0  0
 13  1  1  0  0  0  0
 13  6  1  0  0  0  0
 13 17  1  1  0  0  0
 14 16  1  0  0  0  0
 14 15  1  0  0  0  0
 19 25  1  1  0  0  0
 20 17  1  6  0  0  0
 20 28  1  0  0  0  0
 21 24  1  0  0  0  0
 22 18  1  1  0  0  0
 22 19  1  0  0  0  0
 22 20  1  0  0  0  0
 24 19  1  0  0  0  0
 25 23  1  0  0  0  0
 26 21  1  0  0  0  0
 27 21  2  0  0  0  0
 27 18  1  0  0  0  0
 28 23  1  0  0  0  0
M  END
>  <MODEL>
6

>  <REMARK>
 VINA RESULT:      -7.0      2.467      4.022
  Name = 
  3 active torsions:
  status: ('A' for Active; 'I' for Inactive)
    1  A    between atoms: C_6  and  C_11
    2  A    between atoms: C_10  and  O_17
    3  A    between atoms: O_17  and  C_27
                            x       y       z     vdW  Elec       q    Type
                         _______ _______ _______ _____ _____    ______ ____

>  <TORSDO>
F 3

$$$$
=
 OpenBabel11052418043D

 28 31  0  0  1  0  0  0  0  0999 V2000
  188.6700  176.9440  141.9500 C   0  0  1  0  0  3  0  0  0  0  0  0
  188.1150  176.0060  141.0310 O   0  0  0  0  0  0  0  0  0  0  0  0
  188.6120  174.7150  140.8850 C   0  0  0  0  0  0  0  0  0  0  0  0
  185.8980  177.3590  145.8800 C   0  0  0  0  0  1  0  0  0  0  0  0
  188.3090  174.0400  139.8690 O   0  0  0  0  0  0  0  0  0  0  0  0
  188.7240  174.5540  143.5670 S   0  0  0  0  0  0  0  0  0  0  0  0
  189.4470  174.1090  141.9540 C   0  0  2  0  0  3  0  0  0  0  0  0
  187.5990  177.0550  144.0840 C   0  0  0  0  0  0  0  0  0  0  0  0
  187.1240  178.1010  143.2040 C   0  0  0  0  0  0  0  0  0  0  0  0
  187.0840  176.6980  145.2660 C   0  0  0  0  0  3  0  0  0  0  0  0
  186.2260  178.9420  143.4710 O   0  0  0  0  0  0  0  0  0  0  0  0
  187.8040  178.0720  142.0100 O   0  0  0  0  0  0  0  0  0  0  0  0
  188.7920  176.4080  143.4160 C   0  0  2  0  0  0  0  0  0  0  0  0
  190.9110  174.5140  141.8530 C   0  0  0  0  0  3  0  0  0  0  0  0
  191.6770  173.6390  142.6000 F   0  0  0  0  0  0  0  0  0  0  0  0
  191.3350  174.4610  140.5370 F   0  0  0  0  0  0  0  0  0  0  0  0
  190.0130  176.9340  143.9250 O   0  0  0  0  0  0  0  0  0  0  0  0
  192.7430  176.5680  143.8080 C   0  0  0  0  0  2  0  0  0  0  0  0
  192.7460  176.0060  146.2070 C   0  0  2  0  0  3  0  0  0  0  0  0
  190.4740  176.1800  145.0240 C   0  0  1  0  0  3  0  0  0  0  0  0
  194.7910  175.5910  144.8260 C   0  0  0  0  0  0  0  0  0  0  0  0
  191.9740  175.8160  144.8980 C   0  0  1  0  0  3  0  0  0  0  0  0
  190.6010  176.0420  147.5420 C   0  0  0  0  0  2  0  0  0  0  0  0
  194.0840  175.4460  146.0670 N   0  0  0  0  0  2  0  0  0  0  0  0
  191.9890  175.3950  147.3780 C   0  0  0  0  0  2  0  0  0  0  0  0
  196.4390  175.0210  144.6930 Cl  0  0  0  0  0  0  0  0  0  0  0  0
  194.1680  176.0770  143.7430 C   0  0  0  0  0  3  0  0  0  0  0  0
  190.1690  176.9000  146.3420 C   0  0  0  0  0  2  0  0  0  0  0  0
  1  2  1  6  0  0  0
  1 12  1  0  0  0  0
  1 13  1  0  0  0  0
  3  2  1  0  0  0  0
  3  7  1  0  0  0  0
  5  3  2  0  0  0  0
  7 14  1  1  0  0  0
  7  6  1  0  0  0  0
  8 10  2  0  0  0  0
  9 11  2  0  0  0  0
  9  8  1  0  0  0  0
 10  4  1  0  0  0  0
 12  9  1  0  0  0  0
 13  6  1  0  0  0  0
 13 17  1  1  0  0  0
 13  8  1  0  0  0  0
 14 15  1  0  0  0  0
 16 14  1  0  0  0  0
 19 25  1  1  0  0  0
 20 17  1  6  0  0  0
 20 28  1  0  0  0  0
 21 24  1  0  0  0  0
 22 18  1  6  0  0  0
 22 20  1  0  0  0  0
 22 19  1  0  0  0  0
 24 19  1  0  0  0  0
 25 23  1  0  0  0  0
 26 21  1  0  0  0  0
 27 18  1  0  0  0  0
 27 21  2  0  0  0  0
 28 23  1  0  0  0  0
M  END
>  <MODEL>
7

>  <REMARK>
 VINA RESULT:      -7.0      4.091      6.256
  Name = 
  3 active torsions:
  status: ('A' for Active; 'I' for Inactive)
    1  A    between atoms: C_6  and  C_11
    2  A    between atoms: C_10  and  O_17
    3  A    between atoms: O_17  and  C_27
                            x       y       z     vdW  Elec       q    Type
                         _______ _______ _______ _____ _____    ______ ____

>  <TORSDO>
F 3

$$$$
=
 OpenBabel11052418043D

 28 31  0  0  1  0  0  0  0  0999 V2000
  189.4050  175.6040  146.5890 C   0  0  1  0  0  3  0  0  0  0  0  0
  190.4920  176.3080  147.1850 O   0  0  0  0  0  0  0  0  0  0  0  0
  191.7400  176.4110  146.5800 C   0  0  0  0  0  0  0  0  0  0  0  0
  186.2200  178.6650  144.6430 C   0  0  0  0  0  1  0  0  0  0  0  0
  192.7380  176.7600  147.2630 O   0  0  0  0  0  0  0  0  0  0  0  0
  190.4760  176.9460  144.2680 S   0  0  0  0  0  0  0  0  0  0  0  0
  191.8880  176.1720  145.1220 C   0  0  2  0  0  3  0  0  0  0  0  0
  187.8870  176.9370  145.3120 C   0  0  0  0  0  0  0  0  0  0  0  0
  187.3850  176.7090  146.6500 C   0  0  0  0  0  0  0  0  0  0  0  0
  187.4030  177.7920  144.4030 C   0  0  0  0  0  3  0  0  0  0  0  0
  186.3220  177.1790  147.1330 O   0  0  0  0  0  0  0  0  0  0  0  0
  188.2310  175.8770  147.3450 O   0  0  0  0  0  0  0  0  0  0  0  0
  189.0890  176.0390  145.1180 C   0  0  2  0  0  0  0  0  0  0  0  0
  192.0210  174.6940  144.7820 C   0  0  0  0  0  3  0  0  0  0  0  0
  192.7630  174.5600  143.6230 F   0  0  0  0  0  0  0  0  0  0  0  0
  192.6690  174.0220  145.8030 F   0  0  0  0  0  0  0  0  0  0  0  0
  188.7340  174.8490  144.4250 O   0  0  0  0  0  0  0  0  0  0  0  0
  189.6210  172.5000  143.2850 C   0  0  0  0  0  2  0  0  0  0  0  0
  188.9130  173.3330  141.0760 C   0  0  2  0  0  3  0  0  0  0  0  0
  188.9190  174.9950  143.0350 C   0  0  1  0  0  3  0  0  0  0  0  0
  190.3360  171.2820  141.2390 C   0  0  0  0  0  0  0  0  0  0  0  0
  189.5750  173.7460  142.3950 C   0  0  1  0  0  3  0  0  0  0  0  0
  187.8160  175.5980  140.8440 C   0  0  0  0  0  2  0  0  0  0  0  0
  189.7120  172.2960  140.4360 N   0  0  0  0  0  0  0  0  0  0  0  0
  188.7100  174.5400  140.1700 C   0  0  0  0  0  2  0  0  0  0  0  0
  191.1990  169.9710  140.4640 Cl  0  0  0  0  0  0  0  0  0  0  0  0
  190.3400  171.3790  142.5750 C   0  0  0  0  0  2  0  0  0  0  0  0
  187.5980  175.3620  142.3470 C   0  0  0  0  0  2  0  0  0  0  0  0
  1  2  1  1  0  0  0
  1 12  1  0  0  0  0
  3  2  1  0  0  0  0
  3  5  2  0  0  0  0
  6 13  1  0  0  0  0
  6  7  1  0  0  0  0
  7 14  1  1  0  0  0
  7  3  1  0  0  0  0
  8  9  1  0  0  0  0
  9 11  2  0  0  0  0
  9 12  1  0  0  0  0
 10  4  1  0  0  0  0
 10  8  2  0  0  0  0
 13 17  1  6  0  0  0
 13  8  1  0  0  0  0
 13  1  1  0  0  0  0
 14 16  1  0  0  0  0
 15 14  1  0  0  0  0
 19 25  1  6  0  0  0
 19 22  1  0  0  0  0
 20 17  1  1  0  0  0
 21 27  1  0  0  0  0
 22 20  1  0  0  0  0
 22 18  1  1  0  0  0
 23 28  1  0  0  0  0
 24 19  1  0  0  0  0
 24 21  2  0  0  0  0
 25 23  1  0  0  0  0
 26 21  1  0  0  0  0
 27 18  1  0  0  0  0
 28 20  1  0  0  0  0
M  END
>  <MODEL>
8

>  <REMARK>
 VINA RESULT:      -6.9      3.753      5.705
  Name = 
  3 active torsions:
  status: ('A' for Active; 'I' for Inactive)
    1  A    between atoms: C_6  and  C_11
    2  A    between atoms: C_10  and  O_17
    3  A    between atoms: O_17  and  C_27
                            x       y       z     vdW  Elec       q    Type
                         _______ _______ _______ _____ _____    ______ ____

>  <TORSDO>
F 3

$$$$
=
 OpenBabel11052418043D

 28 31  0  0  1  0  0  0  0  0999 V2000
  192.1950  176.6730  145.5340 C   0  0  1  0  0  3  0  0  0  0  0  0
  192.4100  176.1890  146.8580 O   0  0  0  0  0  0  0  0  0  0  0  0
  191.4110  175.5720  147.6020 C   0  0  0  0  0  0  0  0  0  0  0  0
  194.0970  173.6730  142.2650 C   0  0  0  0  0  1  0  0  0  0  0  0
  191.5460  175.4480  148.8460 O   0  0  0  0  0  0  0  0  0  0  0  0
  190.7620  174.1700  145.4010 S   0  0  0  0  0  0  0  0  0  0  0  0
  190.2160  175.0040  146.9270 C   0  0  2  0  0  3  0  0  0  0  0  0
  192.7980  175.1710  143.7750 C   0  0  0  0  0  0  0  0  0  0  0  0
  193.8480  176.1340  144.0240 C   0  0  0  0  0  0  0  0  0  0  0  0
  192.8710  174.0740  143.0100 C   0  0  0  0  0  3  0  0  0  0  0  0
  194.9680  176.1730  143.4520 O   0  0  0  0  0  0  0  0  0  0  0  0
  193.4550  177.0370  144.9830 O   0  0  0  0  0  0  0  0  0  0  0  0
  191.5810  175.6140  144.5570 C   0  0  2  0  0  0  0  0  0  0  0  0
  189.1460  176.0520  146.6540 C   0  0  0  0  0  3  0  0  0  0  0  0
  187.9240  175.5790  147.0950 F   0  0  0  0  0  0  0  0  0  0  0  0
  189.4360  177.2240  147.3290 F   0  0  0  0  0  0  0  0  0  0  0  0
  190.6690  176.3270  143.7290 O   0  0  0  0  0  0  0  0  0  0  0  0
  188.2930  177.7180  143.8540 C   0  0  0  0  0  2  0  0  0  0  0  0
  187.2520  176.0230  142.3970 C   0  0  2  0  0  3  0  0  0  0  0  0
  189.5820  175.5130  143.3490 C   0  0  1  0  0  3  0  0  0  0  0  0
  185.8230  177.7130  143.5640 C   0  0  0  0  0  0  0  0  0  0  0  0
  188.2190  176.2150  143.5700 C   0  0  1  0  0  3  0  0  0  0  0  0
  188.6010  174.0760  141.5190 C   0  0  0  0  0  2  0  0  0  0  0  0
  185.9350  176.5240  142.7680 N   0  0  0  0  0  0  0  0  0  0  0  0
  187.2100  174.5650  141.9600 C   0  0  0  0  0  2  0  0  0  0  0  0
  184.2420  178.3790  143.9130 Cl  0  0  0  0  0  0  0  0  0  0  0  0
  186.9110  178.2660  144.1160 C   0  0  0  0  0  2  0  0  0  0  0  0
  189.7460  175.0260  141.9050 C   0  0  0  0  0  2  0  0  0  0  0  0
  1 12  1  6  0  0  0
  1  2  1  0  0  0  0
  2  3  1  0  0  0  0
  3  5  2  0  0  0  0
  4 10  1  0  0  0  0
  6  7  1  0  0  0  0
  7 14  1  6  0  0  0
  7  3  1  0  0  0  0
  8  9  1  0  0  0  0
  8 13  1  0  0  0  0
  9 12  1  0  0  0  0
 10  8  2  0  0  0  0
 11  9  2  0  0  0  0
 13 17  1  6  0  0  0
 13  6  1  0  0  0  0
 13  1  1  0  0  0  0
 14 15  1  0  0  0  0
 14 16  1  0  0  0  0
 18 27  1  0  0  0  0
 19 25  1  1  0  0  0
 19 24  1  0  0  0  0
 19 22  1  0  0  0  0
 20 22  1  0  0  0  0
 20 17  1  6  0  0  0
 21 26  1  0  0  0  0
 21 27  1  0  0  0  0
 22 18  1  6  0  0  0
 23 28  1  0  0  0  0
 23 25  1  0  0  0  0
 24 21  2  0  0  0  0
 28 20  1  0  0  0  0
M  END
>  <MODEL>
9

>  <REMARK>
 VINA RESULT:      -6.9      2.579      4.777
  Name = 
  3 active torsions:
  status: ('A' for Active; 'I' for Inactive)
    1  A    between atoms: C_6  and  C_11
    2  A    between atoms: C_10  and  O_17
    3  A    between atoms: O_17  and  C_27
                            x       y       z     vdW  Elec       q    Type
                         _______ _______ _______ _____ _____    ______ ____

>  <TORSDO>
F 3

$$$$
