=
 OpenBabel11052417103D

 30 30  0  0  1  0  0  0  0  0999 V2000
  192.9360  175.2160  144.0660 C   0  0  2  0  0  0  0  0  0  0  0  0
  194.2150  176.3370  146.5030 C   0  0  0  0  0  2  0  0  0  0  0  0
  192.7710  175.8460  146.5680 C   0  0  0  0  0  2  0  0  0  0  0  0
  195.1080  174.1670  143.6070 C   0  0  0  0  0  1  0  0  0  0  0  0
  194.9540  175.8100  145.2700 C   0  0  0  0  0  2  0  0  0  0  0  0
  192.1020  175.9130  145.1940 C   0  0  1  0  0  3  0  0  0  0  0  0
  194.2230  174.7140  144.6300 N   0  0  0  0  0  0  0  0  0  0  0  0
  193.1860  176.2010  142.9060 C   0  0  0  0  0  1  0  0  0  0  0  0
  192.0550  174.0460  143.5590 C   0  0  1  0  0  3  0  0  0  0  0  0
  191.6380  173.0490  144.6310 C   0  0  0  0  0  1  0  0  0  0  0  0
  190.8750  174.5300  142.8570 N   0  0  0  0  0  2  0  0  0  0  0  0
  189.7960  173.6000  143.1550 C   0  0  0  0  0  2  0  0  0  0  0  0
  188.5110  174.0480  142.4740 C   0  0  2  0  0  3  0  0  0  0  0  0
  187.8050  172.8570  141.8480 C   0  0  0  0  0  1  0  0  0  0  0  0
  188.7500  175.1560  141.4500 C   0  0  0  0  0  2  0  0  0  0  0  0
  187.6130  176.1660  141.4080 C   0  0  0  0  0  1  0  0  0  0  0  0
  191.7170  177.2540  144.8980 O   0  0  0  0  0  0  0  0  0  0  0  0
  190.4020  177.6070  144.5880 C   0  0  0  0  0  0  0  0  0  0  0  0
  190.1330  178.0480  143.3650 C   0  0  0  0  0  2  0  0  0  0  0  0
  189.3090  177.5210  145.6230 C   0  0  2  0  0  3  0  0  0  0  0  0
  189.8540  177.6650  146.9020 O   0  0  0  0  0  1  0  0  0  0  0  0
  188.5230  176.2120  145.5120 C   0  0  1  0  0  3  0  0  0  0  0  0
  188.5940  175.4410  146.8200 C   0  0  0  0  0  1  0  0  0  0  0  0
  187.0550  176.4950  145.1930 C   0  0  0  0  0  2  0  0  0  0  0  0
  186.6710  177.9660  145.3670 C   0  0  1  0  0  3  0  0  0  0  0  0
  186.0520  179.0710  143.0090 C   0  0  0  0  0  3  0  0  0  0  0  0
  186.3270  178.5730  144.0720 C   0  0  0  0  0  0  0  0  0  0  0  0
  185.5370  178.1360  146.3730 C   0  0  0  0  0  2  0  0  0  0  0  0
  186.8880  179.0650  148.2610 C   0  0  0  0  0  1  0  0  0  0  0  0
  186.0160  177.9140  147.7990 C   0  0  0  0  0  2  0  0  0  0  0  0
  1  8  1  6  0  0  0
  1  7  1  0  0  0  0
  1  6  1  0  0  0  0
  2  3  1  0  0  0  0
  4  7  1  0  0  0  0
  5  2  1  0  0  0  0
  6 17  1  6  0  0  0
  6  3  1  0  0  0  0
  7  5  1  0  0  0  0
  9  1  1  0  0  0  0
  9 10  1  1  0  0  0
 11 12  1  0  0  0  0
 11  9  1  0  0  0  0
 13 14  1  6  0  0  0
 13 12  1  0  0  0  0
 15 13  1  0  0  0  0
 16 15  1  0  0  0  0
 18 17  1  0  0  0  0
 18 20  1  0  0  0  0
 19 18  2  0  0  0  0
 20 21  1  1  0  0  0
 22 20  1  0  0  0  0
 22 23  1  1  0  0  0
 24 25  1  0  0  0  0
 24 22  1  0  0  0  0
 25 27  1  6  0  0  0
 25 28  1  0  0  0  0
 26 27  3  0  0  0  0
 28 30  1  0  0  0  0
 30 29  1  0  0  0  0
M  END
>  <MODEL>
1

>  <REMARK>
 VINA RESULT:      -5.8      0.000      0.000
  Name = 
  14 active torsions:
  status: ('A' for Active; 'I' for Inactive)
    1  A    between atoms: C_1  and  O_2
    2  A    between atoms: C_1  and  C_4
    3  A    between atoms: O_2  and  C_22
    4  A    between atoms: C_3  and  C_11
    5  A    between atoms: C_4  and  C_27
    6  A    between atoms: C_6  and  C_8
    7  A    between atoms: C_6  and  C_21
    8  A    between atoms: C_7  and  C_10
    9  A    between atoms: C_7  and  C_15
   10  A    between atoms: C_8  and  C_12
   11  A    between atoms: C_8  and  C_13
   12  A    between atoms: C_10  and  N_25
   13  A    between atoms: C_11  and  N_25
   14  A    between atoms: C_13  and  C_27
                            x       y       z     vdW  Elec       q    Type
                         _______ _______ _______ _____ _____    ______ ____

>  <TORSDO>
F 14

$$$$
=
 OpenBabel11052417103D

 30 30  0  0  1  0  0  0  0  0999 V2000
  190.3860  173.7700  143.4710 C   0  0  2  0  0  0  0  0  0  0  0  0
  187.8180  173.8370  141.9770 C   0  0  0  0  0  2  0  0  0  0  0  0
  188.7050  175.0780  142.0060 C   0  0  0  0  0  2  0  0  0  0  0  0
  190.6310  171.4790  142.6230 C   0  0  0  0  0  1  0  0  0  0  0  0
  188.5710  172.5730  142.3990 C   0  0  0  0  0  2  0  0  0  0  0  0
  189.5870  175.1000  143.2550 C   0  0  1  0  0  3  0  0  0  0  0  0
  190.0200  172.7860  142.4100 N   0  0  0  0  0  0  0  0  0  0  0  0
  190.1010  173.2010  144.8750 C   0  0  0  0  0  1  0  0  0  0  0  0
  191.8820  174.1630  143.3750 C   0  0  1  0  0  3  0  0  0  0  0  0
  192.1790  175.3260  142.4390 C   0  0  0  0  0  1  0  0  0  0  0  0
  192.4490  174.4360  144.6880 N   0  0  0  0  0  2  0  0  0  0  0  0
  192.9850  175.7880  144.6430 C   0  0  0  0  0  2  0  0  0  0  0  0
  192.8820  176.4420  146.0140 C   0  0  2  0  0  3  0  0  0  0  0  0
  194.2660  176.6300  146.6110 C   0  0  0  0  0  1  0  0  0  0  0  0
  191.9670  175.6680  146.9610 C   0  0  0  0  0  2  0  0  0  0  0  0
  191.2810  176.5700  147.9750 C   0  0  0  0  0  1  0  0  0  0  0  0
  188.8270  175.5190  144.3870 O   0  0  0  0  0  0  0  0  0  0  0  0
  188.8500  176.8320  144.8630 C   0  0  0  0  0  0  0  0  0  0  0  0
  189.8040  177.6490  144.4310 C   0  0  0  0  0  2  0  0  0  0  0  0
  187.8340  177.3120  145.8680 C   0  0  2  0  0  3  0  0  0  0  0  0
  187.8290  176.4650  146.9800 O   0  0  0  0  0  1  0  0  0  0  0  0
  186.4350  177.4160  145.2570 C   0  0  1  0  0  3  0  0  0  0  0  0
  185.4250  176.6790  146.1220 C   0  0  0  0  0  1  0  0  0  0  0  0
  186.0050  178.8780  145.1480 C   0  0  0  0  0  2  0  0  0  0  0  0
  185.5230  179.2650  143.7470 C   0  0  1  0  0  3  0  0  0  0  0  0
  187.2250  178.3730  141.8830 C   0  0  0  0  0  3  0  0  0  0  0  0
  186.4570  178.7780  142.7210 C   0  0  0  0  0  0  0  0  0  0  0  0
  184.1060  178.7670  143.4830 C   0  0  0  0  0  2  0  0  0  0  0  0
  182.5450  178.2080  141.6110 C   0  0  0  0  0  1  0  0  0  0  0  0
  183.9790  178.1450  142.1020 C   0  0  0  0  0  2  0  0  0  0  0  0
  1  8  1  1  0  0  0
  2  3  1  0  0  0  0
  2  5  1  0  0  0  0
  3  6  1  0  0  0  0
  5  7  1  0  0  0  0
  6  1  1  0  0  0  0
  6 17  1  1  0  0  0
  7  4  1  0  0  0  0
  7  1  1  0  0  0  0
  9 10  1  6  0  0  0
  9  1  1  0  0  0  0
  9 11  1  0  0  0  0
 12 11  1  0  0  0  0
 12 13  1  0  0  0  0
 13 14  1  1  0  0  0
 13 15  1  0  0  0  0
 15 16  1  0  0  0  0
 17 18  1  0  0  0  0
 18 20  1  0  0  0  0
 19 18  2  0  0  0  0
 20 21  1  1  0  0  0
 22 20  1  0  0  0  0
 22 23  1  1  0  0  0
 24 22  1  0  0  0  0
 25 27  1  6  0  0  0
 25 24  1  0  0  0  0
 26 27  3  0  0  0  0
 28 25  1  0  0  0  0
 29 30  1  0  0  0  0
 30 28  1  0  0  0  0
M  END
>  <MODEL>
2

>  <REMARK>
 VINA RESULT:      -5.8      1.658      4.759
  Name = 
  14 active torsions:
  status: ('A' for Active; 'I' for Inactive)
    1  A    between atoms: C_1  and  O_2
    2  A    between atoms: C_1  and  C_4
    3  A    between atoms: O_2  and  C_22
    4  A    between atoms: C_3  and  C_11
    5  A    between atoms: C_4  and  C_27
    6  A    between atoms: C_6  and  C_8
    7  A    between atoms: C_6  and  C_21
    8  A    between atoms: C_7  and  C_10
    9  A    between atoms: C_7  and  C_15
   10  A    between atoms: C_8  and  C_12
   11  A    between atoms: C_8  and  C_13
   12  A    between atoms: C_10  and  N_25
   13  A    between atoms: C_11  and  N_25
   14  A    between atoms: C_13  and  C_27
                            x       y       z     vdW  Elec       q    Type
                         _______ _______ _______ _____ _____    ______ ____

>  <TORSDO>
F 14

$$$$
=
 OpenBabel11052417103D

 30 30  0  0  1  0  0  0  0  0999 V2000
  192.8280  175.2310  143.9780 C   0  0  2  0  0  0  0  0  0  0  0  0
  194.1940  175.9530  146.5160 C   0  0  0  0  0  2  0  0  0  0  0  0
  192.7700  175.4060  146.5560 C   0  0  0  0  0  2  0  0  0  0  0  0
  195.0040  174.3590  143.2450 C   0  0  0  0  0  1  0  0  0  0  0  0
  194.8860  175.6790  145.1780 C   0  0  0  0  0  2  0  0  0  0  0  0
  192.0320  175.6870  145.2470 C   0  0  1  0  0  3  0  0  0  0  0  0
  194.1560  174.6860  144.3870 N   0  0  0  0  0  0  0  0  0  0  0  0
  192.9920  176.4120  143.0010 C   0  0  0  0  0  1  0  0  0  0  0  0
  191.9570  174.1360  143.3110 C   0  0  1  0  0  3  0  0  0  0  0  0
  191.2200  173.2250  144.2840 C   0  0  0  0  0  1  0  0  0  0  0  0
  191.0110  174.7080  142.3640 N   0  0  0  0  0  2  0  0  0  0  0  0
  190.2030  173.6070  141.8590 C   0  0  0  0  0  2  0  0  0  0  0  0
  188.7290  173.9830  141.8810 C   0  0  2  0  0  3  0  0  0  0  0  0
  187.8720  172.7380  142.0360 C   0  0  0  0  0  1  0  0  0  0  0  0
  188.3160  174.7940  140.6540 C   0  0  0  0  0  2  0  0  0  0  0  0
  187.8190  176.1860  141.0150 C   0  0  0  0  0  1  0  0  0  0  0  0
  191.5940  177.0440  145.2100 O   0  0  0  0  0  0  0  0  0  0  0  0
  190.2480  177.3970  145.0940 C   0  0  0  0  0  0  0  0  0  0  0  0
  189.7800  177.7380  143.8980 C   0  0  0  0  0  2  0  0  0  0  0  0
  189.3440  177.4200  146.2990 C   0  0  2  0  0  3  0  0  0  0  0  0
  190.1100  177.3870  147.4680 O   0  0  0  0  0  1  0  0  0  0  0  0
  188.3370  176.2680  146.2770 C   0  0  1  0  0  3  0  0  0  0  0  0
  188.8600  175.0940  147.0890 C   0  0  0  0  0  1  0  0  0  0  0  0
  187.0010  176.7120  146.8720 C   0  0  0  0  0  2  0  0  0  0  0  0
  185.8400  176.6360  145.8780 C   0  0  1  0  0  3  0  0  0  0  0  0
  184.0320  178.5430  146.3840 C   0  0  0  0  0  3  0  0  0  0  0  0
  184.8460  177.6840  146.1520 C   0  0  0  0  0  0  0  0  0  0  0  0
  186.3310  176.7070  144.4350 C   0  0  0  0  0  2  0  0  0  0  0  0
  186.2120  178.7690  143.0260 C   0  0  0  0  0  1  0  0  0  0  0  0
  185.4360  177.5910  143.5810 C   0  0  0  0  0  2  0  0  0  0  0  0
  1  8  1  6  0  0  0
  1  7  1  0  0  0  0
  1  6  1  0  0  0  0
  2  3  1  0  0  0  0
  4  7  1  0  0  0  0
  5  2  1  0  0  0  0
  6 17  1  6  0  0  0
  6  3  1  0  0  0  0
  7  5  1  0  0  0  0
  9  1  1  0  0  0  0
  9 10  1  1  0  0  0
 11  9  1  0  0  0  0
 12 13  1  0  0  0  0
 12 11  1  0  0  0  0
 13 14  1  6  0  0  0
 15 16  1  0  0  0  0
 15 13  1  0  0  0  0
 18 17  1  0  0  0  0
 18 20  1  0  0  0  0
 19 18  2  0  0  0  0
 20 21  1  1  0  0  0
 22 20  1  0  0  0  0
 22 24  1  0  0  0  0
 22 23  1  1  0  0  0
 25 28  1  6  0  0  0
 25 27  1  0  0  0  0
 25 24  1  0  0  0  0
 27 26  3  0  0  0  0
 29 30  1  0  0  0  0
 30 28  1  0  0  0  0
M  END
>  <MODEL>
3

>  <REMARK>
 VINA RESULT:      -5.6      0.898      1.723
  Name = 
  14 active torsions:
  status: ('A' for Active; 'I' for Inactive)
    1  A    between atoms: C_1  and  O_2
    2  A    between atoms: C_1  and  C_4
    3  A    between atoms: O_2  and  C_22
    4  A    between atoms: C_3  and  C_11
    5  A    between atoms: C_4  and  C_27
    6  A    between atoms: C_6  and  C_8
    7  A    between atoms: C_6  and  C_21
    8  A    between atoms: C_7  and  C_10
    9  A    between atoms: C_7  and  C_15
   10  A    between atoms: C_8  and  C_12
   11  A    between atoms: C_8  and  C_13
   12  A    between atoms: C_10  and  N_25
   13  A    between atoms: C_11  and  N_25
   14  A    between atoms: C_13  and  C_27
                            x       y       z     vdW  Elec       q    Type
                         _______ _______ _______ _____ _____    ______ ____

>  <TORSDO>
F 14

$$$$
=
 OpenBabel11052417103D

 30 30  0  0  1  0  0  0  0  0999 V2000
  190.7530  173.3050  143.2740 C   0  0  2  0  0  0  0  0  0  0  0  0
  189.0390  172.6970  140.9250 C   0  0  0  0  0  2  0  0  0  0  0  0
  189.6370  174.0920  141.0800 C   0  0  0  0  0  2  0  0  0  0  0  0
  191.6710  171.0450  142.9840 C   0  0  0  0  0  1  0  0  0  0  0  0
  189.7400  171.6620  141.8090 C   0  0  0  0  0  2  0  0  0  0  0  0
  189.9180  174.4130  142.5490 C   0  0  1  0  0  3  0  0  0  0  0  0
  191.0070  172.1720  142.3370 N   0  0  0  0  0  0  0  0  0  0  0  0
  190.0120  172.8230  144.5370 C   0  0  0  0  0  1  0  0  0  0  0  0
  192.0800  173.9900  143.6930 C   0  0  1  0  0  3  0  0  0  0  0  0
  192.5820  175.0550  142.7280 C   0  0  0  0  0  1  0  0  0  0  0  0
  191.9930  174.5480  145.0350 N   0  0  0  0  0  2  0  0  0  0  0  0
  193.3320  174.4900  145.6020 C   0  0  0  0  0  2  0  0  0  0  0  0
  193.5920  175.7150  146.4670 C   0  0  2  0  0  3  0  0  0  0  0  0
  192.2920  176.2170  147.0700 C   0  0  0  0  0  1  0  0  0  0  0  0
  194.3170  176.8220  145.7050 C   0  0  0  0  0  2  0  0  0  0  0  0
  195.3370  176.2780  144.7160 C   0  0  0  0  0  1  0  0  0  0  0  0
  188.7090  174.7700  143.2160 O   0  0  0  0  0  0  0  0  0  0  0  0
  188.0290  175.9610  142.9540 C   0  0  0  0  0  0  0  0  0  0  0  0
  186.8370  175.8990  142.3710 C   0  0  0  0  0  2  0  0  0  0  0  0
  188.6390  177.2960  143.2970 C   0  0  2  0  0  3  0  0  0  0  0  0
  189.2240  177.8570  142.1580 O   0  0  0  0  0  1  0  0  0  0  0  0
  189.6600  177.1810  144.4310 C   0  0  1  0  0  3  0  0  0  0  0  0
  190.8840  178.0300  144.1280 C   0  0  0  0  0  1  0  0  0  0  0  0
  189.0520  177.6570  145.7500 C   0  0  0  0  0  2  0  0  0  0  0  0
  187.9550  176.7310  146.2800 C   0  0  1  0  0  3  0  0  0  0  0  0
  189.0230  174.5830  147.4680 C   0  0  0  0  0  3  0  0  0  0  0  0
  188.5380  175.5500  146.9330 C   0  0  0  0  0  0  0  0  0  0  0  0
  187.0040  177.4670  147.2190 C   0  0  0  0  0  2  0  0  0  0  0  0
  185.3140  177.2950  145.3830 C   0  0  0  0  0  1  0  0  0  0  0  0
  185.5500  177.1830  146.8770 C   0  0  0  0  0  2  0  0  0  0  0  0
  1  9  1  0  0  0  0
  1  8  1  1  0  0  0
  2  3  1  0  0  0  0
  2  5  1  0  0  0  0
  3  6  1  0  0  0  0
  5  7  1  0  0  0  0
  6 17  1  1  0  0  0
  6  1  1  0  0  0  0
  7  4  1  0  0  0  0
  7  1  1  0  0  0  0
  9 10  1  6  0  0  0
  9 11  1  0  0  0  0
 11 12  1  0  0  0  0
 12 13  1  0  0  0  0
 13 14  1  6  0  0  0
 15 13  1  0  0  0  0
 16 15  1  0  0  0  0
 18 17  1  0  0  0  0
 18 20  1  0  0  0  0
 19 18  2  0  0  0  0
 20 21  1  6  0  0  0
 20 22  1  0  0  0  0
 22 23  1  6  0  0  0
 22 24  1  0  0  0  0
 25 24  1  1  0  0  0
 25 27  1  0  0  0  0
 25 28  1  0  0  0  0
 27 26  3  0  0  0  0
 29 30  1  0  0  0  0
 30 28  1  0  0  0  0
M  END
>  <MODEL>
4

>  <REMARK>
 VINA RESULT:      -5.6      1.842      4.891
  Name = 
  14 active torsions:
  status: ('A' for Active; 'I' for Inactive)
    1  A    between atoms: C_1  and  O_2
    2  A    between atoms: C_1  and  C_4
    3  A    between atoms: O_2  and  C_22
    4  A    between atoms: C_3  and  C_11
    5  A    between atoms: C_4  and  C_27
    6  A    between atoms: C_6  and  C_8
    7  A    between atoms: C_6  and  C_21
    8  A    between atoms: C_7  and  C_10
    9  A    between atoms: C_7  and  C_15
   10  A    between atoms: C_8  and  C_12
   11  A    between atoms: C_8  and  C_13
   12  A    between atoms: C_10  and  N_25
   13  A    between atoms: C_11  and  N_25
   14  A    between atoms: C_13  and  C_27
                            x       y       z     vdW  Elec       q    Type
                         _______ _______ _______ _____ _____    ______ ____

>  <TORSDO>
F 14

$$$$
=
 OpenBabel11052417103D

 30 30  0  0  1  0  0  0  0  0999 V2000
  194.3250  174.7210  144.8140 C   0  0  2  0  0  0  0  0  0  0  0  0
  195.4950  174.7050  142.0830 C   0  0  0  0  0  2  0  0  0  0  0  0
  194.8570  175.9820  142.6220 C   0  0  0  0  0  2  0  0  0  0  0  0
  196.2400  173.3280  145.4660 C   0  0  0  0  0  1  0  0  0  0  0  0
  195.8080  173.6980  143.1930 C   0  0  0  0  0  2  0  0  0  0  0  0
  193.8010  175.6680  143.6830 C   0  0  1  0  0  3  0  0  0  0  0  0
  195.7300  174.3140  144.5180 N   0  0  0  0  0  0  0  0  0  0  0  0
  193.4080  173.4880  144.9420 C   0  0  0  0  0  1  0  0  0  0  0  0
  194.2470  175.5500  146.1210 C   0  0  1  0  0  3  0  0  0  0  0  0
  194.4460  177.0490  145.9400 C   0  0  0  0  0  1  0  0  0  0  0  0
  193.0040  175.3050  146.8370 N   0  0  0  0  0  2  0  0  0  0  0  0
  192.3120  176.5820  146.9290 C   0  0  0  0  0  2  0  0  0  0  0  0
  190.8310  176.4020  146.6290 C   0  0  2  0  0  3  0  0  0  0  0  0
  190.0010  177.3250  147.5040 C   0  0  0  0  0  1  0  0  0  0  0  0
  190.3810  174.9480  146.7670 C   0  0  0  0  0  2  0  0  0  0  0  0
  188.9890  174.8230  147.3660 C   0  0  0  0  0  1  0  0  0  0  0  0
  192.5930  175.2310  143.0620 O   0  0  0  0  0  0  0  0  0  0  0  0
  191.4180  175.9850  143.0890 C   0  0  0  0  0  0  0  0  0  0  0  0
  191.5130  177.3090  143.1230 C   0  0  0  0  0  2  0  0  0  0  0  0
  190.0670  175.3190  143.1080 C   0  0  2  0  0  3  0  0  0  0  0  0
  190.0290  174.2940  142.1570 O   0  0  0  0  0  1  0  0  0  0  0  0
  188.9340  176.3210  142.8720 C   0  0  1  0  0  3  0  0  0  0  0  0
  188.2170  176.0090  141.5690 C   0  0  0  0  0  1  0  0  0  0  0  0
  187.9190  176.2600  144.0130 C   0  0  0  0  0  2  0  0  0  0  0  0
  187.5730  177.6360  144.5880 C   0  0  1  0  0  3  0  0  0  0  0  0
  185.9950  178.9970  142.9090 C   0  0  0  0  0  3  0  0  0  0  0  0
  186.7040  178.3840  143.6680 C   0  0  0  0  0  0  0  0  0  0  0  0
  186.9430  177.5230  145.9730 C   0  0  0  0  0  2  0  0  0  0  0  0
  184.5140  177.7490  146.5210 C   0  0  0  0  0  1  0  0  0  0  0  0
  185.5780  176.8550  145.9140 C   0  0  0  0  0  2  0  0  0  0  0  0
  1  8  1  1  0  0  0
  1  9  1  0  0  0  0
  2  3  1  0  0  0  0
  2  5  1  0  0  0  0
  3  6  1  0  0  0  0
  5  7  1  0  0  0  0
  6 17  1  6  0  0  0
  6  1  1  0  0  0  0
  7  1  1  0  0  0  0
  7  4  1  0  0  0  0
  9 10  1  6  0  0  0
  9 11  1  0  0  0  0
 11 12  1  0  0  0  0
 13 15  1  0  0  0  0
 13 12  1  0  0  0  0
 13 14  1  1  0  0  0
 15 16  1  0  0  0  0
 17 18  1  0  0  0  0
 18 20  1  0  0  0  0
 18 19  2  0  0  0  0
 20 21  1  6  0  0  0
 22 23  1  6  0  0  0
 22 20  1  0  0  0  0
 22 24  1  0  0  0  0
 24 25  1  0  0  0  0
 25 27  1  6  0  0  0
 25 28  1  0  0  0  0
 26 27  3  0  0  0  0
 30 28  1  0  0  0  0
 30 29  1  0  0  0  0
M  END
>  <MODEL>
5

>  <REMARK>
 VINA RESULT:      -5.5      2.041      3.851
  Name = 
  14 active torsions:
  status: ('A' for Active; 'I' for Inactive)
    1  A    between atoms: C_1  and  O_2
    2  A    between atoms: C_1  and  C_4
    3  A    between atoms: O_2  and  C_22
    4  A    between atoms: C_3  and  C_11
    5  A    between atoms: C_4  and  C_27
    6  A    between atoms: C_6  and  C_8
    7  A    between atoms: C_6  and  C_21
    8  A    between atoms: C_7  and  C_10
    9  A    between atoms: C_7  and  C_15
   10  A    between atoms: C_8  and  C_12
   11  A    between atoms: C_8  and  C_13
   12  A    between atoms: C_10  and  N_25
   13  A    between atoms: C_11  and  N_25
   14  A    between atoms: C_13  and  C_27
                            x       y       z     vdW  Elec       q    Type
                         _______ _______ _______ _____ _____    ______ ____

>  <TORSDO>
F 14

$$$$
=
 OpenBabel11052417103D

 30 30  0  0  1  0  0  0  0  0999 V2000
  191.2300  173.6290  143.3180 C   0  0  2  0  0  0  0  0  0  0  0  0
  188.6710  172.8180  142.0440 C   0  0  0  0  0  2  0  0  0  0  0  0
  189.4280  174.0310  141.5090 C   0  0  0  0  0  2  0  0  0  0  0  0
  191.7080  171.2280  143.5070 C   0  0  0  0  0  1  0  0  0  0  0  0
  189.5480  171.9280  142.9280 C   0  0  0  0  0  2  0  0  0  0  0  0
  190.3000  174.6620  142.5950 C   0  0  1  0  0  3  0  0  0  0  0  0
  190.9680  172.2590  142.7880 N   0  0  0  0  0  0  0  0  0  0  0  0
  191.0020  173.6860  144.8420 C   0  0  0  0  0  1  0  0  0  0  0  0
  192.6790  174.0820  143.0030 C   0  0  1  0  0  3  0  0  0  0  0  0
  192.7850  175.2960  142.0900 C   0  0  0  0  0  1  0  0  0  0  0  0
  193.4420  174.3170  144.2200 N   0  0  0  0  0  2  0  0  0  0  0  0
  193.7390  175.7410  144.2630 C   0  0  0  0  0  2  0  0  0  0  0  0
  194.7230  176.0410  145.3840 C   0  0  2  0  0  3  0  0  0  0  0  0
  195.3330  174.7520  145.9070 C   0  0  0  0  0  1  0  0  0  0  0  0
  194.0910  176.8560  146.5120 C   0  0  0  0  0  2  0  0  0  0  0  0
  192.6820  176.3910  146.8490 C   0  0  0  0  0  1  0  0  0  0  0  0
  189.5000  175.4490  143.4750 O   0  0  0  0  0  0  0  0  0  0  0  0
  189.3720  176.8330  143.3380 C   0  0  0  0  0  0  0  0  0  0  0  0
  190.1880  177.6190  144.0300 C   0  0  0  0  0  2  0  0  0  0  0  0
  188.3130  177.4320  142.4480 C   0  0  2  0  0  3  0  0  0  0  0  0
  188.8580  178.4810  141.7020 O   0  0  0  0  0  1  0  0  0  0  0  0
  187.0990  177.9080  143.2490 C   0  0  1  0  0  3  0  0  0  0  0  0
  186.0320  178.4550  142.3150 C   0  0  0  0  0  1  0  0  0  0  0  0
  186.4980  176.7520  144.0490 C   0  0  0  0  0  2  0  0  0  0  0  0
  186.4090  177.0380  145.5500 C   0  0  1  0  0  3  0  0  0  0  0  0
  188.3360  175.7380  146.8770 C   0  0  0  0  0  3  0  0  0  0  0  0
  187.4660  176.3250  146.2820 C   0  0  0  0  0  0  0  0  0  0  0  0
  186.4520  178.5350  145.8400 C   0  0  0  0  0  2  0  0  0  0  0  0
  184.1390  178.0670  146.6680 C   0  0  0  0  0  1  0  0  0  0  0  0
  185.0580  179.1050  146.0530 C   0  0  0  0  0  2  0  0  0  0  0  0
  1  8  1  1  0  0  0
  2  5  1  0  0  0  0
  3  2  1  0  0  0  0
  3  6  1  0  0  0  0
  6  1  1  0  0  0  0
  6 17  1  1  0  0  0
  7  5  1  0  0  0  0
  7  1  1  0  0  0  0
  7  4  1  0  0  0  0
  9 10  1  1  0  0  0
  9  1  1  0  0  0  0
  9 11  1  0  0  0  0
 11 12  1  0  0  0  0
 12 13  1  0  0  0  0
 13 14  1  1  0  0  0
 13 15  1  0  0  0  0
 15 16  1  0  0  0  0
 18 17  1  0  0  0  0
 18 19  2  0  0  0  0
 20 21  1  1  0  0  0
 20 22  1  0  0  0  0
 20 18  1  0  0  0  0
 22 23  1  6  0  0  0
 22 24  1  0  0  0  0
 25 24  1  6  0  0  0
 25 28  1  0  0  0  0
 25 27  1  0  0  0  0
 27 26  3  0  0  0  0
 28 30  1  0  0  0  0
 30 29  1  0  0  0  0
M  END
>  <MODEL>
6

>  <REMARK>
 VINA RESULT:      -5.4      1.607      4.732
  Name = 
  14 active torsions:
  status: ('A' for Active; 'I' for Inactive)
    1  A    between atoms: C_1  and  O_2
    2  A    between atoms: C_1  and  C_4
    3  A    between atoms: O_2  and  C_22
    4  A    between atoms: C_3  and  C_11
    5  A    between atoms: C_4  and  C_27
    6  A    between atoms: C_6  and  C_8
    7  A    between atoms: C_6  and  C_21
    8  A    between atoms: C_7  and  C_10
    9  A    between atoms: C_7  and  C_15
   10  A    between atoms: C_8  and  C_12
   11  A    between atoms: C_8  and  C_13
   12  A    between atoms: C_10  and  N_25
   13  A    between atoms: C_11  and  N_25
   14  A    between atoms: C_13  and  C_27
                            x       y       z     vdW  Elec       q    Type
                         _______ _______ _______ _____ _____    ______ ____

>  <TORSDO>
F 14

$$$$
=
 OpenBabel11052417103D

 30 30  0  0  1  0  0  0  0  0999 V2000
  192.9360  175.7350  143.8750 C   0  0  2  0  0  0  0  0  0  0  0  0
  194.2160  176.3450  146.4860 C   0  0  0  0  0  2  0  0  0  0  0  0
  193.2250  175.1880  146.3840 C   0  0  0  0  0  2  0  0  0  0  0  0
  195.1190  176.2460  142.8710 C   0  0  0  0  0  1  0  0  0  0  0  0
  194.7290  176.7940  145.1150 C   0  0  0  0  0  2  0  0  0  0  0  0
  192.2380  175.4050  145.2370 C   0  0  1  0  0  3  0  0  0  0  0  0
  194.4130  175.8150  144.0740 N   0  0  0  0  0  0  0  0  0  0  0  0
  192.3830  177.0540  143.3000 C   0  0  0  0  0  1  0  0  0  0  0  0
  192.5640  174.5690  142.9230 C   0  0  1  0  0  3  0  0  0  0  0  0
  192.6100  173.1860  143.5570 C   0  0  0  0  0  1  0  0  0  0  0  0
  191.2630  174.7800  142.3030 N   0  0  0  0  0  2  0  0  0  0  0  0
  191.0100  173.6260  141.4530 C   0  0  0  0  0  2  0  0  0  0  0  0
  189.5280  173.2810  141.4610 C   0  0  2  0  0  3  0  0  0  0  0  0
  188.6970  174.5390  141.6420 C   0  0  0  0  0  1  0  0  0  0  0  0
  189.1810  172.2270  142.5110 C   0  0  0  0  0  2  0  0  0  0  0  0
  190.0940  171.0120  142.4430 C   0  0  0  0  0  1  0  0  0  0  0  0
  191.2310  176.3380  145.6230 O   0  0  0  0  0  0  0  0  0  0  0  0
  189.8970  175.9700  145.8120 C   0  0  0  0  0  0  0  0  0  0  0  0
  189.5810  174.6810  145.7720 C   0  0  0  0  0  2  0  0  0  0  0  0
  188.8270  177.0090  146.0280 C   0  0  2  0  0  3  0  0  0  0  0  0
  189.0570  177.6830  147.2310 O   0  0  0  0  0  1  0  0  0  0  0  0
  187.4250  176.3950  146.0100 C   0  0  1  0  0  3  0  0  0  0  0  0
  186.6370  176.8380  147.2320 C   0  0  0  0  0  1  0  0  0  0  0  0
  186.6660  176.8310  144.7570 C   0  0  0  0  0  2  0  0  0  0  0  0
  187.0840  178.2120  144.2470 C   0  0  1  0  0  3  0  0  0  0  0  0
  188.0580  178.0590  141.7580 C   0  0  0  0  0  3  0  0  0  0  0  0
  187.6200  178.1250  142.8810 C   0  0  0  0  0  0  0  0  0  0  0  0
  185.9340  179.2120  144.3250 C   0  0  0  0  0  2  0  0  0  0  0  0
  184.0260  178.8800  145.9070 C   0  0  0  0  0  1  0  0  0  0  0  0
  184.6010  178.5160  144.5530 C   0  0  0  0  0  2  0  0  0  0  0  0
  1  8  1  6  0  0  0
  1  7  1  0  0  0  0
  1  6  1  0  0  0  0
  3  2  1  0  0  0  0
  4  7  1  0  0  0  0
  5  2  1  0  0  0  0
  6 17  1  1  0  0  0
  6  3  1  0  0  0  0
  7  5  1  0  0  0  0
  9 10  1  1  0  0  0
  9  1  1  0  0  0  0
 11  9  1  0  0  0  0
 12 13  1  0  0  0  0
 12 11  1  0  0  0  0
 13 14  1  1  0  0  0
 13 15  1  0  0  0  0
 16 15  1  0  0  0  0
 17 18  1  0  0  0  0
 18 20  1  0  0  0  0
 19 18  2  0  0  0  0
 20 21  1  1  0  0  0
 22 20  1  0  0  0  0
 22 23  1  1  0  0  0
 24 22  1  0  0  0  0
 25 27  1  6  0  0  0
 25 28  1  0  0  0  0
 25 24  1  0  0  0  0
 26 27  3  0  0  0  0
 28 30  1  0  0  0  0
 30 29  1  0  0  0  0
M  END
>  <MODEL>
7

>  <REMARK>
 VINA RESULT:      -5.3      1.374      2.195
  Name = 
  14 active torsions:
  status: ('A' for Active; 'I' for Inactive)
    1  A    between atoms: C_1  and  O_2
    2  A    between atoms: C_1  and  C_4
    3  A    between atoms: O_2  and  C_22
    4  A    between atoms: C_3  and  C_11
    5  A    between atoms: C_4  and  C_27
    6  A    between atoms: C_6  and  C_8
    7  A    between atoms: C_6  and  C_21
    8  A    between atoms: C_7  and  C_10
    9  A    between atoms: C_7  and  C_15
   10  A    between atoms: C_8  and  C_12
   11  A    between atoms: C_8  and  C_13
   12  A    between atoms: C_10  and  N_25
   13  A    between atoms: C_11  and  N_25
   14  A    between atoms: C_13  and  C_27
                            x       y       z     vdW  Elec       q    Type
                         _______ _______ _______ _____ _____    ______ ____

>  <TORSDO>
F 14

$$$$
=
 OpenBabel11052417103D

 30 30  0  0  1  0  0  0  0  0999 V2000
  191.2530  173.6780  143.1900 C   0  0  2  0  0  0  0  0  0  0  0  0
  188.7220  172.8500  141.8730 C   0  0  0  0  0  2  0  0  0  0  0  0
  189.4540  174.0960  141.3820 C   0  0  0  0  0  2  0  0  0  0  0  0
  191.7860  171.2840  143.3050 C   0  0  0  0  0  1  0  0  0  0  0  0
  189.6150  171.9520  142.7340 C   0  0  0  0  0  2  0  0  0  0  0  0
  190.3050  174.7120  142.4940 C   0  0  1  0  0  3  0  0  0  0  0  0
  191.0270  172.3210  142.6140 N   0  0  0  0  0  0  0  0  0  0  0  0
  191.0140  173.6800  144.7130 C   0  0  0  0  0  1  0  0  0  0  0  0
  192.6930  174.1740  142.9010 C   0  0  1  0  0  3  0  0  0  0  0  0
  192.7770  175.4380  142.0570 C   0  0  0  0  0  1  0  0  0  0  0  0
  193.4540  174.3550  144.1290 N   0  0  0  0  0  2  0  0  0  0  0  0
  193.7520  175.7760  144.2340 C   0  0  0  0  0  2  0  0  0  0  0  0
  194.7750  176.0200  145.3330 C   0  0  2  0  0  3  0  0  0  0  0  0
  195.3860  174.7040  145.7840 C   0  0  0  0  0  1  0  0  0  0  0  0
  194.1910  176.7960  146.5120 C   0  0  0  0  0  2  0  0  0  0  0  0
  192.7660  176.3750  146.8390 C   0  0  0  0  0  1  0  0  0  0  0  0
  189.4810  175.4520  143.3930 O   0  0  0  0  0  0  0  0  0  0  0  0
  189.3270  176.8370  143.3050 C   0  0  0  0  0  0  0  0  0  0  0  0
  190.2470  177.6160  143.8630 C   0  0  0  0  0  2  0  0  0  0  0  0
  188.1320  177.4450  142.6170 C   0  0  2  0  0  3  0  0  0  0  0  0
  188.5560  178.2920  141.5880 O   0  0  0  0  0  1  0  0  0  0  0  0
  187.2290  178.1940  143.6000 C   0  0  1  0  0  3  0  0  0  0  0  0
  186.1320  178.9330  142.8520 C   0  0  0  0  0  1  0  0  0  0  0  0
  186.5780  177.2190  144.5790 C   0  0  0  0  0  2  0  0  0  0  0  0
  186.9050  177.5220  146.0430 C   0  0  1  0  0  3  0  0  0  0  0  0
  184.8130  178.6650  147.2630 C   0  0  0  0  0  3  0  0  0  0  0  0
  185.7570  178.1480  146.7160 C   0  0  0  0  0  0  0  0  0  0  0  0
  187.3650  176.2730  146.7870 C   0  0  0  0  0  2  0  0  0  0  0  0
  189.3220  174.9230  147.5630 C   0  0  0  0  0  1  0  0  0  0  0  0
  188.8810  176.2080  146.8890 C   0  0  0  0  0  2  0  0  0  0  0  0
  1  8  1  1  0  0  0
  2  5  1  0  0  0  0
  3  2  1  0  0  0  0
  3  6  1  0  0  0  0
  6  1  1  0  0  0  0
  6 17  1  1  0  0  0
  7  5  1  0  0  0  0
  7  1  1  0  0  0  0
  7  4  1  0  0  0  0
  9 10  1  1  0  0  0
  9  1  1  0  0  0  0
  9 11  1  0  0  0  0
 11 12  1  0  0  0  0
 12 13  1  0  0  0  0
 13 14  1  1  0  0  0
 13 15  1  0  0  0  0
 15 16  1  0  0  0  0
 18 17  1  0  0  0  0
 18 19  2  0  0  0  0
 20 21  1  6  0  0  0
 20 18  1  0  0  0  0
 20 22  1  0  0  0  0
 22 23  1  6  0  0  0
 22 24  1  0  0  0  0
 25 24  1  6  0  0  0
 25 27  1  0  0  0  0
 25 28  1  0  0  0  0
 27 26  3  0  0  0  0
 28 30  1  0  0  0  0
 30 29  1  0  0  0  0
M  END
>  <MODEL>
8

>  <REMARK>
 VINA RESULT:      -5.3      1.560      4.769
  Name = 
  14 active torsions:
  status: ('A' for Active; 'I' for Inactive)
    1  A    between atoms: C_1  and  O_2
    2  A    between atoms: C_1  and  C_4
    3  A    between atoms: O_2  and  C_22
    4  A    between atoms: C_3  and  C_11
    5  A    between atoms: C_4  and  C_27
    6  A    between atoms: C_6  and  C_8
    7  A    between atoms: C_6  and  C_21
    8  A    between atoms: C_7  and  C_10
    9  A    between atoms: C_7  and  C_15
   10  A    between atoms: C_8  and  C_12
   11  A    between atoms: C_8  and  C_13
   12  A    between atoms: C_10  and  N_25
   13  A    between atoms: C_11  and  N_25
   14  A    between atoms: C_13  and  C_27
                            x       y       z     vdW  Elec       q    Type
                         _______ _______ _______ _____ _____    ______ ____

>  <TORSDO>
F 14

$$$$
=
 OpenBabel11052417103D

 30 30  0  0  1  0  0  0  0  0999 V2000
  190.6100  173.2310  143.5810 C   0  0  2  0  0  0  0  0  0  0  0  0
  188.3350  174.4330  142.0960 C   0  0  0  0  0  2  0  0  0  0  0  0
  189.5960  175.2570  142.3390 C   0  0  0  0  0  2  0  0  0  0  0  0
  190.0960  171.1590  142.3670 C   0  0  0  0  0  1  0  0  0  0  0  0
  188.5690  172.9350  142.3090 C   0  0  0  0  0  2  0  0  0  0  0  0
  190.3420  174.7740  143.5830 C   0  0  1  0  0  3  0  0  0  0  0  0
  189.9960  172.6150  142.3690 N   0  0  0  0  0  0  0  0  0  0  0  0
  190.0500  172.5940  144.8690 C   0  0  0  0  0  1  0  0  0  0  0  0
  192.1520  173.0760  143.5670 C   0  0  1  0  0  3  0  0  0  0  0  0
  192.8520  173.7560  142.3980 C   0  0  0  0  0  1  0  0  0  0  0  0
  192.7470  173.5220  144.8190 N   0  0  0  0  0  2  0  0  0  0  0  0
  194.1550  173.1570  144.7690 C   0  0  0  0  0  2  0  0  0  0  0  0
  195.0080  174.2680  145.3640 C   0  0  2  0  0  3  0  0  0  0  0  0
  194.1320  175.2660  146.1010 C   0  0  0  0  0  1  0  0  0  0  0  0
  195.8790  174.9580  144.3160 C   0  0  0  0  0  2  0  0  0  0  0  0
  195.6320  176.4580  144.2480 C   0  0  0  0  0  1  0  0  0  0  0  0
  189.7020  175.2590  144.7620 O   0  0  0  0  0  0  0  0  0  0  0  0
  189.8740  176.5640  145.2280 C   0  0  0  0  0  0  0  0  0  0  0  0
  191.0490  177.1550  145.0440 C   0  0  0  0  0  2  0  0  0  0  0  0
  188.7650  177.2840  145.9500 C   0  0  2  0  0  3  0  0  0  0  0  0
  189.1730  177.6050  147.2480 O   0  0  0  0  0  1  0  0  0  0  0  0
  187.4740  176.4620  145.9750 C   0  0  1  0  0  3  0  0  0  0  0  0
  186.6780  176.7660  147.2340 C   0  0  0  0  0  1  0  0  0  0  0  0
  186.6060  176.7900  144.7610 C   0  0  0  0  0  2  0  0  0  0  0  0
  186.9200  178.1550  144.1440 C   0  0  1  0  0  3  0  0  0  0  0  0
  187.1140  177.9680  141.4810 C   0  0  0  0  0  3  0  0  0  0  0  0
  187.0260  178.0560  142.6810 C   0  0  0  0  0  0  0  0  0  0  0  0
  185.8920  179.2060  144.5520 C   0  0  0  0  0  2  0  0  0  0  0  0
  183.8970  178.6830  145.9650 C   0  0  0  0  0  1  0  0  0  0  0  0
  184.4830  178.6350  144.5680 C   0  0  0  0  0  2  0  0  0  0  0  0
  1  6  1  0  0  0  0
  1  8  1  1  0  0  0
  2  5  1  0  0  0  0
  2  3  1  0  0  0  0
  3  6  1  0  0  0  0
  4  7  1  0  0  0  0
  5  7  1  0  0  0  0
  6 17  1  1  0  0  0
  7  1  1  0  0  0  0
  9 10  1  6  0  0  0
  9  1  1  0  0  0  0
  9 11  1  0  0  0  0
 12 11  1  0  0  0  0
 12 13  1  0  0  0  0
 13 14  1  6  0  0  0
 15 13  1  0  0  0  0
 16 15  1  0  0  0  0
 17 18  1  0  0  0  0
 18 20  1  0  0  0  0
 19 18  2  0  0  0  0
 20 22  1  0  0  0  0
 20 21  1  1  0  0  0
 22 23  1  1  0  0  0
 24 22  1  0  0  0  0
 25 27  1  6  0  0  0
 25 28  1  0  0  0  0
 25 24  1  0  0  0  0
 26 27  3  0  0  0  0
 28 30  1  0  0  0  0
 30 29  1  0  0  0  0
M  END
>  <MODEL>
9

>  <REMARK>
 VINA RESULT:      -5.3      1.566      4.466
  Name = 
  14 active torsions:
  status: ('A' for Active; 'I' for Inactive)
    1  A    between atoms: C_1  and  O_2
    2  A    between atoms: C_1  and  C_4
    3  A    between atoms: O_2  and  C_22
    4  A    between atoms: C_3  and  C_11
    5  A    between atoms: C_4  and  C_27
    6  A    between atoms: C_6  and  C_8
    7  A    between atoms: C_6  and  C_21
    8  A    between atoms: C_7  and  C_10
    9  A    between atoms: C_7  and  C_15
   10  A    between atoms: C_8  and  C_12
   11  A    between atoms: C_8  and  C_13
   12  A    between atoms: C_10  and  N_25
   13  A    between atoms: C_11  and  N_25
   14  A    between atoms: C_13  and  C_27
                            x       y       z     vdW  Elec       q    Type
                         _______ _______ _______ _____ _____    ______ ____

>  <TORSDO>
F 14

$$$$
