=
 OpenBabel11052418023D

 28 34  0  0  1  0  0  0  0  0999 V2000
  191.3920  174.3280  144.3690 C   0  0  1  0  0  3  0  0  0  0  0  0
  190.7620  176.1110  147.4060 C   0  0  2  0  0  3  0  0  0  0  0  0
  193.1850  175.5350  146.8060 C   0  0  0  0  0  2  0  0  0  0  0  0
  190.4510  174.7980  145.3240 O   0  0  0  0  0  0  0  0  0  0  0  0
  193.6940  174.6970  145.5920 C   0  0  0  0  0  2  0  0  0  0  0  0
  190.4190  177.0750  146.2950 C   0  0  1  0  0  3  0  0  0  0  0  0
  191.8260  175.1350  147.1140 N   0  0  2  0  0  0  0  0  0  0  0  0
  192.6690  173.6800  144.9950 C   0  0  0  0  0  2  0  0  0  0  0  0
  191.1560  175.7890  145.9930 C   0  0  1  0  0  0  0  0  0  0  0  0
  186.7180  178.3850  143.0240 C   0  0  0  0  0  3  0  0  0  0  0  0
  186.2820  178.1460  145.4690 C   0  0  1  0  0  3  0  0  0  0  0  0
  188.5890  177.7870  144.5590 C   0  0  0  0  0  2  0  0  0  0  0  0
  184.4340  178.6000  143.8720 C   0  0  0  0  0  0  0  0  0  0  0  0
  187.1010  177.6460  144.2750 C   0  0  2  0  0  3  0  0  0  0  0  0
  188.1170  177.6210  146.9890 N   0  0  0  0  0  2  0  0  0  0  0  0
  184.7930  177.9620  145.1860 C   0  0  0  0  0  2  0  0  0  0  0  0
  186.7010  177.3760  146.7140 C   0  0  0  0  0  2  0  0  0  0  0  0
  183.2450  178.9450  143.6500 O   0  0  0  0  0  0  0  0  0  0  0  0
  185.4610  178.7980  142.8300 C   0  0  0  0  0  3  0  0  0  0  0  0
  188.9260  177.0850  145.8900 C   0  0  2  0  0  3  0  0  0  0  0  0
  190.7680  173.4040  143.5280 O   0  0  0  0  0  0  0  0  0  0  0  0
  190.8020  173.9870  142.2530 C   0  0  2  0  0  3  0  0  0  0  0  0
  188.1320  173.3210  141.9680 C   0  0  0  0  0  2  0  0  0  0  0  0
  189.8580  175.1930  142.1850 C   0  0  0  0  0  2  0  0  0  0  0  0
  189.9280  171.6570  141.6070 C   0  0  0  0  0  2  0  0  0  0  0  0
  190.5250  172.9690  141.1210 C   0  0  1  0  0  3  0  0  0  0  0  0
  189.0310  172.6650  140.9210 C   0  0  2  0  0  3  0  0  0  0  0  0
  188.3770  174.8260  142.0200 C   0  0  0  0  0  2  0  0  0  0  0  0
  1 21  1  6  0  0  0
  1  8  1  0  0  0  0
  1  4  1  0  0  0  0
  3  7  1  0  0  0  0
  4  9  1  0  0  0  0
  5  3  1  0  0  0  0
  6  2  1  0  0  0  0
  7  2  1  0  0  0  0
  8  5  1  0  0  0  0
  9  6  1  0  0  0  0
  9  7  1  0  0  0  0
  9  2  1  0  0  0  0
 10 14  1  0  0  0  0
 11 17  1  0  0  0  0
 12 20  1  0  0  0  0
 13 16  1  0  0  0  0
 14 12  1  0  0  0  0
 14 11  1  0  0  0  0
 16 11  1  0  0  0  0
 17 15  1  0  0  0  0
 18 13  2  0  0  0  0
 19 10  2  0  0  0  0
 19 13  1  0  0  0  0
 20  6  1  0  0  0  0
 20 15  1  0  0  0  0
 22 21  1  0  0  0  0
 23 28  1  0  0  0  0
 24 22  1  0  0  0  0
 26 25  1  0  0  0  0
 26 22  1  0  0  0  0
 27 26  1  0  0  0  0
 27 25  1  0  0  0  0
 27 23  1  0  0  0  0
 28 24  1  0  0  0  0
M  END
>  <MODEL>
1

>  <REMARK>
 VINA RESULT:      -7.6      0.000      0.000
  Name = 
  3 active torsions:
  status: ('A' for Active; 'I' for Inactive)
    1  A    between atoms: C_1  and  O_2
    2  A    between atoms: O_2  and  C_3
    3  A    between atoms: C_20  and  C_25
                            x       y       z     vdW  Elec       q    Type
                         _______ _______ _______ _____ _____    ______ ____

>  <TORSDO>
F 3

$$$$
=
 OpenBabel11052418023D

 28 34  0  0  1  0  0  0  0  0999 V2000
  190.6590  174.6580  144.6520 C   0  0  1  0  0  3  0  0  0  0  0  0
  189.1370  177.0020  146.8850 C   0  0  2  0  0  3  0  0  0  0  0  0
  191.6230  176.4610  147.1880 C   0  0  0  0  0  2  0  0  0  0  0  0
  189.4730  175.2610  145.1500 O   0  0  0  0  0  0  0  0  0  0  0  0
  192.4750  175.4170  146.4010 C   0  0  0  0  0  2  0  0  0  0  0  0
  189.1600  177.6860  145.5390 C   0  0  1  0  0  3  0  0  0  0  0  0
  190.2320  176.0530  147.1510 N   0  0  2  0  0  0  0  0  0  0  0  0
  191.6760  174.2360  145.7620 C   0  0  0  0  0  2  0  0  0  0  0  0
  189.9460  176.4130  145.7660 C   0  0  1  0  0  0  0  0  0  0  0  0
  186.7120  177.8330  141.0560 C   0  0  0  0  0  3  0  0  0  0  0  0
  185.5390  178.3070  143.2060 C   0  0  1  0  0  3  0  0  0  0  0  0
  187.9900  177.7850  143.1970 C   0  0  0  0  0  2  0  0  0  0  0  0
  184.2940  178.2000  141.0590 C   0  0  0  0  0  0  0  0  0  0  0  0
  186.6540  177.5100  142.5220 C   0  0  2  0  0  3  0  0  0  0  0  0
  186.7900  178.3220  145.3000 N   0  0  0  0  0  2  0  0  0  0  0  0
  184.1990  177.9910  142.5450 C   0  0  0  0  0  2  0  0  0  0  0  0
  185.5150  177.9540  144.6870 C   0  0  0  0  0  2  0  0  0  0  0  0
  183.2510  178.4180  140.3920 O   0  0  0  0  0  0  0  0  0  0  0  0
  185.6000  178.1230  140.3740 C   0  0  0  0  0  3  0  0  0  0  0  0
  187.8660  177.5190  144.7100 C   0  0  2  0  0  3  0  0  0  0  0  0
  190.3180  173.5400  143.8870 O   0  0  0  0  0  0  0  0  0  0  0  0
  190.7990  173.8170  142.5990 C   0  0  2  0  0  3  0  0  0  0  0  0
  188.3410  173.0310  141.6020 C   0  0  0  0  0  2  0  0  0  0  0  0
  189.9920  174.9500  141.9530 C   0  0  0  0  0  2  0  0  0  0  0  0
  190.0680  171.3780  142.2410 C   0  0  0  0  0  2  0  0  0  0  0  0
  190.8580  172.5600  141.6990 C   0  0  1  0  0  3  0  0  0  0  0  0
  189.5000  172.1780  141.0880 C   0  0  2  0  0  3  0  0  0  0  0  0
  188.6320  174.5150  141.3930 C   0  0  0  0  0  2  0  0  0  0  0  0
  1 21  1  1  0  0  0
  1  4  1  0  0  0  0
  1  8  1  0  0  0  0
  2  7  1  0  0  0  0
  4  9  1  0  0  0  0
  5  3  1  0  0  0  0
  6  9  1  0  0  0  0
  6  2  1  0  0  0  0
  7  3  1  0  0  0  0
  8  5  1  0  0  0  0
  9  2  1  0  0  0  0
  9  7  1  0  0  0  0
 10 14  1  0  0  0  0
 11 17  1  0  0  0  0
 12 20  1  0  0  0  0
 13 16  1  0  0  0  0
 14 12  1  0  0  0  0
 14 11  1  0  0  0  0
 16 11  1  0  0  0  0
 17 15  1  0  0  0  0
 18 13  2  0  0  0  0
 19 10  2  0  0  0  0
 19 13  1  0  0  0  0
 20 15  1  0  0  0  0
 20  6  1  0  0  0  0
 22 21  1  0  0  0  0
 24 22  1  0  0  0  0
 26 25  1  0  0  0  0
 26 22  1  0  0  0  0
 27 23  1  0  0  0  0
 27 26  1  0  0  0  0
 27 25  1  0  0  0  0
 28 23  1  0  0  0  0
 28 24  1  0  0  0  0
M  END
>  <MODEL>
2

>  <REMARK>
 VINA RESULT:      -7.5      1.374      1.756
  Name = 
  3 active torsions:
  status: ('A' for Active; 'I' for Inactive)
    1  A    between atoms: C_1  and  O_2
    2  A    between atoms: O_2  and  C_3
    3  A    between atoms: C_20  and  C_25
                            x       y       z     vdW  Elec       q    Type
                         _______ _______ _______ _____ _____    ______ ____

>  <TORSDO>
F 3

$$$$
=
 OpenBabel11052418023D

 28 34  0  0  1  0  0  0  0  0999 V2000
  192.7500  174.4080  143.2690 C   0  0  1  0  0  3  0  0  0  0  0  0
  189.9970  174.0360  141.0160 C   0  0  2  0  0  3  0  0  0  0  0  0
  191.8260  172.2430  141.0170 C   0  0  0  0  0  2  0  0  0  0  0  0
  191.6010  174.9770  142.6570 O   0  0  0  0  0  0  0  0  0  0  0  0
  193.1520  172.2340  141.8400 C   0  0  0  0  0  2  0  0  0  0  0  0
  189.4140  173.8450  142.3960 C   0  0  1  0  0  3  0  0  0  0  0  0
  191.3970  173.6160  140.8370 N   0  0  2  0  0  0  0  0  0  0  0  0
  193.6840  173.6350  142.2820 C   0  0  0  0  0  2  0  0  0  0  0  0
  190.9130  173.8640  142.1920 C   0  0  1  0  0  0  0  0  0  0  0  0
  188.1140  176.5640  146.5230 C   0  0  0  0  0  3  0  0  0  0  0  0
  186.8940  176.8000  144.3590 C   0  0  1  0  0  3  0  0  0  0  0  0
  188.7830  175.1670  144.5690 C   0  0  0  0  0  2  0  0  0  0  0  0
  186.3690  178.2630  146.2970 C   0  0  0  0  0  0  0  0  0  0  0  0
  188.2420  176.5140  145.0270 C   0  0  2  0  0  3  0  0  0  0  0  0
  187.4990  175.3960  142.4580 N   0  0  0  0  0  2  0  0  0  0  0  0
  186.3830  178.1720  144.7960 C   0  0  0  0  0  2  0  0  0  0  0  0
  187.0660  176.7370  142.8470 C   0  0  0  0  0  2  0  0  0  0  0  0
  185.6100  179.0910  146.8650 O   0  0  0  0  0  0  0  0  0  0  0  0
  187.2580  177.4080  147.1080 C   0  0  0  0  0  3  0  0  0  0  0  0
  188.8230  175.1260  143.0290 C   0  0  2  0  0  3  0  0  0  0  0  0
  193.4790  175.4180  143.9030 O   0  0  0  0  0  0  0  0  0  0  0  0
  193.9980  174.8230  145.0610 C   0  0  2  0  0  3  0  0  0  0  0  0
  192.4070  176.5280  146.5490 C   0  0  0  0  0  2  0  0  0  0  0  0
  192.8890  174.1180  145.8510 C   0  0  0  0  0  2  0  0  0  0  0  0
  194.5580  177.2770  145.5830 C   0  0  0  0  0  2  0  0  0  0  0  0
  194.7930  175.8180  145.9400 C   0  0  1  0  0  3  0  0  0  0  0  0
  193.9000  176.7080  146.8210 C   0  0  2  0  0  3  0  0  0  0  0  0
  192.0090  175.0610  146.6830 C   0  0  0  0  0  2  0  0  0  0  0  0
  1 21  1  6  0  0  0
  2  9  1  0  0  0  0
  2  6  1  0  0  0  0
  3  5  1  0  0  0  0
  4  1  1  0  0  0  0
  5  8  1  0  0  0  0
  6 20  1  0  0  0  0
  7  2  1  0  0  0  0
  7  3  1  0  0  0  0
  7  9  1  0  0  0  0
  8  1  1  0  0  0  0
  9  6  1  0  0  0  0
  9  4  1  0  0  0  0
 10 19  2  0  0  0  0
 11 16  1  0  0  0  0
 11 14  1  0  0  0  0
 12 14  1  0  0  0  0
 13 18  2  0  0  0  0
 13 19  1  0  0  0  0
 14 10  1  0  0  0  0
 15 17  1  0  0  0  0
 15 20  1  0  0  0  0
 16 13  1  0  0  0  0
 17 11  1  0  0  0  0
 20 12  1  0  0  0  0
 21 22  1  0  0  0  0
 22 24  1  0  0  0  0
 22 26  1  0  0  0  0
 23 28  1  0  0  0  0
 23 27  1  0  0  0  0
 24 28  1  0  0  0  0
 25 26  1  0  0  0  0
 25 27  1  0  0  0  0
 26 27  1  0  0  0  0
M  END
>  <MODEL>
3

>  <REMARK>
 VINA RESULT:      -7.3      2.350      4.954
  Name = 
  3 active torsions:
  status: ('A' for Active; 'I' for Inactive)
    1  A    between atoms: C_1  and  O_2
    2  A    between atoms: O_2  and  C_3
    3  A    between atoms: C_20  and  C_25
                            x       y       z     vdW  Elec       q    Type
                         _______ _______ _______ _____ _____    ______ ____

>  <TORSDO>
F 3

$$$$
=
 OpenBabel11052418023D

 28 34  0  0  1  0  0  0  0  0999 V2000
  191.4880  175.0690  144.0110 C   0  0  1  0  0  3  0  0  0  0  0  0
  190.6800  175.9580  147.3810 C   0  0  2  0  0  3  0  0  0  0  0  0
  193.1480  175.7140  146.7380 C   0  0  0  0  0  2  0  0  0  0  0  0
  190.5000  175.2140  145.0210 O   0  0  0  0  0  0  0  0  0  0  0  0
  193.7360  175.2540  145.3680 C   0  0  0  0  0  2  0  0  0  0  0  0
  190.2890  177.1540  146.5450 C   0  0  1  0  0  3  0  0  0  0  0  0
  191.8160  175.1620  146.8850 N   0  0  2  0  0  0  0  0  0  0  0  0
  192.7970  174.3640  144.4930 C   0  0  0  0  0  2  0  0  0  0  0  0
  191.1210  176.0410  145.9480 C   0  0  1  0  0  0  0  0  0  0  0  0
  186.6920  178.3890  143.1320 C   0  0  0  0  0  3  0  0  0  0  0  0
  186.1950  178.2640  145.5740 C   0  0  1  0  0  3  0  0  0  0  0  0
  188.5150  177.8230  144.7370 C   0  0  0  0  0  2  0  0  0  0  0  0
  184.3930  178.6830  143.9150 C   0  0  0  0  0  0  0  0  0  0  0  0
  187.0310  177.6980  144.4230 C   0  0  2  0  0  3  0  0  0  0  0  0
  187.9830  177.7720  147.1590 N   0  0  0  0  0  2  0  0  0  0  0  0
  184.7090  178.0960  145.2630 C   0  0  0  0  0  2  0  0  0  0  0  0
  186.5700  177.5420  146.8610 C   0  0  0  0  0  2  0  0  0  0  0  0
  183.2170  179.0400  143.6500 O   0  0  0  0  0  0  0  0  0  0  0  0
  185.4480  178.8170  142.8910 C   0  0  0  0  0  3  0  0  0  0  0  0
  188.8070  177.1740  146.1040 C   0  0  2  0  0  3  0  0  0  0  0  0
  190.9450  174.3580  142.9380 O   0  0  0  0  0  0  0  0  0  0  0  0
  189.7790  173.7660  143.4430 C   0  0  2  0  0  3  0  0  0  0  0  0
  189.4030  172.5910  140.9670 C   0  0  0  0  0  2  0  0  0  0  0  0
  189.9060  172.2380  143.4470 C   0  0  0  0  0  2  0  0  0  0  0  0
  188.7760  174.9470  141.3920 C   0  0  0  0  0  2  0  0  0  0  0  0
  188.5020  174.2390  142.7100 C   0  0  1  0  0  3  0  0  0  0  0  0
  188.2610  173.5240  141.3700 C   0  0  2  0  0  3  0  0  0  0  0  0
  189.6910  171.5840  142.0760 C   0  0  0  0  0  2  0  0  0  0  0  0
  1 21  1  6  0  0  0
  1  8  1  0  0  0  0
  1  4  1  0  0  0  0
  3  7  1  0  0  0  0
  4  9  1  0  0  0  0
  5  3  1  0  0  0  0
  6  2  1  0  0  0  0
  7  2  1  0  0  0  0
  8  5  1  0  0  0  0
  9  6  1  0  0  0  0
  9  7  1  0  0  0  0
  9  2  1  0  0  0  0
 10 14  1  0  0  0  0
 11 17  1  0  0  0  0
 12 20  1  0  0  0  0
 13 16  1  0  0  0  0
 14 12  1  0  0  0  0
 14 11  1  0  0  0  0
 16 11  1  0  0  0  0
 17 15  1  0  0  0  0
 18 13  2  0  0  0  0
 19 10  2  0  0  0  0
 19 13  1  0  0  0  0
 20  6  1  0  0  0  0
 20 15  1  0  0  0  0
 21 22  1  0  0  0  0
 22 24  1  0  0  0  0
 23 27  1  0  0  0  0
 23 28  1  0  0  0  0
 25 26  1  0  0  0  0
 26 22  1  0  0  0  0
 27 25  1  0  0  0  0
 27 26  1  0  0  0  0
 28 24  1  0  0  0  0
M  END
>  <MODEL>
4

>  <REMARK>
 VINA RESULT:      -7.3      0.667      1.391
  Name = 
  3 active torsions:
  status: ('A' for Active; 'I' for Inactive)
    1  A    between atoms: C_1  and  O_2
    2  A    between atoms: O_2  and  C_3
    3  A    between atoms: C_20  and  C_25
                            x       y       z     vdW  Elec       q    Type
                         _______ _______ _______ _____ _____    ______ ____

>  <TORSDO>
F 3

$$$$
=
 OpenBabel11052418023D

 28 34  0  0  1  0  0  0  0  0999 V2000
  186.0590  178.4820  144.3360 C   0  0  1  0  0  3  0  0  0  0  0  0
  187.1110  177.9850  147.7180 C   0  0  2  0  0  3  0  0  0  0  0  0
  184.6330  178.4440  147.2640 C   0  0  0  0  0  2  0  0  0  0  0  0
  187.1250  178.3590  145.2660 O   0  0  0  0  0  0  0  0  0  0  0  0
  183.9590  178.7750  145.8960 C   0  0  0  0  0  2  0  0  0  0  0  0
  187.2770  176.6430  147.0450 C   0  0  1  0  0  3  0  0  0  0  0  0
  186.0260  178.8400  147.2070 N   0  0  2  0  0  0  0  0  0  0  0  0
  184.8950  179.4080  144.8160 C   0  0  0  0  0  2  0  0  0  0  0  0
  186.5160  177.7570  146.3590 C   0  0  1  0  0  0  0  0  0  0  0  0
  190.6640  173.4980  144.8660 C   0  0  0  0  0  3  0  0  0  0  0  0
  191.3770  175.3330  146.3990 C   0  0  1  0  0  3  0  0  0  0  0  0
  188.9440  174.9610  145.9240 C   0  0  0  0  0  2  0  0  0  0  0  0
  193.0470  173.9350  145.2050 C   0  0  0  0  0  0  0  0  0  0  0  0
  190.3520  174.8850  145.3520 C   0  0  2  0  0  3  0  0  0  0  0  0
  189.7010  176.7320  147.4880 N   0  0  0  0  0  2  0  0  0  0  0  0
  192.7800  175.2900  145.7980 C   0  0  0  0  0  2  0  0  0  0  0  0
  191.0240  176.7390  146.8670 C   0  0  0  0  0  2  0  0  0  0  0  0
  194.2320  173.5410  145.0550 O   0  0  0  0  0  0  0  0  0  0  0  0
  191.9290  173.0740  144.7700 C   0  0  0  0  0  3  0  0  0  0  0  0
  188.6930  176.3750  146.4840 C   0  0  2  0  0  3  0  0  0  0  0  0
  186.5620  178.9600  143.1230 O   0  0  0  0  0  0  0  0  0  0  0  0
  186.0000  178.1310  142.1410 C   0  0  2  0  0  3  0  0  0  0  0  0
  188.0120  176.3020  142.6550 C   0  0  0  0  0  2  0  0  0  0  0  0
  185.5110  176.8160  142.7600 C   0  0  0  0  0  2  0  0  0  0  0  0
  188.3960  178.2820  141.2200 C   0  0  0  0  0  2  0  0  0  0  0  0
  186.9520  177.8910  140.9450 C   0  0  1  0  0  3  0  0  0  0  0  0
  188.0180  176.8160  141.2160 C   0  0  2  0  0  3  0  0  0  0  0  0
  186.6240  175.7970  143.0390 C   0  0  0  0  0  2  0  0  0  0  0  0
  1 21  1  6  0  0  0
  1  8  1  0  0  0  0
  1  4  1  0  0  0  0
  4  9  1  0  0  0  0
  5  3  1  0  0  0  0
  6  2  1  0  0  0  0
  7  3  1  0  0  0  0
  7  2  1  0  0  0  0
  8  5  1  0  0  0  0
  9  6  1  0  0  0  0
  9  7  1  0  0  0  0
  9  2  1  0  0  0  0
 10 14  1  0  0  0  0
 11 17  1  0  0  0  0
 12 20  1  0  0  0  0
 13 16  1  0  0  0  0
 14 12  1  0  0  0  0
 14 11  1  0  0  0  0
 16 11  1  0  0  0  0
 17 15  1  0  0  0  0
 18 13  2  0  0  0  0
 19 10  2  0  0  0  0
 19 13  1  0  0  0  0
 20  6  1  0  0  0  0
 20 15  1  0  0  0  0
 22 24  1  0  0  0  0
 22 21  1  0  0  0  0
 23 28  1  0  0  0  0
 24 28  1  0  0  0  0
 26 27  1  0  0  0  0
 26 25  1  0  0  0  0
 26 22  1  0  0  0  0
 27 25  1  0  0  0  0
 27 23  1  0  0  0  0
M  END
>  <MODEL>
5

>  <REMARK>
 VINA RESULT:      -7.2      2.272      6.583
  Name = 
  3 active torsions:
  status: ('A' for Active; 'I' for Inactive)
    1  A    between atoms: C_1  and  O_2
    2  A    between atoms: O_2  and  C_3
    3  A    between atoms: C_20  and  C_25
                            x       y       z     vdW  Elec       q    Type
                         _______ _______ _______ _____ _____    ______ ____

>  <TORSDO>
F 3

$$$$
=
 OpenBabel11052418023D

 28 34  0  0  1  0  0  0  0  0999 V2000
  190.7340  173.0250  143.9540 C   0  0  1  0  0  3  0  0  0  0  0  0
  189.8180  173.8410  140.5930 C   0  0  2  0  0  3  0  0  0  0  0  0
  190.6190  171.4600  141.0990 C   0  0  0  0  0  2  0  0  0  0  0  0
  190.3990  174.0210  142.9980 O   0  0  0  0  0  0  0  0  0  0  0  0
  191.1490  170.9000  142.4550 C   0  0  0  0  0  2  0  0  0  0  0  0
  188.5300  173.8770  141.3800 C   0  0  1  0  0  3  0  0  0  0  0  0
  190.8420  172.8920  141.0650 N   0  0  2  0  0  0  0  0  0  0  0  0
  191.7520  171.9580  143.4350 C   0  0  0  0  0  2  0  0  0  0  0  0
  189.7850  173.2910  141.9890 C   0  0  1  0  0  0  0  0  0  0  0  0
  185.9510  176.8170  144.6700 C   0  0  0  0  0  3  0  0  0  0  0  0
  186.4860  177.5930  142.3590 C   0  0  1  0  0  3  0  0  0  0  0  0
  187.1740  175.3030  143.1110 C   0  0  0  0  0  2  0  0  0  0  0  0
  185.3970  179.1040  144.0030 C   0  0  0  0  0  0  0  0  0  0  0  0
  186.9470  176.7430  143.5480 C   0  0  2  0  0  3  0  0  0  0  0  0
  187.6290  176.0990  140.8060 N   0  0  0  0  0  2  0  0  0  0  0  0
  186.3010  179.0420  142.8030 C   0  0  0  0  0  2  0  0  0  0  0  0
  187.5190  177.4890  141.2460 C   0  0  0  0  0  2  0  0  0  0  0  0
  184.7760  180.1670  144.2630 O   0  0  0  0  0  0  0  0  0  0  0  0
  185.2540  177.9360  144.8950 C   0  0  0  0  0  3  0  0  0  0  0  0
  188.1380  175.2770  141.9080 C   0  0  2  0  0  3  0  0  0  0  0  0
  191.2500  173.6410  145.0960 O   0  0  0  0  0  0  0  0  0  0  0  0
  190.9590  175.0040  144.9400 C   0  0  2  0  0  3  0  0  0  0  0  0
  191.4960  175.3400  147.6340 C   0  0  0  0  0  2  0  0  0  0  0  0
  192.1990  175.8580  145.2320 C   0  0  0  0  0  2  0  0  0  0  0  0
  189.3220  174.4580  146.8460 C   0  0  0  0  0  2  0  0  0  0  0  0
  189.7360  175.4540  145.7740 C   0  0  1  0  0  3  0  0  0  0  0  0
  190.0630  175.7130  147.2540 C   0  0  2  0  0  3  0  0  0  0  0  0
  192.4940  176.0520  146.7250 C   0  0  0  0  0  2  0  0  0  0  0  0
  1 21  1  1  0  0  0
  2  7  1  0  0  0  0
  2  6  1  0  0  0  0
  2  9  1  0  0  0  0
  3  5  1  0  0  0  0
  4  1  1  0  0  0  0
  5  8  1  0  0  0  0
  6 20  1  0  0  0  0
  6  9  1  0  0  0  0
  7  3  1  0  0  0  0
  7  9  1  0  0  0  0
  8  1  1  0  0  0  0
  9  4  1  0  0  0  0
 10 19  2  0  0  0  0
 11 16  1  0  0  0  0
 11 14  1  0  0  0  0
 12 14  1  0  0  0  0
 13 18  2  0  0  0  0
 13 19  1  0  0  0  0
 14 10  1  0  0  0  0
 15 17  1  0  0  0  0
 15 20  1  0  0  0  0
 16 13  1  0  0  0  0
 17 11  1  0  0  0  0
 20 12  1  0  0  0  0
 22 21  1  0  0  0  0
 22 24  1  0  0  0  0
 22 26  1  0  0  0  0
 24 28  1  0  0  0  0
 25 27  1  0  0  0  0
 26 25  1  0  0  0  0
 26 27  1  0  0  0  0
 27 23  1  0  0  0  0
 28 23  1  0  0  0  0
M  END
>  <MODEL>
6

>  <REMARK>
 VINA RESULT:      -7.2      2.192      4.725
  Name = 
  3 active torsions:
  status: ('A' for Active; 'I' for Inactive)
    1  A    between atoms: C_1  and  O_2
    2  A    between atoms: O_2  and  C_3
    3  A    between atoms: C_20  and  C_25
                            x       y       z     vdW  Elec       q    Type
                         _______ _______ _______ _____ _____    ______ ____

>  <TORSDO>
F 3

$$$$
=
 OpenBabel11052418023D

 28 34  0  0  1  0  0  0  0  0999 V2000
  192.3950  174.1230  143.3910 C   0  0  1  0  0  3  0  0  0  0  0  0
  192.4460  175.3670  146.7450 C   0  0  2  0  0  3  0  0  0  0  0  0
  194.6700  175.1230  145.4970 C   0  0  0  0  0  2  0  0  0  0  0  0
  191.6980  174.3530  144.6070 O   0  0  0  0  0  0  0  0  0  0  0  0
  194.9050  174.5280  144.0740 C   0  0  0  0  0  2  0  0  0  0  0  0
  191.7800  176.4470  145.9260 C   0  0  1  0  0  3  0  0  0  0  0  0
  193.4570  174.5520  146.0490 N   0  0  2  0  0  0  0  0  0  0  0  0
  193.8230  173.5160  143.5770 C   0  0  0  0  0  2  0  0  0  0  0  0
  192.4910  175.2980  145.2460 C   0  0  1  0  0  0  0  0  0  0  0  0
  187.2820  178.2510  144.3040 C   0  0  0  0  0  3  0  0  0  0  0  0
  187.5160  177.0980  146.5050 C   0  0  1  0  0  3  0  0  0  0  0  0
  189.5220  177.4400  145.0420 C   0  0  0  0  0  2  0  0  0  0  0  0
  185.2910  177.8010  145.6520 C   0  0  0  0  0  0  0  0  0  0  0  0
  188.0220  177.1840  145.0620 C   0  0  2  0  0  3  0  0  0  0  0  0
  189.7120  176.3540  147.2640 N   0  0  0  0  0  2  0  0  0  0  0  0
  186.0180  176.8020  146.5090 C   0  0  0  0  0  2  0  0  0  0  0  0
  188.2910  176.0110  147.2370 C   0  0  0  0  0  2  0  0  0  0  0  0
  184.0670  178.0170  145.8470 O   0  0  0  0  0  0  0  0  0  0  0  0
  185.9970  178.5090  144.5660 C   0  0  0  0  0  3  0  0  0  0  0  0
  190.2360  176.3730  145.8950 C   0  0  2  0  0  3  0  0  0  0  0  0
  191.6340  173.2780  142.5800 O   0  0  0  0  0  0  0  0  0  0  0  0
  191.1160  174.1050  141.5730 C   0  0  2  0  0  3  0  0  0  0  0  0
  188.6420  172.9450  142.0080 C   0  0  0  0  0  2  0  0  0  0  0  0
  190.0660  175.0630  142.1470 C   0  0  0  0  0  2  0  0  0  0  0  0
  190.3750  171.8260  140.6430 C   0  0  0  0  0  2  0  0  0  0  0  0
  190.5730  173.3070  140.3630 C   0  0  1  0  0  3  0  0  0  0  0  0
  189.1650  172.7320  140.5890 C   0  0  2  0  0  3  0  0  0  0  0  0
  188.6910  174.4240  142.3830 C   0  0  0  0  0  2  0  0  0  0  0  0
  1 21  1  6  0  0  0
  1  8  1  0  0  0  0
  1  4  1  0  0  0  0
  3  7  1  0  0  0  0
  4  9  1  0  0  0  0
  5  3  1  0  0  0  0
  6  2  1  0  0  0  0
  7  2  1  0  0  0  0
  8  5  1  0  0  0  0
  9  6  1  0  0  0  0
  9  7  1  0  0  0  0
  9  2  1  0  0  0  0
 10 19  2  0  0  0  0
 10 14  1  0  0  0  0
 11 16  1  0  0  0  0
 11 17  1  0  0  0  0
 12 14  1  0  0  0  0
 12 20  1  0  0  0  0
 13 18  2  0  0  0  0
 13 16  1  0  0  0  0
 14 11  1  0  0  0  0
 17 15  1  0  0  0  0
 19 13  1  0  0  0  0
 20  6  1  0  0  0  0
 20 15  1  0  0  0  0
 22 24  1  0  0  0  0
 22 21  1  0  0  0  0
 23 28  1  0  0  0  0
 24 28  1  0  0  0  0
 26 27  1  0  0  0  0
 26 25  1  0  0  0  0
 26 22  1  0  0  0  0
 27 25  1  0  0  0  0
 27 23  1  0  0  0  0
M  END
>  <MODEL>
7

>  <REMARK>
 VINA RESULT:      -7.0      1.279      1.605
  Name = 
  3 active torsions:
  status: ('A' for Active; 'I' for Inactive)
    1  A    between atoms: C_1  and  O_2
    2  A    between atoms: O_2  and  C_3
    3  A    between atoms: C_20  and  C_25
                            x       y       z     vdW  Elec       q    Type
                         _______ _______ _______ _____ _____    ______ ____

>  <TORSDO>
F 3

$$$$
=
 OpenBabel11052418023D

 28 34  0  0  1  0  0  0  0  0999 V2000
  190.5830  174.2180  143.0280 C   0  0  1  0  0  3  0  0  0  0  0  0
  188.0060  175.3420  140.8150 C   0  0  2  0  0  3  0  0  0  0  0  0
  189.1160  173.0800  140.3510 C   0  0  0  0  0  2  0  0  0  0  0  0
  189.7330  175.2710  142.5940 O   0  0  0  0  0  0  0  0  0  0  0  0
  190.3080  172.4280  141.1180 C   0  0  0  0  0  2  0  0  0  0  0  0
  187.3120  175.0520  142.1240 C   0  0  1  0  0  3  0  0  0  0  0  0
  189.1890  174.5190  140.5090 N   0  0  2  0  0  0  0  0  0  0  0  0
  191.2560  173.4200  141.8650 C   0  0  0  0  0  2  0  0  0  0  0  0
  188.7380  174.6000  141.8960 C   0  0  1  0  0  0  0  0  0  0  0  0
  187.2700  177.0910  146.8100 C   0  0  0  0  0  3  0  0  0  0  0  0
  185.9000  178.0420  144.9540 C   0  0  1  0  0  3  0  0  0  0  0  0
  187.3120  176.0090  144.5640 C   0  0  0  0  0  2  0  0  0  0  0  0
  186.0100  179.1560  147.1720 C   0  0  0  0  0  0  0  0  0  0  0  0
  187.1990  177.3210  145.3270 C   0  0  2  0  0  3  0  0  0  0  0  0
  185.8860  176.9560  142.7690 N   0  0  0  0  0  2  0  0  0  0  0  0
  185.8180  179.3740  145.6960 C   0  0  0  0  0  2  0  0  0  0  0  0
  185.8650  178.2520  143.4460 C   0  0  0  0  0  2  0  0  0  0  0  0
  185.5660  180.0020  147.9900 O   0  0  0  0  0  0  0  0  0  0  0  0
  186.7400  177.9710  147.6650 C   0  0  0  0  0  3  0  0  0  0  0  0
  187.1540  176.2770  143.0540 C   0  0  2  0  0  3  0  0  0  0  0  0
  191.5710  174.7420  143.8650 O   0  0  0  0  0  0  0  0  0  0  0  0
  191.6550  173.8460  144.9400 C   0  0  2  0  0  3  0  0  0  0  0  0
  191.1830  175.9740  146.6430 C   0  0  0  0  0  2  0  0  0  0  0  0
  190.3160  173.7690  145.6850 C   0  0  0  0  0  2  0  0  0  0  0  0
  193.4280  175.5460  145.6950 C   0  0  0  0  0  2  0  0  0  0  0  0
  192.8320  174.1610  145.8920 C   0  0  1  0  0  3  0  0  0  0  0  0
  192.5300  175.2950  146.8860 C   0  0  2  0  0  3  0  0  0  0  0  0
  190.0560  174.9450  146.6360 C   0  0  0  0  0  2  0  0  0  0  0  0
  1 21  1  1  0  0  0
  2  9  1  0  0  0  0
  2  6  1  0  0  0  0
  3  7  1  0  0  0  0
  3  5  1  0  0  0  0
  4  1  1  0  0  0  0
  5  8  1  0  0  0  0
  6 20  1  0  0  0  0
  7  2  1  0  0  0  0
  7  9  1  0  0  0  0
  8  1  1  0  0  0  0
  9  6  1  0  0  0  0
  9  4  1  0  0  0  0
 10 19  2  0  0  0  0
 11 14  1  0  0  0  0
 11 16  1  0  0  0  0
 12 14  1  0  0  0  0
 13 19  1  0  0  0  0
 13 18  2  0  0  0  0
 14 10  1  0  0  0  0
 15 20  1  0  0  0  0
 15 17  1  0  0  0  0
 16 13  1  0  0  0  0
 17 11  1  0  0  0  0
 20 12  1  0  0  0  0
 21 22  1  0  0  0  0
 22 24  1  0  0  0  0
 22 26  1  0  0  0  0
 23 27  1  0  0  0  0
 24 28  1  0  0  0  0
 25 26  1  0  0  0  0
 25 27  1  0  0  0  0
 26 27  1  0  0  0  0
 28 23  1  0  0  0  0
M  END
>  <MODEL>
8

>  <REMARK>
 VINA RESULT:      -6.8      2.219      4.762
  Name = 
  3 active torsions:
  status: ('A' for Active; 'I' for Inactive)
    1  A    between atoms: C_1  and  O_2
    2  A    between atoms: O_2  and  C_3
    3  A    between atoms: C_20  and  C_25
                            x       y       z     vdW  Elec       q    Type
                         _______ _______ _______ _____ _____    ______ ____

>  <TORSDO>
F 3

$$$$
=
 OpenBabel11052418023D

 28 34  0  0  1  0  0  0  0  0999 V2000
  189.1940  176.8290  145.3120 C   0  0  1  0  0  3  0  0  0  0  0  0
  192.4970  175.5910  144.7190 C   0  0  2  0  0  3  0  0  0  0  0  0
  191.7630  176.0050  147.1380 C   0  0  0  0  0  2  0  0  0  0  0  0
  190.2320  176.5460  144.3850 O   0  0  0  0  0  0  0  0  0  0  0  0
  190.4160  176.6180  147.6340 C   0  0  0  0  0  2  0  0  0  0  0  0
  191.5700  174.4630  144.3320 C   0  0  1  0  0  3  0  0  0  0  0  0
  192.0260  176.4810  145.7940 N   0  0  2  0  0  0  0  0  0  0  0  0
  189.6780  177.5440  146.6150 C   0  0  0  0  0  2  0  0  0  0  0  0
  191.0430  175.6640  145.0870 C   0  0  1  0  0  0  0  0  0  0  0  0
  188.3630  173.1130  140.5890 C   0  0  0  0  0  3  0  0  0  0  0  0
  190.8230  173.2910  140.2080 C   0  0  1  0  0  3  0  0  0  0  0  0
  189.8650  173.7340  142.4810 C   0  0  0  0  0  2  0  0  0  0  0  0
  189.2620  172.8170  138.3340 C   0  0  0  0  0  0  0  0  0  0  0  0
  189.6190  173.8380  140.9820 C   0  0  2  0  0  3  0  0  0  0  0  0
  192.3080  173.8390  142.0640 N   0  0  0  0  0  2  0  0  0  0  0  0
  190.5800  173.4390  138.7080 C   0  0  0  0  0  2  0  0  0  0  0  0
  192.0730  174.0480  140.6370 C   0  0  0  0  0  2  0  0  0  0  0  0
  189.0620  172.4420  137.1500 O   0  0  0  0  0  0  0  0  0  0  0  0
  188.1920  172.6680  139.3400 C   0  0  0  0  0  3  0  0  0  0  0  0
  191.2000  174.4180  142.8310 C   0  0  2  0  0  3  0  0  0  0  0  0
  188.2220  177.6140  144.6860 O   0  0  0  0  0  0  0  0  0  0  0  0
  187.1070  176.7750  144.5480 C   0  0  2  0  0  3  0  0  0  0  0  0
  185.7990  178.8620  143.2870 C   0  0  0  0  0  2  0  0  0  0  0  0
  186.8020  176.5220  143.0670 C   0  0  0  0  0  2  0  0  0  0  0  0
  185.9810  178.7480  145.7520 C   0  0  0  0  0  2  0  0  0  0  0  0
  185.8680  177.2960  145.3150 C   0  0  1  0  0  3  0  0  0  0  0  0
  185.1040  178.4020  144.5690 C   0  0  2  0  0  3  0  0  0  0  0  0
  186.0700  177.6750  142.3670 C   0  0  0  0  0  2  0  0  0  0  0  0
  1 21  1  6  0  0  0
  1  8  1  0  0  0  0
  2  9  1  0  0  0  0
  2  7  1  0  0  0  0
  3  5  1  0  0  0  0
  4  9  1  0  0  0  0
  4  1  1  0  0  0  0
  6  2  1  0  0  0  0
  6  9  1  0  0  0  0
  7  3  1  0  0  0  0
  8  5  1  0  0  0  0
  9  7  1  0  0  0  0
 10 14  1  0  0  0  0
 11 17  1  0  0  0  0
 11 14  1  0  0  0  0
 12 20  1  0  0  0  0
 13 16  1  0  0  0  0
 13 19  1  0  0  0  0
 14 12  1  0  0  0  0
 15 20  1  0  0  0  0
 16 11  1  0  0  0  0
 17 15  1  0  0  0  0
 18 13  2  0  0  0  0
 19 10  2  0  0  0  0
 20  6  1  0  0  0  0
 22 21  1  0  0  0  0
 22 26  1  0  0  0  0
 23 27  1  0  0  0  0
 24 22  1  0  0  0  0
 26 25  1  0  0  0  0
 27 26  1  0  0  0  0
 27 25  1  0  0  0  0
 28 24  1  0  0  0  0
 28 23  1  0  0  0  0
M  END
>  <MODEL>
9

>  <REMARK>
 VINA RESULT:      -6.8      2.170      6.224
  Name = 
  3 active torsions:
  status: ('A' for Active; 'I' for Inactive)
    1  A    between atoms: C_1  and  O_2
    2  A    between atoms: O_2  and  C_3
    3  A    between atoms: C_20  and  C_25
                            x       y       z     vdW  Elec       q    Type
                         _______ _______ _______ _____ _____    ______ ____

>  <TORSDO>
F 3

$$$$
