=
 OpenBabel11052418153D

 28 31  0  0  1  0  0  0  0  0999 V2000
  191.6280  177.2600  143.6740 O   0  0  0  0  0  1  0  0  0  0  0  0
  188.9860  176.5610  144.9490 C   0  0  2  0  0  3  0  0  0  0  0  0
  190.0770  178.6350  145.4690 F   0  0  0  0  0  0  0  0  0  0  0  0
  191.6460  175.2460  145.0510 C   0  0  1  0  0  0  0  0  0  0  0  0
  189.1010  175.0470  145.1090 C   0  0  0  0  0  2  0  0  0  0  0  0
  191.7510  174.8840  146.3960 O   0  0  0  0  0  1  0  0  0  0  0  0
  191.5040  176.7820  144.9820 C   0  0  2  0  0  3  0  0  0  0  0  0
  192.9420  174.8130  144.3780 C   0  0  0  0  0  1  0  0  0  0  0  0
  190.1850  177.2610  145.6000 C   0  0  2  0  0  3  0  0  0  0  0  0
  190.3950  174.5300  144.4610 C   0  0  1  0  0  3  0  0  0  0  0  0
  190.3170  174.2080  142.9230 C   0  0  1  0  0  0  0  0  0  0  0  0
  189.5230  171.8140  143.5990 C   0  0  0  0  0  2  0  0  0  0  0  0
  190.3300  172.6820  142.6550 C   0  0  0  0  0  0  0  0  0  0  0  0
  188.7500  172.9980  140.5520 C   0  0  1  0  0  3  0  0  0  0  0  0
  191.0470  171.7570  143.6150 C   0  0  0  0  0  2  0  0  0  0  0  0
  188.9210  174.4890  140.7980 C   0  0  0  0  0  2  0  0  0  0  0  0
  189.0300  174.7760  142.2940 C   0  0  0  0  0  2  0  0  0  0  0  0
  188.3110  172.7240  138.8140 S   0  0  0  0  0  1  0  0  0  0  0  0
  191.4010  174.7810  142.2530 O   0  0  0  0  0  1  0  0  0  0  0  0
  190.2920  172.1040  140.9290 S   0  0  0  0  0  0  0  0  0  0  0  0
  187.2300  176.6080  146.7630 C   0  0  0  0  0  3  0  0  0  0  0  0
  186.8970  177.9470  144.7690 C   0  0  0  0  0  0  0  0  0  0  0  0
  185.2370  177.9590  146.5330 C   0  0  0  0  0  0  0  0  0  0  0  0
  187.6820  177.0490  145.5090 C   0  0  0  0  0  0  0  0  0  0  0  0
  185.6780  178.4000  145.2820 C   0  0  0  0  0  3  0  0  0  0  0  0
  187.3100  178.3830  143.5520 F   0  0  0  0  0  0  0  0  0  0  0  0
  184.0550  178.4000  147.0270 F   0  0  0  0  0  0  0  0  0  0  0  0
  186.0120  177.0630  147.2730 C   0  0  0  0  0  3  0  0  0  0  0  0
  2  5  1  0  0  0  0
  2 24  1  1  0  0  0
  2  9  1  0  0  0  0
  4  8  1  6  0  0  0
  4  6  1  0  0  0  0
  7  1  1  6  0  0  0
  7  4  1  0  0  0  0
  7  9  1  0  0  0  0
  9  3  1  6  0  0  0
 10  4  1  0  0  0  0
 10  5  1  6  0  0  0
 11 19  1  6  0  0  0
 11 10  1  0  0  0  0
 12 15  1  0  0  0  0
 13 11  1  0  0  0  0
 13 12  1  0  0  0  0
 13 15  1  0  0  0  0
 14 18  1  6  0  0  0
 14 16  1  0  0  0  0
 14 20  1  0  0  0  0
 16 17  1  0  0  0  0
 17 11  1  0  0  0  0
 20 13  1  0  0  0  0
 21 28  1  0  0  0  0
 22 25  2  0  0  0  0
 22 24  1  0  0  0  0
 23 27  1  0  0  0  0
 23 28  2  0  0  0  0
 24 21  2  0  0  0  0
 25 23  1  0  0  0  0
 26 22  1  0  0  0  0
M  END
>  <MODEL>
1

>  <REMARK>
 VINA RESULT:      -7.8      0.000      0.000
  Name = 
  2 active torsions:
  status: ('A' for Active; 'I' for Inactive)
    1  A    between atoms: C_1  and  C_27
    2  A    between atoms: C_10  and  C_13
                            x       y       z     vdW  Elec       q    Type
                         _______ _______ _______ _____ _____    ______ ____

>  <TORSDO>
F 2

$$$$
=
 OpenBabel11052418153D

 28 31  0  0  1  0  0  0  0  0999 V2000
  192.1980  177.0200  143.2330 O   0  0  0  0  0  1  0  0  0  0  0  0
  189.2460  176.9590  143.8490 C   0  0  2  0  0  3  0  0  0  0  0  0
  190.5240  178.9570  144.2170 F   0  0  0  0  0  0  0  0  0  0  0  0
  191.5320  175.4090  144.9410 C   0  0  1  0  0  0  0  0  0  0  0  0
  189.0530  175.5250  144.3380 C   0  0  0  0  0  2  0  0  0  0  0  0
  191.2440  175.3730  146.3070 O   0  0  0  0  0  1  0  0  0  0  0  0
  191.6810  176.8890  144.5260 C   0  0  2  0  0  3  0  0  0  0  0  0
  192.8560  174.6810  144.7510 C   0  0  0  0  0  1  0  0  0  0  0  0
  190.3560  177.6520  144.6480 C   0  0  2  0  0  3  0  0  0  0  0  0
  190.3540  174.7210  144.1880 C   0  0  1  0  0  3  0  0  0  0  0  0
  190.5950  174.0480  142.7860 C   0  0  1  0  0  0  0  0  0  0  0  0
  189.3900  171.9370  143.7400 C   0  0  0  0  0  2  0  0  0  0  0  0
  190.4890  172.5050  142.8640 C   0  0  0  0  0  0  0  0  0  0  0  0
  189.4820  172.4100  140.4150 C   0  0  1  0  0  3  0  0  0  0  0  0
  190.8520  171.7910  144.1500 C   0  0  0  0  0  2  0  0  0  0  0  0
  189.7660  173.9030  140.3700 C   0  0  0  0  0  2  0  0  0  0  0  0
  189.5620  174.5290  141.7480 C   0  0  0  0  0  2  0  0  0  0  0  0
  189.4250  171.7590  138.7240 S   0  0  0  0  0  1  0  0  0  0  0  0
  191.8630  174.3780  142.3020 O   0  0  0  0  0  1  0  0  0  0  0  0
  190.7800  171.5370  141.3500 S   0  0  0  0  0  0  0  0  0  0  0  0
  187.3210  177.9440  145.1530 C   0  0  0  0  0  3  0  0  0  0  0  0
  187.3550  178.1860  142.7400 C   0  0  0  0  0  0  0  0  0  0  0  0
  185.5260  179.1130  144.0300 C   0  0  0  0  0  0  0  0  0  0  0  0
  187.9520  177.7130  143.9190 C   0  0  0  0  0  0  0  0  0  0  0  0
  186.1450  178.8850  142.7980 C   0  0  0  0  0  3  0  0  0  0  0  0
  187.9420  177.9720  141.5360 F   0  0  0  0  0  0  0  0  0  0  0  0
  184.3540  179.7910  144.0820 F   0  0  0  0  0  0  0  0  0  0  0  0
  186.1130  178.6420  145.2070 C   0  0  0  0  0  3  0  0  0  0  0  0
  2 24  1  1  0  0  0
  2  5  1  0  0  0  0
  2  9  1  0  0  0  0
  4  8  1  6  0  0  0
  4  6  1  0  0  0  0
  7  1  1  6  0  0  0
  7  9  1  0  0  0  0
  7  4  1  0  0  0  0
  9  3  1  6  0  0  0
 10  5  1  6  0  0  0
 10  4  1  0  0  0  0
 11 19  1  6  0  0  0
 11 13  1  0  0  0  0
 11 10  1  0  0  0  0
 12 15  1  0  0  0  0
 13 12  1  0  0  0  0
 13 15  1  0  0  0  0
 14 18  1  6  0  0  0
 14 20  1  0  0  0  0
 16 14  1  0  0  0  0
 16 17  1  0  0  0  0
 17 11  1  0  0  0  0
 20 13  1  0  0  0  0
 21 28  1  0  0  0  0
 22 25  2  0  0  0  0
 22 24  1  0  0  0  0
 23 27  1  0  0  0  0
 23 28  2  0  0  0  0
 24 21  2  0  0  0  0
 25 23  1  0  0  0  0
 26 22  1  0  0  0  0
M  END
>  <MODEL>
2

>  <REMARK>
 VINA RESULT:      -7.7      1.263      1.485
  Name = 
  2 active torsions:
  status: ('A' for Active; 'I' for Inactive)
    1  A    between atoms: C_1  and  C_27
    2  A    between atoms: C_10  and  C_13
                            x       y       z     vdW  Elec       q    Type
                         _______ _______ _______ _____ _____    ______ ____

>  <TORSDO>
F 2

$$$$
=
 OpenBabel11052418153D

 28 31  0  0  1  0  0  0  0  0999 V2000
  190.2650  177.7320  146.9850 O   0  0  0  0  0  1  0  0  0  0  0  0
  188.4410  176.9480  144.7140 C   0  0  2  0  0  3  0  0  0  0  0  0
  187.6490  178.3770  146.4720 F   0  0  0  0  0  0  0  0  0  0  0  0
  189.8380  175.3370  146.7820 C   0  0  1  0  0  0  0  0  0  0  0  0
  188.9030  175.5240  144.4130 C   0  0  0  0  0  2  0  0  0  0  0  0
  188.8660  174.4010  147.1400 O   0  0  0  0  0  1  0  0  0  0  0  0
  189.2800  176.7440  147.0910 C   0  0  2  0  0  3  0  0  0  0  0  0
  191.0570  175.0600  147.6510 C   0  0  0  0  0  1  0  0  0  0  0  0
  188.0830  177.0910  146.1980 C   0  0  2  0  0  3  0  0  0  0  0  0
  190.1310  175.1610  145.2620 C   0  0  1  0  0  3  0  0  0  0  0  0
  191.5290  175.5770  144.6700 C   0  0  1  0  0  0  0  0  0  0  0  0
  191.5850  173.2390  143.5090 C   0  0  0  0  0  2  0  0  0  0  0  0
  192.3470  174.3440  144.2110 C   0  0  0  0  0  0  0  0  0  0  0  0
  193.4250  175.7450  142.2370 C   0  0  1  0  0  3  0  0  0  0  0  0
  192.1540  173.0120  144.9060 C   0  0  0  0  0  2  0  0  0  0  0  0
  192.7060  176.9360  142.8510 C   0  0  0  0  0  2  0  0  0  0  0  0
  191.3700  176.5050  143.4500 C   0  0  0  0  0  2  0  0  0  0  0  0
  194.8400  176.3330  141.2680 S   0  0  0  0  0  1  0  0  0  0  0  0
  192.2750  176.2670  145.6290 O   0  0  0  0  0  1  0  0  0  0  0  0
  194.0170  174.6130  143.5360 S   0  0  0  0  0  0  0  0  0  0  0  0
  185.9740  177.0120  144.1800 C   0  0  0  0  0  3  0  0  0  0  0  0
  187.5430  177.9900  142.6110 C   0  0  0  0  0  0  0  0  0  0  0  0
  185.1680  178.0260  142.1370 C   0  0  0  0  0  0  0  0  0  0  0  0
  187.2950  177.3250  143.8230 C   0  0  0  0  0  0  0  0  0  0  0  0
  186.4810  178.3390  141.7730 C   0  0  0  0  0  3  0  0  0  0  0  0
  188.8110  178.3000  142.2420 F   0  0  0  0  0  0  0  0  0  0  0  0
  184.1410  178.3660  141.3220 F   0  0  0  0  0  0  0  0  0  0  0  0
  184.9150  177.3620  143.3410 C   0  0  0  0  0  3  0  0  0  0  0  0
  2 24  1  6  0  0  0
  2  9  1  0  0  0  0
  4  7  1  0  0  0  0
  4  6  1  0  0  0  0
  4  8  1  1  0  0  0
  5  2  1  0  0  0  0
  7  1  1  6  0  0  0
  9  3  1  6  0  0  0
  9  7  1  0  0  0  0
 10  5  1  6  0  0  0
 10  4  1  0  0  0  0
 11 10  1  0  0  0  0
 11 19  1  1  0  0  0
 12 13  1  0  0  0  0
 12 15  1  0  0  0  0
 13 11  1  0  0  0  0
 13 15  1  0  0  0  0
 14 18  1  1  0  0  0
 14 16  1  0  0  0  0
 14 20  1  0  0  0  0
 16 17  1  0  0  0  0
 17 11  1  0  0  0  0
 20 13  1  0  0  0  0
 22 24  2  0  0  0  0
 23 28  1  0  0  0  0
 24 21  1  0  0  0  0
 25 23  2  0  0  0  0
 25 22  1  0  0  0  0
 26 22  1  0  0  0  0
 27 23  1  0  0  0  0
 28 21  2  0  0  0  0
M  END
>  <MODEL>
3

>  <REMARK>
 VINA RESULT:      -7.2      2.735      3.607
  Name = 
  2 active torsions:
  status: ('A' for Active; 'I' for Inactive)
    1  A    between atoms: C_1  and  C_27
    2  A    between atoms: C_10  and  C_13
                            x       y       z     vdW  Elec       q    Type
                         _______ _______ _______ _____ _____    ______ ____

>  <TORSDO>
F 2

$$$$
=
 OpenBabel11052418153D

 28 31  0  0  1  0  0  0  0  0999 V2000
  188.3660  178.2670  142.1170 O   0  0  0  0  0  1  0  0  0  0  0  0
  188.7830  175.3120  141.6840 C   0  0  2  0  0  3  0  0  0  0  0  0
  187.8360  176.6730  139.9490 F   0  0  0  0  0  0  0  0  0  0  0  0
  187.1270  176.8150  143.6370 C   0  0  1  0  0  0  0  0  0  0  0  0
  188.5130  174.7450  143.0760 C   0  0  0  0  0  2  0  0  0  0  0  0
  185.9450  176.0720  143.6640 O   0  0  0  0  0  1  0  0  0  0  0  0
  187.3380  177.3220  142.1940 C   0  0  2  0  0  3  0  0  0  0  0  0
  186.9250  177.9950  144.5780 C   0  0  0  0  0  1  0  0  0  0  0  0
  187.6020  176.1700  141.2170 C   0  0  2  0  0  3  0  0  0  0  0  0
  188.2880  175.8790  144.0890 C   0  0  1  0  0  3  0  0  0  0  0  0
  189.5820  176.4830  144.7510 C   0  0  1  0  0  0  0  0  0  0  0  0
  189.4880  174.4910  146.4370 C   0  0  0  0  0  2  0  0  0  0  0  0
  189.7860  175.9560  146.1930 C   0  0  0  0  0  0  0  0  0  0  0  0
  192.4180  176.0410  145.8940 C   0  0  1  0  0  3  0  0  0  0  0  0
  188.5850  175.5680  147.0290 C   0  0  0  0  0  2  0  0  0  0  0  0
  192.1230  176.6980  144.5540 C   0  0  0  0  0  2  0  0  0  0  0  0
  190.8450  176.1240  143.9460 C   0  0  0  0  0  2  0  0  0  0  0  0
  194.0840  176.5070  146.4360 S   0  0  0  0  0  1  0  0  0  0  0  0
  189.4960  177.8760  144.8000 O   0  0  0  0  0  1  0  0  0  0  0  0
  191.2080  176.5730  147.1490 S   0  0  0  0  0  0  0  0  0  0  0  0
  188.0500  173.5400  140.0410 C   0  0  0  0  0  3  0  0  0  0  0  0
  190.4160  173.8160  140.4960 C   0  0  0  0  0  0  0  0  0  0  0  0
  189.6680  172.1260  138.9300 C   0  0  0  0  0  0  0  0  0  0  0  0
  189.0850  174.2040  140.7190 C   0  0  0  0  0  0  0  0  0  0  0  0
  190.7040  172.7800  139.6030 C   0  0  0  0  0  3  0  0  0  0  0  0
  191.4330  174.4390  141.1420 F   0  0  0  0  0  0  0  0  0  0  0  0
  189.9510  171.1230  138.0650 F   0  0  0  0  0  0  0  0  0  0  0  0
  188.3410  172.5050  139.1490 C   0  0  0  0  0  3  0  0  0  0  0  0
  2 24  1  6  0  0  0
  2  5  1  0  0  0  0
  4  6  1  0  0  0  0
  4 10  1  0  0  0  0
  4  8  1  1  0  0  0
  7  1  1  1  0  0  0
  7  4  1  0  0  0  0
  9  3  1  6  0  0  0
  9  2  1  0  0  0  0
  9  7  1  0  0  0  0
 10  5  1  6  0  0  0
 10 11  1  0  0  0  0
 11 19  1  1  0  0  0
 11 13  1  0  0  0  0
 12 15  1  0  0  0  0
 13 12  1  0  0  0  0
 13 15  1  0  0  0  0
 13 20  1  0  0  0  0
 14 18  1  1  0  0  0
 14 20  1  0  0  0  0
 16 14  1  0  0  0  0
 17 16  1  0  0  0  0
 17 11  1  0  0  0  0
 21 24  1  0  0  0  0
 22 24  2  0  0  0  0
 22 26  1  0  0  0  0
 23 28  1  0  0  0  0
 23 25  2  0  0  0  0
 25 22  1  0  0  0  0
 27 23  1  0  0  0  0
 28 21  2  0  0  0  0
M  END
>  <MODEL>
4

>  <REMARK>
 VINA RESULT:      -7.1      3.728      6.632
  Name = 
  2 active torsions:
  status: ('A' for Active; 'I' for Inactive)
    1  A    between atoms: C_1  and  C_27
    2  A    between atoms: C_10  and  C_13
                            x       y       z     vdW  Elec       q    Type
                         _______ _______ _______ _____ _____    ______ ____

>  <TORSDO>
F 2

$$$$
=
 OpenBabel11052418153D

 28 31  0  0  1  0  0  0  0  0999 V2000
  192.0380  177.2680  143.2480 O   0  0  0  0  0  1  0  0  0  0  0  0
  189.5430  176.1900  144.5570 C   0  0  2  0  0  3  0  0  0  0  0  0
  190.2130  178.4680  144.9070 F   0  0  0  0  0  0  0  0  0  0  0  0
  192.4000  175.4140  144.7930 C   0  0  1  0  0  0  0  0  0  0  0  0
  189.9370  174.7440  144.8470 C   0  0  0  0  0  2  0  0  0  0  0  0
  192.5390  175.1900  146.1640 O   0  0  0  0  0  1  0  0  0  0  0  0
  191.9750  176.8850  144.5910 C   0  0  2  0  0  3  0  0  0  0  0  0
  193.7700  175.1800  144.1690 C   0  0  0  0  0  1  0  0  0  0  0  0
  190.5740  177.1550  145.1550 C   0  0  2  0  0  3  0  0  0  0  0  0
  191.3200  174.4280  144.2560 C   0  0  1  0  0  3  0  0  0  0  0  0
  191.3410  173.9720  142.7500 C   0  0  1  0  0  0  0  0  0  0  0  0
  191.1270  171.5220  143.6270 C   0  0  0  0  0  2  0  0  0  0  0  0
  191.7190  172.4760  142.6090 C   0  0  0  0  0  0  0  0  0  0  0  0
  190.1360  172.2340  140.4980 C   0  0  1  0  0  3  0  0  0  0  0  0
  192.6210  171.8290  143.6380 C   0  0  0  0  0  2  0  0  0  0  0  0
  189.9460  173.7380  140.6190 C   0  0  0  0  0  2  0  0  0  0  0  0
  189.9640  174.1650  142.0850 C   0  0  0  0  0  2  0  0  0  0  0  0
  189.7980  171.7220  138.7920 S   0  0  0  0  0  1  0  0  0  0  0  0
  192.2670  174.7280  142.0270 O   0  0  0  0  0  1  0  0  0  0  0  0
  191.8410  171.7660  140.9370 S   0  0  0  0  0  0  0  0  0  0  0  0
  187.1380  176.8580  144.1820 C   0  0  0  0  0  3  0  0  0  0  0  0
  187.8800  176.3450  146.4330 C   0  0  0  0  0  0  0  0  0  0  0  0
  185.5810  176.9930  146.0290 C   0  0  0  0  0  0  0  0  0  0  0  0
  188.1590  176.4660  145.0630 C   0  0  0  0  0  0  0  0  0  0  0  0
  186.5930  176.6070  146.9120 C   0  0  0  0  0  3  0  0  0  0  0  0
  188.8510  175.9730  147.3040 F   0  0  0  0  0  0  0  0  0  0  0  0
  184.3350  177.2470  146.4970 F   0  0  0  0  0  0  0  0  0  0  0  0
  185.8530  177.1190  144.6650 C   0  0  0  0  0  3  0  0  0  0  0  0
  2  5  1  0  0  0  0
  2 24  1  1  0  0  0
  2  9  1  0  0  0  0
  4  8  1  6  0  0  0
  4  6  1  0  0  0  0
  7  1  1  6  0  0  0
  7  4  1  0  0  0  0
  7  9  1  0  0  0  0
  9  3  1  6  0  0  0
 10  4  1  0  0  0  0
 10  5  1  6  0  0  0
 11 19  1  6  0  0  0
 11 10  1  0  0  0  0
 12 15  1  0  0  0  0
 13 11  1  0  0  0  0
 13 12  1  0  0  0  0
 13 15  1  0  0  0  0
 14 18  1  6  0  0  0
 14 16  1  0  0  0  0
 14 20  1  0  0  0  0
 16 17  1  0  0  0  0
 17 11  1  0  0  0  0
 20 13  1  0  0  0  0
 21 28  2  0  0  0  0
 21 24  1  0  0  0  0
 22 25  1  0  0  0  0
 22 26  1  0  0  0  0
 23 27  1  0  0  0  0
 23 25  2  0  0  0  0
 24 22  2  0  0  0  0
 28 23  1  0  0  0  0
M  END
>  <MODEL>
5

>  <REMARK>
 VINA RESULT:      -7.0      1.238      1.679
  Name = 
  2 active torsions:
  status: ('A' for Active; 'I' for Inactive)
    1  A    between atoms: C_1  and  C_27
    2  A    between atoms: C_10  and  C_13
                            x       y       z     vdW  Elec       q    Type
                         _______ _______ _______ _____ _____    ______ ____

>  <TORSDO>
F 2

$$$$
=
 OpenBabel11052418153D

 28 31  0  0  1  0  0  0  0  0999 V2000
  188.9550  172.3300  143.6390 O   0  0  0  0  0  1  0  0  0  0  0  0
  188.3780  175.0720  142.5230 C   0  0  2  0  0  3  0  0  0  0  0  0
  187.0050  173.1990  141.9170 F   0  0  0  0  0  0  0  0  0  0  0  0
  190.7440  173.2930  142.2870 C   0  0  1  0  0  0  0  0  0  0  0  0
  189.7810  175.6560  142.3750 C   0  0  0  0  0  2  0  0  0  0  0  0
  191.0950  173.4370  140.9430 O   0  0  0  0  0  1  0  0  0  0  0  0
  189.3080  172.7280  142.3450 C   0  0  2  0  0  3  0  0  0  0  0  0
  191.7200  172.2930  142.8910 C   0  0  0  0  0  1  0  0  0  0  0  0
  188.2800  173.7250  141.7980 C   0  0  2  0  0  3  0  0  0  0  0  0
  190.8320  174.6980  142.9550 C   0  0  1  0  0  3  0  0  0  0  0  0
  191.1070  174.8250  144.5000 C   0  0  1  0  0  0  0  0  0  0  0  0
  192.8720  176.6540  143.8990 C   0  0  0  0  0  2  0  0  0  0  0  0
  192.4780  175.4890  144.7850 C   0  0  0  0  0  0  0  0  0  0  0  0
  191.5130  176.6340  146.9710 C   0  0  1  0  0  3  0  0  0  0  0  0
  193.6130  175.3240  143.7960 C   0  0  0  0  0  2  0  0  0  0  0  0
  190.2570  175.8200  146.6970 C   0  0  0  0  0  2  0  0  0  0  0  0
  190.0280  175.6780  145.1940 C   0  0  0  0  0  2  0  0  0  0  0  0
  191.5850  177.0490  148.7340 S   0  0  0  0  0  1  0  0  0  0  0  0
  191.0970  173.5630  145.0990 O   0  0  0  0  0  1  0  0  0  0  0  0
  193.0020  175.6870  146.5170 S   0  0  0  0  0  0  0  0  0  0  0  0
  187.3650  176.4960  140.7010 C   0  0  0  0  0  3  0  0  0  0  0  0
  186.3690  176.5310  142.9120 C   0  0  0  0  0  0  0  0  0  0  0  0
  185.4310  177.8840  141.1350 C   0  0  0  0  0  0  0  0  0  0  0  0
  187.3510  176.0480  142.0320 C   0  0  0  0  0  0  0  0  0  0  0  0
  185.4130  177.4460  142.4620 C   0  0  0  0  0  3  0  0  0  0  0  0
  186.3370  176.1170  144.2030 F   0  0  0  0  0  0  0  0  0  0  0  0
  184.5030  178.7710  140.7020 F   0  0  0  0  0  0  0  0  0  0  0  0
  186.4080  177.4100  140.2540 C   0  0  0  0  0  3  0  0  0  0  0  0
  2 24  1  6  0  0  0
  4  7  1  0  0  0  0
  4  8  1  1  0  0  0
  4 10  1  0  0  0  0
  5  2  1  0  0  0  0
  6  4  1  0  0  0  0
  7  1  1  1  0  0  0
  9  3  1  1  0  0  0
  9  7  1  0  0  0  0
  9  2  1  0  0  0  0
 10  5  1  1  0  0  0
 10 11  1  0  0  0  0
 11 13  1  0  0  0  0
 11 19  1  1  0  0  0
 11 17  1  0  0  0  0
 12 13  1  0  0  0  0
 13 20  1  0  0  0  0
 14 18  1  1  0  0  0
 15 12  1  0  0  0  0
 15 13  1  0  0  0  0
 16 14  1  0  0  0  0
 17 16  1  0  0  0  0
 20 14  1  0  0  0  0
 21 24  1  0  0  0  0
 22 26  1  0  0  0  0
 23 25  2  0  0  0  0
 24 22  2  0  0  0  0
 25 22  1  0  0  0  0
 27 23  1  0  0  0  0
 28 21  2  0  0  0  0
 28 23  1  0  0  0  0
M  END
>  <MODEL>
6

>  <REMARK>
 VINA RESULT:      -6.8      3.274      5.278
  Name = 
  2 active torsions:
  status: ('A' for Active; 'I' for Inactive)
    1  A    between atoms: C_1  and  C_27
    2  A    between atoms: C_10  and  C_13
                            x       y       z     vdW  Elec       q    Type
                         _______ _______ _______ _____ _____    ______ ____

>  <TORSDO>
F 2

$$$$
=
 OpenBabel11052418153D

 28 31  0  0  1  0  0  0  0  0999 V2000
  193.7070  174.2610  141.6590 O   0  0  0  0  0  1  0  0  0  0  0  0
  192.5250  175.0610  144.3160 C   0  0  2  0  0  3  0  0  0  0  0  0
  191.5990  175.9050  142.2690 F   0  0  0  0  0  0  0  0  0  0  0  0
  195.2260  175.4590  143.1470 C   0  0  1  0  0  0  0  0  0  0  0  0
  193.7610  175.1150  145.2110 C   0  0  0  0  0  2  0  0  0  0  0  0
  195.5250  176.7710  143.5220 O   0  0  0  0  0  1  0  0  0  0  0  0
  193.9520  175.4930  142.2740 C   0  0  2  0  0  3  0  0  0  0  0  0
  196.4050  174.9570  142.3250 C   0  0  0  0  0  1  0  0  0  0  0  0
  192.7240  175.9400  143.0760 C   0  0  2  0  0  3  0  0  0  0  0  0
  195.0040  174.6300  144.4480 C   0  0  1  0  0  3  0  0  0  0  0  0
  195.2570  173.0770  144.4510 C   0  0  1  0  0  0  0  0  0  0  0  0
  196.9250  173.4860  146.4180 C   0  0  0  0  0  2  0  0  0  0  0  0
  196.5860  172.7140  145.1590 C   0  0  0  0  0  0  0  0  0  0  0  0
  195.5380  170.4490  146.0510 C   0  0  1  0  0  3  0  0  0  0  0  0
  197.7380  173.6970  145.1450 C   0  0  0  0  0  2  0  0  0  0  0  0
  194.3320  170.8130  145.1990 C   0  0  0  0  0  2  0  0  0  0  0  0
  194.1260  172.3260  145.1800 C   0  0  0  0  0  2  0  0  0  0  0  0
  195.5700  168.6550  146.3100 S   0  0  0  0  0  1  0  0  0  0  0  0
  195.3090  172.5920  143.1420 O   0  0  0  0  0  1  0  0  0  0  0  0
  197.0810  170.9630  145.2290 S   0  0  0  0  0  0  0  0  0  0  0  0
  191.0550  176.8000  145.4070 C   0  0  0  0  0  3  0  0  0  0  0  0
  190.3980  174.4680  145.5150 C   0  0  0  0  0  0  0  0  0  0  0  0
  189.0190  176.1690  146.5510 C   0  0  0  0  0  0  0  0  0  0  0  0
  191.3020  175.4550  145.0900 C   0  0  0  0  0  0  0  0  0  0  0  0
  189.2600  174.8280  146.2430 C   0  0  0  0  0  3  0  0  0  0  0  0
  190.6170  173.1610  145.2260 F   0  0  0  0  0  0  0  0  0  0  0  0
  187.9150  176.5140  147.2560 F   0  0  0  0  0  0  0  0  0  0  0  0
  189.9170  177.1560  146.1340 C   0  0  0  0  0  3  0  0  0  0  0  0
  2 24  1  1  0  0  0
  2  5  1  0  0  0  0
  4  8  1  6  0  0  0
  4  6  1  0  0  0  0
  4 10  1  0  0  0  0
  7  1  1  1  0  0  0
  7  9  1  0  0  0  0
  7  4  1  0  0  0  0
  9  3  1  6  0  0  0
  9  2  1  0  0  0  0
 10 11  1  0  0  0  0
 10  5  1  6  0  0  0
 11 19  1  6  0  0  0
 11 13  1  0  0  0  0
 11 17  1  0  0  0  0
 13 20  1  0  0  0  0
 13 12  1  0  0  0  0
 14 18  1  6  0  0  0
 15 13  1  0  0  0  0
 15 12  1  0  0  0  0
 16 14  1  0  0  0  0
 17 16  1  0  0  0  0
 20 14  1  0  0  0  0
 21 28  1  0  0  0  0
 22 25  2  0  0  0  0
 23 27  1  0  0  0  0
 24 21  2  0  0  0  0
 24 22  1  0  0  0  0
 25 23  1  0  0  0  0
 26 22  1  0  0  0  0
 28 23  2  0  0  0  0
M  END
>  <MODEL>
7

>  <REMARK>
 VINA RESULT:      -6.6      4.042      5.820
  Name = 
  2 active torsions:
  status: ('A' for Active; 'I' for Inactive)
    1  A    between atoms: C_1  and  C_27
    2  A    between atoms: C_10  and  C_13
                            x       y       z     vdW  Elec       q    Type
                         _______ _______ _______ _____ _____    ______ ____

>  <TORSDO>
F 2

$$$$
=
 OpenBabel11052418153D

 28 31  0  0  1  0  0  0  0  0999 V2000
  189.7080  177.9360  142.6100 O   0  0  0  0  0  1  0  0  0  0  0  0
  189.9130  175.0200  141.8650 C   0  0  2  0  0  3  0  0  0  0  0  0
  188.1390  176.3780  140.9870 F   0  0  0  0  0  0  0  0  0  0  0  0
  189.5300  176.3760  144.4790 C   0  0  1  0  0  0  0  0  0  0  0  0
  190.4550  174.4010  143.1510 C   0  0  0  0  0  2  0  0  0  0  0  0
  188.5720  175.5710  145.0970 O   0  0  0  0  0  1  0  0  0  0  0  0
  188.9130  176.9350  143.1780 C   0  0  2  0  0  3  0  0  0  0  0  0
  189.8330  177.5170  145.4410 C   0  0  0  0  0  1  0  0  0  0  0  0
  188.6420  175.8270  142.1540 C   0  0  2  0  0  3  0  0  0  0  0  0
  190.7780  175.4920  144.1840 C   0  0  1  0  0  3  0  0  0  0  0  0
  192.2060  176.1440  144.0770 C   0  0  1  0  0  0  0  0  0  0  0  0
  193.0340  174.2830  145.7100 C   0  0  0  0  0  2  0  0  0  0  0  0
  193.1170  175.7270  145.2580 C   0  0  0  0  0  0  0  0  0  0  0  0
  195.2500  175.7930  143.6870 C   0  0  1  0  0  3  0  0  0  0  0  0
  192.5020  175.3990  146.6030 C   0  0  0  0  0  2  0  0  0  0  0  0
  194.3070  176.3480  142.6320 C   0  0  0  0  0  2  0  0  0  0  0  0
  192.9180  175.7290  142.7760 C   0  0  0  0  0  2  0  0  0  0  0  0
  196.9480  176.3000  143.3010 S   0  0  0  0  0  1  0  0  0  0  0  0
  192.1020  177.5380  144.0740 O   0  0  0  0  0  1  0  0  0  0  0  0
  194.8010  176.4150  145.3400 S   0  0  0  0  0  0  0  0  0  0  0  0
  188.4080  173.3860  140.6660 C   0  0  0  0  0  3  0  0  0  0  0  0
  190.7430  173.5210  140.0270 C   0  0  0  0  0  0  0  0  0  0  0  0
  189.2640  171.9640  138.9050 C   0  0  0  0  0  0  0  0  0  0  0  0
  189.6790  173.9580  140.8310 C   0  0  0  0  0  0  0  0  0  0  0  0
  190.5330  172.5270  139.0670 C   0  0  0  0  0  3  0  0  0  0  0  0
  191.9820  174.0560  140.1710 F   0  0  0  0  0  0  0  0  0  0  0  0
  189.0650  171.0010  137.9740 F   0  0  0  0  0  0  0  0  0  0  0  0
  188.2020  172.3930  139.7050 C   0  0  0  0  0  3  0  0  0  0  0  0
  2 24  1  6  0  0  0
  2  9  1  0  0  0  0
  2  5  1  0  0  0  0
  4  6  1  0  0  0  0
  4  8  1  1  0  0  0
  7  1  1  6  0  0  0
  7  4  1  0  0  0  0
  9  3  1  6  0  0  0
  9  7  1  0  0  0  0
 10  5  1  6  0  0  0
 10  4  1  0  0  0  0
 11 19  1  1  0  0  0
 11 10  1  0  0  0  0
 11 13  1  0  0  0  0
 12 15  1  0  0  0  0
 13 20  1  0  0  0  0
 13 12  1  0  0  0  0
 13 15  1  0  0  0  0
 14 18  1  6  0  0  0
 14 20  1  0  0  0  0
 16 17  1  0  0  0  0
 16 14  1  0  0  0  0
 17 11  1  0  0  0  0
 21 24  1  0  0  0  0
 22 26  1  0  0  0  0
 22 24  2  0  0  0  0
 23 25  2  0  0  0  0
 23 28  1  0  0  0  0
 25 22  1  0  0  0  0
 27 23  1  0  0  0  0
 28 21  2  0  0  0  0
M  END
>  <MODEL>
8

>  <REMARK>
 VINA RESULT:      -6.4      3.722      6.358
  Name = 
  2 active torsions:
  status: ('A' for Active; 'I' for Inactive)
    1  A    between atoms: C_1  and  C_27
    2  A    between atoms: C_10  and  C_13
                            x       y       z     vdW  Elec       q    Type
                         _______ _______ _______ _____ _____    ______ ____

>  <TORSDO>
F 2

$$$$
=
 OpenBabel11052418153D

 28 31  0  0  1  0  0  0  0  0999 V2000
  191.3760  177.2950  142.8750 O   0  0  0  0  0  1  0  0  0  0  0  0
  188.4500  176.7290  142.4090 C   0  0  2  0  0  3  0  0  0  0  0  0
  189.2230  178.9830  142.6960 F   0  0  0  0  0  0  0  0  0  0  0  0
  190.3050  175.9170  144.5810 C   0  0  1  0  0  0  0  0  0  0  0  0
  188.2640  175.4000  143.1380 C   0  0  0  0  0  2  0  0  0  0  0  0
  189.5160  176.0700  145.7230 O   0  0  0  0  0  1  0  0  0  0  0  0
  190.4180  177.2950  143.8930 C   0  0  2  0  0  3  0  0  0  0  0  0
  191.6790  175.4600  145.0550 C   0  0  0  0  0  1  0  0  0  0  0  0
  189.0660  177.7730  143.3490 C   0  0  2  0  0  3  0  0  0  0  0  0
  189.6100  174.8730  143.6580 C   0  0  1  0  0  3  0  0  0  0  0  0
  190.4600  174.0230  142.6420 C   0  0  1  0  0  0  0  0  0  0  0  0
  189.2270  171.9190  143.5760 C   0  0  0  0  0  2  0  0  0  0  0  0
  190.5090  172.5280  143.0460 C   0  0  0  0  0  0  0  0  0  0  0  0
  190.5680  171.8000  140.4990 C   0  0  1  0  0  3  0  0  0  0  0  0
  190.4140  172.1410  144.5070 C   0  0  0  0  0  2  0  0  0  0  0  0
  190.6750  173.2880  140.2010 C   0  0  0  0  0  2  0  0  0  0  0  0
  189.8730  174.0960  141.2190 C   0  0  0  0  0  2  0  0  0  0  0  0
  191.2580  170.8600  139.1110 S   0  0  0  0  0  1  0  0  0  0  0  0
  191.7690  174.5050  142.5830 O   0  0  0  0  0  1  0  0  0  0  0  0
  191.4830  171.3830  142.0190 S   0  0  0  0  0  0  0  0  0  0  0  0
  186.9880  177.3410  140.4440 C   0  0  0  0  0  3  0  0  0  0  0  0
  186.0760  177.5030  142.6850 C   0  0  0  0  0  0  0  0  0  0  0  0
  184.7090  178.0840  140.7720 C   0  0  0  0  0  0  0  0  0  0  0  0
  187.1470  177.1960  141.8310 C   0  0  0  0  0  0  0  0  0  0  0  0
  184.8610  177.9450  142.1540 C   0  0  0  0  0  3  0  0  0  0  0  0
  186.2070  177.3750  144.0290 F   0  0  0  0  0  0  0  0  0  0  0  0
  183.5300  178.5130  140.2610 F   0  0  0  0  0  0  0  0  0  0  0  0
  185.7720  177.7830  139.9170 C   0  0  0  0  0  3  0  0  0  0  0  0
  2 24  1  1  0  0  0
  2  5  1  0  0  0  0
  2  9  1  0  0  0  0
  4  8  1  1  0  0  0
  4  6  1  0  0  0  0
  7  1  1  6  0  0  0
  7  4  1  0  0  0  0
  9  3  1  6  0  0  0
  9  7  1  0  0  0  0
 10  5  1  6  0  0  0
 10  4  1  0  0  0  0
 11 19  1  6  0  0  0
 11 13  1  0  0  0  0
 11 10  1  0  0  0  0
 12 15  1  0  0  0  0
 13 12  1  0  0  0  0
 13 15  1  0  0  0  0
 14 18  1  6  0  0  0
 14 20  1  0  0  0  0
 16 14  1  0  0  0  0
 16 17  1  0  0  0  0
 17 11  1  0  0  0  0
 20 13  1  0  0  0  0
 21 24  1  0  0  0  0
 22 26  1  0  0  0  0
 23 25  2  0  0  0  0
 24 22  2  0  0  0  0
 25 22  1  0  0  0  0
 27 23  1  0  0  0  0
 28 21  2  0  0  0  0
 28 23  1  0  0  0  0
M  END
>  <MODEL>
9

>  <REMARK>
 VINA RESULT:      -6.4      2.362      3.159
  Name = 
  2 active torsions:
  status: ('A' for Active; 'I' for Inactive)
    1  A    between atoms: C_1  and  C_27
    2  A    between atoms: C_10  and  C_13
                            x       y       z     vdW  Elec       q    Type
                         _______ _______ _______ _____ _____    ______ ____

>  <TORSDO>
F 2

$$$$
