=
 OpenBabel11052418113D

 28 32  0  0  1  0  0  0  0  0999 V2000
  190.3190  172.9040  143.1310 C   0  0  1  0  0  3  0  0  0  0  0  0
  187.4290  177.1150  144.1690 C   0  0  0  0  0  3  0  0  0  0  0  0
  188.4850  174.1520  138.6740 C   0  0  0  0  0  1  0  0  0  0  0  0
  186.5690  177.7040  141.9740 C   0  0  0  0  0  0  0  0  0  0  0  0
  188.0290  175.7250  142.1630 C   0  0  0  0  0  0  0  0  0  0  0  0
  185.9880  179.0450  143.9050 C   0  0  0  0  0  0  0  0  0  0  0  0
  187.3390  176.8610  142.7940 C   0  0  0  0  0  0  0  0  0  0  0  0
  187.1350  176.3670  139.9910 C   0  0  0  0  0  3  0  0  0  0  0  0
  185.8960  178.7940  142.5320 C   0  0  0  0  0  3  0  0  0  0  0  0
  189.3500  173.5350  140.9480 C   0  0  0  0  0  0  0  0  0  0  0  0
  188.7570  174.9030  142.8600 N   0  0  0  0  0  0  0  0  0  0  0  0
  186.4780  177.4500  140.5970 O   0  0  0  0  0  0  0  0  0  0  0  0
  190.6020  171.4890  141.0970 C   0  0  0  0  0  3  0  0  0  0  0  0
  188.5710  174.4070  140.1070 N   0  0  0  0  0  0  0  0  0  0  0  0
  190.0630  172.4250  140.3720 N   0  0  0  0  0  0  0  0  0  0  0  0
  185.2710  180.2050  144.4950 C   0  0  0  0  0  1  0  0  0  0  0  0
  186.7530  178.2070  144.7220 C   0  0  0  0  0  3  0  0  0  0  0  0
  187.8860  175.5200  140.7080 C   0  0  0  0  0  0  0  0  0  0  0  0
  190.4310  171.4760  142.5880 C   0  0  0  0  0  2  0  0  0  0  0  0
  189.4300  173.7720  142.2750 C   0  0  0  0  0  0  0  0  0  0  0  0
  189.9150  172.9050  144.5050 O   0  0  0  0  0  0  0  0  0  0  0  0
  190.3510  173.8200  145.4750 C   0  0  0  0  0  0  0  0  0  0  0  0
  191.1520  175.6430  147.4520 C   0  0  0  0  0  0  0  0  0  0  0  0
  191.6840  174.2600  145.5390 C   0  0  0  0  0  3  0  0  0  0  0  0
  189.4260  174.3030  146.4070 C   0  0  0  0  0  3  0  0  0  0  0  0
  189.8240  175.2110  147.3930 C   0  0  0  0  0  3  0  0  0  0  0  0
  191.5360  176.5220  148.4070 F   0  0  0  0  0  0  0  0  0  0  0  0
  192.0820  175.1670  146.5250 C   0  0  0  0  0  3  0  0  0  0  0  0
  1 21  1  1  0  0  0
  2 17  1  0  0  0  0
  3 14  1  0  0  0  0
  4  9  2  0  0  0  0
  4  7  1  0  0  0  0
  5  7  1  0  0  0  0
  5 11  2  0  0  0  0
  6 16  1  0  0  0  0
  6 17  2  0  0  0  0
  7  2  2  0  0  0  0
  8 12  1  0  0  0  0
  8 18  2  0  0  0  0
  9  6  1  0  0  0  0
 10 20  2  0  0  0  0
 12  4  1  0  0  0  0
 13 19  1  0  0  0  0
 14 18  1  0  0  0  0
 14 10  1  0  0  0  0
 15 10  1  0  0  0  0
 15 13  2  0  0  0  0
 18  5  1  0  0  0  0
 19  1  1  0  0  0  0
 20 11  1  0  0  0  0
 20  1  1  0  0  0  0
 21 22  1  0  0  0  0
 22 24  2  0  0  0  0
 22 25  1  0  0  0  0
 23 27  1  0  0  0  0
 24 28  1  0  0  0  0
 25 26  2  0  0  0  0
 26 23  1  0  0  0  0
 28 23  2  0  0  0  0
M  END
>  <MODEL>
1

>  <REMARK>
 VINA RESULT:      -8.0      0.000      0.000
  Name = 
  2 active torsions:
  status: ('A' for Active; 'I' for Inactive)
    1  A    between atoms: C_1  and  O_2
    2  A    between atoms: O_2  and  C_3
                            x       y       z     vdW  Elec       q    Type
                         _______ _______ _______ _____ _____    ______ ____

>  <TORSDO>
F 2

$$$$
=
 OpenBabel11052418113D

 28 32  0  0  1  0  0  0  0  0999 V2000
  187.6740  176.0350  142.2170 C   0  0  1  0  0  3  0  0  0  0  0  0
  189.7500  177.4690  146.7760 C   0  0  0  0  0  3  0  0  0  0  0  0
  191.5130  172.9110  142.7510 C   0  0  0  0  0  1  0  0  0  0  0  0
  191.6030  175.9150  147.0110 C   0  0  0  0  0  0  0  0  0  0  0  0
  190.2020  175.7620  144.9870 C   0  0  0  0  0  0  0  0  0  0  0  0
  191.1720  177.5580  148.7360 C   0  0  0  0  0  0  0  0  0  0  0  0
  190.5080  176.4020  146.2760 C   0  0  0  0  0  0  0  0  0  0  0  0
  192.0730  174.2340  145.2810 C   0  0  0  0  0  3  0  0  0  0  0  0
  191.9310  176.4930  148.2390 C   0  0  0  0  0  3  0  0  0  0  0  0
  189.6160  174.5350  142.5030 C   0  0  0  0  0  0  0  0  0  0  0  0
  189.2050  176.1630  144.2520 N   0  0  0  0  0  0  0  0  0  0  0  0
  192.3630  174.8470  146.5100 O   0  0  0  0  0  0  0  0  0  0  0  0
  188.4130  174.4650  140.4250 C   0  0  0  0  0  3  0  0  0  0  0  0
  190.7290  174.0280  143.2640 N   0  0  0  0  0  0  0  0  0  0  0  0
  189.2620  173.9250  141.2480 N   0  0  0  0  0  0  0  0  0  0  0  0
  191.5230  178.1720  150.0430 C   0  0  0  0  0  1  0  0  0  0  0  0
  190.0830  178.0450  148.0060 C   0  0  0  0  0  3  0  0  0  0  0  0
  191.0460  174.6450  144.5230 C   0  0  0  0  0  0  0  0  0  0  0  0
  187.8170  175.8130  140.7080 C   0  0  0  0  0  2  0  0  0  0  0  0
  188.8900  175.5690  142.9790 C   0  0  0  0  0  0  0  0  0  0  0  0
  187.3380  177.3950  142.5110 O   0  0  0  0  0  0  0  0  0  0  0  0
  186.3960  177.8060  143.4650 C   0  0  0  0  0  0  0  0  0  0  0  0
  184.5000  178.6980  145.3320 C   0  0  0  0  0  0  0  0  0  0  0  0
  185.9330  176.9460  144.4760 C   0  0  0  0  0  3  0  0  0  0  0  0
  185.9020  179.1140  143.4010 C   0  0  0  0  0  3  0  0  0  0  0  0
  184.9570  179.5590  144.3300 C   0  0  0  0  0  3  0  0  0  0  0  0
  183.5840  179.1300  146.2310 F   0  0  0  0  0  0  0  0  0  0  0  0
  184.9880  177.3910  145.4050 C   0  0  0  0  0  3  0  0  0  0  0  0
  1 21  1  6  0  0  0
  1 20  1  0  0  0  0
  2 17  1  0  0  0  0
  3 14  1  0  0  0  0
  4  9  2  0  0  0  0
  5  7  1  0  0  0  0
  6 16  1  0  0  0  0
  7  2  2  0  0  0  0
  7  4  1  0  0  0  0
  8 12  1  0  0  0  0
  9  6  1  0  0  0  0
 10 20  2  0  0  0  0
 10 14  1  0  0  0  0
 11  5  2  0  0  0  0
 12  4  1  0  0  0  0
 13 19  1  0  0  0  0
 13 15  2  0  0  0  0
 14 18  1  0  0  0  0
 15 10  1  0  0  0  0
 17  6  2  0  0  0  0
 18  5  1  0  0  0  0
 18  8  2  0  0  0  0
 19  1  1  0  0  0  0
 20 11  1  0  0  0  0
 21 22  1  0  0  0  0
 22 24  1  0  0  0  0
 23 28  1  0  0  0  0
 23 27  1  0  0  0  0
 24 28  2  0  0  0  0
 25 22  2  0  0  0  0
 25 26  1  0  0  0  0
 26 23  2  0  0  0  0
M  END
>  <MODEL>
2

>  <REMARK>
 VINA RESULT:      -7.8      2.418      5.959
  Name = 
  2 active torsions:
  status: ('A' for Active; 'I' for Inactive)
    1  A    between atoms: C_1  and  O_2
    2  A    between atoms: O_2  and  C_3
                            x       y       z     vdW  Elec       q    Type
                         _______ _______ _______ _____ _____    ______ ____

>  <TORSDO>
F 2

$$$$
=
 OpenBabel11052418113D

 28 32  0  0  1  0  0  0  0  0999 V2000
  189.7340  173.9190  142.4650 C   0  0  1  0  0  3  0  0  0  0  0  0
  187.5190  177.1650  145.8880 C   0  0  0  0  0  3  0  0  0  0  0  0
  186.7880  176.7440  139.6130 C   0  0  0  0  0  1  0  0  0  0  0  0
  186.1080  178.5350  144.4610 C   0  0  0  0  0  0  0  0  0  0  0  0
  187.4380  176.7430  143.4120 C   0  0  0  0  0  0  0  0  0  0  0  0
  186.1820  178.9440  146.8470 C   0  0  0  0  0  0  0  0  0  0  0  0
  187.0270  177.4830  144.6150 C   0  0  0  0  0  0  0  0  0  0  0  0
  186.0050  178.1510  142.0370 C   0  0  0  0  0  3  0  0  0  0  0  0
  185.6890  179.2630  145.5770 C   0  0  0  0  0  3  0  0  0  0  0  0
  188.2250  175.3160  141.0950 C   0  0  0  0  0  0  0  0  0  0  0  0
  188.2840  175.7560  143.4790 N   0  0  0  0  0  0  0  0  0  0  0  0
  185.6140  178.8540  143.1870 O   0  0  0  0  0  0  0  0  0  0  0  0
  189.3400  173.4670  140.0440 C   0  0  0  0  0  3  0  0  0  0  0  0
  187.2930  176.4040  140.9380 N   0  0  0  0  0  0  0  0  0  0  0  0
  188.6760  174.5800  139.9440 N   0  0  0  0  0  0  0  0  0  0  0  0
  185.7350  179.7200  148.0330 C   0  0  0  0  0  1  0  0  0  0  0  0
  187.0950  177.8970  147.0020 C   0  0  0  0  0  3  0  0  0  0  0  0
  186.8760  177.1340  142.1040 C   0  0  0  0  0  0  0  0  0  0  0  0
  189.6000  172.8420  141.3840 C   0  0  0  0  0  2  0  0  0  0  0  0
  188.6920  175.0020  142.3230 C   0  0  0  0  0  0  0  0  0  0  0  0
  189.7370  173.3410  143.7750 O   0  0  0  0  0  0  0  0  0  0  0  0
  190.1600  173.9910  144.9440 C   0  0  0  0  0  0  0  0  0  0  0  0
  191.0690  175.3220  147.2410 C   0  0  0  0  0  0  0  0  0  0  0  0
  189.3580  174.0500  146.0960 C   0  0  0  0  0  3  0  0  0  0  0  0
  191.4180  174.6030  144.9540 C   0  0  0  0  0  3  0  0  0  0  0  0
  191.8730  175.2660  146.0980 C   0  0  0  0  0  3  0  0  0  0  0  0
  191.5090  175.9650  148.3480 F   0  0  0  0  0  0  0  0  0  0  0  0
  189.8110  174.7130  147.2390 C   0  0  0  0  0  3  0  0  0  0  0  0
  1 21  1  1  0  0  0
  2 17  1  0  0  0  0
  3 14  1  0  0  0  0
  4  7  1  0  0  0  0
  4  9  2  0  0  0  0
  5 11  2  0  0  0  0
  5  7  1  0  0  0  0
  6 17  2  0  0  0  0
  6 16  1  0  0  0  0
  7  2  2  0  0  0  0
  8 18  2  0  0  0  0
  8 12  1  0  0  0  0
  9  6  1  0  0  0  0
 10 20  2  0  0  0  0
 12  4  1  0  0  0  0
 13 19  1  0  0  0  0
 14 10  1  0  0  0  0
 14 18  1  0  0  0  0
 15 13  2  0  0  0  0
 15 10  1  0  0  0  0
 18  5  1  0  0  0  0
 19  1  1  0  0  0  0
 20  1  1  0  0  0  0
 20 11  1  0  0  0  0
 21 22  1  0  0  0  0
 22 25  2  0  0  0  0
 22 24  1  0  0  0  0
 23 27  1  0  0  0  0
 24 28  2  0  0  0  0
 25 26  1  0  0  0  0
 26 23  2  0  0  0  0
 28 23  1  0  0  0  0
M  END
>  <MODEL>
3

>  <REMARK>
 VINA RESULT:      -7.7      1.398      2.285
  Name = 
  2 active torsions:
  status: ('A' for Active; 'I' for Inactive)
    1  A    between atoms: C_1  and  O_2
    2  A    between atoms: O_2  and  C_3
                            x       y       z     vdW  Elec       q    Type
                         _______ _______ _______ _____ _____    ______ ____

>  <TORSDO>
F 2

$$$$
=
 OpenBabel11052418113D

 28 32  0  0  1  0  0  0  0  0999 V2000
  192.3000  173.9080  142.5490 C   0  0  1  0  0  3  0  0  0  0  0  0
  189.0140  176.4700  145.6800 C   0  0  0  0  0  3  0  0  0  0  0  0
  188.1910  174.3470  139.7720 C   0  0  0  0  0  1  0  0  0  0  0  0
  187.0350  176.6810  144.2870 C   0  0  0  0  0  0  0  0  0  0  0  0
  188.9940  175.5070  143.3580 C   0  0  0  0  0  0  0  0  0  0  0  0
  187.0490  177.6100  146.5240 C   0  0  0  0  0  0  0  0  0  0  0  0
  188.3530  176.2300  144.4680 C   0  0  0  0  0  0  0  0  0  0  0  0
  186.9800  175.7520  142.0130 C   0  0  0  0  0  3  0  0  0  0  0  0
  186.3860  177.3710  145.3150 C   0  0  0  0  0  3  0  0  0  0  0  0
  190.2250  174.1110  141.2240 C   0  0  0  0  0  0  0  0  0  0  0  0
  190.2120  175.0590  143.4560 N   0  0  0  0  0  0  0  0  0  0  0  0
  186.3710  176.4400  143.0750 O   0  0  0  0  0  0  0  0  0  0  0  0
  192.0240  172.7890  140.3380 C   0  0  0  0  0  3  0  0  0  0  0  0
  188.8780  174.5860  141.0360 N   0  0  0  0  0  0  0  0  0  0  0  0
  190.9020  173.4210  140.1580 N   0  0  0  0  0  0  0  0  0  0  0  0
  186.3580  178.3430  147.6160 C   0  0  0  0  0  1  0  0  0  0  0  0
  188.3610  177.1600  146.7050 C   0  0  0  0  0  3  0  0  0  0  0  0
  188.2340  175.2900  142.1120 C   0  0  0  0  0  0  0  0  0  0  0  0
  192.6330  172.6740  141.7050 C   0  0  0  0  0  2  0  0  0  0  0  0
  190.8600  174.3330  142.3950 C   0  0  0  0  0  0  0  0  0  0  0  0
  192.6610  173.7100  143.9210 O   0  0  0  0  0  0  0  0  0  0  0  0
  193.1240  174.7120  144.7870 C   0  0  0  0  0  0  0  0  0  0  0  0
  194.0970  176.7460  146.4580 C   0  0  0  0  0  0  0  0  0  0  0  0
  192.5590  174.9210  146.0560 C   0  0  0  0  0  3  0  0  0  0  0  0
  194.1790  175.5290  144.3650 C   0  0  0  0  0  3  0  0  0  0  0  0
  194.6650  176.5430  145.1970 C   0  0  0  0  0  3  0  0  0  0  0  0
  194.5660  177.7280  147.2630 F   0  0  0  0  0  0  0  0  0  0  0  0
  193.0440  175.9340  146.8880 C   0  0  0  0  0  3  0  0  0  0  0  0
  1 21  1  1  0  0  0
  2 17  1  0  0  0  0
  3 14  1  0  0  0  0
  4  7  1  0  0  0  0
  4  9  2  0  0  0  0
  5 11  2  0  0  0  0
  5  7  1  0  0  0  0
  6 17  2  0  0  0  0
  6 16  1  0  0  0  0
  7  2  2  0  0  0  0
  8 18  2  0  0  0  0
  8 12  1  0  0  0  0
  9  6  1  0  0  0  0
 10 20  2  0  0  0  0
 12  4  1  0  0  0  0
 13 19  1  0  0  0  0
 14 10  1  0  0  0  0
 14 18  1  0  0  0  0
 15 13  2  0  0  0  0
 15 10  1  0  0  0  0
 18  5  1  0  0  0  0
 19  1  1  0  0  0  0
 20  1  1  0  0  0  0
 20 11  1  0  0  0  0
 21 22  1  0  0  0  0
 22 24  1  0  0  0  0
 23 28  1  0  0  0  0
 23 27  1  0  0  0  0
 24 28  2  0  0  0  0
 25 22  2  0  0  0  0
 25 26  1  0  0  0  0
 26 23  2  0  0  0  0
M  END
>  <MODEL>
4

>  <REMARK>
 VINA RESULT:      -7.5      2.028      2.691
  Name = 
  2 active torsions:
  status: ('A' for Active; 'I' for Inactive)
    1  A    between atoms: C_1  and  O_2
    2  A    between atoms: O_2  and  C_3
                            x       y       z     vdW  Elec       q    Type
                         _______ _______ _______ _____ _____    ______ ____

>  <TORSDO>
F 2

$$$$
=
 OpenBabel11052418113D

 28 32  0  0  1  0  0  0  0  0999 V2000
  186.6670  176.9660  140.5150 C   0  0  1  0  0  3  0  0  0  0  0  0
  189.2100  176.3730  145.0250 C   0  0  0  0  0  3  0  0  0  0  0  0
  189.6790  173.1030  139.6240 C   0  0  0  0  0  1  0  0  0  0  0  0
  190.6510  174.4740  144.5580 C   0  0  0  0  0  0  0  0  0  0  0  0
  189.1710  175.2850  142.7600 C   0  0  0  0  0  0  0  0  0  0  0  0
  190.6920  175.5210  146.7420 C   0  0  0  0  0  0  0  0  0  0  0  0
  189.6730  175.3920  144.1390 C   0  0  0  0  0  0  0  0  0  0  0  0
  190.6390  173.3850  142.3560 C   0  0  0  0  0  3  0  0  0  0  0  0
  191.1570  174.5400  145.8590 C   0  0  0  0  0  3  0  0  0  0  0  0
  188.2100  175.0810  140.1040 C   0  0  0  0  0  0  0  0  0  0  0  0
  188.2680  176.1020  142.3020 N   0  0  0  0  0  0  0  0  0  0  0  0
  191.1170  173.4920  143.6720 O   0  0  0  0  0  0  0  0  0  0  0  0
  186.9400  175.9440  138.2560 C   0  0  0  0  0  3  0  0  0  0  0  0
  189.2030  174.1320  140.5400 N   0  0  0  0  0  0  0  0  0  0  0  0
  187.6700  175.0000  138.7720 N   0  0  0  0  0  0  0  0  0  0  0  0
  191.2320  175.5890  148.1250 C   0  0  0  0  0  1  0  0  0  0  0  0
  189.7200  176.4360  146.3250 C   0  0  0  0  0  3  0  0  0  0  0  0
  189.7080  174.2260  141.8830 C   0  0  0  0  0  0  0  0  0  0  0  0
  186.6920  177.2210  139.0040 C   0  0  0  0  0  2  0  0  0  0  0  0
  187.7690  176.0340  140.9530 C   0  0  0  0  0  0  0  0  0  0  0  0
  186.6750  178.1960  141.2480 O   0  0  0  0  0  0  0  0  0  0  0  0
  185.9480  178.4400  142.4230 C   0  0  0  0  0  0  0  0  0  0  0  0
  184.4270  178.9090  144.7330 C   0  0  0  0  0  0  0  0  0  0  0  0
  186.5810  178.6870  143.6530 C   0  0  0  0  0  3  0  0  0  0  0  0
  184.5510  178.4320  142.3620 C   0  0  0  0  0  3  0  0  0  0  0  0
  183.7910  178.6660  143.5120 C   0  0  0  0  0  3  0  0  0  0  0  0
  183.6910  179.1340  145.8470 F   0  0  0  0  0  0  0  0  0  0  0  0
  185.8230  178.9200  144.8030 C   0  0  0  0  0  3  0  0  0  0  0  0
  1 20  1  0  0  0  0
  1 21  1  1  0  0  0
  2 17  1  0  0  0  0
  3 14  1  0  0  0  0
  4  9  2  0  0  0  0
  5  7  1  0  0  0  0
  6 16  1  0  0  0  0
  7  4  1  0  0  0  0
  7  2  2  0  0  0  0
  8 12  1  0  0  0  0
  9  6  1  0  0  0  0
 10 14  1  0  0  0  0
 10 20  2  0  0  0  0
 11  5  2  0  0  0  0
 12  4  1  0  0  0  0
 13 15  2  0  0  0  0
 13 19  1  0  0  0  0
 14 18  1  0  0  0  0
 15 10  1  0  0  0  0
 17  6  2  0  0  0  0
 18  8  2  0  0  0  0
 18  5  1  0  0  0  0
 19  1  1  0  0  0  0
 20 11  1  0  0  0  0
 21 22  1  0  0  0  0
 22 24  1  0  0  0  0
 23 28  1  0  0  0  0
 23 27  1  0  0  0  0
 24 28  2  0  0  0  0
 25 22  2  0  0  0  0
 25 26  1  0  0  0  0
 26 23  2  0  0  0  0
M  END
>  <MODEL>
5

>  <REMARK>
 VINA RESULT:      -7.5      2.102      5.823
  Name = 
  2 active torsions:
  status: ('A' for Active; 'I' for Inactive)
    1  A    between atoms: C_1  and  O_2
    2  A    between atoms: O_2  and  C_3
                            x       y       z     vdW  Elec       q    Type
                         _______ _______ _______ _____ _____    ______ ____

>  <TORSDO>
F 2

$$$$
=
 OpenBabel11052418113D

 28 32  0  0  1  0  0  0  0  0999 V2000
  189.8870  176.6000  146.2230 C   0  0  1  0  0  3  0  0  0  0  0  0
  188.8860  174.5130  141.5540 C   0  0  0  0  0  3  0  0  0  0  0  0
  194.3950  175.2720  144.5800 C   0  0  0  0  0  1  0  0  0  0  0  0
  191.1040  173.8970  140.7790 C   0  0  0  0  0  0  0  0  0  0  0  0
  190.8950  174.9420  143.0030 C   0  0  0  0  0  0  0  0  0  0  0  0
  189.1710  173.4810  139.3810 C   0  0  0  0  0  0  0  0  0  0  0  0
  190.2690  174.4490  141.7650 C   0  0  0  0  0  0  0  0  0  0  0  0
  193.0900  174.3010  142.1680 C   0  0  0  0  0  3  0  0  0  0  0  0
  190.5520  173.4150  139.5890 C   0  0  0  0  0  3  0  0  0  0  0  0
  192.0990  175.8850  145.3860 C   0  0  0  0  0  0  0  0  0  0  0  0
  190.1840  175.4630  143.9600 N   0  0  0  0  0  0  0  0  0  0  0  0
  192.4890  173.8310  140.9890 O   0  0  0  0  0  0  0  0  0  0  0  0
  191.9400  176.7150  147.6350 C   0  0  0  0  0  3  0  0  0  0  0  0
  192.9540  175.3300  144.3680 N   0  0  0  0  0  0  0  0  0  0  0  0
  192.6670  176.4020  146.6030 N   0  0  0  0  0  0  0  0  0  0  0  0
  188.5860  172.9680  138.1140 C   0  0  0  0  0  1  0  0  0  0  0  0
  188.3390  174.0290  140.3620 C   0  0  0  0  0  3  0  0  0  0  0  0
  192.3590  174.8390  143.1550 C   0  0  0  0  0  0  0  0  0  0  0  0
  190.4600  176.4670  147.6380 C   0  0  0  0  0  2  0  0  0  0  0  0
  190.7640  175.9380  145.1890 C   0  0  0  0  0  0  0  0  0  0  0  0
  188.5350  176.1330  146.1660 O   0  0  0  0  0  0  0  0  0  0  0  0
  187.4130  176.9360  145.9130 C   0  0  0  0  0  0  0  0  0  0  0  0
  185.1350  178.5150  145.4770 C   0  0  0  0  0  0  0  0  0  0  0  0
  187.3900  177.8800  144.8720 C   0  0  0  0  0  3  0  0  0  0  0  0
  186.2860  176.7910  146.7290 C   0  0  0  0  0  3  0  0  0  0  0  0
  185.1500  177.5770  146.5130 C   0  0  0  0  0  3  0  0  0  0  0  0
  184.0350  179.2760  145.2680 F   0  0  0  0  0  0  0  0  0  0  0  0
  186.2550  178.6660  144.6560 C   0  0  0  0  0  3  0  0  0  0  0  0
  1 21  1  1  0  0  0
  1 19  1  0  0  0  0
  2  7  1  0  0  0  0
  4 12  1  0  0  0  0
  4  7  2  0  0  0  0
  5 18  1  0  0  0  0
  5 11  2  0  0  0  0
  6  9  2  0  0  0  0
  6 17  1  0  0  0  0
  7  5  1  0  0  0  0
  8 18  2  0  0  0  0
  9  4  1  0  0  0  0
 10 15  1  0  0  0  0
 11 20  1  0  0  0  0
 12  8  1  0  0  0  0
 13 19  1  0  0  0  0
 14  3  1  0  0  0  0
 14 10  1  0  0  0  0
 15 13  2  0  0  0  0
 16  6  1  0  0  0  0
 17  2  2  0  0  0  0
 18 14  1  0  0  0  0
 20 10  2  0  0  0  0
 20  1  1  0  0  0  0
 22 21  1  0  0  0  0
 22 25  1  0  0  0  0
 23 26  1  0  0  0  0
 24 22  2  0  0  0  0
 26 25  2  0  0  0  0
 27 23  1  0  0  0  0
 28 24  1  0  0  0  0
 28 23  2  0  0  0  0
M  END
>  <MODEL>
6

>  <REMARK>
 VINA RESULT:      -7.3      2.978      6.298
  Name = 
  2 active torsions:
  status: ('A' for Active; 'I' for Inactive)
    1  A    between atoms: C_1  and  O_2
    2  A    between atoms: O_2  and  C_3
                            x       y       z     vdW  Elec       q    Type
                         _______ _______ _______ _____ _____    ______ ____

>  <TORSDO>
F 2

$$$$
=
 OpenBabel11052418113D

 28 32  0  0  1  0  0  0  0  0999 V2000
  185.6790  176.8280  146.3420 C   0  0  1  0  0  3  0  0  0  0  0  0
  188.9390  174.0730  143.3520 C   0  0  0  0  0  3  0  0  0  0  0  0
  184.8740  178.6680  141.7870 C   0  0  0  0  0  1  0  0  0  0  0  0
  188.5040  174.9830  141.1420 C   0  0  0  0  0  0  0  0  0  0  0  0
  187.2550  175.9150  143.0530 C   0  0  0  0  0  0  0  0  0  0  0  0
  190.1290  173.2090  141.4260 C   0  0  0  0  0  0  0  0  0  0  0  0
  188.2500  174.9680  142.5240 C   0  0  0  0  0  0  0  0  0  0  0  0
  186.8650  176.7830  140.8130 C   0  0  0  0  0  3  0  0  0  0  0  0
  189.4430  174.1030  140.5960 C   0  0  0  0  0  3  0  0  0  0  0  0
  185.3450  177.7400  144.0710 C   0  0  0  0  0  0  0  0  0  0  0  0
  186.9700  175.9590  144.3220 N   0  0  0  0  0  0  0  0  0  0  0  0
  187.8160  175.8800  140.3110 O   0  0  0  0  0  0  0  0  0  0  0  0
  184.2440  178.8220  145.9120 C   0  0  0  0  0  3  0  0  0  0  0  0
  185.5970  177.7440  142.6520 N   0  0  0  0  0  0  0  0  0  0  0  0
  184.3620  178.6300  144.6310 N   0  0  0  0  0  0  0  0  0  0  0  0
  191.1260  172.2740  140.8440 C   0  0  0  0  0  1  0  0  0  0  0  0
  189.8770  173.1950  142.8010 C   0  0  0  0  0  3  0  0  0  0  0  0
  186.5710  176.8300  142.1190 C   0  0  0  0  0  0  0  0  0  0  0  0
  185.1960  178.1800  146.8780 C   0  0  0  0  0  2  0  0  0  0  0  0
  186.0150  176.8850  144.8720 C   0  0  0  0  0  0  0  0  0  0  0  0
  186.7640  176.3190  147.1260 O   0  0  0  0  0  0  0  0  0  0  0  0
  188.1170  176.3650  146.7590 C   0  0  0  0  0  0  0  0  0  0  0  0
  190.8280  176.3780  146.0350 C   0  0  0  0  0  0  0  0  0  0  0  0
  188.7140  177.5340  146.2550 C   0  0  0  0  0  3  0  0  0  0  0  0
  188.8910  175.2080  146.8970 C   0  0  0  0  0  3  0  0  0  0  0  0
  190.2420  175.2120  146.5360 C   0  0  0  0  0  3  0  0  0  0  0  0
  192.1360  176.3820  145.6850 F   0  0  0  0  0  0  0  0  0  0  0  0
  190.0640  177.5390  145.8940 C   0  0  0  0  0  3  0  0  0  0  0  0
  1 19  1  0  0  0  0
  1 21  1  1  0  0  0
  3 14  1  0  0  0  0
  4  7  1  0  0  0  0
  5 11  2  0  0  0  0
  6 17  2  0  0  0  0
  7  5  1  0  0  0  0
  7  2  2  0  0  0  0
  8 18  2  0  0  0  0
  9  4  2  0  0  0  0
  9  6  1  0  0  0  0
 10 15  1  0  0  0  0
 10 20  2  0  0  0  0
 11 20  1  0  0  0  0
 12  8  1  0  0  0  0
 12  4  1  0  0  0  0
 13 19  1  0  0  0  0
 14 10  1  0  0  0  0
 15 13  2  0  0  0  0
 16  6  1  0  0  0  0
 17  2  1  0  0  0  0
 18 14  1  0  0  0  0
 18  5  1  0  0  0  0
 20  1  1  0  0  0  0
 22 25  1  0  0  0  0
 22 21  1  0  0  0  0
 23 26  1  0  0  0  0
 24 22  2  0  0  0  0
 26 25  2  0  0  0  0
 27 23  1  0  0  0  0
 28 23  2  0  0  0  0
 28 24  1  0  0  0  0
M  END
>  <MODEL>
7

>  <REMARK>
 VINA RESULT:      -7.2      2.364      5.548
  Name = 
  2 active torsions:
  status: ('A' for Active; 'I' for Inactive)
    1  A    between atoms: C_1  and  O_2
    2  A    between atoms: O_2  and  C_3
                            x       y       z     vdW  Elec       q    Type
                         _______ _______ _______ _____ _____    ______ ____

>  <TORSDO>
F 2

$$$$
=
 OpenBabel11052418113D

 28 32  0  0  1  0  0  0  0  0999 V2000
  189.7910  176.2710  144.6130 C   0  0  1  0  0  3  0  0  0  0  0  0
  185.4160  177.5050  142.0640 C   0  0  0  0  0  3  0  0  0  0  0  0
  186.9790  178.3840  148.1360 C   0  0  0  0  0  1  0  0  0  0  0  0
  184.0660  178.5120  143.8150 C   0  0  0  0  0  0  0  0  0  0  0  0
  186.3280  177.7200  144.3970 C   0  0  0  0  0  0  0  0  0  0  0  0
  183.1840  178.3080  141.5690 C   0  0  0  0  0  0  0  0  0  0  0  0
  185.2630  177.9060  143.3970 C   0  0  0  0  0  0  0  0  0  0  0  0
  184.9250  178.7390  146.1060 C   0  0  0  0  0  3  0  0  0  0  0  0
  183.0290  178.7110  142.8990 C   0  0  0  0  0  3  0  0  0  0  0  0
  188.3780  177.3660  146.3180 C   0  0  0  0  0  0  0  0  0  0  0  0
  187.4630  177.1680  144.0810 N   0  0  0  0  0  0  0  0  0  0  0  0
  183.9130  178.9160  145.1490 O   0  0  0  0  0  0  0  0  0  0  0  0
  190.6370  176.7960  146.9000 C   0  0  0  0  0  3  0  0  0  0  0  0
  187.1440  177.9750  146.7470 N   0  0  0  0  0  0  0  0  0  0  0  0
  189.4380  177.1400  147.2650 N   0  0  0  0  0  0  0  0  0  0  0  0
  182.0800  178.5200  140.5970 C   0  0  0  0  0  1  0  0  0  0  0  0
  184.3760  177.7060  141.1520 C   0  0  0  0  0  3  0  0  0  0  0  0
  186.0960  178.1700  145.7820 C   0  0  0  0  0  0  0  0  0  0  0  0
  191.0030  176.6990  145.4470 C   0  0  0  0  0  2  0  0  0  0  0  0
  188.5300  176.9870  145.0310 C   0  0  0  0  0  0  0  0  0  0  0  0
  190.0520  176.4090  143.2120 O   0  0  0  0  0  0  0  0  0  0  0  0
  189.9690  175.3730  142.2690 C   0  0  0  0  0  0  0  0  0  0  0  0
  189.7280  173.3300  140.3610 C   0  0  0  0  0  0  0  0  0  0  0  0
  191.0650  174.5460  141.9710 C   0  0  0  0  0  3  0  0  0  0  0  0
  188.7550  175.1670  141.6050 C   0  0  0  0  0  3  0  0  0  0  0  0
  188.6340  174.1490  140.6540 C   0  0  0  0  0  3  0  0  0  0  0  0
  189.6100  172.3450  139.4400 F   0  0  0  0  0  0  0  0  0  0  0  0
  190.9440  173.5290  141.0210 C   0  0  0  0  0  3  0  0  0  0  0  0
  1 21  1  6  0  0  0
  1 20  1  0  0  0  0
  1 19  1  0  0  0  0
  2  7  1  0  0  0  0
  4 12  1  0  0  0  0
  5 18  1  0  0  0  0
  6  9  2  0  0  0  0
  7  4  2  0  0  0  0
  7  5  1  0  0  0  0
  9  4  1  0  0  0  0
 10 14  1  0  0  0  0
 10 15  1  0  0  0  0
 11  5  2  0  0  0  0
 11 20  1  0  0  0  0
 12  8  1  0  0  0  0
 13 15  2  0  0  0  0
 14  3  1  0  0  0  0
 16  6  1  0  0  0  0
 17  6  1  0  0  0  0
 17  2  2  0  0  0  0
 18  8  2  0  0  0  0
 18 14  1  0  0  0  0
 19 13  1  0  0  0  0
 20 10  2  0  0  0  0
 22 21  1  0  0  0  0
 23 26  2  0  0  0  0
 23 28  1  0  0  0  0
 24 22  1  0  0  0  0
 25 22  2  0  0  0  0
 26 25  1  0  0  0  0
 27 23  1  0  0  0  0
 28 24  2  0  0  0  0
M  END
>  <MODEL>
8

>  <REMARK>
 VINA RESULT:      -7.1      3.295      5.813
  Name = 
  2 active torsions:
  status: ('A' for Active; 'I' for Inactive)
    1  A    between atoms: C_1  and  O_2
    2  A    between atoms: O_2  and  C_3
                            x       y       z     vdW  Elec       q    Type
                         _______ _______ _______ _____ _____    ______ ____

>  <TORSDO>
F 2

$$$$
=
 OpenBabel11052418113D

 28 32  0  0  1  0  0  0  0  0999 V2000
  193.6700  175.8650  143.9000 C   0  0  1  0  0  3  0  0  0  0  0  0
  188.9770  177.5010  142.3320 C   0  0  0  0  0  3  0  0  0  0  0  0
  191.1950  176.4870  148.1740 C   0  0  0  0  0  1  0  0  0  0  0  0
  187.7970  177.7740  144.4370 C   0  0  0  0  0  0  0  0  0  0  0  0
  190.1440  177.0210  144.5060 C   0  0  0  0  0  0  0  0  0  0  0  0
  186.6690  178.2400  142.3450 C   0  0  0  0  0  0  0  0  0  0  0  0
  188.9630  177.4350  143.7310 C   0  0  0  0  0  0  0  0  0  0  0  0
  188.9060  177.3140  146.5810 C   0  0  0  0  0  3  0  0  0  0  0  0
  186.6530  178.1750  143.7420 C   0  0  0  0  0  3  0  0  0  0  0  0
  192.4170  176.2300  145.9980 C   0  0  0  0  0  0  0  0  0  0  0  0
  191.2590  176.6950  143.9190 N   0  0  0  0  0  0  0  0  0  0  0  0
  187.7820  177.7100  145.8390 O   0  0  0  0  0  0  0  0  0  0  0  0
  194.7530  175.6850  146.1390 C   0  0  0  0  0  3  0  0  0  0  0  0
  191.2160  176.5650  146.7190 N   0  0  0  0  0  0  0  0  0  0  0  0
  193.5890  175.7950  146.7100 N   0  0  0  0  0  0  0  0  0  0  0  0
  185.4520  178.6660  141.6080 C   0  0  0  0  0  1  0  0  0  0  0  0
  187.8300  177.9030  141.6410 C   0  0  0  0  0  3  0  0  0  0  0  0
  190.0550  176.9770  145.9780 C   0  0  0  0  0  0  0  0  0  0  0  0
  194.9500  176.0950  144.7090 C   0  0  0  0  0  2  0  0  0  0  0  0
  192.4360  176.3030  144.6490 C   0  0  0  0  0  0  0  0  0  0  0  0
  193.7600  176.4700  142.6050 O   0  0  0  0  0  0  0  0  0  0  0  0
  194.5900  176.0290  141.5630 C   0  0  0  0  0  0  0  0  0  0  0  0
  196.3130  175.1800  139.5180 C   0  0  0  0  0  0  0  0  0  0  0  0
  194.1280  175.1610  140.5590 C   0  0  0  0  0  3  0  0  0  0  0  0
  195.9180  176.4660  141.5320 C   0  0  0  0  0  3  0  0  0  0  0  0
  196.7780  176.0440  140.5130 C   0  0  0  0  0  3  0  0  0  0  0  0
  197.1460  174.7700  138.5320 F   0  0  0  0  0  0  0  0  0  0  0  0
  194.9870  174.7380  139.5410 C   0  0  0  0  0  3  0  0  0  0  0  0
  1 21  1  6  0  0  0
  1 20  1  0  0  0  0
  1 19  1  0  0  0  0
  2  7  1  0  0  0  0
  4 12  1  0  0  0  0
  5 18  1  0  0  0  0
  6  9  2  0  0  0  0
  7  4  2  0  0  0  0
  7  5  1  0  0  0  0
  9  4  1  0  0  0  0
 10 15  1  0  0  0  0
 10 14  1  0  0  0  0
 11  5  2  0  0  0  0
 11 20  1  0  0  0  0
 12  8  1  0  0  0  0
 13 15  2  0  0  0  0
 14  3  1  0  0  0  0
 16  6  1  0  0  0  0
 17  2  2  0  0  0  0
 17  6  1  0  0  0  0
 18  8  2  0  0  0  0
 18 14  1  0  0  0  0
 19 13  1  0  0  0  0
 20 10  2  0  0  0  0
 22 21  1  0  0  0  0
 23 28  2  0  0  0  0
 23 26  1  0  0  0  0
 24 22  2  0  0  0  0
 25 22  1  0  0  0  0
 26 25  2  0  0  0  0
 27 23  1  0  0  0  0
 28 24  1  0  0  0  0
M  END
>  <MODEL>
9

>  <REMARK>
 VINA RESULT:      -7.1      4.468      6.376
  Name = 
  2 active torsions:
  status: ('A' for Active; 'I' for Inactive)
    1  A    between atoms: C_1  and  O_2
    2  A    between atoms: O_2  and  C_3
                            x       y       z     vdW  Elec       q    Type
                         _______ _______ _______ _____ _____    ______ ____

>  <TORSDO>
F 2

$$$$
