=
 OpenBabel11052419113D

 32 37  0  0  1  0  0  0  0  0999 V2000
  189.3950  175.7450  144.6460 C   0  0  0  0  0  0  0  0  0  0  0  0
  187.2910  177.0040  144.4320 N   0  0  0  0  0  0  0  0  0  0  0  0
  190.3320  175.0930  145.4620 C   0  0  0  0  0  3  0  0  0  0  0  0
  188.2170  176.2510  145.2300 C   0  0  0  0  0  0  0  0  0  0  0  0
  186.1170  177.5830  145.0380 C   0  0  0  0  0  0  0  0  0  0  0  0
  185.5900  177.8770  140.0270 C   0  0  0  0  0  3  0  0  0  0  0  0
  187.5130  177.0870  143.0140 C   0  0  0  0  0  0  0  0  0  0  0  0
  184.2190  178.4180  141.9930 C   0  0  0  0  0  3  0  0  0  0  0  0
  185.4660  178.4710  142.8290 C   0  0  0  0  0  0  0  0  0  0  0  0
  187.9420  176.0080  146.5890 C   0  0  0  0  0  0  0  0  0  0  0  0
  185.2240  178.2340  144.2910 C   0  0  0  0  0  3  0  0  0  0  0  0
  186.5880  176.3240  147.1550 C   0  0  0  0  0  2  0  0  0  0  0  0
  188.8740  175.3310  147.3770 C   0  0  0  0  0  3  0  0  0  0  0  0
  188.6950  176.5000  142.4540 N   0  0  0  0  0  0  0  0  0  0  0  0
  189.5980  175.8920  143.1720 C   0  0  0  0  0  0  0  0  0  0  0  0
  186.6000  177.6710  142.2280 C   0  0  0  0  0  0  0  0  0  0  0  0
  185.9560  177.5690  146.5300 C   0  0  1  0  0  3  0  0  0  0  0  0
  190.0780  174.8960  146.8200 C   0  0  0  0  0  3  0  0  0  0  0  0
  184.2960  178.1900  140.6760 C   0  0  0  0  0  3  0  0  0  0  0  0
  186.6810  177.6170  140.7560 C   0  0  0  0  0  2  0  0  0  0  0  0
  193.1300  175.4330  141.8480 C   0  0  0  0  0  0  0  0  0  0  0  0
  194.3390  176.0420  141.9130 F   0  0  0  0  0  0  0  0  0  0  0  0
  190.7800  175.3240  142.4770 C   0  0  0  0  0  0  0  0  0  0  0  0
  192.9840  174.2700  141.0900 C   0  0  0  0  0  3  0  0  0  0  0  0
  190.6490  174.1610  141.7020 C   0  0  0  0  0  3  0  0  0  0  0  0
  192.0340  175.9640  142.5370 C   0  0  0  0  0  0  0  0  0  0  0  0
  192.2040  177.0880  143.2800 F   0  0  0  0  0  0  0  0  0  0  0  0
  191.7410  173.6270  141.0120 C   0  0  0  0  0  0  0  0  0  0  0  0
  190.3110  171.7960  140.1640 C   0  0  0  0  0  1  0  0  0  0  0  0
  191.5620  172.4630  140.2600 O   0  0  0  0  0  0  0  0  0  0  0  0
  186.5380  178.7150  147.0750 O   0  0  0  0  0  0  0  0  0  0  0  0
  185.5350  179.3720  147.6180 O   0  0  0  0  0  1  0  0  0  0  0  0
  1  4  1  0  0  0  0
  1  3  2  0  0  0  0
  2  5  1  0  0  0  0
  2  4  1  0  0  0  0
  3 18  1  0  0  0  0
  4 10  2  0  0  0  0
  5 17  1  0  0  0  0
  6 19  2  0  0  0  0
  6 20  1  0  0  0  0
  7  2  1  0  0  0  0
  8  9  2  0  0  0  0
  9 11  1  0  0  0  0
 10 12  1  0  0  0  0
 10 13  1  0  0  0  0
 11  5  2  0  0  0  0
 14  7  1  0  0  0  0
 14 15  2  0  0  0  0
 15  1  1  0  0  0  0
 16  9  1  0  0  0  0
 16  7  2  0  0  0  0
 17 31  1  1  0  0  0
 17 12  1  0  0  0  0
 18 13  2  0  0  0  0
 19  8  1  0  0  0  0
 20 16  1  0  0  0  0
 21 22  1  0  0  0  0
 21 26  1  0  0  0  0
 23 26  2  0  0  0  0
 23 15  1  0  0  0  0
 24 21  2  0  0  0  0
 25 23  1  0  0  0  0
 26 27  1  0  0  0  0
 28 24  1  0  0  0  0
 28 25  2  0  0  0  0
 29 30  1  0  0  0  0
 30 28  1  0  0  0  0
 31 32  1  0  0  0  0
M  END
>  <MODEL>
1

>  <REMARK>
 VINA RESULT:      -8.3      0.000      0.000
  Name = 
  3 active torsions:
  status: ('A' for Active; 'I' for Inactive)
    1  A    between atoms: O_13  and  C_29
    2  A    between atoms: O_15  and  C_26
    3  A    between atoms: C_16  and  C_27
                            x       y       z     vdW  Elec       q    Type
                         _______ _______ _______ _____ _____    ______ ____

>  <TORSDO>
F 3

$$$$
=
 OpenBabel11052419113D

 32 37  0  0  1  0  0  0  0  0999 V2000
  189.4420  175.7170  144.6400 C   0  0  0  0  0  0  0  0  0  0  0  0
  187.3400  176.9840  144.4460 N   0  0  0  0  0  0  0  0  0  0  0  0
  190.3820  175.0590  145.4470 C   0  0  0  0  0  3  0  0  0  0  0  0
  188.2680  176.2230  145.2340 C   0  0  0  0  0  0  0  0  0  0  0  0
  186.1720  177.5630  145.0610 C   0  0  0  0  0  0  0  0  0  0  0  0
  185.6160  177.8840  140.0550 C   0  0  0  0  0  3  0  0  0  0  0  0
  187.5540  177.0730  143.0270 C   0  0  0  0  0  0  0  0  0  0  0  0
  184.2580  178.4190  142.0310 C   0  0  0  0  0  3  0  0  0  0  0  0
  185.5110  178.4630  142.8600 C   0  0  0  0  0  0  0  0  0  0  0  0
  188.0010  175.9750  146.5930 C   0  0  0  0  0  0  0  0  0  0  0  0
  185.2760  178.2200  144.3220 C   0  0  0  0  0  3  0  0  0  0  0  0
  186.6510  176.2920  147.1690 C   0  0  0  0  0  2  0  0  0  0  0  0
  188.9350  175.2910  147.3730 C   0  0  0  0  0  3  0  0  0  0  0  0
  188.7310  176.4850  142.4570 N   0  0  0  0  0  0  0  0  0  0  0  0
  189.6360  175.8710  143.1660 C   0  0  0  0  0  0  0  0  0  0  0  0
  186.6380  177.6640  142.2480 C   0  0  0  0  0  0  0  0  0  0  0  0
  186.0190  177.5410  146.5540 C   0  0  1  0  0  3  0  0  0  0  0  0
  190.1350  174.8550  146.8060 C   0  0  0  0  0  3  0  0  0  0  0  0
  184.3270  178.1970  140.7120 C   0  0  0  0  0  3  0  0  0  0  0  0
  186.7110  177.6170  140.7760 C   0  0  0  0  0  2  0  0  0  0  0  0
  191.8510  173.5370  141.1450 C   0  0  0  0  0  0  0  0  0  0  0  0
  191.7650  172.3610  140.4770 F   0  0  0  0  0  0  0  0  0  0  0  0
  190.8120  175.3030  142.4610 C   0  0  0  0  0  0  0  0  0  0  0  0
  193.0720  174.2120  141.1980 C   0  0  0  0  0  3  0  0  0  0  0  0
  192.0500  175.9630  142.5120 C   0  0  0  0  0  3  0  0  0  0  0  0
  190.7240  174.0740  141.7760 C   0  0  0  0  0  0  0  0  0  0  0  0
  189.5430  173.4080  141.6980 F   0  0  0  0  0  0  0  0  0  0  0  0
  193.1790  175.4300  141.8830 C   0  0  0  0  0  0  0  0  0  0  0  0
  195.2520  176.0500  143.0810 C   0  0  0  0  0  1  0  0  0  0  0  0
  194.3870  176.1280  141.9560 O   0  0  0  0  0  0  0  0  0  0  0  0
  186.6070  178.6830  147.1020 O   0  0  0  0  0  0  0  0  0  0  0  0
  185.6010  179.3700  147.6010 O   0  0  0  0  0  1  0  0  0  0  0  0
  1  4  1  0  0  0  0
  1  3  2  0  0  0  0
  2  5  1  0  0  0  0
  2  4  1  0  0  0  0
  3 18  1  0  0  0  0
  4 10  2  0  0  0  0
  5 17  1  0  0  0  0
  6 19  2  0  0  0  0
  6 20  1  0  0  0  0
  7  2  1  0  0  0  0
  8  9  2  0  0  0  0
  9 11  1  0  0  0  0
 10 12  1  0  0  0  0
 10 13  1  0  0  0  0
 11  5  2  0  0  0  0
 14  7  1  0  0  0  0
 14 15  2  0  0  0  0
 15  1  1  0  0  0  0
 16  9  1  0  0  0  0
 16  7  2  0  0  0  0
 17 31  1  1  0  0  0
 17 12  1  0  0  0  0
 18 13  2  0  0  0  0
 19  8  1  0  0  0  0
 20 16  1  0  0  0  0
 21 24  2  0  0  0  0
 21 26  1  0  0  0  0
 22 21  1  0  0  0  0
 23 25  1  0  0  0  0
 23 15  1  0  0  0  0
 24 28  1  0  0  0  0
 26 23  2  0  0  0  0
 27 26  1  0  0  0  0
 28 30  1  0  0  0  0
 28 25  2  0  0  0  0
 30 29  1  0  0  0  0
 31 32  1  0  0  0  0
M  END
>  <MODEL>
2

>  <REMARK>
 VINA RESULT:      -8.3      1.543      2.124
  Name = 
  3 active torsions:
  status: ('A' for Active; 'I' for Inactive)
    1  A    between atoms: O_13  and  C_29
    2  A    between atoms: O_15  and  C_26
    3  A    between atoms: C_16  and  C_27
                            x       y       z     vdW  Elec       q    Type
                         _______ _______ _______ _____ _____    ______ ____

>  <TORSDO>
F 3

$$$$
=
 OpenBabel11052419113D

 32 37  0  0  1  0  0  0  0  0999 V2000
  190.5660  175.5930  145.5610 C   0  0  0  0  0  0  0  0  0  0  0  0
  191.2190  173.8790  143.9190 N   0  0  0  0  0  0  0  0  0  0  0  0
  190.8970  176.3890  146.6680 C   0  0  0  0  0  3  0  0  0  0  0  0
  191.5590  174.7730  144.9890 C   0  0  0  0  0  0  0  0  0  0  0  0
  192.2130  172.9880  143.3750 C   0  0  0  0  0  0  0  0  0  0  0  0
  188.2290  172.9520  140.2770 C   0  0  0  0  0  3  0  0  0  0  0  0
  189.9010  173.9600  143.3480 C   0  0  0  0  0  0  0  0  0  0  0  0
  190.4710  171.9470  140.3000 C   0  0  0  0  0  3  0  0  0  0  0  0
  190.5240  172.1370  141.7900 C   0  0  0  0  0  0  0  0  0  0  0  0
  192.8850  174.8380  145.4580 C   0  0  0  0  0  0  0  0  0  0  0  0
  191.9170  172.1970  142.3420 C   0  0  0  0  0  3  0  0  0  0  0  0
  193.9890  174.1600  144.7010 C   0  0  0  0  0  2  0  0  0  0  0  0
  193.2000  175.6600  146.5410 C   0  0  0  0  0  3  0  0  0  0  0  0
  188.9420  174.8570  143.9230 N   0  0  0  0  0  0  0  0  0  0  0  0
  189.2000  175.6100  144.9550 C   0  0  0  0  0  0  0  0  0  0  0  0
  189.5960  173.2320  142.2660 C   0  0  0  0  0  0  0  0  0  0  0  0
  193.5480  172.8500  144.0470 C   0  0  1  0  0  3  0  0  0  0  0  0
  192.2030  176.4160  147.1610 C   0  0  0  0  0  3  0  0  0  0  0  0
  189.3720  172.2860  139.6130 C   0  0  0  0  0  3  0  0  0  0  0  0
  188.3320  173.4150  141.5280 C   0  0  0  0  0  2  0  0  0  0  0  0
  186.5010  177.1130  147.1690 C   0  0  0  0  0  0  0  0  0  0  0  0
  185.9430  176.9130  148.3880 F   0  0  0  0  0  0  0  0  0  0  0  0
  188.1240  176.5000  145.4590 C   0  0  0  0  0  0  0  0  0  0  0  0
  186.0360  178.1510  146.3590 C   0  0  0  0  0  3  0  0  0  0  0  0
  187.6380  177.5420  144.6560 C   0  0  0  0  0  3  0  0  0  0  0  0
  187.5370  176.2850  146.7230 C   0  0  0  0  0  0  0  0  0  0  0  0
  187.9830  175.2910  147.5340 F   0  0  0  0  0  0  0  0  0  0  0  0
  186.6030  178.3710  145.0960 C   0  0  0  0  0  0  0  0  0  0  0  0
  184.7940  179.7900  144.1840 C   0  0  0  0  0  1  0  0  0  0  0  0
  186.1580  179.4010  144.2620 O   0  0  0  0  0  0  0  0  0  0  0  0
  193.4850  171.8420  145.0120 O   0  0  0  0  0  0  0  0  0  0  0  0
  194.6890  171.8160  145.5450 O   0  0  0  0  0  1  0  0  0  0  0  0
  1  3  2  0  0  0  0
  2  4  1  0  0  0  0
  3 18  1  0  0  0  0
  4 10  2  0  0  0  0
  4  1  1  0  0  0  0
  5  2  1  0  0  0  0
  5 17  1  0  0  0  0
  6 20  1  0  0  0  0
  7  2  1  0  0  0  0
  7 14  1  0  0  0  0
  8  9  2  0  0  0  0
  9 16  1  0  0  0  0
  9 11  1  0  0  0  0
 10 13  1  0  0  0  0
 11  5  2  0  0  0  0
 12 10  1  0  0  0  0
 13 18  2  0  0  0  0
 14 15  2  0  0  0  0
 15 23  1  0  0  0  0
 15  1  1  0  0  0  0
 16  7  2  0  0  0  0
 17 12  1  0  0  0  0
 17 31  1  1  0  0  0
 19  6  2  0  0  0  0
 19  8  1  0  0  0  0
 20 16  1  0  0  0  0
 21 22  1  0  0  0  0
 23 26  2  0  0  0  0
 24 21  2  0  0  0  0
 25 28  2  0  0  0  0
 25 23  1  0  0  0  0
 26 21  1  0  0  0  0
 26 27  1  0  0  0  0
 28 24  1  0  0  0  0
 29 30  1  0  0  0  0
 30 28  1  0  0  0  0
 31 32  1  0  0  0  0
M  END
>  <MODEL>
3

>  <REMARK>
 VINA RESULT:      -8.1      3.023      7.138
  Name = 
  3 active torsions:
  status: ('A' for Active; 'I' for Inactive)
    1  A    between atoms: O_13  and  C_29
    2  A    between atoms: O_15  and  C_26
    3  A    between atoms: C_16  and  C_27
                            x       y       z     vdW  Elec       q    Type
                         _______ _______ _______ _____ _____    ______ ____

>  <TORSDO>
F 3

$$$$
=
 OpenBabel11052419113D

 32 37  0  0  1  0  0  0  0  0999 V2000
  187.3870  176.0390  141.5410 C   0  0  0  0  0  0  0  0  0  0  0  0
  185.8200  177.3400  142.9240 N   0  0  0  0  0  0  0  0  0  0  0  0
  187.8160  175.6260  140.2710 C   0  0  0  0  0  3  0  0  0  0  0  0
  186.3390  176.9770  141.6360 C   0  0  0  0  0  0  0  0  0  0  0  0
  184.7030  178.2470  143.0250 C   0  0  0  0  0  0  0  0  0  0  0  0
  186.6890  177.7000  147.6330 C   0  0  0  0  0  3  0  0  0  0  0  0
  186.4930  176.8560  144.0980 C   0  0  0  0  0  0  0  0  0  0  0  0
  184.8970  179.0410  146.6170 C   0  0  0  0  0  3  0  0  0  0  0  0
  184.8270  178.0580  145.4820 C   0  0  1  0  0  3  0  0  0  0  0  0
  185.8110  177.5650  140.4710 C   0  0  0  0  0  0  0  0  0  0  0  0
  184.2550  178.6330  144.2210 C   0  0  0  0  0  3  0  0  0  0  0  0
  184.8770  178.7360  140.5720 C   0  0  0  0  0  2  0  0  0  0  0  0
  186.2730  177.1630  139.2170 C   0  0  0  0  0  3  0  0  0  0  0  0
  187.5970  175.9530  143.9520 N   0  0  0  0  0  0  0  0  0  0  0  0
  188.0270  175.5350  142.7940 C   0  0  0  0  0  0  0  0  0  0  0  0
  186.1120  177.2810  145.3100 C   0  0  0  0  0  0  0  0  0  0  0  0
  183.9570  178.6620  141.7900 C   0  0  1  0  0  3  0  0  0  0  0  0
  187.2570  176.1770  139.1160 C   0  0  0  0  0  3  0  0  0  0  0  0
  185.7360  178.8340  147.6410 C   0  0  0  0  0  3  0  0  0  0  0  0
  186.8820  176.9700  146.5290 C   0  0  0  0  0  3  0  0  0  0  0  0
  190.0840  172.3460  142.5940 C   0  0  0  0  0  0  0  0  0  0  0  0
  189.9020  171.0170  142.3990 F   0  0  0  0  0  0  0  0  0  0  0  0
  189.1800  174.6000  142.7710 C   0  0  0  0  0  0  0  0  0  0  0  0
  191.3710  172.8420  142.8080 C   0  0  0  0  0  3  0  0  0  0  0  0
  190.4790  175.0800  142.9940 C   0  0  0  0  0  3  0  0  0  0  0  0
  188.9890  173.2170  142.5790 C   0  0  0  0  0  0  0  0  0  0  0  0
  187.7480  172.7130  142.3540 F   0  0  0  0  0  0  0  0  0  0  0  0
  191.5760  174.2140  143.0100 C   0  0  0  0  0  0  0  0  0  0  0  0
  193.2290  176.0410  142.7950 C   0  0  0  0  0  1  0  0  0  0  0  0
  192.8520  174.7410  143.2280 O   0  0  0  0  0  0  0  0  0  0  0  0
  182.9220  177.7580  141.5430 O   0  0  0  0  0  0  0  0  0  0  0  0
  182.2880  178.2530  140.5010 O   0  0  0  0  0  1  0  0  0  0  0  0
  1  4  2  0  0  0  0
  1 15  1  0  0  0  0
  2  5  1  0  0  0  0
  2  7  1  0  0  0  0
  3  1  1  0  0  0  0
  4  2  1  0  0  0  0
  5 11  2  0  0  0  0
  6 19  1  0  0  0  0
  7 16  2  0  0  0  0
  8 19  2  0  0  0  0
  9 11  1  6  0  0  0
  9  8  1  0  0  0  0
 10 12  1  0  0  0  0
 10  4  1  0  0  0  0
 12 17  1  0  0  0  0
 13 10  2  0  0  0  0
 14  7  1  0  0  0  0
 15 14  2  0  0  0  0
 16  9  1  0  0  0  0
 16 20  1  0  0  0  0
 17 31  1  6  0  0  0
 17  5  1  0  0  0  0
 18 13  1  0  0  0  0
 18  3  2  0  0  0  0
 20  6  2  0  0  0  0
 21 24  1  0  0  0  0
 22 21  1  0  0  0  0
 23 15  1  0  0  0  0
 23 25  2  0  0  0  0
 24 28  2  0  0  0  0
 25 28  1  0  0  0  0
 26 21  2  0  0  0  0
 26 23  1  0  0  0  0
 27 26  1  0  0  0  0
 28 30  1  0  0  0  0
 29 30  1  0  0  0  0
 32 31  1  0  0  0  0
M  END
>  <MODEL>
4

>  <REMARK>
 VINA RESULT:      -7.9      2.892      5.104
  Name = 
  3 active torsions:
  status: ('A' for Active; 'I' for Inactive)
    1  A    between atoms: O_13  and  C_29
    2  A    between atoms: O_15  and  C_26
    3  A    between atoms: C_16  and  C_27
                            x       y       z     vdW  Elec       q    Type
                         _______ _______ _______ _____ _____    ______ ____

>  <TORSDO>
F 3

$$$$
=
 OpenBabel11052419113D

 32 37  0  0  1  0  0  0  0  0999 V2000
  188.9930  175.1200  143.1580 C   0  0  0  0  0  0  0  0  0  0  0  0
  191.4150  174.7280  142.9590 N   0  0  0  0  0  0  0  0  0  0  0  0
  187.6940  174.9090  142.6710 C   0  0  0  0  0  3  0  0  0  0  0  0
  190.0700  174.4530  142.5400 C   0  0  0  0  0  0  0  0  0  0  0  0
  192.5260  174.1020  142.2860 C   0  0  0  0  0  0  0  0  0  0  0  0
  194.2700  176.2390  146.5130 C   0  0  0  0  0  3  0  0  0  0  0  0
  191.6200  175.5620  144.1130 C   0  0  0  0  0  0  0  0  0  0  0  0
  195.1970  174.8490  144.7110 C   0  0  0  0  0  3  0  0  0  0  0  0
  194.0630  175.2730  143.8210 C   0  0  1  0  0  3  0  0  0  0  0  0
  189.8270  173.5110  141.5230 C   0  0  0  0  0  0  0  0  0  0  0  0
  193.7740  174.3090  142.7090 C   0  0  0  0  0  3  0  0  0  0  0  0
  190.9340  172.6220  141.0350 C   0  0  0  0  0  2  0  0  0  0  0  0
  188.5240  173.2930  141.0730 C   0  0  0  0  0  3  0  0  0  0  0  0
  190.4860  176.1680  144.7500 N   0  0  0  0  0  0  0  0  0  0  0  0
  189.2630  176.0080  144.3290 C   0  0  0  0  0  0  0  0  0  0  0  0
  192.8530  175.7310  144.6050 C   0  0  0  0  0  0  0  0  0  0  0  0
  192.2970  173.3160  141.0280 C   0  0  1  0  0  3  0  0  0  0  0  0
  187.4620  174.0090  141.6290 C   0  0  0  0  0  3  0  0  0  0  0  0
  195.3100  175.3480  145.9490 C   0  0  0  0  0  3  0  0  0  0  0  0
  193.0990  176.4140  145.8890 C   0  0  0  0  0  3  0  0  0  0  0  0
  186.7080  176.8560  147.0110 C   0  0  0  0  0  0  0  0  0  0  0  0
  186.3160  176.4170  148.2320 F   0  0  0  0  0  0  0  0  0  0  0  0
  188.1730  176.6880  145.0730 C   0  0  0  0  0  0  0  0  0  0  0  0
  186.0560  177.9440  146.4280 C   0  0  0  0  0  3  0  0  0  0  0  0
  187.5010  177.7770  144.4980 C   0  0  0  0  0  3  0  0  0  0  0  0
  187.7600  176.2240  146.3390 C   0  0  0  0  0  0  0  0  0  0  0  0
  188.3880  175.1760  146.9320 F   0  0  0  0  0  0  0  0  0  0  0  0
  186.4490  178.4110  145.1660 C   0  0  0  0  0  0  0  0  0  0  0  0
  184.5010  179.4170  144.0220 C   0  0  0  0  0  1  0  0  0  0  0  0
  185.8160  179.4960  144.5550 O   0  0  0  0  0  0  0  0  0  0  0  0
  192.3860  174.1650  139.9230 O   0  0  0  0  0  0  0  0  0  0  0  0
  192.1640  173.3860  138.8850 O   0  0  0  0  0  1  0  0  0  0  0  0
  1 15  1  0  0  0  0
  2  7  1  0  0  0  0
  3  1  1  0  0  0  0
  4  2  1  0  0  0  0
  4  1  2  0  0  0  0
  5 11  2  0  0  0  0
  5  2  1  0  0  0  0
  7 16  2  0  0  0  0
  7 14  1  0  0  0  0
  8 19  2  0  0  0  0
  9 11  1  1  0  0  0
  9 16  1  0  0  0  0
  9  8  1  0  0  0  0
 10  4  1  0  0  0  0
 12 10  1  0  0  0  0
 13 10  2  0  0  0  0
 13 18  1  0  0  0  0
 15 14  2  0  0  0  0
 15 23  1  0  0  0  0
 16 20  1  0  0  0  0
 17 31  1  6  0  0  0
 17 12  1  0  0  0  0
 17  5  1  0  0  0  0
 18  3  2  0  0  0  0
 19  6  1  0  0  0  0
 20  6  2  0  0  0  0
 21 22  1  0  0  0  0
 23 26  1  0  0  0  0
 24 21  1  0  0  0  0
 25 23  2  0  0  0  0
 25 28  1  0  0  0  0
 26 27  1  0  0  0  0
 26 21  2  0  0  0  0
 28 24  2  0  0  0  0
 29 30  1  0  0  0  0
 30 28  1  0  0  0  0
 32 31  1  0  0  0  0
M  END
>  <MODEL>
5

>  <REMARK>
 VINA RESULT:      -7.8      2.713      7.992
  Name = 
  3 active torsions:
  status: ('A' for Active; 'I' for Inactive)
    1  A    between atoms: O_13  and  C_29
    2  A    between atoms: O_15  and  C_26
    3  A    between atoms: C_16  and  C_27
                            x       y       z     vdW  Elec       q    Type
                         _______ _______ _______ _____ _____    ______ ____

>  <TORSDO>
F 3

$$$$
=
 OpenBabel11052419113D

 32 37  0  0  1  0  0  0  0  0999 V2000
  187.4120  176.0980  141.5440 C   0  0  0  0  0  0  0  0  0  0  0  0
  185.8060  177.3420  142.9340 N   0  0  0  0  0  0  0  0  0  0  0  0
  187.8440  175.6910  140.2720 C   0  0  0  0  0  3  0  0  0  0  0  0
  186.3250  176.9890  141.6430 C   0  0  0  0  0  0  0  0  0  0  0  0
  184.6520  178.1990  143.0410 C   0  0  0  0  0  0  0  0  0  0  0  0
  186.7180  177.7890  147.6280 C   0  0  0  0  0  3  0  0  0  0  0  0
  186.5150  176.9000  144.1050 C   0  0  0  0  0  0  0  0  0  0  0  0
  184.8550  179.0370  146.6230 C   0  0  0  0  0  3  0  0  0  0  0  0
  184.8150  178.0410  145.4990 C   0  0  1  0  0  3  0  0  0  0  0  0
  185.7560  177.5410  140.4800 C   0  0  0  0  0  0  0  0  0  0  0  0
  184.2010  178.5770  144.2390 C   0  0  0  0  0  3  0  0  0  0  0  0
  184.7720  178.6690  140.5810 C   0  0  0  0  0  2  0  0  0  0  0  0
  186.2200  177.1460  139.2240 C   0  0  0  0  0  3  0  0  0  0  0  0
  187.6570  176.0460  143.9520 N   0  0  0  0  0  0  0  0  0  0  0  0
  188.0900  175.6350  142.7930 C   0  0  0  0  0  0  0  0  0  0  0  0
  186.1310  177.3200  145.3170 C   0  0  0  0  0  0  0  0  0  0  0  0
  183.8710  178.5670  141.8130 C   0  0  1  0  0  3  0  0  0  0  0  0
  187.2460  176.2040  139.1200 C   0  0  0  0  0  3  0  0  0  0  0  0
  185.7160  178.8790  147.6370 C   0  0  0  0  0  3  0  0  0  0  0  0
  186.9300  177.0560  146.5280 C   0  0  0  0  0  3  0  0  0  0  0  0
  191.6990  174.4480  142.7280 C   0  0  0  0  0  0  0  0  0  0  0  0
  192.9510  174.9650  142.7620 F   0  0  0  0  0  0  0  0  0  0  0  0
  189.2830  174.7530  142.7640 C   0  0  0  0  0  0  0  0  0  0  0  0
  191.5260  173.0660  142.6330 C   0  0  0  0  0  3  0  0  0  0  0  0
  189.1280  173.3620  142.6590 C   0  0  0  0  0  3  0  0  0  0  0  0
  190.5850  175.2930  142.7900 C   0  0  0  0  0  0  0  0  0  0  0  0
  190.7780  176.6330  142.8970 F   0  0  0  0  0  0  0  0  0  0  0  0
  190.2380  172.5150  142.5970 C   0  0  0  0  0  0  0  0  0  0  0  0
  190.8160  170.3000  141.6590 C   0  0  0  0  0  1  0  0  0  0  0  0
  190.0320  171.1360  142.5000 O   0  0  0  0  0  0  0  0  0  0  0  0
  182.8750  177.6150  141.5880 O   0  0  0  0  0  0  0  0  0  0  0  0
  182.3340  177.9630  140.4400 O   0  0  0  0  0  1  0  0  0  0  0  0
  1  4  2  0  0  0  0
  1 15  1  0  0  0  0
  2  5  1  0  0  0  0
  2  7  1  0  0  0  0
  3  1  1  0  0  0  0
  4  2  1  0  0  0  0
  5 11  2  0  0  0  0
  6 19  1  0  0  0  0
  7 16  2  0  0  0  0
  8 19  2  0  0  0  0
  9 11  1  6  0  0  0
  9  8  1  0  0  0  0
 10 12  1  0  0  0  0
 10  4  1  0  0  0  0
 12 17  1  0  0  0  0
 13 10  2  0  0  0  0
 14  7  1  0  0  0  0
 15 14  2  0  0  0  0
 16  9  1  0  0  0  0
 16 20  1  0  0  0  0
 17 31  1  6  0  0  0
 17  5  1  0  0  0  0
 18 13  1  0  0  0  0
 18  3  2  0  0  0  0
 20  6  2  0  0  0  0
 21 22  1  0  0  0  0
 21 26  1  0  0  0  0
 23 26  2  0  0  0  0
 23 15  1  0  0  0  0
 24 21  2  0  0  0  0
 25 23  1  0  0  0  0
 26 27  1  0  0  0  0
 28 24  1  0  0  0  0
 28 25  2  0  0  0  0
 29 30  1  0  0  0  0
 30 28  1  0  0  0  0
 32 31  1  0  0  0  0
M  END
>  <MODEL>
6

>  <REMARK>
 VINA RESULT:      -7.7      2.391      4.649
  Name = 
  3 active torsions:
  status: ('A' for Active; 'I' for Inactive)
    1  A    between atoms: O_13  and  C_29
    2  A    between atoms: O_15  and  C_26
    3  A    between atoms: C_16  and  C_27
                            x       y       z     vdW  Elec       q    Type
                         _______ _______ _______ _____ _____    ______ ____

>  <TORSDO>
F 3

$$$$
=
 OpenBabel11052419113D

 32 37  0  0  1  0  0  0  0  0999 V2000
  192.1980  175.6710  145.5110 C   0  0  0  0  0  0  0  0  0  0  0  0
  190.1940  175.4430  144.1000 N   0  0  0  0  0  0  0  0  0  0  0  0
  192.7940  176.1400  146.6920 C   0  0  0  0  0  3  0  0  0  0  0  0
  190.8080  175.8270  145.3390 C   0  0  0  0  0  0  0  0  0  0  0  0
  188.7850  175.6620  143.8910 C   0  0  0  0  0  0  0  0  0  0  0  0
  190.4560  172.6530  140.2000 C   0  0  0  0  0  3  0  0  0  0  0  0
  190.9930  174.7580  143.1200 C   0  0  0  0  0  0  0  0  0  0  0  0
  188.2850  173.5650  140.9040 C   0  0  0  0  0  3  0  0  0  0  0  0
  189.0020  174.6550  141.6490 C   0  0  0  0  0  0  0  0  0  0  0  0
  190.0220  176.3470  146.3840 C   0  0  0  0  0  0  0  0  0  0  0  0
  188.1980  175.2540  142.7650 C   0  0  0  0  0  3  0  0  0  0  0  0
  188.5240  176.2860  146.3060 C   0  0  0  0  0  2  0  0  0  0  0  0
  190.6290  176.7800  147.5640 C   0  0  0  0  0  3  0  0  0  0  0  0
  192.3920  174.5640  143.3670 N   0  0  0  0  0  0  0  0  0  0  0  0
  192.9910  174.9880  144.4440 C   0  0  0  0  0  0  0  0  0  0  0  0
  190.4190  174.2730  142.0110 C   0  0  0  0  0  0  0  0  0  0  0  0
  187.9930  176.4650  144.8830 C   0  0  1  0  0  3  0  0  0  0  0  0
  192.0160  176.6990  147.7080 C   0  0  0  0  0  3  0  0  0  0  0  0
  188.9750  172.6660  140.1900 C   0  0  0  0  0  3  0  0  0  0  0  0
  191.1460  173.4010  141.0690 C   0  0  0  0  0  2  0  0  0  0  0  0
  196.7630  175.2850  144.0870 C   0  0  0  0  0  0  0  0  0  0  0  0
  197.6780  176.0970  143.5050 F   0  0  0  0  0  0  0  0  0  0  0  0
  194.4450  174.7270  144.5860 C   0  0  0  0  0  0  0  0  0  0  0  0
  197.1900  174.1670  144.8050 C   0  0  0  0  0  3  0  0  0  0  0  0
  194.8920  173.6020  145.2960 C   0  0  0  0  0  3  0  0  0  0  0  0
  195.3970  175.5660  143.9710 C   0  0  0  0  0  0  0  0  0  0  0  0
  195.0050  176.6680  143.2800 F   0  0  0  0  0  0  0  0  0  0  0  0
  196.2560  173.3180  145.4140 C   0  0  0  0  0  0  0  0  0  0  0  0
  197.1710  171.0220  145.5160 C   0  0  0  0  0  1  0  0  0  0  0  0
  196.6520  172.1900  146.1380 O   0  0  0  0  0  0  0  0  0  0  0  0
  188.0350  177.8160  144.5320 O   0  0  0  0  0  0  0  0  0  0  0  0
  186.8650  178.2920  144.9040 O   0  0  0  0  0  1  0  0  0  0  0  0
  1  3  2  0  0  0  0
  2  4  1  0  0  0  0
  3 18  1  0  0  0  0
  4  1  1  0  0  0  0
  4 10  2  0  0  0  0
  5  2  1  0  0  0  0
  5 17  1  0  0  0  0
  6 20  1  0  0  0  0
  7 14  1  0  0  0  0
  7  2  1  0  0  0  0
  8  9  2  0  0  0  0
  9 16  1  0  0  0  0
  9 11  1  0  0  0  0
 10 13  1  0  0  0  0
 11  5  2  0  0  0  0
 12 10  1  0  0  0  0
 13 18  2  0  0  0  0
 14 15  2  0  0  0  0
 15 23  1  0  0  0  0
 15  1  1  0  0  0  0
 16  7  2  0  0  0  0
 17 31  1  6  0  0  0
 17 12  1  0  0  0  0
 19  6  2  0  0  0  0
 19  8  1  0  0  0  0
 20 16  1  0  0  0  0
 21 24  1  0  0  0  0
 22 21  1  0  0  0  0
 23 25  2  0  0  0  0
 24 28  2  0  0  0  0
 25 28  1  0  0  0  0
 26 21  2  0  0  0  0
 26 23  1  0  0  0  0
 27 26  1  0  0  0  0
 28 30  1  0  0  0  0
 29 30  1  0  0  0  0
 31 32  1  0  0  0  0
M  END
>  <MODEL>
7

>  <REMARK>
 VINA RESULT:      -7.6      3.186      4.728
  Name = 
  3 active torsions:
  status: ('A' for Active; 'I' for Inactive)
    1  A    between atoms: O_13  and  C_29
    2  A    between atoms: O_15  and  C_26
    3  A    between atoms: C_16  and  C_27
                            x       y       z     vdW  Elec       q    Type
                         _______ _______ _______ _____ _____    ______ ____

>  <TORSDO>
F 3

$$$$
=
 OpenBabel11052419113D

 32 37  0  0  1  0  0  0  0  0999 V2000
  189.0250  176.2270  143.8060 C   0  0  0  0  0  0  0  0  0  0  0  0
  190.2260  174.3120  142.8310 N   0  0  0  0  0  0  0  0  0  0  0  0
  188.9720  177.2610  144.7530 C   0  0  0  0  0  3  0  0  0  0  0  0
  190.1880  175.4350  143.7250 C   0  0  0  0  0  0  0  0  0  0  0  0
  191.3860  173.4570  142.7910 C   0  0  0  0  0  0  0  0  0  0  0  0
  188.4840  172.3310  138.8180 C   0  0  0  0  0  3  0  0  0  0  0  0
  189.1290  174.1200  141.9210 C   0  0  0  0  0  0  0  0  0  0  0  0
  190.6770  171.6270  139.6730 C   0  0  0  0  0  3  0  0  0  0  0  0
  190.2830  172.1130  141.0390 C   0  0  0  0  0  0  0  0  0  0  0  0
  191.3130  175.7500  144.5090 C   0  0  0  0  0  0  0  0  0  0  0  0
  191.4500  172.4470  141.9210 C   0  0  0  0  0  3  0  0  0  0  0  0
  192.6280  175.0730  144.2520 C   0  0  0  0  0  2  0  0  0  0  0  0
  191.2510  176.8020  145.4240 C   0  0  0  0  0  3  0  0  0  0  0  0
  187.9930  174.9920  141.9970 N   0  0  0  0  0  0  0  0  0  0  0  0
  187.8950  175.9600  142.8650 C   0  0  0  0  0  0  0  0  0  0  0  0
  189.1950  173.1610  140.9880 C   0  0  0  0  0  0  0  0  0  0  0  0
  192.4730  173.6160  143.8140 C   0  0  1  0  0  3  0  0  0  0  0  0
  190.0740  177.5410  145.5640 C   0  0  0  0  0  3  0  0  0  0  0  0
  189.8080  171.6880  138.6560 C   0  0  0  0  0  3  0  0  0  0  0  0
  188.1920  173.0410  139.9130 C   0  0  0  0  0  2  0  0  0  0  0  0
  185.0410  178.1520  141.6430 C   0  0  0  0  0  0  0  0  0  0  0  0
  184.5640  178.6650  140.4830 F   0  0  0  0  0  0  0  0  0  0  0  0
  186.6690  176.7960  142.8450 C   0  0  0  0  0  0  0  0  0  0  0  0
  184.3890  178.4380  142.8440 C   0  0  0  0  0  3  0  0  0  0  0  0
  186.0060  177.1020  144.0430 C   0  0  0  0  0  3  0  0  0  0  0  0
  186.1800  177.3380  141.6390 C   0  0  0  0  0  0  0  0  0  0  0  0
  186.7890  177.0610  140.4570 F   0  0  0  0  0  0  0  0  0  0  0  0
  184.8690  177.9150  144.0520 C   0  0  0  0  0  0  0  0  0  0  0  0
  184.7090  177.6670  146.5080 C   0  0  0  0  0  1  0  0  0  0  0  0
  184.2400  178.1850  145.2700 O   0  0  0  0  0  0  0  0  0  0  0  0
  192.1910  172.8190  144.9250 O   0  0  0  0  0  0  0  0  0  0  0  0
  193.2150  171.9960  145.0130 O   0  0  0  0  0  1  0  0  0  0  0  0
  1  3  2  0  0  0  0
  2  4  1  0  0  0  0
  3 18  1  0  0  0  0
  4  1  1  0  0  0  0
  4 10  2  0  0  0  0
  5  2  1  0  0  0  0
  5 17  1  0  0  0  0
  6 20  1  0  0  0  0
  7 14  1  0  0  0  0
  7  2  1  0  0  0  0
  8  9  2  0  0  0  0
  9 11  1  0  0  0  0
 10 13  1  0  0  0  0
 11  5  2  0  0  0  0
 12 10  1  0  0  0  0
 13 18  2  0  0  0  0
 14 15  2  0  0  0  0
 15  1  1  0  0  0  0
 16  9  1  0  0  0  0
 16  7  2  0  0  0  0
 17 12  1  0  0  0  0
 17 31  1  1  0  0  0
 19  6  2  0  0  0  0
 19  8  1  0  0  0  0
 20 16  1  0  0  0  0
 21 24  1  0  0  0  0
 22 21  1  0  0  0  0
 23 15  1  0  0  0  0
 23 25  2  0  0  0  0
 24 28  2  0  0  0  0
 25 28  1  0  0  0  0
 26 21  2  0  0  0  0
 26 23  1  0  0  0  0
 27 26  1  0  0  0  0
 28 30  1  0  0  0  0
 30 29  1  0  0  0  0
 31 32  1  0  0  0  0
M  END
>  <MODEL>
8

>  <REMARK>
 VINA RESULT:      -7.5      2.690      6.942
  Name = 
  3 active torsions:
  status: ('A' for Active; 'I' for Inactive)
    1  A    between atoms: O_13  and  C_29
    2  A    between atoms: O_15  and  C_26
    3  A    between atoms: C_16  and  C_27
                            x       y       z     vdW  Elec       q    Type
                         _______ _______ _______ _____ _____    ______ ____

>  <TORSDO>
F 3

$$$$
=
 OpenBabel11052419113D

 32 37  0  0  1  0  0  0  0  0999 V2000
  189.1000  174.6950  142.9270 C   0  0  0  0  0  0  0  0  0  0  0  0
  191.4790  174.1220  143.1940 N   0  0  0  0  0  0  0  0  0  0  0  0
  187.8480  174.4130  142.3580 C   0  0  0  0  0  3  0  0  0  0  0  0
  190.1680  173.8030  142.7030 C   0  0  0  0  0  0  0  0  0  0  0  0
  192.5900  173.2480  142.9110 C   0  0  0  0  0  0  0  0  0  0  0  0
  194.0570  176.5380  146.4470 C   0  0  0  0  0  3  0  0  0  0  0  0
  191.6350  175.2710  144.0440 C   0  0  0  0  0  0  0  0  0  0  0  0
  195.0370  174.5870  145.3180 C   0  0  0  0  0  3  0  0  0  0  0  0
  194.0550  174.7640  144.1940 C   0  0  1  0  0  3  0  0  0  0  0  0
  189.9480  172.5980  142.0110 C   0  0  0  0  0  0  0  0  0  0  0  0
  193.7980  173.5090  143.4140 C   0  0  0  0  0  3  0  0  0  0  0  0
  191.0090  171.5370  141.9830 C   0  0  0  0  0  2  0  0  0  0  0  0
  188.6870  172.3210  141.4790 C   0  0  0  0  0  3  0  0  0  0  0  0
  190.5030  176.1150  144.2970 N   0  0  0  0  0  0  0  0  0  0  0  0
  189.3240  175.8990  143.7850 C   0  0  0  0  0  0  0  0  0  0  0  0
  192.8170  175.5200  144.6210 C   0  0  0  0  0  0  0  0  0  0  0  0
  192.4260  172.1110  141.9440 C   0  0  1  0  0  3  0  0  0  0  0  0
  187.6450  173.2380  141.6310 C   0  0  0  0  0  3  0  0  0  0  0  0
  195.0600  175.4530  146.3390 C   0  0  0  0  0  3  0  0  0  0  0  0
  192.9850  176.5680  145.6460 C   0  0  0  0  0  3  0  0  0  0  0  0
  186.7060  178.6380  143.4970 C   0  0  0  0  0  0  0  0  0  0  0  0
  186.2030  179.4840  142.5650 F   0  0  0  0  0  0  0  0  0  0  0  0
  188.2300  176.8440  144.1210 C   0  0  0  0  0  0  0  0  0  0  0  0
  186.2120  178.6760  144.8020 C   0  0  0  0  0  3  0  0  0  0  0  0
  187.7280  176.9020  145.4300 C   0  0  0  0  0  3  0  0  0  0  0  0
  187.7140  177.7300  143.1540 C   0  0  0  0  0  0  0  0  0  0  0  0
  188.1690  177.7010  141.8740 F   0  0  0  0  0  0  0  0  0  0  0  0
  186.7210  177.8080  145.7770 C   0  0  0  0  0  0  0  0  0  0  0  0
  184.9810  178.3580  147.4460 C   0  0  0  0  0  1  0  0  0  0  0  0
  186.2490  177.8230  147.0920 O   0  0  0  0  0  0  0  0  0  0  0  0
  192.7200  172.5490  140.6520 O   0  0  0  0  0  0  0  0  0  0  0  0
  192.5650  171.4830  139.8950 O   0  0  0  0  0  1  0  0  0  0  0  0
  1 15  1  0  0  0  0
  2  7  1  0  0  0  0
  3  1  1  0  0  0  0
  4  1  2  0  0  0  0
  4  2  1  0  0  0  0
  5  2  1  0  0  0  0
  5 11  2  0  0  0  0
  7 14  1  0  0  0  0
  7 16  2  0  0  0  0
  8 19  2  0  0  0  0
  9 11  1  1  0  0  0
  9 16  1  0  0  0  0
  9  8  1  0  0  0  0
 10  4  1  0  0  0  0
 12 10  1  0  0  0  0
 13 18  1  0  0  0  0
 13 10  2  0  0  0  0
 15 23  1  0  0  0  0
 15 14  2  0  0  0  0
 16 20  1  0  0  0  0
 17 31  1  6  0  0  0
 17 12  1  0  0  0  0
 17  5  1  0  0  0  0
 18  3  2  0  0  0  0
 19  6  1  0  0  0  0
 20  6  2  0  0  0  0
 21 24  1  0  0  0  0
 22 21  1  0  0  0  0
 23 25  2  0  0  0  0
 24 28  2  0  0  0  0
 25 28  1  0  0  0  0
 26 21  2  0  0  0  0
 26 23  1  0  0  0  0
 27 26  1  0  0  0  0
 28 30  1  0  0  0  0
 30 29  1  0  0  0  0
 32 31  1  0  0  0  0
M  END
>  <MODEL>
9

>  <REMARK>
 VINA RESULT:      -7.5      2.633      7.954
  Name = 
  3 active torsions:
  status: ('A' for Active; 'I' for Inactive)
    1  A    between atoms: O_13  and  C_29
    2  A    between atoms: O_15  and  C_26
    3  A    between atoms: C_16  and  C_27
                            x       y       z     vdW  Elec       q    Type
                         _______ _______ _______ _____ _____    ______ ____

>  <TORSDO>
F 3

$$$$
