=
 OpenBabel11052417373D

 25 28  0  0  1  0  0  0  0  0999 V2000
  187.2490  177.2810  142.8270 C   0  0  0  0  0  0  0  0  0  0  0  0
  187.9350  177.0520  144.0210 C   0  0  0  0  0  0  0  0  0  0  0  0
  189.2470  178.0080  141.6890 C   0  0  0  0  0  3  0  0  0  0  0  0
  185.8210  177.0550  142.4890 C   0  0  2  0  0  3  0  0  0  0  0  0
  187.6330  176.7800  146.4850 C   0  0  2  0  0  3  0  0  0  0  0  0
  183.5660  178.3650  141.2650 C   0  0  0  0  0  3  0  0  0  0  0  0
  189.9720  177.7800  142.8690 C   0  0  0  0  0  3  0  0  0  0  0  0
  185.8200  177.5650  141.0700 C   0  0  0  0  0  0  0  0  0  0  0  0
  184.5620  177.9880  140.4500 C   0  0  0  0  0  3  0  0  0  0  0  0
  190.1550  176.9940  145.2800 C   0  0  2  0  0  3  0  0  0  0  0  0
  191.6600  177.0140  145.0450 C   0  0  0  0  0  1  0  0  0  0  0  0
  187.2140  176.5940  145.1350 O   0  0  0  0  0  0  0  0  0  0  0  0
  183.7590  178.3990  142.7390 C   0  0  0  0  0  3  0  0  0  0  0  0
  187.8860  177.7250  141.6970 C   0  0  0  0  0  0  0  0  0  0  0  0
  186.9810  177.9350  140.6250 N   0  0  0  0  0  0  0  0  0  0  0  0
  189.7750  175.6900  145.8110 N   0  0  0  0  0  2  0  0  0  0  0  0
  184.8400  177.8470  143.3150 C   0  0  0  0  0  3  0  0  0  0  0  0
  188.7970  175.8650  146.8830 C   0  0  0  0  0  2  0  0  0  0  0  0
  189.3420  177.2850  144.0380 C   0  0  0  0  0  0  0  0  0  0  0  0
  186.4630  176.6530  147.4670 C   0  0  0  0  0  2  0  0  0  0  0  0
  186.7940  178.8900  148.4620 N   0  0  0  0  0  1  0  0  0  0  0  0
  185.8090  177.9680  147.9200 C   0  0  1  0  0  3  0  0  0  0  0  0
  184.9780  178.6220  146.8620 C   0  0  0  0  0  0  0  0  0  0  0  0
  185.5150  179.6220  146.0600 O   0  0  0  0  0  0  0  0  0  0  0  0
  183.7950  178.2390  146.6750 O   0  0  0  0  0  1  0  0  0  0  0  0
  1  2  1  0  0  0  0
  2 19  2  0  0  0  0
  2 12  1  0  0  0  0
  3 14  1  0  0  0  0
  3  7  2  0  0  0  0
  4  1  1  0  0  0  0
  4 17  1  1  0  0  0
  5 18  1  0  0  0  0
  5 20  1  1  0  0  0
  6 13  1  0  0  0  0
  7 19  1  0  0  0  0
  8  4  1  0  0  0  0
  9  8  1  0  0  0  0
  9  6  2  0  0  0  0
 10 11  1  6  0  0  0
 10 16  1  0  0  0  0
 12  5  1  0  0  0  0
 13 17  2  0  0  0  0
 14  1  2  0  0  0  0
 15  8  2  0  0  0  0
 15 14  1  0  0  0  0
 16 18  1  0  0  0  0
 19 10  1  0  0  0  0
 20 22  1  0  0  0  0
 22 21  1  6  0  0  0
 23 22  1  0  0  0  0
 24 23  2  0  0  0  0
 25 23  1  0  0  0  0
M  END
>  <MODEL>
1

>  <REMARK>
 VINA RESULT:      -7.4      0.000      0.000
  Name = 
  3 active torsions:
  status: ('A' for Active; 'I' for Inactive)
    1  A    between atoms: C_2  and  CA_25
    2  A    between atoms: C_6  and  C_15
    3  A    between atoms: C_15  and  CA_25
                            x       y       z     vdW  Elec       q    Type
                         _______ _______ _______ _____ _____    ______ ____

>  <TORSDO>
F 3

$$$$
=
 OpenBabel11052417373D

 25 28  0  0  1  0  0  0  0  0999 V2000
  186.8660  176.4960  144.6110 C   0  0  0  0  0  0  0  0  0  0  0  0
  188.0440  175.8110  144.3070 C   0  0  0  0  0  0  0  0  0  0  0  0
  186.3180  176.8090  142.2830 C   0  0  0  0  0  3  0  0  0  0  0  0
  186.2500  176.7990  145.9280 C   0  0  2  0  0  3  0  0  0  0  0  0
  190.2510  175.1090  145.2420 C   0  0  2  0  0  3  0  0  0  0  0  0
  185.0900  178.9720  147.4210 C   0  0  0  0  0  3  0  0  0  0  0  0
  187.4890  176.1160  141.9400 C   0  0  0  0  0  3  0  0  0  0  0  0
  185.0500  177.5840  145.4640 C   0  0  0  0  0  0  0  0  0  0  0  0
  184.3760  178.4970  146.3900 C   0  0  0  0  0  3  0  0  0  0  0  0
  189.5810  174.8010  142.5370 C   0  0  2  0  0  3  0  0  0  0  0  0
  189.6090  174.4110  141.0650 C   0  0  0  0  0  1  0  0  0  0  0  0
  188.8530  175.3630  145.3630 O   0  0  0  0  0  0  0  0  0  0  0  0
  186.5260  178.6200  147.5800 C   0  0  0  0  0  3  0  0  0  0  0  0
  186.0240  176.9620  143.6330 C   0  0  0  0  0  0  0  0  0  0  0  0
  184.9200  177.6690  144.1760 N   0  0  0  0  0  0  0  0  0  0  0  0
  189.6580  173.5930  143.3500 N   0  0  0  0  0  2  0  0  0  0  0  0
  187.0930  177.6500  146.8420 C   0  0  0  0  0  3  0  0  0  0  0  0
  190.5620  173.8180  144.4760 C   0  0  0  0  0  2  0  0  0  0  0  0
  188.3550  175.5930  142.9330 C   0  0  0  0  0  0  0  0  0  0  0  0
  190.9530  175.1330  146.6040 C   0  0  0  0  0  2  0  0  0  0  0  0
  191.5500  176.8750  148.2520 N   0  0  0  0  0  1  0  0  0  0  0  0
  191.8030  176.3770  146.9090 C   0  0  1  0  0  3  0  0  0  0  0  0
  193.2660  176.1770  146.6730 C   0  0  0  0  0  0  0  0  0  0  0  0
  194.1720  177.1950  146.9480 O   0  0  0  0  0  1  0  0  0  0  0  0
  193.6840  175.0670  146.2530 O   0  0  0  0  0  0  0  0  0  0  0  0
  1  4  1  0  0  0  0
  2  1  1  0  0  0  0
  2 12  1  0  0  0  0
  3 14  1  0  0  0  0
  4 17  1  1  0  0  0
  5 12  1  0  0  0  0
  5 20  1  1  0  0  0
  6 13  1  0  0  0  0
  7  3  2  0  0  0  0
  7 19  1  0  0  0  0
  8  4  1  0  0  0  0
  8  9  1  0  0  0  0
  9  6  2  0  0  0  0
 10 11  1  6  0  0  0
 10 19  1  0  0  0  0
 10 16  1  0  0  0  0
 14 15  1  0  0  0  0
 14  1  2  0  0  0  0
 15  8  2  0  0  0  0
 16 18  1  0  0  0  0
 17 13  2  0  0  0  0
 18  5  1  0  0  0  0
 19  2  2  0  0  0  0
 20 22  1  0  0  0  0
 22 21  1  1  0  0  0
 23 22  1  0  0  0  0
 23 24  1  0  0  0  0
 25 23  2  0  0  0  0
M  END
>  <MODEL>
2

>  <REMARK>
 VINA RESULT:      -7.3      2.902      5.078
  Name = 
  3 active torsions:
  status: ('A' for Active; 'I' for Inactive)
    1  A    between atoms: C_2  and  CA_25
    2  A    between atoms: C_6  and  C_15
    3  A    between atoms: C_15  and  CA_25
                            x       y       z     vdW  Elec       q    Type
                         _______ _______ _______ _____ _____    ______ ____

>  <TORSDO>
F 3

$$$$
=
 OpenBabel11052417373D

 25 28  0  0  1  0  0  0  0  0999 V2000
  185.8960  177.2660  143.9850 C   0  0  0  0  0  0  0  0  0  0  0  0
  186.7880  176.7590  143.0380 C   0  0  0  0  0  0  0  0  0  0  0  0
  184.6510  178.4890  142.3210 C   0  0  0  0  0  3  0  0  0  0  0  0
  185.8100  177.0150  145.4470 C   0  0  2  0  0  3  0  0  0  0  0  0
  189.0490  175.7380  142.7620 C   0  0  2  0  0  3  0  0  0  0  0  0
  185.5560  178.4050  147.9560 C   0  0  0  0  0  3  0  0  0  0  0  0
  185.5210  177.9910  141.3390 C   0  0  0  0  0  3  0  0  0  0  0  0
  184.6550  177.9220  145.7860 C   0  0  0  0  0  0  0  0  0  0  0  0
  184.4750  178.3870  147.1630 C   0  0  0  0  0  3  0  0  0  0  0  0
  187.4720  176.5430  140.5890 C   0  0  2  0  0  3  0  0  0  0  0  0
  186.9460  176.7780  139.1790 C   0  0  0  0  0  1  0  0  0  0  0  0
  187.8270  175.9230  143.4730 O   0  0  0  0  0  0  0  0  0  0  0  0
  186.8920  178.0170  147.4330 C   0  0  0  0  0  3  0  0  0  0  0  0
  184.8540  178.0870  143.6360 C   0  0  0  0  0  0  0  0  0  0  0  0
  184.1150  178.5180  144.7680 N   0  0  0  0  0  0  0  0  0  0  0  0
  187.6370  175.1100  140.8020 N   0  0  0  0  0  2  0  0  0  0  0  0
  187.0270  177.4260  146.2330 C   0  0  0  0  0  3  0  0  0  0  0  0
  188.8890  174.8630  141.5130 C   0  0  0  0  0  2  0  0  0  0  0  0
  186.5820  177.1120  141.6720 C   0  0  0  0  0  0  0  0  0  0  0  0
  190.1630  175.2110  143.6730 C   0  0  0  0  0  2  0  0  0  0  0  0
  190.4760  173.0400  144.8110 N   0  0  0  0  0  1  0  0  0  0  0  0
  189.7240  174.2840  144.8180 C   0  0  1  0  0  3  0  0  0  0  0  0
  189.7650  174.9340  146.1650 C   0  0  0  0  0  0  0  0  0  0  0  0
  190.3750  176.1710  146.3350 O   0  0  0  0  0  0  0  0  0  0  0  0
  189.2120  174.3710  147.1440 O   0  0  0  0  0  1  0  0  0  0  0  0
  1  4  1  0  0  0  0
  2 12  1  0  0  0  0
  2  1  2  0  0  0  0
  3 14  2  0  0  0  0
  4  8  1  0  0  0  0
  4 17  1  1  0  0  0
  5 12  1  0  0  0  0
  5 20  1  1  0  0  0
  7 19  2  0  0  0  0
  7  3  1  0  0  0  0
  8  9  1  0  0  0  0
  9  6  2  0  0  0  0
 10 11  1  6  0  0  0
 10 16  1  0  0  0  0
 10 19  1  0  0  0  0
 13  6  1  0  0  0  0
 14  1  1  0  0  0  0
 14 15  1  0  0  0  0
 15  8  2  0  0  0  0
 16 18  1  0  0  0  0
 17 13  2  0  0  0  0
 18  5  1  0  0  0  0
 19  2  1  0  0  0  0
 20 22  1  0  0  0  0
 22 21  1  1  0  0  0
 22 23  1  0  0  0  0
 23 24  2  0  0  0  0
 23 25  1  0  0  0  0
M  END
>  <MODEL>
3

>  <REMARK>
 VINA RESULT:      -7.3      2.406      5.242
  Name = 
  3 active torsions:
  status: ('A' for Active; 'I' for Inactive)
    1  A    between atoms: C_2  and  CA_25
    2  A    between atoms: C_6  and  C_15
    3  A    between atoms: C_15  and  CA_25
                            x       y       z     vdW  Elec       q    Type
                         _______ _______ _______ _____ _____    ______ ____

>  <TORSDO>
F 3

$$$$
=
 OpenBabel11052417373D

 25 28  0  0  1  0  0  0  0  0999 V2000
  188.0610  176.3690  145.5770 C   0  0  0  0  0  0  0  0  0  0  0  0
  188.7060  175.6650  144.5570 C   0  0  0  0  0  0  0  0  0  0  0  0
  188.9410  174.9150  147.2880 C   0  0  0  0  0  3  0  0  0  0  0  0
  187.2200  177.5910  145.5090 C   0  0  2  0  0  3  0  0  0  0  0  0
  188.6900  175.2390  142.0970 C   0  0  2  0  0  3  0  0  0  0  0  0
  184.7040  178.6450  146.4360 C   0  0  0  0  0  3  0  0  0  0  0  0
  189.6140  174.1910  146.2920 C   0  0  0  0  0  3  0  0  0  0  0  0
  186.8550  177.7200  146.9650 C   0  0  0  0  0  0  0  0  0  0  0  0
  185.6710  178.4910  147.3520 C   0  0  0  0  0  3  0  0  0  0  0  0
  190.3040  173.7950  143.8770 C   0  0  2  0  0  3  0  0  0  0  0  0
  191.3450  172.8460  144.4570 C   0  0  0  0  0  1  0  0  0  0  0  0
  188.5280  176.0880  143.2310 O   0  0  0  0  0  0  0  0  0  0  0  0
  184.8160  178.0070  145.0970 C   0  0  0  0  0  3  0  0  0  0  0  0
  188.1900  176.0170  146.8960 C   0  0  0  0  0  0  0  0  0  0  0  0
  187.4050  176.8400  147.7440 N   0  0  0  0  0  0  0  0  0  0  0  0
  190.9680  174.7400  142.9860 N   0  0  0  0  0  2  0  0  0  0  0  0
  185.9690  177.4560  144.6810 C   0  0  0  0  0  3  0  0  0  0  0  0
  190.1580  174.9300  141.7840 C   0  0  0  0  0  2  0  0  0  0  0  0
  189.5250  174.5580  144.9260 C   0  0  0  0  0  0  0  0  0  0  0  0
  187.9610  175.7890  140.8660 C   0  0  0  0  0  2  0  0  0  0  0  0
  188.1780  178.2180  141.2630 N   0  0  0  0  0  1  0  0  0  0  0  0
  187.2360  177.1320  141.0490 C   0  0  1  0  0  3  0  0  0  0  0  0
  186.2800  177.4530  139.9440 C   0  0  0  0  0  0  0  0  0  0  0  0
  186.3750  176.8060  138.7170 O   0  0  0  0  0  0  0  0  0  0  0  0
  185.3620  178.2910  140.1380 O   0  0  0  0  0  1  0  0  0  0  0  0
  1 14  1  0  0  0  0
  2 19  1  0  0  0  0
  2  1  2  0  0  0  0
  4 17  1  6  0  0  0
  4  1  1  0  0  0  0
  4  8  1  0  0  0  0
  5 20  1  6  0  0  0
  5 12  1  0  0  0  0
  6  9  2  0  0  0  0
  7  3  1  0  0  0  0
  8  9  1  0  0  0  0
  8 15  2  0  0  0  0
 10 11  1  1  0  0  0
 10 19  1  0  0  0  0
 12  2  1  0  0  0  0
 13  6  1  0  0  0  0
 14  3  2  0  0  0  0
 14 15  1  0  0  0  0
 16 10  1  0  0  0  0
 17 13  2  0  0  0  0
 18  5  1  0  0  0  0
 18 16  1  0  0  0  0
 19  7  2  0  0  0  0
 20 22  1  0  0  0  0
 22 21  1  6  0  0  0
 23 25  1  0  0  0  0
 23 22  1  0  0  0  0
 24 23  2  0  0  0  0
M  END
>  <MODEL>
4

>  <REMARK>
 VINA RESULT:      -7.2      2.649      5.327
  Name = 
  3 active torsions:
  status: ('A' for Active; 'I' for Inactive)
    1  A    between atoms: C_2  and  CA_25
    2  A    between atoms: C_6  and  C_15
    3  A    between atoms: C_15  and  CA_25
                            x       y       z     vdW  Elec       q    Type
                         _______ _______ _______ _____ _____    ______ ____

>  <TORSDO>
F 3

$$$$
=
 OpenBabel11052417373D

 25 28  0  0  1  0  0  0  0  0999 V2000
  188.0860  176.3720  144.9050 C   0  0  0  0  0  0  0  0  0  0  0  0
  188.7920  175.4960  144.0780 C   0  0  0  0  0  0  0  0  0  0  0  0
  188.8820  175.2950  146.9110 C   0  0  0  0  0  3  0  0  0  0  0  0
  187.2410  177.5430  144.5570 C   0  0  2  0  0  3  0  0  0  0  0  0
  188.9140  174.6000  141.7510 C   0  0  2  0  0  3  0  0  0  0  0  0
  184.6690  178.7090  145.1270 C   0  0  0  0  0  3  0  0  0  0  0  0
  189.6130  174.4030  146.1120 C   0  0  0  0  0  3  0  0  0  0  0  0
  186.7940  177.9450  145.9390 C   0  0  0  0  0  0  0  0  0  0  0  0
  185.5850  178.7550  146.1050 C   0  0  0  0  0  3  0  0  0  0  0  0
  190.4400  173.5590  143.8600 C   0  0  2  0  0  3  0  0  0  0  0  0
  191.4540  172.7600  144.6690 C   0  0  0  0  0  1  0  0  0  0  0  0
  188.6830  175.6500  142.6880 O   0  0  0  0  0  0  0  0  0  0  0  0
  184.8600  177.8260  143.9450 C   0  0  0  0  0  3  0  0  0  0  0  0
  188.1440  176.2860  146.2730 C   0  0  0  0  0  0  0  0  0  0  0  0
  187.3070  177.2440  146.9020 N   0  0  0  0  0  0  0  0  0  0  0  0
  191.1440  174.3250  142.8390 N   0  0  0  0  0  2  0  0  0  0  0  0
  186.0380  177.2260  143.7060 C   0  0  0  0  0  3  0  0  0  0  0  0
  190.4000  174.2630  141.5820 C   0  0  0  0  0  2  0  0  0  0  0  0
  189.5980  174.4970  144.6980 C   0  0  0  0  0  0  0  0  0  0  0  0
  188.2500  174.8870  140.4000 C   0  0  0  0  0  2  0  0  0  0  0  0
  188.0190  172.6040  139.4830 N   0  0  0  0  0  1  0  0  0  0  0  0
  188.5930  173.9210  139.2540 C   0  0  1  0  0  3  0  0  0  0  0  0
  188.2300  174.4430  137.9000 C   0  0  0  0  0  0  0  0  0  0  0  0
  188.8870  173.9800  136.7650 O   0  0  0  0  0  0  0  0  0  0  0  0
  187.3010  175.2820  137.7850 O   0  0  0  0  0  1  0  0  0  0  0  0
  1 14  1  0  0  0  0
  2 19  1  0  0  0  0
  2  1  2  0  0  0  0
  4 17  1  6  0  0  0
  4  1  1  0  0  0  0
  4  8  1  0  0  0  0
  5 20  1  6  0  0  0
  5 12  1  0  0  0  0
  6  9  2  0  0  0  0
  7  3  1  0  0  0  0
  8  9  1  0  0  0  0
  8 15  2  0  0  0  0
 10 11  1  1  0  0  0
 10 19  1  0  0  0  0
 12  2  1  0  0  0  0
 13  6  1  0  0  0  0
 14 15  1  0  0  0  0
 14  3  2  0  0  0  0
 16 10  1  0  0  0  0
 17 13  2  0  0  0  0
 18  5  1  0  0  0  0
 18 16  1  0  0  0  0
 19  7  2  0  0  0  0
 22 21  1  1  0  0  0
 22 20  1  0  0  0  0
 23 22  1  0  0  0  0
 24 23  2  0  0  0  0
 25 23  1  0  0  0  0
M  END
>  <MODEL>
5

>  <REMARK>
 VINA RESULT:      -7.1      3.642      6.178
  Name = 
  3 active torsions:
  status: ('A' for Active; 'I' for Inactive)
    1  A    between atoms: C_2  and  CA_25
    2  A    between atoms: C_6  and  C_15
    3  A    between atoms: C_15  and  CA_25
                            x       y       z     vdW  Elec       q    Type
                         _______ _______ _______ _____ _____    ______ ____

>  <TORSDO>
F 3

$$$$
=
 OpenBabel11052417373D

 25 28  0  0  1  0  0  0  0  0999 V2000
  186.5470  176.6450  142.9920 C   0  0  0  0  0  0  0  0  0  0  0  0
  187.5900  175.7370  142.7950 C   0  0  0  0  0  0  0  0  0  0  0  0
  186.4020  177.1600  140.6410 C   0  0  0  0  0  3  0  0  0  0  0  0
  185.8310  177.0190  144.2390 C   0  0  2  0  0  3  0  0  0  0  0  0
  189.4540  174.5440  143.9510 C   0  0  2  0  0  3  0  0  0  0  0  0
  184.9480  179.3280  145.7180 C   0  0  0  0  0  3  0  0  0  0  0  0
  187.4410  176.2480  140.4020 C   0  0  0  0  0  3  0  0  0  0  0  0
  184.8940  178.0600  143.6810 C   0  0  0  0  0  0  0  0  0  0  0  0
  184.3010  179.0580  144.5750 C   0  0  0  0  0  3  0  0  0  0  0  0
  189.1150  174.4940  141.1690 C   0  0  2  0  0  3  0  0  0  0  0  0
  189.2650  174.1660  139.6890 C   0  0  0  0  0  1  0  0  0  0  0  0
  188.1350  175.0850  143.9110 O   0  0  0  0  0  0  0  0  0  0  0  0
  186.2450  178.6720  146.0330 C   0  0  0  0  0  3  0  0  0  0  0  0
  185.9630  177.3180  141.9500 C   0  0  0  0  0  0  0  0  0  0  0  0
  184.9640  178.2220  142.3960 N   0  0  0  0  0  0  0  0  0  0  0  0
  188.8290  173.2660  141.9010 N   0  0  0  0  0  2  0  0  0  0  0  0
  186.6960  177.6340  145.3080 C   0  0  0  0  0  3  0  0  0  0  0  0
  189.5950  173.2480  143.1450 C   0  0  0  0  0  2  0  0  0  0  0  0
  188.0350  175.5130  141.4590 C   0  0  0  0  0  0  0  0  0  0  0  0
  189.9510  174.3630  145.3900 C   0  0  0  0  0  2  0  0  0  0  0  0
  188.9420  174.5410  147.6380 N   0  0  0  0  0  1  0  0  0  0  0  0
  189.3220  175.2840  146.4470 C   0  0  1  0  0  3  0  0  0  0  0  0
  190.1690  176.4660  146.7950 C   0  0  0  0  0  0  0  0  0  0  0  0
  191.0710  176.4040  147.8510 O   0  0  0  0  0  1  0  0  0  0  0  0
  190.0890  177.5140  146.1040 O   0  0  0  0  0  0  0  0  0  0  0  0
  1  4  1  0  0  0  0
  2  1  1  0  0  0  0
  2 12  1  0  0  0  0
  3 14  1  0  0  0  0
  4 17  1  1  0  0  0
  5 20  1  1  0  0  0
  6 13  1  0  0  0  0
  7  3  2  0  0  0  0
  7 19  1  0  0  0  0
  8  4  1  0  0  0  0
  8  9  1  0  0  0  0
  9  6  2  0  0  0  0
 10 11  1  6  0  0  0
 10 19  1  0  0  0  0
 10 16  1  0  0  0  0
 12  5  1  0  0  0  0
 14 15  1  0  0  0  0
 14  1  2  0  0  0  0
 15  8  2  0  0  0  0
 16 18  1  0  0  0  0
 17 13  2  0  0  0  0
 18  5  1  0  0  0  0
 19  2  2  0  0  0  0
 20 22  1  0  0  0  0
 22 23  1  0  0  0  0
 22 21  1  1  0  0  0
 23 24  1  0  0  0  0
 25 23  2  0  0  0  0
M  END
>  <MODEL>
6

>  <REMARK>
 VINA RESULT:      -7.0      2.640      4.205
  Name = 
  3 active torsions:
  status: ('A' for Active; 'I' for Inactive)
    1  A    between atoms: C_2  and  CA_25
    2  A    between atoms: C_6  and  C_15
    3  A    between atoms: C_15  and  CA_25
                            x       y       z     vdW  Elec       q    Type
                         _______ _______ _______ _____ _____    ______ ____

>  <TORSDO>
F 3

$$$$
=
 OpenBabel11052417373D

 25 28  0  0  1  0  0  0  0  0999 V2000
  186.9810  177.3550  144.9180 C   0  0  0  0  0  0  0  0  0  0  0  0
  188.1870  176.6510  144.9320 C   0  0  0  0  0  0  0  0  0  0  0  0
  186.5590  176.8990  147.2480 C   0  0  0  0  0  3  0  0  0  0  0  0
  186.3350  178.1190  143.8200 C   0  0  2  0  0  3  0  0  0  0  0  0
  189.8650  175.5210  143.4680 C   0  0  2  0  0  3  0  0  0  0  0  0
  183.7970  178.4440  142.4970 C   0  0  0  0  0  3  0  0  0  0  0  0
  187.7710  176.1920  147.3030 C   0  0  0  0  0  3  0  0  0  0  0  0
  185.0740  178.5460  144.5260 C   0  0  0  0  0  0  0  0  0  0  0  0
  183.8960  178.9280  143.7440 C   0  0  0  0  0  3  0  0  0  0  0  0
  189.9350  175.3540  146.2650 C   0  0  2  0  0  3  0  0  0  0  0  0
  190.3640  175.0570  147.6960 C   0  0  0  0  0  1  0  0  0  0  0  0
  188.9270  176.5600  143.7430 O   0  0  0  0  0  0  0  0  0  0  0  0
  184.8240  177.5140  141.9570 C   0  0  0  0  0  3  0  0  0  0  0  0
  186.2050  177.4890  146.0400 C   0  0  0  0  0  0  0  0  0  0  0  0
  185.0050  178.1980  145.7740 N   0  0  0  0  0  0  0  0  0  0  0  0
  190.9670  176.1540  145.6160 N   0  0  0  0  0  2  0  0  0  0  0  0
  185.9850  177.3060  142.6010 C   0  0  0  0  0  3  0  0  0  0  0  0
  191.1730  175.6720  144.2520 C   0  0  0  0  0  2  0  0  0  0  0  0
  188.6070  176.0720  146.1650 C   0  0  0  0  0  0  0  0  0  0  0  0
  190.1290  175.3780  141.9650 C   0  0  0  0  0  2  0  0  0  0  0  0
  189.0630  173.1710  142.2770 N   0  0  0  0  0  1  0  0  0  0  0  0
  189.5650  174.1160  141.2930 C   0  0  1  0  0  3  0  0  0  0  0  0
  188.5380  174.4020  140.2440 C   0  0  0  0  0  0  0  0  0  0  0  0
  188.2480  173.4610  139.2620 O   0  0  0  0  0  0  0  0  0  0  0  0
  187.9080  175.4900  140.2700 O   0  0  0  0  0  1  0  0  0  0  0  0
  1  2  2  0  0  0  0
  1 14  1  0  0  0  0
  2 19  1  0  0  0  0
  3  7  1  0  0  0  0
  4 17  1  6  0  0  0
  4  8  1  0  0  0  0
  4  1  1  0  0  0  0
  5 20  1  6  0  0  0
  5 12  1  0  0  0  0
  5 18  1  0  0  0  0
  6  9  2  0  0  0  0
  8 15  2  0  0  0  0
  9  8  1  0  0  0  0
 10 11  1  1  0  0  0
 12  2  1  0  0  0  0
 13  6  1  0  0  0  0
 13 17  2  0  0  0  0
 14  3  2  0  0  0  0
 15 14  1  0  0  0  0
 16 10  1  0  0  0  0
 18 16  1  0  0  0  0
 19 10  1  0  0  0  0
 19  7  2  0  0  0  0
 22 20  1  0  0  0  0
 22 21  1  1  0  0  0
 23 25  1  0  0  0  0
 23 22  1  0  0  0  0
 24 23  2  0  0  0  0
M  END
>  <MODEL>
7

>  <REMARK>
 VINA RESULT:      -6.8      2.608      5.069
  Name = 
  3 active torsions:
  status: ('A' for Active; 'I' for Inactive)
    1  A    between atoms: C_2  and  CA_25
    2  A    between atoms: C_6  and  C_15
    3  A    between atoms: C_15  and  CA_25
                            x       y       z     vdW  Elec       q    Type
                         _______ _______ _______ _____ _____    ______ ____

>  <TORSDO>
F 3

$$$$
=
 OpenBabel11052417373D

 25 28  0  0  1  0  0  0  0  0999 V2000
  189.9750  176.6030  144.0000 C   0  0  0  0  0  0  0  0  0  0  0  0
  188.7930  176.9660  143.3520 C   0  0  0  0  0  0  0  0  0  0  0  0
  190.4670  174.8860  142.3800 C   0  0  0  0  0  3  0  0  0  0  0  0
  190.6210  177.1860  145.2040 C   0  0  2  0  0  3  0  0  0  0  0  0
  186.6110  178.1380  143.6720 C   0  0  2  0  0  3  0  0  0  0  0  0
  191.8090  176.4160  147.7130 C   0  0  0  0  0  3  0  0  0  0  0  0
  189.2910  175.2300  141.6960 C   0  0  0  0  0  3  0  0  0  0  0  0
  191.8070  176.2630  145.3180 C   0  0  0  0  0  0  0  0  0  0  0  0
  192.4990  176.1230  146.6020 C   0  0  0  0  0  3  0  0  0  0  0  0
  187.2180  176.6650  141.3660 C   0  0  2  0  0  3  0  0  0  0  0  0
  187.1560  176.0420  139.9770 C   0  0  0  0  0  1  0  0  0  0  0  0
  188.0110  177.9930  143.9030 O   0  0  0  0  0  0  0  0  0  0  0  0
  190.3780  176.8150  147.6380 C   0  0  0  0  0  3  0  0  0  0  0  0
  190.7920  175.6120  143.5200 C   0  0  0  0  0  0  0  0  0  0  0  0
  191.9060  175.3840  144.3690 N   0  0  0  0  0  0  0  0  0  0  0  0
  187.1650  178.1160  141.2380 N   0  0  0  0  0  2  0  0  0  0  0  0
  189.7970  177.1140  146.4630 C   0  0  0  0  0  3  0  0  0  0  0  0
  186.2870  178.6660  142.2700 C   0  0  0  0  0  2  0  0  0  0  0  0
  188.4510  176.2760  142.1520 C   0  0  0  0  0  0  0  0  0  0  0  0
  185.9420  178.9890  144.7570 C   0  0  0  0  0  2  0  0  0  0  0  0
  185.2390  176.7910  145.6400 N   0  0  0  0  0  1  0  0  0  0  0  0
  185.2630  178.2210  145.9020 C   0  0  1  0  0  3  0  0  0  0  0  0
  185.8440  178.5150  147.2490 C   0  0  0  0  0  0  0  0  0  0  0  0
  186.3100  177.4850  148.0580 O   0  0  0  0  0  1  0  0  0  0  0  0
  185.9410  179.7070  147.6380 O   0  0  0  0  0  0  0  0  0  0  0  0
  1  4  1  0  0  0  0
  2 12  1  0  0  0  0
  2  1  2  0  0  0  0
  3 14  2  0  0  0  0
  4  8  1  0  0  0  0
  4 17  1  1  0  0  0
  5 12  1  0  0  0  0
  5 20  1  1  0  0  0
  7 19  2  0  0  0  0
  7  3  1  0  0  0  0
  8  9  1  0  0  0  0
  9  6  2  0  0  0  0
 10 11  1  6  0  0  0
 10 19  1  0  0  0  0
 13  6  1  0  0  0  0
 14  1  1  0  0  0  0
 14 15  1  0  0  0  0
 15  8  2  0  0  0  0
 16 10  1  0  0  0  0
 16 18  1  0  0  0  0
 17 13  2  0  0  0  0
 18  5  1  0  0  0  0
 19  2  1  0  0  0  0
 20 22  1  0  0  0  0
 22 21  1  6  0  0  0
 22 23  1  0  0  0  0
 23 25  2  0  0  0  0
 23 24  1  0  0  0  0
M  END
>  <MODEL>
8

>  <REMARK>
 VINA RESULT:      -6.8      1.996      5.333
  Name = 
  3 active torsions:
  status: ('A' for Active; 'I' for Inactive)
    1  A    between atoms: C_2  and  CA_25
    2  A    between atoms: C_6  and  C_15
    3  A    between atoms: C_15  and  CA_25
                            x       y       z     vdW  Elec       q    Type
                         _______ _______ _______ _____ _____    ______ ____

>  <TORSDO>
F 3

$$$$
=
 OpenBabel11052417373D

 25 28  0  0  1  0  0  0  0  0999 V2000
  186.5210  177.7660  143.3380 C   0  0  0  0  0  0  0  0  0  0  0  0
  187.1010  177.4340  144.5640 C   0  0  0  0  0  0  0  0  0  0  0  0
  184.4010  178.2950  144.3590 C   0  0  0  0  0  3  0  0  0  0  0  0
  187.1170  177.8030  141.9780 C   0  0  2  0  0  3  0  0  0  0  0  0
  188.9960  176.1910  145.6120 C   0  0  2  0  0  3  0  0  0  0  0  0
  186.6180  176.9290  139.2790 C   0  0  0  0  0  3  0  0  0  0  0  0
  184.9530  177.9800  145.6100 C   0  0  0  0  0  3  0  0  0  0  0  0
  185.8980  178.1970  141.1850 C   0  0  0  0  0  0  0  0  0  0  0  0
  185.8440  177.9180  139.7480 C   0  0  0  0  0  3  0  0  0  0  0  0
  186.8910  177.2880  147.1040 C   0  0  2  0  0  3  0  0  0  0  0  0
  186.0110  177.7550  148.2560 C   0  0  0  0  0  1  0  0  0  0  0  0
  188.4360  177.0020  144.5820 O   0  0  0  0  0  0  0  0  0  0  0  0
  187.4560  176.1160  140.2000 C   0  0  0  0  0  3  0  0  0  0  0  0
  185.2230  178.1990  143.2420 C   0  0  0  0  0  0  0  0  0  0  0  0
  184.8370  178.4260  141.8960 N   0  0  0  0  0  0  0  0  0  0  0  0
  188.1940  177.9340  147.2090 N   0  0  0  0  0  2  0  0  0  0  0  0
  187.6430  176.4820  141.4800 C   0  0  0  0  0  3  0  0  0  0  0  0
  189.2460  176.9630  146.9130 C   0  0  0  0  0  2  0  0  0  0  0  0
  186.3030  177.5670  145.7380 C   0  0  0  0  0  0  0  0  0  0  0  0
  190.2620  175.4670  145.1410 C   0  0  0  0  0  2  0  0  0  0  0  0
  192.4390  174.9620  146.1960 N   0  0  0  0  0  1  0  0  0  0  0  0
  191.5970  176.0210  145.6640 C   0  0  1  0  0  3  0  0  0  0  0  0
  192.3360  176.8500  144.6620 C   0  0  0  0  0  0  0  0  0  0  0  0
  191.6690  177.8070  143.9060 O   0  0  0  0  0  0  0  0  0  0  0  0
  193.5780  176.7030  144.5270 O   0  0  0  0  0  1  0  0  0  0  0  0
  1  2  1  0  0  0  0
  2 12  1  0  0  0  0
  2 19  2  0  0  0  0
  3  7  2  0  0  0  0
  4 17  1  6  0  0  0
  4  1  1  0  0  0  0
  5 20  1  6  0  0  0
  5 18  1  0  0  0  0
  6  9  2  0  0  0  0
  6 13  1  0  0  0  0
  7 19  1  0  0  0  0
  8 15  2  0  0  0  0
  8  4  1  0  0  0  0
  9  8  1  0  0  0  0
 10 16  1  0  0  0  0
 10 11  1  1  0  0  0
 12  5  1  0  0  0  0
 13 17  2  0  0  0  0
 14  1  2  0  0  0  0
 14  3  1  0  0  0  0
 15 14  1  0  0  0  0
 18 16  1  0  0  0  0
 19 10  1  0  0  0  0
 20 22  1  0  0  0  0
 22 21  1  6  0  0  0
 23 22  1  0  0  0  0
 24 23  2  0  0  0  0
 25 23  1  0  0  0  0
M  END
>  <MODEL>
9

>  <REMARK>
 VINA RESULT:      -6.7      2.150      4.699
  Name = 
  3 active torsions:
  status: ('A' for Active; 'I' for Inactive)
    1  A    between atoms: C_2  and  CA_25
    2  A    between atoms: C_6  and  C_15
    3  A    between atoms: C_15  and  CA_25
                            x       y       z     vdW  Elec       q    Type
                         _______ _______ _______ _____ _____    ______ ____

>  <TORSDO>
F 3

$$$$
