=
 OpenBabel11052421113D

 43 49  0  0  1  0  0  0  0  0999 V2000
  186.0400  178.8830  144.0880 C   0  0  0  0  0  0  0  0  0  0  0  0
  188.1780  175.4110  141.1230 C   0  0  0  0  0  0  0  0  0  0  0  0
  189.6630  173.7450  142.8480 C   0  0  0  0  0  0  0  0  0  0  0  0
  186.7310  177.5710  142.1410 C   0  0  1  0  0  3  0  0  0  0  0  0
  186.7140  178.0980  144.9350 C   0  0  0  0  0  3  0  0  0  0  0  0
  185.2630  180.0370  144.6130 C   0  0  0  0  0  1  0  0  0  0  0  0
  187.4900  176.6920  143.0420 C   0  0  0  0  0  0  0  0  0  0  0  0
  186.0480  178.6060  142.6360 C   0  0  0  0  0  3  0  0  0  0  0  0
  187.4660  176.9760  144.4480 N   0  0  0  0  0  0  0  0  0  0  0  0
  188.9250  174.8230  143.3610 C   0  0  0  0  0  3  0  0  0  0  0  0
  188.1840  175.6620  142.5230 C   0  0  0  0  0  0  0  0  0  0  0  0
  187.4830  176.2050  140.2920 C   0  0  0  0  0  3  0  0  0  0  0  0
  188.9130  174.3310  140.6030 C   0  0  0  0  0  0  0  0  0  0  0  0
  189.6470  173.5110  141.4690 C   0  0  0  0  0  3  0  0  0  0  0  0
  186.7480  177.2960  140.7760 O   0  0  0  0  0  0  0  0  0  0  0  0
  190.4550  172.8700  143.7440 C   0  0  0  0  0  0  0  0  0  0  0  0
  191.7470  172.6370  143.4870 C   0  0  0  0  0  3  0  0  0  0  0  0
  189.7980  172.2400  144.9360 C   0  0  0  0  0  1  0  0  0  0  0  0
  194.1250  171.8780  144.0230 C   0  0  2  0  0  3  0  0  0  0  0  0
  192.6270  171.7530  144.3290 C   0  0  1  0  0  3  0  0  0  0  0  0
  193.5210  172.6060  145.2130 C   0  0  0  0  0  2  0  0  0  0  0  0
  194.4000  172.8290  142.9530 N   0  0  0  0  0  2  0  0  0  0  0  0
  195.8320  172.7840  142.7010 C   0  0  0  0  0  2  0  0  0  0  0  0
  196.5890  174.6180  144.2140 C   0  0  0  0  0  3  0  0  0  0  0  0
  196.5730  173.3190  143.8870 C   0  0  0  0  0  3  0  0  0  0  0  0
  195.8640  175.6780  143.4340 C   0  0  2  0  0  3  0  0  0  0  0  0
  196.7980  176.8610  143.1990 C   0  0  0  0  0  1  0  0  0  0  0  0
  194.5090  176.1070  145.4060 C   0  0  0  0  0  0  0  0  0  0  0  0
  194.5780  176.0770  144.1130 C   0  0  0  0  0  0  0  0  0  0  0  0
  193.2350  176.1050  143.4020 C   0  0  0  0  0  2  0  0  0  0  0  0
  192.5760  176.3690  146.7570 C   0  0  0  0  0  2  0  0  0  0  0  0
  191.7560  175.9030  145.5240 C   0  0  0  0  0  2  0  0  0  0  0  0
  194.0600  176.1680  146.6140 C   0  0  0  0  0  3  0  0  0  0  0  0
  192.0700  176.6990  144.2390 C   0  0  0  0  0  2  0  0  0  0  0  0
  188.9060  174.0840  139.2240 O   0  0  0  0  0  0  0  0  0  0  0  0
  191.2980  171.7620  137.8830 O   0  0  0  0  0  0  0  0  0  0  0  0
  190.8020  171.1310  136.7290 C   0  0  0  0  0  0  0  0  0  0  0  0
  191.7190  171.4040  135.5470 C   0  0  0  0  0  1  0  0  0  0  0  0
  189.3940  173.0080  137.1420 C   0  0  2  0  0  3  0  0  0  0  0  0
  190.6560  173.0140  137.9800 C   0  0  1  0  0  3  0  0  0  0  0  0
  189.3040  172.8490  138.6490 C   0  0  1  0  0  3  0  0  0  0  0  0
  190.7160  169.6340  136.9630 C   0  0  0  0  0  1  0  0  0  0  0  0
  189.4230  171.6750  136.4530 C   0  0  0  0  0  2  0  0  0  0  0  0
  1  6  1  0  0  0  0
  1  5  1  0  0  0  0
  2 11  1  0  0  0  0
  3 10  2  0  0  0  0
  3 16  1  0  0  0  0
  4  8  1  6  0  0  0
  4  7  1  0  0  0  0
  7  9  1  0  0  0  0
  8  1  2  0  0  0  0
  9  5  2  0  0  0  0
 11  7  2  0  0  0  0
 11 10  1  0  0  0  0
 12 15  1  0  0  0  0
 12  2  2  0  0  0  0
 13  2  1  0  0  0  0
 13 14  2  0  0  0  0
 14  3  1  0  0  0  0
 15  4  1  0  0  0  0
 16 18  1  0  0  0  0
 17 16  2  0  0  0  0
 19 22  1  6  0  0  0
 19 20  1  0  0  0  0
 19 21  1  0  0  0  0
 20 17  1  6  0  0  0
 20 21  1  0  0  0  0
 23 22  1  0  0  0  0
 23 25  1  0  0  0  0
 25 24  2  0  0  0  0
 26 27  1  1  0  0  0
 26 29  1  0  0  0  0
 26 24  1  0  0  0  0
 28 33  2  0  0  0  0
 29 28  2  0  0  0  0
 30 29  1  0  0  0  0
 30 34  1  0  0  0  0
 32 31  1  0  0  0  0
 33 31  1  0  0  0  0
 34 32  1  0  0  0  0
 35 13  1  0  0  0  0
 37 42  1  0  0  0  0
 37 36  1  0  0  0  0
 38 37  1  0  0  0  0
 39 43  1  6  0  0  0
 39 40  1  0  0  0  0
 39 41  1  0  0  0  0
 40 36  1  6  0  0  0
 40 41  1  0  0  0  0
 41 35  1  1  0  0  0
 43 37  1  0  0  0  0
M  END
>  <MODEL>
1

>  <REMARK>
 VINA RESULT:      -7.8      0.000      0.000
  Name = 
  9 active torsions:
  status: ('A' for Active; 'I' for Inactive)
    1  A    between atoms: O_1  and  C_34
    2  A    between atoms: O_1  and  C_35
    3  A    between atoms: C_2  and  C_13
    4  A    between atoms: C_3  and  N_4
    5  A    between atoms: N_4  and  C_15
    6  A    between atoms: C_6  and  C_12
    7  A    between atoms: C_10  and  C_22
    8  A    between atoms: C_14  and  C_22
    9  A    between atoms: C_15  and  C_42
                            x       y       z     vdW  Elec       q    Type
                         _______ _______ _______ _____ _____    ______ ____

>  <TORSDO>
F 9

$$$$
=
 OpenBabel11052421113D

 43 49  0  0  1  0  0  0  0  0999 V2000
  185.8130  178.1260  146.6530 C   0  0  0  0  0  0  0  0  0  0  0  0
  188.1190  175.9180  142.7520 C   0  0  0  0  0  0  0  0  0  0  0  0
  190.8700  176.4340  143.1000 C   0  0  0  0  0  0  0  0  0  0  0  0
  186.2540  176.8800  144.5930 C   0  0  1  0  0  3  0  0  0  0  0  0
  187.1120  178.3680  146.8600 C   0  0  0  0  0  3  0  0  0  0  0  0
  184.8060  178.6300  147.6250 C   0  0  0  0  0  1  0  0  0  0  0  0
  187.6890  177.1340  144.7840 C   0  0  0  0  0  0  0  0  0  0  0  0
  185.3690  177.3500  145.4760 C   0  0  0  0  0  3  0  0  0  0  0  0
  188.0990  177.8850  145.9360 N   0  0  0  0  0  0  0  0  0  0  0  0
  189.9330  176.9070  144.0320 C   0  0  0  0  0  3  0  0  0  0  0  0
  188.5650  176.6630  143.8770 C   0  0  0  0  0  0  0  0  0  0  0  0
  186.8100  175.6750  142.5710 C   0  0  0  0  0  3  0  0  0  0  0  0
  189.0520  175.4380  141.8150 C   0  0  0  0  0  0  0  0  0  0  0  0
  190.4150  175.7020  141.9980 C   0  0  0  0  0  3  0  0  0  0  0  0
  185.8530  176.1460  143.4800 O   0  0  0  0  0  0  0  0  0  0  0  0
  192.3160  176.7090  143.2670 C   0  0  0  0  0  0  0  0  0  0  0  0
  193.2110  176.1100  142.4730 C   0  0  0  0  0  3  0  0  0  0  0  0
  192.7720  177.6570  144.3350 C   0  0  0  0  0  1  0  0  0  0  0  0
  195.5350  175.1670  141.9950 C   0  0  2  0  0  3  0  0  0  0  0  0
  194.6980  176.3150  142.5760 C   0  0  1  0  0  3  0  0  0  0  0  0
  195.3010  176.4330  141.1860 C   0  0  0  0  0  2  0  0  0  0  0  0
  194.7120  174.0860  141.4670 N   0  0  0  0  0  2  0  0  0  0  0  0
  195.2210  172.8480  142.0350 C   0  0  0  0  0  2  0  0  0  0  0  0
  193.3450  172.0300  143.4630 C   0  0  0  0  0  3  0  0  0  0  0  0
  194.0830  171.9280  142.3500 C   0  0  0  0  0  3  0  0  0  0  0  0
  193.5740  173.0790  144.5150 C   0  0  2  0  0  3  0  0  0  0  0  0
  194.4460  172.5010  145.6250 C   0  0  0  0  0  1  0  0  0  0  0  0
  192.2670  174.4830  146.0080 C   0  0  0  0  0  0  0  0  0  0  0  0
  192.2700  173.6370  145.0280 C   0  0  0  0  0  0  0  0  0  0  0  0
  190.9190  173.0120  144.7200 C   0  0  0  0  0  2  0  0  0  0  0  0
  190.4010  175.2820  147.2390 C   0  0  0  0  0  2  0  0  0  0  0  0
  189.6430  174.0230  146.7410 C   0  0  0  0  0  2  0  0  0  0  0  0
  191.8830  175.2460  146.9760 C   0  0  0  0  0  3  0  0  0  0  0  0
  189.6980  173.8360  145.2090 C   0  0  0  0  0  2  0  0  0  0  0  0
  188.6110  174.7040  140.7070 O   0  0  0  0  0  0  0  0  0  0  0  0
  190.5980  173.6920  137.8890 O   0  0  0  0  0  0  0  0  0  0  0  0
  190.3520  172.3500  137.5500 C   0  0  0  0  0  0  0  0  0  0  0  0
  189.8530  172.2550  136.1160 C   0  0  0  0  0  1  0  0  0  0  0  0
  188.5880  173.0230  139.0020 C   0  0  2  0  0  3  0  0  0  0  0  0
  189.4330  174.1810  138.5140 C   0  0  1  0  0  3  0  0  0  0  0  0
  189.4400  173.8060  139.9840 C   0  0  1  0  0  3  0  0  0  0  0  0
  191.6310  171.5450  137.6910 C   0  0  0  0  0  1  0  0  0  0  0  0
  189.3120  171.8090  138.4980 C   0  0  0  0  0  2  0  0  0  0  0  0
  1  5  1  0  0  0  0
  1  6  1  0  0  0  0
  2 11  1  0  0  0  0
  3 16  1  0  0  0  0
  3 10  2  0  0  0  0
  4  7  1  0  0  0  0
  4  8  1  6  0  0  0
  7  9  1  0  0  0  0
  8  1  2  0  0  0  0
  9  5  2  0  0  0  0
 11 10  1  0  0  0  0
 11  7  2  0  0  0  0
 12  2  2  0  0  0  0
 12 15  1  0  0  0  0
 13 14  2  0  0  0  0
 13  2  1  0  0  0  0
 14  3  1  0  0  0  0
 15  4  1  0  0  0  0
 16 18  1  0  0  0  0
 17 16  2  0  0  0  0
 19 22  1  6  0  0  0
 19 20  1  0  0  0  0
 20 17  1  6  0  0  0
 21 19  1  0  0  0  0
 21 20  1  0  0  0  0
 22 23  1  0  0  0  0
 23 25  1  0  0  0  0
 24 26  1  0  0  0  0
 25 24  2  0  0  0  0
 26 29  1  0  0  0  0
 26 27  1  1  0  0  0
 28 33  2  0  0  0  0
 29 28  2  0  0  0  0
 30 29  1  0  0  0  0
 30 34  1  0  0  0  0
 32 31  1  0  0  0  0
 33 31  1  0  0  0  0
 34 32  1  0  0  0  0
 35 13  1  0  0  0  0
 37 42  1  0  0  0  0
 37 36  1  0  0  0  0
 37 43  1  0  0  0  0
 38 37  1  0  0  0  0
 39 43  1  6  0  0  0
 39 41  1  0  0  0  0
 40 36  1  6  0  0  0
 40 39  1  0  0  0  0
 40 41  1  0  0  0  0
 41 35  1  1  0  0  0
M  END
>  <MODEL>
2

>  <REMARK>
 VINA RESULT:      -7.4      1.741      3.140
  Name = 
  9 active torsions:
  status: ('A' for Active; 'I' for Inactive)
    1  A    between atoms: O_1  and  C_34
    2  A    between atoms: O_1  and  C_35
    3  A    between atoms: C_2  and  C_13
    4  A    between atoms: C_3  and  N_4
    5  A    between atoms: N_4  and  C_15
    6  A    between atoms: C_6  and  C_12
    7  A    between atoms: C_10  and  C_22
    8  A    between atoms: C_14  and  C_22
    9  A    between atoms: C_15  and  C_42
                            x       y       z     vdW  Elec       q    Type
                         _______ _______ _______ _____ _____    ______ ____

>  <TORSDO>
F 9

$$$$
=
 OpenBabel11052421113D

 43 49  0  0  1  0  0  0  0  0999 V2000
  187.0540  177.4530  143.4530 C   0  0  0  0  0  0  0  0  0  0  0  0
  189.7770  173.6320  141.6080 C   0  0  0  0  0  0  0  0  0  0  0  0
  192.4530  174.5190  141.6370 C   0  0  0  0  0  0  0  0  0  0  0  0
  187.7240  175.2950  142.5130 C   0  0  1  0  0  3  0  0  0  0  0  0
  188.3150  177.8940  143.5030 C   0  0  0  0  0  3  0  0  0  0  0  0
  185.9490  178.3250  143.9320 C   0  0  0  0  0  1  0  0  0  0  0  0
  189.1210  175.7510  142.5450 C   0  0  0  0  0  0  0  0  0  0  0  0
  186.7490  176.1000  142.9410 C   0  0  0  0  0  3  0  0  0  0  0  0
  189.3960  177.0650  143.0500 N   0  0  0  0  0  0  0  0  0  0  0  0
  191.4230  175.3500  142.1040 C   0  0  0  0  0  3  0  0  0  0  0  0
  190.0900  174.9300  142.0960 C   0  0  0  0  0  0  0  0  0  0  0  0
  188.5030  173.2040  141.5800 C   0  0  0  0  0  3  0  0  0  0  0  0
  190.8040  172.7930  141.1420 C   0  0  0  0  0  0  0  0  0  0  0  0
  192.1300  173.2450  141.1610 C   0  0  0  0  0  3  0  0  0  0  0  0
  187.4540  174.0180  142.0280 O   0  0  0  0  0  0  0  0  0  0  0  0
  193.8620  174.9790  141.6380 C   0  0  0  0  0  0  0  0  0  0  0  0
  194.8210  174.2110  141.1070 C   0  0  0  0  0  3  0  0  0  0  0  0
  194.2080  176.3060  142.2430 C   0  0  0  0  0  1  0  0  0  0  0  0
  197.1460  173.8340  142.0910 C   0  0  2  0  0  3  0  0  0  0  0  0
  196.2780  174.5860  141.0740 C   0  0  1  0  0  3  0  0  0  0  0  0
  197.1090  173.3910  140.6370 C   0  0  0  0  0  2  0  0  0  0  0  0
  196.3740  172.9060  142.9080 N   0  0  0  0  0  2  0  0  0  0  0  0
  196.4230  173.4010  144.2750 C   0  0  0  0  0  2  0  0  0  0  0  0
  194.3250  173.1030  145.5930 C   0  0  0  0  0  3  0  0  0  0  0  0
  195.4840  172.6120  145.1340 C   0  0  0  0  0  3  0  0  0  0  0  0
  193.8380  174.4930  145.2950 C   0  0  2  0  0  3  0  0  0  0  0  0
  194.5540  175.4870  146.2040 C   0  0  0  0  0  1  0  0  0  0  0  0
  191.7810  175.6600  145.8590 C   0  0  0  0  0  0  0  0  0  0  0  0
  192.3360  174.5830  145.4000 C   0  0  0  0  0  0  0  0  0  0  0  0
  191.4240  173.3700  145.3440 C   0  0  0  0  0  2  0  0  0  0  0  0
  189.5060  175.9910  146.4470 C   0  0  0  0  0  2  0  0  0  0  0  0
  189.4000  174.4470  146.5600 C   0  0  0  0  0  2  0  0  0  0  0  0
  190.9170  176.4990  146.3240 C   0  0  0  0  0  3  0  0  0  0  0  0
  189.9070  173.7000  145.3070 C   0  0  0  0  0  2  0  0  0  0  0  0
  190.4940  171.5140  140.6620 O   0  0  0  0  0  0  0  0  0  0  0  0
  191.0210  171.9540  137.1340 O   0  0  0  0  0  0  0  0  0  0  0  0
  190.4560  170.8970  136.4000 C   0  0  0  0  0  0  0  0  0  0  0  0
  189.4210  171.4320  135.4210 C   0  0  0  0  0  1  0  0  0  0  0  0
  189.5380  170.7740  138.5960 C   0  0  2  0  0  3  0  0  0  0  0  0
  190.2890  172.0630  138.3350 C   0  0  1  0  0  3  0  0  0  0  0  0
  190.8200  171.0710  139.3530 C   0  0  1  0  0  3  0  0  0  0  0  0
  191.5440  170.1690  135.6330 C   0  0  0  0  0  1  0  0  0  0  0  0
  189.8060  169.9450  137.3730 C   0  0  0  0  0  2  0  0  0  0  0  0
  1  5  1  0  0  0  0
  1  6  1  0  0  0  0
  2 11  1  0  0  0  0
  3 16  1  0  0  0  0
  3 10  2  0  0  0  0
  4  7  1  0  0  0  0
  4  8  1  6  0  0  0
  7  9  1  0  0  0  0
  8  1  2  0  0  0  0
  9  5  2  0  0  0  0
 11 10  1  0  0  0  0
 11  7  2  0  0  0  0
 12  2  2  0  0  0  0
 12 15  1  0  0  0  0
 13 14  2  0  0  0  0
 13  2  1  0  0  0  0
 14  3  1  0  0  0  0
 15  4  1  0  0  0  0
 16 18  1  0  0  0  0
 17 16  2  0  0  0  0
 19 22  1  1  0  0  0
 20 17  1  1  0  0  0
 20 19  1  0  0  0  0
 21 20  1  0  0  0  0
 21 19  1  0  0  0  0
 22 23  1  0  0  0  0
 23 25  1  0  0  0  0
 25 24  2  0  0  0  0
 26 29  1  0  0  0  0
 26 24  1  0  0  0  0
 26 27  1  1  0  0  0
 28 33  2  0  0  0  0
 29 28  2  0  0  0  0
 30 29  1  0  0  0  0
 31 32  1  0  0  0  0
 33 31  1  0  0  0  0
 34 30  1  0  0  0  0
 34 32  1  0  0  0  0
 35 13  1  0  0  0  0
 37 36  1  0  0  0  0
 37 43  1  0  0  0  0
 38 37  1  0  0  0  0
 39 43  1  6  0  0  0
 39 41  1  0  0  0  0
 40 36  1  6  0  0  0
 40 39  1  0  0  0  0
 40 41  1  0  0  0  0
 41 35  1  1  0  0  0
 42 37  1  0  0  0  0
M  END
>  <MODEL>
3

>  <REMARK>
 VINA RESULT:      -7.4      1.760      3.133
  Name = 
  9 active torsions:
  status: ('A' for Active; 'I' for Inactive)
    1  A    between atoms: O_1  and  C_34
    2  A    between atoms: O_1  and  C_35
    3  A    between atoms: C_2  and  C_13
    4  A    between atoms: C_3  and  N_4
    5  A    between atoms: N_4  and  C_15
    6  A    between atoms: C_6  and  C_12
    7  A    between atoms: C_10  and  C_22
    8  A    between atoms: C_14  and  C_22
    9  A    between atoms: C_15  and  C_42
                            x       y       z     vdW  Elec       q    Type
                         _______ _______ _______ _____ _____    ______ ____

>  <TORSDO>
F 9

$$$$
=
 OpenBabel11052421113D

 43 49  0  0  1  0  0  0  0  0999 V2000
  196.4690  169.2800  146.9400 C   0  0  0  0  0  0  0  0  0  0  0  0
  194.9920  172.9770  143.8480 C   0  0  0  0  0  0  0  0  0  0  0  0
  192.1770  172.8200  143.7610 C   0  0  0  0  0  0  0  0  0  0  0  0
  196.4620  171.1830  145.4010 C   0  0  1  0  0  3  0  0  0  0  0  0
  195.1340  169.1940  146.9400 C   0  0  0  0  0  3  0  0  0  0  0  0
  197.2670  168.3330  147.7630 C   0  0  0  0  0  1  0  0  0  0  0  0
  194.9950  171.1130  145.3700 C   0  0  0  0  0  0  0  0  0  0  0  0
  197.1570  170.3160  146.1420 C   0  0  0  0  0  3  0  0  0  0  0  0
  194.3460  170.1020  146.1560 N   0  0  0  0  0  0  0  0  0  0  0  0
  192.9160  171.9270  144.5520 C   0  0  0  0  0  3  0  0  0  0  0  0
  194.3110  171.9870  144.6080 C   0  0  0  0  0  0  0  0  0  0  0  0
  196.3330  173.0540  143.8730 C   0  0  0  0  0  3  0  0  0  0  0  0
  194.2580  173.8780  143.0550 C   0  0  0  0  0  0  0  0  0  0  0  0
  192.8600  173.7900  143.0200 C   0  0  0  0  0  3  0  0  0  0  0  0
  197.0950  172.1660  144.6450 O   0  0  0  0  0  0  0  0  0  0  0  0
  190.6990  172.7410  143.7000 C   0  0  0  0  0  0  0  0  0  0  0  0
  190.0590  172.9770  142.5480 C   0  0  0  0  0  3  0  0  0  0  0  0
  189.9230  172.4000  144.9370 C   0  0  0  0  0  1  0  0  0  0  0  0
  187.9300  174.2750  141.9990 C   0  0  2  0  0  3  0  0  0  0  0  0
  188.5630  172.9330  142.3920 C   0  0  1  0  0  3  0  0  0  0  0  0
  188.1870  173.2080  140.9460 C   0  0  0  0  0  2  0  0  0  0  0  0
  188.9160  175.3410  141.8680 N   0  0  0  0  0  2  0  0  0  0  0  0
  188.1860  176.5990  141.8930 C   0  0  0  0  0  2  0  0  0  0  0  0
  189.5020  177.8440  143.6090 C   0  0  0  0  0  3  0  0  0  0  0  0
  189.0930  177.7030  142.3410 C   0  0  0  0  0  3  0  0  0  0  0  0
  189.1010  176.9110  144.7170 C   0  0  2  0  0  3  0  0  0  0  0  0
  187.9860  177.5490  145.5380 C   0  0  0  0  0  1  0  0  0  0  0  0
  191.4910  176.7530  145.1350 C   0  0  0  0  0  0  0  0  0  0  0  0
  190.2900  176.5150  145.5570 C   0  0  0  0  0  0  0  0  0  0  0  0
  190.2040  175.5290  146.7100 C   0  0  0  0  0  2  0  0  0  0  0  0
  193.5390  175.9770  146.0480 C   0  0  0  0  0  2  0  0  0  0  0  0
  192.7100  174.8570  146.7320 C   0  0  0  0  0  2  0  0  0  0  0  0
  192.7760  176.7540  145.0100 C   0  0  0  0  0  3  0  0  0  0  0  0
  191.5070  175.3880  147.5420 C   0  0  0  0  0  2  0  0  0  0  0  0
  194.9300  174.8540  142.3080 O   0  0  0  0  0  0  0  0  0  0  0  0
  196.7990  175.6670  139.3480 O   0  0  0  0  0  0  0  0  0  0  0  0
  196.6110  174.6990  138.3470 C   0  0  0  0  0  0  0  0  0  0  0  0
  196.0330  175.3430  137.0960 C   0  0  0  0  0  1  0  0  0  0  0  0
  194.9020  174.3460  139.9680 C   0  0  2  0  0  3  0  0  0  0  0  0
  195.6460  175.6510  140.1610 C   0  0  1  0  0  3  0  0  0  0  0  0
  195.7650  174.5520  141.2000 C   0  0  1  0  0  3  0  0  0  0  0  0
  197.9410  174.0510  138.0090 C   0  0  0  0  0  1  0  0  0  0  0  0
  195.6640  173.6520  138.8780 C   0  0  0  0  0  2  0  0  0  0  0  0
  1  6  1  0  0  0  0
  2 12  2  0  0  0  0
  2 11  1  0  0  0  0
  3 10  2  0  0  0  0
  4  8  1  6  0  0  0
  5  1  1  0  0  0  0
  7  4  1  0  0  0  0
  7  9  1  0  0  0  0
  8  1  2  0  0  0  0
  9  5  2  0  0  0  0
 10 11  1  0  0  0  0
 11  7  2  0  0  0  0
 12 15  1  0  0  0  0
 13  2  1  0  0  0  0
 14 13  2  0  0  0  0
 14  3  1  0  0  0  0
 15  4  1  0  0  0  0
 16  3  1  0  0  0  0
 16 18  1  0  0  0  0
 17 16  2  0  0  0  0
 19 22  1  6  0  0  0
 19 20  1  0  0  0  0
 20 17  1  6  0  0  0
 21 19  1  0  0  0  0
 21 20  1  0  0  0  0
 22 23  1  0  0  0  0
 23 25  1  0  0  0  0
 24 26  1  0  0  0  0
 25 24  2  0  0  0  0
 26 27  1  1  0  0  0
 26 29  1  0  0  0  0
 28 29  2  0  0  0  0
 29 30  1  0  0  0  0
 30 34  1  0  0  0  0
 31 32  1  0  0  0  0
 32 34  1  0  0  0  0
 33 28  2  0  0  0  0
 33 31  1  0  0  0  0
 35 13  1  0  0  0  0
 37 43  1  0  0  0  0
 37 36  1  0  0  0  0
 38 37  1  0  0  0  0
 39 43  1  6  0  0  0
 39 40  1  0  0  0  0
 39 41  1  0  0  0  0
 40 36  1  6  0  0  0
 40 41  1  0  0  0  0
 41 35  1  1  0  0  0
 42 37  1  0  0  0  0
M  END
>  <MODEL>
4

>  <REMARK>
 VINA RESULT:      -7.3      3.325      7.846
  Name = 
  9 active torsions:
  status: ('A' for Active; 'I' for Inactive)
    1  A    between atoms: O_1  and  C_34
    2  A    between atoms: O_1  and  C_35
    3  A    between atoms: C_2  and  C_13
    4  A    between atoms: C_3  and  N_4
    5  A    between atoms: N_4  and  C_15
    6  A    between atoms: C_6  and  C_12
    7  A    between atoms: C_10  and  C_22
    8  A    between atoms: C_14  and  C_22
    9  A    between atoms: C_15  and  C_42
                            x       y       z     vdW  Elec       q    Type
                         _______ _______ _______ _____ _____    ______ ____

>  <TORSDO>
F 9

$$$$
=
 OpenBabel11052421113D

 43 49  0  0  1  0  0  0  0  0999 V2000
  187.2350  177.4070  146.3950 C   0  0  0  0  0  0  0  0  0  0  0  0
  188.9010  174.9580  142.3160 C   0  0  0  0  0  0  0  0  0  0  0  0
  190.8440  173.1440  143.2560 C   0  0  0  0  0  0  0  0  0  0  0  0
  187.5670  176.6500  144.0910 C   0  0  1  0  0  3  0  0  0  0  0  0
  188.1340  176.5420  146.8760 C   0  0  0  0  0  3  0  0  0  0  0  0
  186.5150  178.3150  147.3270 C   0  0  0  0  0  1  0  0  0  0  0  0
  188.5670  175.6920  144.5840 C   0  0  0  0  0  0  0  0  0  0  0  0
  186.9400  177.4600  144.9480 C   0  0  0  0  0  3  0  0  0  0  0  0
  188.8360  175.6540  145.9930 N   0  0  0  0  0  0  0  0  0  0  0  0
  190.1650  173.9860  144.1500 C   0  0  0  0  0  3  0  0  0  0  0  0
  189.1990  174.8930  143.7040 C   0  0  0  0  0  0  0  0  0  0  0  0
  187.9840  175.8260  141.8560 C   0  0  0  0  0  3  0  0  0  0  0  0
  189.5750  174.1160  141.4140 C   0  0  0  0  0  0  0  0  0  0  0  0
  190.5390  173.2190  141.8930 C   0  0  0  0  0  3  0  0  0  0  0  0
  187.3000  176.6870  142.7250 O   0  0  0  0  0  0  0  0  0  0  0  0
  191.8750  172.1950  143.7370 C   0  0  0  0  0  0  0  0  0  0  0  0
  192.8420  172.6120  144.5620 C   0  0  0  0  0  3  0  0  0  0  0  0
  191.8330  170.7640  143.2890 C   0  0  0  0  0  1  0  0  0  0  0  0
  195.2420  171.7860  144.2850 C   0  0  2  0  0  3  0  0  0  0  0  0
  193.9380  171.7270  145.0910 C   0  0  1  0  0  3  0  0  0  0  0  0
  195.1010  172.5770  145.5760 C   0  0  0  0  0  2  0  0  0  0  0  0
  195.1530  172.6870  143.1430 N   0  0  0  0  0  2  0  0  0  0  0  0
  196.4740  172.7380  142.5370 C   0  0  0  0  0  2  0  0  0  0  0  0
  196.8250  175.1490  143.0760 C   0  0  0  0  0  3  0  0  0  0  0  0
  197.2530  173.8800  143.1110 C   0  0  0  0  0  3  0  0  0  0  0  0
  195.5170  175.5650  142.4620 C   0  0  2  0  0  3  0  0  0  0  0  0
  195.7780  176.5820  141.3560 C   0  0  0  0  0  1  0  0  0  0  0  0
  194.9100  176.0990  144.7540 C   0  0  0  0  0  0  0  0  0  0  0  0
  194.5570  176.0740  143.5080 C   0  0  0  0  0  0  0  0  0  0  0  0
  193.0660  176.2300  143.2640 C   0  0  0  0  0  2  0  0  0  0  0  0
  193.5440  176.5260  146.6480 C   0  0  0  0  0  2  0  0  0  0  0  0
  192.3340  176.1470  145.7520 C   0  0  0  0  0  2  0  0  0  0  0  0
  194.8800  176.1910  146.0420 C   0  0  0  0  0  3  0  0  0  0  0  0
  192.2890  176.9220  144.4170 C   0  0  0  0  0  2  0  0  0  0  0  0
  189.2800  174.1810  140.0470 O   0  0  0  0  0  0  0  0  0  0  0  0
  190.2980  173.4280  136.6830 O   0  0  0  0  0  0  0  0  0  0  0  0
  190.2800  172.0430  136.4450 C   0  0  0  0  0  0  0  0  0  0  0  0
  189.3360  171.7200  135.2970 C   0  0  0  0  0  1  0  0  0  0  0  0
  189.0530  172.4080  138.4540 C   0  0  2  0  0  3  0  0  0  0  0  0
  189.3550  173.6860  137.7000 C   0  0  1  0  0  3  0  0  0  0  0  0
  189.9840  173.4430  139.0590 C   0  0  1  0  0  3  0  0  0  0  0  0
  191.6780  171.5680  136.0950 C   0  0  0  0  0  1  0  0  0  0  0  0
  189.8190  171.3560  137.7060 C   0  0  0  0  0  2  0  0  0  0  0  0
  1  5  1  0  0  0  0
  1  6  1  0  0  0  0
  2 11  1  0  0  0  0
  3 16  1  0  0  0  0
  3 10  2  0  0  0  0
  4  7  1  0  0  0  0
  4  8  1  6  0  0  0
  7  9  1  0  0  0  0
  8  1  2  0  0  0  0
  9  5  2  0  0  0  0
 11 10  1  0  0  0  0
 11  7  2  0  0  0  0
 12  2  2  0  0  0  0
 12 15  1  0  0  0  0
 13 14  2  0  0  0  0
 13  2  1  0  0  0  0
 14  3  1  0  0  0  0
 15  4  1  0  0  0  0
 16 17  2  0  0  0  0
 18 16  1  0  0  0  0
 19 22  1  6  0  0  0
 19 20  1  0  0  0  0
 19 21  1  0  0  0  0
 20 17  1  6  0  0  0
 20 21  1  0  0  0  0
 23 25  1  0  0  0  0
 23 22  1  0  0  0  0
 24 25  2  0  0  0  0
 26 27  1  6  0  0  0
 26 24  1  0  0  0  0
 26 29  1  0  0  0  0
 28 33  2  0  0  0  0
 29 28  2  0  0  0  0
 30 29  1  0  0  0  0
 30 34  1  0  0  0  0
 32 31  1  0  0  0  0
 33 31  1  0  0  0  0
 34 32  1  0  0  0  0
 35 13  1  0  0  0  0
 37 36  1  0  0  0  0
 37 43  1  0  0  0  0
 38 37  1  0  0  0  0
 39 43  1  6  0  0  0
 39 41  1  0  0  0  0
 40 36  1  6  0  0  0
 40 39  1  0  0  0  0
 40 41  1  0  0  0  0
 41 35  1  1  0  0  0
 42 37  1  0  0  0  0
M  END
>  <MODEL>
5

>  <REMARK>
 VINA RESULT:      -7.3      1.357      1.745
  Name = 
  9 active torsions:
  status: ('A' for Active; 'I' for Inactive)
    1  A    between atoms: O_1  and  C_34
    2  A    between atoms: O_1  and  C_35
    3  A    between atoms: C_2  and  C_13
    4  A    between atoms: C_3  and  N_4
    5  A    between atoms: N_4  and  C_15
    6  A    between atoms: C_6  and  C_12
    7  A    between atoms: C_10  and  C_22
    8  A    between atoms: C_14  and  C_22
    9  A    between atoms: C_15  and  C_42
                            x       y       z     vdW  Elec       q    Type
                         _______ _______ _______ _____ _____    ______ ____

>  <TORSDO>
F 9

$$$$
=
 OpenBabel11052421113D

 43 49  0  0  1  0  0  0  0  0999 V2000
  188.2560  175.9570  146.4030 C   0  0  0  0  0  0  0  0  0  0  0  0
  190.4980  173.8570  142.4060 C   0  0  0  0  0  0  0  0  0  0  0  0
  192.0050  171.7000  143.4220 C   0  0  0  0  0  0  0  0  0  0  0  0
  188.9940  175.4650  144.1220 C   0  0  1  0  0  3  0  0  0  0  0  0
  188.9410  174.9270  146.9140 C   0  0  0  0  0  3  0  0  0  0  0  0
  187.4490  176.8230  147.3030 C   0  0  0  0  0  1  0  0  0  0  0  0
  189.7650  174.3310  144.6490 C   0  0  0  0  0  0  0  0  0  0  0  0
  188.2830  176.2330  144.9510 C   0  0  0  0  0  3  0  0  0  0  0  0
  189.7220  174.0770  146.0610 N   0  0  0  0  0  0  0  0  0  0  0  0
  191.2380  172.5010  144.2820 C   0  0  0  0  0  3  0  0  0  0  0  0
  190.4860  173.5750  143.7990 C   0  0  0  0  0  0  0  0  0  0  0  0
  189.7930  174.8880  141.9130 C   0  0  0  0  0  3  0  0  0  0  0  0
  191.2610  173.0570  141.5370 C   0  0  0  0  0  0  0  0  0  0  0  0
  192.0060  171.9890  142.0530 C   0  0  0  0  0  3  0  0  0  0  0  0
  189.0290  175.7110  142.7510 O   0  0  0  0  0  0  0  0  0  0  0  0
  192.8090  170.5710  143.9460 C   0  0  0  0  0  0  0  0  0  0  0  0
  193.9050  170.8070  144.6760 C   0  0  0  0  0  3  0  0  0  0  0  0
  192.3910  169.1620  143.6470 C   0  0  0  0  0  1  0  0  0  0  0  0
  196.1390  170.2320  145.7700 C   0  0  2  0  0  3  0  0  0  0  0  0
  194.7910  169.7280  145.2380 C   0  0  1  0  0  3  0  0  0  0  0  0
  194.9920  169.9490  146.7280 C   0  0  0  0  0  2  0  0  0  0  0  0
  196.3010  171.6710  145.6090 N   0  0  0  0  0  2  0  0  0  0  0  0
  197.3500  171.8730  144.6210 C   0  0  0  0  0  2  0  0  0  0  0  0
  196.7910  174.2170  143.9740 C   0  0  0  0  0  3  0  0  0  0  0  0
  197.6530  173.3330  144.4940 C   0  0  0  0  0  3  0  0  0  0  0  0
  195.4270  173.8440  143.4660 C   0  0  2  0  0  3  0  0  0  0  0  0
  195.3490  174.1260  141.9690 C   0  0  0  0  0  1  0  0  0  0  0  0
  193.6450  175.4820  143.6960 C   0  0  0  0  0  0  0  0  0  0  0  0
  194.3410  174.5390  144.2480 C   0  0  0  0  0  0  0  0  0  0  0  0
  194.2290  174.4670  145.7610 C   0  0  0  0  0  2  0  0  0  0  0  0
  192.1160  176.9670  144.7370 C   0  0  0  0  0  2  0  0  0  0  0  0
  192.8340  176.6330  146.0720 C   0  0  0  0  0  2  0  0  0  0  0  0
  192.8410  176.4750  143.5140 C   0  0  0  0  0  3  0  0  0  0  0  0
  192.9470  175.1180  146.3490 C   0  0  0  0  0  2  0  0  0  0  0  0
  191.2720  173.3350  140.1640 O   0  0  0  0  0  0  0  0  0  0  0  0
  191.3930  172.1400  136.7770 O   0  0  0  0  0  0  0  0  0  0  0  0
  190.4590  171.1100  136.5680 C   0  0  0  0  0  0  0  0  0  0  0  0
  189.4840  171.5010  135.4670 C   0  0  0  0  0  1  0  0  0  0  0  0
  189.8650  172.1670  138.6190 C   0  0  2  0  0  3  0  0  0  0  0  0
  190.8980  172.9410  137.8270 C   0  0  1  0  0  3  0  0  0  0  0  0
  191.2730  172.3280  139.1630 C   0  0  1  0  0  3  0  0  0  0  0  0
  191.1830  169.8380  136.1690 C   0  0  0  0  0  1  0  0  0  0  0  0
  189.7170  170.8800  137.8600 C   0  0  0  0  0  2  0  0  0  0  0  0
  1  5  1  0  0  0  0
  1  6  1  0  0  0  0
  2 11  1  0  0  0  0
  3 16  1  0  0  0  0
  3 10  2  0  0  0  0
  4  7  1  0  0  0  0
  4  8  1  1  0  0  0
  7  9  1  0  0  0  0
  8  1  2  0  0  0  0
  9  5  2  0  0  0  0
 11 10  1  0  0  0  0
 11  7  2  0  0  0  0
 12  2  2  0  0  0  0
 12 15  1  0  0  0  0
 13 14  2  0  0  0  0
 13  2  1  0  0  0  0
 14  3  1  0  0  0  0
 15  4  1  0  0  0  0
 16 17  2  0  0  0  0
 18 16  1  0  0  0  0
 19 22  1  6  0  0  0
 19 21  1  0  0  0  0
 20 17  1  6  0  0  0
 20 19  1  0  0  0  0
 20 21  1  0  0  0  0
 23 22  1  0  0  0  0
 24 25  2  0  0  0  0
 25 23  1  0  0  0  0
 26 27  1  6  0  0  0
 26 24  1  0  0  0  0
 26 29  1  0  0  0  0
 28 29  2  0  0  0  0
 29 30  1  0  0  0  0
 30 34  1  0  0  0  0
 31 32  1  0  0  0  0
 32 34  1  0  0  0  0
 33 28  2  0  0  0  0
 33 31  1  0  0  0  0
 35 13  1  0  0  0  0
 37 36  1  0  0  0  0
 37 43  1  0  0  0  0
 38 37  1  0  0  0  0
 39 43  1  6  0  0  0
 39 41  1  0  0  0  0
 40 36  1  6  0  0  0
 40 39  1  0  0  0  0
 40 41  1  0  0  0  0
 41 35  1  1  0  0  0
 42 37  1  0  0  0  0
M  END
>  <MODEL>
6

>  <REMARK>
 VINA RESULT:      -7.2      2.084      2.931
  Name = 
  9 active torsions:
  status: ('A' for Active; 'I' for Inactive)
    1  A    between atoms: O_1  and  C_34
    2  A    between atoms: O_1  and  C_35
    3  A    between atoms: C_2  and  C_13
    4  A    between atoms: C_3  and  N_4
    5  A    between atoms: N_4  and  C_15
    6  A    between atoms: C_6  and  C_12
    7  A    between atoms: C_10  and  C_22
    8  A    between atoms: C_14  and  C_22
    9  A    between atoms: C_15  and  C_42
                            x       y       z     vdW  Elec       q    Type
                         _______ _______ _______ _____ _____    ______ ____

>  <TORSDO>
F 9

$$$$
=
 OpenBabel11052421113D

 43 49  0  0  1  0  0  0  0  0999 V2000
  195.9170  176.3460  143.2300 C   0  0  0  0  0  0  0  0  0  0  0  0
  191.1710  176.0590  144.9070 C   0  0  0  0  0  0  0  0  0  0  0  0
  189.5810  175.6090  142.6220 C   0  0  0  0  0  0  0  0  0  0  0  0
  193.9410  176.3220  144.6740 C   0  0  0  0  0  0  0  0  0  0  0  0
  195.1940  176.1090  142.1300 C   0  0  0  0  0  3  0  0  0  0  0  0
  197.3940  176.4870  143.1230 C   0  0  0  0  0  1  0  0  0  0  0  0
  193.1150  176.0700  143.4850 C   0  0  0  0  0  0  0  0  0  0  0  0
  195.2640  176.4540  144.5510 C   0  0  0  0  0  3  0  0  0  0  0  0
  193.7680  175.9640  142.2130 N   0  0  0  0  0  2  0  0  0  0  0  0
  190.9750  175.7290  142.5070 C   0  0  0  0  0  3  0  0  0  0  0  0
  191.7810  175.9530  143.6260 C   0  0  0  0  0  0  0  0  0  0  0  0
  191.9190  176.2850  146.0000 C   0  0  0  0  0  3  0  0  0  0  0  0
  189.7760  175.9380  145.0300 C   0  0  0  0  0  0  0  0  0  0  0  0
  188.9960  175.7150  143.8880 C   0  0  0  0  0  3  0  0  0  0  0  0
  193.3110  176.4200  145.9120 O   0  0  0  0  0  0  0  0  0  0  0  0
  188.7340  175.3830  141.4270 C   0  0  0  0  0  0  0  0  0  0  0  0
  189.1100  174.5010  140.4920 C   0  0  0  0  0  3  0  0  0  0  0  0
  187.4580  176.1530  141.2670 C   0  0  0  0  0  1  0  0  0  0  0  0
  189.1410  173.5590  138.1200 C   0  0  2  0  0  3  0  0  0  0  0  0
  188.3250  174.2150  139.2410 C   0  0  1  0  0  3  0  0  0  0  0  0
  188.2440  172.7150  139.0130 C   0  0  0  0  0  2  0  0  0  0  0  0
  190.5360  173.3540  138.4900 N   0  0  0  0  0  2  0  0  0  0  0  0
  191.0980  172.4170  137.5300 C   0  0  0  0  0  2  0  0  0  0  0  0
  191.9090  171.0180  139.4300 C   0  0  0  0  0  3  0  0  0  0  0  0
  191.3810  171.1100  138.2020 C   0  0  0  0  0  3  0  0  0  0  0  0
  192.2710  172.2120  140.2680 C   0  0  2  0  0  3  0  0  0  0  0  0
  193.7580  172.5100  140.1100 C   0  0  0  0  0  1  0  0  0  0  0  0
  190.6120  171.9130  142.0190 C   0  0  0  0  0  0  0  0  0  0  0  0
  191.8650  172.0160  141.7070 C   0  0  0  0  0  0  0  0  0  0  0  0
  192.7930  172.2870  142.8790 C   0  0  0  0  0  2  0  0  0  0  0  0
  189.6430  171.9250  144.1860 C   0  0  0  0  0  2  0  0  0  0  0  0
  190.9450  172.6170  144.6690 C   0  0  0  0  0  2  0  0  0  0  0  0
  189.5100  171.8550  142.6880 C   0  0  0  0  0  3  0  0  0  0  0  0
  192.2310  171.8650  144.2630 C   0  0  0  0  0  2  0  0  0  0  0  0
  189.1770  176.0420  146.2920 O   0  0  0  0  0  0  0  0  0  0  0  0
  186.4390  177.6090  148.0130 O   0  0  0  0  0  0  0  0  0  0  0  0
  185.8250  178.5840  147.2080 C   0  0  0  0  0  0  0  0  0  0  0  0
  184.3560  178.2470  147.0050 C   0  0  0  0  0  1  0  0  0  0  0  0
  187.1890  177.2670  145.7660 C   0  0  2  0  0  3  0  0  0  0  0  0
  187.0220  176.6630  147.1450 C   0  0  1  0  0  3  0  0  0  0  0  0
  188.3860  177.1500  146.6930 C   0  0  1  0  0  3  0  0  0  0  0  0
  185.9410  179.9420  147.8750 C   0  0  0  0  0  1  0  0  0  0  0  0
  186.5400  178.6150  145.8810 C   0  0  0  0  0  2  0  0  0  0  0  0
  1  8  1  0  0  0  0
  2 13  1  0  0  0  0
  2 12  2  0  0  0  0
  3 14  1  0  0  0  0
  4 15  1  0  0  0  0
  5  9  1  0  0  0  0
  5  1  2  0  0  0  0
  6  1  1  0  0  0  0
  7 11  2  0  0  0  0
  7  4  1  0  0  0  0
  8  4  2  0  0  0  0
  9  7  1  0  0  0  0
 10  3  2  0  0  0  0
 10 11  1  0  0  0  0
 11  2  1  0  0  0  0
 13 35  1  0  0  0  0
 14 13  2  0  0  0  0
 15 12  1  0  0  0  0
 16  3  1  0  0  0  0
 17 16  2  0  0  0  0
 18 16  1  0  0  0  0
 19 22  1  1  0  0  0
 19 21  1  0  0  0  0
 19 20  1  0  0  0  0
 20 17  1  1  0  0  0
 21 20  1  0  0  0  0
 23 25  1  0  0  0  0
 23 22  1  0  0  0  0
 24 26  1  0  0  0  0
 25 24  2  0  0  0  0
 26 27  1  1  0  0  0
 26 29  1  0  0  0  0
 28 33  2  0  0  0  0
 29 28  2  0  0  0  0
 29 30  1  0  0  0  0
 30 34  1  0  0  0  0
 31 32  1  0  0  0  0
 33 31  1  0  0  0  0
 34 32  1  0  0  0  0
 37 42  1  0  0  0  0
 37 36  1  0  0  0  0
 38 37  1  0  0  0  0
 39 43  1  1  0  0  0
 39 41  1  0  0  0  0
 39 40  1  0  0  0  0
 40 36  1  1  0  0  0
 41 35  1  6  0  0  0
 41 40  1  0  0  0  0
 43 37  1  0  0  0  0
M  END
>  <MODEL>
7

>  <REMARK>
 VINA RESULT:      -7.1      2.799      8.139
  Name = 
  9 active torsions:
  status: ('A' for Active; 'I' for Inactive)
    1  A    between atoms: O_1  and  C_34
    2  A    between atoms: O_1  and  C_35
    3  A    between atoms: C_2  and  C_13
    4  A    between atoms: C_3  and  N_4
    5  A    between atoms: N_4  and  C_15
    6  A    between atoms: C_6  and  C_12
    7  A    between atoms: C_10  and  C_22
    8  A    between atoms: C_14  and  C_22
    9  A    between atoms: C_15  and  C_42
                            x       y       z     vdW  Elec       q    Type
                         _______ _______ _______ _____ _____    ______ ____

>  <TORSDO>
F 9

$$$$
=
 OpenBabel11052421113D

 43 49  0  0  1  0  0  0  0  0999 V2000
  186.3600  177.9480  145.7900 C   0  0  0  0  0  0  0  0  0  0  0  0
  189.9700  174.5810  144.7660 C   0  0  0  0  0  0  0  0  0  0  0  0
  189.7880  174.0870  141.9950 C   0  0  0  0  0  0  0  0  0  0  0  0
  188.2250  176.3780  146.0010 C   0  0  0  0  0  0  0  0  0  0  0  0
  186.2630  177.7540  144.4700 C   0  0  0  0  0  3  0  0  0  0  0  0
  185.4390  178.9020  146.4630 C   0  0  0  0  0  1  0  0  0  0  0  0
  188.1420  176.1340  144.5540 C   0  0  0  0  0  0  0  0  0  0  0  0
  187.3820  177.2330  146.5830 C   0  0  0  0  0  3  0  0  0  0  0  0
  187.1460  176.8410  143.8010 N   0  0  0  0  0  2  0  0  0  0  0  0
  188.9200  175.0000  142.6140 C   0  0  0  0  0  3  0  0  0  0  0  0
  188.9920  175.2580  143.9860 C   0  0  0  0  0  0  0  0  0  0  0  0
  190.0570  174.8010  146.0880 C   0  0  0  0  0  3  0  0  0  0  0  0
  190.8450  173.6670  144.1520 C   0  0  0  0  0  0  0  0  0  0  0  0
  190.7450  173.4300  142.7750 C   0  0  0  0  0  3  0  0  0  0  0  0
  189.1950  175.6980  146.7330 O   0  0  0  0  0  0  0  0  0  0  0  0
  189.6950  173.8120  140.5420 C   0  0  0  0  0  0  0  0  0  0  0  0
  190.6460  173.0970  139.9300 C   0  0  0  0  0  3  0  0  0  0  0  0
  188.5320  174.3450  139.7600 C   0  0  0  0  0  1  0  0  0  0  0  0
  191.8380  171.9340  137.9950 C   0  0  2  0  0  3  0  0  0  0  0  0
  190.6450  172.7790  138.4590 C   0  0  1  0  0  3  0  0  0  0  0  0
  190.4900  171.2810  138.2550 C   0  0  0  0  0  2  0  0  0  0  0  0
  192.7550  171.6160  139.0830 N   0  0  0  0  0  2  0  0  0  0  0  0
  193.7320  172.6920  139.1430 C   0  0  0  0  0  2  0  0  0  0  0  0
  194.9710  173.5890  141.1140 C   0  0  0  0  0  3  0  0  0  0  0  0
  194.5720  172.5470  140.3740 C   0  0  0  0  0  3  0  0  0  0  0  0
  194.6170  175.0150  140.7970 C   0  0  2  0  0  3  0  0  0  0  0  0
  195.7650  175.6630  140.0300 C   0  0  0  0  0  1  0  0  0  0  0  0
  195.1110  175.9350  142.9920 C   0  0  0  0  0  0  0  0  0  0  0  0
  194.2440  175.7790  142.0430 C   0  0  0  0  0  0  0  0  0  0  0  0
  192.8080  176.0800  142.4360 C   0  0  0  0  0  2  0  0  0  0  0  0
  194.7450  176.7870  145.1770 C   0  0  0  0  0  2  0  0  0  0  0  0
  193.2470  176.4370  144.9680 C   0  0  0  0  0  2  0  0  0  0  0  0
  195.6580  176.2100  144.1290 C   0  0  0  0  0  3  0  0  0  0  0  0
  192.6540  177.0160  143.6650 C   0  0  0  0  0  2  0  0  0  0  0  0
  191.8080  173.0020  144.9220 O   0  0  0  0  0  0  0  0  0  0  0  0
  194.7870  171.1350  144.1780 O   0  0  0  0  0  0  0  0  0  0  0  0
  195.9250  171.7590  144.7180 C   0  0  0  0  0  0  0  0  0  0  0  0
  196.6320  170.8180  145.6820 C   0  0  0  0  0  1  0  0  0  0  0  0
  194.0350  172.7600  145.7660 C   0  0  2  0  0  3  0  0  0  0  0  0
  193.6890  171.5130  144.9780 C   0  0  1  0  0  3  0  0  0  0  0  0
  193.1650  172.8640  144.5270 C   0  0  1  0  0  3  0  0  0  0  0  0
  196.8770  172.1380  143.5990 C   0  0  0  0  0  1  0  0  0  0  0  0
  195.4790  173.0050  145.4410 C   0  0  0  0  0  2  0  0  0  0  0  0
  1  6  1  0  0  0  0
  1  8  1  0  0  0  0
  2 12  2  0  0  0  0
  3 10  2  0  0  0  0
  3 14  1  0  0  0  0
  4  8  2  0  0  0  0
  4 15  1  0  0  0  0
  5  1  2  0  0  0  0
  7  4  1  0  0  0  0
  9  5  1  0  0  0  0
  9  7  1  0  0  0  0
 10 11  1  0  0  0  0
 11  7  2  0  0  0  0
 11  2  1  0  0  0  0
 12 15  1  0  0  0  0
 13  2  1  0  0  0  0
 13 35  1  0  0  0  0
 14 13  2  0  0  0  0
 16  3  1  0  0  0  0
 17 16  2  0  0  0  0
 18 16  1  0  0  0  0
 19 21  1  0  0  0  0
 19 20  1  0  0  0  0
 19 22  1  1  0  0  0
 20 17  1  1  0  0  0
 21 20  1  0  0  0  0
 22 23  1  0  0  0  0
 23 25  1  0  0  0  0
 25 24  2  0  0  0  0
 26 27  1  1  0  0  0
 26 24  1  0  0  0  0
 26 29  1  0  0  0  0
 28 33  2  0  0  0  0
 29 30  1  0  0  0  0
 29 28  2  0  0  0  0
 30 34  1  0  0  0  0
 32 31  1  0  0  0  0
 33 31  1  0  0  0  0
 34 32  1  0  0  0  0
 36 37  1  0  0  0  0
 37 43  1  0  0  0  0
 37 38  1  0  0  0  0
 39 43  1  6  0  0  0
 40 36  1  6  0  0  0
 40 39  1  0  0  0  0
 41 35  1  1  0  0  0
 41 40  1  0  0  0  0
 41 39  1  0  0  0  0
 42 37  1  0  0  0  0
M  END
>  <MODEL>
8

>  <REMARK>
 VINA RESULT:      -7.0      2.513      5.330
  Name = 
  9 active torsions:
  status: ('A' for Active; 'I' for Inactive)
    1  A    between atoms: O_1  and  C_34
    2  A    between atoms: O_1  and  C_35
    3  A    between atoms: C_2  and  C_13
    4  A    between atoms: C_3  and  N_4
    5  A    between atoms: N_4  and  C_15
    6  A    between atoms: C_6  and  C_12
    7  A    between atoms: C_10  and  C_22
    8  A    between atoms: C_14  and  C_22
    9  A    between atoms: C_15  and  C_42
                            x       y       z     vdW  Elec       q    Type
                         _______ _______ _______ _____ _____    ______ ____

>  <TORSDO>
F 9

$$$$
=
 OpenBabel11052421113D

 43 49  0  0  1  0  0  0  0  0999 V2000
  190.1550  172.2640  138.7180 C   0  0  0  0  0  0  0  0  0  0  0  0
  189.5120  174.8460  143.0000 C   0  0  0  0  0  0  0  0  0  0  0  0
  192.0950  175.6410  143.8070 C   0  0  0  0  0  0  0  0  0  0  0  0
  189.1540  173.3550  140.6670 C   0  0  0  0  0  0  0  0  0  0  0  0
  191.3900  172.6460  139.0600 C   0  0  0  0  0  3  0  0  0  0  0  0
  189.9470  171.4710  137.4780 C   0  0  0  0  0  1  0  0  0  0  0  0
  190.4980  173.7850  141.0780 C   0  0  0  0  0  0  0  0  0  0  0  0
  188.9940  172.6360  139.5530 C   0  0  0  0  0  3  0  0  0  0  0  0
  191.6110  173.4170  140.2510 N   0  0  0  0  0  2  0  0  0  0  0  0
  191.9130  174.9020  142.6270 C   0  0  0  0  0  3  0  0  0  0  0  0
  190.6420  174.4980  142.2110 C   0  0  0  0  0  0  0  0  0  0  0  0
  188.2780  174.4630  142.6310 C   0  0  0  0  0  3  0  0  0  0  0  0
  189.6860  175.5880  144.1820 C   0  0  0  0  0  0  0  0  0  0  0  0
  190.9730  175.9770  144.5720 C   0  0  0  0  0  3  0  0  0  0  0  0
  188.0700  173.7140  141.4640 O   0  0  0  0  0  0  0  0  0  0  0  0
  193.4480  176.0550  144.2460 C   0  0  0  0  0  0  0  0  0  0  0  0
  194.5160  175.7740  143.4900 C   0  0  0  0  0  3  0  0  0  0  0  0
  193.6150  176.7840  145.5450 C   0  0  0  0  0  1  0  0  0  0  0  0
  196.7750  174.9640  144.3620 C   0  0  2  0  0  3  0  0  0  0  0  0
  195.9280  176.1410  143.8600 C   0  0  1  0  0  3  0  0  0  0  0  0
  196.9040  175.4450  142.9250 C   0  0  0  0  0  2  0  0  0  0  0  0
  196.0280  173.7130  144.3970 N   0  0  0  0  0  2  0  0  0  0  0  0
  196.1550  173.1790  145.7440 C   0  0  0  0  0  2  0  0  0  0  0  0
  196.5320  170.7180  145.9050 C   0  0  0  0  0  3  0  0  0  0  0  0
  197.0150  171.9540  145.7260 C   0  0  0  0  0  3  0  0  0  0  0  0
  195.0770  170.4230  146.1380 C   0  0  2  0  0  3  0  0  0  0  0  0
  194.9460  169.2140  147.0590 C   0  0  0  0  0  1  0  0  0  0  0  0
  193.3410  171.0220  144.5450 C   0  0  0  0  0  0  0  0  0  0  0  0
  194.3370  170.2460  144.8360 C   0  0  0  0  0  0  0  0  0  0  0  0
  194.4380  168.9930  143.9830 C   0  0  0  0  0  2  0  0  0  0  0  0
  191.7930  170.8010  142.7600 C   0  0  0  0  0  2  0  0  0  0  0  0
  192.2010  169.3050  142.7060 C   0  0  0  0  0  2  0  0  0  0  0  0
  192.2980  171.5270  143.9770 C   0  0  0  0  0  3  0  0  0  0  0  0
  193.7270  169.0850  142.6070 C   0  0  0  0  0  2  0  0  0  0  0  0
  188.5710  175.9320  144.9580 O   0  0  0  0  0  0  0  0  0  0  0  0
  186.4670  178.7040  145.8550 O   0  0  0  0  0  0  0  0  0  0  0  0
  185.3280  178.7630  145.0330 C   0  0  0  0  0  0  0  0  0  0  0  0
  184.0670  178.6670  145.8780 C   0  0  0  0  0  1  0  0  0  0  0  0
  186.2870  176.6050  144.7190 C   0  0  2  0  0  3  0  0  0  0  0  0
  186.8810  177.3560  145.8920 C   0  0  1  0  0  3  0  0  0  0  0  0
  187.7380  177.0470  144.6780 C   0  0  1  0  0  3  0  0  0  0  0  0
  185.3200  180.0730  144.2660 C   0  0  0  0  0  1  0  0  0  0  0  0
  185.3910  177.6130  144.0600 C   0  0  0  0  0  2  0  0  0  0  0  0
  1  5  2  0  0  0  0
  1  8  1  0  0  0  0
  2 13  1  0  0  0  0
  3 16  1  0  0  0  0
  3 14  1  0  0  0  0
  4  7  1  0  0  0  0
  4 15  1  0  0  0  0
  5  9  1  0  0  0  0
  6  1  1  0  0  0  0
  7 11  2  0  0  0  0
  8  4  2  0  0  0  0
  9  7  1  0  0  0  0
 10  3  2  0  0  0  0
 11 10  1  0  0  0  0
 11  2  1  0  0  0  0
 12  2  2  0  0  0  0
 13 14  2  0  0  0  0
 13 35  1  0  0  0  0
 15 12  1  0  0  0  0
 16 18  1  0  0  0  0
 17 16  2  0  0  0  0
 19 22  1  6  0  0  0
 20 17  1  6  0  0  0
 20 19  1  0  0  0  0
 21 20  1  0  0  0  0
 21 19  1  0  0  0  0
 22 23  1  0  0  0  0
 24 26  1  0  0  0  0
 25 23  1  0  0  0  0
 25 24  2  0  0  0  0
 26 27  1  1  0  0  0
 28 29  2  0  0  0  0
 29 26  1  0  0  0  0
 30 29  1  0  0  0  0
 31 33  1  0  0  0  0
 32 31  1  0  0  0  0
 33 28  2  0  0  0  0
 34 32  1  0  0  0  0
 34 30  1  0  0  0  0
 37 36  1  0  0  0  0
 37 38  1  0  0  0  0
 39 43  1  6  0  0  0
 39 40  1  0  0  0  0
 40 36  1  6  0  0  0
 41 39  1  0  0  0  0
 41 35  1  1  0  0  0
 41 40  1  0  0  0  0
 42 37  1  0  0  0  0
 43 37  1  0  0  0  0
M  END
>  <MODEL>
9

>  <REMARK>
 VINA RESULT:      -7.0      2.133      7.224
  Name = 
  9 active torsions:
  status: ('A' for Active; 'I' for Inactive)
    1  A    between atoms: O_1  and  C_34
    2  A    between atoms: O_1  and  C_35
    3  A    between atoms: C_2  and  C_13
    4  A    between atoms: C_3  and  N_4
    5  A    between atoms: N_4  and  C_15
    6  A    between atoms: C_6  and  C_12
    7  A    between atoms: C_10  and  C_22
    8  A    between atoms: C_14  and  C_22
    9  A    between atoms: C_15  and  C_42
                            x       y       z     vdW  Elec       q    Type
                         _______ _______ _______ _____ _____    ______ ____

>  <TORSDO>
F 9

$$$$
