=
 OpenBabel11052419513D

 55 60  0  0  1  0  0  0  0  0999 V2000
  189.7090  173.1470  141.5770 C   0  0  2  0  0  0  0  0  0  0  0  0
  189.6880  172.7490  143.0390 C   0  0  0  0  0  1  0  0  0  0  0  0
  188.0960  172.8840  139.7930 O   0  0  0  0  0  0  0  0  0  0  0  0
  188.3250  172.8620  141.0340 C   0  0  0  0  0  0  0  0  0  0  0  0
  187.2640  172.6600  141.9130 O   0  0  0  0  0  1  0  0  0  0  0  0
  190.7040  172.3710  140.9230 O   0  0  0  0  0  0  0  0  0  0  0  0
  191.9220  173.0780  140.8810 C   0  0  0  0  0  2  0  0  0  0  0  0
  193.0760  172.1060  140.7330 C   0  0  0  0  0  2  0  0  0  0  0  0
  192.9640  171.3640  139.4150 C   0  0  0  0  0  2  0  0  0  0  0  0
  194.3250  171.2660  138.7520 C   0  0  1  0  0  3  0  0  0  0  0  0
  194.6220  169.9310  138.5400 F   0  0  0  0  0  0  0  0  0  0  0  0
  194.2900  171.9400  137.5170 O   0  0  0  0  0  0  0  0  0  0  0  0
  194.7920  175.2940  138.9720 C   0  0  0  0  0  2  0  0  0  0  0  0
  195.4750  172.7010  137.3310 C   0  0  1  0  0  0  0  0  0  0  0  0
  192.8380  174.5390  137.6780 O   0  0  0  0  0  0  0  0  0  0  0  0
  194.3910  173.8350  135.4720 O   0  0  0  0  0  1  0  0  0  0  0  0
  195.0630  174.0510  136.6790 C   0  0  1  0  0  0  0  0  0  0  0  0
  196.9850  175.3630  137.7390 C   0  0  0  0  0  2  0  0  0  0  0  0
  193.2630  175.6900  137.1120 O   0  0  0  0  0  0  0  0  0  0  0  0
  196.2610  174.8460  138.9910 C   0  0  2  0  0  0  0  0  0  0  0  0
  194.1820  174.8280  137.6610 C   0  0  0  0  0  0  0  0  0  0  0  0
  196.3120  173.0060  138.9790 S   0  0  0  0  0  0  0  0  0  0  0  0
  196.3100  174.9100  136.4270 C   0  0  0  0  0  2  0  0  0  0  0  0
  197.7560  172.0790  136.6000 O   0  0  0  0  0  0  0  0  0  0  0  0
  196.3930  171.9910  136.4240 N   0  0  0  0  0  0  0  0  0  0  0  0
  195.9580  171.4690  135.3770 O   0  0  0  0  0  0  0  0  0  0  0  0
  196.9560  175.3790  140.2110 C   0  0  0  0  0  0  0  0  0  0  0  0
  197.9310  174.6200  140.8550 O   0  0  0  0  0  1  0  0  0  0  0  0
  196.6010  176.4810  140.7170 O   0  0  0  0  0  0  0  0  0  0  0  0
  190.0360  174.6480  141.4910 C   0  0  0  0  0  2  0  0  0  0  0  0
  189.3820  175.3850  142.4910 O   0  0  0  0  0  0  0  0  0  0  0  0
  190.1090  176.5740  142.6510 C   0  0  2  0  0  3  0  0  0  0  0  0
  191.0680  176.4910  143.8670 C   0  0  1  0  0  3  0  0  0  0  0  0
  193.3880  176.3430  144.9630 C   0  0  0  0  0  2  0  0  0  0  0  0
  193.3180  175.2630  143.9010 C   0  0  1  0  0  3  0  0  0  0  0  0
  192.6040  176.5890  143.6930 C   0  0  1  0  0  3  0  0  0  0  0  0
  194.6380  175.2660  143.1480 C   0  0  1  0  0  3  0  0  0  0  0  0
  195.6670  174.8620  144.0210 O   0  0  0  0  0  0  0  0  0  0  0  0
  195.2200  173.9030  143.0990 C   0  0  0  0  0  2  0  0  0  0  0  0
  190.5860  177.3200  145.0650 C   0  0  0  0  0  2  0  0  0  0  0  0
  187.8280  177.7350  146.0930 O   0  0  0  0  0  0  0  0  0  0  0  0
  189.1470  174.6540  147.3450 C   0  0  0  0  0  3  0  0  0  0  0  0
  189.8450  176.5210  146.0390 N   0  0  0  0  0  0  0  0  0  0  0  0
  190.2750  175.2070  146.4600 C   0  0  0  0  0  3  0  0  0  0  0  0
  187.9710  175.6300  147.2550 C   0  0  0  0  0  2  0  0  0  0  0  0
  188.5030  176.7260  146.4270 C   0  0  0  0  0  0  0  0  0  0  0  0
  189.1340  177.7470  142.8430 C   0  0  0  0  0  2  0  0  0  0  0  0
  188.7540  178.2650  141.6010 O   0  0  0  0  0  0  0  0  0  0  0  0
  187.3870  178.0070  141.5110 C   0  0  0  0  0  2  0  0  0  0  0  0
  186.7100  178.4650  142.7870 C   0  0  0  0  0  2  0  0  0  0  0  0
  185.7380  177.4380  143.2400 C   0  0  0  0  0  0  0  0  0  0  0  0
  185.9610  176.2240  143.0020 O   0  0  0  0  0  0  0  0  0  0  0  0
  184.5720  177.8420  143.8940 O   0  0  0  0  0  0  0  0  0  0  0  0
  184.5230  178.9980  144.7190 C   0  0  0  0  0  2  0  0  0  0  0  0
  184.2350  178.6020  146.1570 C   0  0  0  0  0  1  0  0  0  0  0  0
  1  2  1  1  0  0  0
  3  4  2  0  0  0  0
  4  1  1  0  0  0  0
  4  5  1  0  0  0  0
  6  1  1  0  0  0  0
  7  6  1  0  0  0  0
  8  7  1  0  0  0  0
  9  8  1  0  0  0  0
 10 11  1  6  0  0  0
 10  9  1  0  0  0  0
 12 10  1  0  0  0  0
 13 20  1  0  0  0  0
 14 12  1  1  0  0  0
 14 22  1  0  0  0  0
 17 16  1  6  0  0  0
 17 14  1  0  0  0  0
 17 21  1  0  0  0  0
 18 20  1  0  0  0  0
 19 21  1  0  0  0  0
 19 15  1  0  0  0  0
 20 27  1  1  0  0  0
 21 15  1  0  0  0  0
 21 13  1  0  0  0  0
 22 20  1  0  0  0  0
 23 17  1  0  0  0  0
 23 18  1  0  0  0  0
 25 24  2  0  0  0  0
 25 14  1  0  0  0  0
 26 25  2  0  0  0  0
 27 29  2  0  0  0  0
 27 28  1  0  0  0  0
 30  1  1  0  0  0  0
 30 31  1  0  0  0  0
 31 32  1  0  0  0  0
 32 47  1  1  0  0  0
 32 33  1  0  0  0  0
 33 40  1  1  0  0  0
 35 34  1  1  0  0  0
 36 33  1  1  0  0  0
 36 35  1  0  0  0  0
 36 34  1  0  0  0  0
 37 39  1  6  0  0  0
 37 35  1  0  0  0  0
 37 38  1  0  0  0  0
 39 38  1  0  0  0  0
 40 43  1  0  0  0  0
 41 46  2  0  0  0  0
 43 46  1  0  0  0  0
 43 44  1  0  0  0  0
 44 42  2  0  0  0  0
 45 42  1  0  0  0  0
 46 45  1  0  0  0  0
 48 47  1  0  0  0  0
 49 48  1  0  0  0  0
 49 50  1  0  0  0  0
 50 51  1  0  0  0  0
 51 53  1  0  0  0  0
 52 51  2  0  0  0  0
 53 54  1  0  0  0  0
 54 55  1  0  0  0  0
M  END
>  <MODEL>
1

>  <REMARK>
 VINA RESULT:      -5.3      0.000      0.000
  Name = 
  25 active torsions:
  status: ('A' for Active; 'I' for Inactive)
    1  A    between atoms: C_1  and  C_29
    2  A    between atoms: C_2  and  O_28
    3  A    between atoms: C_2  and  C_31
    4  A    between atoms: C_4  and  C_40
    5  A    between atoms: C_6  and  N_20
    6  A    between atoms: C_6  and  O_22
    7  A    between atoms: C_8  and  O_22
    8  A    between atoms: C_8  and  C_35
    9  A    between atoms: C_10  and  O_32
   10  A    between atoms: C_13  and  C_48
   11  A    between atoms: C_13  and  O_52
   12  A    between atoms: N_16  and  C_36
   13  A    between atoms: O_27  and  C_31
   14  A    between atoms: O_27  and  C_54
   15  A    between atoms: O_28  and  C_33
   16  A    between atoms: C_31  and  C_41
   17  A    between atoms: O_32  and  C_39
   18  A    between atoms: C_33  and  C_34
   19  A    between atoms: C_33  and  C_49
   20  A    between atoms: C_34  and  O_52
   21  A    between atoms: C_35  and  C_51
   22  A    between atoms: C_36  and  C_49
   23  A    between atoms: C_39  and  C_48
   24  A    between atoms: C_45  and  C_49
   25  A    between atoms: C_51  and  C_54
                            x       y       z     vdW  Elec       q    Type
                         _______ _______ _______ _____ _____    ______ ____

>  <TORSDO>
F 25

$$$$
=
 OpenBabel11052419513D

 55 60  0  0  1  0  0  0  0  0999 V2000
  191.4460  172.5730  143.1210 C   0  0  2  0  0  0  0  0  0  0  0  0
  192.5060  171.9050  143.9740 C   0  0  0  0  0  1  0  0  0  0  0  0
  189.3060  171.7850  143.9310 O   0  0  0  0  0  1  0  0  0  0  0  0
  190.2530  171.6410  143.1100 C   0  0  0  0  0  0  0  0  0  0  0  0
  190.2330  170.5510  142.2420 O   0  0  0  0  0  0  0  0  0  0  0  0
  191.9820  172.7620  141.8190 O   0  0  0  0  0  0  0  0  0  0  0  0
  193.3620  172.4750  141.8160 C   0  0  0  0  0  2  0  0  0  0  0  0
  193.9900  172.9840  140.5330 C   0  0  0  0  0  2  0  0  0  0  0  0
  193.1440  174.0980  139.9470 C   0  0  0  0  0  2  0  0  0  0  0  0
  193.2560  174.1010  138.4350 C   0  0  1  0  0  3  0  0  0  0  0  0
  194.5130  174.5580  138.0810 F   0  0  0  0  0  0  0  0  0  0  0  0
  193.0810  172.7890  137.9530 O   0  0  0  0  0  0  0  0  0  0  0  0
  189.4000  172.9540  137.7550 C   0  0  0  0  0  2  0  0  0  0  0  0
  192.3670  172.8000  136.7260 C   0  0  1  0  0  0  0  0  0  0  0  0
  190.7220  171.3970  139.1300 O   0  0  0  0  0  0  0  0  0  0  0  0
  192.0970  170.3910  136.9230 O   0  0  0  0  0  1  0  0  0  0  0  0
  191.3950  171.5860  136.7430 C   0  0  1  0  0  0  0  0  0  0  0  0
  189.6490  172.7250  135.2620 C   0  0  0  0  0  2  0  0  0  0  0  0
  189.8440  170.6500  138.4260 O   0  0  0  0  0  0  0  0  0  0  0  0
  189.7040  173.6990  136.4480 C   0  0  2  0  0  0  0  0  0  0  0  0
  190.3680  171.7880  137.8600 C   0  0  0  0  0  0  0  0  0  0  0  0
  191.4030  174.3970  136.5530 S   0  0  0  0  0  0  0  0  0  0  0  0
  190.6100  171.5280  135.4240 C   0  0  0  0  0  2  0  0  0  0  0  0
  194.4140  171.8490  135.7120 O   0  0  0  0  0  0  0  0  0  0  0  0
  193.3000  172.6500  135.5960 N   0  0  0  0  0  0  0  0  0  0  0  0
  193.2010  173.3960  134.6000 O   0  0  0  0  0  0  0  0  0  0  0  0
  188.7020  174.7960  136.2240 C   0  0  0  0  0  0  0  0  0  0  0  0
  188.8130  175.6370  135.1190 O   0  0  0  0  0  0  0  0  0  0  0  0
  187.8030  175.0230  137.0820 O   0  0  0  0  0  1  0  0  0  0  0  0
  191.0840  173.9200  143.7700 C   0  0  0  0  0  2  0  0  0  0  0  0
  191.3150  173.9150  145.1550 O   0  0  0  0  0  0  0  0  0  0  0  0
  190.9280  175.1760  145.6300 C   0  0  2  0  0  3  0  0  0  0  0  0
  191.5560  176.3150  144.7850 C   0  0  1  0  0  3  0  0  0  0  0  0
  191.2990  178.2500  143.1130 C   0  0  0  0  0  2  0  0  0  0  0  0
  190.1140  177.3240  142.9210 C   0  0  1  0  0  3  0  0  0  0  0  0
  190.7140  177.5230  144.3030 C   0  0  1  0  0  3  0  0  0  0  0  0
  188.8710  178.1850  142.7710 C   0  0  1  0  0  3  0  0  0  0  0  0
  188.4360  178.1350  141.4330 O   0  0  0  0  0  0  0  0  0  0  0  0
  187.7090  177.3650  142.3530 C   0  0  0  0  0  2  0  0  0  0  0  0
  192.9270  176.7620  145.3130 C   0  0  0  0  0  2  0  0  0  0  0  0
  193.9990  176.0580  142.6320 O   0  0  0  0  0  0  0  0  0  0  0  0
  195.9490  174.4770  145.1810 C   0  0  0  0  0  3  0  0  0  0  0  0
  193.9920  175.8210  144.9750 N   0  0  0  0  0  0  0  0  0  0  0  0
  194.8930  175.2720  145.9630 C   0  0  0  0  0  3  0  0  0  0  0  0
  195.7240  174.7530  143.6920 C   0  0  0  0  0  2  0  0  0  0  0  0
  194.5120  175.5900  143.6830 C   0  0  0  0  0  0  0  0  0  0  0  0
  191.3590  175.3240  147.0980 C   0  0  0  0  0  2  0  0  0  0  0  0
  190.6080  176.3250  147.7210 O   0  0  0  0  0  0  0  0  0  0  0  0
  189.3210  176.1780  147.2050 C   0  0  0  0  0  2  0  0  0  0  0  0
  188.6370  177.5300  147.1870 C   0  0  0  0  0  2  0  0  0  0  0  0
  187.3330  177.4260  146.4850 C   0  0  0  0  0  0  0  0  0  0  0  0
  187.1260  176.4710  145.6940 O   0  0  0  0  0  0  0  0  0  0  0  0
  186.3670  178.4150  146.6880 O   0  0  0  0  0  0  0  0  0  0  0  0
  185.5920  178.9520  145.6250 C   0  0  0  0  0  2  0  0  0  0  0  0
  184.1290  178.5900  145.8090 C   0  0  0  0  0  1  0  0  0  0  0  0
  1 30  1  0  0  0  0
  1  2  1  1  0  0  0
  4  1  1  0  0  0  0
  4  3  1  0  0  0  0
  5  4  2  0  0  0  0
  6  1  1  0  0  0  0
  7  6  1  0  0  0  0
  8  7  1  0  0  0  0
  9  8  1  0  0  0  0
 10 11  1  1  0  0  0
 10  9  1  0  0  0  0
 12 10  1  0  0  0  0
 13 21  1  0  0  0  0
 14 17  1  0  0  0  0
 14 12  1  1  0  0  0
 17 16  1  1  0  0  0
 17 21  1  0  0  0  0
 18 23  1  0  0  0  0
 18 20  1  0  0  0  0
 19 15  1  0  0  0  0
 20 27  1  6  0  0  0
 20 22  1  0  0  0  0
 20 13  1  0  0  0  0
 21 19  1  0  0  0  0
 21 15  1  0  0  0  0
 22 14  1  0  0  0  0
 23 17  1  0  0  0  0
 25 24  2  0  0  0  0
 25 14  1  0  0  0  0
 26 25  2  0  0  0  0
 27 29  1  0  0  0  0
 28 27  2  0  0  0  0
 30 31  1  0  0  0  0
 31 32  1  0  0  0  0
 32 47  1  1  0  0  0
 33 40  1  1  0  0  0
 33 32  1  0  0  0  0
 34 36  1  0  0  0  0
 35 34  1  6  0  0  0
 35 36  1  0  0  0  0
 36 33  1  6  0  0  0
 37 39  1  1  0  0  0
 37 35  1  0  0  0  0
 38 39  1  0  0  0  0
 38 37  1  0  0  0  0
 41 46  2  0  0  0  0
 42 44  2  0  0  0  0
 43 40  1  0  0  0  0
 43 44  1  0  0  0  0
 45 42  1  0  0  0  0
 46 45  1  0  0  0  0
 46 43  1  0  0  0  0
 47 48  1  0  0  0  0
 49 48  1  0  0  0  0
 50 49  1  0  0  0  0
 51 53  1  0  0  0  0
 51 50  1  0  0  0  0
 52 51  2  0  0  0  0
 54 55  1  0  0  0  0
 54 53  1  0  0  0  0
M  END
>  <MODEL>
2

>  <REMARK>
 VINA RESULT:      -4.9      2.689      5.186
  Name = 
  25 active torsions:
  status: ('A' for Active; 'I' for Inactive)
    1  A    between atoms: C_1  and  C_29
    2  A    between atoms: C_2  and  O_28
    3  A    between atoms: C_2  and  C_31
    4  A    between atoms: C_4  and  C_40
    5  A    between atoms: C_6  and  N_20
    6  A    between atoms: C_6  and  O_22
    7  A    between atoms: C_8  and  O_22
    8  A    between atoms: C_8  and  C_35
    9  A    between atoms: C_10  and  O_32
   10  A    between atoms: C_13  and  C_48
   11  A    between atoms: C_13  and  O_52
   12  A    between atoms: N_16  and  C_36
   13  A    between atoms: O_27  and  C_31
   14  A    between atoms: O_27  and  C_54
   15  A    between atoms: O_28  and  C_33
   16  A    between atoms: C_31  and  C_41
   17  A    between atoms: O_32  and  C_39
   18  A    between atoms: C_33  and  C_34
   19  A    between atoms: C_33  and  C_49
   20  A    between atoms: C_34  and  O_52
   21  A    between atoms: C_35  and  C_51
   22  A    between atoms: C_36  and  C_49
   23  A    between atoms: C_39  and  C_48
   24  A    between atoms: C_45  and  C_49
   25  A    between atoms: C_51  and  C_54
                            x       y       z     vdW  Elec       q    Type
                         _______ _______ _______ _____ _____    ______ ____

>  <TORSDO>
F 25

$$$$
=
 OpenBabel11052419513D

 55 60  0  0  1  0  0  0  0  0999 V2000
  191.7580  171.8450  143.2280 C   0  0  2  0  0  0  0  0  0  0  0  0
  192.5630  170.6970  143.8020 C   0  0  0  0  0  1  0  0  0  0  0  0
  189.4400  171.8690  142.5370 O   0  0  0  0  0  1  0  0  0  0  0  0
  190.5270  171.2330  142.5940 C   0  0  0  0  0  0  0  0  0  0  0  0
  190.5630  169.9150  142.1420 O   0  0  0  0  0  0  0  0  0  0  0  0
  192.5670  172.5170  142.2730 O   0  0  0  0  0  0  0  0  0  0  0  0
  193.7690  171.8090  142.0710 C   0  0  0  0  0  2  0  0  0  0  0  0
  194.3930  172.2220  140.7520 C   0  0  0  0  0  2  0  0  0  0  0  0
  193.8840  173.5910  140.3430 C   0  0  0  0  0  2  0  0  0  0  0  0
  193.8170  173.6950  138.8310 C   0  0  1  0  0  3  0  0  0  0  0  0
  195.0260  174.1800  138.3630 F   0  0  0  0  0  0  0  0  0  0  0  0
  193.5820  172.4180  138.2870 O   0  0  0  0  0  0  0  0  0  0  0  0
  190.1450  171.2450  138.9420 C   0  0  0  0  0  2  0  0  0  0  0  0
  192.5430  172.4720  137.3210 C   0  0  1  0  0  0  0  0  0  0  0  0
  192.2230  170.0000  139.3800 O   0  0  0  0  0  0  0  0  0  0  0  0
  193.0530  170.1700  136.7230 O   0  0  0  0  0  1  0  0  0  0  0  0
  192.0180  171.0210  137.1220 C   0  0  1  0  0  0  0  0  0  0  0  0
  189.6430  171.7630  136.5310 C   0  0  0  0  0  2  0  0  0  0  0  0
  191.4200  169.1830  138.6630 O   0  0  0  0  0  0  0  0  0  0  0  0
  189.7910  172.3550  137.9410 C   0  0  2  0  0  0  0  0  0  0  0  0
  191.3880  170.5370  138.4300 C   0  0  0  0  0  0  0  0  0  0  0  0
  191.1600  173.5840  137.9200 S   0  0  0  0  0  0  0  0  0  0  0  0
  190.9070  171.0100  136.0620 C   0  0  0  0  0  2  0  0  0  0  0  0
  192.3170  173.8130  135.2530 O   0  0  0  0  0  0  0  0  0  0  0  0
  193.0710  172.9700  136.0390 N   0  0  0  0  0  0  0  0  0  0  0  0
  194.1150  172.4820  135.5610 O   0  0  0  0  0  0  0  0  0  0  0  0
  188.4990  173.0180  138.3280 C   0  0  0  0  0  0  0  0  0  0  0  0
  188.0580  174.1500  137.6470 O   0  0  0  0  0  0  0  0  0  0  0  0
  187.8490  172.6100  139.3310 O   0  0  0  0  0  1  0  0  0  0  0  0
  191.3710  172.7850  144.3830 C   0  0  0  0  0  2  0  0  0  0  0  0
  192.4940  173.4040  144.9540 O   0  0  0  0  0  0  0  0  0  0  0  0
  192.2540  174.7860  144.9090 C   0  0  2  0  0  3  0  0  0  0  0  0
  193.3370  175.5200  144.0770 C   0  0  1  0  0  3  0  0  0  0  0  0
  195.8770  175.9100  144.0000 C   0  0  0  0  0  2  0  0  0  0  0  0
  195.6020  174.9340  145.1260 C   0  0  1  0  0  3  0  0  0  0  0  0
  194.7470  174.9130  143.8690 C   0  0  1  0  0  3  0  0  0  0  0  0
  196.6490  173.8360  145.0550 C   0  0  1  0  0  3  0  0  0  0  0  0
  197.1850  173.6270  146.3410 O   0  0  0  0  0  0  0  0  0  0  0  0
  196.2560  172.6770  145.8920 C   0  0  0  0  0  2  0  0  0  0  0  0
  192.7860  176.1150  142.7730 C   0  0  0  0  0  2  0  0  0  0  0  0
  191.4330  178.6030  143.6720 O   0  0  0  0  0  0  0  0  0  0  0  0
  189.0190  176.2960  142.3860 C   0  0  0  0  0  3  0  0  0  0  0  0
  191.3550  176.3990  142.8470 N   0  0  0  0  0  0  0  0  0  0  0  0
  190.3580  175.5640  142.2140 C   0  0  0  0  0  3  0  0  0  0  0  0
  189.3210  177.6770  142.9750 C   0  0  0  0  0  2  0  0  0  0  0  0
  190.7750  177.6350  143.2080 C   0  0  0  0  0  0  0  0  0  0  0  0
  192.2340  175.3480  146.3400 C   0  0  0  0  0  2  0  0  0  0  0  0
  191.1300  176.1880  146.5110 O   0  0  0  0  0  0  0  0  0  0  0  0
  190.1090  175.3490  146.9560 C   0  0  0  0  0  2  0  0  0  0  0  0
  188.9490  175.4230  145.9850 C   0  0  0  0  0  2  0  0  0  0  0  0
  187.9290  176.3790  146.4870 C   0  0  0  0  0  0  0  0  0  0  0  0
  187.2670  176.0960  147.5170 O   0  0  0  0  0  0  0  0  0  0  0  0
  187.6980  177.5630  145.7840 O   0  0  0  0  0  0  0  0  0  0  0  0
  186.3900  178.0070  145.4500 C   0  0  0  0  0  2  0  0  0  0  0  0
  185.8270  177.1680  144.3170 C   0  0  0  0  0  1  0  0  0  0  0  0
  1  2  1  1  0  0  0
  1 30  1  0  0  0  0
  3  4  1  0  0  0  0
  4  1  1  0  0  0  0
  5  4  2  0  0  0  0
  6  1  1  0  0  0  0
  7  6  1  0  0  0  0
  8  7  1  0  0  0  0
  9  8  1  0  0  0  0
 10 11  1  6  0  0  0
 10  9  1  0  0  0  0
 12 10  1  0  0  0  0
 14 22  1  0  0  0  0
 14 12  1  1  0  0  0
 17 16  1  6  0  0  0
 17 14  1  0  0  0  0
 17 21  1  0  0  0  0
 18 20  1  0  0  0  0
 19 15  1  0  0  0  0
 20 27  1  1  0  0  0
 20 13  1  0  0  0  0
 21 19  1  0  0  0  0
 21 13  1  0  0  0  0
 21 15  1  0  0  0  0
 22 20  1  0  0  0  0
 23 18  1  0  0  0  0
 23 17  1  0  0  0  0
 24 25  2  0  0  0  0
 25 14  1  0  0  0  0
 26 25  2  0  0  0  0
 27 29  1  0  0  0  0
 28 27  2  0  0  0  0
 30 31  1  0  0  0  0
 32 31  1  0  0  0  0
 32 47  1  1  0  0  0
 33 40  1  6  0  0  0
 33 32  1  0  0  0  0
 35 34  1  6  0  0  0
 36 34  1  0  0  0  0
 36 33  1  1  0  0  0
 36 35  1  0  0  0  0
 37 35  1  0  0  0  0
 37 39  1  1  0  0  0
 37 38  1  0  0  0  0
 39 38  1  0  0  0  0
 40 43  1  0  0  0  0
 42 45  1  0  0  0  0
 43 46  1  0  0  0  0
 44 42  2  0  0  0  0
 44 43  1  0  0  0  0
 45 46  1  0  0  0  0
 46 41  2  0  0  0  0
 47 48  1  0  0  0  0
 48 49  1  0  0  0  0
 50 51  1  0  0  0  0
 50 49  1  0  0  0  0
 51 52  2  0  0  0  0
 53 51  1  0  0  0  0
 54 53  1  0  0  0  0
 55 54  1  0  0  0  0
M  END
>  <MODEL>
3

>  <REMARK>
 VINA RESULT:      -4.9      2.610      4.746
  Name = 
  25 active torsions:
  status: ('A' for Active; 'I' for Inactive)
    1  A    between atoms: C_1  and  C_29
    2  A    between atoms: C_2  and  O_28
    3  A    between atoms: C_2  and  C_31
    4  A    between atoms: C_4  and  C_40
    5  A    between atoms: C_6  and  N_20
    6  A    between atoms: C_6  and  O_22
    7  A    between atoms: C_8  and  O_22
    8  A    between atoms: C_8  and  C_35
    9  A    between atoms: C_10  and  O_32
   10  A    between atoms: C_13  and  C_48
   11  A    between atoms: C_13  and  O_52
   12  A    between atoms: N_16  and  C_36
   13  A    between atoms: O_27  and  C_31
   14  A    between atoms: O_27  and  C_54
   15  A    between atoms: O_28  and  C_33
   16  A    between atoms: C_31  and  C_41
   17  A    between atoms: O_32  and  C_39
   18  A    between atoms: C_33  and  C_34
   19  A    between atoms: C_33  and  C_49
   20  A    between atoms: C_34  and  O_52
   21  A    between atoms: C_35  and  C_51
   22  A    between atoms: C_36  and  C_49
   23  A    between atoms: C_39  and  C_48
   24  A    between atoms: C_45  and  C_49
   25  A    between atoms: C_51  and  C_54
                            x       y       z     vdW  Elec       q    Type
                         _______ _______ _______ _____ _____    ______ ____

>  <TORSDO>
F 25

$$$$
=
 OpenBabel11052419513D

 55 60  0  0  1  0  0  0  0  0999 V2000
  190.9510  173.0280  142.2320 C   0  0  2  0  0  0  0  0  0  0  0  0
  191.6450  172.0490  143.1570 C   0  0  0  0  0  1  0  0  0  0  0  0
  189.0640  174.3460  142.9780 O   0  0  0  0  0  0  0  0  0  0  0  0
  189.5440  173.1990  142.7650 C   0  0  0  0  0  0  0  0  0  0  0  0
  188.7930  172.0780  143.1100 O   0  0  0  0  0  1  0  0  0  0  0  0
  190.9590  172.4790  140.9220 O   0  0  0  0  0  0  0  0  0  0  0  0
  190.0630  173.1850  140.0940 C   0  0  0  0  0  2  0  0  0  0  0  0
  190.6410  173.3040  138.6970 C   0  0  0  0  0  2  0  0  0  0  0  0
  190.6150  171.9550  138.0060 C   0  0  0  0  0  2  0  0  0  0  0  0
  192.0120  171.3700  137.9440 C   0  0  1  0  0  3  0  0  0  0  0  0
  191.9150  170.0040  137.7410 F   0  0  0  0  0  0  0  0  0  0  0  0
  192.7140  171.9540  136.8730 O   0  0  0  0  0  0  0  0  0  0  0  0
  193.8560  175.1820  138.2520 C   0  0  0  0  0  2  0  0  0  0  0  0
  194.0610  172.2110  137.2420 C   0  0  1  0  0  0  0  0  0  0  0  0
  192.5090  174.8550  136.2170 O   0  0  0  0  0  0  0  0  0  0  0  0
  194.4190  173.1950  135.0460 O   0  0  0  0  0  1  0  0  0  0  0  0
  194.5430  173.4390  136.4170 C   0  0  1  0  0  0  0  0  0  0  0  0
  196.1860  174.2330  138.2090 C   0  0  0  0  0  2  0  0  0  0  0  0
  193.5540  175.6380  135.8730 O   0  0  0  0  0  0  0  0  0  0  0  0
  194.8610  174.2840  138.9860 C   0  0  2  0  0  0  0  0  0  0  0  0
  193.7250  174.6650  136.8290 C   0  0  0  0  0  0  0  0  0  0  0  0
  194.1700  172.5810  139.0750 S   0  0  0  0  0  0  0  0  0  0  0  0
  196.0090  173.7500  136.7530 C   0  0  0  0  0  2  0  0  0  0  0  0
  195.9780  170.7170  137.7080 O   0  0  0  0  0  0  0  0  0  0  0  0
  194.9060  171.0510  136.9110 N   0  0  0  0  0  0  0  0  0  0  0  0
  194.7810  170.4810  135.8080 O   0  0  0  0  0  0  0  0  0  0  0  0
  195.1270  174.8130  140.3670 C   0  0  0  0  0  0  0  0  0  0  0  0
  195.2950  173.9360  141.4360 O   0  0  0  0  0  1  0  0  0  0  0  0
  195.1110  176.0570  140.5870 O   0  0  0  0  0  0  0  0  0  0  0  0
  191.7210  174.3600  142.2770 C   0  0  0  0  0  2  0  0  0  0  0  0
  192.4820  174.4870  143.4490 O   0  0  0  0  0  0  0  0  0  0  0  0
  192.9780  175.8000  143.4630 C   0  0  2  0  0  3  0  0  0  0  0  0
  193.1500  176.3230  144.9130 C   0  0  1  0  0  3  0  0  0  0  0  0
  192.4640  176.3960  147.3890 C   0  0  0  0  0  2  0  0  0  0  0  0
  191.2070  176.1540  146.5770 C   0  0  1  0  0  3  0  0  0  0  0  0
  192.5360  175.5730  146.1210 C   0  0  1  0  0  3  0  0  0  0  0  0
  190.3950  175.0840  147.2860 C   0  0  1  0  0  3  0  0  0  0  0  0
  189.0400  175.4690  147.3010 O   0  0  0  0  0  0  0  0  0  0  0  0
  189.3970  174.4840  146.3680 C   0  0  0  0  0  2  0  0  0  0  0  0
  194.5810  176.7910  145.2120 C   0  0  0  0  0  2  0  0  0  0  0  0
  196.7150  176.9660  143.1510 O   0  0  0  0  0  0  0  0  0  0  0  0
  197.0780  173.9440  145.0310 C   0  0  0  0  0  3  0  0  0  0  0  0
  195.5850  175.7930  144.8510 N   0  0  0  0  0  0  0  0  0  0  0  0
  195.8590  174.6310  145.6660 C   0  0  0  0  0  3  0  0  0  0  0  0
  197.6070  174.8690  143.9310 C   0  0  0  0  0  2  0  0  0  0  0  0
  196.6270  175.9690  143.9140 C   0  0  0  0  0  0  0  0  0  0  0  0
  192.0150  176.7180  142.6940 C   0  0  0  0  0  2  0  0  0  0  0  0
  191.4840  177.6860  143.5520 O   0  0  0  0  0  0  0  0  0  0  0  0
  190.1600  177.8370  143.1430 C   0  0  0  0  0  2  0  0  0  0  0  0
  189.2560  177.7680  144.3570 C   0  0  0  0  0  2  0  0  0  0  0  0
  187.8520  177.5390  143.9290 C   0  0  0  0  0  0  0  0  0  0  0  0
  187.3590  178.2430  143.0120 O   0  0  0  0  0  0  0  0  0  0  0  0
  187.0900  176.5660  144.5790 O   0  0  0  0  0  0  0  0  0  0  0  0
  185.8550  176.8660  145.2160 C   0  0  0  0  0  2  0  0  0  0  0  0
  186.0960  177.2630  146.6610 C   0  0  0  0  0  1  0  0  0  0  0  0
  1 30  1  0  0  0  0
  1  4  1  0  0  0  0
  1  2  1  1  0  0  0
  4  3  2  0  0  0  0
  4  5  1  0  0  0  0
  6  1  1  0  0  0  0
  7  6  1  0  0  0  0
  8  7  1  0  0  0  0
  9  8  1  0  0  0  0
 10 11  1  6  0  0  0
 10  9  1  0  0  0  0
 12 10  1  0  0  0  0
 13 20  1  0  0  0  0
 14 12  1  6  0  0  0
 14 22  1  0  0  0  0
 15 21  1  0  0  0  0
 17 16  1  6  0  0  0
 17 23  1  0  0  0  0
 17 21  1  0  0  0  0
 17 14  1  0  0  0  0
 18 20  1  0  0  0  0
 19 15  1  0  0  0  0
 19 21  1  0  0  0  0
 20 22  1  0  0  0  0
 20 27  1  1  0  0  0
 21 13  1  0  0  0  0
 23 18  1  0  0  0  0
 25 14  1  0  0  0  0
 25 24  2  0  0  0  0
 26 25  2  0  0  0  0
 27 29  2  0  0  0  0
 27 28  1  0  0  0  0
 30 31  1  0  0  0  0
 31 32  1  0  0  0  0
 32 47  1  6  0  0  0
 32 33  1  0  0  0  0
 33 40  1  1  0  0  0
 35 37  1  0  0  0  0
 35 34  1  1  0  0  0
 36 33  1  6  0  0  0
 36 35  1  0  0  0  0
 36 34  1  0  0  0  0
 37 39  1  6  0  0  0
 37 38  1  0  0  0  0
 39 38  1  0  0  0  0
 41 46  2  0  0  0  0
 42 44  2  0  0  0  0
 43 40  1  0  0  0  0
 43 44  1  0  0  0  0
 45 42  1  0  0  0  0
 46 45  1  0  0  0  0
 46 43  1  0  0  0  0
 47 48  1  0  0  0  0
 49 48  1  0  0  0  0
 49 50  1  0  0  0  0
 51 50  1  0  0  0  0
 51 53  1  0  0  0  0
 52 51  2  0  0  0  0
 53 54  1  0  0  0  0
 54 55  1  0  0  0  0
M  END
>  <MODEL>
4

>  <REMARK>
 VINA RESULT:      -4.9      2.017      3.805
  Name = 
  25 active torsions:
  status: ('A' for Active; 'I' for Inactive)
    1  A    between atoms: C_1  and  C_29
    2  A    between atoms: C_2  and  O_28
    3  A    between atoms: C_2  and  C_31
    4  A    between atoms: C_4  and  C_40
    5  A    between atoms: C_6  and  N_20
    6  A    between atoms: C_6  and  O_22
    7  A    between atoms: C_8  and  O_22
    8  A    between atoms: C_8  and  C_35
    9  A    between atoms: C_10  and  O_32
   10  A    between atoms: C_13  and  C_48
   11  A    between atoms: C_13  and  O_52
   12  A    between atoms: N_16  and  C_36
   13  A    between atoms: O_27  and  C_31
   14  A    between atoms: O_27  and  C_54
   15  A    between atoms: O_28  and  C_33
   16  A    between atoms: C_31  and  C_41
   17  A    between atoms: O_32  and  C_39
   18  A    between atoms: C_33  and  C_34
   19  A    between atoms: C_33  and  C_49
   20  A    between atoms: C_34  and  O_52
   21  A    between atoms: C_35  and  C_51
   22  A    between atoms: C_36  and  C_49
   23  A    between atoms: C_39  and  C_48
   24  A    between atoms: C_45  and  C_49
   25  A    between atoms: C_51  and  C_54
                            x       y       z     vdW  Elec       q    Type
                         _______ _______ _______ _____ _____    ______ ____

>  <TORSDO>
F 25

$$$$
=
 OpenBabel11052419513D

 55 60  0  0  1  0  0  0  0  0999 V2000
  188.8560  176.0600  142.0060 C   0  0  2  0  0  0  0  0  0  0  0  0
  187.8440  175.2680  142.8100 C   0  0  0  0  0  1  0  0  0  0  0  0
  188.3030  178.3830  142.3950 O   0  0  0  0  0  1  0  0  0  0  0  0
  188.1900  177.3710  141.6490 C   0  0  0  0  0  0  0  0  0  0  0  0
  187.3670  177.4480  140.5280 O   0  0  0  0  0  0  0  0  0  0  0  0
  189.1890  175.3030  140.8510 O   0  0  0  0  0  0  0  0  0  0  0  0
  188.2760  174.2430  140.6840 C   0  0  0  0  0  2  0  0  0  0  0  0
  188.2200  173.8390  139.2240 C   0  0  0  0  0  2  0  0  0  0  0  0
  188.3430  172.3330  139.0960 C   0  0  0  0  0  2  0  0  0  0  0  0
  189.7930  171.9110  139.2290 C   0  0  1  0  0  3  0  0  0  0  0  0
  189.9520  171.2260  140.4210 F   0  0  0  0  0  0  0  0  0  0  0  0
  190.1330  171.0670  138.1540 O   0  0  0  0  0  0  0  0  0  0  0  0
  191.1740  173.9610  136.1140 C   0  0  0  0  0  2  0  0  0  0  0  0
  191.4750  171.2920  137.7490 C   0  0  1  0  0  0  0  0  0  0  0  0
  189.3120  172.4240  135.6300 O   0  0  0  0  0  0  0  0  0  0  0  0
  190.9690  170.1820  135.6450 O   0  0  0  0  0  1  0  0  0  0  0  0
  191.4870  171.3580  136.1950 C   0  0  1  0  0  0  0  0  0  0  0  0
  193.4810  172.9560  136.0920 C   0  0  0  0  0  2  0  0  0  0  0  0
  190.0700  172.4870  134.5130 O   0  0  0  0  0  0  0  0  0  0  0  0
  192.4800  173.7920  136.9030 C   0  0  2  0  0  0  0  0  0  0  0  0
  190.6740  172.5750  135.7440 C   0  0  0  0  0  0  0  0  0  0  0  0
  192.1070  172.9010  138.4700 S   0  0  0  0  0  0  0  0  0  0  0  0
  192.9220  171.5730  135.6930 C   0  0  0  0  0  2  0  0  0  0  0  0
  192.0730  168.8910  137.7590 O   0  0  0  0  0  0  0  0  0  0  0  0
  192.3290  170.1750  138.1870 N   0  0  0  0  0  0  0  0  0  0  0  0
  193.1640  170.3450  139.0990 O   0  0  0  0  0  0  0  0  0  0  0  0
  193.0920  175.1330  137.1980 C   0  0  0  0  0  0  0  0  0  0  0  0
  192.9180  176.1950  136.3140 O   0  0  0  0  0  0  0  0  0  0  0  0
  193.8440  175.2840  138.2020 O   0  0  0  0  0  1  0  0  0  0  0  0
  190.0940  176.2940  142.8900 C   0  0  0  0  0  2  0  0  0  0  0  0
  190.2720  175.2650  143.8270 O   0  0  0  0  0  0  0  0  0  0  0  0
  191.1260  175.7710  144.8180 C   0  0  2  0  0  3  0  0  0  0  0  0
  192.5260  175.1080  144.7490 C   0  0  1  0  0  3  0  0  0  0  0  0
  194.9930  175.1430  145.4710 C   0  0  0  0  0  2  0  0  0  0  0  0
  194.9450  175.5090  144.0000 C   0  0  1  0  0  3  0  0  0  0  0  0
  193.8230  175.9360  144.9330 C   0  0  1  0  0  3  0  0  0  0  0  0
  195.8990  176.6700  143.7790 C   0  0  1  0  0  3  0  0  0  0  0  0
  197.1820  176.1630  143.4910 O   0  0  0  0  0  0  0  0  0  0  0  0
  196.4450  176.6490  142.4010 C   0  0  0  0  0  2  0  0  0  0  0  0
  192.5960  173.7800  145.5170 C   0  0  0  0  0  2  0  0  0  0  0  0
  190.1850  172.1940  144.8060 O   0  0  0  0  0  0  0  0  0  0  0  0
  192.9920  171.0740  142.8910 C   0  0  0  0  0  3  0  0  0  0  0  0
  192.4960  172.6180  144.6380 N   0  0  0  0  0  0  0  0  0  0  0  0
  193.5590  172.2200  143.7430 C   0  0  0  0  0  3  0  0  0  0  0  0
  191.4980  170.9630  143.2060 C   0  0  0  0  0  2  0  0  0  0  0  0
  191.3020  171.9550  144.2760 C   0  0  0  0  0  0  0  0  0  0  0  0
  190.5060  175.5230  146.2030 C   0  0  0  0  0  2  0  0  0  0  0  0
  189.1760  175.1150  146.0680 O   0  0  0  0  0  0  0  0  0  0  0  0
  188.4540  175.9720  146.8980 C   0  0  0  0  0  2  0  0  0  0  0  0
  187.7740  177.0270  146.0500 C   0  0  0  0  0  2  0  0  0  0  0  0
  186.5170  177.4690  146.7060 C   0  0  0  0  0  0  0  0  0  0  0  0
  186.0980  176.8580  147.7210 O   0  0  0  0  0  0  0  0  0  0  0  0
  185.8000  178.5360  146.1600 O   0  0  0  0  0  0  0  0  0  0  0  0
  186.0090  178.9930  144.8310 C   0  0  0  0  0  2  0  0  0  0  0  0
  185.0010  178.3530  143.8930 C   0  0  0  0  0  1  0  0  0  0  0  0
  1  2  1  1  0  0  0
  1 30  1  0  0  0  0
  4  1  1  0  0  0  0
  4  3  1  0  0  0  0
  5  4  2  0  0  0  0
  6  1  1  0  0  0  0
  7  6  1  0  0  0  0
  8  7  1  0  0  0  0
  9  8  1  0  0  0  0
  9 10  1  0  0  0  0
 10 11  1  1  0  0  0
 12 10  1  0  0  0  0
 13 20  1  0  0  0  0
 14 12  1  1  0  0  0
 14 25  1  0  0  0  0
 14 22  1  0  0  0  0
 15 21  1  0  0  0  0
 17 16  1  6  0  0  0
 17 14  1  0  0  0  0
 18 20  1  0  0  0  0
 19 15  1  0  0  0  0
 19 21  1  0  0  0  0
 20 27  1  1  0  0  0
 20 22  1  0  0  0  0
 21 13  1  0  0  0  0
 21 17  1  0  0  0  0
 23 18  1  0  0  0  0
 23 17  1  0  0  0  0
 24 25  2  0  0  0  0
 25 26  2  0  0  0  0
 27 29  1  0  0  0  0
 28 27  2  0  0  0  0
 30 31  1  0  0  0  0
 31 32  1  0  0  0  0
 32 47  1  1  0  0  0
 33 32  1  0  0  0  0
 33 40  1  1  0  0  0
 35 36  1  0  0  0  0
 35 34  1  1  0  0  0
 36 33  1  6  0  0  0
 36 34  1  0  0  0  0
 37 39  1  6  0  0  0
 37 35  1  0  0  0  0
 38 37  1  0  0  0  0
 39 38  1  0  0  0  0
 42 45  1  0  0  0  0
 42 44  2  0  0  0  0
 43 40  1  0  0  0  0
 44 43  1  0  0  0  0
 45 46  1  0  0  0  0
 46 43  1  0  0  0  0
 46 41  2  0  0  0  0
 48 47  1  0  0  0  0
 48 49  1  0  0  0  0
 50 51  1  0  0  0  0
 50 49  1  0  0  0  0
 51 52  2  0  0  0  0
 53 51  1  0  0  0  0
 54 53  1  0  0  0  0
 55 54  1  0  0  0  0
M  END
>  <MODEL>
5

>  <REMARK>
 VINA RESULT:      -4.9      2.649      4.458
  Name = 
  25 active torsions:
  status: ('A' for Active; 'I' for Inactive)
    1  A    between atoms: C_1  and  C_29
    2  A    between atoms: C_2  and  O_28
    3  A    between atoms: C_2  and  C_31
    4  A    between atoms: C_4  and  C_40
    5  A    between atoms: C_6  and  N_20
    6  A    between atoms: C_6  and  O_22
    7  A    between atoms: C_8  and  O_22
    8  A    between atoms: C_8  and  C_35
    9  A    between atoms: C_10  and  O_32
   10  A    between atoms: C_13  and  C_48
   11  A    between atoms: C_13  and  O_52
   12  A    between atoms: N_16  and  C_36
   13  A    between atoms: O_27  and  C_31
   14  A    between atoms: O_27  and  C_54
   15  A    between atoms: O_28  and  C_33
   16  A    between atoms: C_31  and  C_41
   17  A    between atoms: O_32  and  C_39
   18  A    between atoms: C_33  and  C_34
   19  A    between atoms: C_33  and  C_49
   20  A    between atoms: C_34  and  O_52
   21  A    between atoms: C_35  and  C_51
   22  A    between atoms: C_36  and  C_49
   23  A    between atoms: C_39  and  C_48
   24  A    between atoms: C_45  and  C_49
   25  A    between atoms: C_51  and  C_54
                            x       y       z     vdW  Elec       q    Type
                         _______ _______ _______ _____ _____    ______ ____

>  <TORSDO>
F 25

$$$$
=
 OpenBabel11052419513D

 55 60  0  0  1  0  0  0  0  0999 V2000
  193.8700  171.5000  143.8050 C   0  0  2  0  0  0  0  0  0  0  0  0
  193.5540  170.0300  143.9900 C   0  0  0  0  0  1  0  0  0  0  0  0
  195.2720  171.3700  145.7710 O   0  0  0  0  0  1  0  0  0  0  0  0
  194.3830  172.0010  145.1370 C   0  0  0  0  0  0  0  0  0  0  0  0
  193.8070  173.1270  145.7230 O   0  0  0  0  0  0  0  0  0  0  0  0
  192.6750  172.1620  143.4140 O   0  0  0  0  0  0  0  0  0  0  0  0
  191.5660  171.3130  143.6010 C   0  0  0  0  0  2  0  0  0  0  0  0
  190.4890  172.0390  144.3840 C   0  0  0  0  0  2  0  0  0  0  0  0
  189.2490  172.2100  143.5270 C   0  0  0  0  0  2  0  0  0  0  0  0
  189.3580  173.4710  142.6930 C   0  0  1  0  0  3  0  0  0  0  0  0
  188.9210  173.1970  141.4090 F   0  0  0  0  0  0  0  0  0  0  0  0
  188.5470  174.4740  143.2590 O   0  0  0  0  0  0  0  0  0  0  0  0
  191.3080  175.5460  145.4610 C   0  0  0  0  0  2  0  0  0  0  0  0
  189.1790  175.7420  143.1560 C   0  0  1  0  0  0  0  0  0  0  0  0
  189.1570  174.5860  146.1750 O   0  0  0  0  0  0  0  0  0  0  0  0
  187.6810  176.5680  144.8850 O   0  0  0  0  0  1  0  0  0  0  0  0
  189.0280  176.4490  144.5330 C   0  0  1  0  0  0  0  0  0  0  0  0
  191.2020  177.7760  144.2990 C   0  0  0  0  0  2  0  0  0  0  0  0
  189.3300  175.7260  146.8780 O   0  0  0  0  0  0  0  0  0  0  0  0
  191.7290  176.3350  144.2130 C   0  0  2  0  0  0  0  0  0  0  0  0
  189.7980  175.6500  145.5880 C   0  0  0  0  0  0  0  0  0  0  0  0
  190.9910  175.5290  142.7330 S   0  0  0  0  0  0  0  0  0  0  0  0
  189.6700  177.8430  144.4760 C   0  0  0  0  0  2  0  0  0  0  0  0
  187.5000  176.0210  141.3590 O   0  0  0  0  0  0  0  0  0  0  0  0
  188.5120  176.5550  142.1250 N   0  0  0  0  0  0  0  0  0  0  0  0
  188.9860  177.6630  141.8000 O   0  0  0  0  0  0  0  0  0  0  0  0
  193.2270  176.3710  144.0950 C   0  0  0  0  0  0  0  0  0  0  0  0
  194.0160  176.5920  145.2210 O   0  0  0  0  0  1  0  0  0  0  0  0
  193.7790  176.2920  142.9620 O   0  0  0  0  0  0  0  0  0  0  0  0
  194.9510  171.6260  142.7170 C   0  0  0  0  0  2  0  0  0  0  0  0
  194.5310  172.4370  141.6510 O   0  0  0  0  0  0  0  0  0  0  0  0
  195.3850  172.1560  140.5740 C   0  0  2  0  0  3  0  0  0  0  0  0
  195.9170  173.4570  139.9200 C   0  0  1  0  0  3  0  0  0  0  0  0
  197.2810  175.6360  139.9620 C   0  0  0  0  0  2  0  0  0  0  0  0
  196.6490  175.4690  141.3300 C   0  0  1  0  0  3  0  0  0  0  0  0
  197.0950  174.2500  140.5390 C   0  0  1  0  0  3  0  0  0  0  0  0
  197.6980  175.8190  142.3720 C   0  0  1  0  0  3  0  0  0  0  0  0
  197.2370  176.9040  143.1420 O   0  0  0  0  0  0  0  0  0  0  0  0
  197.1610  175.6380  143.7420 C   0  0  0  0  0  2  0  0  0  0  0  0
  196.0580  173.3440  138.3950 C   0  0  0  0  0  2  0  0  0  0  0  0
  196.7800  174.7740  135.8920 O   0  0  0  0  0  0  0  0  0  0  0  0
  193.4670  175.6740  136.9020 C   0  0  0  0  0  3  0  0  0  0  0  0
  195.3050  174.3740  137.6840 N   0  0  0  0  0  0  0  0  0  0  0  0
  193.9180  174.6650  137.9690 C   0  0  0  0  0  3  0  0  0  0  0  0
  194.6010  175.8000  135.8800 C   0  0  0  0  0  2  0  0  0  0  0  0
  195.6660  174.9590  136.4510 C   0  0  0  0  0  0  0  0  0  0  0  0
  194.6290  171.3240  139.5260 C   0  0  0  0  0  2  0  0  0  0  0  0
  193.2550  171.5690  139.6170 O   0  0  0  0  0  0  0  0  0  0  0  0
  192.7450  171.2030  138.3710 C   0  0  0  0  0  2  0  0  0  0  0  0
  191.2530  171.4650  138.3510 C   0  0  0  0  0  2  0  0  0  0  0  0
  190.9260  172.4360  137.2750 C   0  0  0  0  0  0  0  0  0  0  0  0
  191.1550  172.1360  136.0770 O   0  0  0  0  0  0  0  0  0  0  0  0
  190.4000  173.6840  137.6190 O   0  0  0  0  0  0  0  0  0  0  0  0
  189.1680  174.1610  137.0970 C   0  0  0  0  0  2  0  0  0  0  0  0
  188.1380  174.2700  138.2060 C   0  0  0  0  0  1  0  0  0  0  0  0
  1  2  1  1  0  0  0
  1  4  1  0  0  0  0
  4  5  2  0  0  0  0
  4  3  1  0  0  0  0
  6  7  1  0  0  0  0
  6  1  1  0  0  0  0
  7  8  1  0  0  0  0
  9  8  1  0  0  0  0
 10 11  1  6  0  0  0
 10 12  1  0  0  0  0
 10  9  1  0  0  0  0
 13 21  1  0  0  0  0
 14 12  1  1  0  0  0
 14 17  1  0  0  0  0
 15 19  1  0  0  0  0
 17 16  1  1  0  0  0
 17 21  1  0  0  0  0
 18 23  1  0  0  0  0
 20 27  1  6  0  0  0
 20 18  1  0  0  0  0
 20 13  1  0  0  0  0
 21 15  1  0  0  0  0
 21 19  1  0  0  0  0
 22 14  1  0  0  0  0
 22 20  1  0  0  0  0
 23 17  1  0  0  0  0
 24 25  2  0  0  0  0
 25 14  1  0  0  0  0
 26 25  2  0  0  0  0
 27 28  1  0  0  0  0
 29 27  2  0  0  0  0
 30  1  1  0  0  0  0
 31 30  1  0  0  0  0
 32 47  1  6  0  0  0
 32 31  1  0  0  0  0
 33 40  1  6  0  0  0
 33 32  1  0  0  0  0
 34 36  1  0  0  0  0
 35 34  1  6  0  0  0
 35 37  1  0  0  0  0
 36 33  1  6  0  0  0
 36 35  1  0  0  0  0
 37 38  1  0  0  0  0
 37 39  1  1  0  0  0
 38 39  1  0  0  0  0
 41 46  2  0  0  0  0
 42 44  2  0  0  0  0
 43 44  1  0  0  0  0
 43 40  1  0  0  0  0
 45 46  1  0  0  0  0
 45 42  1  0  0  0  0
 46 43  1  0  0  0  0
 47 48  1  0  0  0  0
 49 48  1  0  0  0  0
 50 49  1  0  0  0  0
 51 53  1  0  0  0  0
 51 50  1  0  0  0  0
 52 51  2  0  0  0  0
 54 53  1  0  0  0  0
 54 55  1  0  0  0  0
M  END
>  <MODEL>
6

>  <REMARK>
 VINA RESULT:      -4.8      2.752      8.457
  Name = 
  25 active torsions:
  status: ('A' for Active; 'I' for Inactive)
    1  A    between atoms: C_1  and  C_29
    2  A    between atoms: C_2  and  O_28
    3  A    between atoms: C_2  and  C_31
    4  A    between atoms: C_4  and  C_40
    5  A    between atoms: C_6  and  N_20
    6  A    between atoms: C_6  and  O_22
    7  A    between atoms: C_8  and  O_22
    8  A    between atoms: C_8  and  C_35
    9  A    between atoms: C_10  and  O_32
   10  A    between atoms: C_13  and  C_48
   11  A    between atoms: C_13  and  O_52
   12  A    between atoms: N_16  and  C_36
   13  A    between atoms: O_27  and  C_31
   14  A    between atoms: O_27  and  C_54
   15  A    between atoms: O_28  and  C_33
   16  A    between atoms: C_31  and  C_41
   17  A    between atoms: O_32  and  C_39
   18  A    between atoms: C_33  and  C_34
   19  A    between atoms: C_33  and  C_49
   20  A    between atoms: C_34  and  O_52
   21  A    between atoms: C_35  and  C_51
   22  A    between atoms: C_36  and  C_49
   23  A    between atoms: C_39  and  C_48
   24  A    between atoms: C_45  and  C_49
   25  A    between atoms: C_51  and  C_54
                            x       y       z     vdW  Elec       q    Type
                         _______ _______ _______ _____ _____    ______ ____

>  <TORSDO>
F 25

$$$$
=
 OpenBabel11052419513D

 55 60  0  0  1  0  0  0  0  0999 V2000
  189.7550  173.8930  141.8000 C   0  0  2  0  0  0  0  0  0  0  0  0
  189.9520  172.8630  142.8930 C   0  0  0  0  0  1  0  0  0  0  0  0
  187.6360  172.7650  141.5010 O   0  0  0  0  0  1  0  0  0  0  0  0
  188.5740  173.4260  140.9760 C   0  0  0  0  0  0  0  0  0  0  0  0
  188.5570  173.6480  139.6010 O   0  0  0  0  0  0  0  0  0  0  0  0
  190.9470  173.9520  141.0300 O   0  0  0  0  0  0  0  0  0  0  0  0
  192.0660  174.0930  141.8760 C   0  0  0  0  0  2  0  0  0  0  0  0
  193.1400  174.9030  141.1770 C   0  0  0  0  0  2  0  0  0  0  0  0
  194.4990  174.2690  141.4020 C   0  0  0  0  0  2  0  0  0  0  0  0
  195.3530  174.4030  140.1560 C   0  0  1  0  0  3  0  0  0  0  0  0
  196.6260  174.8000  140.5290 F   0  0  0  0  0  0  0  0  0  0  0  0
  195.4220  173.1590  139.5020 O   0  0  0  0  0  0  0  0  0  0  0  0
  192.2980  173.6300  137.5950 C   0  0  0  0  0  2  0  0  0  0  0  0
  195.3880  173.3330  138.0940 C   0  0  1  0  0  0  0  0  0  0  0  0
  192.7510  171.8590  139.2450 O   0  0  0  0  0  0  0  0  0  0  0  0
  194.9920  170.9450  137.8610 O   0  0  0  0  0  1  0  0  0  0  0  0
  194.4960  172.2030  137.5060 C   0  0  1  0  0  0  0  0  0  0  0  0
  193.7120  173.6010  135.5140 C   0  0  0  0  0  2  0  0  0  0  0  0
  192.3020  171.2480  138.1270 O   0  0  0  0  0  0  0  0  0  0  0  0
  193.2150  174.4600  136.6860 C   0  0  2  0  0  0  0  0  0  0  0  0
  193.0640  172.3860  138.0140 C   0  0  0  0  0  0  0  0  0  0  0  0
  194.6710  175.0100  137.6670 S   0  0  0  0  0  0  0  0  0  0  0  0
  194.4430  172.3220  135.9760 C   0  0  0  0  0  2  0  0  0  0  0  0
  197.6730  172.3830  138.1320 O   0  0  0  0  0  0  0  0  0  0  0  0
  196.7460  173.2100  137.5370 N   0  0  0  0  0  0  0  0  0  0  0  0
  197.1310  173.9940  136.6460 O   0  0  0  0  0  0  0  0  0  0  0  0
  192.4750  175.6490  136.1390 C   0  0  0  0  0  0  0  0  0  0  0  0
  191.2000  175.4960  135.5980 O   0  0  0  0  0  0  0  0  0  0  0  0
  193.0370  176.7780  136.0820 O   0  0  0  0  0  1  0  0  0  0  0  0
  189.4600  175.2490  142.4650 C   0  0  0  0  0  2  0  0  0  0  0  0
  189.0060  175.0990  143.7850 O   0  0  0  0  0  0  0  0  0  0  0  0
  188.8830  176.3920  144.3150 C   0  0  2  0  0  3  0  0  0  0  0  0
  187.4110  176.8760  144.2870 C   0  0  1  0  0  3  0  0  0  0  0  0
  187.1820  176.4170  146.8060 C   0  0  0  0  0  2  0  0  0  0  0  0
  186.5590  177.7720  146.5320 C   0  0  1  0  0  3  0  0  0  0  0  0
  186.4660  176.6640  145.4960 C   0  0  1  0  0  3  0  0  0  0  0  0
  185.2600  177.8530  147.3170 C   0  0  1  0  0  3  0  0  0  0  0  0
  184.9920  179.2010  147.6240 O   0  0  0  0  0  0  0  0  0  0  0  0
  184.2460  178.6400  146.5770 C   0  0  0  0  0  2  0  0  0  0  0  0
  187.2570  178.2850  143.6970 C   0  0  0  0  0  2  0  0  0  0  0  0
  187.6350  177.6940  140.8080 O   0  0  0  0  0  0  0  0  0  0  0  0
  184.1740  178.2930  141.4910 C   0  0  0  0  0  3  0  0  0  0  0  0
  186.2730  178.3380  142.6190 N   0  0  0  0  0  0  0  0  0  0  0  0
  184.8510  178.4350  142.8620 C   0  0  0  0  0  3  0  0  0  0  0  0
  185.2600  177.9190  140.4770 C   0  0  0  0  0  2  0  0  0  0  0  0
  186.4970  177.9660  141.2750 C   0  0  0  0  0  0  0  0  0  0  0  0
  189.7610  177.3610  143.5060 C   0  0  0  0  0  2  0  0  0  0  0  0
  190.7180  177.9500  144.3370 O   0  0  0  0  0  0  0  0  0  0  0  0
  191.8960  177.2500  144.0750 C   0  0  0  0  0  2  0  0  0  0  0  0
  192.3890  176.6130  145.3580 C   0  0  0  0  0  2  0  0  0  0  0  0
  193.6790  175.9180  145.1130 C   0  0  0  0  0  0  0  0  0  0  0  0
  194.6460  176.5570  144.6260 O   0  0  0  0  0  0  0  0  0  0  0  0
  193.7850  174.5540  145.3940 O   0  0  0  0  0  0  0  0  0  0  0  0
  194.8950  173.7740  144.9750 C   0  0  0  0  0  2  0  0  0  0  0  0
  194.7010  172.3250  145.3860 C   0  0  0  0  0  1  0  0  0  0  0  0
  1 30  1  0  0  0  0
  1  2  1  1  0  0  0
  4  3  1  0  0  0  0
  4  1  1  0  0  0  0
  5  4  2  0  0  0  0
  6  1  1  0  0  0  0
  6  7  1  0  0  0  0
  8  9  1  0  0  0  0
  8  7  1  0  0  0  0
 10 11  1  1  0  0  0
 10  9  1  0  0  0  0
 12 10  1  0  0  0  0
 13 21  1  0  0  0  0
 14 12  1  1  0  0  0
 17 16  1  1  0  0  0
 17 21  1  0  0  0  0
 17 14  1  0  0  0  0
 18 23  1  0  0  0  0
 18 20  1  0  0  0  0
 19 15  1  0  0  0  0
 20 27  1  6  0  0  0
 20 13  1  0  0  0  0
 20 22  1  0  0  0  0
 21 19  1  0  0  0  0
 21 15  1  0  0  0  0
 22 14  1  0  0  0  0
 23 17  1  0  0  0  0
 25 14  1  0  0  0  0
 25 24  2  0  0  0  0
 26 25  2  0  0  0  0
 28 27  2  0  0  0  0
 29 27  1  0  0  0  0
 30 31  1  0  0  0  0
 31 32  1  0  0  0  0
 32 47  1  6  0  0  0
 33 40  1  1  0  0  0
 33 32  1  0  0  0  0
 35 34  1  1  0  0  0
 35 37  1  0  0  0  0
 36 33  1  6  0  0  0
 36 35  1  0  0  0  0
 36 34  1  0  0  0  0
 37 39  1  6  0  0  0
 37 38  1  0  0  0  0
 39 38  1  0  0  0  0
 41 46  2  0  0  0  0
 42 44  2  0  0  0  0
 43 44  1  0  0  0  0
 43 40  1  0  0  0  0
 45 46  1  0  0  0  0
 45 42  1  0  0  0  0
 46 43  1  0  0  0  0
 47 48  1  0  0  0  0
 49 48  1  0  0  0  0
 49 50  1  0  0  0  0
 51 50  1  0  0  0  0
 51 53  1  0  0  0  0
 52 51  2  0  0  0  0
 54 55  1  0  0  0  0
 54 53  1  0  0  0  0
M  END
>  <MODEL>
7

>  <REMARK>
 VINA RESULT:      -4.7      2.177      5.792
  Name = 
  25 active torsions:
  status: ('A' for Active; 'I' for Inactive)
    1  A    between atoms: C_1  and  C_29
    2  A    between atoms: C_2  and  O_28
    3  A    between atoms: C_2  and  C_31
    4  A    between atoms: C_4  and  C_40
    5  A    between atoms: C_6  and  N_20
    6  A    between atoms: C_6  and  O_22
    7  A    between atoms: C_8  and  O_22
    8  A    between atoms: C_8  and  C_35
    9  A    between atoms: C_10  and  O_32
   10  A    between atoms: C_13  and  C_48
   11  A    between atoms: C_13  and  O_52
   12  A    between atoms: N_16  and  C_36
   13  A    between atoms: O_27  and  C_31
   14  A    between atoms: O_27  and  C_54
   15  A    between atoms: O_28  and  C_33
   16  A    between atoms: C_31  and  C_41
   17  A    between atoms: O_32  and  C_39
   18  A    between atoms: C_33  and  C_34
   19  A    between atoms: C_33  and  C_49
   20  A    between atoms: C_34  and  O_52
   21  A    between atoms: C_35  and  C_51
   22  A    between atoms: C_36  and  C_49
   23  A    between atoms: C_39  and  C_48
   24  A    between atoms: C_45  and  C_49
   25  A    between atoms: C_51  and  C_54
                            x       y       z     vdW  Elec       q    Type
                         _______ _______ _______ _____ _____    ______ ____

>  <TORSDO>
F 25

$$$$
=
 OpenBabel11052419513D

 55 60  0  0  1  0  0  0  0  0999 V2000
  191.9380  172.0100  141.6620 C   0  0  2  0  0  0  0  0  0  0  0  0
  192.0840  172.6460  140.2940 C   0  0  0  0  0  1  0  0  0  0  0  0
  191.2020  169.8020  142.3230 O   0  0  0  0  0  1  0  0  0  0  0  0
  191.7050  170.5330  141.4260 C   0  0  0  0  0  0  0  0  0  0  0  0
  192.1300  169.9450  140.2370 O   0  0  0  0  0  0  0  0  0  0  0  0
  190.8360  172.6220  142.3170 O   0  0  0  0  0  0  0  0  0  0  0  0
  190.0390  173.3150  141.3830 C   0  0  0  0  0  2  0  0  0  0  0  0
  188.6430  172.7270  141.3620 C   0  0  0  0  0  2  0  0  0  0  0  0
  187.6500  173.7200  141.9340 C   0  0  0  0  0  2  0  0  0  0  0  0
  188.2000  175.1300  141.8290 C   0  0  1  0  0  3  0  0  0  0  0  0
  187.8550  175.6520  140.5940 F   0  0  0  0  0  0  0  0  0  0  0  0
  187.6400  175.9240  142.8470 O   0  0  0  0  0  0  0  0  0  0  0  0
  187.5100  176.0120  146.5340 C   0  0  0  0  0  2  0  0  0  0  0  0
  188.6610  176.4990  143.6490 C   0  0  1  0  0  0  0  0  0  0  0  0
  185.7280  176.7230  144.9910 O   0  0  0  0  0  0  0  0  0  0  0  0
  187.3790  178.5660  143.7060 O   0  0  0  0  0  1  0  0  0  0  0  0
  188.0020  177.6110  144.5150 C   0  0  1  0  0  0  0  0  0  0  0  0
  189.6480  177.3370  146.4530 C   0  0  0  0  0  2  0  0  0  0  0  0
  185.9290  177.7420  145.8550 O   0  0  0  0  0  0  0  0  0  0  0  0
  189.0360  175.9290  146.3890 C   0  0  2  0  0  0  0  0  0  0  0  0
  186.9940  176.9650  145.4690 C   0  0  0  0  0  0  0  0  0  0  0  0
  189.4300  175.1930  144.7490 S   0  0  0  0  0  0  0  0  0  0  0  0
  189.0670  178.2910  145.3870 C   0  0  0  0  0  2  0  0  0  0  0  0
  189.3600  178.0940  141.8910 O   0  0  0  0  0  0  0  0  0  0  0  0
  189.6930  177.1080  142.7930 N   0  0  0  0  0  0  0  0  0  0  0  0
  190.8330  176.6040  142.7330 O   0  0  0  0  0  0  0  0  0  0  0  0
  189.6240  175.0930  147.4920 C   0  0  0  0  0  0  0  0  0  0  0  0
  190.9500  175.2710  147.8790 O   0  0  0  0  0  0  0  0  0  0  0  0
  188.9490  174.1620  148.0140 O   0  0  0  0  0  1  0  0  0  0  0  0
  193.2430  172.2430  142.4430 C   0  0  0  0  0  2  0  0  0  0  0  0
  194.2320  171.3060  142.1040 O   0  0  0  0  0  0  0  0  0  0  0  0
  195.4670  171.9480  142.2760 C   0  0  2  0  0  3  0  0  0  0  0  0
  195.7860  172.1670  143.7770 C   0  0  1  0  0  3  0  0  0  0  0  0
  196.8860  171.5210  146.0090 C   0  0  0  0  0  2  0  0  0  0  0  0
  195.6550  170.6530  145.8420 C   0  0  1  0  0  3  0  0  0  0  0  0
  196.4700  171.0670  144.6270 C   0  0  1  0  0  3  0  0  0  0  0  0
  196.0260  169.2380  146.2520 C   0  0  1  0  0  3  0  0  0  0  0  0
  196.3060  169.2170  147.6320 O   0  0  0  0  0  0  0  0  0  0  0  0
  195.0600  168.7050  147.2420 C   0  0  0  0  0  2  0  0  0  0  0  0
  196.3850  173.5510  144.0650 C   0  0  0  0  0  2  0  0  0  0  0  0
  196.0830  176.4510  143.4870 O   0  0  0  0  0  0  0  0  0  0  0  0
  193.3800  175.3270  145.5430 C   0  0  0  0  0  3  0  0  0  0  0  0
  195.4000  174.4890  144.5970 N   0  0  0  0  0  0  0  0  0  0  0  0
  194.2180  174.0610  145.3100 C   0  0  0  0  0  3  0  0  0  0  0  0
  194.0420  176.4670  144.7650 C   0  0  0  0  0  2  0  0  0  0  0  0
  195.2590  175.8430  144.2200 C   0  0  0  0  0  0  0  0  0  0  0  0
  195.4430  173.3030  141.5510 C   0  0  0  0  0  2  0  0  0  0  0  0
  196.4940  173.3760  140.6320 O   0  0  0  0  0  0  0  0  0  0  0  0
  196.6380  174.7370  140.3620 C   0  0  0  0  0  2  0  0  0  0  0  0
  195.6680  175.1290  139.2660 C   0  0  0  0  0  2  0  0  0  0  0  0
  196.2610  174.8340  137.9370 C   0  0  0  0  0  0  0  0  0  0  0  0
  195.8650  173.8330  137.2880 O   0  0  0  0  0  0  0  0  0  0  0  0
  197.2790  175.6550  137.4450 O   0  0  0  0  0  0  0  0  0  0  0  0
  197.6790  175.6370  136.0820 C   0  0  0  0  0  2  0  0  0  0  0  0
  196.8060  176.5760  135.2690 C   0  0  0  0  0  1  0  0  0  0  0  0
  1  2  1  6  0  0  0
  1  6  1  0  0  0  0
  1 30  1  0  0  0  0
  4  1  1  0  0  0  0
  4  3  1  0  0  0  0
  5  4  2  0  0  0  0
  7  6  1  0  0  0  0
  8  7  1  0  0  0  0
  8  9  1  0  0  0  0
 10 11  1  6  0  0  0
 10  9  1  0  0  0  0
 10 12  1  0  0  0  0
 14 12  1  6  0  0  0
 14 17  1  0  0  0  0
 14 22  1  0  0  0  0
 15 21  1  0  0  0  0
 15 19  1  0  0  0  0
 17 16  1  6  0  0  0
 17 23  1  0  0  0  0
 17 21  1  0  0  0  0
 20 18  1  0  0  0  0
 20 13  1  0  0  0  0
 20 27  1  1  0  0  0
 21 19  1  0  0  0  0
 21 13  1  0  0  0  0
 22 20  1  0  0  0  0
 23 18  1  0  0  0  0
 24 25  2  0  0  0  0
 25 14  1  0  0  0  0
 26 25  2  0  0  0  0
 27 28  2  0  0  0  0
 27 29  1  0  0  0  0
 31 32  1  0  0  0  0
 31 30  1  0  0  0  0
 32 47  1  6  0  0  0
 32 33  1  0  0  0  0
 33 40  1  6  0  0  0
 35 34  1  1  0  0  0
 35 37  1  0  0  0  0
 36 33  1  6  0  0  0
 36 35  1  0  0  0  0
 36 34  1  0  0  0  0
 37 39  1  1  0  0  0
 37 38  1  0  0  0  0
 39 38  1  0  0  0  0
 40 43  1  0  0  0  0
 41 46  2  0  0  0  0
 43 44  1  0  0  0  0
 44 42  2  0  0  0  0
 45 42  1  0  0  0  0
 46 43  1  0  0  0  0
 46 45  1  0  0  0  0
 48 47  1  0  0  0  0
 49 48  1  0  0  0  0
 50 49  1  0  0  0  0
 51 50  1  0  0  0  0
 52 51  2  0  0  0  0
 53 51  1  0  0  0  0
 54 53  1  0  0  0  0
 55 54  1  0  0  0  0
M  END
>  <MODEL>
8

>  <REMARK>
 VINA RESULT:      -4.7      3.204      8.996
  Name = 
  25 active torsions:
  status: ('A' for Active; 'I' for Inactive)
    1  A    between atoms: C_1  and  C_29
    2  A    between atoms: C_2  and  O_28
    3  A    between atoms: C_2  and  C_31
    4  A    between atoms: C_4  and  C_40
    5  A    between atoms: C_6  and  N_20
    6  A    between atoms: C_6  and  O_22
    7  A    between atoms: C_8  and  O_22
    8  A    between atoms: C_8  and  C_35
    9  A    between atoms: C_10  and  O_32
   10  A    between atoms: C_13  and  C_48
   11  A    between atoms: C_13  and  O_52
   12  A    between atoms: N_16  and  C_36
   13  A    between atoms: O_27  and  C_31
   14  A    between atoms: O_27  and  C_54
   15  A    between atoms: O_28  and  C_33
   16  A    between atoms: C_31  and  C_41
   17  A    between atoms: O_32  and  C_39
   18  A    between atoms: C_33  and  C_34
   19  A    between atoms: C_33  and  C_49
   20  A    between atoms: C_34  and  O_52
   21  A    between atoms: C_35  and  C_51
   22  A    between atoms: C_36  and  C_49
   23  A    between atoms: C_39  and  C_48
   24  A    between atoms: C_45  and  C_49
   25  A    between atoms: C_51  and  C_54
                            x       y       z     vdW  Elec       q    Type
                         _______ _______ _______ _____ _____    ______ ____

>  <TORSDO>
F 25

$$$$
=
 OpenBabel11052419513D

 55 60  0  0  1  0  0  0  0  0999 V2000
  193.2700  170.6480  143.4880 C   0  0  2  0  0  0  0  0  0  0  0  0
  194.0040  171.1290  142.2530 C   0  0  0  0  0  1  0  0  0  0  0  0
  193.6470  168.8130  145.0180 O   0  0  0  0  0  1  0  0  0  0  0  0
  193.9790  169.3930  143.9480 C   0  0  0  0  0  0  0  0  0  0  0  0
  195.0730  168.9120  143.2310 O   0  0  0  0  0  0  0  0  0  0  0  0
  191.9200  170.3930  143.1270 O   0  0  0  0  0  0  0  0  0  0  0  0
  191.8670  169.4550  142.0770 C   0  0  0  0  0  2  0  0  0  0  0  0
  190.8170  169.8730  141.0670 C   0  0  0  0  0  2  0  0  0  0  0  0
  190.7620  168.8730  139.9280 C   0  0  0  0  0  2  0  0  0  0  0  0
  191.5860  169.3670  138.7560 C   0  0  1  0  0  3  0  0  0  0  0  0
  192.1190  168.2750  138.0930 F   0  0  0  0  0  0  0  0  0  0  0  0
  190.7580  170.0900  137.8770 O   0  0  0  0  0  0  0  0  0  0  0  0
  191.1740  173.2860  139.6740 C   0  0  0  0  0  2  0  0  0  0  0  0
  191.4550  171.2030  137.3360 C   0  0  1  0  0  0  0  0  0  0  0  0
  189.0640  172.0630  139.3350 O   0  0  0  0  0  0  0  0  0  0  0  0
  189.3280  172.0910  136.5600 O   0  0  0  0  0  1  0  0  0  0  0  0
  190.4660  172.4030  137.3090 C   0  0  1  0  0  0  0  0  0  0  0  0
  192.3000  174.1620  137.6010 C   0  0  0  0  0  2  0  0  0  0  0  0
  188.8500  173.3350  138.9310 O   0  0  0  0  0  0  0  0  0  0  0  0
  192.4870  173.3310  138.8800 C   0  0  2  0  0  0  0  0  0  0  0  0
  190.0880  172.7670  138.7470 C   0  0  0  0  0  0  0  0  0  0  0  0
  192.9410  171.6130  138.4010 S   0  0  0  0  0  0  0  0  0  0  0  0
  191.1570  173.6340  136.7060 C   0  0  0  0  0  2  0  0  0  0  0  0
  193.1720  171.1960  135.5540 O   0  0  0  0  0  0  0  0  0  0  0  0
  191.8880  170.9080  135.9600 N   0  0  0  0  0  0  0  0  0  0  0  0
  191.0480  170.5810  135.0970 O   0  0  0  0  0  0  0  0  0  0  0  0
  193.5790  173.9490  139.7060 C   0  0  0  0  0  0  0  0  0  0  0  0
  194.8550  173.3880  139.7200 O   0  0  0  0  0  0  0  0  0  0  0  0
  193.3290  174.9270  140.4650 O   0  0  0  0  0  1  0  0  0  0  0  0
  193.3560  171.7510  144.5580 C   0  0  0  0  0  2  0  0  0  0  0  0
  192.1320  172.4180  144.7240 O   0  0  0  0  0  0  0  0  0  0  0  0
  192.3220  173.7250  144.2530 C   0  0  2  0  0  3  0  0  0  0  0  0
  192.3710  174.7450  145.4200 C   0  0  1  0  0  3  0  0  0  0  0  0
  191.4940  175.7530  147.6160 C   0  0  0  0  0  2  0  0  0  0  0  0
  190.6700  176.3400  146.4870 C   0  0  1  0  0  3  0  0  0  0  0  0
  191.1820  174.9110  146.4000 C   0  0  1  0  0  3  0  0  0  0  0  0
  189.2160  176.3400  146.9240 C   0  0  1  0  0  3  0  0  0  0  0  0
  188.8280  177.6580  147.2320 O   0  0  0  0  0  0  0  0  0  0  0  0
  188.3870  177.1510  146.0000 C   0  0  0  0  0  2  0  0  0  0  0  0
  193.7130  174.7340  146.1660 C   0  0  0  0  0  2  0  0  0  0  0  0
  196.4230  173.6000  145.7160 O   0  0  0  0  0  0  0  0  0  0  0  0
  195.9570  176.5010  143.6730 C   0  0  0  0  0  3  0  0  0  0  0  0
  194.8060  175.2750  145.3620 N   0  0  0  0  0  0  0  0  0  0  0  0
  194.6220  176.3550  144.4180 C   0  0  0  0  0  3  0  0  0  0  0  0
  196.8520  175.3320  144.0980 C   0  0  0  0  0  2  0  0  0  0  0  0
  196.0470  174.6460  145.1220 C   0  0  0  0  0  0  0  0  0  0  0  0
  191.1790  174.0940  143.2940 C   0  0  0  0  0  2  0  0  0  0  0  0
  191.1520  175.4760  143.0850 O   0  0  0  0  0  0  0  0  0  0  0  0
  190.0030  175.7000  142.3280 C   0  0  0  0  0  2  0  0  0  0  0  0
  188.7840  175.4110  143.1800 C   0  0  0  0  0  2  0  0  0  0  0  0
  187.5490  175.6520  142.3910 C   0  0  0  0  0  0  0  0  0  0  0  0
  187.5780  175.5380  141.1400 O   0  0  0  0  0  0  0  0  0  0  0  0
  186.3800  176.0370  143.0520 O   0  0  0  0  0  0  0  0  0  0  0  0
  185.6920  177.2410  142.7430 C   0  0  0  0  0  2  0  0  0  0  0  0
  186.5680  178.4400  143.0610 C   0  0  0  0  0  1  0  0  0  0  0  0
  1  2  1  6  0  0  0
  1  4  1  0  0  0  0
  1 30  1  0  0  0  0
  4  3  1  0  0  0  0
  5  4  2  0  0  0  0
  6  1  1  0  0  0  0
  7  6  1  0  0  0  0
  8  7  1  0  0  0  0
  9  8  1  0  0  0  0
 10 11  1  6  0  0  0
 10  9  1  0  0  0  0
 12 10  1  0  0  0  0
 14 12  1  1  0  0  0
 14 22  1  0  0  0  0
 17 16  1  6  0  0  0
 17 14  1  0  0  0  0
 17 21  1  0  0  0  0
 18 20  1  0  0  0  0
 19 15  1  0  0  0  0
 20 13  1  0  0  0  0
 20 27  1  1  0  0  0
 21 19  1  0  0  0  0
 21 15  1  0  0  0  0
 21 13  1  0  0  0  0
 22 20  1  0  0  0  0
 23 17  1  0  0  0  0
 23 18  1  0  0  0  0
 24 25  2  0  0  0  0
 25 14  1  0  0  0  0
 26 25  2  0  0  0  0
 27 28  2  0  0  0  0
 27 29  1  0  0  0  0
 30 31  1  0  0  0  0
 32 47  1  6  0  0  0
 32 31  1  0  0  0  0
 32 33  1  0  0  0  0
 33 40  1  1  0  0  0
 35 37  1  0  0  0  0
 35 34  1  1  0  0  0
 36 33  1  6  0  0  0
 36 35  1  0  0  0  0
 36 34  1  0  0  0  0
 37 39  1  6  0  0  0
 37 38  1  0  0  0  0
 39 38  1  0  0  0  0
 42 45  1  0  0  0  0
 42 44  2  0  0  0  0
 43 40  1  0  0  0  0
 44 43  1  0  0  0  0
 45 46  1  0  0  0  0
 46 43  1  0  0  0  0
 46 41  2  0  0  0  0
 48 47  1  0  0  0  0
 49 48  1  0  0  0  0
 49 50  1  0  0  0  0
 51 53  1  0  0  0  0
 51 50  1  0  0  0  0
 52 51  2  0  0  0  0
 54 53  1  0  0  0  0
 54 55  1  0  0  0  0
M  END
>  <MODEL>
9

>  <REMARK>
 VINA RESULT:      -4.5      2.828      5.136
  Name = 
  25 active torsions:
  status: ('A' for Active; 'I' for Inactive)
    1  A    between atoms: C_1  and  C_29
    2  A    between atoms: C_2  and  O_28
    3  A    between atoms: C_2  and  C_31
    4  A    between atoms: C_4  and  C_40
    5  A    between atoms: C_6  and  N_20
    6  A    between atoms: C_6  and  O_22
    7  A    between atoms: C_8  and  O_22
    8  A    between atoms: C_8  and  C_35
    9  A    between atoms: C_10  and  O_32
   10  A    between atoms: C_13  and  C_48
   11  A    between atoms: C_13  and  O_52
   12  A    between atoms: N_16  and  C_36
   13  A    between atoms: O_27  and  C_31
   14  A    between atoms: O_27  and  C_54
   15  A    between atoms: O_28  and  C_33
   16  A    between atoms: C_31  and  C_41
   17  A    between atoms: O_32  and  C_39
   18  A    between atoms: C_33  and  C_34
   19  A    between atoms: C_33  and  C_49
   20  A    between atoms: C_34  and  O_52
   21  A    between atoms: C_35  and  C_51
   22  A    between atoms: C_36  and  C_49
   23  A    between atoms: C_39  and  C_48
   24  A    between atoms: C_45  and  C_49
   25  A    between atoms: C_51  and  C_54
                            x       y       z     vdW  Elec       q    Type
                         _______ _______ _______ _____ _____    ______ ____

>  <TORSDO>
F 25

$$$$
