=
 OpenBabel11052419333D

 55 60  0  0  1  0  0  0  0  0999 V2000
  190.1180  172.6580  143.2370 C   0  0  0  0  0  3  0  0  0  0  0  0
  190.4740  171.5950  140.6700 C   0  0  0  0  0  0  0  0  0  0  0  0
  189.9870  172.8980  140.8280 C   0  0  0  0  0  3  0  0  0  0  0  0
  190.6060  171.3590  143.0780 C   0  0  0  0  0  3  0  0  0  0  0  0
  189.8120  173.4330  142.1140 C   0  0  0  0  0  0  0  0  0  0  0  0
  190.7920  170.8310  141.7950 C   0  0  0  0  0  3  0  0  0  0  0  0
  189.3070  174.8220  142.3050 C   0  0  0  0  0  2  0  0  0  0  0  0
  186.8860  177.1390  147.5940 C   0  0  0  0  0  3  0  0  0  0  0  0
  185.9060  178.0170  148.0690 C   0  0  0  0  0  3  0  0  0  0  0  0
  186.6360  178.0640  145.3660 C   0  0  0  0  0  0  0  0  0  0  0  0
  185.6600  178.9450  145.8460 C   0  0  0  0  0  3  0  0  0  0  0  0
  185.2950  178.9230  147.1950 C   0  0  0  0  0  3  0  0  0  0  0  0
  187.2590  177.1590  146.2440 C   0  0  0  0  0  0  0  0  0  0  0  0
  189.0760  175.1040  143.7540 C   0  0  0  0  0  3  0  0  0  0  0  0
  187.7920  177.2290  143.4250 C   0  0  0  0  0  0  0  0  0  0  0  0
  186.9690  178.0730  143.9740 N   0  0  0  0  0  0  0  0  0  0  0  0
  188.3510  176.2440  145.7600 C   0  0  1  0  0  3  0  0  0  0  0  0
  188.4360  176.1670  144.2570 C   0  0  0  0  0  0  0  0  0  0  0  0
  188.0360  177.3040  142.0160 N   0  0  0  0  0  2  0  0  0  0  0  0
  186.6320  177.1130  140.0140 C   0  0  0  0  0  2  0  0  0  0  0  0
  184.8930  178.4180  140.6510 C   0  0  1  0  0  3  0  0  0  0  0  0
  187.1610  178.0200  141.0940 C   0  0  1  0  0  3  0  0  0  0  0  0
  185.9080  178.4250  141.7840 C   0  0  0  0  0  2  0  0  0  0  0  0
  185.3810  177.6040  139.6020 O   0  0  0  0  0  0  0  0  0  0  0  0
  183.5840  177.9340  141.0980 N   0  0  0  0  0  0  0  0  0  0  0  0
  183.4090  178.2930  142.4990 C   0  0  0  0  0  1  0  0  0  0  0  0
  182.6150  178.6640  140.3900 N   0  0  0  0  0  1  0  0  0  0  0  0
  189.5860  176.6470  146.2850 O   0  0  0  0  0  0  0  0  0  0  0  0
  189.1740  174.5680  147.4000 C   0  0  0  0  0  1  0  0  0  0  0  0
  190.1990  175.4690  146.7320 C   0  0  2  0  0  3  0  0  0  0  0  0
  191.3660  175.7750  147.6750 C   0  0  0  0  0  2  0  0  0  0  0  0
  191.2470  177.1560  148.3070 C   0  0  0  0  0  1  0  0  0  0  0  0
  190.7290  171.0400  139.3100 C   0  0  0  0  0  2  0  0  0  0  0  0
  192.0840  171.1480  138.9800 O   0  0  0  0  0  0  0  0  0  0  0  0
  192.1000  171.9530  137.8430 C   0  0  0  0  0  2  0  0  0  0  0  0
  192.5620  173.3510  138.2150 C   0  0  0  0  0  2  0  0  0  0  0  0
  193.7110  173.2690  139.2030 C   0  0  0  0  0  2  0  0  0  0  0  0
  193.9080  174.5270  139.7950 O   0  0  0  0  0  0  0  0  0  0  0  0
  192.4010  175.2170  141.3910 F   0  0  0  0  0  0  0  0  0  0  0  0
  193.5380  174.4470  141.1550 C   0  0  0  0  0  0  0  0  0  0  0  0
  193.2580  173.1300  141.4930 F   0  0  0  0  0  0  0  0  0  0  0  0
  193.7130  175.1840  144.4040 C   0  0  0  0  0  0  0  0  0  0  0  0
  196.3930  173.3700  141.5410 F   0  0  0  0  0  0  0  0  0  0  0  0
  194.6930  174.9970  142.0300 C   0  0  1  0  0  0  0  0  0  0  0  0
  197.3890  172.6610  145.0650 C   0  0  0  0  0  2  0  0  0  0  0  0
  194.8470  172.8010  143.0520 F   0  0  0  0  0  0  0  0  0  0  0  0
  195.6170  173.8630  142.5770 C   0  0  0  0  0  0  0  0  0  0  0  0
  192.5910  174.7150  144.5110 O   0  0  0  0  0  0  0  0  0  0  0  0
  197.5440  173.9620  145.5970 O   0  0  0  0  0  0  0  0  0  0  0  0
  196.4170  173.7350  144.7920 C   0  0  1  0  0  0  0  0  0  0  0  0
  194.7030  175.0420  145.5150 C   0  0  0  0  0  2  0  0  0  0  0  0
  196.4990  174.4110  143.5510 O   0  0  0  0  0  0  0  0  0  0  0  0
  195.4760  175.8270  141.2210 O   0  0  0  0  0  1  0  0  0  0  0  0
  195.2140  173.7360  145.5300 O   0  0  0  0  0  0  0  0  0  0  0  0
  194.1230  175.8980  143.1510 C   0  0  0  0  0  2  0  0  0  0  0  0
  2  3  2  0  0  0  0
  2  6  1  0  0  0  0
  3  5  1  0  0  0  0
  4  1  1  0  0  0  0
  5  7  1  0  0  0  0
  5  1  2  0  0  0  0
  6  4  2  0  0  0  0
  7 14  1  0  0  0  0
  8  9  1  0  0  0  0
 10 11  2  0  0  0  0
 10 13  1  0  0  0  0
 11 12  1  0  0  0  0
 12  9  2  0  0  0  0
 13  8  2  0  0  0  0
 14 18  2  0  0  0  0
 15 16  2  0  0  0  0
 15 18  1  0  0  0  0
 16 10  1  0  0  0  0
 17 13  1  0  0  0  0
 17 28  1  6  0  0  0
 18 17  1  0  0  0  0
 19 15  1  0  0  0  0
 20 22  1  0  0  0  0
 21 25  1  1  0  0  0
 21 23  1  0  0  0  0
 22 23  1  0  0  0  0
 22 19  1  1  0  0  0
 24 20  1  0  0  0  0
 24 21  1  0  0  0  0
 25 26  1  0  0  0  0
 27 25  1  0  0  0  0
 28 30  1  0  0  0  0
 30 29  1  1  0  0  0
 30 31  1  0  0  0  0
 31 32  1  0  0  0  0
 33  2  1  0  0  0  0
 34 33  1  0  0  0  0
 35 36  1  0  0  0  0
 35 34  1  0  0  0  0
 36 37  1  0  0  0  0
 37 38  1  0  0  0  0
 38 40  1  0  0  0  0
 40 39  1  0  0  0  0
 40 41  1  0  0  0  0
 40 44  1  0  0  0  0
 42 48  2  0  0  0  0
 42 51  1  0  0  0  0
 43 47  1  0  0  0  0
 44 53  1  6  0  0  0
 44 47  1  0  0  0  0
 44 55  1  0  0  0  0
 45 49  1  0  0  0  0
 47 46  1  0  0  0  0
 47 52  1  0  0  0  0
 50 45  1  6  0  0  0
 50 54  1  0  0  0  0
 50 49  1  0  0  0  0
 51 54  1  0  0  0  0
 52 50  1  0  0  0  0
 55 42  1  0  0  0  0
M  END
>  <MODEL>
1

>  <REMARK>
 VINA RESULT:      -7.8      0.000      0.000
  Name = 
  15 active torsions:
  status: ('A' for Active; 'I' for Inactive)
    1  A    between atoms: C_2  and  C_28
    2  A    between atoms: C_2  and  C_44
    3  A    between atoms: C_4  and  C_40
    4  A    between atoms: C_6  and  C_20
    5  A    between atoms: C_8  and  O_22
    6  A    between atoms: C_8  and  C_35
    7  A    between atoms: N_10  and  C_32
    8  A    between atoms: O_19  and  C_40
    9  A    between atoms: O_19  and  C_45
   10  A    between atoms: C_20  and  O_22
   11  A    between atoms: C_27  and  C_54
   12  A    between atoms: C_34  and  N_52
   13  A    between atoms: C_35  and  C_43
   14  A    between atoms: C_43  and  O_51
   15  A    between atoms: O_51  and  C_54
                            x       y       z     vdW  Elec       q    Type
                         _______ _______ _______ _____ _____    ______ ____

>  <TORSDO>
F 15

$$$$
=
 OpenBabel11052419333D

 55 60  0  0  1  0  0  0  0  0999 V2000
  188.3260  173.9650  138.4550 C   0  0  0  0  0  3  0  0  0  0  0  0
  191.0800  173.4760  138.3260 C   0  0  0  0  0  0  0  0  0  0  0  0
  190.4200  173.4490  139.5610 C   0  0  0  0  0  3  0  0  0  0  0  0
  188.9840  173.9880  137.2240 C   0  0  0  0  0  3  0  0  0  0  0  0
  189.0390  173.6900  139.6260 C   0  0  0  0  0  0  0  0  0  0  0  0
  190.3590  173.7370  137.1590 C   0  0  0  0  0  3  0  0  0  0  0  0
  188.3140  173.6530  140.9280 C   0  0  0  0  0  2  0  0  0  0  0  0
  191.5370  174.6260  146.2080 C   0  0  0  0  0  3  0  0  0  0  0  0
  191.7150  175.5560  147.2380 C   0  0  0  0  0  3  0  0  0  0  0  0
  190.3770  176.3040  144.8940 C   0  0  0  0  0  0  0  0  0  0  0  0
  190.5630  177.2320  145.9250 C   0  0  0  0  0  3  0  0  0  0  0  0
  191.2310  176.8610  147.0950 C   0  0  0  0  0  3  0  0  0  0  0  0
  190.8710  174.9940  145.0310 C   0  0  0  0  0  0  0  0  0  0  0  0
  189.2740  173.4660  142.0590 C   0  0  0  0  0  3  0  0  0  0  0  0
  189.3560  175.8690  142.7570 C   0  0  0  0  0  0  0  0  0  0  0  0
  189.6570  176.6910  143.7200 N   0  0  0  0  0  0  0  0  0  0  0  0
  190.7330  173.9980  143.9120 C   0  0  1  0  0  3  0  0  0  0  0  0
  189.7550  174.4320  142.8510 C   0  0  0  0  0  0  0  0  0  0  0  0
  188.6050  176.3500  141.6360 N   0  0  0  0  0  2  0  0  0  0  0  0
  186.5310  177.4580  140.9380 C   0  0  0  0  0  2  0  0  0  0  0  0
  186.0990  178.6560  142.8120 C   0  0  1  0  0  3  0  0  0  0  0  0
  187.8460  177.5950  141.6620 C   0  0  1  0  0  3  0  0  0  0  0  0
  187.3940  177.8940  143.0470 C   0  0  0  0  0  2  0  0  0  0  0  0
  185.6160  178.3550  141.5180 O   0  0  0  0  0  0  0  0  0  0  0  0
  185.0850  178.3280  143.8180 N   0  0  0  0  0  0  0  0  0  0  0  0
  185.5850  177.2350  144.6420 C   0  0  0  0  0  1  0  0  0  0  0  0
  184.9830  179.4380  144.6730 N   0  0  0  0  0  1  0  0  0  0  0  0
  191.9840  173.7480  143.3310 O   0  0  0  0  0  0  0  0  0  0  0  0
  192.8940  171.8630  144.4940 C   0  0  0  0  0  1  0  0  0  0  0  0
  192.1010  172.3520  143.2940 C   0  0  2  0  0  3  0  0  0  0  0  0
  192.7360  171.8840  141.9820 C   0  0  0  0  0  2  0  0  0  0  0  0
  192.0030  170.6900  141.3820 C   0  0  0  0  0  1  0  0  0  0  0  0
  192.5330  173.1550  138.2360 C   0  0  0  0  0  2  0  0  0  0  0  0
  193.2730  173.9770  139.0930 O   0  0  0  0  0  0  0  0  0  0  0  0
  193.7810  174.9730  138.2630 C   0  0  0  0  0  2  0  0  0  0  0  0
  195.2970  174.9830  138.3480 C   0  0  0  0  0  2  0  0  0  0  0  0
  195.7450  174.3770  139.6650 C   0  0  0  0  0  2  0  0  0  0  0  0
  196.5220  175.3100  140.3690 O   0  0  0  0  0  0  0  0  0  0  0  0
  195.4890  177.1360  141.3130 F   0  0  0  0  0  0  0  0  0  0  0  0
  195.7740  175.7820  141.4690 C   0  0  0  0  0  0  0  0  0  0  0  0
  194.5770  175.0850  141.5610 F   0  0  0  0  0  0  0  0  0  0  0  0
  194.9830  176.1370  144.6900 C   0  0  0  0  0  0  0  0  0  0  0  0
  197.4040  173.3580  142.4360 F   0  0  0  0  0  0  0  0  0  0  0  0
  196.6050  175.6010  142.7640 C   0  0  1  0  0  0  0  0  0  0  0  0
  196.4930  172.0390  145.8030 C   0  0  0  0  0  2  0  0  0  0  0  0
  195.3190  173.5920  143.2070 F   0  0  0  0  0  0  0  0  0  0  0  0
  196.6060  174.1240  143.2710 C   0  0  0  0  0  0  0  0  0  0  0  0
  193.8300  176.3140  144.3270 O   0  0  0  0  0  0  0  0  0  0  0  0
  197.0070  173.0380  146.6620 O   0  0  0  0  0  0  0  0  0  0  0  0
  196.3190  173.4750  145.5200 C   0  0  1  0  0  0  0  0  0  0  0  0
  195.2720  175.4400  145.9810 C   0  0  0  0  0  2  0  0  0  0  0  0
  197.1810  174.0780  144.5730 O   0  0  0  0  0  0  0  0  0  0  0  0
  197.9280  175.9480  142.4690 O   0  0  0  0  0  1  0  0  0  0  0  0
  195.0720  174.0590  145.8280 O   0  0  0  0  0  0  0  0  0  0  0  0
  196.1270  176.6030  143.8430 C   0  0  0  0  0  2  0  0  0  0  0  0
  1  5  1  0  0  0  0
  2  3  1  0  0  0  0
  3  5  2  0  0  0  0
  4  1  2  0  0  0  0
  5  7  1  0  0  0  0
  6  4  1  0  0  0  0
  6  2  2  0  0  0  0
  7 14  1  0  0  0  0
  8  9  1  0  0  0  0
 10 13  1  0  0  0  0
 10 11  2  0  0  0  0
 11 12  1  0  0  0  0
 12  9  2  0  0  0  0
 13  8  2  0  0  0  0
 14 18  2  0  0  0  0
 15 18  1  0  0  0  0
 15 16  2  0  0  0  0
 16 10  1  0  0  0  0
 17 28  1  6  0  0  0
 17 13  1  0  0  0  0
 18 17  1  0  0  0  0
 19 15  1  0  0  0  0
 20 24  1  0  0  0  0
 20 22  1  0  0  0  0
 21 23  1  0  0  0  0
 21 25  1  1  0  0  0
 22 19  1  1  0  0  0
 22 23  1  0  0  0  0
 24 21  1  0  0  0  0
 25 26  1  0  0  0  0
 25 27  1  0  0  0  0
 30 28  1  0  0  0  0
 30 29  1  1  0  0  0
 31 30  1  0  0  0  0
 32 31  1  0  0  0  0
 33  2  1  0  0  0  0
 33 34  1  0  0  0  0
 35 36  1  0  0  0  0
 35 34  1  0  0  0  0
 36 37  1  0  0  0  0
 37 38  1  0  0  0  0
 38 40  1  0  0  0  0
 39 40  1  0  0  0  0
 40 41  1  0  0  0  0
 40 44  1  0  0  0  0
 42 51  1  0  0  0  0
 43 47  1  0  0  0  0
 44 53  1  6  0  0  0
 44 47  1  0  0  0  0
 44 55  1  0  0  0  0
 45 49  1  0  0  0  0
 46 47  1  0  0  0  0
 47 52  1  0  0  0  0
 48 42  2  0  0  0  0
 50 45  1  6  0  0  0
 50 54  1  0  0  0  0
 50 49  1  0  0  0  0
 52 50  1  0  0  0  0
 54 51  1  0  0  0  0
 55 42  1  0  0  0  0
M  END
>  <MODEL>
2

>  <REMARK>
 VINA RESULT:      -7.7      1.975      3.651
  Name = 
  15 active torsions:
  status: ('A' for Active; 'I' for Inactive)
    1  A    between atoms: C_2  and  C_28
    2  A    between atoms: C_2  and  C_44
    3  A    between atoms: C_4  and  C_40
    4  A    between atoms: C_6  and  C_20
    5  A    between atoms: C_8  and  O_22
    6  A    between atoms: C_8  and  C_35
    7  A    between atoms: N_10  and  C_32
    8  A    between atoms: O_19  and  C_40
    9  A    between atoms: O_19  and  C_45
   10  A    between atoms: C_20  and  O_22
   11  A    between atoms: C_27  and  C_54
   12  A    between atoms: C_34  and  N_52
   13  A    between atoms: C_35  and  C_43
   14  A    between atoms: C_43  and  O_51
   15  A    between atoms: O_51  and  C_54
                            x       y       z     vdW  Elec       q    Type
                         _______ _______ _______ _____ _____    ______ ____

>  <TORSDO>
F 15

$$$$
=
 OpenBabel11052419333D

 55 60  0  0  1  0  0  0  0  0999 V2000
  190.2640  171.9660  142.3620 C   0  0  0  0  0  3  0  0  0  0  0  0
  188.9020  174.0020  141.0060 C   0  0  0  0  0  0  0  0  0  0  0  0
  190.2780  173.8300  140.8130 C   0  0  0  0  0  3  0  0  0  0  0  0
  188.8910  172.1360  142.5520 C   0  0  0  0  0  3  0  0  0  0  0  0
  190.9600  172.8070  141.4890 C   0  0  0  0  0  0  0  0  0  0  0  0
  188.2090  173.1490  141.8690 C   0  0  0  0  0  3  0  0  0  0  0  0
  192.4220  172.5980  141.2880 C   0  0  0  0  0  2  0  0  0  0  0  0
  195.6220  174.0060  136.0930 C   0  0  0  0  0  3  0  0  0  0  0  0
  196.8300  174.5600  135.6550 C   0  0  0  0  0  3  0  0  0  0  0  0
  196.0290  174.8780  138.3190 C   0  0  0  0  0  0  0  0  0  0  0  0
  197.2340  175.4350  137.8750 C   0  0  0  0  0  3  0  0  0  0  0  0
  197.6340  175.2780  136.5460 C   0  0  0  0  0  3  0  0  0  0  0  0
  195.2130  174.1630  137.4230 C   0  0  0  0  0  0  0  0  0  0  0  0
  192.7850  172.7680  139.8470 C   0  0  0  0  0  3  0  0  0  0  0  0
  194.6030  174.4510  140.2120 C   0  0  0  0  0  0  0  0  0  0  0  0
  195.6540  175.0150  139.6930 N   0  0  0  0  0  0  0  0  0  0  0  0
  193.8880  173.6060  137.8650 C   0  0  1  0  0  3  0  0  0  0  0  0
  193.7210  173.5930  139.3630 C   0  0  0  0  0  0  0  0  0  0  0  0
  194.3300  174.6270  141.6070 N   0  0  0  0  0  2  0  0  0  0  0  0
  194.7120  175.9100  143.6620 C   0  0  0  0  0  2  0  0  0  0  0  0
  196.2460  174.5730  144.6590 C   0  0  1  0  0  3  0  0  0  0  0  0
  195.3320  175.0890  142.5620 C   0  0  1  0  0  3  0  0  0  0  0  0
  195.8870  173.9390  143.3230 C   0  0  0  0  0  2  0  0  0  0  0  0
  195.5030  175.7660  144.8160 O   0  0  0  0  0  0  0  0  0  0  0  0
  195.9850  173.6650  145.7790 N   0  0  0  0  0  0  0  0  0  0  0  0
  195.6580  172.3490  145.2440 C   0  0  0  0  0  1  0  0  0  0  0  0
  197.1970  173.5090  146.4700 N   0  0  0  0  0  1  0  0  0  0  0  0
  192.8400  174.3280  137.2770 O   0  0  0  0  0  0  0  0  0  0  0  0
  192.2350  173.5230  135.1040 C   0  0  0  0  0  1  0  0  0  0  0  0
  192.0650  173.3730  136.6070 C   0  0  2  0  0  3  0  0  0  0  0  0
  190.5910  173.4740  137.0100 C   0  0  0  0  0  2  0  0  0  0  0  0
  190.0610  172.1650  137.5840 C   0  0  0  0  0  1  0  0  0  0  0  0
  188.1520  175.0410  140.2440 C   0  0  0  0  0  2  0  0  0  0  0  0
  187.2420  175.7010  141.0750 O   0  0  0  0  0  0  0  0  0  0  0  0
  187.2370  177.0140  140.6090 C   0  0  0  0  0  2  0  0  0  0  0  0
  186.1790  177.8130  141.3490 C   0  0  0  0  0  2  0  0  0  0  0  0
  186.8220  178.6100  142.4690 C   0  0  0  0  0  2  0  0  0  0  0  0
  188.0630  178.0400  142.7940 O   0  0  0  0  0  0  0  0  0  0  0  0
  187.2300  178.3250  144.9200 F   0  0  0  0  0  0  0  0  0  0  0  0
  187.9810  177.4930  144.0930 C   0  0  0  0  0  0  0  0  0  0  0  0
  187.3700  176.2470  144.0440 F   0  0  0  0  0  0  0  0  0  0  0  0
  189.1000  176.2120  146.9630 C   0  0  0  0  0  0  0  0  0  0  0  0
  190.5110  176.2320  142.8790 F   0  0  0  0  0  0  0  0  0  0  0  0
  189.4080  177.3720  144.6850 C   0  0  1  0  0  0  0  0  0  0  0  0
  192.1290  173.5680  144.9270 C   0  0  0  0  0  2  0  0  0  0  0  0
  189.2850  174.9840  144.2700 F   0  0  0  0  0  0  0  0  0  0  0  0
  190.1440  176.0810  144.2070 C   0  0  0  0  0  0  0  0  0  0  0  0
  187.9590  175.8310  147.1700 O   0  0  0  0  0  0  0  0  0  0  0  0
  192.7080  174.3130  145.9800 O   0  0  0  0  0  0  0  0  0  0  0  0
  191.4000  174.6550  145.6040 C   0  0  1  0  0  0  0  0  0  0  0  0
  190.2670  175.4010  147.4280 C   0  0  0  0  0  2  0  0  0  0  0  0
  191.3380  175.9160  144.9650 O   0  0  0  0  0  0  0  0  0  0  0  0
  190.1470  178.4710  144.2340 O   0  0  0  0  0  1  0  0  0  0  0  0
  190.4450  174.2980  146.5800 O   0  0  0  0  0  0  0  0  0  0  0  0
  189.3530  177.4930  146.2270 C   0  0  0  0  0  2  0  0  0  0  0  0
  1  4  1  0  0  0  0
  2  6  1  0  0  0  0
  3  2  2  0  0  0  0
  3  5  1  0  0  0  0
  5  1  2  0  0  0  0
  6  4  2  0  0  0  0
  7  5  1  0  0  0  0
  8 13  1  0  0  0  0
  9  8  2  0  0  0  0
  9 12  1  0  0  0  0
 10 16  1  0  0  0  0
 11 10  1  0  0  0  0
 12 11  2  0  0  0  0
 13 17  1  0  0  0  0
 13 10  2  0  0  0  0
 14  7  1  0  0  0  0
 15 19  1  0  0  0  0
 16 15  2  0  0  0  0
 17 28  1  6  0  0  0
 17 18  1  0  0  0  0
 18 14  2  0  0  0  0
 18 15  1  0  0  0  0
 20 24  1  0  0  0  0
 21 24  1  0  0  0  0
 21 25  1  1  0  0  0
 22 19  1  6  0  0  0
 22 23  1  0  0  0  0
 22 20  1  0  0  0  0
 23 21  1  0  0  0  0
 25 27  1  0  0  0  0
 26 25  1  0  0  0  0
 30 29  1  6  0  0  0
 30 31  1  0  0  0  0
 30 28  1  0  0  0  0
 31 32  1  0  0  0  0
 33  2  1  0  0  0  0
 33 34  1  0  0  0  0
 35 34  1  0  0  0  0
 35 36  1  0  0  0  0
 36 37  1  0  0  0  0
 37 38  1  0  0  0  0
 38 40  1  0  0  0  0
 40 44  1  0  0  0  0
 40 39  1  0  0  0  0
 41 40  1  0  0  0  0
 42 48  2  0  0  0  0
 42 51  1  0  0  0  0
 43 47  1  0  0  0  0
 44 53  1  6  0  0  0
 44 55  1  0  0  0  0
 45 49  1  0  0  0  0
 47 46  1  0  0  0  0
 47 44  1  0  0  0  0
 47 52  1  0  0  0  0
 50 45  1  6  0  0  0
 50 49  1  0  0  0  0
 50 54  1  0  0  0  0
 52 50  1  0  0  0  0
 54 51  1  0  0  0  0
 55 42  1  0  0  0  0
M  END
>  <MODEL>
3

>  <REMARK>
 VINA RESULT:      -7.7      3.548      9.099
  Name = 
  15 active torsions:
  status: ('A' for Active; 'I' for Inactive)
    1  A    between atoms: C_2  and  C_28
    2  A    between atoms: C_2  and  C_44
    3  A    between atoms: C_4  and  C_40
    4  A    between atoms: C_6  and  C_20
    5  A    between atoms: C_8  and  O_22
    6  A    between atoms: C_8  and  C_35
    7  A    between atoms: N_10  and  C_32
    8  A    between atoms: O_19  and  C_40
    9  A    between atoms: O_19  and  C_45
   10  A    between atoms: C_20  and  O_22
   11  A    between atoms: C_27  and  C_54
   12  A    between atoms: C_34  and  N_52
   13  A    between atoms: C_35  and  C_43
   14  A    between atoms: C_43  and  O_51
   15  A    between atoms: O_51  and  C_54
                            x       y       z     vdW  Elec       q    Type
                         _______ _______ _______ _____ _____    ______ ____

>  <TORSDO>
F 15

$$$$
=
 OpenBabel11052419333D

 55 60  0  0  1  0  0  0  0  0999 V2000
  197.1430  173.5570  139.2290 C   0  0  0  0  0  3  0  0  0  0  0  0
  196.5400  175.3830  141.2650 C   0  0  0  0  0  0  0  0  0  0  0  0
  195.8690  174.1560  141.2020 C   0  0  0  0  0  3  0  0  0  0  0  0
  197.8150  174.7800  139.2940 C   0  0  0  0  0  3  0  0  0  0  0  0
  196.1730  173.2390  140.1840 C   0  0  0  0  0  0  0  0  0  0  0  0
  197.5180  175.6890  140.3170 C   0  0  0  0  0  3  0  0  0  0  0  0
  195.4800  171.9220  140.1060 C   0  0  0  0  0  2  0  0  0  0  0  0
  189.2750  172.7570  139.9780 C   0  0  0  0  0  3  0  0  0  0  0  0
  188.1630  172.9020  140.8140 C   0  0  0  0  0  3  0  0  0  0  0  0
  190.5880  171.9740  141.8620 C   0  0  0  0  0  0  0  0  0  0  0  0
  189.4700  172.1150  142.6930 C   0  0  0  0  0  3  0  0  0  0  0  0
  188.2590  172.5770  142.1710 C   0  0  0  0  0  3  0  0  0  0  0  0
  190.4910  172.2910  140.4950 C   0  0  0  0  0  0  0  0  0  0  0  0
  194.0820  172.0920  139.6050 C   0  0  0  0  0  3  0  0  0  0  0  0
  192.9400  171.4690  141.7450 C   0  0  0  0  0  0  0  0  0  0  0  0
  191.8300  171.5380  142.4220 N   0  0  0  0  0  0  0  0  0  0  0  0
  191.6640  172.0910  139.5730 C   0  0  1  0  0  3  0  0  0  0  0  0
  192.9620  171.8730  140.3060 C   0  0  0  0  0  0  0  0  0  0  0  0
  194.1380  171.0470  142.4070 N   0  0  0  0  0  2  0  0  0  0  0  0
  195.1600  169.8970  144.3170 C   0  0  0  0  0  2  0  0  0  0  0  0
  195.7540  171.6950  145.5610 C   0  0  1  0  0  3  0  0  0  0  0  0
  194.2840  171.0330  143.8580 C   0  0  1  0  0  3  0  0  0  0  0  0
  195.0670  172.2150  144.3070 C   0  0  0  0  0  2  0  0  0  0  0  0
  195.7850  170.2820  145.5170 O   0  0  0  0  0  0  0  0  0  0  0  0
  197.1130  172.2260  145.6960 N   0  0  0  0  0  0  0  0  0  0  0  0
  197.6350  172.5110  144.3660 C   0  0  0  0  0  1  0  0  0  0  0  0
  197.0040  173.4700  146.3410 N   0  0  0  0  0  1  0  0  0  0  0  0
  191.4210  171.0150  138.7090 O   0  0  0  0  0  0  0  0  0  0  0  0
  189.9110  171.0110  136.8490 C   0  0  0  0  0  1  0  0  0  0  0  0
  191.1750  171.5960  137.4570 C   0  0  2  0  0  3  0  0  0  0  0  0
  192.3730  171.4210  136.5200 C   0  0  0  0  0  2  0  0  0  0  0  0
  192.9980  172.7550  136.1300 C   0  0  0  0  0  1  0  0  0  0  0  0
  196.2750  176.3360  142.3800 C   0  0  0  0  0  2  0  0  0  0  0  0
  196.3290  175.6790  143.6140 O   0  0  0  0  0  0  0  0  0  0  0  0
  195.4000  176.3510  144.4040 C   0  0  0  0  0  2  0  0  0  0  0  0
  194.1420  175.5110  144.5370 C   0  0  0  0  0  2  0  0  0  0  0  0
  193.4510  175.8200  145.8530 C   0  0  0  0  0  2  0  0  0  0  0  0
  192.4540  174.8610  146.0930 O   0  0  0  0  0  0  0  0  0  0  0  0
  191.1510  175.1960  147.9590 F   0  0  0  0  0  0  0  0  0  0  0  0
  191.3170  175.5160  146.6140 C   0  0  0  0  0  0  0  0  0  0  0  0
  191.4690  176.8910  146.5020 F   0  0  0  0  0  0  0  0  0  0  0  0
  188.2000  176.7000  146.4990 C   0  0  0  0  0  0  0  0  0  0  0  0
  190.9340  175.0320  143.6000 F   0  0  0  0  0  0  0  0  0  0  0  0
  190.0600  175.0460  145.8390 C   0  0  1  0  0  0  0  0  0  0  0  0
  188.1540  176.9330  141.9990 C   0  0  0  0  0  2  0  0  0  0  0  0
  190.3010  177.0080  144.4310 F   0  0  0  0  0  0  0  0  0  0  0  0
  189.9870  175.6490  144.4010 C   0  0  0  0  0  0  0  0  0  0  0  0
  188.5920  177.6340  147.1820 O   0  0  0  0  0  0  0  0  0  0  0  0
  187.0120  176.2680  142.5010 O   0  0  0  0  0  0  0  0  0  0  0  0
  188.0390  176.5440  143.4160 C   0  0  1  0  0  0  0  0  0  0  0  0
  187.1360  176.9080  145.4700 C   0  0  0  0  0  2  0  0  0  0  0  0
  188.7070  175.3710  143.8420 O   0  0  0  0  0  0  0  0  0  0  0  0
  190.1380  173.6550  145.7110 O   0  0  0  0  0  1  0  0  0  0  0  0
  187.6830  177.5440  144.3450 O   0  0  0  0  0  0  0  0  0  0  0  0
  188.7870  175.3320  146.6730 C   0  0  0  0  0  2  0  0  0  0  0  0
  1  4  2  0  0  0  0
  1  5  1  0  0  0  0
  2 33  1  0  0  0  0
  3  2  1  0  0  0  0
  4  6  1  0  0  0  0
  5  3  2  0  0  0  0
  6  2  2  0  0  0  0
  7  5  1  0  0  0  0
  8 13  2  0  0  0  0
  8  9  1  0  0  0  0
  9 12  2  0  0  0  0
 10 16  1  0  0  0  0
 10 11  2  0  0  0  0
 12 11  1  0  0  0  0
 13 10  1  0  0  0  0
 14  7  1  0  0  0  0
 14 18  2  0  0  0  0
 15 19  1  0  0  0  0
 15 16  2  0  0  0  0
 17 28  1  1  0  0  0
 17 18  1  0  0  0  0
 17 13  1  0  0  0  0
 18 15  1  0  0  0  0
 20 24  1  0  0  0  0
 21 25  1  6  0  0  0
 22 19  1  6  0  0  0
 22 23  1  0  0  0  0
 22 20  1  0  0  0  0
 23 21  1  0  0  0  0
 24 21  1  0  0  0  0
 25 27  1  0  0  0  0
 26 25  1  0  0  0  0
 30 29  1  6  0  0  0
 30 28  1  0  0  0  0
 31 30  1  0  0  0  0
 32 31  1  0  0  0  0
 33 34  1  0  0  0  0
 34 35  1  0  0  0  0
 35 36  1  0  0  0  0
 36 37  1  0  0  0  0
 37 38  1  0  0  0  0
 38 40  1  0  0  0  0
 40 39  1  0  0  0  0
 41 40  1  0  0  0  0
 42 55  1  0  0  0  0
 42 48  2  0  0  0  0
 43 47  1  0  0  0  0
 44 53  1  6  0  0  0
 44 40  1  0  0  0  0
 44 55  1  0  0  0  0
 45 49  1  0  0  0  0
 47 46  1  0  0  0  0
 47 44  1  0  0  0  0
 49 50  1  0  0  0  0
 50 45  1  6  0  0  0
 50 52  1  0  0  0  0
 50 54  1  0  0  0  0
 51 42  1  0  0  0  0
 52 47  1  0  0  0  0
 54 51  1  0  0  0  0
M  END
>  <MODEL>
4

>  <REMARK>
 VINA RESULT:      -7.5      3.473      9.204
  Name = 
  15 active torsions:
  status: ('A' for Active; 'I' for Inactive)
    1  A    between atoms: C_2  and  C_28
    2  A    between atoms: C_2  and  C_44
    3  A    between atoms: C_4  and  C_40
    4  A    between atoms: C_6  and  C_20
    5  A    between atoms: C_8  and  O_22
    6  A    between atoms: C_8  and  C_35
    7  A    between atoms: N_10  and  C_32
    8  A    between atoms: O_19  and  C_40
    9  A    between atoms: O_19  and  C_45
   10  A    between atoms: C_20  and  O_22
   11  A    between atoms: C_27  and  C_54
   12  A    between atoms: C_34  and  N_52
   13  A    between atoms: C_35  and  C_43
   14  A    between atoms: C_43  and  O_51
   15  A    between atoms: O_51  and  C_54
                            x       y       z     vdW  Elec       q    Type
                         _______ _______ _______ _____ _____    ______ ____

>  <TORSDO>
F 15

$$$$
=
 OpenBabel11052419333D

 55 60  0  0  1  0  0  0  0  0999 V2000
  189.3550  173.2890  143.0600 C   0  0  0  0  0  3  0  0  0  0  0  0
  190.5640  172.3080  140.7320 C   0  0  0  0  0  0  0  0  0  0  0  0
  190.5650  173.6820  140.9960 C   0  0  0  0  0  3  0  0  0  0  0  0
  189.3570  171.9170  142.7970 C   0  0  0  0  0  3  0  0  0  0  0  0
  189.9620  174.1740  142.1650 C   0  0  0  0  0  0  0  0  0  0  0  0
  189.9680  171.4270  141.6370 C   0  0  0  0  0  3  0  0  0  0  0  0
  189.9630  175.6330  142.4720 C   0  0  0  0  0  2  0  0  0  0  0  0
  186.8930  177.3970  147.6370 C   0  0  0  0  0  3  0  0  0  0  0  0
  185.7250  178.0390  148.0630 C   0  0  0  0  0  3  0  0  0  0  0  0
  186.5280  178.2250  145.3860 C   0  0  0  0  0  0  0  0  0  0  0  0
  185.3630  178.8710  145.8190 C   0  0  0  0  0  3  0  0  0  0  0  0
  184.9620  178.7800  147.1540 C   0  0  0  0  0  3  0  0  0  0  0  0
  187.3020  177.4880  146.3000 C   0  0  0  0  0  0  0  0  0  0  0  0
  189.6210  175.8690  143.9090 C   0  0  0  0  0  3  0  0  0  0  0  0
  187.9110  177.6520  143.5010 C   0  0  0  0  0  0  0  0  0  0  0  0
  186.9020  178.2970  144.0070 N   0  0  0  0  0  0  0  0  0  0  0  0
  188.5870  176.8340  145.8690 C   0  0  1  0  0  3  0  0  0  0  0  0
  188.7430  176.7660  144.3720 C   0  0  0  0  0  0  0  0  0  0  0  0
  188.1850  177.7680  142.1000 N   0  0  0  0  0  2  0  0  0  0  0  0
  186.7030  177.1630  140.2410 C   0  0  0  0  0  2  0  0  0  0  0  0
  184.8960  178.4190  140.7810 C   0  0  1  0  0  3  0  0  0  0  0  0
  187.2090  178.2650  141.1360 C   0  0  1  0  0  3  0  0  0  0  0  0
  185.9630  178.6780  141.8340 C   0  0  0  0  0  2  0  0  0  0  0  0
  185.3960  177.4910  139.8390 O   0  0  0  0  0  0  0  0  0  0  0  0
  183.6560  177.9140  141.3760 N   0  0  0  0  0  0  0  0  0  0  0  0
  183.4260  178.6130  142.6350 C   0  0  0  0  0  1  0  0  0  0  0  0
  182.6070  178.3000  140.5260 N   0  0  0  0  0  1  0  0  0  0  0  0
  189.6820  177.5060  146.4300 O   0  0  0  0  0  0  0  0  0  0  0  0
  191.1930  177.4180  148.2860 C   0  0  0  0  0  1  0  0  0  0  0  0
  190.0430  176.7480  147.5530 C   0  0  2  0  0  3  0  0  0  0  0  0
  190.3970  175.3110  147.1600 C   0  0  0  0  0  2  0  0  0  0  0  0
  191.7880  174.9110  147.6380 C   0  0  0  0  0  1  0  0  0  0  0  0
  191.2590  171.7660  139.5300 C   0  0  0  0  0  2  0  0  0  0  0  0
  192.0670  172.7470  138.9440 O   0  0  0  0  0  0  0  0  0  0  0  0
  193.2650  172.0910  138.6730 C   0  0  0  0  0  2  0  0  0  0  0  0
  193.6930  171.2890  139.8890 C   0  0  0  0  0  2  0  0  0  0  0  0
  194.6360  172.1130  140.7470 C   0  0  0  0  0  2  0  0  0  0  0  0
  193.9280  172.6580  141.8280 O   0  0  0  0  0  0  0  0  0  0  0  0
  193.0500  171.0520  143.2220 F   0  0  0  0  0  0  0  0  0  0  0  0
  194.1580  171.8570  142.9680 C   0  0  0  0  0  0  0  0  0  0  0  0
  195.2600  171.0390  142.7570 F   0  0  0  0  0  0  0  0  0  0  0  0
  196.2390  174.4140  143.4740 C   0  0  0  0  0  0  0  0  0  0  0  0
  192.1480  173.5540  144.5630 F   0  0  0  0  0  0  0  0  0  0  0  0
  194.3910  172.7730  144.1960 C   0  0  1  0  0  0  0  0  0  0  0  0
  192.9550  177.1860  144.8300 C   0  0  0  0  0  2  0  0  0  0  0  0
  193.3250  174.5640  142.9530 F   0  0  0  0  0  0  0  0  0  0  0  0
  193.4170  173.9930  144.2220 C   0  0  0  0  0  0  0  0  0  0  0  0
  196.5480  174.3200  142.2970 O   0  0  0  0  0  0  0  0  0  0  0  0
  194.0430  177.1820  145.7320 O   0  0  0  0  0  0  0  0  0  0  0  0
  194.0530  176.2080  144.7220 C   0  0  1  0  0  0  0  0  0  0  0  0
  196.2030  175.7500  144.1440 C   0  0  0  0  0  2  0  0  0  0  0  0
  193.8400  174.9050  145.2310 O   0  0  0  0  0  0  0  0  0  0  0  0
  194.1460  172.0110  145.3430 O   0  0  0  0  0  1  0  0  0  0  0  0
  195.0500  176.4450  143.7520 O   0  0  0  0  0  0  0  0  0  0  0  0
  195.8790  173.1930  144.2660 C   0  0  0  0  0  2  0  0  0  0  0  0
  2  3  2  0  0  0  0
  2  6  1  0  0  0  0
  3  5  1  0  0  0  0
  4  1  1  0  0  0  0
  5  7  1  0  0  0  0
  5  1  2  0  0  0  0
  6  4  2  0  0  0  0
  7 14  1  0  0  0  0
  8  9  1  0  0  0  0
 10 11  2  0  0  0  0
 10 13  1  0  0  0  0
 11 12  1  0  0  0  0
 12  9  2  0  0  0  0
 13  8  2  0  0  0  0
 14 18  2  0  0  0  0
 15 16  2  0  0  0  0
 15 18  1  0  0  0  0
 16 10  1  0  0  0  0
 17 13  1  0  0  0  0
 17 28  1  1  0  0  0
 18 17  1  0  0  0  0
 19 15  1  0  0  0  0
 20 22  1  0  0  0  0
 21 25  1  1  0  0  0
 21 23  1  0  0  0  0
 22 23  1  0  0  0  0
 22 19  1  1  0  0  0
 24 20  1  0  0  0  0
 24 21  1  0  0  0  0
 25 26  1  0  0  0  0
 27 25  1  0  0  0  0
 28 30  1  0  0  0  0
 30 29  1  6  0  0  0
 31 30  1  0  0  0  0
 31 32  1  0  0  0  0
 33  2  1  0  0  0  0
 34 33  1  0  0  0  0
 35 34  1  0  0  0  0
 35 36  1  0  0  0  0
 36 37  1  0  0  0  0
 37 38  1  0  0  0  0
 38 40  1  0  0  0  0
 40 39  1  0  0  0  0
 40 44  1  0  0  0  0
 41 40  1  0  0  0  0
 42 51  1  0  0  0  0
 42 55  1  0  0  0  0
 44 47  1  0  0  0  0
 44 55  1  0  0  0  0
 44 53  1  1  0  0  0
 45 49  1  0  0  0  0
 46 47  1  0  0  0  0
 47 43  1  0  0  0  0
 47 52  1  0  0  0  0
 48 42  2  0  0  0  0
 50 45  1  6  0  0  0
 50 52  1  0  0  0  0
 50 49  1  0  0  0  0
 54 51  1  0  0  0  0
 54 50  1  0  0  0  0
M  END
>  <MODEL>
5

>  <REMARK>
 VINA RESULT:      -7.5      1.411      2.430
  Name = 
  15 active torsions:
  status: ('A' for Active; 'I' for Inactive)
    1  A    between atoms: C_2  and  C_28
    2  A    between atoms: C_2  and  C_44
    3  A    between atoms: C_4  and  C_40
    4  A    between atoms: C_6  and  C_20
    5  A    between atoms: C_8  and  O_22
    6  A    between atoms: C_8  and  C_35
    7  A    between atoms: N_10  and  C_32
    8  A    between atoms: O_19  and  C_40
    9  A    between atoms: O_19  and  C_45
   10  A    between atoms: C_20  and  O_22
   11  A    between atoms: C_27  and  C_54
   12  A    between atoms: C_34  and  N_52
   13  A    between atoms: C_35  and  C_43
   14  A    between atoms: C_43  and  O_51
   15  A    between atoms: O_51  and  C_54
                            x       y       z     vdW  Elec       q    Type
                         _______ _______ _______ _____ _____    ______ ____

>  <TORSDO>
F 15

$$$$
=
 OpenBabel11052419333D

 55 60  0  0  1  0  0  0  0  0999 V2000
  191.1320  171.5700  142.2830 C   0  0  0  0  0  3  0  0  0  0  0  0
  189.3090  173.4970  141.3850 C   0  0  0  0  0  0  0  0  0  0  0  0
  190.6350  173.5240  140.9380 C   0  0  0  0  0  3  0  0  0  0  0  0
  189.8080  171.5420  142.7270 C   0  0  0  0  0  3  0  0  0  0  0  0
  191.5480  172.5560  141.3850 C   0  0  0  0  0  0  0  0  0  0  0  0
  188.8950  172.5010  142.2720 C   0  0  0  0  0  3  0  0  0  0  0  0
  192.9620  172.5590  140.9110 C   0  0  0  0  0  2  0  0  0  0  0  0
  195.1290  174.6340  135.4150 C   0  0  0  0  0  3  0  0  0  0  0  0
  196.2640  175.1890  134.8140 C   0  0  0  0  0  3  0  0  0  0  0  0
  196.0600  175.1060  137.6050 C   0  0  0  0  0  0  0  0  0  0  0  0
  197.1900  175.6660  136.9980 C   0  0  0  0  0  3  0  0  0  0  0  0
  197.2930  175.7090  135.6050 C   0  0  0  0  0  3  0  0  0  0  0  0
  195.0190  174.5920  136.8110 C   0  0  0  0  0  0  0  0  0  0  0  0
  193.0320  172.9440  139.4680 C   0  0  0  0  0  3  0  0  0  0  0  0
  195.0240  174.4480  139.6770 C   0  0  0  0  0  0  0  0  0  0  0  0
  195.9900  175.0350  139.0320 N   0  0  0  0  0  0  0  0  0  0  0  0
  193.7700  174.0390  137.4420 C   0  0  1  0  0  3  0  0  0  0  0  0
  193.9150  173.7890  138.9210 C   0  0  0  0  0  0  0  0  0  0  0  0
  195.0610  174.4060  141.1080 N   0  0  0  0  0  2  0  0  0  0  0  0
  195.9990  175.5160  143.0840 C   0  0  0  0  0  2  0  0  0  0  0  0
  197.4270  173.9000  143.7780 C   0  0  1  0  0  3  0  0  0  0  0  0
  196.2740  174.6530  141.8800 C   0  0  1  0  0  3  0  0  0  0  0  0
  196.7440  173.3940  142.5160 C   0  0  0  0  0  2  0  0  0  0  0  0
  196.9370  175.1910  144.0800 O   0  0  0  0  0  0  0  0  0  0  0  0
  197.2080  172.9980  144.9130 N   0  0  0  0  0  0  0  0  0  0  0  0
  197.1910  173.7880  146.1370 C   0  0  0  0  0  1  0  0  0  0  0  0
  195.9110  172.4750  144.7750 N   0  0  0  0  0  1  0  0  0  0  0  0
  192.6900  174.9010  137.2110 O   0  0  0  0  0  0  0  0  0  0  0  0
  191.4840  174.7950  135.1440 C   0  0  0  0  0  1  0  0  0  0  0  0
  191.7600  174.1410  136.4870 C   0  0  2  0  0  3  0  0  0  0  0  0
  190.4680  173.9430  137.2830 C   0  0  0  0  0  2  0  0  0  0  0  0
  189.6910  172.7150  136.8210 C   0  0  0  0  0  1  0  0  0  0  0  0
  188.3130  174.4780  140.8670 C   0  0  0  0  0  2  0  0  0  0  0  0
  187.4370  174.8740  141.8830 O   0  0  0  0  0  0  0  0  0  0  0  0
  187.3160  176.2520  141.7160 C   0  0  0  0  0  2  0  0  0  0  0  0
  186.2650  176.7890  142.6720 C   0  0  0  0  0  2  0  0  0  0  0  0
  186.9360  177.5140  143.8240 C   0  0  0  0  0  2  0  0  0  0  0  0
  187.3790  176.5760  144.7700 O   0  0  0  0  0  0  0  0  0  0  0  0
  188.9860  178.2210  144.8610 F   0  0  0  0  0  0  0  0  0  0  0  0
  188.3880  177.1730  145.5570 C   0  0  0  0  0  0  0  0  0  0  0  0
  187.8390  177.6760  146.7290 F   0  0  0  0  0  0  0  0  0  0  0  0
  190.7700  175.7840  143.6790 C   0  0  0  0  0  0  0  0  0  0  0  0
  190.5300  177.1660  147.7650 F   0  0  0  0  0  0  0  0  0  0  0  0
  189.4740  176.1150  145.8790 C   0  0  1  0  0  0  0  0  0  0  0  0
  194.0520  176.7920  146.5970 C   0  0  0  0  0  2  0  0  0  0  0  0
  191.1230  177.8900  145.7350 F   0  0  0  0  0  0  0  0  0  0  0  0
  190.7730  176.7540  146.4650 C   0  0  0  0  0  0  0  0  0  0  0  0
  190.4430  176.5590  142.7940 O   0  0  0  0  0  0  0  0  0  0  0  0
  194.0950  175.4340  146.2110 O   0  0  0  0  0  0  0  0  0  0  0  0
  192.9650  176.1690  145.8210 C   0  0  1  0  0  0  0  0  0  0  0  0
  192.1980  175.3710  143.8360 C   0  0  0  0  0  2  0  0  0  0  0  0
  191.7980  175.7660  146.5120 O   0  0  0  0  0  0  0  0  0  0  0  0
  188.9500  175.2550  146.8500 O   0  0  0  0  0  1  0  0  0  0  0  0
  192.9280  176.4100  144.4310 O   0  0  0  0  0  0  0  0  0  0  0  0
  189.7470  175.2420  144.6310 C   0  0  0  0  0  2  0  0  0  0  0  0
  1  4  1  0  0  0  0
  2  6  1  0  0  0  0
  3  2  2  0  0  0  0
  3  5  1  0  0  0  0
  5  1  2  0  0  0  0
  6  4  2  0  0  0  0
  7  5  1  0  0  0  0
  8 13  1  0  0  0  0
  9  8  2  0  0  0  0
  9 12  1  0  0  0  0
 10 16  1  0  0  0  0
 11 10  1  0  0  0  0
 12 11  2  0  0  0  0
 13 17  1  0  0  0  0
 13 10  2  0  0  0  0
 14  7  1  0  0  0  0
 15 19  1  0  0  0  0
 16 15  2  0  0  0  0
 17 28  1  1  0  0  0
 17 18  1  0  0  0  0
 18 14  2  0  0  0  0
 18 15  1  0  0  0  0
 20 24  1  0  0  0  0
 21 24  1  0  0  0  0
 21 25  1  1  0  0  0
 22 19  1  1  0  0  0
 22 23  1  0  0  0  0
 22 20  1  0  0  0  0
 23 21  1  0  0  0  0
 25 26  1  0  0  0  0
 27 25  1  0  0  0  0
 30 29  1  6  0  0  0
 30 28  1  0  0  0  0
 30 31  1  0  0  0  0
 32 31  1  0  0  0  0
 33  2  1  0  0  0  0
 33 34  1  0  0  0  0
 35 34  1  0  0  0  0
 35 36  1  0  0  0  0
 36 37  1  0  0  0  0
 37 38  1  0  0  0  0
 38 40  1  0  0  0  0
 39 40  1  0  0  0  0
 40 44  1  0  0  0  0
 40 41  1  0  0  0  0
 42 51  1  0  0  0  0
 42 55  1  0  0  0  0
 44 47  1  0  0  0  0
 44 53  1  1  0  0  0
 46 47  1  0  0  0  0
 47 52  1  0  0  0  0
 47 43  1  0  0  0  0
 48 42  2  0  0  0  0
 49 45  1  0  0  0  0
 50 49  1  0  0  0  0
 50 52  1  0  0  0  0
 50 45  1  1  0  0  0
 51 54  1  0  0  0  0
 54 50  1  0  0  0  0
 55 44  1  0  0  0  0
M  END
>  <MODEL>
6

>  <REMARK>
 VINA RESULT:      -7.4      3.959      9.341
  Name = 
  15 active torsions:
  status: ('A' for Active; 'I' for Inactive)
    1  A    between atoms: C_2  and  C_28
    2  A    between atoms: C_2  and  C_44
    3  A    between atoms: C_4  and  C_40
    4  A    between atoms: C_6  and  C_20
    5  A    between atoms: C_8  and  O_22
    6  A    between atoms: C_8  and  C_35
    7  A    between atoms: N_10  and  C_32
    8  A    between atoms: O_19  and  C_40
    9  A    between atoms: O_19  and  C_45
   10  A    between atoms: C_20  and  O_22
   11  A    between atoms: C_27  and  C_54
   12  A    between atoms: C_34  and  N_52
   13  A    between atoms: C_35  and  C_43
   14  A    between atoms: C_43  and  O_51
   15  A    between atoms: O_51  and  C_54
                            x       y       z     vdW  Elec       q    Type
                         _______ _______ _______ _____ _____    ______ ____

>  <TORSDO>
F 15

$$$$
=
 OpenBabel11052419333D

 55 60  0  0  1  0  0  0  0  0999 V2000
  189.5780  173.6630  139.7430 C   0  0  0  0  0  3  0  0  0  0  0  0
  190.4030  171.7790  141.6440 C   0  0  0  0  0  0  0  0  0  0  0  0
  189.6700  172.9030  142.0430 C   0  0  0  0  0  3  0  0  0  0  0  0
  190.3070  172.5400  139.3450 C   0  0  0  0  0  3  0  0  0  0  0  0
  189.2530  173.8460  141.0900 C   0  0  0  0  0  0  0  0  0  0  0  0
  190.7120  171.5950  140.2950 C   0  0  0  0  0  3  0  0  0  0  0  0
  188.4610  175.0430  141.4920 C   0  0  0  0  0  2  0  0  0  0  0  0
  187.1820  177.0760  147.2750 C   0  0  0  0  0  3  0  0  0  0  0  0
  186.3270  177.9290  147.9820 C   0  0  0  0  0  3  0  0  0  0  0  0
  186.4990  178.1190  145.1940 C   0  0  0  0  0  0  0  0  0  0  0  0
  185.6500  178.9740  145.9070 C   0  0  0  0  0  3  0  0  0  0  0  0
  185.5640  178.8800  147.2980 C   0  0  0  0  0  3  0  0  0  0  0  0
  187.2750  177.1670  145.8800 C   0  0  0  0  0  0  0  0  0  0  0  0
  188.5300  175.2480  142.9720 C   0  0  0  0  0  3  0  0  0  0  0  0
  187.2300  177.3870  143.0190 C   0  0  0  0  0  0  0  0  0  0  0  0
  186.5440  178.2020  143.7660 N   0  0  0  0  0  0  0  0  0  0  0  0
  188.2360  176.2790  145.1390 C   0  0  1  0  0  3  0  0  0  0  0  0
  188.0160  176.2820  143.6480 C   0  0  0  0  0  0  0  0  0  0  0  0
  187.1860  177.5370  141.5960 N   0  0  0  0  0  2  0  0  0  0  0  0
  185.5540  177.5230  139.7650 C   0  0  0  0  0  2  0  0  0  0  0  0
  183.8230  178.5580  140.8000 C   0  0  1  0  0  3  0  0  0  0  0  0
  186.1520  178.3020  140.9080 C   0  0  1  0  0  3  0  0  0  0  0  0
  184.9730  178.4860  141.7940 C   0  0  0  0  0  2  0  0  0  0  0  0
  184.2280  177.9570  139.5850 O   0  0  0  0  0  0  0  0  0  0  0  0
  182.6200  177.8970  141.3130 N   0  0  0  0  0  0  0  0  0  0  0  0
  182.0590  178.7170  142.3790 C   0  0  0  0  0  1  0  0  0  0  0  0
  181.6720  177.9140  140.2770 N   0  0  0  0  0  1  0  0  0  0  0  0
  189.5570  176.6530  145.4240 O   0  0  0  0  0  0  0  0  0  0  0  0
  189.2040  174.5650  146.5440 C   0  0  0  0  0  1  0  0  0  0  0  0
  190.1930  175.4730  145.8340 C   0  0  2  0  0  3  0  0  0  0  0  0
  191.4040  175.7760  146.7210 C   0  0  0  0  0  2  0  0  0  0  0  0
  191.0430  176.6780  147.8960 C   0  0  0  0  0  1  0  0  0  0  0  0
  190.7930  170.7360  142.6350 C   0  0  0  0  0  2  0  0  0  0  0  0
  191.4650  169.6840  142.0040 O   0  0  0  0  0  0  0  0  0  0  0  0
  192.4560  169.3140  142.9100 C   0  0  0  0  0  2  0  0  0  0  0  0
  193.7370  170.0670  142.5980 C   0  0  0  0  0  2  0  0  0  0  0  0
  194.6440  170.0700  143.8150 C   0  0  0  0  0  2  0  0  0  0  0  0
  195.6070  171.0820  143.6780 O   0  0  0  0  0  0  0  0  0  0  0  0
  194.3200  171.9570  145.3730 F   0  0  0  0  0  0  0  0  0  0  0  0
  195.6090  171.8640  144.8540 C   0  0  0  0  0  0  0  0  0  0  0  0
  196.4300  171.2790  145.8090 F   0  0  0  0  0  0  0  0  0  0  0  0
  194.3130  174.2810  142.9550 C   0  0  0  0  0  0  0  0  0  0  0  0
  196.4040  174.1660  146.7340 F   0  0  0  0  0  0  0  0  0  0  0  0
  196.1070  173.2920  144.5150 C   0  0  1  0  0  0  0  0  0  0  0  0
  194.5720  177.3740  146.2230 C   0  0  0  0  0  2  0  0  0  0  0  0
  194.3230  174.1530  145.9170 F   0  0  0  0  0  0  0  0  0  0  0  0
  195.6620  174.3460  145.5770 C   0  0  0  0  0  0  0  0  0  0  0  0
  193.3280  173.5710  142.8260 O   0  0  0  0  0  0  0  0  0  0  0  0
  195.1290  177.8440  145.0110 O   0  0  0  0  0  0  0  0  0  0  0  0
  194.7990  176.4810  145.0720 C   0  0  1  0  0  0  0  0  0  0  0  0
  194.1740  175.7680  143.0050 C   0  0  0  0  0  2  0  0  0  0  0  0
  195.9450  175.6520  145.0860 O   0  0  0  0  0  0  0  0  0  0  0  0
  197.5060  173.2610  144.5090 O   0  0  0  0  0  1  0  0  0  0  0  0
  193.6890  176.1560  144.2630 O   0  0  0  0  0  0  0  0  0  0  0  0
  195.6770  173.6730  143.0780 C   0  0  0  0  0  2  0  0  0  0  0  0
  1  5  1  0  0  0  0
  2  3  1  0  0  0  0
  2 33  1  0  0  0  0
  4  1  2  0  0  0  0
  4  6  1  0  0  0  0
  5  7  1  0  0  0  0
  5  3  2  0  0  0  0
  6  2  2  0  0  0  0
  7 14  1  0  0  0  0
  8  9  1  0  0  0  0
 10 13  1  0  0  0  0
 10 11  2  0  0  0  0
 11 12  1  0  0  0  0
 12  9  2  0  0  0  0
 13  8  2  0  0  0  0
 14 18  2  0  0  0  0
 15 18  1  0  0  0  0
 15 16  2  0  0  0  0
 16 10  1  0  0  0  0
 17 28  1  6  0  0  0
 17 13  1  0  0  0  0
 18 17  1  0  0  0  0
 19 15  1  0  0  0  0
 20 22  1  0  0  0  0
 21 25  1  1  0  0  0
 21 23  1  0  0  0  0
 22 19  1  1  0  0  0
 22 23  1  0  0  0  0
 24 20  1  0  0  0  0
 24 21  1  0  0  0  0
 25 26  1  0  0  0  0
 27 25  1  0  0  0  0
 28 30  1  0  0  0  0
 30 29  1  1  0  0  0
 30 31  1  0  0  0  0
 31 32  1  0  0  0  0
 34 33  1  0  0  0  0
 34 35  1  0  0  0  0
 36 35  1  0  0  0  0
 36 37  1  0  0  0  0
 38 37  1  0  0  0  0
 38 40  1  0  0  0  0
 40 39  1  0  0  0  0
 40 41  1  0  0  0  0
 42 51  1  0  0  0  0
 42 55  1  0  0  0  0
 44 53  1  1  0  0  0
 44 40  1  0  0  0  0
 44 47  1  0  0  0  0
 47 46  1  0  0  0  0
 47 43  1  0  0  0  0
 48 42  2  0  0  0  0
 49 50  1  0  0  0  0
 49 45  1  0  0  0  0
 50 52  1  0  0  0  0
 50 45  1  1  0  0  0
 51 54  1  0  0  0  0
 52 47  1  0  0  0  0
 54 50  1  0  0  0  0
 55 44  1  0  0  0  0
M  END
>  <MODEL>
7

>  <REMARK>
 VINA RESULT:      -7.3      1.811      2.926
  Name = 
  15 active torsions:
  status: ('A' for Active; 'I' for Inactive)
    1  A    between atoms: C_2  and  C_28
    2  A    between atoms: C_2  and  C_44
    3  A    between atoms: C_4  and  C_40
    4  A    between atoms: C_6  and  C_20
    5  A    between atoms: C_8  and  O_22
    6  A    between atoms: C_8  and  C_35
    7  A    between atoms: N_10  and  C_32
    8  A    between atoms: O_19  and  C_40
    9  A    between atoms: O_19  and  C_45
   10  A    between atoms: C_20  and  O_22
   11  A    between atoms: C_27  and  C_54
   12  A    between atoms: C_34  and  N_52
   13  A    between atoms: C_35  and  C_43
   14  A    between atoms: C_43  and  O_51
   15  A    between atoms: O_51  and  C_54
                            x       y       z     vdW  Elec       q    Type
                         _______ _______ _______ _____ _____    ______ ____

>  <TORSDO>
F 15

$$$$
=
 OpenBabel11052419333D

 55 60  0  0  1  0  0  0  0  0999 V2000
  190.8520  173.3350  143.2170 C   0  0  0  0  0  3  0  0  0  0  0  0
  189.1280  174.6430  141.4390 C   0  0  0  0  0  0  0  0  0  0  0  0
  190.2640  173.9820  140.9560 C   0  0  0  0  0  3  0  0  0  0  0  0
  189.7160  173.9910  143.6970 C   0  0  0  0  0  3  0  0  0  0  0  0
  191.1260  173.3230  141.8470 C   0  0  0  0  0  0  0  0  0  0  0  0
  188.8510  174.6380  142.8070 C   0  0  0  0  0  3  0  0  0  0  0  0
  192.3340  172.6030  141.3520 C   0  0  0  0  0  2  0  0  0  0  0  0
  195.0010  174.2440  135.9300 C   0  0  0  0  0  3  0  0  0  0  0  0
  196.1800  174.7750  135.3940 C   0  0  0  0  0  3  0  0  0  0  0  0
  195.6990  174.9320  138.1490 C   0  0  0  0  0  0  0  0  0  0  0  0
  196.8740  175.4680  137.6070 C   0  0  0  0  0  3  0  0  0  0  0  0
  197.1150  175.3900  136.2330 C   0  0  0  0  0  3  0  0  0  0  0  0
  194.7530  174.3220  137.3070 C   0  0  0  0  0  0  0  0  0  0  0  0
  192.5420  172.8610  139.8950 C   0  0  0  0  0  3  0  0  0  0  0  0
  194.4740  174.4320  140.1600 C   0  0  0  0  0  0  0  0  0  0  0  0
  195.4880  174.9860  139.5630 N   0  0  0  0  0  0  0  0  0  0  0  0
  193.4580  173.7930  137.8600 C   0  0  1  0  0  3  0  0  0  0  0  0
  193.4590  173.6780  139.3620 C   0  0  0  0  0  0  0  0  0  0  0  0
  194.3690  174.5170  141.5860 N   0  0  0  0  0  2  0  0  0  0  0  0
  195.0300  175.4540  143.7550 C   0  0  0  0  0  2  0  0  0  0  0  0
  196.7360  174.0510  144.2630 C   0  0  1  0  0  3  0  0  0  0  0  0
  195.4940  174.8650  142.4470 C   0  0  1  0  0  3  0  0  0  0  0  0
  196.1910  173.6340  142.9050 C   0  0  0  0  0  2  0  0  0  0  0  0
  195.9950  175.1590  144.7350 O   0  0  0  0  0  0  0  0  0  0  0  0
  196.6760  172.9540  145.2330 N   0  0  0  0  0  0  0  0  0  0  0  0
  197.5780  171.8970  144.7950 C   0  0  0  0  0  1  0  0  0  0  0  0
  197.2110  173.4420  146.4360 N   0  0  0  0  0  1  0  0  0  0  0  0
  192.3900  174.6010  137.4470 O   0  0  0  0  0  0  0  0  0  0  0  0
  191.5650  174.0350  135.2700 C   0  0  0  0  0  1  0  0  0  0  0  0
  191.5210  173.7420  136.7600 C   0  0  2  0  0  3  0  0  0  0  0  0
  190.0940  173.8480  137.3040 C   0  0  0  0  0  2  0  0  0  0  0  0
  189.5310  172.4910  137.7120 C   0  0  0  0  0  1  0  0  0  0  0  0
  188.1690  175.2880  140.4980 C   0  0  0  0  0  2  0  0  0  0  0  0
  187.2200  176.0390  141.2000 O   0  0  0  0  0  0  0  0  0  0  0  0
  187.3300  177.3210  140.6650 C   0  0  0  0  0  2  0  0  0  0  0  0
  186.0060  177.7270  140.0410 C   0  0  0  0  0  2  0  0  0  0  0  0
  184.9240  177.7690  141.1050 C   0  0  0  0  0  2  0  0  0  0  0  0
  185.2830  178.6930  142.0990 O   0  0  0  0  0  0  0  0  0  0  0  0
  183.6900  178.4810  143.7460 F   0  0  0  0  0  0  0  0  0  0  0  0
  184.9840  178.1350  143.3610 C   0  0  0  0  0  0  0  0  0  0  0  0
  185.0720  176.7510  143.3010 F   0  0  0  0  0  0  0  0  0  0  0  0
  185.2990  177.5890  146.6370 C   0  0  0  0  0  0  0  0  0  0  0  0
  188.0600  178.1310  143.3580 F   0  0  0  0  0  0  0  0  0  0  0  0
  185.9750  178.6950  144.4120 C   0  0  1  0  0  0  0  0  0  0  0  0
  189.6760  176.5580  146.3290 C   0  0  0  0  0  2  0  0  0  0  0  0
  187.0130  176.5030  144.4750 F   0  0  0  0  0  0  0  0  0  0  0  0
  187.2970  177.8680  144.4850 C   0  0  0  0  0  0  0  0  0  0  0  0
  184.4340  176.7360  146.5190 O   0  0  0  0  0  0  0  0  0  0  0  0
  189.4330  177.5150  147.3400 O   0  0  0  0  0  0  0  0  0  0  0  0
  188.3640  177.2130  146.4830 C   0  0  1  0  0  0  0  0  0  0  0  0
  186.4080  177.4130  147.6240 C   0  0  0  0  0  2  0  0  0  0  0  0
  188.0490  178.2880  145.6190 O   0  0  0  0  0  0  0  0  0  0  0  0
  186.3110  179.9970  144.0240 O   0  0  0  0  0  1  0  0  0  0  0  0
  187.3400  176.4880  147.1290 O   0  0  0  0  0  0  0  0  0  0  0  0
  185.2730  178.8220  145.7860 C   0  0  0  0  0  2  0  0  0  0  0  0
  1  4  1  0  0  0  0
  2  6  1  0  0  0  0
  3  2  2  0  0  0  0
  3  5  1  0  0  0  0
  5  1  2  0  0  0  0
  6  4  2  0  0  0  0
  7  5  1  0  0  0  0
  8 13  1  0  0  0  0
  9  8  2  0  0  0  0
  9 12  1  0  0  0  0
 10 16  1  0  0  0  0
 11 10  1  0  0  0  0
 12 11  2  0  0  0  0
 13 17  1  0  0  0  0
 13 10  2  0  0  0  0
 14  7  1  0  0  0  0
 15 19  1  0  0  0  0
 16 15  2  0  0  0  0
 17 28  1  1  0  0  0
 17 18  1  0  0  0  0
 18 14  2  0  0  0  0
 18 15  1  0  0  0  0
 20 24  1  0  0  0  0
 21 24  1  0  0  0  0
 21 25  1  1  0  0  0
 22 19  1  6  0  0  0
 22 23  1  0  0  0  0
 22 20  1  0  0  0  0
 23 21  1  0  0  0  0
 25 27  1  0  0  0  0
 26 25  1  0  0  0  0
 30 29  1  6  0  0  0
 30 31  1  0  0  0  0
 30 28  1  0  0  0  0
 31 32  1  0  0  0  0
 33 34  1  0  0  0  0
 33  2  1  0  0  0  0
 35 34  1  0  0  0  0
 36 35  1  0  0  0  0
 36 37  1  0  0  0  0
 37 38  1  0  0  0  0
 38 40  1  0  0  0  0
 40 39  1  0  0  0  0
 40 44  1  0  0  0  0
 41 40  1  0  0  0  0
 42 51  1  0  0  0  0
 43 47  1  0  0  0  0
 44 53  1  6  0  0  0
 44 47  1  0  0  0  0
 44 55  1  0  0  0  0
 45 49  1  0  0  0  0
 46 47  1  0  0  0  0
 47 52  1  0  0  0  0
 48 42  2  0  0  0  0
 50 45  1  6  0  0  0
 50 54  1  0  0  0  0
 50 49  1  0  0  0  0
 52 50  1  0  0  0  0
 54 51  1  0  0  0  0
 55 42  1  0  0  0  0
M  END
>  <MODEL>
8

>  <REMARK>
 VINA RESULT:      -7.2      3.844     10.018
  Name = 
  15 active torsions:
  status: ('A' for Active; 'I' for Inactive)
    1  A    between atoms: C_2  and  C_28
    2  A    between atoms: C_2  and  C_44
    3  A    between atoms: C_4  and  C_40
    4  A    between atoms: C_6  and  C_20
    5  A    between atoms: C_8  and  O_22
    6  A    between atoms: C_8  and  C_35
    7  A    between atoms: N_10  and  C_32
    8  A    between atoms: O_19  and  C_40
    9  A    between atoms: O_19  and  C_45
   10  A    between atoms: C_20  and  O_22
   11  A    between atoms: C_27  and  C_54
   12  A    between atoms: C_34  and  N_52
   13  A    between atoms: C_35  and  C_43
   14  A    between atoms: C_43  and  O_51
   15  A    between atoms: O_51  and  C_54
                            x       y       z     vdW  Elec       q    Type
                         _______ _______ _______ _____ _____    ______ ____

>  <TORSDO>
F 15

$$$$
=
 OpenBabel11052419333D

 55 60  0  0  1  0  0  0  0  0999 V2000
  188.8780  173.8870  137.5690 C   0  0  0  0  0  3  0  0  0  0  0  0
  191.5800  173.6150  138.2530 C   0  0  0  0  0  0  0  0  0  0  0  0
  190.5940  173.5270  139.2430 C   0  0  0  0  0  3  0  0  0  0  0  0
  189.8620  173.9720  136.5820 C   0  0  0  0  0  3  0  0  0  0  0  0
  189.2390  173.6590  138.9000 C   0  0  0  0  0  0  0  0  0  0  0  0
  191.2120  173.8290  136.9230 C   0  0  0  0  0  3  0  0  0  0  0  0
  188.1730  173.5550  139.9360 C   0  0  0  0  0  2  0  0  0  0  0  0
  189.7000  173.8710  146.0010 C   0  0  0  0  0  3  0  0  0  0  0  0
  189.5540  174.6750  147.1360 C   0  0  0  0  0  3  0  0  0  0  0  0
  188.9460  175.7050  144.6040 C   0  0  0  0  0  0  0  0  0  0  0  0
  188.8080  176.5080  145.7430 C   0  0  0  0  0  3  0  0  0  0  0  0
  189.1120  175.9960  147.0070 C   0  0  0  0  0  3  0  0  0  0  0  0
  189.4000  174.3800  144.7300 C   0  0  0  0  0  0  0  0  0  0  0  0
  188.7640  173.2250  141.2690 C   0  0  0  0  0  3  0  0  0  0  0  0
  188.5990  175.5320  142.2280 C   0  0  0  0  0  0  0  0  0  0  0  0
  188.5920  176.2350  143.3230 N   0  0  0  0  0  0  0  0  0  0  0  0
  189.6110  173.5190  143.5150 C   0  0  1  0  0  3  0  0  0  0  0  0
  188.9780  174.0870  142.2710 C   0  0  0  0  0  0  0  0  0  0  0  0
  188.1990  176.1490  140.9980 N   0  0  0  0  0  2  0  0  0  0  0  0
  186.4850  177.4120  139.7800 C   0  0  0  0  0  2  0  0  0  0  0  0
  185.3690  178.3140  141.5340 C   0  0  1  0  0  3  0  0  0  0  0  0
  187.4440  177.3960  140.9420 C   0  0  1  0  0  3  0  0  0  0  0  0
  186.5150  177.4870  142.0990 C   0  0  0  0  0  2  0  0  0  0  0  0
  185.3950  178.2320  140.1230 O   0  0  0  0  0  0  0  0  0  0  0  0
  184.0710  177.8610  142.0420 N   0  0  0  0  0  0  0  0  0  0  0  0
  183.7440  178.6310  143.2350 C   0  0  0  0  0  1  0  0  0  0  0  0
  183.1100  178.2160  141.0810 N   0  0  0  0  0  1  0  0  0  0  0  0
  190.9810  173.3160  143.2990 O   0  0  0  0  0  0  0  0  0  0  0  0
  192.1520  171.5570  144.4280 C   0  0  0  0  0  1  0  0  0  0  0  0
  191.1580  171.9260  143.3400 C   0  0  2  0  0  3  0  0  0  0  0  0
  191.6000  171.3840  141.9780 C   0  0  0  0  0  2  0  0  0  0  0  0
  190.8110  170.1460  141.5670 C   0  0  0  0  0  1  0  0  0  0  0  0
  193.0170  173.4100  138.5930 C   0  0  0  0  0  2  0  0  0  0  0  0
  193.4630  172.1730  138.1160 O   0  0  0  0  0  0  0  0  0  0  0  0
  194.0190  171.5530  139.2330 C   0  0  0  0  0  2  0  0  0  0  0  0
  194.6660  172.5970  140.1260 C   0  0  0  0  0  2  0  0  0  0  0  0
  195.1970  171.9400  141.3870 C   0  0  0  0  0  2  0  0  0  0  0  0
  195.3520  172.9110  142.3890 O   0  0  0  0  0  0  0  0  0  0  0  0
  196.4330  171.3060  143.6340 F   0  0  0  0  0  0  0  0  0  0  0  0
  196.5100  172.6050  143.1370 C   0  0  0  0  0  0  0  0  0  0  0  0
  197.6350  172.7050  142.3300 F   0  0  0  0  0  0  0  0  0  0  0  0
  196.3670  175.9330  143.3130 C   0  0  0  0  0  0  0  0  0  0  0  0
  194.8940  172.6870  145.7540 F   0  0  0  0  0  0  0  0  0  0  0  0
  196.6150  173.5830  144.3350 C   0  0  1  0  0  0  0  0  0  0  0  0
  193.1640  175.9090  146.4840 C   0  0  0  0  0  2  0  0  0  0  0  0
  194.2400  174.0150  144.0790 F   0  0  0  0  0  0  0  0  0  0  0  0
  195.2390  173.8200  145.0330 C   0  0  0  0  0  0  0  0  0  0  0  0
  196.0870  175.9260  142.1250 O   0  0  0  0  0  0  0  0  0  0  0  0
  194.2430  176.7530  146.8350 O   0  0  0  0  0  0  0  0  0  0  0  0
  194.4230  175.9240  145.7170 C   0  0  1  0  0  0  0  0  0  0  0  0
  195.7830  176.9660  144.2230 C   0  0  0  0  0  2  0  0  0  0  0  0
  195.3640  174.8940  145.9590 O   0  0  0  0  0  0  0  0  0  0  0  0
  197.4740  173.0060  145.2770 O   0  0  0  0  0  1  0  0  0  0  0  0
  194.4470  176.6470  144.5050 O   0  0  0  0  0  0  0  0  0  0  0  0
  197.2910  174.9000  143.8830 C   0  0  0  0  0  2  0  0  0  0  0  0
  1  5  1  0  0  0  0
  2 33  1  0  0  0  0
  2  3  1  0  0  0  0
  4  6  1  0  0  0  0
  4  1  2  0  0  0  0
  5  3  2  0  0  0  0
  5  7  1  0  0  0  0
  6  2  2  0  0  0  0
  7 14  1  0  0  0  0
  8  9  1  0  0  0  0
 10 13  1  0  0  0  0
 10 11  2  0  0  0  0
 11 12  1  0  0  0  0
 12  9  2  0  0  0  0
 13  8  2  0  0  0  0
 14 18  2  0  0  0  0
 15 18  1  0  0  0  0
 15 16  2  0  0  0  0
 16 10  1  0  0  0  0
 17 28  1  6  0  0  0
 17 13  1  0  0  0  0
 18 17  1  0  0  0  0
 19 15  1  0  0  0  0
 20 24  1  0  0  0  0
 20 22  1  0  0  0  0
 21 25  1  1  0  0  0
 21 23  1  0  0  0  0
 22 19  1  1  0  0  0
 22 23  1  0  0  0  0
 24 21  1  0  0  0  0
 25 26  1  0  0  0  0
 27 25  1  0  0  0  0
 28 30  1  0  0  0  0
 30 29  1  1  0  0  0
 31 30  1  0  0  0  0
 32 31  1  0  0  0  0
 34 33  1  0  0  0  0
 34 35  1  0  0  0  0
 35 36  1  0  0  0  0
 36 37  1  0  0  0  0
 37 38  1  0  0  0  0
 38 40  1  0  0  0  0
 40 39  1  0  0  0  0
 40 44  1  0  0  0  0
 41 40  1  0  0  0  0
 42 55  1  0  0  0  0
 42 51  1  0  0  0  0
 44 47  1  0  0  0  0
 44 53  1  1  0  0  0
 45 49  1  0  0  0  0
 46 47  1  0  0  0  0
 47 43  1  0  0  0  0
 47 52  1  0  0  0  0
 48 42  2  0  0  0  0
 50 52  1  0  0  0  0
 50 45  1  6  0  0  0
 50 49  1  0  0  0  0
 51 54  1  0  0  0  0
 54 50  1  0  0  0  0
 55 44  1  0  0  0  0
M  END
>  <MODEL>
9

>  <REMARK>
 VINA RESULT:      -7.2      1.965      3.934
  Name = 
  15 active torsions:
  status: ('A' for Active; 'I' for Inactive)
    1  A    between atoms: C_2  and  C_28
    2  A    between atoms: C_2  and  C_44
    3  A    between atoms: C_4  and  C_40
    4  A    between atoms: C_6  and  C_20
    5  A    between atoms: C_8  and  O_22
    6  A    between atoms: C_8  and  C_35
    7  A    between atoms: N_10  and  C_32
    8  A    between atoms: O_19  and  C_40
    9  A    between atoms: O_19  and  C_45
   10  A    between atoms: C_20  and  O_22
   11  A    between atoms: C_27  and  C_54
   12  A    between atoms: C_34  and  N_52
   13  A    between atoms: C_35  and  C_43
   14  A    between atoms: C_43  and  O_51
   15  A    between atoms: O_51  and  C_54
                            x       y       z     vdW  Elec       q    Type
                         _______ _______ _______ _____ _____    ______ ____

>  <TORSDO>
F 15

$$$$
