=
 OpenBabel11052418443D

 34 39  0  0  1  0  0  0  0  0999 V2000
  191.5610  176.3850  146.3100 C   0  0  0  0  0  0  0  0  0  0  0  0
  192.5450  174.8320  144.5840 C   0  0  2  0  0  3  0  0  0  0  0  0
  190.2290  175.9020  144.3140 C   0  0  0  0  0  0  0  0  0  0  0  0
  188.8010  175.4580  142.3470 C   0  0  0  0  0  0  0  0  0  0  0  0
  193.8870  175.7930  146.4180 C   0  0  0  0  0  3  0  0  0  0  0  0
  193.8500  175.1080  145.2750 C   0  0  0  0  0  3  0  0  0  0  0  0
  190.8830  174.4450  142.3400 N   0  0  0  0  0  0  0  0  0  0  0  0
  191.4330  175.7500  145.0510 C   0  0  0  0  0  0  0  0  0  0  0  0
  191.0130  172.8900  140.5600 N   0  0  0  0  0  2  0  0  0  0  0  0
  188.6790  174.4930  140.8560 S   0  0  0  0  0  0  0  0  0  0  0  0
  192.6900  176.3700  146.9560 N   0  0  0  0  0  0  0  0  0  0  0  0
  189.1390  176.6200  144.8790 C   0  0  0  0  0  0  0  0  0  0  0  0
  190.4880  177.0850  146.8530 C   0  0  0  0  0  3  0  0  0  0  0  0
  192.0890  173.1360  144.9080 Cl  0  0  0  0  0  0  0  0  0  0  0  0
  187.8030  176.0460  142.9240 N   0  0  0  0  0  0  0  0  0  0  0  0
  187.9550  176.7050  144.1990 C   0  0  0  0  0  0  0  0  0  0  0  0
  190.3450  173.9260  141.2830 C   0  0  0  0  0  0  0  0  0  0  0  0
  190.0450  175.3460  142.9980 N   0  0  0  0  0  0  0  0  0  0  0  0
  189.2890  177.1910  146.1530 C   0  0  0  0  0  3  0  0  0  0  0  0
  185.1790  179.2400  144.7860 C   0  0  0  0  0  0  0  0  0  0  0  0
  184.4390  178.5950  145.7820 C   0  0  0  0  0  3  0  0  0  0  0  0
  186.7520  177.3840  144.7450 C   0  0  0  0  0  0  0  0  0  0  0  0
  184.8380  177.3370  146.2410 C   0  0  0  0  0  3  0  0  0  0  0  0
  186.3300  178.6380  144.2690 C   0  0  0  0  0  3  0  0  0  0  0  0
  185.9850  176.7330  145.7220 C   0  0  0  0  0  3  0  0  0  0  0  0
  184.7830  180.4530  144.3270 F   0  0  0  0  0  0  0  0  0  0  0  0
  190.4130  172.2560  139.4610 N   0  0  0  0  0  2  0  0  0  0  0  0
  189.8920  174.0900  137.3130 O   0  0  0  0  0  1  0  0  0  0  0  0
  191.3040  172.4070  138.3150 C   0  0  2  0  0  3  0  0  0  0  0  0
  190.5170  172.8620  137.0790 C   0  0  1  0  0  3  0  0  0  0  0  0
  189.8350  170.3860  137.0120 C   0  0  0  0  0  2  0  0  0  0  0  0
  191.3440  170.1670  137.0250 C   0  0  0  0  0  2  0  0  0  0  0  0
  192.0440  171.0840  138.0480 C   0  0  0  0  0  2  0  0  0  0  0  0
  189.4820  171.8250  136.6110 C   0  0  0  0  0  2  0  0  0  0  0  0
  1 13  1  0  0  0  0
  1 11  2  0  0  0  0
  2 14  1  1  0  0  0
  2  8  1  0  0  0  0
  2  6  1  0  0  0  0
  3 12  1  0  0  0  0
  3  8  2  0  0  0  0
  4 15  2  0  0  0  0
  4 18  1  0  0  0  0
  5 11  1  0  0  0  0
  6  5  2  0  0  0  0
  7 18  1  0  0  0  0
  8  1  1  0  0  0  0
  9 17  1  0  0  0  0
 10 17  1  0  0  0  0
 10  4  1  0  0  0  0
 12 19  1  0  0  0  0
 15 16  1  0  0  0  0
 16 22  1  0  0  0  0
 16 12  2  0  0  0  0
 17  7  2  0  0  0  0
 18  3  1  0  0  0  0
 19 13  2  0  0  0  0
 20 21  1  0  0  0  0
 21 23  2  0  0  0  0
 22 25  2  0  0  0  0
 24 22  1  0  0  0  0
 24 20  2  0  0  0  0
 25 23  1  0  0  0  0
 26 20  1  0  0  0  0
 27  9  1  0  0  0  0
 29 27  1  1  0  0  0
 30 28  1  1  0  0  0
 30 29  1  0  0  0  0
 31 32  1  0  0  0  0
 32 33  1  0  0  0  0
 33 29  1  0  0  0  0
 34 31  1  0  0  0  0
 34 30  1  0  0  0  0
M  END
>  <MODEL>
1

>  <REMARK>
 VINA RESULT:      -8.9      0.000      0.000
  Name = 
  3 active torsions:
  status: ('A' for Active; 'I' for Inactive)
    1  A    between atoms: N_3  and  C_13
    2  A    between atoms: N_3  and  N_17
    3  A    between atoms: C_12  and  C_28
                            x       y       z     vdW  Elec       q    Type
                         _______ _______ _______ _____ _____    ______ ____

>  <TORSDO>
F 3

$$$$
=
 OpenBabel11052418443D

 34 39  0  0  1  0  0  0  0  0999 V2000
  191.2430  176.3410  146.0960 C   0  0  0  0  0  0  0  0  0  0  0  0
  192.1780  174.6770  144.4490 C   0  0  2  0  0  3  0  0  0  0  0  0
  189.9580  175.9000  144.0600 C   0  0  0  0  0  0  0  0  0  0  0  0
  188.5780  175.5060  142.0480 C   0  0  0  0  0  0  0  0  0  0  0  0
  193.5140  175.5890  146.3110 C   0  0  0  0  0  3  0  0  0  0  0  0
  193.4720  174.8780  145.1850 C   0  0  0  0  0  3  0  0  0  0  0  0
  190.5810  174.3480  142.1490 N   0  0  0  0  0  0  0  0  0  0  0  0
  191.1180  175.6830  144.8490 C   0  0  0  0  0  0  0  0  0  0  0  0
  190.6670  172.7410  140.4130 N   0  0  0  0  0  2  0  0  0  0  0  0
  188.4440  174.5130  140.5770 S   0  0  0  0  0  0  0  0  0  0  0  0
  192.3430  176.2630  146.7870 N   0  0  0  0  0  0  0  0  0  0  0  0
  188.9000  176.7080  144.5640 C   0  0  0  0  0  0  0  0  0  0  0  0
  190.2020  177.1290  146.5780 C   0  0  0  0  0  3  0  0  0  0  0  0
  191.5900  173.0260  144.7940 Cl  0  0  0  0  0  0  0  0  0  0  0  0
  187.6030  176.1780  142.5700 N   0  0  0  0  0  0  0  0  0  0  0  0
  187.7530  176.8580  143.8340 C   0  0  0  0  0  0  0  0  0  0  0  0
  190.0480  173.8410  141.0840 C   0  0  0  0  0  0  0  0  0  0  0  0
  189.7850  175.3240  142.7510 N   0  0  0  0  0  0  0  0  0  0  0  0
  189.0420  177.3010  145.8280 C   0  0  0  0  0  3  0  0  0  0  0  0
  184.6640  177.9210  145.7870 C   0  0  0  0  0  0  0  0  0  0  0  0
  184.4100  179.1720  145.2170 C   0  0  0  0  0  3  0  0  0  0  0  0
  186.5820  177.6350  144.3150 C   0  0  0  0  0  0  0  0  0  0  0  0
  185.2520  179.6660  144.2170 C   0  0  0  0  0  3  0  0  0  0  0  0
  185.7450  177.1550  145.3390 C   0  0  0  0  0  3  0  0  0  0  0  0
  186.3350  178.9040  143.7720 C   0  0  0  0  0  3  0  0  0  0  0  0
  183.8580  177.4480  146.7690 F   0  0  0  0  0  0  0  0  0  0  0  0
  190.0660  172.1220  139.3070 N   0  0  0  0  0  2  0  0  0  0  0  0
  189.6500  171.8400  136.4790 O   0  0  0  0  0  1  0  0  0  0  0  0
  191.1270  171.7240  138.3860 C   0  0  2  0  0  3  0  0  0  0  0  0
  190.5360  171.0050  137.1650 C   0  0  1  0  0  3  0  0  0  0  0  0
  190.3740  169.0410  138.8130 C   0  0  0  0  0  2  0  0  0  0  0  0
  191.8620  169.3210  138.9980 C   0  0  0  0  0  2  0  0  0  0  0  0
  192.1470  170.8320  139.1160 C   0  0  0  0  0  2  0  0  0  0  0  0
  189.8390  169.6820  137.5260 C   0  0  0  0  0  2  0  0  0  0  0  0
  1 13  1  0  0  0  0
  1 11  2  0  0  0  0
  2 14  1  1  0  0  0
  2  8  1  0  0  0  0
  2  6  1  0  0  0  0
  3 12  1  0  0  0  0
  3  8  2  0  0  0  0
  4 15  2  0  0  0  0
  4 18  1  0  0  0  0
  5 11  1  0  0  0  0
  6  5  2  0  0  0  0
  7 18  1  0  0  0  0
  8  1  1  0  0  0  0
  9 17  1  0  0  0  0
 10 17  1  0  0  0  0
 10  4  1  0  0  0  0
 12 19  1  0  0  0  0
 15 16  1  0  0  0  0
 16 22  1  0  0  0  0
 16 12  2  0  0  0  0
 17  7  2  0  0  0  0
 18  3  1  0  0  0  0
 19 13  2  0  0  0  0
 20 26  1  0  0  0  0
 21 20  2  0  0  0  0
 22 24  2  0  0  0  0
 23 21  1  0  0  0  0
 24 20  1  0  0  0  0
 25 23  2  0  0  0  0
 25 22  1  0  0  0  0
 27  9  1  0  0  0  0
 29 33  1  0  0  0  0
 29 27  1  1  0  0  0
 30 28  1  1  0  0  0
 30 34  1  0  0  0  0
 30 29  1  0  0  0  0
 31 32  1  0  0  0  0
 32 33  1  0  0  0  0
 34 31  1  0  0  0  0
M  END
>  <MODEL>
2

>  <REMARK>
 VINA RESULT:      -8.7      1.090      1.454
  Name = 
  3 active torsions:
  status: ('A' for Active; 'I' for Inactive)
    1  A    between atoms: N_3  and  C_13
    2  A    between atoms: N_3  and  N_17
    3  A    between atoms: C_12  and  C_28
                            x       y       z     vdW  Elec       q    Type
                         _______ _______ _______ _____ _____    ______ ____

>  <TORSDO>
F 3

$$$$
=
 OpenBabel11052418443D

 34 39  0  0  1  0  0  0  0  0999 V2000
  190.9690  172.7560  140.3740 C   0  0  0  0  0  0  0  0  0  0  0  0
  188.7060  173.8480  140.5890 C   0  0  0  0  0  0  0  0  0  0  0  0
  190.7390  174.6080  141.9570 C   0  0  0  0  0  0  0  0  0  0  0  0
  190.6010  176.4520  143.5960 C   0  0  0  0  0  0  0  0  0  0  0  0
  189.2560  172.2940  138.7530 C   0  0  0  0  0  3  0  0  0  0  0  0
  188.4060  173.1750  139.2800 C   0  0  0  0  0  3  0  0  0  0  0  0
  188.6600  175.9910  142.4210 N   0  0  0  0  0  0  0  0  0  0  0  0
  190.1740  173.7690  140.9610 C   0  0  0  0  0  0  0  0  0  0  0  0
  186.8510  177.2000  143.3530 N   0  0  0  0  0  2  0  0  0  0  0  0
  189.4770  177.5850  144.3840 S   0  0  0  0  0  0  0  0  0  0  0  0
  190.5240  172.0500  139.3750 N   0  0  0  0  0  0  0  0  0  0  0  0
  192.0670  174.3730  142.4110 C   0  0  0  0  0  0  0  0  0  0  0  0
  192.2670  172.5360  140.8250 C   0  0  0  0  0  3  0  0  0  0  0  0
  187.7280  173.0610  141.8600 Cl  0  0  0  0  0  0  0  0  0  0  0  0
  191.7800  176.1600  144.0430 N   0  0  0  0  0  0  0  0  0  0  0  0
  192.5860  175.1370  143.4200 C   0  0  0  0  0  0  0  0  0  0  0  0
  188.2400  176.8790  143.2640 C   0  0  0  0  0  0  0  0  0  0  0  0
  190.0190  175.7040  142.5540 N   0  0  0  0  0  0  0  0  0  0  0  0
  192.8040  173.3250  141.8370 C   0  0  0  0  0  2  0  0  0  0  0  0
  196.3210  175.4060  144.0910 C   0  0  0  0  0  0  0  0  0  0  0  0
  196.4670  174.4950  145.1430 C   0  0  0  0  0  3  0  0  0  0  0  0
  193.9390  174.9170  143.9900 C   0  0  0  0  0  0  0  0  0  0  0  0
  195.3490  173.8160  145.6350 C   0  0  0  0  0  3  0  0  0  0  0  0
  195.0640  175.6160  143.5170 C   0  0  0  0  0  3  0  0  0  0  0  0
  194.0920  174.0300  145.0650 C   0  0  0  0  0  3  0  0  0  0  0  0
  197.4020  176.0780  143.6240 F   0  0  0  0  0  0  0  0  0  0  0  0
  186.3640  178.0980  144.3150 N   0  0  0  0  0  2  0  0  0  0  0  0
  183.8430  179.2730  145.0330 O   0  0  0  0  0  1  0  0  0  0  0  0
  185.3620  177.3970  145.1130 C   0  0  2  0  0  3  0  0  0  0  0  0
  184.5050  178.3990  145.9000 C   0  0  1  0  0  3  0  0  0  0  0  0
  186.5740  178.4680  147.4220 C   0  0  0  0  0  2  0  0  0  0  0  0
  186.3630  176.9570  147.4570 C   0  0  0  0  0  2  0  0  0  0  0  0
  186.0500  176.3930  146.0560 C   0  0  0  0  0  2  0  0  0  0  0  0
  185.3140  179.1980  146.9350 C   0  0  0  0  0  2  0  0  0  0  0  0
  1 13  2  0  0  0  0
  1  8  1  0  0  0  0
  2  8  1  0  0  0  0
  2 14  1  0  0  0  0
  3 12  1  0  0  0  0
  3 18  1  0  0  0  0
  4 15  2  0  0  0  0
  4 10  1  0  0  0  0
  5  6  1  0  0  0  0
  5 11  2  0  0  0  0
  6  2  2  0  0  0  0
  7 18  1  0  0  0  0
  7 17  2  0  0  0  0
  8  3  2  0  0  0  0
  9 27  1  0  0  0  0
 11  1  1  0  0  0  0
 12 16  2  0  0  0  0
 13 19  1  0  0  0  0
 16 22  1  0  0  0  0
 16 15  1  0  0  0  0
 17  9  1  0  0  0  0
 17 10  1  0  0  0  0
 18  4  1  0  0  0  0
 19 12  1  0  0  0  0
 20 21  1  0  0  0  0
 21 23  2  0  0  0  0
 22 25  2  0  0  0  0
 24 22  1  0  0  0  0
 24 20  2  0  0  0  0
 25 23  1  0  0  0  0
 26 20  1  0  0  0  0
 29 27  1  1  0  0  0
 29 30  1  0  0  0  0
 29 33  1  0  0  0  0
 30 28  1  6  0  0  0
 30 34  1  0  0  0  0
 31 32  1  0  0  0  0
 33 32  1  0  0  0  0
 34 31  1  0  0  0  0
M  END
>  <MODEL>
3

>  <REMARK>
 VINA RESULT:      -8.3      3.709      8.720
  Name = 
  3 active torsions:
  status: ('A' for Active; 'I' for Inactive)
    1  A    between atoms: N_3  and  C_13
    2  A    between atoms: N_3  and  N_17
    3  A    between atoms: C_12  and  C_28
                            x       y       z     vdW  Elec       q    Type
                         _______ _______ _______ _____ _____    ______ ____

>  <TORSDO>
F 3

$$$$
=
 OpenBabel11052418443D

 34 39  0  0  1  0  0  0  0  0999 V2000
  191.3330  173.1410  140.6260 C   0  0  0  0  0  0  0  0  0  0  0  0
  189.1000  174.1890  141.1430 C   0  0  0  0  0  0  0  0  0  0  0  0
  191.0850  174.3100  142.7620 C   0  0  0  0  0  0  0  0  0  0  0  0
  190.9270  175.4490  144.9490 C   0  0  0  0  0  0  0  0  0  0  0  0
  189.6880  173.3730  138.8900 C   0  0  0  0  0  3  0  0  0  0  0  0
  188.8420  174.0450  139.6700 C   0  0  0  0  0  3  0  0  0  0  0  0
  189.0320  175.5320  143.6210 N   0  0  0  0  0  0  0  0  0  0  0  0
  190.5430  173.9120  141.5120 C   0  0  0  0  0  0  0  0  0  0  0  0
  187.2190  176.4120  144.8640 N   0  0  0  0  0  2  0  0  0  0  0  0
  189.8020  176.2760  146.0530 S   0  0  0  0  0  0  0  0  0  0  0  0
  190.9160  172.8620  139.4250 N   0  0  0  0  0  0  0  0  0  0  0  0
  192.3810  173.8650  143.1450 C   0  0  0  0  0  0  0  0  0  0  0  0
  192.6000  172.7120  141.0120 C   0  0  0  0  0  3  0  0  0  0  0  0
  188.0350  173.0470  142.0110 Cl  0  0  0  0  0  0  0  0  0  0  0  0
  192.0730  174.9600  145.3010 N   0  0  0  0  0  0  0  0  0  0  0  0
  192.8740  174.1910  144.3790 C   0  0  0  0  0  0  0  0  0  0  0  0
  188.6000  176.0780  144.7130 C   0  0  0  0  0  0  0  0  0  0  0  0
  190.3730  175.1520  143.6890 N   0  0  0  0  0  0  0  0  0  0  0  0
  193.1120  173.0590  142.2590 C   0  0  0  0  0  2  0  0  0  0  0  0
  195.6400  171.9740  145.7630 C   0  0  0  0  0  0  0  0  0  0  0  0
  196.7180  172.8650  145.7620 C   0  0  0  0  0  3  0  0  0  0  0  0
  194.1900  173.7170  144.8770 C   0  0  0  0  0  0  0  0  0  0  0  0
  196.5410  174.1710  145.2970 C   0  0  0  0  0  3  0  0  0  0  0  0
  194.3820  172.3970  145.3230 C   0  0  0  0  0  3  0  0  0  0  0  0
  195.2850  174.5930  144.8520 C   0  0  0  0  0  3  0  0  0  0  0  0
  195.8150  170.7020  146.1980 F   0  0  0  0  0  0  0  0  0  0  0  0
  186.7140  176.9270  146.0670 N   0  0  0  0  0  2  0  0  0  0  0  0
  186.6910  178.6330  148.3780 O   0  0  0  0  0  1  0  0  0  0  0  0
  186.7410  178.3830  145.9760 C   0  0  2  0  0  3  0  0  0  0  0  0
  186.0490  179.0100  147.1950 C   0  0  1  0  0  3  0  0  0  0  0  0
  183.9240  178.3470  145.9140 C   0  0  0  0  0  2  0  0  0  0  0  0
  184.5740  179.1560  144.7960 C   0  0  0  0  0  2  0  0  0  0  0  0
  186.0770  178.8390  144.6640 C   0  0  0  0  0  2  0  0  0  0  0  0
  184.5520  178.6690  147.2770 C   0  0  0  0  0  2  0  0  0  0  0  0
  1 13  2  0  0  0  0
  1  8  1  0  0  0  0
  2  8  1  0  0  0  0
  2 14  1  0  0  0  0
  3 12  1  0  0  0  0
  3 18  1  0  0  0  0
  4 15  2  0  0  0  0
  4 10  1  0  0  0  0
  5 11  2  0  0  0  0
  5  6  1  0  0  0  0
  6  2  2  0  0  0  0
  7 18  1  0  0  0  0
  7 17  2  0  0  0  0
  8  3  2  0  0  0  0
  9 27  1  0  0  0  0
 11  1  1  0  0  0  0
 12 16  2  0  0  0  0
 13 19  1  0  0  0  0
 16 22  1  0  0  0  0
 16 15  1  0  0  0  0
 17  9  1  0  0  0  0
 17 10  1  0  0  0  0
 18  4  1  0  0  0  0
 19 12  1  0  0  0  0
 20 26  1  0  0  0  0
 21 20  1  0  0  0  0
 22 24  1  0  0  0  0
 23 21  2  0  0  0  0
 24 20  2  0  0  0  0
 25 22  2  0  0  0  0
 25 23  1  0  0  0  0
 29 27  1  1  0  0  0
 29 30  1  0  0  0  0
 30 34  1  0  0  0  0
 30 28  1  1  0  0  0
 31 34  1  0  0  0  0
 32 31  1  0  0  0  0
 33 32  1  0  0  0  0
 33 29  1  0  0  0  0
M  END
>  <MODEL>
4

>  <REMARK>
 VINA RESULT:      -8.1      4.011      9.070
  Name = 
  3 active torsions:
  status: ('A' for Active; 'I' for Inactive)
    1  A    between atoms: N_3  and  C_13
    2  A    between atoms: N_3  and  N_17
    3  A    between atoms: C_12  and  C_28
                            x       y       z     vdW  Elec       q    Type
                         _______ _______ _______ _____ _____    ______ ____

>  <TORSDO>
F 3

$$$$
=
 OpenBabel11052418443D

 34 39  0  0  1  0  0  0  0  0999 V2000
  191.7580  172.8080  140.3330 C   0  0  0  0  0  0  0  0  0  0  0  0
  189.4980  173.8590  140.7110 C   0  0  0  0  0  0  0  0  0  0  0  0
  191.5650  174.5070  142.0840 C   0  0  0  0  0  0  0  0  0  0  0  0
  191.4670  176.1940  143.8870 C   0  0  0  0  0  0  0  0  0  0  0  0
  190.0010  172.4830  138.7270 C   0  0  0  0  0  3  0  0  0  0  0  0
  189.1620  173.3050  139.3560 C   0  0  0  0  0  3  0  0  0  0  0  0
  189.4950  175.8260  142.7310 N   0  0  0  0  0  0  0  0  0  0  0  0
  190.9750  173.7570  141.0330 C   0  0  0  0  0  0  0  0  0  0  0  0
  187.7080  176.9330  143.8200 N   0  0  0  0  0  2  0  0  0  0  0  0
  190.3610  177.2420  144.8070 S   0  0  0  0  0  0  0  0  0  0  0  0
  191.2870  172.1930  139.2870 N   0  0  0  0  0  0  0  0  0  0  0  0
  192.9070  174.2410  142.4760 C   0  0  0  0  0  0  0  0  0  0  0  0
  193.0690  172.5570  140.7240 C   0  0  0  0  0  3  0  0  0  0  0  0
  188.5610  172.9530  141.9330 Cl  0  0  0  0  0  0  0  0  0  0  0  0
  192.6600  175.8700  144.2710 N   0  0  0  0  0  0  0  0  0  0  0  0
  193.4520  174.9140  143.5350 C   0  0  0  0  0  0  0  0  0  0  0  0
  189.0960  176.6310  143.6630 C   0  0  0  0  0  0  0  0  0  0  0  0
  190.8580  175.5390  142.7990 N   0  0  0  0  0  0  0  0  0  0  0  0
  193.6320  173.2550  141.7890 C   0  0  0  0  0  2  0  0  0  0  0  0
  196.3710  173.4860  145.5140 C   0  0  0  0  0  0  0  0  0  0  0  0
  197.4440  174.1660  144.9290 C   0  0  0  0  0  3  0  0  0  0  0  0
  194.8220  174.6530  144.0440 C   0  0  0  0  0  0  0  0  0  0  0  0
  197.2120  175.0690  143.8880 C   0  0  0  0  0  3  0  0  0  0  0  0
  195.0660  173.7270  145.0730 C   0  0  0  0  0  3  0  0  0  0  0  0
  195.9080  175.3070  143.4440 C   0  0  0  0  0  3  0  0  0  0  0  0
  196.5970  172.5970  146.5130 F   0  0  0  0  0  0  0  0  0  0  0  0
  187.2450  177.7360  144.8740 N   0  0  0  0  0  2  0  0  0  0  0  0
  184.4900  177.9160  144.0810 O   0  0  0  0  0  1  0  0  0  0  0  0
  186.1760  177.0090  145.5530 C   0  0  2  0  0  3  0  0  0  0  0  0
  184.8460  177.7660  145.4240 C   0  0  1  0  0  3  0  0  0  0  0  0
  185.8770  179.2240  147.2700 C   0  0  0  0  0  2  0  0  0  0  0  0
  186.0270  177.8830  147.9820 C   0  0  0  0  0  2  0  0  0  0  0  0
  186.5480  176.7890  147.0300 C   0  0  0  0  0  2  0  0  0  0  0  0
  184.8660  179.1370  146.1190 C   0  0  0  0  0  2  0  0  0  0  0  0
  1 13  2  0  0  0  0
  1  8  1  0  0  0  0
  2  8  1  0  0  0  0
  2 14  1  0  0  0  0
  3 12  1  0  0  0  0
  3 18  1  0  0  0  0
  4 15  2  0  0  0  0
  4 10  1  0  0  0  0
  5 11  2  0  0  0  0
  5  6  1  0  0  0  0
  6  2  2  0  0  0  0
  7 18  1  0  0  0  0
  7 17  2  0  0  0  0
  8  3  2  0  0  0  0
  9 27  1  0  0  0  0
 11  1  1  0  0  0  0
 12 16  2  0  0  0  0
 13 19  1  0  0  0  0
 16 22  1  0  0  0  0
 16 15  1  0  0  0  0
 17  9  1  0  0  0  0
 17 10  1  0  0  0  0
 18  4  1  0  0  0  0
 19 12  1  0  0  0  0
 20 26  1  0  0  0  0
 21 20  2  0  0  0  0
 22 24  2  0  0  0  0
 23 21  1  0  0  0  0
 24 20  1  0  0  0  0
 25 23  2  0  0  0  0
 25 22  1  0  0  0  0
 29 27  1  1  0  0  0
 29 33  1  0  0  0  0
 30 28  1  6  0  0  0
 30 29  1  0  0  0  0
 30 34  1  0  0  0  0
 31 32  1  0  0  0  0
 33 32  1  0  0  0  0
 34 31  1  0  0  0  0
M  END
>  <MODEL>
5

>  <REMARK>
 VINA RESULT:      -8.1      3.718      8.981
  Name = 
  3 active torsions:
  status: ('A' for Active; 'I' for Inactive)
    1  A    between atoms: N_3  and  C_13
    2  A    between atoms: N_3  and  N_17
    3  A    between atoms: C_12  and  C_28
                            x       y       z     vdW  Elec       q    Type
                         _______ _______ _______ _____ _____    ______ ____

>  <TORSDO>
F 3

$$$$
=
 OpenBabel11052418443D

 34 39  0  0  1  0  0  0  0  0999 V2000
  187.3670  177.7690  144.0800 C   0  0  0  0  0  0  0  0  0  0  0  0
  186.5160  176.9180  141.8650 C   0  0  2  0  0  3  0  0  0  0  0  0
  188.7250  176.1160  142.8920 C   0  0  0  0  0  0  0  0  0  0  0  0
  190.1750  174.4670  141.7590 C   0  0  0  0  0  0  0  0  0  0  0  0
  185.1040  178.2210  143.4130 C   0  0  0  0  0  3  0  0  0  0  0  0
  185.1950  177.4800  142.3090 C   0  0  0  0  0  3  0  0  0  0  0  0
  188.1920  174.9850  140.6820 N   0  0  0  0  0  0  0  0  0  0  0  0
  187.5440  176.8990  142.9790 C   0  0  0  0  0  0  0  0  0  0  0  0
  188.1910  174.0470  138.5080 N   0  0  0  0  0  2  0  0  0  0  0  0
  190.3750  173.5280  140.2600 S   0  0  0  0  0  0  0  0  0  0  0  0
  186.2470  178.4090  144.2560 N   0  0  0  0  0  0  0  0  0  0  0  0
  189.7510  176.2720  143.8660 C   0  0  0  0  0  0  0  0  0  0  0  0
  188.3770  177.9130  145.0270 C   0  0  0  0  0  3  0  0  0  0  0  0
  187.1230  177.9160  140.5140 Cl  0  0  0  0  0  0  0  0  0  0  0  0
  191.1210  174.6930  142.6140 N   0  0  0  0  0  0  0  0  0  0  0  0
  190.9180  175.5700  143.7430 C   0  0  0  0  0  0  0  0  0  0  0  0
  188.7680  174.2290  139.8030 C   0  0  0  0  0  0  0  0  0  0  0  0
  188.9500  175.1570  141.8410 N   0  0  0  0  0  0  0  0  0  0  0  0
  189.5570  177.1840  144.9150 C   0  0  0  0  0  3  0  0  0  0  0  0
  194.0140  176.9190  145.4950 C   0  0  0  0  0  0  0  0  0  0  0  0
  194.1680  175.9790  146.5190 C   0  0  0  0  0  3  0  0  0  0  0  0
  192.0580  175.7200  144.6820 C   0  0  0  0  0  0  0  0  0  0  0  0
  193.2570  174.9270  146.6410 C   0  0  0  0  0  3  0  0  0  0  0  0
  192.9640  176.7910  144.5810 C   0  0  0  0  0  3  0  0  0  0  0  0
  192.2050  174.8010  145.7310 C   0  0  0  0  0  3  0  0  0  0  0  0
  194.8880  177.9490  145.3860 F   0  0  0  0  0  0  0  0  0  0  0  0
  188.8390  173.3000  137.5130 N   0  0  0  0  0  2  0  0  0  0  0  0
  188.1730  175.2900  135.5510 O   0  0  0  0  0  1  0  0  0  0  0  0
  189.8390  174.1610  136.8870 C   0  0  2  0  0  3  0  0  0  0  0  0
  189.3790  174.5860  135.4850 C   0  0  1  0  0  3  0  0  0  0  0  0
  190.1380  172.2090  134.8770 C   0  0  0  0  0  2  0  0  0  0  0  0
  191.4450  172.6660  135.5180 C   0  0  0  0  0  2  0  0  0  0  0  0
  191.1950  173.4350  136.8310 C   0  0  0  0  0  2  0  0  0  0  0  0
  189.2450  173.4020  134.5130 C   0  0  0  0  0  2  0  0  0  0  0  0
  1 11  2  0  0  0  0
  1 13  1  0  0  0  0
  2 14  1  6  0  0  0
  2  6  1  0  0  0  0
  2  8  1  0  0  0  0
  3  8  2  0  0  0  0
  3 12  1  0  0  0  0
  4 18  1  0  0  0  0
  4 15  2  0  0  0  0
  5 11  1  0  0  0  0
  6  5  2  0  0  0  0
  7 18  1  0  0  0  0
  8  1  1  0  0  0  0
  9 17  1  0  0  0  0
 10  4  1  0  0  0  0
 12 19  1  0  0  0  0
 15 16  1  0  0  0  0
 16 12  2  0  0  0  0
 16 22  1  0  0  0  0
 17 10  1  0  0  0  0
 17  7  2  0  0  0  0
 18  3  1  0  0  0  0
 19 13  2  0  0  0  0
 20 21  1  0  0  0  0
 21 23  2  0  0  0  0
 22 25  2  0  0  0  0
 24 22  1  0  0  0  0
 24 20  2  0  0  0  0
 25 23  1  0  0  0  0
 26 20  1  0  0  0  0
 27  9  1  0  0  0  0
 29 27  1  6  0  0  0
 30 28  1  1  0  0  0
 30 29  1  0  0  0  0
 31 32  1  0  0  0  0
 32 33  1  0  0  0  0
 33 29  1  0  0  0  0
 34 31  1  0  0  0  0
 34 30  1  0  0  0  0
M  END
>  <MODEL>
6

>  <REMARK>
 VINA RESULT:      -7.9      3.009      5.492
  Name = 
  3 active torsions:
  status: ('A' for Active; 'I' for Inactive)
    1  A    between atoms: N_3  and  C_13
    2  A    between atoms: N_3  and  N_17
    3  A    between atoms: C_12  and  C_28
                            x       y       z     vdW  Elec       q    Type
                         _______ _______ _______ _____ _____    ______ ____

>  <TORSDO>
F 3

$$$$
=
 OpenBabel11052418443D

 34 39  0  0  1  0  0  0  0  0999 V2000
  193.7390  173.5100  142.9270 C   0  0  0  0  0  0  0  0  0  0  0  0
  192.6420  175.0630  144.5820 C   0  0  0  0  0  0  0  0  0  0  0  0
  191.3980  174.1150  142.5500 C   0  0  0  0  0  0  0  0  0  0  0  0
  189.0410  174.6830  142.0720 C   0  0  0  0  0  0  0  0  0  0  0  0
  194.8170  173.9850  145.0210 C   0  0  0  0  0  3  0  0  0  0  0  0
  193.7930  174.7050  145.4790 C   0  0  0  0  0  3  0  0  0  0  0  0
  189.9340  175.5950  144.0030 N   0  0  0  0  0  0  0  0  0  0  0  0
  192.5690  174.1860  143.3480 C   0  0  0  0  0  0  0  0  0  0  0  0
  188.4370  177.1930  144.9030 N   0  0  0  0  0  2  0  0  0  0  0  0
  187.6770  175.6960  142.6040 S   0  0  0  0  0  0  0  0  0  0  0  0
  194.7910  173.4520  143.6910 N   0  0  0  0  0  0  0  0  0  0  0  0
  191.4330  173.4340  141.3010 C   0  0  0  0  0  0  0  0  0  0  0  0
  193.7610  172.8460  141.7040 C   0  0  0  0  0  3  0  0  0  0  0  0
  192.8290  176.7690  144.0880 Cl  0  0  0  0  0  0  0  0  0  0  0  0
  189.1300  174.1280  140.9060 N   0  0  0  0  0  0  0  0  0  0  0  0
  190.3240  173.4250  140.5000 C   0  0  0  0  0  0  0  0  0  0  0  0
  188.7750  176.1700  143.9650 C   0  0  0  0  0  0  0  0  0  0  0  0
  190.1490  174.7170  142.9410 N   0  0  0  0  0  0  0  0  0  0  0  0
  192.6280  172.8190  140.8960 C   0  0  0  0  0  2  0  0  0  0  0  0
  189.7780  170.9210  137.6880 C   0  0  0  0  0  0  0  0  0  0  0  0
  190.2250  171.6590  136.5870 C   0  0  0  0  0  3  0  0  0  0  0  0
  190.2970  172.7900  139.1580 C   0  0  0  0  0  0  0  0  0  0  0  0
  190.6840  172.9660  136.7650 C   0  0  0  0  0  3  0  0  0  0  0  0
  189.8130  171.4830  138.9670 C   0  0  0  0  0  3  0  0  0  0  0  0
  190.7150  173.5300  138.0430 C   0  0  0  0  0  3  0  0  0  0  0  0
  189.3160  169.6580  137.5130 F   0  0  0  0  0  0  0  0  0  0  0  0
  187.2200  177.8870  144.8280 N   0  0  0  0  0  2  0  0  0  0  0  0
  184.4740  177.9160  143.9880 O   0  0  0  0  0  1  0  0  0  0  0  0
  186.1930  177.0570  145.4500 C   0  0  2  0  0  3  0  0  0  0  0  0
  184.8160  177.7250  145.3300 C   0  0  1  0  0  3  0  0  0  0  0  0
  185.7110  179.1590  147.2640 C   0  0  0  0  0  2  0  0  0  0  0  0
  185.9410  177.7990  147.9140 C   0  0  0  0  0  2  0  0  0  0  0  0
  186.5550  176.7900  146.9230 C   0  0  0  0  0  2  0  0  0  0  0  0
  184.7280  179.0590  146.0900 C   0  0  0  0  0  2  0  0  0  0  0  0
  1  8  1  0  0  0  0
  1 11  1  0  0  0  0
  2  6  2  0  0  0  0
  3 18  1  0  0  0  0
  3  8  2  0  0  0  0
  4 10  1  0  0  0  0
  4 18  1  0  0  0  0
  5  6  1  0  0  0  0
  8  2  1  0  0  0  0
 10 17  1  0  0  0  0
 11  5  2  0  0  0  0
 12  3  1  0  0  0  0
 13  1  2  0  0  0  0
 14  2  1  0  0  0  0
 15  4  2  0  0  0  0
 16 15  1  0  0  0  0
 16 12  2  0  0  0  0
 17  7  2  0  0  0  0
 17  9  1  0  0  0  0
 18  7  1  0  0  0  0
 19 12  1  0  0  0  0
 19 13  1  0  0  0  0
 20 24  1  0  0  0  0
 21 23  1  0  0  0  0
 21 20  2  0  0  0  0
 22 16  1  0  0  0  0
 23 25  2  0  0  0  0
 24 22  2  0  0  0  0
 25 22  1  0  0  0  0
 26 20  1  0  0  0  0
 27  9  1  0  0  0  0
 29 27  1  1  0  0  0
 29 33  1  0  0  0  0
 30 28  1  6  0  0  0
 30 29  1  0  0  0  0
 30 34  1  0  0  0  0
 31 32  1  0  0  0  0
 33 32  1  0  0  0  0
 34 31  1  0  0  0  0
M  END
>  <MODEL>
7

>  <REMARK>
 VINA RESULT:      -7.9      3.372      8.241
  Name = 
  3 active torsions:
  status: ('A' for Active; 'I' for Inactive)
    1  A    between atoms: N_3  and  C_13
    2  A    between atoms: N_3  and  N_17
    3  A    between atoms: C_12  and  C_28
                            x       y       z     vdW  Elec       q    Type
                         _______ _______ _______ _____ _____    ______ ____

>  <TORSDO>
F 3

$$$$
=
 OpenBabel11052418443D

 34 39  0  0  1  0  0  0  0  0999 V2000
  186.6080  178.0640  143.5510 C   0  0  0  0  0  0  0  0  0  0  0  0
  186.2800  177.0420  141.2700 C   0  0  2  0  0  3  0  0  0  0  0  0
  188.0010  176.1460  142.9460 C   0  0  0  0  0  0  0  0  0  0  0  0
  189.4690  174.2280  142.4190 C   0  0  0  0  0  0  0  0  0  0  0  0
  184.6900  178.6650  142.2340 C   0  0  0  0  0  3  0  0  0  0  0  0
  184.9760  177.7890  141.2700 C   0  0  0  0  0  3  0  0  0  0  0  0
  187.9390  174.8150  140.7840 N   0  0  0  0  0  0  0  0  0  0  0  0
  186.9570  177.0520  142.6250 C   0  0  0  0  0  0  0  0  0  0  0  0
  188.3990  173.6250  138.7900 N   0  0  0  0  0  2  0  0  0  0  0  0
  189.9380  173.0980  141.1260 S   0  0  0  0  0  0  0  0  0  0  0  0
  185.5780  178.8330  143.3460 N   0  0  0  0  0  0  0  0  0  0  0  0
  188.7370  176.3110  144.1520 C   0  0  0  0  0  0  0  0  0  0  0  0
  187.3340  178.2160  144.7280 C   0  0  0  0  0  3  0  0  0  0  0  0
  187.3570  177.7990  140.0620 Cl  0  0  0  0  0  0  0  0  0  0  0  0
  190.1700  174.4570  143.4830 N   0  0  0  0  0  0  0  0  0  0  0  0
  189.7890  175.4810  144.4260 C   0  0  0  0  0  0  0  0  0  0  0  0
  188.6230  173.9020  140.1730 C   0  0  0  0  0  0  0  0  0  0  0  0
  188.3710  175.0470  142.0900 N   0  0  0  0  0  0  0  0  0  0  0  0
  188.3920  177.3600  145.0190 C   0  0  0  0  0  3  0  0  0  0  0  0
  192.6610  176.4140  146.7420 C   0  0  0  0  0  0  0  0  0  0  0  0
  192.1920  175.9110  147.9590 C   0  0  0  0  0  3  0  0  0  0  0  0
  190.6430  175.6250  145.6320 C   0  0  0  0  0  0  0  0  0  0  0  0
  190.9420  175.2890  148.0210 C   0  0  0  0  0  3  0  0  0  0  0  0
  191.8910  176.2720  145.5830 C   0  0  0  0  0  3  0  0  0  0  0  0
  190.1700  175.1520  146.8650 C   0  0  0  0  0  3  0  0  0  0  0  0
  193.8660  177.0320  146.6850 F   0  0  0  0  0  0  0  0  0  0  0  0
  189.1850  172.6990  138.0880 N   0  0  0  0  0  2  0  0  0  0  0  0
  189.6920  170.8060  135.9880 O   0  0  0  0  0  1  0  0  0  0  0  0
  189.1380  173.0540  136.6730 C   0  0  2  0  0  3  0  0  0  0  0  0
  190.0710  172.1450  135.8600 C   0  0  1  0  0  3  0  0  0  0  0  0
  191.8800  173.6900  136.8290 C   0  0  0  0  0  2  0  0  0  0  0  0
  191.0080  174.7810  136.2150 C   0  0  0  0  0  2  0  0  0  0  0  0
  189.5120  174.5370  136.4920 C   0  0  0  0  0  2  0  0  0  0  0  0
  191.5520  172.3120  136.2370 C   0  0  0  0  0  2  0  0  0  0  0  0
  1 13  1  0  0  0  0
  2 14  1  6  0  0  0
  2  6  1  0  0  0  0
  2  8  1  0  0  0  0
  3 12  1  0  0  0  0
  4 15  2  0  0  0  0
  5 11  1  0  0  0  0
  6  5  2  0  0  0  0
  7 18  1  0  0  0  0
  8  3  2  0  0  0  0
  8  1  1  0  0  0  0
  9 17  1  0  0  0  0
 10  4  1  0  0  0  0
 11  1  2  0  0  0  0
 12 16  2  0  0  0  0
 12 19  1  0  0  0  0
 13 19  2  0  0  0  0
 15 16  1  0  0  0  0
 16 22  1  0  0  0  0
 17  7  2  0  0  0  0
 17 10  1  0  0  0  0
 18  4  1  0  0  0  0
 18  3  1  0  0  0  0
 20 21  1  0  0  0  0
 21 23  2  0  0  0  0
 22 25  2  0  0  0  0
 24 22  1  0  0  0  0
 24 20  2  0  0  0  0
 25 23  1  0  0  0  0
 26 20  1  0  0  0  0
 27  9  1  0  0  0  0
 29 27  1  1  0  0  0
 30 28  1  1  0  0  0
 30 34  1  0  0  0  0
 30 29  1  0  0  0  0
 32 33  1  0  0  0  0
 32 31  1  0  0  0  0
 33 29  1  0  0  0  0
 34 31  1  0  0  0  0
M  END
>  <MODEL>
8

>  <REMARK>
 VINA RESULT:      -7.4      2.970      5.404
  Name = 
  3 active torsions:
  status: ('A' for Active; 'I' for Inactive)
    1  A    between atoms: N_3  and  C_13
    2  A    between atoms: N_3  and  N_17
    3  A    between atoms: C_12  and  C_28
                            x       y       z     vdW  Elec       q    Type
                         _______ _______ _______ _____ _____    ______ ____

>  <TORSDO>
F 3

$$$$
=
 OpenBabel11052418443D

 34 39  0  0  1  0  0  0  0  0999 V2000
  193.7090  174.2210  142.1750 C   0  0  0  0  0  0  0  0  0  0  0  0
  192.4980  175.4600  144.0070 C   0  0  0  0  0  0  0  0  0  0  0  0
  191.2690  174.3560  142.0450 C   0  0  0  0  0  0  0  0  0  0  0  0
  188.8100  174.4560  141.8150 C   0  0  0  0  0  0  0  0  0  0  0  0
  194.8760  174.8270  144.1850 C   0  0  0  0  0  3  0  0  0  0  0  0
  193.7810  175.3080  144.7740 C   0  0  0  0  0  3  0  0  0  0  0  0
  189.6950  175.4570  143.7060 N   0  0  0  0  0  0  0  0  0  0  0  0
  192.4770  174.6330  142.7370 C   0  0  0  0  0  0  0  0  0  0  0  0
  188.0110  176.6870  144.8260 N   0  0  0  0  0  2  0  0  0  0  0  0
  187.3340  175.1530  142.5250 S   0  0  0  0  0  0  0  0  0  0  0  0
  194.8230  174.3480  142.8360 N   0  0  0  0  0  0  0  0  0  0  0  0
  191.3120  173.7430  140.7620 C   0  0  0  0  0  0  0  0  0  0  0  0
  193.7390  173.6210  140.9190 C   0  0  0  0  0  3  0  0  0  0  0  0
  192.2960  177.1860  143.5940 Cl  0  0  0  0  0  0  0  0  0  0  0  0
  188.8900  173.9730  140.6170 N   0  0  0  0  0  0  0  0  0  0  0  0
  190.1520  173.5410  140.0660 C   0  0  0  0  0  0  0  0  0  0  0  0
  188.4480  175.7880  143.8050 C   0  0  0  0  0  0  0  0  0  0  0  0
  189.9710  174.6790  142.5810 N   0  0  0  0  0  0  0  0  0  0  0  0
  192.5580  173.3960  140.2170 C   0  0  0  0  0  2  0  0  0  0  0  0
  190.2680  173.1830  136.2790 C   0  0  0  0  0  0  0  0  0  0  0  0
  190.0920  171.8030  136.1390 C   0  0  0  0  0  3  0  0  0  0  0  0
  190.1170  172.9620  138.6980 C   0  0  0  0  0  0  0  0  0  0  0  0
  189.9550  171.0000  137.2740 C   0  0  0  0  0  3  0  0  0  0  0  0
  190.2810  173.7610  137.5520 C   0  0  0  0  0  3  0  0  0  0  0  0
  189.9730  171.5760  138.5470 C   0  0  0  0  0  3  0  0  0  0  0  0
  190.4180  173.9610  135.1790 F   0  0  0  0  0  0  0  0  0  0  0  0
  186.6790  177.1240  144.9010 N   0  0  0  0  0  2  0  0  0  0  0  0
  186.4790  177.9810  147.6350 O   0  0  0  0  0  1  0  0  0  0  0  0
  186.6920  178.5300  145.2930 C   0  0  2  0  0  3  0  0  0  0  0  0
  185.9120  178.7300  146.6000 C   0  0  1  0  0  3  0  0  0  0  0  0
  183.8850  178.5400  145.0330 C   0  0  0  0  0  2  0  0  0  0  0  0
  184.5970  179.6640  144.2870 C   0  0  0  0  0  2  0  0  0  0  0  0
  186.1090  179.3950  144.1600 C   0  0  0  0  0  2  0  0  0  0  0  0
  184.4180  178.3940  146.4650 C   0  0  0  0  0  2  0  0  0  0  0  0
  1  8  1  0  0  0  0
  1 11  1  0  0  0  0
  2  6  2  0  0  0  0
  3 18  1  0  0  0  0
  3  8  2  0  0  0  0
  4 10  1  0  0  0  0
  4 18  1  0  0  0  0
  5  6  1  0  0  0  0
  7 17  2  0  0  0  0
  8  2  1  0  0  0  0
  9 27  1  0  0  0  0
 10 17  1  0  0  0  0
 11  5  2  0  0  0  0
 12  3  1  0  0  0  0
 13  1  2  0  0  0  0
 14  2  1  0  0  0  0
 15  4  2  0  0  0  0
 16 15  1  0  0  0  0
 16 12  2  0  0  0  0
 17  9  1  0  0  0  0
 18  7  1  0  0  0  0
 19 12  1  0  0  0  0
 19 13  1  0  0  0  0
 20 24  1  0  0  0  0
 21 20  2  0  0  0  0
 21 23  1  0  0  0  0
 22 16  1  0  0  0  0
 23 25  2  0  0  0  0
 24 22  2  0  0  0  0
 25 22  1  0  0  0  0
 26 20  1  0  0  0  0
 29 27  1  6  0  0  0
 29 30  1  0  0  0  0
 30 28  1  1  0  0  0
 31 34  1  0  0  0  0
 32 31  1  0  0  0  0
 33 32  1  0  0  0  0
 33 29  1  0  0  0  0
 34 30  1  0  0  0  0
M  END
>  <MODEL>
9

>  <REMARK>
 VINA RESULT:      -7.3      3.507      8.268
  Name = 
  3 active torsions:
  status: ('A' for Active; 'I' for Inactive)
    1  A    between atoms: N_3  and  C_13
    2  A    between atoms: N_3  and  N_17
    3  A    between atoms: C_12  and  C_28
                            x       y       z     vdW  Elec       q    Type
                         _______ _______ _______ _____ _____    ______ ____

>  <TORSDO>
F 3

$$$$
