=
 OpenBabel11052418203D

 27 31  0  0  1  0  0  0  0  0999 V2000
  191.0260  176.3740  142.9340 C   0  0  0  0  0  2  0  0  0  0  0  0
  188.5760  176.0640  143.2030 C   0  0  0  0  0  0  0  0  0  0  0  0
  189.4200  177.0620  145.3280 N   0  0  0  0  0  2  0  0  0  0  0  0
  184.7280  177.8660  143.7940 C   0  0  0  0  0  2  0  0  0  0  0  0
  185.1770  180.1920  144.1860 O   0  0  0  0  0  1  0  0  0  0  0  0
  187.5420  175.8720  142.3380 N   0  0  0  0  0  0  0  0  0  0  0  0
  186.9600  178.4590  145.6910 C   0  0  0  0  0  2  0  0  0  0  0  0
  190.8240  175.3860  147.8130 C   0  0  0  0  0  1  0  0  0  0  0  0
  185.4890  178.6890  146.0360 C   0  0  0  0  0  2  0  0  0  0  0  0
  192.6930  176.4460  146.6860 O   0  0  0  0  0  0  0  0  0  0  0  0
  188.3900  176.8850  144.3420 C   0  0  0  0  0  0  0  0  0  0  0  0
  189.8590  175.4920  142.8940 N   0  0  0  0  0  0  0  0  0  0  0  0
  184.6860  179.0290  144.7840 C   0  0  2  0  0  3  0  0  0  0  0  0
  186.1080  177.3000  143.6010 C   0  0  0  0  0  0  0  0  0  0  0  0
  191.6100  176.4820  144.3420 C   0  0  2  0  0  3  0  0  0  0  0  0
  187.1440  177.5090  144.5350 C   0  0  0  0  0  0  0  0  0  0  0  0
  191.2790  176.4160  146.7920 C   0  0  1  0  0  3  0  0  0  0  0  0
  186.3300  176.4530  142.5170 C   0  0  0  0  0  3  0  0  0  0  0  0
  193.1050  175.4150  145.8100 C   0  0  0  0  0  2  0  0  0  0  0  0
  192.7700  175.6770  144.4530 O   0  0  0  0  0  0  0  0  0  0  0  0
  190.5860  176.1970  145.4470 C   0  0  1  0  0  3  0  0  0  0  0  0
  190.2520  171.4050  141.7730 C   0  0  0  0  0  3  0  0  0  0  0  0
  190.0060  174.1060  142.5180 C   0  0  0  0  0  0  0  0  0  0  0  0
  190.5340  173.7540  141.2630 C   0  0  0  0  0  3  0  0  0  0  0  0
  190.6580  172.4120  140.8940 C   0  0  0  0  0  3  0  0  0  0  0  0
  189.7210  171.7410  143.0200 C   0  0  0  0  0  3  0  0  0  0  0  0
  189.5970  173.0830  143.3890 C   0  0  0  0  0  3  0  0  0  0  0  0
  2 11  1  0  0  0  0
  4 13  1  0  0  0  0
  6 18  1  0  0  0  0
  6  2  2  0  0  0  0
  7  9  1  0  0  0  0
 10 17  1  0  0  0  0
 11 16  2  0  0  0  0
 11  3  1  0  0  0  0
 12  1  1  0  0  0  0
 12  2  1  0  0  0  0
 13  5  1  6  0  0  0
 13  9  1  0  0  0  0
 14  4  1  0  0  0  0
 14 16  1  0  0  0  0
 15  1  1  6  0  0  0
 15 20  1  0  0  0  0
 15 21  1  0  0  0  0
 16  7  1  0  0  0  0
 17  8  1  1  0  0  0
 18 14  2  0  0  0  0
 19 10  1  0  0  0  0
 20 19  1  0  0  0  0
 21  3  1  6  0  0  0
 21 17  1  0  0  0  0
 22 26  1  0  0  0  0
 23 12  1  0  0  0  0
 23 27  1  0  0  0  0
 24 23  2  0  0  0  0
 25 24  1  0  0  0  0
 25 22  2  0  0  0  0
 26 27  2  0  0  0  0
M  END
>  <MODEL>
1

>  <REMARK>
 VINA RESULT:      -8.0      0.000      0.000
  Name = 
  1 active torsions:
  status: ('A' for Active; 'I' for Inactive)
    1  A    between atoms: C_9  and  N_15
                            x       y       z     vdW  Elec       q    Type
                         _______ _______ _______ _____ _____    ______ ____

>  <TORSDO>
F 1

$$$$
=
 OpenBabel11052418203D

 27 31  0  0  1  0  0  0  0  0999 V2000
  188.4270  178.4400  143.1590 C   0  0  0  0  0  2  0  0  0  0  0  0
  189.2810  177.1690  145.1150 C   0  0  0  0  0  0  0  0  0  0  0  0
  189.8590  175.8470  143.0790 N   0  0  0  0  0  2  0  0  0  0  0  0
  192.6630  175.5650  147.2100 C   0  0  0  0  0  2  0  0  0  0  0  0
  194.5390  175.9430  145.7600 O   0  0  0  0  0  1  0  0  0  0  0  0
  189.5520  177.4870  146.4100 N   0  0  0  0  0  0  0  0  0  0  0  0
  192.2370  174.8920  144.3300 C   0  0  0  0  0  2  0  0  0  0  0  0
  187.8170  173.7890  141.4820 C   0  0  0  0  0  1  0  0  0  0  0  0
  193.1260  174.0650  145.2570 C   0  0  0  0  0  2  0  0  0  0  0  0
  187.8630  175.7730  140.0880 O   0  0  0  0  0  0  0  0  0  0  0  0
  190.1370  176.2780  144.4210 C   0  0  0  0  0  0  0  0  0  0  0  0
  188.1750  177.8100  144.4550 N   0  0  0  0  0  0  0  0  0  0  0  0
  193.7510  174.9440  146.3350 C   0  0  2  0  0  3  0  0  0  0  0  0
  191.5220  176.1420  146.4190 C   0  0  0  0  0  0  0  0  0  0  0  0
  188.3060  177.4430  142.0080 C   0  0  2  0  0  3  0  0  0  0  0  0
  191.2680  175.7670  145.0830 C   0  0  0  0  0  0  0  0  0  0  0  0
  188.4870  175.1190  141.1800 C   0  0  1  0  0  3  0  0  0  0  0  0
  190.6300  176.9920  147.0690 C   0  0  0  0  0  3  0  0  0  0  0  0
  186.7270  176.4700  140.5630 C   0  0  0  0  0  2  0  0  0  0  0  0
  187.0640  177.6070  141.3470 O   0  0  0  0  0  0  0  0  0  0  0  0
  188.5610  175.9920  142.4330 C   0  0  1  0  0  3  0  0  0  0  0  0
  184.3240  178.0070  146.2560 C   0  0  0  0  0  3  0  0  0  0  0  0
  186.8630  177.8730  145.0540 C   0  0  0  0  0  0  0  0  0  0  0  0
  186.0730  179.0300  144.9320 C   0  0  0  0  0  3  0  0  0  0  0  0
  184.8100  179.0960  145.5280 C   0  0  0  0  0  3  0  0  0  0  0  0
  185.1000  176.8540  146.3890 C   0  0  0  0  0  3  0  0  0  0  0  0
  186.3630  176.7880  145.7930 C   0  0  0  0  0  3  0  0  0  0  0  0
  1 12  1  0  0  0  0
  2  6  1  0  0  0  0
  3 11  1  0  0  0  0
  6 18  2  0  0  0  0
  7 16  1  0  0  0  0
  7  9  1  0  0  0  0
  9 13  1  0  0  0  0
 10 19  1  0  0  0  0
 10 17  1  0  0  0  0
 11 16  1  0  0  0  0
 11  2  2  0  0  0  0
 12 23  1  0  0  0  0
 12  2  1  0  0  0  0
 13  5  1  6  0  0  0
 13  4  1  0  0  0  0
 14 18  1  0  0  0  0
 14  4  1  0  0  0  0
 15 21  1  0  0  0  0
 15  1  1  1  0  0  0
 16 14  2  0  0  0  0
 17  8  1  1  0  0  0
 17 21  1  0  0  0  0
 19 20  1  0  0  0  0
 20 15  1  0  0  0  0
 21  3  1  6  0  0  0
 22 26  1  0  0  0  0
 23 27  1  0  0  0  0
 24 23  2  0  0  0  0
 24 25  1  0  0  0  0
 25 22  2  0  0  0  0
 27 26  2  0  0  0  0
M  END
>  <MODEL>
2

>  <REMARK>
 VINA RESULT:      -7.7      2.080      6.822
  Name = 
  1 active torsions:
  status: ('A' for Active; 'I' for Inactive)
    1  A    between atoms: C_9  and  N_15
                            x       y       z     vdW  Elec       q    Type
                         _______ _______ _______ _____ _____    ______ ____

>  <TORSDO>
F 1

$$$$
=
 OpenBabel11052418203D

 27 31  0  0  1  0  0  0  0  0999 V2000
  190.1860  173.5450  145.3280 C   0  0  0  0  0  2  0  0  0  0  0  0
  189.6390  175.8810  144.6830 C   0  0  0  0  0  0  0  0  0  0  0  0
  188.6350  174.3930  142.9490 N   0  0  0  0  0  2  0  0  0  0  0  0
  186.6190  178.8490  143.9950 C   0  0  0  0  0  2  0  0  0  0  0  0
  184.5320  177.6760  144.1720 O   0  0  0  0  0  1  0  0  0  0  0  0
  189.6250  177.0710  145.3440 N   0  0  0  0  0  0  0  0  0  0  0  0
  186.4800  176.2230  142.5770 C   0  0  0  0  0  2  0  0  0  0  0  0
  190.2470  173.0930  140.3670 C   0  0  0  0  0  1  0  0  0  0  0  0
  185.7340  177.4680  142.1010 C   0  0  0  0  0  2  0  0  0  0  0  0
  190.0470  171.2470  141.9280 O   0  0  0  0  0  0  0  0  0  0  0  0
  188.6280  175.5980  143.7320 C   0  0  0  0  0  0  0  0  0  0  0  0
  190.6380  174.9030  145.0260 N   0  0  0  0  0  0  0  0  0  0  0  0
  185.3600  178.3600  143.2810 C   0  0  2  0  0  3  0  0  0  0  0  0
  187.6250  177.7580  144.2410 C   0  0  0  0  0  0  0  0  0  0  0  0
  190.0450  172.6980  144.0650 C   0  0  2  0  0  3  0  0  0  0  0  0
  187.6120  176.5480  143.5170 C   0  0  0  0  0  0  0  0  0  0  0  0
  189.6000  172.5600  141.6350 C   0  0  1  0  0  3  0  0  0  0  0  0
  188.6620  178.0030  145.1380 C   0  0  0  0  0  3  0  0  0  0  0  0
  191.2840  171.3280  142.6100 C   0  0  0  0  0  2  0  0  0  0  0  0
  191.1520  171.8240  143.9360 O   0  0  0  0  0  0  0  0  0  0  0  0
  189.7990  173.5300  142.8000 C   0  0  1  0  0  3  0  0  0  0  0  0
  194.7570  175.9420  145.2800 C   0  0  0  0  0  3  0  0  0  0  0  0
  192.0380  175.2420  145.1130 C   0  0  0  0  0  0  0  0  0  0  0  0
  192.6880  175.2970  146.3580 C   0  0  0  0  0  3  0  0  0  0  0  0
  194.0400  175.6420  146.4410 C   0  0  0  0  0  3  0  0  0  0  0  0
  194.1220  175.8950  144.0370 C   0  0  0  0  0  3  0  0  0  0  0  0
  192.7710  175.5500  143.9540 C   0  0  0  0  0  3  0  0  0  0  0  0
  2 12  1  0  0  0  0
  2  6  1  0  0  0  0
  3 11  1  0  0  0  0
  4 14  1  0  0  0  0
  7 16  1  0  0  0  0
  9  7  1  0  0  0  0
  9 13  1  0  0  0  0
 10 19  1  0  0  0  0
 11  2  2  0  0  0  0
 12 23  1  0  0  0  0
 12  1  1  0  0  0  0
 13  4  1  0  0  0  0
 13  5  1  1  0  0  0
 14 18  1  0  0  0  0
 15  1  1  1  0  0  0
 16 11  1  0  0  0  0
 16 14  2  0  0  0  0
 17  8  1  6  0  0  0
 17 10  1  0  0  0  0
 17 21  1  0  0  0  0
 18  6  2  0  0  0  0
 19 20  1  0  0  0  0
 20 15  1  0  0  0  0
 21  3  1  1  0  0  0
 21 15  1  0  0  0  0
 22 25  1  0  0  0  0
 23 24  1  0  0  0  0
 24 25  2  0  0  0  0
 26 22  2  0  0  0  0
 27 26  1  0  0  0  0
 27 23  2  0  0  0  0
M  END
>  <MODEL>
3

>  <REMARK>
 VINA RESULT:      -7.2      1.965      4.581
  Name = 
  1 active torsions:
  status: ('A' for Active; 'I' for Inactive)
    1  A    between atoms: C_9  and  N_15
                            x       y       z     vdW  Elec       q    Type
                         _______ _______ _______ _____ _____    ______ ____

>  <TORSDO>
F 1

$$$$
=
 OpenBabel11052418203D

 27 31  0  0  1  0  0  0  0  0999 V2000
  190.0130  173.7900  145.5380 C   0  0  0  0  0  2  0  0  0  0  0  0
  189.2590  176.1530  145.6810 C   0  0  0  0  0  0  0  0  0  0  0  0
  188.0300  175.1120  143.7750 N   0  0  0  0  0  2  0  0  0  0  0  0
  186.0390  178.9060  146.3540 C   0  0  0  0  0  2  0  0  0  0  0  0
  184.0690  177.5430  146.5140 O   0  0  0  0  0  1  0  0  0  0  0  0
  189.3100  177.1100  146.6480 N   0  0  0  0  0  0  0  0  0  0  0  0
  185.7650  176.7690  144.2850 C   0  0  0  0  0  2  0  0  0  0  0  0
  189.2150  174.7230  140.7090 C   0  0  0  0  0  1  0  0  0  0  0  0
  184.8930  178.0230  144.3080 C   0  0  0  0  0  2  0  0  0  0  0  0
  189.3750  172.5100  141.6890 O   0  0  0  0  0  0  0  0  0  0  0  0
  188.1090  176.0510  144.8600 C   0  0  0  0  0  0  0  0  0  0  0  0
  190.3440  175.2150  145.5690 N   0  0  0  0  0  0  0  0  0  0  0  0
  184.6960  178.5190  145.7370 C   0  0  2  0  0  3  0  0  0  0  0  0
  187.1180  177.8870  146.1160 C   0  0  0  0  0  0  0  0  0  0  0  0
  189.6880  173.3130  144.1240 C   0  0  2  0  0  3  0  0  0  0  0  0
  187.0310  176.9260  145.0880 C   0  0  0  0  0  0  0  0  0  0  0  0
  188.8270  173.8060  141.8570 C   0  0  1  0  0  3  0  0  0  0  0  0
  188.2860  177.9710  146.8710 C   0  0  0  0  0  3  0  0  0  0  0  0
  190.7080  172.5140  142.1620 C   0  0  0  0  0  2  0  0  0  0  0  0
  190.7920  172.6130  143.5780 O   0  0  0  0  0  0  0  0  0  0  0  0
  189.1860  174.4330  143.2050 C   0  0  1  0  0  3  0  0  0  0  0  0
  194.4160  176.4430  145.4320 C   0  0  0  0  0  3  0  0  0  0  0  0
  191.7220  175.6440  145.5280 C   0  0  0  0  0  0  0  0  0  0  0  0
  192.2080  176.3950  144.4430 C   0  0  0  0  0  3  0  0  0  0  0  0
  193.5470  176.7940  144.3960 C   0  0  0  0  0  3  0  0  0  0  0  0
  193.9480  175.6940  146.5130 C   0  0  0  0  0  3  0  0  0  0  0  0
  192.6090  175.2950  146.5600 C   0  0  0  0  0  3  0  0  0  0  0  0
  1 12  1  0  0  0  0
  2  6  1  0  0  0  0
  3 11  1  0  0  0  0
  6 18  2  0  0  0  0
  7  9  1  0  0  0  0
  7 16  1  0  0  0  0
  9 13  1  0  0  0  0
 10 17  1  0  0  0  0
 10 19  1  0  0  0  0
 11 16  1  0  0  0  0
 11  2  2  0  0  0  0
 12  2  1  0  0  0  0
 13  4  1  0  0  0  0
 13  5  1  1  0  0  0
 14  4  1  0  0  0  0
 14 18  1  0  0  0  0
 15  1  1  1  0  0  0
 16 14  2  0  0  0  0
 17  8  1  6  0  0  0
 17 21  1  0  0  0  0
 19 20  1  0  0  0  0
 20 15  1  0  0  0  0
 21  3  1  1  0  0  0
 21 15  1  0  0  0  0
 22 26  1  0  0  0  0
 23 12  1  0  0  0  0
 23 27  1  0  0  0  0
 24 23  2  0  0  0  0
 25 24  1  0  0  0  0
 25 22  2  0  0  0  0
 26 27  2  0  0  0  0
M  END
>  <MODEL>
4

>  <REMARK>
 VINA RESULT:      -7.2      1.926      4.456
  Name = 
  1 active torsions:
  status: ('A' for Active; 'I' for Inactive)
    1  A    between atoms: C_9  and  N_15
                            x       y       z     vdW  Elec       q    Type
                         _______ _______ _______ _____ _____    ______ ____

>  <TORSDO>
F 1

$$$$
=
 OpenBabel11052418203D

 27 31  0  0  1  0  0  0  0  0999 V2000
  189.8840  176.5020  142.7240 C   0  0  0  0  0  2  0  0  0  0  0  0
  191.3500  176.0010  144.6660 C   0  0  0  0  0  0  0  0  0  0  0  0
  191.5380  174.0710  143.0970 N   0  0  0  0  0  2  0  0  0  0  0  0
  195.3160  175.2910  146.1380 C   0  0  0  0  0  2  0  0  0  0  0  0
  196.7040  175.1860  144.1810 O   0  0  0  0  0  1  0  0  0  0  0  0
  191.9040  176.7530  145.6580 N   0  0  0  0  0  0  0  0  0  0  0  0
  194.2510  173.6580  143.8740 C   0  0  0  0  0  2  0  0  0  0  0  0
  189.4080  171.5450  142.8940 C   0  0  0  0  0  1  0  0  0  0  0  0
  195.4360  173.2200  144.7330 C   0  0  0  0  0  2  0  0  0  0  0  0
  188.8680  172.9280  140.9750 O   0  0  0  0  0  0  0  0  0  0  0  0
  192.0970  174.9450  144.0910 C   0  0  0  0  0  0  0  0  0  0  0  0
  190.0460  176.3510  144.1710 N   0  0  0  0  0  0  0  0  0  0  0  0
  196.2100  174.4300  145.2460 C   0  0  2  0  0  3  0  0  0  0  0  0
  193.9520  175.5360  145.5540 C   0  0  0  0  0  0  0  0  0  0  0  0
  189.5900  175.1660  142.0430 C   0  0  2  0  0  3  0  0  0  0  0  0
  193.4110  174.7180  144.5400 C   0  0  0  0  0  0  0  0  0  0  0  0
  189.8210  172.7040  142.0010 C   0  0  1  0  0  3  0  0  0  0  0  0
  193.1630  176.5380  146.1130 C   0  0  0  0  0  3  0  0  0  0  0  0
  187.8180  173.7210  141.4950 C   0  0  0  0  0  2  0  0  0  0  0  0
  188.2100  175.0660  141.7390 O   0  0  0  0  0  0  0  0  0  0  0  0
  190.1110  173.9560  142.8280 C   0  0  1  0  0  3  0  0  0  0  0  0
  186.7370  177.0300  146.7600 C   0  0  0  0  0  3  0  0  0  0  0  0
  188.9310  176.5890  145.0570 C   0  0  0  0  0  0  0  0  0  0  0  0
  188.7630  175.8200  146.2220 C   0  0  0  0  0  3  0  0  0  0  0  0
  187.6740  176.0410  147.0700 C   0  0  0  0  0  3  0  0  0  0  0  0
  186.8890  177.7970  145.6040 C   0  0  0  0  0  3  0  0  0  0  0  0
  187.9790  177.5770  144.7560 C   0  0  0  0  0  3  0  0  0  0  0  0
  1 12  1  0  0  0  0
  2  6  1  0  0  0  0
  3 11  1  0  0  0  0
  6 18  2  0  0  0  0
  7 16  1  0  0  0  0
  7  9  1  0  0  0  0
  9 13  1  0  0  0  0
 10 19  1  0  0  0  0
 10 17  1  0  0  0  0
 11 16  1  0  0  0  0
 11  2  2  0  0  0  0
 12  2  1  0  0  0  0
 12 23  1  0  0  0  0
 13  5  1  6  0  0  0
 13  4  1  0  0  0  0
 14 18  1  0  0  0  0
 14  4  1  0  0  0  0
 15  1  1  1  0  0  0
 15 21  1  0  0  0  0
 16 14  2  0  0  0  0
 17 21  1  0  0  0  0
 17  8  1  1  0  0  0
 19 20  1  0  0  0  0
 20 15  1  0  0  0  0
 21  3  1  6  0  0  0
 22 25  1  0  0  0  0
 23 24  1  0  0  0  0
 24 25  2  0  0  0  0
 26 22  2  0  0  0  0
 27 23  2  0  0  0  0
 27 26  1  0  0  0  0
M  END
>  <MODEL>
5

>  <REMARK>
 VINA RESULT:      -7.2      2.467      7.184
  Name = 
  1 active torsions:
  status: ('A' for Active; 'I' for Inactive)
    1  A    between atoms: C_9  and  N_15
                            x       y       z     vdW  Elec       q    Type
                         _______ _______ _______ _____ _____    ______ ____

>  <TORSDO>
F 1

$$$$
=
 OpenBabel11052418203D

 27 31  0  0  1  0  0  0  0  0999 V2000
  192.6280  175.7290  142.7540 C   0  0  0  0  0  2  0  0  0  0  0  0
  190.2020  175.1920  142.7970 C   0  0  0  0  0  0  0  0  0  0  0  0
  190.6690  176.6110  144.7960 N   0  0  0  0  0  2  0  0  0  0  0  0
  186.1600  176.6190  142.6310 C   0  0  0  0  0  2  0  0  0  0  0  0
  186.3370  179.0130  142.6580 O   0  0  0  0  0  1  0  0  0  0  0  0
  189.3110  174.7460  141.8700 N   0  0  0  0  0  0  0  0  0  0  0  0
  188.0630  177.7590  144.6320 C   0  0  0  0  0  2  0  0  0  0  0  0
  191.8880  175.5290  147.6770 C   0  0  0  0  0  1  0  0  0  0  0  0
  186.5460  177.8750  144.7650 C   0  0  0  0  0  2  0  0  0  0  0  0
  193.7810  176.5970  146.5990 O   0  0  0  0  0  0  0  0  0  0  0  0
  189.7950  176.1600  143.7470 C   0  0  0  0  0  0  0  0  0  0  0  0
  191.5620  174.7260  142.7390 N   0  0  0  0  0  0  0  0  0  0  0  0
  185.8830  177.9150  143.3920 C   0  0  2  0  0  3  0  0  0  0  0  0
  187.6000  176.1880  142.6950 C   0  0  0  0  0  0  0  0  0  0  0  0
  193.0110  176.1290  144.1780 C   0  0  2  0  0  3  0  0  0  0  0  0
  188.4820  176.6620  143.6880 C   0  0  0  0  0  0  0  0  0  0  0  0
  192.3740  176.4250  146.5490 C   0  0  1  0  0  3  0  0  0  0  0  0
  188.0370  175.2080  141.8070 C   0  0  0  0  0  3  0  0  0  0  0  0
  194.3970  175.4900  145.9670 C   0  0  0  0  0  2  0  0  0  0  0  0
  194.2170  175.4890  144.5570 O   0  0  0  0  0  0  0  0  0  0  0  0
  191.8840  175.9140  145.1940 C   0  0  1  0  0  3  0  0  0  0  0  0
  192.4710  170.5810  142.4100 C   0  0  0  0  0  3  0  0  0  0  0  0
  191.8840  173.3230  142.6290 C   0  0  0  0  0  0  0  0  0  0  0  0
  192.3170  172.7790  141.4080 C   0  0  0  0  0  3  0  0  0  0  0  0
  192.6110  171.4170  141.2990 C   0  0  0  0  0  3  0  0  0  0  0  0
  192.0370  171.1080  143.6280 C   0  0  0  0  0  3  0  0  0  0  0  0
  191.7430  172.4700  143.7370 C   0  0  0  0  0  3  0  0  0  0  0  0
  2 11  1  0  0  0  0
  4 14  1  0  0  0  0
  4 13  1  0  0  0  0
  6  2  2  0  0  0  0
  7  9  1  0  0  0  0
 11  3  1  0  0  0  0
 12  1  1  0  0  0  0
 12  2  1  0  0  0  0
 13  5  1  6  0  0  0
 13  9  1  0  0  0  0
 14 16  1  0  0  0  0
 15  1  1  6  0  0  0
 15 20  1  0  0  0  0
 15 21  1  0  0  0  0
 16 11  2  0  0  0  0
 16  7  1  0  0  0  0
 17 10  1  0  0  0  0
 17  8  1  1  0  0  0
 18  6  1  0  0  0  0
 18 14  2  0  0  0  0
 19 10  1  0  0  0  0
 20 19  1  0  0  0  0
 21  3  1  6  0  0  0
 21 17  1  0  0  0  0
 22 26  1  0  0  0  0
 23 12  1  0  0  0  0
 23 27  1  0  0  0  0
 24 23  2  0  0  0  0
 25 24  1  0  0  0  0
 25 22  2  0  0  0  0
 26 27  2  0  0  0  0
M  END
>  <MODEL>
6

>  <REMARK>
 VINA RESULT:      -6.9      1.555      1.875
  Name = 
  1 active torsions:
  status: ('A' for Active; 'I' for Inactive)
    1  A    between atoms: C_9  and  N_15
                            x       y       z     vdW  Elec       q    Type
                         _______ _______ _______ _____ _____    ______ ____

>  <TORSDO>
F 1

$$$$
=
 OpenBabel11052418203D

 27 31  0  0  1  0  0  0  0  0999 V2000
  190.5710  173.6550  144.5820 C   0  0  0  0  0  2  0  0  0  0  0  0
  189.9500  175.9770  143.9520 C   0  0  0  0  0  0  0  0  0  0  0  0
  189.6050  174.5580  141.9290 N   0  0  0  0  0  2  0  0  0  0  0  0
  186.8970  178.7000  142.6590 C   0  0  0  0  0  2  0  0  0  0  0  0
  184.9820  177.3260  142.2030 O   0  0  0  0  0  1  0  0  0  0  0  0
  189.6310  177.0990  144.6540 N   0  0  0  0  0  0  0  0  0  0  0  0
  187.4270  176.2050  141.1030 C   0  0  0  0  0  2  0  0  0  0  0  0
  191.9660  173.6410  139.7990 C   0  0  0  0  0  1  0  0  0  0  0  0
  186.6950  177.4110  140.5190 C   0  0  0  0  0  2  0  0  0  0  0  0
  191.5770  171.6570  141.1390 O   0  0  0  0  0  0  0  0  0  0  0  0
  189.2590  175.6850  142.7510 C   0  0  0  0  0  0  0  0  0  0  0  0
  190.9290  175.0710  144.4910 N   0  0  0  0  0  0  0  0  0  0  0  0
  185.9300  178.1590  141.6070 C   0  0  2  0  0  3  0  0  0  0  0  0
  187.9210  177.6900  143.1000 C   0  0  0  0  0  0  0  0  0  0  0  0
  190.8580  172.9120  143.2790 C   0  0  2  0  0  3  0  0  0  0  0  0
  188.2330  176.5510  142.3290 C   0  0  0  0  0  0  0  0  0  0  0  0
  191.0770  172.9430  140.8150 C   0  0  1  0  0  3  0  0  0  0  0  0
  188.6560  177.9530  144.2540 C   0  0  0  0  0  3  0  0  0  0  0  0
  192.5780  171.7940  142.1300 C   0  0  0  0  0  2  0  0  0  0  0  0
  192.0520  172.1590  143.3990 O   0  0  0  0  0  0  0  0  0  0  0  0
  190.8570  173.8230  142.0460 C   0  0  1  0  0  3  0  0  0  0  0  0
  194.7220  176.3850  145.9040 C   0  0  0  0  0  3  0  0  0  0  0  0
  192.2120  175.5300  144.9690 C   0  0  0  0  0  0  0  0  0  0  0  0
  193.2360  175.8650  144.0660 C   0  0  0  0  0  3  0  0  0  0  0  0
  194.4830  176.2930  144.5300 C   0  0  0  0  0  3  0  0  0  0  0  0
  193.7160  176.0510  146.8110 C   0  0  0  0  0  3  0  0  0  0  0  0
  192.4690  175.6240  146.3470 C   0  0  0  0  0  3  0  0  0  0  0  0
  2 12  1  0  0  0  0
  2  6  1  0  0  0  0
  3 11  1  0  0  0  0
  4 14  1  0  0  0  0
  7 16  1  0  0  0  0
  9  7  1  0  0  0  0
  9 13  1  0  0  0  0
 10 19  1  0  0  0  0
 11  2  2  0  0  0  0
 12  1  1  0  0  0  0
 12 23  1  0  0  0  0
 13  5  1  1  0  0  0
 13  4  1  0  0  0  0
 14 18  1  0  0  0  0
 15 20  1  0  0  0  0
 15  1  1  1  0  0  0
 16 11  1  0  0  0  0
 16 14  2  0  0  0  0
 17  8  1  6  0  0  0
 17 10  1  0  0  0  0
 17 21  1  0  0  0  0
 18  6  2  0  0  0  0
 19 20  1  0  0  0  0
 21  3  1  6  0  0  0
 21 15  1  0  0  0  0
 22 26  1  0  0  0  0
 23 27  1  0  0  0  0
 24 25  1  0  0  0  0
 24 23  2  0  0  0  0
 25 22  2  0  0  0  0
 27 26  2  0  0  0  0
M  END
>  <MODEL>
7

>  <REMARK>
 VINA RESULT:      -6.9      2.237      4.779
  Name = 
  1 active torsions:
  status: ('A' for Active; 'I' for Inactive)
    1  A    between atoms: C_9  and  N_15
                            x       y       z     vdW  Elec       q    Type
                         _______ _______ _______ _____ _____    ______ ____

>  <TORSDO>
F 1

$$$$
=
 OpenBabel11052418203D

 27 31  0  0  1  0  0  0  0  0999 V2000
  189.3330  174.4670  145.8320 C   0  0  0  0  0  2  0  0  0  0  0  0
  189.0390  174.9300  143.4090 C   0  0  0  0  0  0  0  0  0  0  0  0
  191.4960  174.8210  143.8360 N   0  0  0  0  0  2  0  0  0  0  0  0
  189.6070  173.6180  139.3640 C   0  0  0  0  0  2  0  0  0  0  0  0
  190.9280  171.6210  139.5300 O   0  0  0  0  0  1  0  0  0  0  0  0
  188.0040  174.7980  142.5350 N   0  0  0  0  0  0  0  0  0  0  0  0
  191.9370  173.7520  141.2290 C   0  0  0  0  0  2  0  0  0  0  0  0
  193.3520  177.2950  145.0130 C   0  0  0  0  0  1  0  0  0  0  0  0
  192.0860  173.7190  139.7090 C   0  0  0  0  0  2  0  0  0  0  0  0
  193.0540  175.8240  146.9180 O   0  0  0  0  0  0  0  0  0  0  0  0
  190.3560  174.6270  142.9830 C   0  0  0  0  0  0  0  0  0  0  0  0
  188.7600  175.2970  144.7720 N   0  0  0  0  0  0  0  0  0  0  0  0
  190.9430  172.9390  139.0690 C   0  0  2  0  0  3  0  0  0  0  0  0
  189.4500  174.0230  140.8040 C   0  0  0  0  0  0  0  0  0  0  0  0
  190.7530  174.9030  146.1910 C   0  0  2  0  0  3  0  0  0  0  0  0
  190.5560  174.1660  141.6680 C   0  0  0  0  0  0  0  0  0  0  0  0
  192.8960  175.9340  145.5140 C   0  0  1  0  0  3  0  0  0  0  0  0
  188.1810  174.3690  141.2610 C   0  0  0  0  0  3  0  0  0  0  0  0
  191.9340  176.4160  147.5500 C   0  0  0  0  0  2  0  0  0  0  0  0
  190.7450  175.6520  147.3930 O   0  0  0  0  0  0  0  0  0  0  0  0
  191.4730  175.6280  145.0480 C   0  0  1  0  0  3  0  0  0  0  0  0
  186.2340  178.5860  145.7260 C   0  0  0  0  0  3  0  0  0  0  0  0
  187.9140  176.4190  145.1010 C   0  0  0  0  0  0  0  0  0  0  0  0
  187.3410  176.5350  146.3800 C   0  0  0  0  0  3  0  0  0  0  0  0
  186.5080  177.6130  146.6910 C   0  0  0  0  0  3  0  0  0  0  0  0
  186.7920  178.4800  144.4510 C   0  0  0  0  0  3  0  0  0  0  0  0
  187.6260  177.4010  144.1400 C   0  0  0  0  0  3  0  0  0  0  0  0
  2 12  1  0  0  0  0
  4 14  1  0  0  0  0
  6  2  2  0  0  0  0
  7 16  1  0  0  0  0
  9  7  1  0  0  0  0
 10 19  1  0  0  0  0
 11  2  1  0  0  0  0
 11  3  1  0  0  0  0
 12 23  1  0  0  0  0
 12  1  1  0  0  0  0
 13  4  1  0  0  0  0
 13  5  1  1  0  0  0
 13  9  1  0  0  0  0
 14 18  2  0  0  0  0
 14 16  1  0  0  0  0
 15  1  1  6  0  0  0
 15 20  1  0  0  0  0
 16 11  2  0  0  0  0
 17  8  1  1  0  0  0
 17 10  1  0  0  0  0
 18  6  1  0  0  0  0
 20 19  1  0  0  0  0
 21  3  1  6  0  0  0
 21 17  1  0  0  0  0
 21 15  1  0  0  0  0
 22 25  1  0  0  0  0
 23 24  1  0  0  0  0
 24 25  2  0  0  0  0
 26 22  2  0  0  0  0
 27 26  1  0  0  0  0
 27 23  2  0  0  0  0
M  END
>  <MODEL>
8

>  <REMARK>
 VINA RESULT:      -6.7      2.210      5.896
  Name = 
  1 active torsions:
  status: ('A' for Active; 'I' for Inactive)
    1  A    between atoms: C_9  and  N_15
                            x       y       z     vdW  Elec       q    Type
                         _______ _______ _______ _____ _____    ______ ____

>  <TORSDO>
F 1

$$$$
=
 OpenBabel11052418203D

 27 31  0  0  1  0  0  0  0  0999 V2000
  190.1420  175.9300  142.0740 C   0  0  0  0  0  2  0  0  0  0  0  0
  187.6960  176.1180  142.4690 C   0  0  0  0  0  0  0  0  0  0  0  0
  188.7280  175.3930  144.6220 N   0  0  0  0  0  2  0  0  0  0  0  0
  184.4910  178.0500  144.5650 C   0  0  0  0  0  2  0  0  0  0  0  0
  185.5600  179.4760  146.1740 O   0  0  0  0  0  1  0  0  0  0  0  0
  186.6740  176.7400  141.8200 N   0  0  0  0  0  0  0  0  0  0  0  0
  186.7460  176.8230  146.0930 C   0  0  0  0  0  2  0  0  0  0  0  0
  189.5380  172.2830  145.4130 C   0  0  0  0  0  1  0  0  0  0  0  0
  185.3900  177.1410  146.7200 C   0  0  0  0  0  2  0  0  0  0  0  0
  191.6590  173.3220  144.8600 O   0  0  0  0  0  0  0  0  0  0  0  0
  187.7160  176.0990  143.8850 C   0  0  0  0  0  0  0  0  0  0  0  0
  188.7770  175.5620  141.6980 N   0  0  0  0  0  0  0  0  0  0  0  0
  184.7490  178.3470  146.0410 C   0  0  2  0  0  3  0  0  0  0  0  0
  185.6620  177.4060  143.8750 C   0  0  0  0  0  0  0  0  0  0  0  0
  190.6940  175.0240  143.1720 C   0  0  2  0  0  3  0  0  0  0  0  0
  186.6890  176.7550  144.5880 C   0  0  0  0  0  0  0  0  0  0  0  0
  190.2910  173.5730  145.1350 C   0  0  1  0  0  3  0  0  0  0  0  0
  185.6680  177.3640  142.4830 C   0  0  0  0  0  3  0  0  0  0  0  0
  191.7900  172.9690  143.4960 C   0  0  0  0  0  2  0  0  0  0  0  0
  191.5790  174.0670  142.6180 O   0  0  0  0  0  0  0  0  0  0  0  0
  189.6020  174.3840  144.0380 C   0  0  1  0  0  3  0  0  0  0  0  0
  188.1170  173.0290  138.3420 C   0  0  0  0  0  3  0  0  0  0  0  0
  188.5400  174.7000  140.5640 C   0  0  0  0  0  0  0  0  0  0  0  0
  188.7160  173.3090  140.6710 C   0  0  0  0  0  3  0  0  0  0  0  0
  188.5030  172.4780  139.5670 C   0  0  0  0  0  3  0  0  0  0  0  0
  187.9440  174.4090  138.2220 C   0  0  0  0  0  3  0  0  0  0  0  0
  188.1570  175.2400  139.3260 C   0  0  0  0  0  3  0  0  0  0  0  0
  2 11  1  0  0  0  0
  4 13  1  0  0  0  0
  6  2  2  0  0  0  0
  6 18  1  0  0  0  0
  7  9  1  0  0  0  0
 10 17  1  0  0  0  0
 11 16  2  0  0  0  0
 11  3  1  0  0  0  0
 12  1  1  0  0  0  0
 12  2  1  0  0  0  0
 13  5  1  6  0  0  0
 13  9  1  0  0  0  0
 14  4  1  0  0  0  0
 14 16  1  0  0  0  0
 15  1  1  6  0  0  0
 15 21  1  0  0  0  0
 16  7  1  0  0  0  0
 17  8  1  6  0  0  0
 18 14  2  0  0  0  0
 19 10  1  0  0  0  0
 20 15  1  0  0  0  0
 20 19  1  0  0  0  0
 21  3  1  1  0  0  0
 21 17  1  0  0  0  0
 22 25  1  0  0  0  0
 23 24  1  0  0  0  0
 23 12  1  0  0  0  0
 25 24  2  0  0  0  0
 26 22  2  0  0  0  0
 26 27  1  0  0  0  0
 27 23  2  0  0  0  0
M  END
>  <MODEL>
9

>  <REMARK>
 VINA RESULT:      -6.6      2.074      2.681
  Name = 
  1 active torsions:
  status: ('A' for Active; 'I' for Inactive)
    1  A    between atoms: C_9  and  N_15
                            x       y       z     vdW  Elec       q    Type
                         _______ _______ _______ _____ _____    ______ ____

>  <TORSDO>
F 1

$$$$
