=
 OpenBabel11052418293D

 27 31  0  0  1  0  0  0  0  0999 V2000
  188.2570  176.8100  144.6000 C   0  0  2  0  0  3  0  0  0  0  0  0
  188.4530  175.8470  143.4530 C   0  0  0  0  0  0  0  0  0  0  0  0
  187.0620  177.3070  141.9650 C   0  0  0  0  0  0  0  0  0  0  0  0
  189.1640  173.4340  140.2120 N   0  0  0  0  0  0  0  0  0  0  0  0
  188.3240  173.7990  137.8910 C   0  0  0  0  0  1  0  0  0  0  0  0
  189.2450  174.6940  143.6600 C   0  0  0  0  0  3  0  0  0  0  0  0
  187.8820  175.2900  139.8420 N   0  0  0  0  0  2  0  0  0  0  0  0
  185.0520  179.6280  144.1450 C   0  0  0  0  0  3  0  0  0  0  0  0
  186.7110  177.6600  140.8060 O   0  0  0  0  0  0  0  0  0  0  0  0
  185.5540  179.3310  145.3720 N   0  0  0  0  0  0  0  0  0  0  0  0
  188.2560  175.2390  141.1320 C   0  0  0  0  0  0  0  0  0  0  0  0
  188.4590  174.1770  139.3230 C   0  0  0  0  0  0  0  0  0  0  0  0
  189.0180  174.1300  141.3490 C   0  0  0  0  0  0  0  0  0  0  0  0
  187.0820  177.7470  144.4240 C   0  0  0  0  0  0  0  0  0  0  0  0
  187.9380  176.1330  142.1630 C   0  0  0  0  0  0  0  0  0  0  0  0
  185.5470  178.9860  143.0110 C   0  0  0  0  0  3  0  0  0  0  0  0
  189.5310  173.8150  142.6020 C   0  0  0  0  0  3  0  0  0  0  0  0
  187.0220  178.1670  146.7830 F   0  0  0  0  0  0  0  0  0  0  0  0
  186.5460  178.4150  145.5370 C   0  0  0  0  0  0  0  0  0  0  0  0
  186.5660  178.0360  143.1450 C   0  0  0  0  0  0  0  0  0  0  0  0
  189.5520  177.5760  144.9210 C   0  0  0  0  0  2  0  0  0  0  0  0
  192.2560  175.2980  147.3610 C   0  0  0  0  0  3  0  0  0  0  0  0
  190.5000  176.7990  145.7830 C   0  0  0  0  0  0  0  0  0  0  0  0
  190.0430  176.1930  146.9590 C   0  0  0  0  0  3  0  0  0  0  0  0
  190.9210  175.4430  147.7480 C   0  0  0  0  0  3  0  0  0  0  0  0
  192.7150  175.9030  146.1880 C   0  0  0  0  0  3  0  0  0  0  0  0
  191.8380  176.6530  145.3980 C   0  0  0  0  0  3  0  0  0  0  0  0
  1 21  1  6  0  0  0
  2  6  1  0  0  0  0
  2  1  1  0  0  0  0
  3 15  1  0  0  0  0
  3 20  1  0  0  0  0
  4 13  1  0  0  0  0
  5 12  1  0  0  0  0
  7 11  1  0  0  0  0
  8 10  1  0  0  0  0
  9  3  2  0  0  0  0
 10 19  2  0  0  0  0
 11 13  2  0  0  0  0
 11 15  1  0  0  0  0
 12  7  1  0  0  0  0
 12  4  2  0  0  0  0
 13 17  1  0  0  0  0
 14  1  1  0  0  0  0
 14 19  1  0  0  0  0
 15  2  2  0  0  0  0
 16 20  1  0  0  0  0
 16  8  2  0  0  0  0
 17  6  2  0  0  0  0
 19 18  1  0  0  0  0
 20 14  2  0  0  0  0
 21 23  1  0  0  0  0
 22 25  1  0  0  0  0
 23 24  1  0  0  0  0
 24 25  2  0  0  0  0
 26 22  2  0  0  0  0
 27 23  2  0  0  0  0
 27 26  1  0  0  0  0
M  END
>  <MODEL>
1

>  <REMARK>
 VINA RESULT:      -8.5      0.000      0.000
  Name = 
  2 active torsions:
  status: ('A' for Active; 'I' for Inactive)
    1  A    between atoms: C_1  and  C_15
    2  A    between atoms: C_9  and  C_15
                            x       y       z     vdW  Elec       q    Type
                         _______ _______ _______ _____ _____    ______ ____

>  <TORSDO>
F 2

$$$$
=
 OpenBabel11052418293D

 27 31  0  0  1  0  0  0  0  0999 V2000
  187.2380  176.6460  144.4640 C   0  0  2  0  0  3  0  0  0  0  0  0
  187.3810  176.1900  143.0310 C   0  0  0  0  0  0  0  0  0  0  0  0
  185.6840  177.8850  142.3030 C   0  0  0  0  0  0  0  0  0  0  0  0
  187.9100  175.2070  139.0840 N   0  0  0  0  0  0  0  0  0  0  0  0
  186.7590  176.2600  137.1360 C   0  0  0  0  0  1  0  0  0  0  0  0
  188.2970  175.1560  142.7340 C   0  0  0  0  0  3  0  0  0  0  0  0
  186.4230  176.8850  139.5280 N   0  0  0  0  0  2  0  0  0  0  0  0
  183.7490  178.9890  145.3390 C   0  0  0  0  0  3  0  0  0  0  0  0
  185.1610  178.5780  141.3880 O   0  0  0  0  0  0  0  0  0  0  0  0
  184.4250  178.3430  146.3260 N   0  0  0  0  0  0  0  0  0  0  0  0
  186.9560  176.4280  140.6730 C   0  0  0  0  0  0  0  0  0  0  0  0
  187.0340  176.1170  138.5900 C   0  0  0  0  0  0  0  0  0  0  0  0
  187.8410  175.4270  140.4040 C   0  0  0  0  0  0  0  0  0  0  0  0
  185.9660  177.4190  144.7410 C   0  0  0  0  0  0  0  0  0  0  0  0
  186.6850  176.8460  141.9830 C   0  0  0  0  0  0  0  0  0  0  0  0
  184.1580  178.8640  144.0130 C   0  0  0  0  0  3  0  0  0  0  0  0
  188.5320  174.7570  141.4070 C   0  0  0  0  0  3  0  0  0  0  0  0
  186.1590  176.9600  147.0850 F   0  0  0  0  0  0  0  0  0  0  0  0
  185.5110  177.5690  146.0610 C   0  0  0  0  0  0  0  0  0  0  0  0
  185.2710  178.0740  143.7040 C   0  0  0  0  0  0  0  0  0  0  0  0
  188.4840  177.4120  144.9390 C   0  0  0  0  0  2  0  0  0  0  0  0
  190.8140  175.2490  147.8280 C   0  0  0  0  0  3  0  0  0  0  0  0
  189.3060  176.6470  145.9310 C   0  0  0  0  0  0  0  0  0  0  0  0
  190.5430  177.1490  146.3520 C   0  0  0  0  0  3  0  0  0  0  0  0
  191.2960  176.4500  147.3000 C   0  0  0  0  0  3  0  0  0  0  0  0
  189.5800  174.7450  147.4080 C   0  0  0  0  0  3  0  0  0  0  0  0
  188.8260  175.4430  146.4600 C   0  0  0  0  0  3  0  0  0  0  0  0
  1 14  1  0  0  0  0
  1 21  1  6  0  0  0
  2  1  1  0  0  0  0
  3 20  1  0  0  0  0
  4 13  1  0  0  0  0
  5 12  1  0  0  0  0
  6  2  1  0  0  0  0
  7 11  1  0  0  0  0
  8 10  1  0  0  0  0
  9  3  2  0  0  0  0
 11 15  1  0  0  0  0
 12  4  2  0  0  0  0
 12  7  1  0  0  0  0
 13 11  2  0  0  0  0
 13 17  1  0  0  0  0
 14 19  1  0  0  0  0
 15  3  1  0  0  0  0
 15  2  2  0  0  0  0
 16  8  2  0  0  0  0
 17  6  2  0  0  0  0
 19 10  2  0  0  0  0
 19 18  1  0  0  0  0
 20 16  1  0  0  0  0
 20 14  2  0  0  0  0
 21 23  1  0  0  0  0
 23 24  2  0  0  0  0
 23 27  1  0  0  0  0
 24 25  1  0  0  0  0
 25 22  2  0  0  0  0
 26 22  1  0  0  0  0
 27 26  2  0  0  0  0
M  END
>  <MODEL>
2

>  <REMARK>
 VINA RESULT:      -8.4      1.450      1.914
  Name = 
  2 active torsions:
  status: ('A' for Active; 'I' for Inactive)
    1  A    between atoms: C_1  and  C_15
    2  A    between atoms: C_9  and  C_15
                            x       y       z     vdW  Elec       q    Type
                         _______ _______ _______ _____ _____    ______ ____

>  <TORSDO>
F 2

$$$$
=
 OpenBabel11052418293D

 27 31  0  0  1  0  0  0  0  0999 V2000
  188.9040  176.6230  145.3920 C   0  0  2  0  0  3  0  0  0  0  0  0
  188.6520  176.2970  143.9390 C   0  0  0  0  0  0  0  0  0  0  0  0
  190.5930  174.7100  143.9390 C   0  0  0  0  0  0  0  0  0  0  0  0
  187.8690  175.1420  140.0810 N   0  0  0  0  0  0  0  0  0  0  0  0
  189.1350  173.4400  138.7670 C   0  0  0  0  0  1  0  0  0  0  0  0
  187.5670  176.9180  143.2800 C   0  0  0  0  0  3  0  0  0  0  0  0
  189.6290  174.1160  141.1170 N   0  0  0  0  0  2  0  0  0  0  0  0
  192.7590  175.5070  146.9150 C   0  0  0  0  0  3  0  0  0  0  0  0
  191.2040  173.7380  143.4180 O   0  0  0  0  0  0  0  0  0  0  0  0
  192.0080  176.4530  147.5360 N   0  0  0  0  0  0  0  0  0  0  0  0
  189.0540  174.9970  141.9520 C   0  0  0  0  0  0  0  0  0  0  0  0
  188.8750  174.2360  139.9950 C   0  0  0  0  0  0  0  0  0  0  0  0
  188.0070  175.6080  141.3300 C   0  0  0  0  0  0  0  0  0  0  0  0
  190.2940  176.2660  145.8720 C   0  0  0  0  0  0  0  0  0  0  0  0
  189.4230  175.3140  143.2660 C   0  0  0  0  0  0  0  0  0  0  0  0
  192.3030  174.9100  145.7410 C   0  0  0  0  0  3  0  0  0  0  0  0
  187.2360  176.5810  141.9560 C   0  0  0  0  0  3  0  0  0  0  0  0
  190.0830  177.7810  147.7160 F   0  0  0  0  0  0  0  0  0  0  0  0
  190.8000  176.8440  147.0480 C   0  0  0  0  0  0  0  0  0  0  0  0
  191.0650  175.2890  145.2090 C   0  0  0  0  0  0  0  0  0  0  0  0
  187.8170  176.0260  146.3010 C   0  0  0  0  0  2  0  0  0  0  0  0
  184.6320  178.7970  147.0940 C   0  0  0  0  0  3  0  0  0  0  0  0
  186.7020  176.9820  146.5960 C   0  0  0  0  0  0  0  0  0  0  0  0
  186.9520  178.1460  147.3320 C   0  0  0  0  0  3  0  0  0  0  0  0
  185.9170  179.0530  147.5810 C   0  0  0  0  0  3  0  0  0  0  0  0
  184.3790  177.6340  146.3610 C   0  0  0  0  0  3  0  0  0  0  0  0
  185.4140  176.7270  146.1110 C   0  0  0  0  0  3  0  0  0  0  0  0
  1 14  1  0  0  0  0
  1 21  1  1  0  0  0
  2  1  1  0  0  0  0
  3 20  1  0  0  0  0
  4 13  1  0  0  0  0
  5 12  1  0  0  0  0
  6  2  1  0  0  0  0
  7 11  1  0  0  0  0
  8 10  1  0  0  0  0
  9  3  2  0  0  0  0
 11 15  1  0  0  0  0
 12  4  2  0  0  0  0
 12  7  1  0  0  0  0
 13 11  2  0  0  0  0
 13 17  1  0  0  0  0
 14 19  1  0  0  0  0
 15  2  2  0  0  0  0
 15  3  1  0  0  0  0
 16  8  2  0  0  0  0
 17  6  2  0  0  0  0
 19 10  2  0  0  0  0
 19 18  1  0  0  0  0
 20 16  1  0  0  0  0
 20 14  2  0  0  0  0
 21 23  1  0  0  0  0
 22 25  1  0  0  0  0
 23 24  1  0  0  0  0
 24 25  2  0  0  0  0
 26 22  2  0  0  0  0
 27 26  1  0  0  0  0
 27 23  2  0  0  0  0
M  END
>  <MODEL>
3

>  <REMARK>
 VINA RESULT:      -8.3      2.408      4.933
  Name = 
  2 active torsions:
  status: ('A' for Active; 'I' for Inactive)
    1  A    between atoms: C_1  and  C_15
    2  A    between atoms: C_9  and  C_15
                            x       y       z     vdW  Elec       q    Type
                         _______ _______ _______ _____ _____    ______ ____

>  <TORSDO>
F 2

$$$$
=
 OpenBabel11052418293D

 27 31  0  0  1  0  0  0  0  0999 V2000
  188.7120  176.4500  144.8410 C   0  0  2  0  0  3  0  0  0  0  0  0
  188.7670  175.8680  143.4480 C   0  0  0  0  0  0  0  0  0  0  0  0
  190.6060  174.3150  144.1490 C   0  0  0  0  0  0  0  0  0  0  0  0
  188.7930  174.0400  139.7750 N   0  0  0  0  0  0  0  0  0  0  0  0
  190.2510  172.1360  139.0880 C   0  0  0  0  0  1  0  0  0  0  0  0
  187.8720  176.3570  142.4700 C   0  0  0  0  0  3  0  0  0  0  0  0
  190.2510  173.2220  141.3340 N   0  0  0  0  0  2  0  0  0  0  0  0
  192.1080  175.6390  147.3390 C   0  0  0  0  0  3  0  0  0  0  0  0
  191.2800  173.2680  143.9530 O   0  0  0  0  0  0  0  0  0  0  0  0
  191.2740  176.6780  147.6060 N   0  0  0  0  0  0  0  0  0  0  0  0
  189.5410  174.2360  141.8560 C   0  0  0  0  0  0  0  0  0  0  0  0
  189.7610  173.1370  140.0710 C   0  0  0  0  0  0  0  0  0  0  0  0
  188.6740  174.7220  140.9240 C   0  0  0  0  0  0  0  0  0  0  0  0
  189.9530  176.1890  145.6670 C   0  0  0  0  0  0  0  0  0  0  0  0
  189.6300  174.7840  143.1430 C   0  0  0  0  0  0  0  0  0  0  0  0
  191.8940  174.8400  146.2170 C   0  0  0  0  0  3  0  0  0  0  0  0
  187.8220  175.7880  141.1860 C   0  0  0  0  0  3  0  0  0  0  0  0
  189.4040  178.0090  147.1270 F   0  0  0  0  0  0  0  0  0  0  0  0
  190.2140  176.9700  146.8060 C   0  0  0  0  0  0  0  0  0  0  0  0
  190.8140  175.1130  145.3700 C   0  0  0  0  0  0  0  0  0  0  0  0
  187.4350  176.0200  145.5820 C   0  0  0  0  0  2  0  0  0  0  0  0
  184.4720  179.1230  145.8020 C   0  0  0  0  0  3  0  0  0  0  0  0
  186.4110  177.1100  145.6770 C   0  0  0  0  0  0  0  0  0  0  0  0
  186.6220  178.3290  145.0210 C   0  0  0  0  0  3  0  0  0  0  0  0
  185.6530  179.3350  145.0840 C   0  0  0  0  0  3  0  0  0  0  0  0
  184.2600  177.9080  146.4590 C   0  0  0  0  0  3  0  0  0  0  0  0
  185.2290  176.9010  146.3960 C   0  0  0  0  0  3  0  0  0  0  0  0
  1 21  1  1  0  0  0
  1 14  1  0  0  0  0
  2  1  1  0  0  0  0
  3 20  1  0  0  0  0
  4 12  2  0  0  0  0
  4 13  1  0  0  0  0
  5 12  1  0  0  0  0
  6  2  2  0  0  0  0
  7 11  1  0  0  0  0
  8 10  1  0  0  0  0
  9  3  2  0  0  0  0
 11 15  2  0  0  0  0
 12  7  1  0  0  0  0
 13 17  2  0  0  0  0
 13 11  1  0  0  0  0
 14 19  1  0  0  0  0
 15  2  1  0  0  0  0
 15  3  1  0  0  0  0
 16  8  2  0  0  0  0
 17  6  1  0  0  0  0
 19 18  1  0  0  0  0
 19 10  2  0  0  0  0
 20 14  2  0  0  0  0
 20 16  1  0  0  0  0
 21 23  1  0  0  0  0
 22 26  1  0  0  0  0
 23 27  1  0  0  0  0
 24 25  1  0  0  0  0
 24 23  2  0  0  0  0
 25 22  2  0  0  0  0
 27 26  2  0  0  0  0
M  END
>  <MODEL>
4

>  <REMARK>
 VINA RESULT:      -8.2      2.322      4.991
  Name = 
  2 active torsions:
  status: ('A' for Active; 'I' for Inactive)
    1  A    between atoms: C_1  and  C_15
    2  A    between atoms: C_9  and  C_15
                            x       y       z     vdW  Elec       q    Type
                         _______ _______ _______ _____ _____    ______ ____

>  <TORSDO>
F 2

$$$$
=
 OpenBabel11052418293D

 27 31  0  0  1  0  0  0  0  0999 V2000
  187.5150  177.8270  144.0970 C   0  0  2  0  0  3  0  0  0  0  0  0
  189.0110  177.6230  144.1630 C   0  0  0  0  0  0  0  0  0  0  0  0
  188.8450  177.0670  146.6020 C   0  0  0  0  0  0  0  0  0  0  0  0
  193.0200  176.7780  144.3710 N   0  0  0  0  0  0  0  0  0  0  0  0
  194.2590  176.0000  146.3920 C   0  0  0  0  0  1  0  0  0  0  0  0
  189.7730  177.7880  142.9850 C   0  0  0  0  0  3  0  0  0  0  0  0
  191.8160  176.4980  146.2940 N   0  0  0  0  0  2  0  0  0  0  0  0
  185.5280  178.3220  147.8690 C   0  0  0  0  0  3  0  0  0  0  0  0
  189.3430  176.5420  147.6350 O   0  0  0  0  0  0  0  0  0  0  0  0
  184.9540  178.7480  146.7140 N   0  0  0  0  0  0  0  0  0  0  0  0
  191.0100  176.9150  145.3030 C   0  0  0  0  0  0  0  0  0  0  0  0
  193.0240  176.4260  145.6810 C   0  0  0  0  0  0  0  0  0  0  0  0
  191.7310  177.0820  144.1590 C   0  0  0  0  0  0  0  0  0  0  0  0
  186.8630  178.0550  145.4430 C   0  0  0  0  0  0  0  0  0  0  0  0
  189.6350  177.1810  145.3580 C   0  0  0  0  0  0  0  0  0  0  0  0
  186.7990  177.7510  147.8500 C   0  0  0  0  0  3  0  0  0  0  0  0
  191.1530  177.5230  142.9740 C   0  0  0  0  0  3  0  0  0  0  0  0
  184.9590  179.0580  144.3890 F   0  0  0  0  0  0  0  0  0  0  0  0
  185.5840  178.6300  145.5150 C   0  0  0  0  0  0  0  0  0  0  0  0
  187.4780  177.6160  146.6340 C   0  0  0  0  0  0  0  0  0  0  0  0
  186.8260  176.6960  143.3150 C   0  0  0  0  0  2  0  0  0  0  0  0
  185.4010  177.8630  139.4340 C   0  0  0  0  0  3  0  0  0  0  0  0
  186.3380  177.1220  141.9640 C   0  0  0  0  0  0  0  0  0  0  0  0
  187.1110  176.8630  140.8260 C   0  0  0  0  0  3  0  0  0  0  0  0
  186.6430  177.2340  139.5620 C   0  0  0  0  0  3  0  0  0  0  0  0
  184.6280  178.1250  140.5700 C   0  0  0  0  0  3  0  0  0  0  0  0
  185.0960  177.7540  141.8340 C   0  0  0  0  0  3  0  0  0  0  0  0
  1 21  1  1  0  0  0
  1  2  1  0  0  0  0
  1 14  1  0  0  0  0
  2 15  1  0  0  0  0
  3 20  1  0  0  0  0
  3  9  2  0  0  0  0
  4 12  2  0  0  0  0
  6  2  2  0  0  0  0
 10  8  2  0  0  0  0
 11 15  2  0  0  0  0
 11  7  1  0  0  0  0
 12  7  1  0  0  0  0
 12  5  1  0  0  0  0
 13  4  1  0  0  0  0
 13 11  1  0  0  0  0
 14 19  2  0  0  0  0
 14 20  1  0  0  0  0
 15  3  1  0  0  0  0
 16  8  1  0  0  0  0
 17  6  1  0  0  0  0
 17 13  2  0  0  0  0
 18 19  1  0  0  0  0
 19 10  1  0  0  0  0
 20 16  2  0  0  0  0
 22 25  2  0  0  0  0
 22 26  1  0  0  0  0
 23 21  1  0  0  0  0
 24 23  2  0  0  0  0
 25 24  1  0  0  0  0
 26 27  2  0  0  0  0
 27 23  1  0  0  0  0
M  END
>  <MODEL>
5

>  <REMARK>
 VINA RESULT:      -8.1      3.126      6.041
  Name = 
  2 active torsions:
  status: ('A' for Active; 'I' for Inactive)
    1  A    between atoms: C_1  and  C_15
    2  A    between atoms: C_9  and  C_15
                            x       y       z     vdW  Elec       q    Type
                         _______ _______ _______ _____ _____    ______ ____

>  <TORSDO>
F 2

$$$$
=
 OpenBabel11052418293D

 27 31  0  0  1  0  0  0  0  0999 V2000
  188.9170  176.9410  145.1590 C   0  0  2  0  0  3  0  0  0  0  0  0
  188.2310  177.2220  143.8430 C   0  0  0  0  0  0  0  0  0  0  0  0
  189.5790  175.4210  142.7350 C   0  0  0  0  0  0  0  0  0  0  0  0
  186.2250  177.7270  140.3000 N   0  0  0  0  0  0  0  0  0  0  0  0
  186.5890  176.4250  138.2030 C   0  0  0  0  0  1  0  0  0  0  0  0
  187.2400  178.2280  143.7930 C   0  0  0  0  0  3  0  0  0  0  0  0
  187.8200  176.0890  140.3470 N   0  0  0  0  0  2  0  0  0  0  0  0
  192.5470  174.6620  144.9250 C   0  0  0  0  0  3  0  0  0  0  0  0
  189.7400  174.6140  141.7800 O   0  0  0  0  0  0  0  0  0  0  0  0
  192.2740  175.4340  146.0090 N   0  0  0  0  0  0  0  0  0  0  0  0
  187.7440  176.6910  141.5450 C   0  0  0  0  0  0  0  0  0  0  0  0
  186.8780  176.7480  139.6250 C   0  0  0  0  0  0  0  0  0  0  0  0
  186.7930  177.6680  141.5130 C   0  0  0  0  0  0  0  0  0  0  0  0
  190.2220  176.1860  145.0260 C   0  0  0  0  0  0  0  0  0  0  0  0
  188.5010  176.4320  142.6960 C   0  0  0  0  0  0  0  0  0  0  0  0
  191.6650  174.6310  143.8460 C   0  0  0  0  0  3  0  0  0  0  0  0
  186.5110  178.4660  142.6160 C   0  0  0  0  0  3  0  0  0  0  0  0
  190.9130  176.9300  147.1960 F   0  0  0  0  0  0  0  0  0  0  0  0
  191.1450  176.1890  146.0840 C   0  0  0  0  0  0  0  0  0  0  0  0
  190.4950  175.3980  143.8890 C   0  0  0  0  0  0  0  0  0  0  0  0
  187.9660  176.2600  146.1570 C   0  0  0  0  0  2  0  0  0  0  0  0
  184.6650  178.7790  147.2610 C   0  0  0  0  0  3  0  0  0  0  0  0
  186.8120  177.1270  146.5600 C   0  0  0  0  0  0  0  0  0  0  0  0
  187.0360  178.2910  147.3040 C   0  0  0  0  0  3  0  0  0  0  0  0
  185.9630  179.1160  147.6540 C   0  0  0  0  0  3  0  0  0  0  0  0
  184.4380  177.6160  146.5200 C   0  0  0  0  0  3  0  0  0  0  0  0
  185.5110  176.7900  146.1690 C   0  0  0  0  0  3  0  0  0  0  0  0
  1 21  1  1  0  0  0
  2  1  1  0  0  0  0
  3 20  1  0  0  0  0
  4 13  1  0  0  0  0
  5 12  1  0  0  0  0
  6  2  1  0  0  0  0
  7 11  1  0  0  0  0
  8 10  1  0  0  0  0
  9  3  2  0  0  0  0
 10 19  2  0  0  0  0
 11 15  1  0  0  0  0
 12  4  2  0  0  0  0
 12  7  1  0  0  0  0
 13 11  2  0  0  0  0
 13 17  1  0  0  0  0
 14  1  1  0  0  0  0
 14 19  1  0  0  0  0
 15  3  1  0  0  0  0
 15  2  2  0  0  0  0
 16 20  1  0  0  0  0
 16  8  2  0  0  0  0
 17  6  2  0  0  0  0
 19 18  1  0  0  0  0
 20 14  2  0  0  0  0
 21 23  1  0  0  0  0
 22 25  1  0  0  0  0
 23 24  1  0  0  0  0
 24 25  2  0  0  0  0
 26 22  2  0  0  0  0
 27 26  1  0  0  0  0
 27 23  2  0  0  0  0
M  END
>  <MODEL>
6

>  <REMARK>
 VINA RESULT:      -8.1      2.427      5.018
  Name = 
  2 active torsions:
  status: ('A' for Active; 'I' for Inactive)
    1  A    between atoms: C_1  and  C_15
    2  A    between atoms: C_9  and  C_15
                            x       y       z     vdW  Elec       q    Type
                         _______ _______ _______ _____ _____    ______ ____

>  <TORSDO>
F 2

$$$$
=
 OpenBabel11052418293D

 27 31  0  0  1  0  0  0  0  0999 V2000
  189.1330  176.3810  144.4880 C   0  0  2  0  0  3  0  0  0  0  0  0
  189.2760  175.4780  143.2860 C   0  0  0  0  0  0  0  0  0  0  0  0
  187.3460  176.6250  142.1720 C   0  0  0  0  0  0  0  0  0  0  0  0
  189.7680  173.2590  139.8710 N   0  0  0  0  0  0  0  0  0  0  0  0
  188.4110  173.4460  137.7840 C   0  0  0  0  0  1  0  0  0  0  0  0
  190.3060  174.5100  143.2800 C   0  0  0  0  0  3  0  0  0  0  0  0
  188.0950  174.8170  139.8450 N   0  0  0  0  0  2  0  0  0  0  0  0
  185.4080  178.4900  144.8080 C   0  0  0  0  0  3  0  0  0  0  0  0
  186.7000  176.8990  141.1240 O   0  0  0  0  0  0  0  0  0  0  0  0
  186.2010  178.3010  145.8950 N   0  0  0  0  0  0  0  0  0  0  0  0
  188.7290  174.8420  141.0290 C   0  0  0  0  0  0  0  0  0  0  0  0
  188.7610  173.8440  139.1740 C   0  0  0  0  0  0  0  0  0  0  0  0
  189.7240  173.9110  141.0410 C   0  0  0  0  0  0  0  0  0  0  0  0
  187.7840  177.0600  144.5930 C   0  0  0  0  0  0  0  0  0  0  0  0
  188.4590  175.6530  142.1400 C   0  0  0  0  0  0  0  0  0  0  0  0
  185.7760  177.9610  143.5720 C   0  0  0  0  0  3  0  0  0  0  0  0
  190.5370  173.7070  142.1500 C   0  0  0  0  0  3  0  0  0  0  0  0
  188.1300  177.4590  146.9300 F   0  0  0  0  0  0  0  0  0  0  0  0
  187.3670  177.6050  145.8180 C   0  0  0  0  0  0  0  0  0  0  0  0
  186.9690  177.2380  143.4570 C   0  0  0  0  0  0  0  0  0  0  0  0
  190.2880  177.3940  144.5730 C   0  0  0  0  0  2  0  0  0  0  0  0
  193.7860  175.7590  146.4560 C   0  0  0  0  0  3  0  0  0  0  0  0
  191.5100  176.8420  145.2410 C   0  0  0  0  0  0  0  0  0  0  0  0
  191.3950  176.1460  146.4500 C   0  0  0  0  0  3  0  0  0  0  0  0
  192.5330  175.6050  147.0570 C   0  0  0  0  0  3  0  0  0  0  0  0
  193.9030  176.4550  145.2500 C   0  0  0  0  0  3  0  0  0  0  0  0
  192.7660  176.9960  144.6420 C   0  0  0  0  0  3  0  0  0  0  0  0
  1 21  1  6  0  0  0
  1 14  1  0  0  0  0
  2  1  1  0  0  0  0
  3 20  1  0  0  0  0
  4 13  1  0  0  0  0
  5 12  1  0  0  0  0
  6  2  1  0  0  0  0
  7 11  1  0  0  0  0
  8 10  1  0  0  0  0
  9  3  2  0  0  0  0
 11 13  2  0  0  0  0
 11 15  1  0  0  0  0
 12  7  1  0  0  0  0
 12  4  2  0  0  0  0
 13 17  1  0  0  0  0
 14 19  1  0  0  0  0
 15  3  1  0  0  0  0
 15  2  2  0  0  0  0
 16  8  2  0  0  0  0
 17  6  2  0  0  0  0
 19 10  2  0  0  0  0
 19 18  1  0  0  0  0
 20 16  1  0  0  0  0
 20 14  2  0  0  0  0
 21 23  1  0  0  0  0
 22 25  1  0  0  0  0
 23 24  1  0  0  0  0
 24 25  2  0  0  0  0
 26 22  2  0  0  0  0
 27 23  2  0  0  0  0
 27 26  1  0  0  0  0
M  END
>  <MODEL>
7

>  <REMARK>
 VINA RESULT:      -7.8      0.962      1.107
  Name = 
  2 active torsions:
  status: ('A' for Active; 'I' for Inactive)
    1  A    between atoms: C_1  and  C_15
    2  A    between atoms: C_9  and  C_15
                            x       y       z     vdW  Elec       q    Type
                         _______ _______ _______ _____ _____    ______ ____

>  <TORSDO>
F 2

$$$$
=
 OpenBabel11052418293D

 27 31  0  0  1  0  0  0  0  0999 V2000
  188.5310  176.3090  144.4330 C   0  0  2  0  0  3  0  0  0  0  0  0
  189.8570  176.1320  145.1350 C   0  0  0  0  0  0  0  0  0  0  0  0
  190.9250  175.4290  142.9780 C   0  0  0  0  0  0  0  0  0  0  0  0
  193.5530  175.8970  146.8980 N   0  0  0  0  0  0  0  0  0  0  0  0
  195.6910  175.2910  145.7620 C   0  0  0  0  0  1  0  0  0  0  0  0
  189.9390  176.4160  146.5170 C   0  0  0  0  0  3  0  0  0  0  0  0
  193.4570  175.4350  144.6610 N   0  0  0  0  0  2  0  0  0  0  0  0
  188.1920  174.4440  140.5820 C   0  0  0  0  0  3  0  0  0  0  0  0
  191.9630  175.2560  142.2840 O   0  0  0  0  0  0  0  0  0  0  0  0
  187.0860  174.7780  141.2980 N   0  0  0  0  0  0  0  0  0  0  0  0
  192.2330  175.7440  145.1200 C   0  0  0  0  0  0  0  0  0  0  0  0
  194.2260  175.5440  145.7740 C   0  0  0  0  0  0  0  0  0  0  0  0
  192.2940  176.0170  146.4540 C   0  0  0  0  0  0  0  0  0  0  0  0
  188.4340  175.5880  143.1060 C   0  0  0  0  0  0  0  0  0  0  0  0
  191.0250  175.7830  144.4100 C   0  0  0  0  0  0  0  0  0  0  0  0
  189.4620  174.6660  141.1100 C   0  0  0  0  0  3  0  0  0  0  0  0
  191.1680  176.3540  147.1960 C   0  0  0  0  0  3  0  0  0  0  0  0
  186.0410  175.6660  143.2000 F   0  0  0  0  0  0  0  0  0  0  0  0
  187.1760  175.3370  142.5340 C   0  0  0  0  0  0  0  0  0  0  0  0
  189.5910  175.2390  142.3810 C   0  0  0  0  0  0  0  0  0  0  0  0
  188.1550  177.7950  144.3020 C   0  0  0  0  0  2  0  0  0  0  0  0
  184.2490  178.6660  145.8630 C   0  0  0  0  0  3  0  0  0  0  0  0
  186.8010  178.1140  144.8580 C   0  0  0  0  0  0  0  0  0  0  0  0
  185.9780  179.0430  144.2100 C   0  0  0  0  0  3  0  0  0  0  0  0
  184.7030  179.3180  144.7130 C   0  0  0  0  0  3  0  0  0  0  0  0
  185.0700  177.7400  146.5120 C   0  0  0  0  0  3  0  0  0  0  0  0
  186.3450  177.4630  146.0100 C   0  0  0  0  0  3  0  0  0  0  0  0
  1 21  1  6  0  0  0
  1  2  1  0  0  0  0
  2  6  1  0  0  0  0
  3 15  1  0  0  0  0
  5 12  1  0  0  0  0
  6 17  2  0  0  0  0
  7 11  1  0  0  0  0
  7 12  1  0  0  0  0
  8 16  2  0  0  0  0
  8 10  1  0  0  0  0
  9  3  2  0  0  0  0
 10 19  2  0  0  0  0
 11 13  2  0  0  0  0
 12  4  2  0  0  0  0
 13  4  1  0  0  0  0
 13 17  1  0  0  0  0
 14  1  1  0  0  0  0
 15 11  1  0  0  0  0
 15  2  2  0  0  0  0
 16 20  1  0  0  0  0
 19 14  1  0  0  0  0
 19 18  1  0  0  0  0
 20  3  1  0  0  0  0
 20 14  2  0  0  0  0
 21 23  1  0  0  0  0
 22 26  1  0  0  0  0
 23 27  1  0  0  0  0
 24 25  1  0  0  0  0
 24 23  2  0  0  0  0
 25 22  2  0  0  0  0
 27 26  2  0  0  0  0
M  END
>  <MODEL>
8

>  <REMARK>
 VINA RESULT:      -7.7      2.796      6.039
  Name = 
  2 active torsions:
  status: ('A' for Active; 'I' for Inactive)
    1  A    between atoms: C_1  and  C_15
    2  A    between atoms: C_9  and  C_15
                            x       y       z     vdW  Elec       q    Type
                         _______ _______ _______ _____ _____    ______ ____

>  <TORSDO>
F 2

$$$$
=
 OpenBabel11052418293D

 27 31  0  0  1  0  0  0  0  0999 V2000
  187.7790  176.4850  146.0180 C   0  0  2  0  0  3  0  0  0  0  0  0
  188.1830  175.6850  144.8020 C   0  0  0  0  0  0  0  0  0  0  0  0
  186.5700  176.9830  143.3890 C   0  0  0  0  0  0  0  0  0  0  0  0
  189.4180  173.7560  141.3990 N   0  0  0  0  0  0  0  0  0  0  0  0
  188.5750  174.1640  139.0860 C   0  0  0  0  0  1  0  0  0  0  0  0
  189.1780  174.6900  144.9410 C   0  0  0  0  0  3  0  0  0  0  0  0
  187.8110  175.3610  141.1370 N   0  0  0  0  0  2  0  0  0  0  0  0
  184.1020  178.6720  145.6780 C   0  0  0  0  0  3  0  0  0  0  0  0
  186.1830  177.3670  142.2520 O   0  0  0  0  0  0  0  0  0  0  0  0
  184.6240  178.3650  146.8940 N   0  0  0  0  0  0  0  0  0  0  0  0
  188.1590  175.2640  142.4310 C   0  0  0  0  0  0  0  0  0  0  0  0
  188.6030  174.4290  140.5480 C   0  0  0  0  0  0  0  0  0  0  0  0
  189.1150  174.3050  142.5830 C   0  0  0  0  0  0  0  0  0  0  0  0
  186.4500  177.1940  145.8760 C   0  0  0  0  0  0  0  0  0  0  0  0
  187.6510  175.9840  143.5210 C   0  0  0  0  0  0  0  0  0  0  0  0
  184.7360  178.2410  144.5140 C   0  0  0  0  0  3  0  0  0  0  0  0
  189.6520  173.9810  143.8240 C   0  0  0  0  0  3  0  0  0  0  0  0
  186.2570  177.3780  148.2580 F   0  0  0  0  0  0  0  0  0  0  0  0
  185.7700  177.6440  147.0200 C   0  0  0  0  0  0  0  0  0  0  0  0
  185.9160  177.4950  144.6070 C   0  0  0  0  0  0  0  0  0  0  0  0
  188.8940  177.4510  146.4540 C   0  0  0  0  0  2  0  0  0  0  0  0
  192.3410  177.4190  143.8890 C   0  0  0  0  0  3  0  0  0  0  0  0
  190.0890  177.4220  145.5500 C   0  0  0  0  0  0  0  0  0  0  0  0
  190.0650  178.1170  144.3350 C   0  0  0  0  0  3  0  0  0  0  0  0
  191.1910  178.1150  143.5050 C   0  0  0  0  0  3  0  0  0  0  0  0
  192.3660  176.7230  145.1010 C   0  0  0  0  0  3  0  0  0  0  0  0
  191.2410  176.7250  145.9320 C   0  0  0  0  0  3  0  0  0  0  0  0
  1 21  1  6  0  0  0
  2  6  1  0  0  0  0
  2  1  1  0  0  0  0
  3 15  1  0  0  0  0
  3 20  1  0  0  0  0
  4 13  1  0  0  0  0
  5 12  1  0  0  0  0
  7 11  1  0  0  0  0
  8 10  1  0  0  0  0
  9  3  2  0  0  0  0
 10 19  2  0  0  0  0
 11 13  2  0  0  0  0
 11 15  1  0  0  0  0
 12  7  1  0  0  0  0
 12  4  2  0  0  0  0
 13 17  1  0  0  0  0
 14  1  1  0  0  0  0
 14 19  1  0  0  0  0
 15  2  2  0  0  0  0
 16 20  1  0  0  0  0
 16  8  2  0  0  0  0
 17  6  2  0  0  0  0
 19 18  1  0  0  0  0
 20 14  2  0  0  0  0
 22 26  1  0  0  0  0
 23 27  1  0  0  0  0
 23 21  1  0  0  0  0
 24 23  2  0  0  0  0
 25 22  2  0  0  0  0
 25 24  1  0  0  0  0
 26 27  2  0  0  0  0
M  END
>  <MODEL>
9

>  <REMARK>
 VINA RESULT:      -7.7      1.357      1.987
  Name = 
  2 active torsions:
  status: ('A' for Active; 'I' for Inactive)
    1  A    between atoms: C_1  and  C_15
    2  A    between atoms: C_9  and  C_15
                            x       y       z     vdW  Elec       q    Type
                         _______ _______ _______ _____ _____    ______ ____

>  <TORSDO>
F 2

$$$$
