=
 OpenBabel11052418373D

 34 39  0  0  1  0  0  0  0  0999 V2000
  185.3990  177.5270  142.9570 C   0  0  1  0  0  3  0  0  0  0  0  0
  185.3380  177.5420  145.4690 C   0  0  1  0  0  3  0  0  0  0  0  0
  187.4870  177.3230  144.1690 C   0  0  1  0  0  3  0  0  0  0  0  0
  190.5990  177.7990  144.4780 C   0  0  0  0  0  2  0  0  0  0  0  0
  184.8080  178.3670  141.1060 C   0  0  0  0  0  2  0  0  0  0  0  0
  184.0660  178.1120  145.5120 O   0  0  0  0  0  1  0  0  0  0  0  0
  187.4940  177.3130  146.6750 C   0  0  0  0  0  2  0  0  0  0  0  0
  186.0840  177.9940  144.2150 C   0  0  1  0  0  3  0  0  0  0  0  0
  189.7040  177.0850  145.4710 C   0  0  2  0  0  3  0  0  0  0  0  0
  184.0730  177.9970  142.4000 C   0  0  0  0  0  2  0  0  0  0  0  0
  188.2300  177.5010  142.7790 C   0  0  1  0  0  3  0  0  0  0  0  0
  186.1060  178.2710  141.8780 C   0  0  2  0  0  3  0  0  0  0  0  0
  186.1260  177.9760  146.6930 C   0  0  0  0  0  2  0  0  0  0  0  0
  190.7460  177.0030  143.1910 C   0  0  0  0  0  2  0  0  0  0  0  0
  189.4260  176.5590  142.5620 C   0  0  1  0  0  3  0  0  0  0  0  0
  188.2930  177.7110  145.4270 C   0  0  1  0  0  3  0  0  0  0  0  0
  187.2940  177.4120  141.5440 C   0  0  0  0  0  2  0  0  0  0  0  0
  189.6880  172.8930  143.6270 C   0  0  0  0  0  0  0  0  0  0  0  0
  188.7570  172.3090  142.7640 C   0  0  0  0  0  3  0  0  0  0  0  0
  189.1880  175.0780  142.6800 C   0  0  0  0  0  0  0  0  0  0  0  0
  188.0520  173.0990  141.8570 C   0  0  0  0  0  3  0  0  0  0  0  0
  189.9040  174.2740  143.5830 C   0  0  0  0  0  3  0  0  0  0  0  0
  188.2670  174.4800  141.8130 C   0  0  0  0  0  3  0  0  0  0  0  0
  190.3550  172.1290  144.5250 F   0  0  0  0  0  0  0  0  0  0  0  0
  190.3070  177.2060  146.7950 N   0  0  0  0  0  2  0  0  0  0  0  0
  190.6790  175.8650  147.2160 C   0  0  0  0  0  2  0  0  0  0  0  0
  192.1900  175.6980  147.1780 C   0  0  0  0  0  2  0  0  0  0  0  0
  194.9410  176.0520  146.1470 O   0  0  0  0  0  1  0  0  0  0  0  0
  192.6780  175.2900  145.7930 C   0  0  1  0  0  3  0  0  0  0  0  0
  193.8380  176.1710  145.2970 C   0  0  2  0  0  3  0  0  0  0  0  0
  193.8710  174.3750  143.4550 C   0  0  0  0  0  2  0  0  0  0  0  0
  194.0060  173.4210  144.6360 C   0  0  0  0  0  2  0  0  0  0  0  0
  193.0310  173.7910  145.7630 C   0  0  0  0  0  2  0  0  0  0  0  0
  194.2540  175.8070  143.8590 C   0  0  0  0  0  2  0  0  0  0  0  0
  1 10  1  1  0  0  0
  1  8  1  0  0  0  0
  2  6  1  1  0  0  0
  2 13  1  0  0  0  0
  3  8  1  0  0  0  0
  3 16  1  0  0  0  0
  4  9  1  0  0  0  0
  5 12  1  0  0  0  0
  5 10  1  0  0  0  0
  7 13  1  0  0  0  0
  8  2  1  0  0  0  0
  9 25  1  0  0  0  0
 11  3  1  0  0  0  0
 12  1  1  0  0  0  0
 14  4  1  0  0  0  0
 15 20  1  0  0  0  0
 15 11  1  0  0  0  0
 15 14  1  0  0  0  0
 16  9  1  0  0  0  0
 16  7  1  0  0  0  0
 17 12  1  0  0  0  0
 17 11  1  0  0  0  0
 18 24  1  0  0  0  0
 19 18  2  0  0  0  0
 20 22  2  0  0  0  0
 21 19  1  0  0  0  0
 22 18  1  0  0  0  0
 23 21  2  0  0  0  0
 23 20  1  0  0  0  0
 25 26  1  0  0  0  0
 27 26  1  0  0  0  0
 29 27  1  0  0  0  0
 30 29  1  0  0  0  0
 30 28  1  0  0  0  0
 31 34  1  0  0  0  0
 31 32  1  0  0  0  0
 32 33  1  0  0  0  0
 33 29  1  0  0  0  0
 34 30  1  0  0  0  0
M  END
>  <MODEL>
1

>  <REMARK>
 VINA RESULT:      -9.1      0.000      0.000
  Name = 
  5 active torsions:
  status: ('A' for Active; 'I' for Inactive)
    1  A    between atoms: C_3  and  C_13
    2  A    between atoms: C_3  and  C_17
    3  A    between atoms: C_12  and  C_28
    4  A    between atoms: C_17  and  N_29
    5  A    between atoms: C_18  and  N_29
                            x       y       z     vdW  Elec       q    Type
                         _______ _______ _______ _____ _____    ______ ____

>  <TORSDO>
F 5

$$$$
=
 OpenBabel11052418373D

 34 39  0  0  1  0  0  0  0  0999 V2000
  185.4060  177.5200  143.2580 C   0  0  1  0  0  3  0  0  0  0  0  0
  185.4290  177.3930  145.7680 C   0  0  1  0  0  3  0  0  0  0  0  0
  187.5310  177.2310  144.3860 C   0  0  1  0  0  3  0  0  0  0  0  0
  190.6560  177.6650  144.6180 C   0  0  0  0  0  2  0  0  0  0  0  0
  184.7620  178.4680  141.4790 C   0  0  0  0  0  2  0  0  0  0  0  0
  184.1640  177.9700  145.8860 O   0  0  0  0  0  1  0  0  0  0  0  0
  187.6200  177.0790  146.8870 C   0  0  0  0  0  2  0  0  0  0  0  0
  186.1370  177.9090  144.5170 C   0  0  1  0  0  3  0  0  0  0  0  0
  189.7870  176.9030  145.5980 C   0  0  2  0  0  3  0  0  0  0  0  0
  184.0670  178.0320  142.7740 C   0  0  0  0  0  2  0  0  0  0  0  0
  188.2290  177.4830  142.9850 C   0  0  1  0  0  3  0  0  0  0  0  0
  186.0840  178.3180  142.2000 C   0  0  2  0  0  3  0  0  0  0  0  0
  186.2600  177.7510  146.9870 C   0  0  0  0  0  2  0  0  0  0  0  0
  190.7530  176.9420  143.2830 C   0  0  0  0  0  2  0  0  0  0  0  0
  189.4080  176.5450  142.6750 C   0  0  1  0  0  3  0  0  0  0  0  0
  188.3820  177.5410  145.6370 C   0  0  1  0  0  3  0  0  0  0  0  0
  187.2520  177.4710  141.7790 C   0  0  0  0  0  2  0  0  0  0  0  0
  189.4850  172.8580  143.6980 C   0  0  0  0  0  0  0  0  0  0  0  0
  188.7350  172.2900  142.6640 C   0  0  0  0  0  3  0  0  0  0  0  0
  189.1590  175.0610  142.7170 C   0  0  0  0  0  0  0  0  0  0  0  0
  188.2090  173.0980  141.6570 C   0  0  0  0  0  3  0  0  0  0  0  0
  189.6970  174.2400  143.7230 C   0  0  0  0  0  3  0  0  0  0  0  0
  188.4210  174.4800  141.6820 C   0  0  0  0  0  3  0  0  0  0  0  0
  189.9740  172.0770  144.6900 F   0  0  0  0  0  0  0  0  0  0  0  0
  190.4350  176.9440  146.9060 N   0  0  0  0  0  2  0  0  0  0  0  0
  191.8120  176.5210  146.7110 C   0  0  0  0  0  2  0  0  0  0  0  0
  191.8970  175.0050  146.6410 C   0  0  0  0  0  2  0  0  0  0  0  0
  193.0150  173.8830  144.1410 O   0  0  0  0  0  1  0  0  0  0  0  0
  193.3320  174.5290  146.4460 C   0  0  1  0  0  3  0  0  0  0  0  0
  193.4420  173.4170  145.3880 C   0  0  2  0  0  3  0  0  0  0  0  0
  195.9460  173.8780  145.7580 C   0  0  0  0  0  2  0  0  0  0  0  0
  195.5500  175.3090  145.4130 C   0  0  0  0  0  2  0  0  0  0  0  0
  194.2600  175.7190  146.1380 C   0  0  0  0  0  2  0  0  0  0  0  0
  194.8820  172.8810  145.2720 C   0  0  0  0  0  2  0  0  0  0  0  0
  1 10  1  1  0  0  0
  1  8  1  0  0  0  0
  2  6  1  1  0  0  0
  2 13  1  0  0  0  0
  3  8  1  0  0  0  0
  3 16  1  0  0  0  0
  4  9  1  0  0  0  0
  5 12  1  0  0  0  0
  5 10  1  0  0  0  0
  7 13  1  0  0  0  0
  8  2  1  0  0  0  0
  9 16  1  0  0  0  0
  9 25  1  0  0  0  0
 11  3  1  0  0  0  0
 12  1  1  0  0  0  0
 14  4  1  0  0  0  0
 15 20  1  0  0  0  0
 15 11  1  0  0  0  0
 15 14  1  0  0  0  0
 16  7  1  0  0  0  0
 17 12  1  0  0  0  0
 17 11  1  0  0  0  0
 18 22  1  0  0  0  0
 18 24  1  0  0  0  0
 19 18  2  0  0  0  0
 20 22  2  0  0  0  0
 21 23  2  0  0  0  0
 21 19  1  0  0  0  0
 23 20  1  0  0  0  0
 26 25  1  0  0  0  0
 27 26  1  0  0  0  0
 28 30  1  0  0  0  0
 29 27  1  0  0  0  0
 30 29  1  0  0  0  0
 32 31  1  0  0  0  0
 32 33  1  0  0  0  0
 33 29  1  0  0  0  0
 34 30  1  0  0  0  0
 34 31  1  0  0  0  0
M  END
>  <MODEL>
2

>  <REMARK>
 VINA RESULT:      -8.9      0.944      1.319
  Name = 
  5 active torsions:
  status: ('A' for Active; 'I' for Inactive)
    1  A    between atoms: C_3  and  C_13
    2  A    between atoms: C_3  and  C_17
    3  A    between atoms: C_12  and  C_28
    4  A    between atoms: C_17  and  N_29
    5  A    between atoms: C_18  and  N_29
                            x       y       z     vdW  Elec       q    Type
                         _______ _______ _______ _____ _____    ______ ____

>  <TORSDO>
F 5

$$$$
=
 OpenBabel11052418373D

 34 39  0  0  1  0  0  0  0  0999 V2000
  193.9860  176.0160  143.0280 C   0  0  1  0  0  3  0  0  0  0  0  0
  193.8580  176.9060  145.3740 C   0  0  1  0  0  3  0  0  0  0  0  0
  192.0840  175.4050  144.3990 C   0  0  1  0  0  3  0  0  0  0  0  0
  189.8130  173.3930  145.2940 C   0  0  0  0  0  2  0  0  0  0  0  0
  195.0890  175.0830  141.4820 C   0  0  0  0  0  2  0  0  0  0  0  0
  195.2180  177.2150  145.4140 O   0  0  0  0  0  1  0  0  0  0  0  0
  191.8880  176.2740  146.7420 C   0  0  0  0  0  2  0  0  0  0  0  0
  193.6070  175.7130  144.4550 C   0  0  1  0  0  3  0  0  0  0  0  0
  190.0510  174.7770  145.8630 C   0  0  2  0  0  3  0  0  0  0  0  0
  195.3750  176.2220  142.4660 C   0  0  0  0  0  2  0  0  0  0  0  0
  191.6870  174.3700  143.2650 C   0  0  1  0  0  3  0  0  0  0  0  0
  193.9230  174.6870  142.3610 C   0  0  2  0  0  3  0  0  0  0  0  0
  193.3810  176.5580  146.7730 C   0  0  0  0  0  2  0  0  0  0  0  0
  189.3260  173.4600  143.8540 C   0  0  0  0  0  2  0  0  0  0  0  0
  190.1860  174.3240  142.9320 C   0  0  1  0  0  3  0  0  0  0  0  0
  191.5620  175.0920  145.8180 C   0  0  1  0  0  3  0  0  0  0  0  0
  192.4850  174.5410  141.9440 C   0  0  0  0  0  2  0  0  0  0  0  0
  187.7230  176.8410  141.4350 C   0  0  0  0  0  0  0  0  0  0  0  0
  188.3740  178.0420  141.7290 C   0  0  0  0  0  3  0  0  0  0  0  0
  189.5120  175.6080  142.5310 C   0  0  0  0  0  0  0  0  0  0  0  0
  189.5910  178.0290  142.4100 C   0  0  0  0  0  3  0  0  0  0  0  0
  188.2920  175.6270  141.8340 C   0  0  0  0  0  3  0  0  0  0  0  0
  190.1600  176.8160  142.8090 C   0  0  0  0  0  3  0  0  0  0  0  0
  186.5280  176.8540  140.7970 F   0  0  0  0  0  0  0  0  0  0  0  0
  189.5350  174.8020  147.2280 N   0  0  0  0  0  2  0  0  0  0  0  0
  188.2330  175.4470  147.1770 C   0  0  0  0  0  2  0  0  0  0  0  0
  188.2390  176.5770  146.1610 C   0  0  0  0  0  2  0  0  0  0  0  0
  186.7670  178.5090  147.8520 O   0  0  0  0  0  1  0  0  0  0  0  0
  186.8340  177.1020  145.8920 C   0  0  1  0  0  3  0  0  0  0  0  0
  186.0920  177.4830  147.1850 C   0  0  2  0  0  3  0  0  0  0  0  0
  184.4220  178.4180  145.4660 C   0  0  0  0  0  2  0  0  0  0  0  0
  185.6430  179.1780  144.9600 C   0  0  0  0  0  2  0  0  0  0  0  0
  186.8730  178.2620  144.8800 C   0  0  0  0  0  2  0  0  0  0  0  0
  184.6420  177.9190  146.9020 C   0  0  0  0  0  2  0  0  0  0  0  0
  1 10  1  1  0  0  0
  1  8  1  0  0  0  0
  2  6  1  1  0  0  0
  2 13  1  0  0  0  0
  3  8  1  0  0  0  0
  3 16  1  0  0  0  0
  4  9  1  0  0  0  0
  5 12  1  0  0  0  0
  5 10  1  0  0  0  0
  7 13  1  0  0  0  0
  8  2  1  0  0  0  0
  9 25  1  0  0  0  0
 11  3  1  0  0  0  0
 12  1  1  0  0  0  0
 14  4  1  0  0  0  0
 15 11  1  0  0  0  0
 15 14  1  0  0  0  0
 16  9  1  0  0  0  0
 16  7  1  0  0  0  0
 17 12  1  0  0  0  0
 17 11  1  0  0  0  0
 18 19  2  0  0  0  0
 18 22  1  0  0  0  0
 19 21  1  0  0  0  0
 20 23  1  0  0  0  0
 20 15  1  0  0  0  0
 21 23  2  0  0  0  0
 22 20  2  0  0  0  0
 24 18  1  0  0  0  0
 26 25  1  0  0  0  0
 27 26  1  0  0  0  0
 29 27  1  0  0  0  0
 29 30  1  0  0  0  0
 30 28  1  0  0  0  0
 31 34  1  0  0  0  0
 32 31  1  0  0  0  0
 33 32  1  0  0  0  0
 33 29  1  0  0  0  0
 34 30  1  0  0  0  0
M  END
>  <MODEL>
3

>  <REMARK>
 VINA RESULT:      -8.9      2.094      6.903
  Name = 
  5 active torsions:
  status: ('A' for Active; 'I' for Inactive)
    1  A    between atoms: C_3  and  C_13
    2  A    between atoms: C_3  and  C_17
    3  A    between atoms: C_12  and  C_28
    4  A    between atoms: C_17  and  N_29
    5  A    between atoms: C_18  and  N_29
                            x       y       z     vdW  Elec       q    Type
                         _______ _______ _______ _____ _____    ______ ____

>  <TORSDO>
F 5

$$$$
=
 OpenBabel11052418373D

 34 39  0  0  1  0  0  0  0  0999 V2000
  192.7580  173.9360  142.0550 C   0  0  1  0  0  3  0  0  0  0  0  0
  190.6550  172.6600  141.5400 C   0  0  1  0  0  3  0  0  0  0  0  0
  190.6220  174.9960  142.4870 C   0  0  1  0  0  3  0  0  0  0  0  0
  188.7490  177.5380  142.6770 C   0  0  0  0  0  2  0  0  0  0  0  0
  194.6810  174.6050  141.4780 C   0  0  0  0  0  2  0  0  0  0  0  0
  191.3130  171.7630  140.6990 O   0  0  0  0  0  1  0  0  0  0  0  0
  188.4880  173.7700  142.0120 C   0  0  0  0  0  2  0  0  0  0  0  0
  191.3510  174.0200  141.5200 C   0  0  1  0  0  3  0  0  0  0  0  0
  188.3400  176.1080  142.9640 C   0  0  2  0  0  3  0  0  0  0  0  0
  193.9490  173.2600  141.4130 C   0  0  0  0  0  2  0  0  0  0  0  0
  191.4210  176.3390  142.7550 C   0  0  1  0  0  3  0  0  0  0  0  0
  193.3390  175.2640  141.7140 C   0  0  2  0  0  3  0  0  0  0  0  0
  189.2230  172.8350  141.0660 C   0  0  0  0  0  2  0  0  0  0  0  0
  189.7270  178.0560  143.7200 C   0  0  0  0  0  2  0  0  0  0  0  0
  190.9330  177.1490  143.9670 C   0  0  1  0  0  3  0  0  0  0  0  0
  189.1480  175.1550  142.0560 C   0  0  1  0  0  3  0  0  0  0  0  0
  192.9580  176.1500  142.8680 C   0  0  0  0  0  2  0  0  0  0  0  0
  189.6830  175.3570  147.1090 C   0  0  0  0  0  0  0  0  0  0  0  0
  190.8660  175.2840  147.8490 C   0  0  0  0  0  3  0  0  0  0  0  0
  190.8860  176.4600  145.3040 C   0  0  0  0  0  0  0  0  0  0  0  0
  192.0500  175.8040  147.3280 C   0  0  0  0  0  3  0  0  0  0  0  0
  189.6940  175.9450  145.8400 C   0  0  0  0  0  3  0  0  0  0  0  0
  192.0620  176.3920  146.0590 C   0  0  0  0  0  3  0  0  0  0  0  0
  188.5380  174.8290  147.6030 F   0  0  0  0  0  0  0  0  0  0  0  0
  186.9040  175.9890  142.7280 N   0  0  0  0  0  2  0  0  0  0  0  0
  186.3660  177.3390  142.6980 C   0  0  0  0  0  2  0  0  0  0  0  0
  185.2940  177.5070  143.7630 C   0  0  0  0  0  2  0  0  0  0  0  0
  183.8320  178.6880  146.0480 O   0  0  0  0  0  1  0  0  0  0  0  0
  185.8960  177.8490  145.1200 C   0  0  1  0  0  3  0  0  0  0  0  0
  185.1680  179.0180  145.8070 C   0  0  2  0  0  3  0  0  0  0  0  0
  186.6850  178.2820  147.7510 C   0  0  0  0  0  2  0  0  0  0  0  0
  186.0290  176.9260  147.5130 C   0  0  0  0  0  2  0  0  0  0  0  0
  185.9610  176.5970  146.0150 C   0  0  0  0  0  2  0  0  0  0  0  0
  185.8490  179.4130  147.1310 C   0  0  0  0  0  2  0  0  0  0  0  0
  1 10  1  6  0  0  0
  2  6  1  6  0  0  0
  3 11  1  0  0  0  0
  4  9  1  0  0  0  0
  4 14  1  0  0  0  0
  5 12  1  0  0  0  0
  7 16  1  0  0  0  0
  8  2  1  0  0  0  0
  8  1  1  0  0  0  0
  8  3  1  0  0  0  0
 10  5  1  0  0  0  0
 11 17  1  0  0  0  0
 11 15  1  0  0  0  0
 12  1  1  0  0  0  0
 12 17  1  0  0  0  0
 13  2  1  0  0  0  0
 13  7  1  0  0  0  0
 14 15  1  0  0  0  0
 15 20  1  0  0  0  0
 16  3  1  0  0  0  0
 16  9  1  0  0  0  0
 18 24  1  0  0  0  0
 18 19  1  0  0  0  0
 20 22  1  0  0  0  0
 20 23  2  0  0  0  0
 21 19  2  0  0  0  0
 22 18  2  0  0  0  0
 23 21  1  0  0  0  0
 25  9  1  0  0  0  0
 26 25  1  0  0  0  0
 26 27  1  0  0  0  0
 27 29  1  0  0  0  0
 29 30  1  0  0  0  0
 29 33  1  0  0  0  0
 30 28  1  0  0  0  0
 30 34  1  0  0  0  0
 32 31  1  0  0  0  0
 33 32  1  0  0  0  0
 34 31  1  0  0  0  0
M  END
>  <MODEL>
4

>  <REMARK>
 VINA RESULT:      -8.5      2.328      7.100
  Name = 
  5 active torsions:
  status: ('A' for Active; 'I' for Inactive)
    1  A    between atoms: C_3  and  C_13
    2  A    between atoms: C_3  and  C_17
    3  A    between atoms: C_12  and  C_28
    4  A    between atoms: C_17  and  N_29
    5  A    between atoms: C_18  and  N_29
                            x       y       z     vdW  Elec       q    Type
                         _______ _______ _______ _____ _____    ______ ____

>  <TORSDO>
F 5

$$$$
=
 OpenBabel11052418373D

 34 39  0  0  1  0  0  0  0  0999 V2000
  187.3260  177.8100  144.9040 C   0  0  1  0  0  3  0  0  0  0  0  0
  187.3770  177.5930  142.4010 C   0  0  1  0  0  3  0  0  0  0  0  0
  188.4490  175.8980  143.9270 C   0  0  1  0  0  3  0  0  0  0  0  0
  189.3640  172.8700  143.9690 C   0  0  0  0  0  2  0  0  0  0  0  0
  186.2470  178.1730  146.6880 C   0  0  0  0  0  2  0  0  0  0  0  0
  186.3190  178.4840  142.2240 O   0  0  0  0  0  1  0  0  0  0  0  0
  188.5520  175.6330  141.4370 C   0  0  0  0  0  2  0  0  0  0  0  0
  187.2440  176.8620  143.7350 C   0  0  1  0  0  3  0  0  0  0  0  0
  189.6620  173.8750  142.8750 C   0  0  2  0  0  3  0  0  0  0  0  0
  186.3120  178.8550  145.3160 C   0  0  0  0  0  2  0  0  0  0  0  0
  188.5560  175.3010  145.3920 C   0  0  1  0  0  3  0  0  0  0  0  0
  186.9180  176.9690  146.0630 C   0  0  2  0  0  3  0  0  0  0  0  0
  187.3680  176.5720  141.2770 C   0  0  0  0  0  2  0  0  0  0  0  0
  190.1000  173.2150  145.2550 C   0  0  0  0  0  2  0  0  0  0  0  0
  189.9110  174.6570  145.7280 C   0  0  1  0  0  3  0  0  0  0  0  0
  188.4910  174.8760  142.7710 C   0  0  1  0  0  3  0  0  0  0  0  0
  188.1910  176.3080  146.5150 C   0  0  0  0  0  2  0  0  0  0  0  0
  193.2940  176.3310  146.3580 C   0  0  0  0  0  0  0  0  0  0  0  0
  193.3790  177.1650  145.2400 C   0  0  0  0  0  3  0  0  0  0  0  0
  191.1510  175.4950  145.5660 C   0  0  0  0  0  0  0  0  0  0  0  0
  192.3540  177.1740  144.2950 C   0  0  0  0  0  3  0  0  0  0  0  0
  192.1820  175.5000  146.5210 C   0  0  0  0  0  3  0  0  0  0  0  0
  191.2410  176.3430  144.4570 C   0  0  0  0  0  3  0  0  0  0  0  0
  194.3020  176.3030  147.2630 F   0  0  0  0  0  0  0  0  0  0  0  0
  189.8590  173.1440  141.6270 N   0  0  0  0  0  2  0  0  0  0  0  0
  191.1220  172.4330  141.7470 C   0  0  0  0  0  2  0  0  0  0  0  0
  192.2790  173.4150  141.8240 C   0  0  0  0  0  2  0  0  0  0  0  0
  194.1780  171.2890  142.6190 O   0  0  0  0  0  1  0  0  0  0  0  0
  193.0040  173.3280  143.1610 C   0  0  1  0  0  3  0  0  0  0  0  0
  193.3280  171.8770  143.5600 C   0  0  2  0  0  3  0  0  0  0  0  0
  194.6550  173.1090  145.3880 C   0  0  0  0  0  2  0  0  0  0  0  0
  195.3060  173.8020  144.1970 C   0  0  0  0  0  2  0  0  0  0  0  0
  194.2570  174.2240  143.1580 C   0  0  0  0  0  2  0  0  0  0  0  0
  193.9730  171.8010  144.9570 C   0  0  0  0  0  2  0  0  0  0  0  0
  1 10  1  6  0  0  0
  1 12  1  0  0  0  0
  2  6  1  6  0  0  0
  2  8  1  0  0  0  0
  3 11  1  0  0  0  0
  4 14  1  0  0  0  0
  7 16  1  0  0  0  0
  8  3  1  0  0  0  0
  8  1  1  0  0  0  0
  9  4  1  0  0  0  0
 10  5  1  0  0  0  0
 11 15  1  0  0  0  0
 11 17  1  0  0  0  0
 12 17  1  0  0  0  0
 12  5  1  0  0  0  0
 13  7  1  0  0  0  0
 13  2  1  0  0  0  0
 14 15  1  0  0  0  0
 16  9  1  0  0  0  0
 16  3  1  0  0  0  0
 18 22  1  0  0  0  0
 18 24  1  0  0  0  0
 19 18  2  0  0  0  0
 20 15  1  0  0  0  0
 20 22  2  0  0  0  0
 21 23  2  0  0  0  0
 21 19  1  0  0  0  0
 23 20  1  0  0  0  0
 25 26  1  0  0  0  0
 25  9  1  0  0  0  0
 26 27  1  0  0  0  0
 27 29  1  0  0  0  0
 28 30  1  0  0  0  0
 29 30  1  0  0  0  0
 30 34  1  0  0  0  0
 32 31  1  0  0  0  0
 33 29  1  0  0  0  0
 33 32  1  0  0  0  0
 34 31  1  0  0  0  0
M  END
>  <MODEL>
5

>  <REMARK>
 VINA RESULT:      -8.1      2.453      4.657
  Name = 
  5 active torsions:
  status: ('A' for Active; 'I' for Inactive)
    1  A    between atoms: C_3  and  C_13
    2  A    between atoms: C_3  and  C_17
    3  A    between atoms: C_12  and  C_28
    4  A    between atoms: C_17  and  N_29
    5  A    between atoms: C_18  and  N_29
                            x       y       z     vdW  Elec       q    Type
                         _______ _______ _______ _____ _____    ______ ____

>  <TORSDO>
F 5

$$$$
=
 OpenBabel11052418373D

 34 39  0  0  1  0  0  0  0  0999 V2000
  192.5200  174.4060  143.9160 C   0  0  1  0  0  3  0  0  0  0  0  0
  192.1590  176.8890  143.7830 C   0  0  1  0  0  3  0  0  0  0  0  0
  190.4470  175.2280  142.9660 C   0  0  1  0  0  3  0  0  0  0  0  0
  187.3470  174.9860  142.3870 C   0  0  0  0  0  2  0  0  0  0  0  0
  193.0950  172.6960  145.0230 C   0  0  0  0  0  2  0  0  0  0  0  0
  193.1450  177.1620  144.7310 O   0  0  0  0  0  1  0  0  0  0  0  0
  190.0330  177.6940  142.7890 C   0  0  0  0  0  2  0  0  0  0  0  0
  191.5220  175.5270  144.0510 C   0  0  1  0  0  3  0  0  0  0  0  0
  188.2520  176.1150  141.9370 C   0  0  2  0  0  3  0  0  0  0  0  0
  193.6870  174.0960  144.8270 C   0  0  0  0  0  2  0  0  0  0  0  0
  189.9260  173.7300  142.9860 C   0  0  1  0  0  3  0  0  0  0  0  0
  191.7930  173.2250  144.4600 C   0  0  2  0  0  3  0  0  0  0  0  0
  191.0820  177.9580  143.8560 C   0  0  0  0  0  2  0  0  0  0  0  0
  187.6840  173.6860  141.6730 C   0  0  0  0  0  2  0  0  0  0  0  0
  189.1620  173.2980  141.7240 C   0  0  1  0  0  3  0  0  0  0  0  0
  189.3630  176.3270  142.9880 C   0  0  1  0  0  3  0  0  0  0  0  0
  191.0280  172.6790  143.2870 C   0  0  0  0  0  2  0  0  0  0  0  0
  189.8240  173.7910  137.9870 C   0  0  0  0  0  0  0  0  0  0  0  0
  191.2070  173.5960  137.9450 C   0  0  0  0  0  3  0  0  0  0  0  0
  189.8530  173.4430  140.3950 C   0  0  0  0  0  0  0  0  0  0  0  0
  191.9090  173.3150  139.1150 C   0  0  0  0  0  3  0  0  0  0  0  0
  189.1490  173.7140  139.2100 C   0  0  0  0  0  3  0  0  0  0  0  0
  191.2360  173.2380  140.3380 C   0  0  0  0  0  3  0  0  0  0  0  0
  189.1440  174.0890  136.8540 F   0  0  0  0  0  0  0  0  0  0  0  0
  187.4340  177.3130  141.7680 N   0  0  0  0  0  2  0  0  0  0  0  0
  186.3250  177.2060  142.7020 C   0  0  0  0  0  2  0  0  0  0  0  0
  186.0700  178.5420  143.3800 C   0  0  0  0  0  2  0  0  0  0  0  0
  184.0260  178.4160  145.5150 O   0  0  0  0  0  1  0  0  0  0  0  0
  186.3530  178.4790  144.8750 C   0  0  1  0  0  3  0  0  0  0  0  0
  185.2240  179.1070  145.7130 C   0  0  2  0  0  3  0  0  0  0  0  0
  186.6110  178.0640  147.6120 C   0  0  0  0  0  2  0  0  0  0  0  0
  186.4250  176.7850  146.8050 C   0  0  0  0  0  2  0  0  0  0  0  0
  186.6630  177.0340  145.3080 C   0  0  0  0  0  2  0  0  0  0  0  0
  185.5700  179.1220  147.2140 C   0  0  0  0  0  2  0  0  0  0  0  0
  1  8  1  0  0  0  0
  1 12  1  0  0  0  0
  1 10  1  1  0  0  0
  2 13  1  0  0  0  0
  2  8  1  0  0  0  0
  2  6  1  1  0  0  0
  3 11  1  0  0  0  0
  3 16  1  0  0  0  0
  3  8  1  0  0  0  0
  7 16  1  0  0  0  0
  7 13  1  0  0  0  0
  9  4  1  0  0  0  0
  9 16  1  0  0  0  0
 10  5  1  0  0  0  0
 11 17  1  0  0  0  0
 12  5  1  0  0  0  0
 14 15  1  0  0  0  0
 14  4  1  0  0  0  0
 15 11  1  0  0  0  0
 17 12  1  0  0  0  0
 18 22  1  0  0  0  0
 19 18  2  0  0  0  0
 19 21  1  0  0  0  0
 20 15  1  0  0  0  0
 21 23  2  0  0  0  0
 22 20  2  0  0  0  0
 23 20  1  0  0  0  0
 24 18  1  0  0  0  0
 25  9  1  0  0  0  0
 25 26  1  0  0  0  0
 26 27  1  0  0  0  0
 27 29  1  0  0  0  0
 28 30  1  0  0  0  0
 29 33  1  0  0  0  0
 29 30  1  0  0  0  0
 30 34  1  0  0  0  0
 32 31  1  0  0  0  0
 33 32  1  0  0  0  0
 34 31  1  0  0  0  0
M  END
>  <MODEL>
6

>  <REMARK>
 VINA RESULT:      -7.9      2.606      6.908
  Name = 
  5 active torsions:
  status: ('A' for Active; 'I' for Inactive)
    1  A    between atoms: C_3  and  C_13
    2  A    between atoms: C_3  and  C_17
    3  A    between atoms: C_12  and  C_28
    4  A    between atoms: C_17  and  N_29
    5  A    between atoms: C_18  and  N_29
                            x       y       z     vdW  Elec       q    Type
                         _______ _______ _______ _____ _____    ______ ____

>  <TORSDO>
F 5

$$$$
=
 OpenBabel11052418373D

 34 39  0  0  1  0  0  0  0  0999 V2000
  194.3900  174.0720  143.4790 C   0  0  1  0  0  3  0  0  0  0  0  0
  192.6900  172.7840  142.1500 C   0  0  1  0  0  3  0  0  0  0  0  0
  192.2200  175.0760  143.0870 C   0  0  1  0  0  3  0  0  0  0  0  0
  190.3390  177.5770  142.6220 C   0  0  0  0  0  2  0  0  0  0  0  0
  196.3650  174.7960  143.7110 C   0  0  0  0  0  2  0  0  0  0  0  0
  193.6490  171.9340  141.5990 O   0  0  0  0  0  1  0  0  0  0  0  0
  190.4740  173.8370  141.7850 C   0  0  0  0  0  2  0  0  0  0  0  0
  193.2960  174.1540  142.4450 C   0  0  1  0  0  3  0  0  0  0  0  0
  189.8970  176.1280  142.6820 C   0  0  2  0  0  3  0  0  0  0  0  0
  195.7580  173.4430  143.3250 C   0  0  0  0  0  2  0  0  0  0  0  0
  192.8120  176.4200  143.6860 C   0  0  1  0  0  3  0  0  0  0  0  0
  195.0160  175.4220  143.4320 C   0  0  2  0  0  3  0  0  0  0  0  0
  191.5460  172.9540  141.1660 C   0  0  0  0  0  2  0  0  0  0  0  0
  190.8230  178.0660  143.9780 C   0  0  0  0  0  2  0  0  0  0  0  0
  191.8690  177.1700  144.6420 C   0  0  1  0  0  3  0  0  0  0  0  0
  191.0220  175.2290  142.1250 C   0  0  1  0  0  3  0  0  0  0  0  0
  194.1920  176.2520  144.3780 C   0  0  0  0  0  2  0  0  0  0  0  0
  189.5000  175.4870  147.1330 C   0  0  0  0  0  0  0  0  0  0  0  0
  190.4020  175.1220  148.1360 C   0  0  0  0  0  3  0  0  0  0  0  0
  191.3330  176.4240  145.8340 C   0  0  0  0  0  0  0  0  0  0  0  0
  191.7580  175.4130  147.9960 C   0  0  0  0  0  3  0  0  0  0  0  0
  189.9650  176.1380  145.9860 C   0  0  0  0  0  3  0  0  0  0  0  0
  192.2240  176.0630  146.8500 C   0  0  0  0  0  3  0  0  0  0  0  0
  188.1860  175.1820  147.2550 F   0  0  0  0  0  0  0  0  0  0  0  0
  188.6670  175.9960  141.9060 N   0  0  0  0  0  2  0  0  0  0  0  0
  187.7110  176.9400  142.4620 C   0  0  0  0  0  2  0  0  0  0  0  0
  187.1340  176.4060  143.7630 C   0  0  0  0  0  2  0  0  0  0  0  0
  186.9810  177.8860  146.3220 O   0  0  0  0  0  1  0  0  0  0  0  0
  185.9490  177.2390  144.2370 C   0  0  1  0  0  3  0  0  0  0  0  0
  185.8430  177.2880  145.7720 C   0  0  2  0  0  3  0  0  0  0  0  0
  184.0530  179.0390  145.1820 C   0  0  0  0  0  2  0  0  0  0  0  0
  185.1960  179.6880  144.4120 C   0  0  0  0  0  2  0  0  0  0  0  0
  185.9890  178.6450  143.6110 C   0  0  0  0  0  2  0  0  0  0  0  0
  184.5870  178.0520  146.2320 C   0  0  0  0  0  2  0  0  0  0  0  0
  1 10  1  6  0  0  0
  2  6  1  6  0  0  0
  2  8  1  0  0  0  0
  3 11  1  0  0  0  0
  4  9  1  0  0  0  0
  4 14  1  0  0  0  0
  7 16  1  0  0  0  0
  8  3  1  0  0  0  0
  8  1  1  0  0  0  0
 10  5  1  0  0  0  0
 11 17  1  0  0  0  0
 11 15  1  0  0  0  0
 12  1  1  0  0  0  0
 12  5  1  0  0  0  0
 12 17  1  0  0  0  0
 13  7  1  0  0  0  0
 13  2  1  0  0  0  0
 14 15  1  0  0  0  0
 15 20  1  0  0  0  0
 16  9  1  0  0  0  0
 16  3  1  0  0  0  0
 18 24  1  0  0  0  0
 18 19  1  0  0  0  0
 20 22  1  0  0  0  0
 20 23  2  0  0  0  0
 21 19  2  0  0  0  0
 22 18  2  0  0  0  0
 23 21  1  0  0  0  0
 25 26  1  0  0  0  0
 25  9  1  0  0  0  0
 26 27  1  0  0  0  0
 27 29  1  0  0  0  0
 29 30  1  0  0  0  0
 30 34  1  0  0  0  0
 30 28  1  0  0  0  0
 31 34  1  0  0  0  0
 32 31  1  0  0  0  0
 33 29  1  0  0  0  0
 33 32  1  0  0  0  0
M  END
>  <MODEL>
7

>  <REMARK>
 VINA RESULT:      -7.6      2.278      7.656
  Name = 
  5 active torsions:
  status: ('A' for Active; 'I' for Inactive)
    1  A    between atoms: C_3  and  C_13
    2  A    between atoms: C_3  and  C_17
    3  A    between atoms: C_12  and  C_28
    4  A    between atoms: C_17  and  N_29
    5  A    between atoms: C_18  and  N_29
                            x       y       z     vdW  Elec       q    Type
                         _______ _______ _______ _____ _____    ______ ____

>  <TORSDO>
F 5

$$$$
=
 OpenBabel11052418373D

 34 39  0  0  1  0  0  0  0  0999 V2000
  194.8160  173.3540  144.1560 C   0  0  1  0  0  3  0  0  0  0  0  0
  194.9750  175.8580  144.2910 C   0  0  1  0  0  3  0  0  0  0  0  0
  192.8360  174.6110  144.7630 C   0  0  1  0  0  3  0  0  0  0  0  0
  190.0980  174.9400  146.3120 C   0  0  0  0  0  2  0  0  0  0  0  0
  195.5900  171.4420  144.6310 C   0  0  0  0  0  2  0  0  0  0  0  0
  196.3670  175.8420  144.3830 O   0  0  0  0  0  1  0  0  0  0  0  0
  192.9230  177.1130  144.8980 C   0  0  0  0  0  2  0  0  0  0  0  0
  194.3850  174.5890  144.9030 C   0  0  1  0  0  3  0  0  0  0  0  0
  190.7260  175.9630  145.3880 C   0  0  2  0  0  3  0  0  0  0  0  0
  196.2000  172.7450  144.1020 C   0  0  0  0  0  2  0  0  0  0  0  0
  192.1480  173.2250  145.1100 C   0  0  1  0  0  3  0  0  0  0  0  0
  194.3700  172.2400  145.0380 C   0  0  2  0  0  3  0  0  0  0  0  0
  194.4360  177.0630  145.0410 C   0  0  0  0  0  2  0  0  0  0  0  0
  189.6330  173.7110  145.5460 C   0  0  0  0  0  2  0  0  0  0  0  0
  190.6920  173.0910  144.6340 C   0  0  1  0  0  3  0  0  0  0  0  0
  192.2640  175.8540  145.4780 C   0  0  1  0  0  3  0  0  0  0  0  0
  192.9460  171.9830  144.6300 C   0  0  0  0  0  2  0  0  0  0  0  0
  189.1930  174.3800  141.3570 C   0  0  0  0  0  0  0  0  0  0  0  0
  189.8540  173.5630  140.4350 C   0  0  0  0  0  3  0  0  0  0  0  0
  190.4050  173.3040  143.1720 C   0  0  0  0  0  0  0  0  0  0  0  0
  190.7760  172.6160  140.8760 C   0  0  0  0  0  3  0  0  0  0  0  0
  189.4670  174.2490  142.7220 C   0  0  0  0  0  3  0  0  0  0  0  0
  191.0510  172.4840  142.2410 C   0  0  0  0  0  3  0  0  0  0  0  0
  188.3160  175.3190  140.9280 F   0  0  0  0  0  0  0  0  0  0  0  0
  190.2550  177.2860  145.7860 N   0  0  0  0  0  2  0  0  0  0  0  0
  189.6860  177.9080  144.6020 C   0  0  0  0  0  2  0  0  0  0  0  0
  188.3290  177.3020  144.2830 C   0  0  0  0  0  2  0  0  0  0  0  0
  185.5420  177.8190  143.4340 O   0  0  0  0  0  1  0  0  0  0  0  0
  187.2290  177.8880  145.1590 C   0  0  1  0  0  3  0  0  0  0  0  0
  186.1810  178.6660  144.3430 C   0  0  2  0  0  3  0  0  0  0  0  0
  184.9980  178.6600  146.6280 C   0  0  0  0  0  2  0  0  0  0  0  0
  185.1770  177.1510  146.5160 C   0  0  0  0  0  2  0  0  0  0  0  0
  186.5900  176.7930  146.0330 C   0  0  0  0  0  2  0  0  0  0  0  0
  185.1320  179.3330  145.2530 C   0  0  0  0  0  2  0  0  0  0  0  0
  1 10  1  1  0  0  0
  1  8  1  0  0  0  0
  1 12  1  0  0  0  0
  2  6  1  1  0  0  0
  2  8  1  0  0  0  0
  2 13  1  0  0  0  0
  3  8  1  0  0  0  0
  3 11  1  0  0  0  0
  3 16  1  0  0  0  0
  5 12  1  0  0  0  0
  7 13  1  0  0  0  0
  7 16  1  0  0  0  0
  9 16  1  0  0  0  0
  9 25  1  0  0  0  0
  9  4  1  0  0  0  0
 10  5  1  0  0  0  0
 14  4  1  0  0  0  0
 15 11  1  0  0  0  0
 15 14  1  0  0  0  0
 17 12  1  0  0  0  0
 17 11  1  0  0  0  0
 18 22  1  0  0  0  0
 19 21  1  0  0  0  0
 19 18  2  0  0  0  0
 20 15  1  0  0  0  0
 21 23  2  0  0  0  0
 22 20  2  0  0  0  0
 23 20  1  0  0  0  0
 24 18  1  0  0  0  0
 26 25  1  0  0  0  0
 27 26  1  0  0  0  0
 27 29  1  0  0  0  0
 28 30  1  0  0  0  0
 29 33  1  0  0  0  0
 30 29  1  0  0  0  0
 30 34  1  0  0  0  0
 32 31  1  0  0  0  0
 33 32  1  0  0  0  0
 34 31  1  0  0  0  0
M  END
>  <MODEL>
8

>  <REMARK>
 VINA RESULT:      -7.6      1.901      7.462
  Name = 
  5 active torsions:
  status: ('A' for Active; 'I' for Inactive)
    1  A    between atoms: C_3  and  C_13
    2  A    between atoms: C_3  and  C_17
    3  A    between atoms: C_12  and  C_28
    4  A    between atoms: C_17  and  N_29
    5  A    between atoms: C_18  and  N_29
                            x       y       z     vdW  Elec       q    Type
                         _______ _______ _______ _____ _____    ______ ____

>  <TORSDO>
F 5

$$$$
=
 OpenBabel11052418373D

 34 39  0  0  1  0  0  0  0  0999 V2000
  187.2430  177.3870  143.9010 C   0  0  1  0  0  3  0  0  0  0  0  0
  187.7550  177.2770  146.3590 C   0  0  1  0  0  3  0  0  0  0  0  0
  189.5010  176.8460  144.5930 C   0  0  1  0  0  3  0  0  0  0  0  0
  192.6380  176.8930  144.1840 C   0  0  0  0  0  2  0  0  0  0  0  0
  186.3720  178.3940  142.2560 C   0  0  0  0  0  2  0  0  0  0  0  0
  186.6180  178.0060  146.7070 O   0  0  0  0  0  1  0  0  0  0  0  0
  190.0730  176.7030  147.0290 C   0  0  0  0  0  2  0  0  0  0  0  0
  188.2540  177.6920  144.9760 C   0  0  1  0  0  3  0  0  0  0  0  0
  191.9000  176.2510  145.3410 C   0  0  2  0  0  3  0  0  0  0  0  0
  185.9040  178.0560  143.6760 C   0  0  0  0  0  2  0  0  0  0  0  0
  189.9280  176.9990  143.0730 C   0  0  1  0  0  3  0  0  0  0  0  0
  187.7840  178.0870  142.7040 C   0  0  2  0  0  3  0  0  0  0  0  0
  188.8510  177.5380  147.3760 C   0  0  0  0  0  2  0  0  0  0  0  0
  192.3770  176.1530  142.8810 C   0  0  0  0  0  2  0  0  0  0  0  0
  190.9000  175.9210  142.5660 C   0  0  1  0  0  3  0  0  0  0  0  0
  190.6170  177.0580  145.6380 C   0  0  1  0  0  3  0  0  0  0  0  0
  188.7340  177.0980  142.0860 C   0  0  0  0  0  2  0  0  0  0  0  0
  188.8210  172.7090  142.6530 C   0  0  0  0  0  0  0  0  0  0  0  0
  189.7840  171.7930  143.0870 C   0  0  0  0  0  3  0  0  0  0  0  0
  190.4900  174.4790  142.7040 C   0  0  0  0  0  0  0  0  0  0  0  0
  191.0880  172.2160  143.3390 C   0  0  0  0  0  3  0  0  0  0  0  0
  189.1740  174.0480  142.4640 C   0  0  0  0  0  3  0  0  0  0  0  0
  191.4410  173.5560  143.1500 C   0  0  0  0  0  3  0  0  0  0  0  0
  187.5600  172.2930  142.3830 F   0  0  0  0  0  0  0  0  0  0  0  0
  192.7970  176.2220  146.4920 N   0  0  0  0  0  2  0  0  0  0  0  0
  194.0200  175.5640  146.0610 C   0  0  0  0  0  2  0  0  0  0  0  0
  193.7560  174.0980  145.7590 C   0  0  0  0  0  2  0  0  0  0  0  0
  195.0070  173.8410  143.0890 O   0  0  0  0  0  1  0  0  0  0  0  0
  195.0450  173.3450  145.4520 C   0  0  1  0  0  3  0  0  0  0  0  0
  195.0750  172.7950  144.0140 C   0  0  2  0  0  3  0  0  0  0  0  0
  197.5050  172.2960  144.6930 C   0  0  0  0  0  2  0  0  0  0  0  0
  197.5360  173.7860  145.0080 C   0  0  0  0  0  2  0  0  0  0  0  0
  196.2720  174.2200  145.7660 C   0  0  0  0  0  2  0  0  0  0  0  0
  196.3390  171.9560  143.7520 C   0  0  0  0  0  2  0  0  0  0  0  0
  1 10  1  1  0  0  0
  1  8  1  0  0  0  0
  2  6  1  1  0  0  0
  2 13  1  0  0  0  0
  3  8  1  0  0  0  0
  3 16  1  0  0  0  0
  4  9  1  0  0  0  0
  5 12  1  0  0  0  0
  5 10  1  0  0  0  0
  7 13  1  0  0  0  0
  8  2  1  0  0  0  0
  9 16  1  0  0  0  0
  9 25  1  0  0  0  0
 11  3  1  0  0  0  0
 12  1  1  0  0  0  0
 14  4  1  0  0  0  0
 15 20  1  0  0  0  0
 15 14  1  0  0  0  0
 15 11  1  0  0  0  0
 16  7  1  0  0  0  0
 17 12  1  0  0  0  0
 17 11  1  0  0  0  0
 18 19  1  0  0  0  0
 19 21  2  0  0  0  0
 20 23  2  0  0  0  0
 22 18  2  0  0  0  0
 22 20  1  0  0  0  0
 23 21  1  0  0  0  0
 24 18  1  0  0  0  0
 26 25  1  0  0  0  0
 27 26  1  0  0  0  0
 28 30  1  0  0  0  0
 29 27  1  0  0  0  0
 29 33  1  0  0  0  0
 30 29  1  0  0  0  0
 31 32  1  0  0  0  0
 32 33  1  0  0  0  0
 34 30  1  0  0  0  0
 34 31  1  0  0  0  0
M  END
>  <MODEL>
9

>  <REMARK>
 VINA RESULT:      -7.5      1.852      2.743
  Name = 
  5 active torsions:
  status: ('A' for Active; 'I' for Inactive)
    1  A    between atoms: C_3  and  C_13
    2  A    between atoms: C_3  and  C_17
    3  A    between atoms: C_12  and  C_28
    4  A    between atoms: C_17  and  N_29
    5  A    between atoms: C_18  and  N_29
                            x       y       z     vdW  Elec       q    Type
                         _______ _______ _______ _____ _____    ______ ____

>  <TORSDO>
F 5

$$$$
