=
 OpenBabel11052421403D

 32 36  0  0  1  0  0  0  0  0999 V2000
  188.3150  177.1520  145.5530 C   0  0  0  0  0  0  0  0  0  0  0  0
  192.8370  174.9040  145.8200 C   0  0  0  0  0  0  0  0  0  0  0  0
  193.8160  172.6210  145.3560 C   0  0  0  0  0  0  0  0  0  0  0  0
  195.0040  171.7830  145.1470 C   0  0  0  0  0  0  0  0  0  0  0  0
  190.4960  175.4740  146.1110 C   0  0  0  0  0  0  0  0  0  0  0  0
  191.9150  176.8670  144.7170 C   0  0  0  0  0  3  0  0  0  0  0  0
  197.3090  170.2230  144.8590 C   0  0  0  0  0  3  0  0  0  0  0  0
  189.5750  177.4240  144.9910 C   0  0  0  0  0  3  0  0  0  0  0  0
  193.0090  176.0340  144.9880 C   0  0  0  0  0  0  0  0  0  0  0  0
  194.3620  176.4140  144.4480 C   0  0  2  0  0  3  0  0  0  0  0  0
  195.2890  174.5880  145.8260 N   0  0  2  0  0  0  0  0  0  0  0  0
  196.0610  169.6950  144.5160 C   0  0  0  0  0  3  0  0  0  0  0  0
  188.1590  176.0400  146.3890 C   0  0  0  0  0  3  0  0  0  0  0  0
  190.6620  176.5920  145.2660 C   0  0  0  0  0  0  0  0  0  0  0  0
  194.9070  170.4730  144.6610 C   0  0  0  0  0  3  0  0  0  0  0  0
  189.2440  175.2030  146.6690 C   0  0  0  0  0  3  0  0  0  0  0  0
  195.3610  175.2550  144.5120 C   0  0  1  0  0  3  0  0  0  0  0  0
  196.3510  173.6630  145.9420 N   0  0  0  0  0  2  0  0  0  0  0  0
  191.5800  174.6380  146.3810 C   0  0  0  0  0  3  0  0  0  0  0  0
  192.6770  172.2040  145.0100 O   0  0  0  0  0  0  0  0  0  0  0  0
  197.4080  171.5320  145.3400 C   0  0  0  0  0  3  0  0  0  0  0  0
  193.9760  173.9460  146.0770 C   0  0  1  0  0  3  0  0  0  0  0  0
  196.2570  172.3130  145.4740 C   0  0  0  0  0  0  0  0  0  0  0  0
  195.3240  178.4740  145.7630 N   0  0  0  0  0  0  0  0  0  0  0  0
  194.9000  177.5660  145.1830 C   0  0  0  0  0  0  0  0  0  0  0  0
  196.0150  174.7660  142.4520 C   0  0  0  0  0  1  0  0  0  0  0  0
  195.1340  174.3640  143.4570 O   0  0  0  0  0  0  0  0  0  0  0  0
  186.0010  177.5150  145.0300 C   0  0  0  0  0  3  0  0  0  0  0  0
  187.1800  177.9850  145.2900 N   0  0  0  0  0  0  0  0  0  0  0  0
  184.8620  178.4360  144.7630 C   0  0  0  0  0  3  0  0  0  0  0  0
  185.3950  179.7600  144.2630 C   0  0  0  0  0  1  0  0  0  0  0  0
  184.0670  178.6640  146.0350 C   0  0  0  0  0  1  0  0  0  0  0  0
  1 13  1  0  0  0  0
  2 22  1  0  0  0  0
  2 19  1  0  0  0  0
  4  3  1  0  0  0  0
  4 23  1  0  0  0  0
  5 19  2  0  0  0  0
  5 16  1  0  0  0  0
  6  9  1  0  0  0  0
  6 14  2  0  0  0  0
  7 21  1  0  0  0  0
  8 14  1  0  0  0  0
  8  1  2  0  0  0  0
  9  2  2  0  0  0  0
 10 17  1  0  0  0  0
 10  9  1  0  0  0  0
 10 25  1  1  0  0  0
 11 18  1  6  0  0  0
 11 22  1  0  0  0  0
 12 15  1  0  0  0  0
 12  7  2  0  0  0  0
 13 16  2  0  0  0  0
 14  5  1  0  0  0  0
 15  4  2  0  0  0  0
 17 27  1  6  0  0  0
 17 11  1  0  0  0  0
 20  3  2  0  0  0  0
 21 23  2  0  0  0  0
 22  3  1  6  0  0  0
 23 18  1  0  0  0  0
 25 24  3  0  0  0  0
 26 27  1  0  0  0  0
 28 29  2  0  0  0  0
 29  1  1  0  0  0  0
 30 28  1  0  0  0  0
 30 32  1  0  0  0  0
 31 30  1  0  0  0  0
M  END
>  <MODEL>
1

>  <REMARK>
 VINA RESULT:      -7.8      0.000      0.000
  Name = 
  4 active torsions:
  status: ('A' for Active; 'I' for Inactive)
    1  A    between atoms: C_1  and  C_10
    2  A    between atoms: C_2  and  N_24
    3  A    between atoms: C_13  and  C_15
    4  A    between atoms: O_25  and  C_26
                            x       y       z     vdW  Elec       q    Type
                         _______ _______ _______ _____ _____    ______ ____

>  <TORSDO>
F 4

$$$$
=
 OpenBabel11052421403D

 32 36  0  0  1  0  0  0  0  0999 V2000
  189.4720  172.3730  138.9740 C   0  0  0  0  0  0  0  0  0  0  0  0
  188.8300  175.6010  142.8140 C   0  0  0  0  0  0  0  0  0  0  0  0
  186.9120  176.5110  144.1870 C   0  0  0  0  0  0  0  0  0  0  0  0
  186.4550  177.2230  145.3860 C   0  0  0  0  0  0  0  0  0  0  0  0
  188.7050  174.4800  140.6650 C   0  0  0  0  0  0  0  0  0  0  0  0
  190.1290  173.5820  142.4160 C   0  0  0  0  0  3  0  0  0  0  0  0
  185.6510  178.6740  147.6400 C   0  0  0  0  0  3  0  0  0  0  0  0
  189.9880  172.4520  140.2800 C   0  0  0  0  0  3  0  0  0  0  0  0
  189.7500  174.6280  143.2680 C   0  0  0  0  0  0  0  0  0  0  0  0
  190.3990  174.7330  144.6230 C   0  0  2  0  0  3  0  0  0  0  0  0
  189.2890  176.9250  144.8510 N   0  0  2  0  0  0  0  0  0  0  0  0
  184.7050  177.9690  146.8890 C   0  0  0  0  0  3  0  0  0  0  0  0
  188.5740  173.3510  138.5280 C   0  0  0  0  0  3  0  0  0  0  0  0
  189.6090  173.4980  141.1240 C   0  0  0  0  0  0  0  0  0  0  0  0
  185.1050  177.2440  145.7610 C   0  0  0  0  0  3  0  0  0  0  0  0
  188.1910  174.4010  139.3690 C   0  0  0  0  0  3  0  0  0  0  0  0
  189.6450  175.6800  145.5590 C   0  0  1  0  0  3  0  0  0  0  0  0
  188.7820  177.8640  145.7770 N   0  0  0  0  0  2  0  0  0  0  0  0
  188.3200  175.5210  141.5110 C   0  0  0  0  0  3  0  0  0  0  0  0
  186.1020  175.8190  143.5110 O   0  0  0  0  0  0  0  0  0  0  0  0
  186.9990  178.6490  147.2690 C   0  0  0  0  0  3  0  0  0  0  0  0
  188.3460  176.7020  143.7280 C   0  0  1  0  0  3  0  0  0  0  0  0
  187.4000  177.9160  146.1500 C   0  0  0  0  0  0  0  0  0  0  0  0
  192.8880  175.5350  144.3820 N   0  0  0  0  0  0  0  0  0  0  0  0
  191.7910  175.1810  144.4890 C   0  0  0  0  0  0  0  0  0  0  0  0
  188.9420  174.5430  147.3260 C   0  0  0  0  0  1  0  0  0  0  0  0
  188.5200  175.0380  146.0920 O   0  0  0  0  0  0  0  0  0  0  0  0
  190.0620  170.1000  138.4800 C   0  0  0  0  0  3  0  0  0  0  0  0
  189.8400  171.3140  138.0840 N   0  0  0  0  0  0  0  0  0  0  0  0
  190.4440  169.0440  137.5040 C   0  0  0  0  0  3  0  0  0  0  0  0
  191.5180  168.1660  138.1090 C   0  0  0  0  0  1  0  0  0  0  0  0
  190.9740  169.6760  136.2310 C   0  0  0  0  0  1  0  0  0  0  0  0
  1  8  1  0  0  0  0
  2  9  1  0  0  0  0
  3  4  1  0  0  0  0
  4 15  2  0  0  0  0
  4 23  1  0  0  0  0
  5 14  1  0  0  0  0
  5 19  1  0  0  0  0
  6  9  2  0  0  0  0
  8 14  2  0  0  0  0
  9 10  1  0  0  0  0
 10 25  1  6  0  0  0
 10 17  1  0  0  0  0
 11 17  1  0  0  0  0
 11 18  1  1  0  0  0
 12  7  2  0  0  0  0
 13  1  2  0  0  0  0
 13 16  1  0  0  0  0
 14  6  1  0  0  0  0
 15 12  1  0  0  0  0
 16  5  2  0  0  0  0
 17 27  1  6  0  0  0
 18 23  1  0  0  0  0
 19  2  2  0  0  0  0
 20  3  2  0  0  0  0
 21  7  1  0  0  0  0
 22  2  1  1  0  0  0
 22  3  1  0  0  0  0
 22 11  1  0  0  0  0
 23 21  2  0  0  0  0
 24 25  3  0  0  0  0
 27 26  1  0  0  0  0
 29 28  2  0  0  0  0
 29  1  1  0  0  0  0
 30 31  1  0  0  0  0
 30 28  1  0  0  0  0
 32 30  1  0  0  0  0
M  END
>  <MODEL>
2

>  <REMARK>
 VINA RESULT:      -7.2      5.076      9.104
  Name = 
  4 active torsions:
  status: ('A' for Active; 'I' for Inactive)
    1  A    between atoms: C_1  and  C_10
    2  A    between atoms: C_2  and  N_24
    3  A    between atoms: C_13  and  C_15
    4  A    between atoms: O_25  and  C_26
                            x       y       z     vdW  Elec       q    Type
                         _______ _______ _______ _____ _____    ______ ____

>  <TORSDO>
F 4

$$$$
=
 OpenBabel11052421403D

 32 36  0  0  1  0  0  0  0  0999 V2000
  184.5800  178.2920  142.8510 C   0  0  0  0  0  0  0  0  0  0  0  0
  189.3690  176.6720  142.9350 C   0  0  0  0  0  0  0  0  0  0  0  0
  191.3030  176.6470  144.5640 C   0  0  0  0  0  0  0  0  0  0  0  0
  192.6200  176.1200  144.9390 C   0  0  0  0  0  0  0  0  0  0  0  0
  187.3700  178.0440  143.0400 C   0  0  0  0  0  0  0  0  0  0  0  0
  187.1870  175.6790  142.5170 C   0  0  0  0  0  3  0  0  0  0  0  0
  195.1750  175.1550  145.5480 C   0  0  0  0  0  3  0  0  0  0  0  0
  185.1920  177.0430  142.6420 C   0  0  0  0  0  3  0  0  0  0  0  0
  188.5800  175.5450  142.6120 C   0  0  0  0  0  0  0  0  0  0  0  0
  189.2050  174.2150  142.2850 C   0  0  2  0  0  3  0  0  0  0  0  0
  191.3940  175.3460  142.4290 N   0  0  2  0  0  0  0  0  0  0  0  0
  194.4450  175.8560  146.5130 C   0  0  0  0  0  3  0  0  0  0  0  0
  185.3720  179.4050  143.1540 C   0  0  0  0  0  3  0  0  0  0  0  0
  186.5790  176.9160  142.7350 C   0  0  0  0  0  0  0  0  0  0  0  0
  193.1680  176.3410  146.2100 C   0  0  0  0  0  3  0  0  0  0  0  0
  186.7620  179.2840  143.2490 C   0  0  0  0  0  3  0  0  0  0  0  0
  190.6530  174.1170  142.7710 C   0  0  1  0  0  3  0  0  0  0  0  0
  192.7680  175.1570  142.6970 N   0  0  0  0  0  2  0  0  0  0  0  0
  188.7560  177.9160  143.1400 C   0  0  0  0  0  3  0  0  0  0  0  0
  190.5880  177.2390  145.4190 O   0  0  0  0  0  0  0  0  0  0  0  0
  194.6270  174.9300  144.2810 C   0  0  0  0  0  3  0  0  0  0  0  0
  190.8640  176.5500  143.1140 C   0  0  1  0  0  3  0  0  0  0  0  0
  193.3470  175.4040  143.9820 C   0  0  0  0  0  0  0  0  0  0  0  0
  189.1170  173.7760  139.6970 N   0  0  0  0  0  0  0  0  0  0  0  0
  189.1560  173.9700  140.8370 C   0  0  0  0  0  0  0  0  0  0  0  0
  190.2040  172.5460  144.2680 C   0  0  0  0  0  1  0  0  0  0  0  0
  190.6840  173.8500  144.1450 O   0  0  0  0  0  0  0  0  0  0  0  0
  182.4940  178.2910  141.6630 C   0  0  0  0  0  3  0  0  0  0  0  0
  183.1600  178.4560  142.7630 N   0  0  0  0  0  0  0  0  0  0  0  0
  181.0170  178.4790  141.6370 C   0  0  0  0  0  3  0  0  0  0  0  0
  180.6520  179.4230  140.5130 C   0  0  0  0  0  1  0  0  0  0  0  0
  180.5430  179.0630  142.9540 C   0  0  0  0  0  1  0  0  0  0  0  0
  1 13  1  0  0  0  0
  2 19  1  0  0  0  0
  3  4  1  0  0  0  0
  3 20  2  0  0  0  0
  4 15  1  0  0  0  0
  5 19  2  0  0  0  0
  5 16  1  0  0  0  0
  6  9  1  0  0  0  0
  6 14  2  0  0  0  0
  7 12  1  0  0  0  0
  8 14  1  0  0  0  0
  8  1  2  0  0  0  0
  9  2  2  0  0  0  0
 10 25  1  6  0  0  0
 10  9  1  0  0  0  0
 10 17  1  0  0  0  0
 11 18  1  1  0  0  0
 11 17  1  0  0  0  0
 11 22  1  0  0  0  0
 13 16  2  0  0  0  0
 14  5  1  0  0  0  0
 15 12  2  0  0  0  0
 17 27  1  1  0  0  0
 18 23  1  0  0  0  0
 21  7  2  0  0  0  0
 22  2  1  1  0  0  0
 22  3  1  0  0  0  0
 23 21  1  0  0  0  0
 23  4  2  0  0  0  0
 24 25  3  0  0  0  0
 27 26  1  0  0  0  0
 28 29  2  0  0  0  0
 29  1  1  0  0  0  0
 30 28  1  0  0  0  0
 30 32  1  0  0  0  0
 31 30  1  0  0  0  0
M  END
>  <MODEL>
3

>  <REMARK>
 VINA RESULT:      -7.1      3.510      5.576
  Name = 
  4 active torsions:
  status: ('A' for Active; 'I' for Inactive)
    1  A    between atoms: C_1  and  C_10
    2  A    between atoms: C_2  and  N_24
    3  A    between atoms: C_13  and  C_15
    4  A    between atoms: O_25  and  C_26
                            x       y       z     vdW  Elec       q    Type
                         _______ _______ _______ _____ _____    ______ ____

>  <TORSDO>
F 4

$$$$
=
 OpenBabel11052421403D

 32 36  0  0  1  0  0  0  0  0999 V2000
  189.3300  177.5280  143.6480 C   0  0  0  0  0  0  0  0  0  0  0  0
  193.6420  174.9670  144.2910 C   0  0  0  0  0  0  0  0  0  0  0  0
  194.3690  172.7490  145.2610 C   0  0  0  0  0  0  0  0  0  0  0  0
  195.4050  171.7180  145.3980 C   0  0  0  0  0  0  0  0  0  0  0  0
  191.5390  176.1200  144.6580 C   0  0  0  0  0  0  0  0  0  0  0  0
  192.4490  175.9520  142.4130 C   0  0  0  0  0  3  0  0  0  0  0  0
  197.4550  169.8380  145.7020 C   0  0  0  0  0  3  0  0  0  0  0  0
  190.3410  177.0840  142.7770 C   0  0  0  0  0  3  0  0  0  0  0  0
  193.5540  175.2460  142.9080 C   0  0  0  0  0  0  0  0  0  0  0  0
  194.6630  174.8740  141.9590 C   0  0  2  0  0  3  0  0  0  0  0  0
  195.9540  174.1620  143.9380 N   0  0  2  0  0  0  0  0  0  0  0  0
  196.1530  169.5220  146.1010 C   0  0  0  0  0  3  0  0  0  0  0  0
  189.4340  177.2610  145.0180 C   0  0  0  0  0  3  0  0  0  0  0  0
  191.4410  176.3830  143.2760 C   0  0  0  0  0  0  0  0  0  0  0  0
  195.1270  170.4610  145.9520 C   0  0  0  0  0  3  0  0  0  0  0  0
  190.5340  176.5600  145.5230 C   0  0  0  0  0  3  0  0  0  0  0  0
  195.6030  173.8190  142.5470 C   0  0  1  0  0  3  0  0  0  0  0  0
  196.9760  173.2990  144.3920 N   0  0  0  0  0  2  0  0  0  0  0  0
  192.6340  175.4130  145.1560 C   0  0  0  0  0  3  0  0  0  0  0  0
  193.1710  172.4880  145.5590 O   0  0  0  0  0  0  0  0  0  0  0  0
  197.7330  171.0900  145.1450 C   0  0  0  0  0  3  0  0  0  0  0  0
  194.7830  174.1490  144.8490 C   0  0  1  0  0  3  0  0  0  0  0  0
  196.7060  172.0240  144.9840 C   0  0  0  0  0  0  0  0  0  0  0  0
  196.0440  177.0050  141.2870 N   0  0  0  0  0  0  0  0  0  0  0  0
  195.4350  176.0660  141.5840 C   0  0  0  0  0  0  0  0  0  0  0  0
  195.6170  171.9710  141.3250 C   0  0  0  0  0  1  0  0  0  0  0  0
  195.0240  172.5480  142.4480 O   0  0  0  0  0  0  0  0  0  0  0  0
  187.0260  178.1940  143.7380 C   0  0  0  0  0  3  0  0  0  0  0  0
  188.1890  178.2490  143.1680 N   0  0  0  0  0  0  0  0  0  0  0  0
  185.8780  178.9670  143.1890 C   0  0  0  0  0  3  0  0  0  0  0  0
  185.3070  179.8540  144.2730 C   0  0  0  0  0  1  0  0  0  0  0  0
  184.8000  178.0200  142.6970 C   0  0  0  0  0  1  0  0  0  0  0  0
  1 13  1  0  0  0  0
  2 19  1  0  0  0  0
  3  4  1  0  0  0  0
  3 20  2  0  0  0  0
  4 15  1  0  0  0  0
  5 19  2  0  0  0  0
  5 16  1  0  0  0  0
  6  9  1  0  0  0  0
  6 14  2  0  0  0  0
  7 12  1  0  0  0  0
  8 14  1  0  0  0  0
  8  1  2  0  0  0  0
  9  2  2  0  0  0  0
 10 25  1  1  0  0  0
 10 17  1  0  0  0  0
 10  9  1  0  0  0  0
 11 18  1  1  0  0  0
 11 22  1  0  0  0  0
 13 16  2  0  0  0  0
 14  5  1  0  0  0  0
 15 12  2  0  0  0  0
 17 27  1  1  0  0  0
 17 11  1  0  0  0  0
 18 23  1  0  0  0  0
 21  7  2  0  0  0  0
 22  2  1  6  0  0  0
 22  3  1  0  0  0  0
 23 21  1  0  0  0  0
 23  4  2  0  0  0  0
 24 25  3  0  0  0  0
 26 27  1  0  0  0  0
 29  1  1  0  0  0  0
 29 28  2  0  0  0  0
 30 28  1  0  0  0  0
 30 31  1  0  0  0  0
 32 30  1  0  0  0  0
M  END
>  <MODEL>
4

>  <REMARK>
 VINA RESULT:      -6.8      1.747      2.193
  Name = 
  4 active torsions:
  status: ('A' for Active; 'I' for Inactive)
    1  A    between atoms: C_1  and  C_10
    2  A    between atoms: C_2  and  N_24
    3  A    between atoms: C_13  and  C_15
    4  A    between atoms: O_25  and  C_26
                            x       y       z     vdW  Elec       q    Type
                         _______ _______ _______ _____ _____    ______ ____

>  <TORSDO>
F 4

$$$$
=
 OpenBabel11052421403D

 32 36  0  0  1  0  0  0  0  0999 V2000
  186.7900  177.0670  142.6910 C   0  0  0  0  0  0  0  0  0  0  0  0
  191.4320  175.4810  143.9160 C   0  0  0  0  0  0  0  0  0  0  0  0
  193.7330  175.4580  142.8700 C   0  0  0  0  0  0  0  0  0  0  0  0
  195.1830  175.2850  143.0290 C   0  0  0  0  0  0  0  0  0  0  0  0
  189.3070  175.8270  142.7970 C   0  0  0  0  0  0  0  0  0  0  0  0
  189.7720  176.9700  144.8890 C   0  0  0  0  0  3  0  0  0  0  0  0
  197.9240  174.8450  143.3770 C   0  0  0  0  0  3  0  0  0  0  0  0
  187.6600  177.3300  143.7630 C   0  0  0  0  0  3  0  0  0  0  0  0
  191.0310  176.3580  144.9500 C   0  0  0  0  0  0  0  0  0  0  0  0
  191.8930  176.5890  146.1630 C   0  0  2  0  0  3  0  0  0  0  0  0
  193.4000  174.8480  145.2740 N   0  0  2  0  0  0  0  0  0  0  0  0
  197.4540  175.4250  142.1940 C   0  0  0  0  0  3  0  0  0  0  0  0
  187.1890  176.1840  141.6800 C   0  0  0  0  0  3  0  0  0  0  0  0
  188.9130  176.7160  143.8200 C   0  0  0  0  0  0  0  0  0  0  0  0
  196.0840  175.6440  142.0180 C   0  0  0  0  0  3  0  0  0  0  0  0
  188.4430  175.5650  141.7310 C   0  0  0  0  0  3  0  0  0  0  0  0
  193.3470  176.1670  145.9340 C   0  0  1  0  0  3  0  0  0  0  0  0
  194.7340  174.3840  145.2570 N   0  0  0  0  0  2  0  0  0  0  0  0
  190.5610  175.2180  142.8500 C   0  0  0  0  0  3  0  0  0  0  0  0
  193.2710  176.0260  141.8430 O   0  0  0  0  0  0  0  0  0  0  0  0
  197.0260  174.4900  144.3880 C   0  0  0  0  0  3  0  0  0  0  0  0
  192.8090  174.8590  143.9130 C   0  0  1  0  0  3  0  0  0  0  0  0
  195.6590  174.7210  144.2180 C   0  0  0  0  0  0  0  0  0  0  0  0
  190.9200  175.2980  148.2330 N   0  0  0  0  0  0  0  0  0  0  0  0
  191.3490  175.8670  147.3210 C   0  0  0  0  0  0  0  0  0  0  0  0
  194.8090  177.8190  146.1420 C   0  0  0  0  0  1  0  0  0  0  0  0
  194.0250  177.1490  145.2020 O   0  0  0  0  0  0  0  0  0  0  0  0
  184.9590  178.0370  141.4790 C   0  0  0  0  0  3  0  0  0  0  0  0
  185.4990  177.6800  142.6020 N   0  0  0  0  0  0  0  0  0  0  0  0
  183.6130  178.6730  141.4550 C   0  0  0  0  0  3  0  0  0  0  0  0
  183.0320  178.6670  142.8520 C   0  0  0  0  0  1  0  0  0  0  0  0
  182.6910  177.9080  140.5260 C   0  0  0  0  0  1  0  0  0  0  0  0
  1  8  1  0  0  0  0
  2  9  1  0  0  0  0
  3  4  1  0  0  0  0
  4 23  1  0  0  0  0
  5 19  1  0  0  0  0
  5 14  1  0  0  0  0
  6  9  2  0  0  0  0
  7 21  1  0  0  0  0
  8 14  2  0  0  0  0
  9 10  1  0  0  0  0
 10 25  1  1  0  0  0
 11 18  1  6  0  0  0
 11 17  1  0  0  0  0
 12  7  2  0  0  0  0
 13 16  1  0  0  0  0
 13  1  2  0  0  0  0
 14  6  1  0  0  0  0
 15 12  1  0  0  0  0
 15  4  2  0  0  0  0
 16  5  2  0  0  0  0
 17 27  1  6  0  0  0
 17 10  1  0  0  0  0
 19  2  2  0  0  0  0
 20  3  2  0  0  0  0
 22  3  1  6  0  0  0
 22  2  1  0  0  0  0
 22 11  1  0  0  0  0
 23 21  2  0  0  0  0
 23 18  1  0  0  0  0
 25 24  3  0  0  0  0
 27 26  1  0  0  0  0
 28 29  2  0  0  0  0
 29  1  1  0  0  0  0
 30 28  1  0  0  0  0
 30 31  1  0  0  0  0
 32 30  1  0  0  0  0
M  END
>  <MODEL>
5

>  <REMARK>
 VINA RESULT:      -6.8      2.660      3.887
  Name = 
  4 active torsions:
  status: ('A' for Active; 'I' for Inactive)
    1  A    between atoms: C_1  and  C_10
    2  A    between atoms: C_2  and  N_24
    3  A    between atoms: C_13  and  C_15
    4  A    between atoms: O_25  and  C_26
                            x       y       z     vdW  Elec       q    Type
                         _______ _______ _______ _____ _____    ______ ____

>  <TORSDO>
F 4

$$$$
=
 OpenBabel11052421403D

 32 36  0  0  1  0  0  0  0  0999 V2000
  188.1190  177.1940  143.7520 C   0  0  0  0  0  0  0  0  0  0  0  0
  192.5820  174.9090  143.1030 C   0  0  0  0  0  0  0  0  0  0  0  0
  193.9740  174.0440  141.1780 C   0  0  0  0  0  0  0  0  0  0  0  0
  195.2710  173.5710  140.6800 C   0  0  0  0  0  0  0  0  0  0  0  0
  190.2170  175.4520  143.0860 C   0  0  0  0  0  0  0  0  0  0  0  0
  191.7970  176.9630  144.1440 C   0  0  0  0  0  3  0  0  0  0  0  0
  197.7430  172.5830  139.8180 C   0  0  0  0  0  3  0  0  0  0  0  0
  189.4400  177.5140  144.1100 C   0  0  0  0  0  3  0  0  0  0  0  0
  192.8510  176.1000  143.8140 C   0  0  0  0  0  0  0  0  0  0  0  0
  194.2380  176.4290  144.3000 C   0  0  2  0  0  3  0  0  0  0  0  0
  194.9190  174.2000  143.4890 N   0  0  2  0  0  0  0  0  0  0  0  0
  196.7610  172.9220  138.8820 C   0  0  0  0  0  3  0  0  0  0  0  0
  187.8600  176.0040  143.0620 C   0  0  0  0  0  3  0  0  0  0  0  0
  190.4870  176.6500  143.7800 C   0  0  0  0  0  0  0  0  0  0  0  0
  195.5240  173.4150  139.3110 C   0  0  0  0  0  3  0  0  0  0  0  0
  188.9040  175.1340  142.7300 C   0  0  0  0  0  3  0  0  0  0  0  0
  195.3160  175.6180  143.5770 C   0  0  1  0  0  3  0  0  0  0  0  0
  196.0070  173.4370  143.0080 N   0  0  0  0  0  2  0  0  0  0  0  0
  191.2630  174.5920  142.7500 C   0  0  0  0  0  3  0  0  0  0  0  0
  193.0790  174.4120  140.3670 O   0  0  0  0  0  0  0  0  0  0  0  0
  197.4930  172.7420  141.1840 C   0  0  0  0  0  3  0  0  0  0  0  0
  193.7010  173.9910  142.6690 C   0  0  1  0  0  3  0  0  0  0  0  0
  196.2630  173.2460  141.6130 C   0  0  0  0  0  0  0  0  0  0  0  0
  194.4200  176.0170  146.8880 N   0  0  0  0  0  0  0  0  0  0  0  0
  194.3390  176.1990  145.7480 C   0  0  0  0  0  0  0  0  0  0  0  0
  196.8160  176.7910  142.4430 C   0  0  0  0  0  1  0  0  0  0  0  0
  195.5720  176.1720  142.3170 O   0  0  0  0  0  0  0  0  0  0  0  0
  186.5850  178.2270  145.2830 C   0  0  0  0  0  3  0  0  0  0  0  0
  187.0230  178.0590  144.0750 N   0  0  0  0  0  0  0  0  0  0  0  0
  185.4400  179.1390  145.5520 C   0  0  0  0  0  3  0  0  0  0  0  0
  184.2970  178.3460  146.1480 C   0  0  0  0  0  1  0  0  0  0  0  0
  184.9780  179.7910  144.2630 C   0  0  0  0  0  1  0  0  0  0  0  0
  1 29  1  0  0  0  0
  1  8  1  0  0  0  0
  2  9  1  0  0  0  0
  4  3  1  0  0  0  0
  4 23  1  0  0  0  0
  5 14  1  0  0  0  0
  7 21  1  0  0  0  0
  9  6  2  0  0  0  0
  9 10  1  0  0  0  0
 10 25  1  1  0  0  0
 11 18  1  6  0  0  0
 11 17  1  0  0  0  0
 12 15  1  0  0  0  0
 12  7  2  0  0  0  0
 13  1  2  0  0  0  0
 14  8  2  0  0  0  0
 14  6  1  0  0  0  0
 15  4  2  0  0  0  0
 16 13  1  0  0  0  0
 16  5  2  0  0  0  0
 17 27  1  6  0  0  0
 17 10  1  0  0  0  0
 19  5  1  0  0  0  0
 19  2  2  0  0  0  0
 20  3  2  0  0  0  0
 21 23  2  0  0  0  0
 22  3  1  6  0  0  0
 22  2  1  0  0  0  0
 22 11  1  0  0  0  0
 23 18  1  0  0  0  0
 25 24  3  0  0  0  0
 27 26  1  0  0  0  0
 28 30  1  0  0  0  0
 29 28  2  0  0  0  0
 30 31  1  0  0  0  0
 32 30  1  0  0  0  0
M  END
>  <MODEL>
6

>  <REMARK>
 VINA RESULT:      -6.7      2.686      3.276
  Name = 
  4 active torsions:
  status: ('A' for Active; 'I' for Inactive)
    1  A    between atoms: C_1  and  C_10
    2  A    between atoms: C_2  and  N_24
    3  A    between atoms: C_13  and  C_15
    4  A    between atoms: O_25  and  C_26
                            x       y       z     vdW  Elec       q    Type
                         _______ _______ _______ _____ _____    ______ ____

>  <TORSDO>
F 4

$$$$
=
 OpenBabel11052421403D

 32 36  0  0  1  0  0  0  0  0999 V2000
  195.5080  173.1140  144.7280 C   0  0  0  0  0  0  0  0  0  0  0  0
  191.3890  176.0380  144.9630 C   0  0  0  0  0  0  0  0  0  0  0  0
  189.1600  176.2190  143.7850 C   0  0  0  0  0  0  0  0  0  0  0  0
  187.7960  176.7610  143.7570 C   0  0  0  0  0  0  0  0  0  0  0  0
  193.3660  174.8510  144.2040 C   0  0  0  0  0  0  0  0  0  0  0  0
  192.6420  174.6430  146.5130 C   0  0  0  0  0  3  0  0  0  0  0  0
  185.2430  177.9060  143.7100 C   0  0  0  0  0  3  0  0  0  0  0  0
  194.6020  173.4440  145.7520 C   0  0  0  0  0  3  0  0  0  0  0  0
  191.5680  175.5080  146.2610 C   0  0  0  0  0  0  0  0  0  0  0  0
  190.6790  175.9140  147.4050 C   0  0  2  0  0  3  0  0  0  0  0  0
  189.6360  177.5320  145.8610 N   0  0  2  0  0  0  0  0  0  0  0  0
  185.5560  176.8610  142.8350 C   0  0  0  0  0  3  0  0  0  0  0  0
  195.3310  173.6570  143.4500 C   0  0  0  0  0  3  0  0  0  0  0  0
  193.5350  174.3070  145.4950 C   0  0  0  0  0  0  0  0  0  0  0  0
  186.8320  176.2890  142.8560 C   0  0  0  0  0  3  0  0  0  0  0  0
  194.2650  174.5230  143.1870 C   0  0  0  0  0  3  0  0  0  0  0  0
  189.3700  176.5500  146.9290 C   0  0  1  0  0  3  0  0  0  0  0  0
  188.4530  178.2520  145.5800 N   0  0  0  0  0  2  0  0  0  0  0  0
  192.2960  175.7080  143.9450 C   0  0  0  0  0  3  0  0  0  0  0  0
  189.4690  175.2410  143.0510 O   0  0  0  0  0  0  0  0  0  0  0  0
  186.2020  178.3750  144.6120 C   0  0  0  0  0  3  0  0  0  0  0  0
  190.2040  176.9160  144.6370 C   0  0  1  0  0  3  0  0  0  0  0  0
  187.4730  177.7960  144.6420 C   0  0  0  0  0  0  0  0  0  0  0  0
  191.9390  177.5840  148.9930 N   0  0  0  0  0  0  0  0  0  0  0  0
  191.3830  176.8490  148.2930 C   0  0  0  0  0  0  0  0  0  0  0  0
  188.5910  174.5490  147.4760 C   0  0  0  0  0  1  0  0  0  0  0  0
  188.4730  175.5560  146.5180 O   0  0  0  0  0  0  0  0  0  0  0  0
  196.5510  170.9520  144.7570 C   0  0  0  0  0  3  0  0  0  0  0  0
  196.6120  172.2310  144.9580 N   0  0  0  0  0  0  0  0  0  0  0  0
  197.7350  170.0880  145.0170 C   0  0  0  0  0  3  0  0  0  0  0  0
  197.9250  169.1350  143.8570 C   0  0  0  0  0  1  0  0  0  0  0  0
  197.5280  169.2910  146.2910 C   0  0  0  0  0  1  0  0  0  0  0  0
  1 29  1  0  0  0  0
  1  8  1  0  0  0  0
  2  9  1  0  0  0  0
  4  3  1  0  0  0  0
  4 23  1  0  0  0  0
  5 14  1  0  0  0  0
  7 21  1  0  0  0  0
  9  6  2  0  0  0  0
  9 10  1  0  0  0  0
 10 25  1  1  0  0  0
 11 18  1  6  0  0  0
 11 17  1  0  0  0  0
 12 15  1  0  0  0  0
 12  7  2  0  0  0  0
 13  1  2  0  0  0  0
 14  8  2  0  0  0  0
 14  6  1  0  0  0  0
 15  4  2  0  0  0  0
 16 13  1  0  0  0  0
 16  5  2  0  0  0  0
 17 27  1  6  0  0  0
 17 10  1  0  0  0  0
 19  5  1  0  0  0  0
 19  2  2  0  0  0  0
 20  3  2  0  0  0  0
 21 23  2  0  0  0  0
 22  3  1  1  0  0  0
 22  2  1  0  0  0  0
 22 11  1  0  0  0  0
 23 18  1  0  0  0  0
 25 24  3  0  0  0  0
 27 26  1  0  0  0  0
 28 29  2  0  0  0  0
 28 30  1  0  0  0  0
 30 32  1  0  0  0  0
 31 30  1  0  0  0  0
M  END
>  <MODEL>
7

>  <REMARK>
 VINA RESULT:      -6.6      2.157      9.021
  Name = 
  4 active torsions:
  status: ('A' for Active; 'I' for Inactive)
    1  A    between atoms: C_1  and  C_10
    2  A    between atoms: C_2  and  N_24
    3  A    between atoms: C_13  and  C_15
    4  A    between atoms: O_25  and  C_26
                            x       y       z     vdW  Elec       q    Type
                         _______ _______ _______ _____ _____    ______ ____

>  <TORSDO>
F 4

$$$$
=
 OpenBabel11052421403D

 32 36  0  0  1  0  0  0  0  0999 V2000
  187.8500  177.1940  144.4440 C   0  0  0  0  0  0  0  0  0  0  0  0
  192.1170  174.7180  143.3350 C   0  0  0  0  0  0  0  0  0  0  0  0
  194.0460  173.6690  144.5880 C   0  0  0  0  0  0  0  0  0  0  0  0
  195.2130  172.7790  144.5780 C   0  0  0  0  0  0  0  0  0  0  0  0
  190.5060  176.3230  144.1820 C   0  0  0  0  0  0  0  0  0  0  0  0
  189.7480  174.4350  142.8560 C   0  0  0  0  0  3  0  0  0  0  0  0
  197.4850  171.1490  144.4690 C   0  0  0  0  0  3  0  0  0  0  0  0
  188.1390  176.0260  143.7180 C   0  0  0  0  0  3  0  0  0  0  0  0
  191.0710  173.9920  142.7210 C   0  0  0  0  0  0  0  0  0  0  0  0
  191.3500  172.7920  141.8540 C   0  0  2  0  0  3  0  0  0  0  0  0
  193.7490  173.3030  142.1310 N   0  0  2  0  0  0  0  0  0  0  0  0
  196.9780  171.5580  145.7060 C   0  0  0  0  0  3  0  0  0  0  0  0
  188.8940  177.9160  145.0350 C   0  0  0  0  0  3  0  0  0  0  0  0
  189.4590  175.5890  143.5850 C   0  0  0  0  0  0  0  0  0  0  0  0
  195.8430  172.3750  145.7630 C   0  0  0  0  0  3  0  0  0  0  0  0
  190.2180  177.4840  144.9050 C   0  0  0  0  0  3  0  0  0  0  0  0
  192.7500  172.2190  142.0870 C   0  0  1  0  0  3  0  0  0  0  0  0
  195.0470  172.7470  142.1390 N   0  0  0  0  0  2  0  0  0  0  0  0
  191.8240  175.8840  144.0560 C   0  0  0  0  0  3  0  0  0  0  0  0
  193.5230  174.0190  145.6820 O   0  0  0  0  0  0  0  0  0  0  0  0
  196.8550  171.5490  143.2860 C   0  0  0  0  0  3  0  0  0  0  0  0
  193.5450  174.2310  143.2700 C   0  0  1  0  0  3  0  0  0  0  0  0
  195.7140  172.3540  143.3430 C   0  0  0  0  0  0  0  0  0  0  0  0
  191.0690  173.4140  139.3180 N   0  0  0  0  0  0  0  0  0  0  0  0
  191.1920  173.1400  140.4360 C   0  0  0  0  0  0  0  0  0  0  0  0
  192.4350  170.1540  142.8300 C   0  0  0  0  0  1  0  0  0  0  0  0
  192.7650  171.4420  143.2520 O   0  0  0  0  0  0  0  0  0  0  0  0
  186.1960  178.6830  145.3430 C   0  0  0  0  0  3  0  0  0  0  0  0
  186.5070  177.6680  144.5990 N   0  0  0  0  0  0  0  0  0  0  0  0
  184.7790  179.1260  145.4640 C   0  0  0  0  0  3  0  0  0  0  0  0
  184.0810  178.2890  146.5130 C   0  0  0  0  0  1  0  0  0  0  0  0
  184.0660  178.9610  144.1360 C   0  0  0  0  0  1  0  0  0  0  0  0
  1 29  1  0  0  0  0
  1 13  1  0  0  0  0
  2 19  1  0  0  0  0
  3 20  2  0  0  0  0
  4  3  1  0  0  0  0
  4 15  1  0  0  0  0
  5 16  1  0  0  0  0
  6 14  2  0  0  0  0
  7 12  1  0  0  0  0
  8  1  2  0  0  0  0
  9  6  1  0  0  0  0
  9  2  2  0  0  0  0
 10 25  1  6  0  0  0
 10 17  1  0  0  0  0
 10  9  1  0  0  0  0
 11 18  1  1  0  0  0
 11 22  1  0  0  0  0
 12 15  2  0  0  0  0
 14  8  1  0  0  0  0
 14  5  1  0  0  0  0
 16 13  2  0  0  0  0
 17 11  1  0  0  0  0
 17 27  1  1  0  0  0
 18 23  1  0  0  0  0
 19  5  2  0  0  0  0
 21 23  1  0  0  0  0
 21  7  2  0  0  0  0
 22  2  1  1  0  0  0
 22  3  1  0  0  0  0
 23  4  2  0  0  0  0
 24 25  3  0  0  0  0
 26 27  1  0  0  0  0
 28 30  1  0  0  0  0
 29 28  2  0  0  0  0
 30 31  1  0  0  0  0
 32 30  1  0  0  0  0
M  END
>  <MODEL>
8

>  <REMARK>
 VINA RESULT:      -6.6      2.757      3.543
  Name = 
  4 active torsions:
  status: ('A' for Active; 'I' for Inactive)
    1  A    between atoms: C_1  and  C_10
    2  A    between atoms: C_2  and  N_24
    3  A    between atoms: C_13  and  C_15
    4  A    between atoms: O_25  and  C_26
                            x       y       z     vdW  Elec       q    Type
                         _______ _______ _______ _____ _____    ______ ____

>  <TORSDO>
F 4

$$$$
=
 OpenBabel11052421403D

 32 36  0  0  1  0  0  0  0  0999 V2000
  192.1170  171.2400  143.3860 C   0  0  0  0  0  0  0  0  0  0  0  0
  189.4650  175.4820  144.1210 C   0  0  0  0  0  0  0  0  0  0  0  0
  187.2530  176.4530  143.3760 C   0  0  0  0  0  0  0  0  0  0  0  0
  186.2000  177.4600  143.5560 C   0  0  0  0  0  0  0  0  0  0  0  0
  190.6790  173.6360  143.1160 C   0  0  0  0  0  0  0  0  0  0  0  0
  190.4330  173.7500  145.5300 C   0  0  0  0  0  3  0  0  0  0  0  0
  184.2770  179.4660  143.8870 C   0  0  0  0  0  3  0  0  0  0  0  0
  191.6270  171.8990  144.5270 C   0  0  0  0  0  3  0  0  0  0  0  0
  189.7120  174.9460  145.4060 C   0  0  0  0  0  0  0  0  0  0  0  0
  189.2890  175.6730  146.6550 C   0  0  2  0  0  3  0  0  0  0  0  0
  188.5940  177.5340  145.1910 N   0  0  2  0  0  0  0  0  0  0  0  0
  184.0040  178.3640  143.0700 C   0  0  0  0  0  3  0  0  0  0  0  0
  191.8810  171.7870  142.1190 C   0  0  0  0  0  3  0  0  0  0  0  0
  190.9110  173.0910  144.3970 C   0  0  0  0  0  0  0  0  0  0  0  0
  184.9650  177.3610  142.9030 C   0  0  0  0  0  3  0  0  0  0  0  0
  191.1650  172.9810  141.9830 C   0  0  0  0  0  3  0  0  0  0  0  0
  188.2260  176.7380  146.3780 C   0  0  1  0  0  3  0  0  0  0  0  0
  187.7160  178.6350  145.0730 N   0  0  0  0  0  2  0  0  0  0  0  0
  189.9570  174.8230  142.9860 C   0  0  0  0  0  3  0  0  0  0  0  0
  187.0300  175.4170  142.6920 O   0  0  0  0  0  0  0  0  0  0  0  0
  185.5080  179.5630  144.5430 C   0  0  0  0  0  3  0  0  0  0  0  0
  188.6320  176.7300  143.9450 C   0  0  1  0  0  3  0  0  0  0  0  0
  186.4630  178.5560  144.3860 C   0  0  0  0  0  0  0  0  0  0  0  0
  191.3670  176.7880  147.8110 N   0  0  0  0  0  0  0  0  0  0  0  0
  190.4520  176.2970  147.3010 C   0  0  0  0  0  0  0  0  0  0  0  0
  186.2910  176.4520  147.4190 C   0  0  0  0  0  1  0  0  0  0  0  0
  186.9680  176.1390  146.2400 O   0  0  0  0  0  0  0  0  0  0  0  0
  193.4090  169.6090  144.5830 C   0  0  0  0  0  3  0  0  0  0  0  0
  192.8540  170.0160  143.4840 N   0  0  0  0  0  0  0  0  0  0  0  0
  194.1650  168.3270  144.6180 C   0  0  0  0  0  3  0  0  0  0  0  0
  194.8130  168.1660  145.9760 C   0  0  0  0  0  1  0  0  0  0  0  0
  195.2380  168.3240  143.5470 C   0  0  0  0  0  1  0  0  0  0  0  0
  1 29  1  0  0  0  0
  1  8  1  0  0  0  0
  2  9  1  0  0  0  0
  3  4  1  0  0  0  0
  4 23  1  0  0  0  0
  5 14  1  0  0  0  0
  7 21  1  0  0  0  0
  9  6  2  0  0  0  0
  9 10  1  0  0  0  0
 10 25  1  6  0  0  0
 11 18  1  6  0  0  0
 11 17  1  0  0  0  0
 12  7  2  0  0  0  0
 13  1  2  0  0  0  0
 14  8  2  0  0  0  0
 14  6  1  0  0  0  0
 15 12  1  0  0  0  0
 15  4  2  0  0  0  0
 16 13  1  0  0  0  0
 16  5  2  0  0  0  0
 17 27  1  6  0  0  0
 17 10  1  0  0  0  0
 19  5  1  0  0  0  0
 19  2  2  0  0  0  0
 20  3  2  0  0  0  0
 22  3  1  1  0  0  0
 22  2  1  0  0  0  0
 22 11  1  0  0  0  0
 23 21  2  0  0  0  0
 23 18  1  0  0  0  0
 25 24  3  0  0  0  0
 27 26  1  0  0  0  0
 28 30  1  0  0  0  0
 29 28  2  0  0  0  0
 30 31  1  0  0  0  0
 32 30  1  0  0  0  0
M  END
>  <MODEL>
9

>  <REMARK>
 VINA RESULT:      -6.6      3.613      9.423
  Name = 
  4 active torsions:
  status: ('A' for Active; 'I' for Inactive)
    1  A    between atoms: C_1  and  C_10
    2  A    between atoms: C_2  and  N_24
    3  A    between atoms: C_13  and  C_15
    4  A    between atoms: O_25  and  C_26
                            x       y       z     vdW  Elec       q    Type
                         _______ _______ _______ _____ _____    ______ ____

>  <TORSDO>
F 4

$$$$
