=
 OpenBabel11052417373D

 25 27  0  0  1  0  0  0  0  0999 V2000
  190.0300  176.6340  144.3740 C   0  0  0  0  0  0  0  0  0  0  0  0
  188.9500  176.4400  143.4880 C   0  0  0  0  0  0  0  0  0  0  0  0
  191.3400  174.9990  143.1580 C   0  0  0  0  0  3  0  0  0  0  0  0
  189.8660  177.5630  145.5390 C   0  0  0  0  0  2  0  0  0  0  0  0
  186.4820  176.8140  143.2330 C   0  0  2  0  0  3  0  0  0  0  0  0
  188.9980  174.5070  147.6030 N   0  0  0  0  0  1  0  0  0  0  0  0
  190.2920  174.8250  142.2590 C   0  0  0  0  0  3  0  0  0  0  0  0
  192.1470  176.2320  146.6050 C   0  0  0  0  0  2  0  0  0  0  0  0
  191.1450  175.2830  147.0740 N   0  0  0  0  0  0  0  0  0  0  0  0
  187.9960  175.3410  141.3680 C   0  0  2  0  0  3  0  0  0  0  0  0
  188.4560  174.5770  140.2170 N   0  0  0  0  0  1  0  0  0  0  0  0
  187.7700  177.1650  143.7320 O   0  0  0  0  0  0  0  0  0  0  0  0
  189.8660  175.5220  147.1150 C   0  0  0  0  0  0  0  0  0  0  0  0
  191.2240  175.8920  144.2200 C   0  0  0  0  0  0  0  0  0  0  0  0
  192.4340  176.0540  145.1100 C   0  0  0  0  0  2  0  0  0  0  0  0
  187.4680  176.6840  140.8900 C   0  0  0  0  0  2  0  0  0  0  0  0
  189.2550  176.8580  146.7560 C   0  0  0  0  0  2  0  0  0  0  0  0
  186.3120  177.1720  141.7570 C   0  0  0  0  0  2  0  0  0  0  0  0
  189.0950  175.5440  142.3920 C   0  0  0  0  0  0  0  0  0  0  0  0
  185.3600  177.4240  144.0830 C   0  0  0  0  0  2  0  0  0  0  0  0
  185.4440  179.9570  144.2520 C   0  0  0  0  0  1  0  0  0  0  0  0
  185.7340  178.6380  144.9480 C   0  0  1  0  0  3  0  0  0  0  0  0
  185.1740  178.5930  146.3340 C   0  0  0  0  0  0  0  0  0  0  0  0
  185.7110  179.3860  147.3430 O   0  0  0  0  0  1  0  0  0  0  0  0
  184.1850  177.8560  146.5820 O   0  0  0  0  0  0  0  0  0  0  0  0
  1  4  1  0  0  0  0
  2 12  1  0  0  0  0
  2  1  2  0  0  0  0
  3 14  2  0  0  0  0
  4 17  1  0  0  0  0
  5 12  1  0  0  0  0
  5 20  1  1  0  0  0
  7 19  2  0  0  0  0
  7  3  1  0  0  0  0
  8  9  1  0  0  0  0
  9 13  2  0  0  0  0
 10 11  1  6  0  0  0
 10 19  1  0  0  0  0
 13  6  1  0  0  0  0
 14  1  1  0  0  0  0
 14 15  1  0  0  0  0
 15  8  1  0  0  0  0
 16 10  1  0  0  0  0
 16 18  1  0  0  0  0
 17 13  1  0  0  0  0
 18  5  1  0  0  0  0
 19  2  1  0  0  0  0
 20 22  1  0  0  0  0
 22 21  1  6  0  0  0
 22 23  1  0  0  0  0
 23 25  2  0  0  0  0
 23 24  1  0  0  0  0
M  END
>  <MODEL>
1

>  <REMARK>
 VINA RESULT:      -7.7      0.000      0.000
  Name = 
  3 active torsions:
  status: ('A' for Active; 'I' for Inactive)
    1  A    between atoms: C_2  and  C_25
    2  A    between atoms: C_6  and  C_15
    3  A    between atoms: C_15  and  C_25
                            x       y       z     vdW  Elec       q    Type
                         _______ _______ _______ _____ _____    ______ ____

>  <TORSDO>
F 3

$$$$
=
 OpenBabel11052417373D

 25 27  0  0  1  0  0  0  0  0999 V2000
  188.5510  175.5460  144.5870 C   0  0  0  0  0  0  0  0  0  0  0  0
  187.5560  176.4930  144.9050 C   0  0  0  0  0  0  0  0  0  0  0  0
  189.1320  175.3490  146.9300 C   0  0  0  0  0  3  0  0  0  0  0  0
  188.8110  175.2080  143.1490 C   0  0  0  0  0  2  0  0  0  0  0  0
  186.1080  178.2830  143.9050 C   0  0  2  0  0  3  0  0  0  0  0  0
  191.5920  177.7800  143.2520 N   0  0  0  0  0  1  0  0  0  0  0  0
  188.1300  176.2580  147.2560 C   0  0  0  0  0  3  0  0  0  0  0  0
  191.2850  174.1630  144.0990 C   0  0  0  0  0  2  0  0  0  0  0  0
  191.7090  175.5520  143.9680 N   0  0  0  0  0  0  0  0  0  0  0  0
  186.2220  177.7920  146.6780 C   0  0  2  0  0  3  0  0  0  0  0  0
  186.0090  177.7940  148.1180 N   0  0  0  0  0  1  0  0  0  0  0  0
  186.8290  177.0560  143.8400 O   0  0  0  0  0  0  0  0  0  0  0  0
  191.0590  176.4630  143.3030 C   0  0  0  0  0  0  0  0  0  0  0  0
  189.3590  174.9870  145.6040 C   0  0  0  0  0  0  0  0  0  0  0  0
  190.4300  173.9530  145.3530 C   0  0  0  0  0  2  0  0  0  0  0  0
  184.9170  177.4280  145.9860 C   0  0  0  0  0  2  0  0  0  0  0  0
  189.8090  176.1760  142.5020 C   0  0  0  0  0  2  0  0  0  0  0  0
  184.7780  178.1380  144.6450 C   0  0  0  0  0  2  0  0  0  0  0  0
  187.3200  176.8310  146.2670 C   0  0  0  0  0  0  0  0  0  0  0  0
  185.9040  178.8940  142.5140 C   0  0  0  0  0  2  0  0  0  0  0  0
  184.1970  178.3510  140.7140 C   0  0  0  0  0  1  0  0  0  0  0  0
  185.4900  177.9300  141.3920 C   0  0  1  0  0  3  0  0  0  0  0  0
  186.5780  177.6370  140.4080 C   0  0  0  0  0  0  0  0  0  0  0  0
  186.2820  177.0960  139.1620 O   0  0  0  0  0  0  0  0  0  0  0  0
  187.7700  177.9170  140.6980 O   0  0  0  0  0  1  0  0  0  0  0  0
  1  2  2  0  0  0  0
  1 14  1  0  0  0  0
  2 19  1  0  0  0  0
  3  7  1  0  0  0  0
  4  1  1  0  0  0  0
  5 20  1  6  0  0  0
  5 18  1  0  0  0  0
  6 13  1  0  0  0  0
  8 15  1  0  0  0  0
  9  8  1  0  0  0  0
 10 11  1  1  0  0  0
 12  5  1  0  0  0  0
 12  2  1  0  0  0  0
 13  9  2  0  0  0  0
 14  3  2  0  0  0  0
 15 14  1  0  0  0  0
 16 10  1  0  0  0  0
 17  4  1  0  0  0  0
 17 13  1  0  0  0  0
 18 16  1  0  0  0  0
 19 10  1  0  0  0  0
 19  7  2  0  0  0  0
 22 21  1  6  0  0  0
 22 20  1  0  0  0  0
 23 25  1  0  0  0  0
 23 22  1  0  0  0  0
 24 23  2  0  0  0  0
M  END
>  <MODEL>
2

>  <REMARK>
 VINA RESULT:      -7.5      2.380      4.715
  Name = 
  3 active torsions:
  status: ('A' for Active; 'I' for Inactive)
    1  A    between atoms: C_2  and  C_25
    2  A    between atoms: C_6  and  C_15
    3  A    between atoms: C_15  and  C_25
                            x       y       z     vdW  Elec       q    Type
                         _______ _______ _______ _____ _____    ______ ____

>  <TORSDO>
F 3

$$$$
=
 OpenBabel11052417373D

 25 27  0  0  1  0  0  0  0  0999 V2000
  187.1140  178.0480  143.1310 C   0  0  0  0  0  0  0  0  0  0  0  0
  187.0010  177.9360  144.5320 C   0  0  0  0  0  0  0  0  0  0  0  0
  184.7010  178.0100  142.9200 C   0  0  0  0  0  3  0  0  0  0  0  0
  188.4750  178.0540  142.5020 C   0  0  0  0  0  2  0  0  0  0  0  0
  188.2950  177.3480  146.6000 C   0  0  2  0  0  3  0  0  0  0  0  0
  188.0220  174.3330  141.9540 N   0  0  0  0  0  1  0  0  0  0  0  0
  184.5800  177.9330  144.3040 C   0  0  0  0  0  3  0  0  0  0  0  0
  187.0930  177.4250  140.0930 C   0  0  0  0  0  2  0  0  0  0  0  0
  187.2080  176.0630  140.6000 N   0  0  0  0  0  0  0  0  0  0  0  0
  185.5240  177.8570  146.6350 C   0  0  2  0  0  3  0  0  0  0  0  0
  184.1390  178.0860  147.0210 N   0  0  0  0  0  1  0  0  0  0  0  0
  188.1920  177.8660  145.2770 O   0  0  0  0  0  0  0  0  0  0  0  0
  188.0060  175.6990  141.5620 C   0  0  0  0  0  0  0  0  0  0  0  0
  185.9570  178.0630  142.3190 C   0  0  0  0  0  0  0  0  0  0  0  0
  185.9870  178.2020  140.8160 C   0  0  0  0  0  2  0  0  0  0  0  0
  186.4040  178.8960  147.3120 C   0  0  0  0  0  2  0  0  0  0  0  0
  188.9890  176.6360  142.2280 C   0  0  0  0  0  2  0  0  0  0  0  0
  187.7770  178.3290  147.6520 C   0  0  0  0  0  2  0  0  0  0  0  0
  185.7110  177.9100  145.1320 C   0  0  0  0  0  0  0  0  0  0  0  0
  189.7240  176.8950  146.9220 C   0  0  0  0  0  2  0  0  0  0  0  0
  188.9390  174.5410  147.4610 C   0  0  0  0  0  1  0  0  0  0  0  0
  190.0140  175.3910  146.8040 C   0  0  1  0  0  3  0  0  0  0  0  0
  190.3240  174.9380  145.4130 C   0  0  0  0  0  0  0  0  0  0  0  0
  191.2760  175.6000  144.6460 O   0  0  0  0  0  0  0  0  0  0  0  0
  189.7410  173.9250  144.9440 O   0  0  0  0  0  1  0  0  0  0  0  0
  1  2  1  0  0  0  0
  2 19  2  0  0  0  0
  2 12  1  0  0  0  0
  3  7  2  0  0  0  0
  4  1  1  0  0  0  0
  5 20  1  1  0  0  0
  5 18  1  0  0  0  0
  7 19  1  0  0  0  0
  8  9  1  0  0  0  0
  8 15  1  0  0  0  0
  9 13  2  0  0  0  0
 10 11  1  6  0  0  0
 10 16  1  0  0  0  0
 12  5  1  0  0  0  0
 13  6  1  0  0  0  0
 13 17  1  0  0  0  0
 14  3  1  0  0  0  0
 14  1  2  0  0  0  0
 15 14  1  0  0  0  0
 16 18  1  0  0  0  0
 17  4  1  0  0  0  0
 19 10  1  0  0  0  0
 22 20  1  0  0  0  0
 22 21  1  6  0  0  0
 23 22  1  0  0  0  0
 24 23  2  0  0  0  0
 25 23  1  0  0  0  0
M  END
>  <MODEL>
3

>  <REMARK>
 VINA RESULT:      -7.2      2.476      6.150
  Name = 
  3 active torsions:
  status: ('A' for Active; 'I' for Inactive)
    1  A    between atoms: C_2  and  C_25
    2  A    between atoms: C_6  and  C_15
    3  A    between atoms: C_15  and  C_25
                            x       y       z     vdW  Elec       q    Type
                         _______ _______ _______ _____ _____    ______ ____

>  <TORSDO>
F 3

$$$$
=
 OpenBabel11052417373D

 25 27  0  0  1  0  0  0  0  0999 V2000
  185.8850  177.2850  144.9960 C   0  0  0  0  0  0  0  0  0  0  0  0
  186.9500  176.9600  144.1330 C   0  0  0  0  0  0  0  0  0  0  0  0
  185.3920  179.2520  143.6710 C   0  0  0  0  0  3  0  0  0  0  0  0
  185.6350  176.4370  146.2070 C   0  0  0  0  0  2  0  0  0  0  0  0
  189.0330  175.5700  143.9640 C   0  0  2  0  0  3  0  0  0  0  0  0
  187.6970  178.9510  148.1520 N   0  0  0  0  0  1  0  0  0  0  0  0
  186.4210  178.9210  142.7940 C   0  0  0  0  0  3  0  0  0  0  0  0
  184.1200  178.6580  147.1470 C   0  0  0  0  0  2  0  0  0  0  0  0
  185.4260  179.1210  147.5990 N   0  0  0  0  0  0  0  0  0  0  0  0
  188.2910  177.4410  141.9920 C   0  0  2  0  0  3  0  0  0  0  0  0
  188.2030  178.2650  140.7950 N   0  0  0  0  0  1  0  0  0  0  0  0
  187.7150  175.8200  144.4430 O   0  0  0  0  0  0  0  0  0  0  0  0
  186.4860  178.3700  147.6870 C   0  0  0  0  0  0  0  0  0  0  0  0
  185.1150  178.4510  144.7760 C   0  0  0  0  0  0  0  0  0  0  0  0
  183.9450  178.8610  145.6380 C   0  0  0  0  0  2  0  0  0  0  0  0
  188.2070  175.9760  141.5910 C   0  0  0  0  0  2  0  0  0  0  0  0
  186.4790  176.8840  147.4070 C   0  0  0  0  0  2  0  0  0  0  0  0
  189.0450  175.0960  142.5110 C   0  0  0  0  0  2  0  0  0  0  0  0
  187.2030  177.7740  142.9930 C   0  0  0  0  0  0  0  0  0  0  0  0
  189.7880  174.5910  144.8720 C   0  0  0  0  0  2  0  0  0  0  0  0
  191.1580  176.6270  145.5240 C   0  0  0  0  0  1  0  0  0  0  0  0
  190.7640  175.2060  145.8860 C   0  0  1  0  0  3  0  0  0  0  0  0
  190.3190  175.0860  147.3100 C   0  0  0  0  0  0  0  0  0  0  0  0
  189.0830  174.5310  147.6220 O   0  0  0  0  0  0  0  0  0  0  0  0
  191.0850  175.4610  148.2350 O   0  0  0  0  0  1  0  0  0  0  0  0
  1  4  1  0  0  0  0
  2 12  1  0  0  0  0
  2  1  2  0  0  0  0
  3 14  2  0  0  0  0
  4 17  1  0  0  0  0
  5 12  1  0  0  0  0
  5 20  1  1  0  0  0
  7 19  2  0  0  0  0
  7  3  1  0  0  0  0
  8  9  1  0  0  0  0
  9 13  2  0  0  0  0
 10 11  1  6  0  0  0
 10 19  1  0  0  0  0
 13  6  1  0  0  0  0
 14  1  1  0  0  0  0
 14 15  1  0  0  0  0
 15  8  1  0  0  0  0
 16 10  1  0  0  0  0
 16 18  1  0  0  0  0
 17 13  1  0  0  0  0
 18  5  1  0  0  0  0
 19  2  1  0  0  0  0
 20 22  1  0  0  0  0
 22 21  1  6  0  0  0
 22 23  1  0  0  0  0
 23 24  2  0  0  0  0
 23 25  1  0  0  0  0
M  END
>  <MODEL>
4

>  <REMARK>
 VINA RESULT:      -7.2      2.612      5.350
  Name = 
  3 active torsions:
  status: ('A' for Active; 'I' for Inactive)
    1  A    between atoms: C_2  and  C_25
    2  A    between atoms: C_6  and  C_15
    3  A    between atoms: C_15  and  C_25
                            x       y       z     vdW  Elec       q    Type
                         _______ _______ _______ _____ _____    ______ ____

>  <TORSDO>
F 3

$$$$
=
 OpenBabel11052417373D

 25 27  0  0  1  0  0  0  0  0999 V2000
  186.1670  177.2460  145.1630 C   0  0  0  0  0  0  0  0  0  0  0  0
  187.3610  176.9810  144.4620 C   0  0  0  0  0  0  0  0  0  0  0  0
  185.7040  179.1170  143.6960 C   0  0  0  0  0  3  0  0  0  0  0  0
  185.8240  176.4230  146.3690 C   0  0  0  0  0  2  0  0  0  0  0  0
  189.5490  175.7640  144.6300 C   0  0  2  0  0  3  0  0  0  0  0  0
  187.4060  179.1670  148.4480 N   0  0  0  0  0  1  0  0  0  0  0  0
  186.8630  178.8420  142.9770 C   0  0  0  0  0  3  0  0  0  0  0  0
  184.0290  178.5420  147.0000 C   0  0  0  0  0  2  0  0  0  0  0  0
  185.2230  179.1280  147.5970 N   0  0  0  0  0  0  0  0  0  0  0  0
  188.9340  177.4970  142.4940 C   0  0  2  0  0  3  0  0  0  0  0  0
  188.9420  178.2680  141.2590 N   0  0  0  0  0  1  0  0  0  0  0  0
  188.1630  175.9210  144.9210 O   0  0  0  0  0  0  0  0  0  0  0  0
  186.3160  178.4710  147.8560 C   0  0  0  0  0  0  0  0  0  0  0  0
  185.3450  178.3350  144.7910 C   0  0  0  0  0  0  0  0  0  0  0  0
  184.0410  178.6750  145.4730 C   0  0  0  0  0  2  0  0  0  0  0  0
  189.0190  176.0170  142.1530 C   0  0  0  0  0  2  0  0  0  0  0  0
  186.4630  176.9800  147.6470 C   0  0  0  0  0  2  0  0  0  0  0  0
  189.7920  175.2420  143.2140 C   0  0  0  0  0  2  0  0  0  0  0  0
  187.6990  177.7730  143.3280 C   0  0  0  0  0  0  0  0  0  0  0  0
  190.2500  174.8840  145.6720 C   0  0  0  0  0  2  0  0  0  0  0  0
  191.1840  175.5270  147.9440 C   0  0  0  0  0  1  0  0  0  0  0  0
  191.4150  175.5250  146.4430 C   0  0  1  0  0  3  0  0  0  0  0  0
  192.7600  174.9820  146.0760 C   0  0  0  0  0  0  0  0  0  0  0  0
  193.9220  175.6220  146.4920 O   0  0  0  0  0  1  0  0  0  0  0  0
  192.8400  173.9150  145.4140 O   0  0  0  0  0  0  0  0  0  0  0  0
  1  4  1  0  0  0  0
  2 12  1  0  0  0  0
  2  1  2  0  0  0  0
  3 14  2  0  0  0  0
  4 17  1  0  0  0  0
  5 12  1  0  0  0  0
  5 20  1  1  0  0  0
  7 19  2  0  0  0  0
  7  3  1  0  0  0  0
  8  9  1  0  0  0  0
  9 13  2  0  0  0  0
 10 11  1  6  0  0  0
 10 19  1  0  0  0  0
 13  6  1  0  0  0  0
 14  1  1  0  0  0  0
 14 15  1  0  0  0  0
 15  8  1  0  0  0  0
 16 10  1  0  0  0  0
 16 18  1  0  0  0  0
 17 13  1  0  0  0  0
 18  5  1  0  0  0  0
 19  2  1  0  0  0  0
 20 22  1  0  0  0  0
 22 21  1  1  0  0  0
 23 22  1  0  0  0  0
 23 24  1  0  0  0  0
 25 23  2  0  0  0  0
M  END
>  <MODEL>
5

>  <REMARK>
 VINA RESULT:      -6.8      2.894      5.886
  Name = 
  3 active torsions:
  status: ('A' for Active; 'I' for Inactive)
    1  A    between atoms: C_2  and  C_25
    2  A    between atoms: C_6  and  C_15
    3  A    between atoms: C_15  and  C_25
                            x       y       z     vdW  Elec       q    Type
                         _______ _______ _______ _____ _____    ______ ____

>  <TORSDO>
F 3

$$$$
=
 OpenBabel11052417373D

 25 27  0  0  1  0  0  0  0  0999 V2000
  188.9720  177.0570  144.5100 C   0  0  0  0  0  0  0  0  0  0  0  0
  190.2000  176.5780  145.0080 C   0  0  0  0  0  0  0  0  0  0  0  0
  187.8370  176.2570  146.4940 C   0  0  0  0  0  3  0  0  0  0  0  0
  188.9250  177.6770  143.1440 C   0  0  0  0  0  2  0  0  0  0  0  0
  192.5380  175.9780  144.3210 C   0  0  2  0  0  3  0  0  0  0  0  0
  187.8750  174.2730  141.8520 N   0  0  0  0  0  1  0  0  0  0  0  0
  189.0500  175.8100  147.0090 C   0  0  0  0  0  3  0  0  0  0  0  0
  186.1180  177.2210  143.3050 C   0  0  0  0  0  2  0  0  0  0  0  0
  186.4910  175.8980  142.8180 N   0  0  0  0  0  0  0  0  0  0  0  0
  191.5440  175.4950  146.9140 C   0  0  2  0  0  3  0  0  0  0  0  0
  191.3830  175.1410  148.3170 N   0  0  0  0  0  1  0  0  0  0  0  0
  191.3380  176.7360  144.1970 O   0  0  0  0  0  0  0  0  0  0  0  0
  187.6460  175.6050  142.2940 C   0  0  0  0  0  0  0  0  0  0  0  0
  187.7800  176.8760  145.2480 C   0  0  0  0  0  0  0  0  0  0  0  0
  186.4280  177.3780  144.7980 C   0  0  0  0  0  2  0  0  0  0  0  0
  192.6110  176.5730  146.7960 C   0  0  0  0  0  2  0  0  0  0  0  0
  188.7320  176.6270  142.0430 C   0  0  0  0  0  2  0  0  0  0  0  0
  193.3990  176.4400  145.4980 C   0  0  0  0  0  2  0  0  0  0  0  0
  190.2460  175.9710  146.2950 C   0  0  0  0  0  0  0  0  0  0  0  0
  193.3430  175.9730  143.0160 C   0  0  0  0  0  2  0  0  0  0  0  0
  194.9670  174.0910  142.4980 C   0  0  0  0  0  1  0  0  0  0  0  0
  194.7930  175.4730  143.1030 C   0  0  1  0  0  3  0  0  0  0  0  0
  195.8050  176.4490  142.5890 C   0  0  0  0  0  0  0  0  0  0  0  0
  195.7720  176.8760  141.2660 O   0  0  0  0  0  0  0  0  0  0  0  0
  196.6740  176.9140  143.3720 O   0  0  0  0  0  1  0  0  0  0  0  0
  1  2  2  0  0  0  0
  1 14  1  0  0  0  0
  2 19  1  0  0  0  0
  3  7  1  0  0  0  0
  4  1  1  0  0  0  0
  5 20  1  6  0  0  0
  5 18  1  0  0  0  0
  6 13  1  0  0  0  0
  8 15  1  0  0  0  0
  9  8  1  0  0  0  0
 10 11  1  1  0  0  0
 12  5  1  0  0  0  0
 12  2  1  0  0  0  0
 13  9  2  0  0  0  0
 14  3  2  0  0  0  0
 15 14  1  0  0  0  0
 16 10  1  0  0  0  0
 17 13  1  0  0  0  0
 17  4  1  0  0  0  0
 18 16  1  0  0  0  0
 19 10  1  0  0  0  0
 19  7  2  0  0  0  0
 20 22  1  0  0  0  0
 22 21  1  6  0  0  0
 23 22  1  0  0  0  0
 23 25  1  0  0  0  0
 24 23  2  0  0  0  0
M  END
>  <MODEL>
6

>  <REMARK>
 VINA RESULT:      -6.8      3.142      7.303
  Name = 
  3 active torsions:
  status: ('A' for Active; 'I' for Inactive)
    1  A    between atoms: C_2  and  C_25
    2  A    between atoms: C_6  and  C_15
    3  A    between atoms: C_15  and  C_25
                            x       y       z     vdW  Elec       q    Type
                         _______ _______ _______ _____ _____    ______ ____

>  <TORSDO>
F 3

$$$$
=
 OpenBabel11052417373D

 25 27  0  0  1  0  0  0  0  0999 V2000
  187.8090  177.8600  143.4320 C   0  0  0  0  0  0  0  0  0  0  0  0
  188.0380  177.6430  144.8060 C   0  0  0  0  0  0  0  0  0  0  0  0
  185.4180  177.8600  143.8160 C   0  0  0  0  0  3  0  0  0  0  0  0
  188.9750  177.9010  142.4900 C   0  0  0  0  0  2  0  0  0  0  0  0
  189.7800  176.8870  146.4460 C   0  0  2  0  0  3  0  0  0  0  0  0
  188.3000  174.2360  141.8060 N   0  0  0  0  0  1  0  0  0  0  0  0
  185.6350  177.6790  145.1790 C   0  0  0  0  0  3  0  0  0  0  0  0
  187.0300  177.4690  140.4550 C   0  0  0  0  0  2  0  0  0  0  0  0
  187.2280  176.0710  140.8200 N   0  0  0  0  0  0  0  0  0  0  0  0
  187.1160  177.4180  147.1950 C   0  0  2  0  0  3  0  0  0  0  0  0
  185.8740  177.6310  147.9250 N   0  0  0  0  0  1  0  0  0  0  0  0
  189.3730  177.5050  145.2290 O   0  0  0  0  0  0  0  0  0  0  0  0
  188.2260  175.6280  141.5280 C   0  0  0  0  0  0  0  0  0  0  0  0
  186.4900  177.9470  142.9310 C   0  0  0  0  0  0  0  0  0  0  0  0
  186.1560  178.1990  141.4800 C   0  0  0  0  0  2  0  0  0  0  0  0
  188.1630  178.3940  147.7090 C   0  0  0  0  0  2  0  0  0  0  0  0
  189.3670  176.5020  141.9980 C   0  0  0  0  0  2  0  0  0  0  0  0
  189.5620  177.7900  147.6600 C   0  0  0  0  0  2  0  0  0  0  0  0
  186.9330  177.5830  145.7000 C   0  0  0  0  0  0  0  0  0  0  0  0
  191.2320  176.3980  146.3740 C   0  0  0  0  0  2  0  0  0  0  0  0
  193.1960  176.8720  144.8350 C   0  0  0  0  0  1  0  0  0  0  0  0
  191.8300  176.2200  144.9700 C   0  0  1  0  0  3  0  0  0  0  0  0
  191.8250  174.8070  144.4800 C   0  0  0  0  0  0  0  0  0  0  0  0
  193.0180  174.1380  144.2300 O   0  0  0  0  0  0  0  0  0  0  0  0
  190.7300  174.2060  144.3270 O   0  0  0  0  0  1  0  0  0  0  0  0
  1  2  1  0  0  0  0
  2 12  1  0  0  0  0
  2 19  2  0  0  0  0
  3  7  2  0  0  0  0
  4  1  1  0  0  0  0
  5 20  1  6  0  0  0
  5 18  1  0  0  0  0
  7 19  1  0  0  0  0
  8  9  1  0  0  0  0
  8 15  1  0  0  0  0
  9 13  2  0  0  0  0
 10 16  1  0  0  0  0
 10 11  1  1  0  0  0
 12  5  1  0  0  0  0
 13  6  1  0  0  0  0
 13 17  1  0  0  0  0
 14  1  2  0  0  0  0
 14  3  1  0  0  0  0
 15 14  1  0  0  0  0
 17  4  1  0  0  0  0
 18 16  1  0  0  0  0
 19 10  1  0  0  0  0
 22 21  1  1  0  0  0
 22 20  1  0  0  0  0
 23 22  1  0  0  0  0
 24 23  2  0  0  0  0
 25 23  1  0  0  0  0
M  END
>  <MODEL>
7

>  <REMARK>
 VINA RESULT:      -6.5      2.390      6.401
  Name = 
  3 active torsions:
  status: ('A' for Active; 'I' for Inactive)
    1  A    between atoms: C_2  and  C_25
    2  A    between atoms: C_6  and  C_15
    3  A    between atoms: C_15  and  C_25
                            x       y       z     vdW  Elec       q    Type
                         _______ _______ _______ _____ _____    ______ ____

>  <TORSDO>
F 3

$$$$
=
 OpenBabel11052417373D

 25 27  0  0  1  0  0  0  0  0999 V2000
  190.2940  174.0100  142.9580 C   0  0  0  0  0  0  0  0  0  0  0  0
  190.6210  174.7650  144.1020 C   0  0  0  0  0  0  0  0  0  0  0  0
  192.3840  174.6540  141.9180 C   0  0  0  0  0  3  0  0  0  0  0  0
  188.9620  173.3240  142.8850 C   0  0  0  0  0  2  0  0  0  0  0  0
  189.6290  175.8110  146.1570 C   0  0  2  0  0  3  0  0  0  0  0  0
  187.7250  176.3550  140.9770 N   0  0  0  0  0  1  0  0  0  0  0  0
  192.7300  175.3750  143.0560 C   0  0  0  0  0  3  0  0  0  0  0  0
  189.4640  173.1810  140.0860 C   0  0  0  0  0  2  0  0  0  0  0  0
  188.9000  174.5260  140.1030 N   0  0  0  0  0  0  0  0  0  0  0  0
  192.3130  176.2070  145.3940 C   0  0  2  0  0  3  0  0  0  0  0  0
  193.7150  176.5920  145.3260 N   0  0  0  0  0  1  0  0  0  0  0  0
  189.6760  174.8100  145.1440 O   0  0  0  0  0  0  0  0  0  0  0  0
  188.2260  175.0300  141.0960 C   0  0  0  0  0  0  0  0  0  0  0  0
  191.1710  173.9720  141.8500 C   0  0  0  0  0  0  0  0  0  0  0  0
  190.9090  173.1730  140.5960 C   0  0  0  0  0  2  0  0  0  0  0  0
  192.0890  175.3760  146.6470 C   0  0  0  0  0  2  0  0  0  0  0  0
  187.8670  174.2500  142.3410 C   0  0  0  0  0  2  0  0  0  0  0  0
  190.6990  175.6050  147.2290 C   0  0  0  0  0  2  0  0  0  0  0  0
  191.8750  175.4340  144.1660 C   0  0  0  0  0  0  0  0  0  0  0  0
  188.2330  175.9180  146.7820 C   0  0  0  0  0  2  0  0  0  0  0  0
  187.3640  177.4340  144.9390 C   0  0  0  0  0  1  0  0  0  0  0  0
  187.4180  177.1740  146.4340 C   0  0  1  0  0  3  0  0  0  0  0  0
  186.0630  177.2140  147.0670 C   0  0  0  0  0  0  0  0  0  0  0  0
  184.9740  176.6030  146.4540 O   0  0  0  0  0  0  0  0  0  0  0  0
  185.9130  177.7770  148.1820 O   0  0  0  0  0  1  0  0  0  0  0  0
  1  2  1  0  0  0  0
  2 19  2  0  0  0  0
  2 12  1  0  0  0  0
  3  7  2  0  0  0  0
  4  1  1  0  0  0  0
  5 20  1  1  0  0  0
  5 18  1  0  0  0  0
  6 13  1  0  0  0  0
  7 19  1  0  0  0  0
  8  9  1  0  0  0  0
  8 15  1  0  0  0  0
  9 13  2  0  0  0  0
 10 11  1  6  0  0  0
 10 16  1  0  0  0  0
 12  5  1  0  0  0  0
 13 17  1  0  0  0  0
 14  3  1  0  0  0  0
 14  1  2  0  0  0  0
 15 14  1  0  0  0  0
 16 18  1  0  0  0  0
 17  4  1  0  0  0  0
 19 10  1  0  0  0  0
 22 21  1  6  0  0  0
 22 20  1  0  0  0  0
 22 23  1  0  0  0  0
 23 25  1  0  0  0  0
 24 23  2  0  0  0  0
M  END
>  <MODEL>
8

>  <REMARK>
 VINA RESULT:      -6.5      2.202      4.965
  Name = 
  3 active torsions:
  status: ('A' for Active; 'I' for Inactive)
    1  A    between atoms: C_2  and  C_25
    2  A    between atoms: C_6  and  C_15
    3  A    between atoms: C_15  and  C_25
                            x       y       z     vdW  Elec       q    Type
                         _______ _______ _______ _____ _____    ______ ____

>  <TORSDO>
F 3

$$$$
=
 OpenBabel11052417373D

 25 27  0  0  1  0  0  0  0  0999 V2000
  189.9360  173.9670  142.7980 C   0  0  0  0  0  0  0  0  0  0  0  0
  189.6240  175.2600  143.2660 C   0  0  0  0  0  0  0  0  0  0  0  0
  192.1630  174.7060  142.1990 C   0  0  0  0  0  3  0  0  0  0  0  0
  188.8750  172.9070  142.8070 C   0  0  0  0  0  2  0  0  0  0  0  0
  187.7030  176.7570  143.8710 C   0  0  2  0  0  3  0  0  0  0  0  0
  188.2060  173.8230  139.1920 N   0  0  0  0  0  1  0  0  0  0  0  0
  191.8760  175.9760  142.6890 C   0  0  0  0  0  3  0  0  0  0  0  0
  190.5670  171.5470  140.9630 C   0  0  0  0  0  2  0  0  0  0  0  0
  189.8780  172.3900  139.9930 N   0  0  0  0  0  0  0  0  0  0  0  0
  190.3690  177.6640  143.7890 C   0  0  2  0  0  3  0  0  0  0  0  0
  191.5940  178.4460  143.8810 N   0  0  0  0  0  1  0  0  0  0  0  0
  188.3220  175.4790  143.7530 O   0  0  0  0  0  0  0  0  0  0  0  0
  188.7770  173.0410  140.2340 C   0  0  0  0  0  0  0  0  0  0  0  0
  191.2070  173.6950  142.2410 C   0  0  0  0  0  0  0  0  0  0  0  0
  191.6300  172.3360  141.7370 C   0  0  0  0  0  2  0  0  0  0  0  0
  189.7330  177.5790  145.1680 C   0  0  0  0  0  2  0  0  0  0  0  0
  188.0160  172.9410  141.5370 C   0  0  0  0  0  2  0  0  0  0  0  0
  188.2120  177.5410  145.0800 C   0  0  0  0  0  2  0  0  0  0  0  0
  190.6220  176.2750  143.2410 C   0  0  0  0  0  0  0  0  0  0  0  0
  186.1740  176.6450  143.8880 C   0  0  0  0  0  2  0  0  0  0  0  0
  184.3930  178.3470  143.2720 C   0  0  0  0  0  1  0  0  0  0  0  0
  185.3960  177.8970  144.3200 C   0  0  1  0  0  3  0  0  0  0  0  0
  184.7860  177.7950  145.6820 C   0  0  0  0  0  0  0  0  0  0  0  0
  185.0820  176.7210  146.5140 O   0  0  0  0  0  1  0  0  0  0  0  0
  184.0240  178.7080  146.0930 O   0  0  0  0  0  0  0  0  0  0  0  0
  1  4  1  0  0  0  0
  1  2  1  0  0  0  0
  2 12  1  0  0  0  0
  3 14  1  0  0  0  0
  3  7  2  0  0  0  0
  5 20  1  1  0  0  0
  5 18  1  0  0  0  0
  6 13  1  0  0  0  0
  7 19  1  0  0  0  0
  8 15  1  0  0  0  0
  9 13  2  0  0  0  0
  9  8  1  0  0  0  0
 10 11  1  1  0  0  0
 10 16  1  0  0  0  0
 12  5  1  0  0  0  0
 13 17  1  0  0  0  0
 14  1  2  0  0  0  0
 15 14  1  0  0  0  0
 17  4  1  0  0  0  0
 18 16  1  0  0  0  0
 19  2  2  0  0  0  0
 19 10  1  0  0  0  0
 20 22  1  0  0  0  0
 22 21  1  6  0  0  0
 22 23  1  0  0  0  0
 23 25  2  0  0  0  0
 23 24  1  0  0  0  0
M  END
>  <MODEL>
9

>  <REMARK>
 VINA RESULT:      -6.4      2.280      4.423
  Name = 
  3 active torsions:
  status: ('A' for Active; 'I' for Inactive)
    1  A    between atoms: C_2  and  C_25
    2  A    between atoms: C_6  and  C_15
    3  A    between atoms: C_15  and  C_25
                            x       y       z     vdW  Elec       q    Type
                         _______ _______ _______ _____ _____    ______ ____

>  <TORSDO>
F 3

$$$$
