=
 OpenBabel11052421263D

 32 36  0  0  1  0  0  0  0  0999 V2000
  193.4440  173.4460  143.9210 C   0  0  0  0  0  2  0  0  0  0  0  0
  189.2560  176.5170  142.3310 C   0  0  0  0  0  2  0  0  0  0  0  0
  190.7680  175.3200  147.2150 C   0  0  0  0  0  3  0  0  0  0  0  0
  189.3910  175.1500  147.2960 C   0  0  0  0  0  3  0  0  0  0  0  0
  186.9160  177.4640  142.1640 C   0  0  0  0  0  0  0  0  0  0  0  0
  185.7420  177.9590  142.8800 C   0  0  0  0  0  0  0  0  0  0  0  0
  190.7790  174.6120  142.4790 C   0  0  1  0  0  3  0  0  0  0  0  0
  192.0320  176.6350  142.9520 C   0  0  0  0  0  2  0  0  0  0  0  0
  184.4200  178.5130  144.5410 C   0  0  0  0  0  0  0  0  0  0  0  0
  193.1240  174.6170  142.9950 C   0  0  0  0  0  2  0  0  0  0  0  0
  191.3060  176.1430  146.2290 C   0  0  0  0  0  3  0  0  0  0  0  0
  191.3300  177.8790  144.1380 S   0  0  0  0  0  0  0  0  0  0  0  0
  190.4840  176.7930  145.3000 C   0  0  0  0  0  0  0  0  0  0  0  0
  188.0520  177.2850  144.4730 C   0  0  0  0  0  0  0  0  0  0  0  0
  183.6240  178.6180  143.3650 N   0  0  0  0  0  0  0  0  0  0  0  0
  191.6910  172.3580  142.6860 O   0  0  0  0  0  0  0  0  0  0  0  0
  191.8390  175.2280  143.3280 N   0  0  2  0  0  0  0  0  0  0  0  0
  184.4020  178.2880  142.3770 C   0  0  0  0  0  3  0  0  0  0  0  0
  190.5440  173.1400  142.8540 C   0  0  0  0  0  2  0  0  0  0  0  0
  192.3290  172.4070  143.9300 C   0  0  1  0  0  3  0  0  0  0  0  0
  188.5540  175.8070  146.3960 C   0  0  0  0  0  3  0  0  0  0  0  0
  189.0640  176.6460  145.3850 C   0  0  0  0  0  0  0  0  0  0  0  0
  186.8850  177.6830  145.0270 C   0  0  0  0  0  3  0  0  0  0  0  0
  189.4710  175.2790  142.7590 C   0  0  0  0  0  2  0  0  0  0  0  0
  186.8620  177.2020  140.9320 O   0  0  0  0  0  0  0  0  0  0  0  0
  183.9940  178.7280  145.7050 O   0  0  0  0  0  0  0  0  0  0  0  0
  188.2130  177.3930  142.9380 C   0  0  1  0  0  3  0  0  0  0  0  0
  185.7580  178.1080  144.1840 C   0  0  0  0  0  0  0  0  0  0  0  0
  192.8990  171.0460  144.2880 C   0  0  0  0  0  2  0  0  0  0  0  0
  194.3310  171.2260  145.3990 S   0  0  0  0  0  0  0  0  0  0  0  0
  194.9420  169.1270  147.0420 C   0  0  0  0  0  1  0  0  0  0  0  0
  194.5340  169.4320  145.6150 C   0  0  0  0  0  2  0  0  0  0  0  0
  1 20  1  0  0  0  0
  2 24  1  0  0  0  0
  3  4  1  0  0  0  0
  5  6  1  0  0  0  0
  5 27  1  0  0  0  0
  6 28  2  0  0  0  0
  7 24  1  1  0  0  0
  7 19  1  0  0  0  0
  7 17  1  0  0  0  0
  8 12  1  0  0  0  0
  9 26  2  0  0  0  0
 10 17  1  0  0  0  0
 10  1  1  0  0  0  0
 11  3  2  0  0  0  0
 12 13  1  0  0  0  0
 13 22  2  0  0  0  0
 13 11  1  0  0  0  0
 14 23  2  0  0  0  0
 14 22  1  0  0  0  0
 15  9  1  0  0  0  0
 16 19  1  0  0  0  0
 16 20  1  0  0  0  0
 17  8  1  6  0  0  0
 18  6  1  0  0  0  0
 18 15  2  0  0  0  0
 20 29  1  6  0  0  0
 21  4  2  0  0  0  0
 22 21  1  0  0  0  0
 25  5  2  0  0  0  0
 27  2  1  6  0  0  0
 27 14  1  0  0  0  0
 28  9  1  0  0  0  0
 28 23  1  0  0  0  0
 29 30  1  0  0  0  0
 30 32  1  0  0  0  0
 32 31  1  0  0  0  0
M  END
>  <MODEL>
1

>  <REMARK>
 VINA RESULT:      -8.7      0.000      0.000
  Name = 
  3 active torsions:
  status: ('A' for Active; 'I' for Inactive)
    1  A    between atoms: S_1  and  C_10
    2  A    between atoms: S_1  and  C_20
    3  A    between atoms: C_10  and  C_24
                            x       y       z     vdW  Elec       q    Type
                         _______ _______ _______ _____ _____    ______ ____

>  <TORSDO>
F 3

$$$$
=
 OpenBabel11052421263D

 32 36  0  0  1  0  0  0  0  0999 V2000
  186.7690  176.4090  143.7940 C   0  0  0  0  0  2  0  0  0  0  0  0
  191.8630  174.9480  142.6100 C   0  0  0  0  0  2  0  0  0  0  0  0
  189.4550  174.9320  147.2750 C   0  0  0  0  0  3  0  0  0  0  0  0
  190.6910  175.4800  147.5980 C   0  0  0  0  0  3  0  0  0  0  0  0
  194.3830  174.7550  142.7340 C   0  0  0  0  0  0  0  0  0  0  0  0
  195.5530  174.5210  143.5780 C   0  0  0  0  0  0  0  0  0  0  0  0
  189.8220  176.2880  142.6980 C   0  0  1  0  0  3  0  0  0  0  0  0
  189.2040  173.9420  142.7520 C   0  0  0  0  0  2  0  0  0  0  0  0
  196.7620  174.1390  145.3690 C   0  0  0  0  0  0  0  0  0  0  0  0
  187.5480  175.5290  142.8200 C   0  0  0  0  0  2  0  0  0  0  0  0
  189.3250  174.1410  146.1370 C   0  0  0  0  0  3  0  0  0  0  0  0
  190.1000  172.7960  143.9060 S   0  0  0  0  0  0  0  0  0  0  0  0
  190.4180  173.8990  145.2940 C   0  0  0  0  0  0  0  0  0  0  0  0
  192.9660  174.2590  144.8310 C   0  0  0  0  0  0  0  0  0  0  0  0
  197.6920  174.4420  144.3350 N   0  0  0  0  0  0  0  0  0  0  0  0
  188.2420  178.1260  142.9780 O   0  0  0  0  0  0  0  0  0  0  0  0
  188.9060  175.2750  143.2950 N   0  0  2  0  0  0  0  0  0  0  0  0
  196.9810  174.6710  143.2720 C   0  0  0  0  0  3  0  0  0  0  0  0
  189.5430  177.6940  143.2520 C   0  0  0  0  0  2  0  0  0  0  0  0
  187.4990  177.7140  144.0900 C   0  0  1  0  0  3  0  0  0  0  0  0
  191.7960  175.2310  146.7860 C   0  0  0  0  0  3  0  0  0  0  0  0
  191.7000  174.4370  145.6260 C   0  0  0  0  0  0  0  0  0  0  0  0
  194.1190  174.1390  145.5260 C   0  0  0  0  0  3  0  0  0  0  0  0
  191.2260  175.9950  143.1200 C   0  0  0  0  0  2  0  0  0  0  0  0
  194.5080  175.1970  141.5600 O   0  0  0  0  0  0  0  0  0  0  0  0
  197.0830  173.8890  146.5600 O   0  0  0  0  0  0  0  0  0  0  0  0
  193.0410  174.3330  143.2880 C   0  0  1  0  0  3  0  0  0  0  0  0
  195.4200  174.1870  144.8410 C   0  0  0  0  0  0  0  0  0  0  0  0
  186.4970  178.7840  144.4850 C   0  0  0  0  0  2  0  0  0  0  0  0
  184.8180  178.3100  143.9630 S   0  0  0  0  0  0  0  0  0  0  0  0
  184.7270  177.9340  146.6700 C   0  0  0  0  0  1  0  0  0  0  0  0
  184.0750  178.7400  145.5660 C   0  0  0  0  0  2  0  0  0  0  0  0
  1 20  1  0  0  0  0
  2 24  1  0  0  0  0
  3  4  1  0  0  0  0
  5 27  1  0  0  0  0
  5  6  1  0  0  0  0
  6 28  2  0  0  0  0
  7 24  1  1  0  0  0
  7 19  1  0  0  0  0
  7 17  1  0  0  0  0
  8 12  1  0  0  0  0
  9 26  2  0  0  0  0
 10 17  1  0  0  0  0
 10  1  1  0  0  0  0
 11  3  2  0  0  0  0
 12 13  1  0  0  0  0
 13 22  2  0  0  0  0
 13 11  1  0  0  0  0
 14 23  2  0  0  0  0
 14 22  1  0  0  0  0
 15  9  1  0  0  0  0
 16 19  1  0  0  0  0
 16 20  1  0  0  0  0
 17  8  1  6  0  0  0
 18  6  1  0  0  0  0
 18 15  2  0  0  0  0
 20 29  1  6  0  0  0
 21  4  2  0  0  0  0
 22 21  1  0  0  0  0
 25  5  2  0  0  0  0
 27  2  1  1  0  0  0
 27 14  1  0  0  0  0
 28  9  1  0  0  0  0
 28 23  1  0  0  0  0
 30 29  1  0  0  0  0
 30 32  1  0  0  0  0
 32 31  1  0  0  0  0
M  END
>  <MODEL>
2

>  <REMARK>
 VINA RESULT:      -8.6      2.855      8.231
  Name = 
  3 active torsions:
  status: ('A' for Active; 'I' for Inactive)
    1  A    between atoms: S_1  and  C_10
    2  A    between atoms: S_1  and  C_20
    3  A    between atoms: C_10  and  C_24
                            x       y       z     vdW  Elec       q    Type
                         _______ _______ _______ _____ _____    ______ ____

>  <TORSDO>
F 3

$$$$
=
 OpenBabel11052421263D

 32 36  0  0  1  0  0  0  0  0999 V2000
  188.5570  177.5520  144.9780 C   0  0  0  0  0  2  0  0  0  0  0  0
  193.5170  175.3450  145.1320 C   0  0  0  0  0  2  0  0  0  0  0  0
  189.0470  173.2280  143.3700 C   0  0  0  0  0  3  0  0  0  0  0  0
  189.5880  172.1770  144.1020 C   0  0  0  0  0  3  0  0  0  0  0  0
  195.3790  173.6780  145.5270 C   0  0  0  0  0  0  0  0  0  0  0  0
  195.8380  172.2980  145.3790 C   0  0  0  0  0  0  0  0  0  0  0  0
  191.4930  176.4960  145.8740 C   0  0  1  0  0  3  0  0  0  0  0  0
  191.8110  176.9490  143.5110 C   0  0  0  0  0  2  0  0  0  0  0  0
  195.8320  170.1650  144.8640 C   0  0  0  0  0  0  0  0  0  0  0  0
  189.9990  177.8620  144.5840 C   0  0  0  0  0  2  0  0  0  0  0  0
  189.8800  174.2310  142.8810 C   0  0  0  0  0  3  0  0  0  0  0  0
  192.2030  175.5420  142.3640 S   0  0  0  0  0  0  0  0  0  0  0  0
  191.2580  174.2130  143.1290 C   0  0  0  0  0  0  0  0  0  0  0  0
  193.2890  172.9580  144.1960 C   0  0  0  0  0  0  0  0  0  0  0  0
  197.0140  170.3720  145.6310 N   0  0  0  0  0  0  0  0  0  0  0  0
  189.5280  177.1840  147.1470 O   0  0  0  0  0  0  0  0  0  0  0  0
  190.8190  176.6520  144.5530 N   0  0  2  0  0  0  0  0  0  0  0  0
  197.0210  171.6350  145.9400 C   0  0  0  0  0  3  0  0  0  0  0  0
  190.4830  176.1750  146.9870 C   0  0  0  0  0  2  0  0  0  0  0  0
  188.4780  176.8040  146.3040 C   0  0  1  0  0  3  0  0  0  0  0  0
  190.9600  172.1270  144.3380 C   0  0  0  0  0  3  0  0  0  0  0  0
  191.8320  173.1260  143.8600 C   0  0  0  0  0  0  0  0  0  0  0  0
  193.7840  171.7000  144.1880 C   0  0  0  0  0  3  0  0  0  0  0  0
  192.3900  175.3010  145.8320 C   0  0  0  0  0  2  0  0  0  0  0  0
  195.9960  174.4920  146.2650 O   0  0  0  0  0  0  0  0  0  0  0  0
  195.4690  169.0490  144.4100 O   0  0  0  0  0  0  0  0  0  0  0  0
  194.2090  174.1080  144.6690 C   0  0  1  0  0  3  0  0  0  0  0  0
  195.1260  171.4150  144.7180 C   0  0  0  0  0  0  0  0  0  0  0  0
  187.1400  177.0750  146.9670 C   0  0  0  0  0  2  0  0  0  0  0  0
  185.7810  176.8630  145.7730 S   0  0  0  0  0  0  0  0  0  0  0  0
  185.6580  179.1330  147.2930 C   0  0  0  0  0  1  0  0  0  0  0  0
  184.7740  178.1850  146.5100 C   0  0  0  0  0  2  0  0  0  0  0  0
  1 20  1  0  0  0  0
  2 24  1  0  0  0  0
  3  4  1  0  0  0  0
  4 21  2  0  0  0  0
  5 25  2  0  0  0  0
  6  5  1  0  0  0  0
  6 18  1  0  0  0  0
  7 24  1  6  0  0  0
  7 19  1  0  0  0  0
  9 15  1  0  0  0  0
 10  1  1  0  0  0  0
 11 13  1  0  0  0  0
 11  3  2  0  0  0  0
 12 13  1  0  0  0  0
 12  8  1  0  0  0  0
 13 22  2  0  0  0  0
 14 27  1  0  0  0  0
 15 18  2  0  0  0  0
 17  8  1  6  0  0  0
 17 10  1  0  0  0  0
 17  7  1  0  0  0  0
 19 16  1  0  0  0  0
 20 29  1  1  0  0  0
 20 16  1  0  0  0  0
 22 14  1  0  0  0  0
 22 21  1  0  0  0  0
 23 14  2  0  0  0  0
 23 28  1  0  0  0  0
 26  9  2  0  0  0  0
 27  2  1  1  0  0  0
 27  5  1  0  0  0  0
 28  9  1  0  0  0  0
 28  6  2  0  0  0  0
 30 32  1  0  0  0  0
 30 29  1  0  0  0  0
 32 31  1  0  0  0  0
M  END
>  <MODEL>
3

>  <REMARK>
 VINA RESULT:      -7.7      3.080      8.796
  Name = 
  3 active torsions:
  status: ('A' for Active; 'I' for Inactive)
    1  A    between atoms: S_1  and  C_10
    2  A    between atoms: S_1  and  C_20
    3  A    between atoms: C_10  and  C_24
                            x       y       z     vdW  Elec       q    Type
                         _______ _______ _______ _____ _____    ______ ____

>  <TORSDO>
F 3

$$$$
=
 OpenBabel11052421263D

 32 36  0  0  1  0  0  0  0  0999 V2000
  193.7430  173.7670  141.6770 C   0  0  0  0  0  2  0  0  0  0  0  0
  190.6630  175.8250  145.6470 C   0  0  0  0  0  2  0  0  0  0  0  0
  189.1750  174.0700  140.9280 C   0  0  0  0  0  3  0  0  0  0  0  0
  188.4390  175.2450  141.0360 C   0  0  0  0  0  3  0  0  0  0  0  0
  188.9210  177.2190  146.8410 C   0  0  0  0  0  0  0  0  0  0  0  0
  187.5440  177.7100  146.8530 C   0  0  0  0  0  0  0  0  0  0  0  0
  192.4810  175.6140  144.0290 C   0  0  1  0  0  3  0  0  0  0  0  0
  191.7870  173.3870  144.6980 C   0  0  0  0  0  2  0  0  0  0  0  0
  185.4710  178.0560  146.2230 C   0  0  0  0  0  0  0  0  0  0  0  0
  193.4870  173.6100  143.1730 C   0  0  0  0  0  2  0  0  0  0  0  0
  189.6320  173.4320  142.0770 C   0  0  0  0  0  3  0  0  0  0  0  0
  189.9760  172.9760  144.7340 S   0  0  0  0  0  0  0  0  0  0  0  0
  189.3810  173.9610  143.3490 C   0  0  0  0  0  0  0  0  0  0  0  0
  188.2430  175.8400  144.7680 C   0  0  0  0  0  0  0  0  0  0  0  0
  185.6860  178.9240  147.3310 N   0  0  0  0  0  0  0  0  0  0  0  0
  194.1090  176.0690  142.2690 O   0  0  0  0  0  0  0  0  0  0  0  0
  192.2200  174.2200  143.5680 N   0  0  2  0  0  0  0  0  0  0  0  0
  186.9140  178.7250  147.7070 C   0  0  0  0  0  3  0  0  0  0  0  0
  192.9270  176.5160  142.8670 C   0  0  0  0  0  2  0  0  0  0  0  0
  193.6780  175.2260  141.2390 C   0  0  1  0  0  3  0  0  0  0  0  0
  188.1580  175.7760  142.2940 C   0  0  0  0  0  3  0  0  0  0  0  0
  188.6060  175.1570  143.4780 C   0  0  0  0  0  0  0  0  0  0  0  0
  187.0240  176.4190  144.8390 C   0  0  0  0  0  3  0  0  0  0  0  0
  191.2020  176.2260  144.5020 C   0  0  0  0  0  2  0  0  0  0  0  0
  189.7910  177.7080  147.6090 O   0  0  0  0  0  0  0  0  0  0  0  0
  184.3960  177.9920  145.5710 O   0  0  0  0  0  0  0  0  0  0  0  0
  189.2170  176.0300  145.9550 C   0  0  1  0  0  3  0  0  0  0  0  0
  186.6700  177.2960  145.9650 C   0  0  0  0  0  0  0  0  0  0  0  0
  194.5290  175.4280  139.9980 C   0  0  0  0  0  2  0  0  0  0  0  0
  195.9760  174.3210  140.0300 S   0  0  0  0  0  0  0  0  0  0  0  0
  197.6130  175.5590  141.8370 C   0  0  0  0  0  1  0  0  0  0  0  0
  197.1410  175.6660  140.4020 C   0  0  0  0  0  2  0  0  0  0  0  0
  1 10  1  0  0  0  0
  3  4  2  0  0  0  0
  3 11  1  0  0  0  0
  4 21  1  0  0  0  0
  5  6  1  0  0  0  0
  5 25  2  0  0  0  0
  6 18  1  0  0  0  0
  7 19  1  6  0  0  0
  7 24  1  0  0  0  0
  8 12  1  0  0  0  0
  9 15  1  0  0  0  0
 11 13  2  0  0  0  0
 13 22  1  0  0  0  0
 13 12  1  0  0  0  0
 14 23  2  0  0  0  0
 14 27  1  0  0  0  0
 15 18  2  0  0  0  0
 16 19  1  0  0  0  0
 17 10  1  1  0  0  0
 17  7  1  0  0  0  0
 17  8  1  0  0  0  0
 20 29  1  6  0  0  0
 20  1  1  0  0  0  0
 20 16  1  0  0  0  0
 21 22  2  0  0  0  0
 22 14  1  0  0  0  0
 23 28  1  0  0  0  0
 24  2  1  0  0  0  0
 26  9  2  0  0  0  0
 27  2  1  6  0  0  0
 27  5  1  0  0  0  0
 28  9  1  0  0  0  0
 28  6  2  0  0  0  0
 29 30  1  0  0  0  0
 30 32  1  0  0  0  0
 32 31  1  0  0  0  0
M  END
>  <MODEL>
4

>  <REMARK>
 VINA RESULT:      -7.4      2.822      4.623
  Name = 
  3 active torsions:
  status: ('A' for Active; 'I' for Inactive)
    1  A    between atoms: S_1  and  C_10
    2  A    between atoms: S_1  and  C_20
    3  A    between atoms: C_10  and  C_24
                            x       y       z     vdW  Elec       q    Type
                         _______ _______ _______ _____ _____    ______ ____

>  <TORSDO>
F 3

$$$$
=
 OpenBabel11052421263D

 32 36  0  0  1  0  0  0  0  0999 V2000
  189.1060  177.6760  143.5630 C   0  0  0  0  0  2  0  0  0  0  0  0
  193.7370  175.0200  144.5560 C   0  0  0  0  0  2  0  0  0  0  0  0
  189.1560  173.0900  142.8670 C   0  0  0  0  0  3  0  0  0  0  0  0
  189.5180  172.1550  143.8300 C   0  0  0  0  0  3  0  0  0  0  0  0
  195.3520  173.2750  145.4210 C   0  0  0  0  0  0  0  0  0  0  0  0
  195.6460  171.8520  145.5810 C   0  0  0  0  0  0  0  0  0  0  0  0
  191.8290  176.5090  144.8890 C   0  0  1  0  0  3  0  0  0  0  0  0
  192.3440  176.4400  142.5190 C   0  0  0  0  0  2  0  0  0  0  0  0
  195.4090  169.6730  145.4890 C   0  0  0  0  0  0  0  0  0  0  0  0
  190.5960  177.7410  143.2390 C   0  0  0  0  0  2  0  0  0  0  0  0
  190.1340  173.8770  142.2650 C   0  0  0  0  0  3  0  0  0  0  0  0
  192.6290  174.7970  141.7030 S   0  0  0  0  0  0  0  0  0  0  0  0
  191.4830  173.7600  142.6270 C   0  0  0  0  0  0  0  0  0  0  0  0
  193.2750  172.5330  144.0830 C   0  0  0  0  0  0  0  0  0  0  0  0
  196.5580  169.9000  146.2980 N   0  0  0  0  0  0  0  0  0  0  0  0
  189.8900  177.6490  145.8360 O   0  0  0  0  0  0  0  0  0  0  0  0
  191.2600  176.4690  143.5120 N   0  0  2  0  0  0  0  0  0  0  0  0
  196.7020  171.1910  146.3580 C   0  0  0  0  0  3  0  0  0  0  0  0
  190.7210  176.5310  145.9550 C   0  0  0  0  0  2  0  0  0  0  0  0
  188.8540  177.2230  144.9960 C   0  0  1  0  0  3  0  0  0  0  0  0
  190.8570  172.0050  144.1860 C   0  0  0  0  0  3  0  0  0  0  0  0
  191.8720  172.7870  143.6000 C   0  0  0  0  0  0  0  0  0  0  0  0
  193.6100  171.2530  144.3600 C   0  0  0  0  0  3  0  0  0  0  0  0
  192.5730  175.2410  145.1550 C   0  0  0  0  0  2  0  0  0  0  0  0
  196.0180  174.1490  146.0370 O   0  0  0  0  0  0  0  0  0  0  0  0
  194.9390  168.5340  145.2300 O   0  0  0  0  0  0  0  0  0  0  0  0
  194.2990  173.6470  144.4010 C   0  0  1  0  0  3  0  0  0  0  0  0
  194.8720  170.9360  145.0450 C   0  0  0  0  0  0  0  0  0  0  0  0
  187.5220  177.7670  145.4800 C   0  0  0  0  0  2  0  0  0  0  0  0
  186.9060  176.7880  146.8870 S   0  0  0  0  0  0  0  0  0  0  0  0
  184.5790  178.2240  146.8240 C   0  0  0  0  0  1  0  0  0  0  0  0
  185.1710  176.9080  146.3600 C   0  0  0  0  0  2  0  0  0  0  0  0
  1 20  1  0  0  0  0
  2 24  1  0  0  0  0
  3  4  1  0  0  0  0
  4 21  2  0  0  0  0
  5  6  1  0  0  0  0
  5 25  2  0  0  0  0
  6 18  1  0  0  0  0
  7 24  1  1  0  0  0
  7 19  1  0  0  0  0
  9 15  1  0  0  0  0
 10 17  1  0  0  0  0
 10  1  1  0  0  0  0
 11 13  1  0  0  0  0
 11  3  2  0  0  0  0
 12  8  1  0  0  0  0
 12 13  1  0  0  0  0
 13 22  2  0  0  0  0
 14 23  2  0  0  0  0
 14 27  1  0  0  0  0
 15 18  2  0  0  0  0
 16 19  1  0  0  0  0
 17  8  1  6  0  0  0
 17  7  1  0  0  0  0
 20 29  1  1  0  0  0
 20 16  1  0  0  0  0
 22 14  1  0  0  0  0
 22 21  1  0  0  0  0
 23 28  1  0  0  0  0
 26  9  2  0  0  0  0
 27  2  1  1  0  0  0
 27  5  1  0  0  0  0
 28  9  1  0  0  0  0
 28  6  2  0  0  0  0
 29 30  1  0  0  0  0
 32 31  1  0  0  0  0
 32 30  1  0  0  0  0
M  END
>  <MODEL>
5

>  <REMARK>
 VINA RESULT:      -7.4      3.017      8.732
  Name = 
  3 active torsions:
  status: ('A' for Active; 'I' for Inactive)
    1  A    between atoms: S_1  and  C_10
    2  A    between atoms: S_1  and  C_20
    3  A    between atoms: C_10  and  C_24
                            x       y       z     vdW  Elec       q    Type
                         _______ _______ _______ _____ _____    ______ ____

>  <TORSDO>
F 3

$$$$
=
 OpenBabel11052421263D

 32 36  0  0  1  0  0  0  0  0999 V2000
  189.3610  175.2140  146.7400 C   0  0  0  0  0  2  0  0  0  0  0  0
  191.9670  174.0330  142.1250 C   0  0  0  0  0  2  0  0  0  0  0  0
  193.8940  176.1760  146.5130 C   0  0  0  0  0  3  0  0  0  0  0  0
  194.4780  176.9690  145.5320 C   0  0  0  0  0  3  0  0  0  0  0  0
  193.4670  174.2680  140.1010 C   0  0  0  0  0  0  0  0  0  0  0  0
  194.7730  174.6740  139.5850 C   0  0  0  0  0  0  0  0  0  0  0  0
  190.2730  174.9320  143.6370 C   0  0  1  0  0  3  0  0  0  0  0  0
  191.1910  172.9150  144.6250 C   0  0  0  0  0  2  0  0  0  0  0  0
  196.8200  175.4630  139.5440 C   0  0  0  0  0  0  0  0  0  0  0  0
  189.5570  174.0620  145.7570 C   0  0  0  0  0  2  0  0  0  0  0  0
  193.4570  174.8930  146.1960 C   0  0  0  0  0  3  0  0  0  0  0  0
  193.0330  172.6860  144.6680 S   0  0  0  0  0  0  0  0  0  0  0  0
  193.5770  174.3870  144.8950 C   0  0  0  0  0  0  0  0  0  0  0  0
  194.4100  174.7780  142.4470 C   0  0  0  0  0  0  0  0  0  0  0  0
  196.4470  175.2900  138.1800 N   0  0  0  0  0  0  0  0  0  0  0  0
  188.6940  176.4130  144.7650 O   0  0  0  0  0  0  0  0  0  0  0  0
  190.7210  174.2800  144.9010 N   0  0  2  0  0  0  0  0  0  0  0  0
  195.2340  174.8250  138.2000 C   0  0  0  0  0  3  0  0  0  0  0  0
  189.7830  176.3670  143.8880 C   0  0  0  0  0  2  0  0  0  0  0  0
  189.2750  176.5600  146.0300 C   0  0  1  0  0  3  0  0  0  0  0  0
  194.6290  176.4760  144.2370 C   0  0  0  0  0  3  0  0  0  0  0  0
  194.1970  175.1830  143.8810 C   0  0  0  0  0  0  0  0  0  0  0  0
  195.5470  175.1990  141.8490 C   0  0  0  0  0  3  0  0  0  0  0  0
  191.4440  175.0960  142.7230 C   0  0  0  0  0  2  0  0  0  0  0  0
  192.5060  174.0320  139.3200 O   0  0  0  0  0  0  0  0  0  0  0  0
  197.9270  175.9280  139.9210 O   0  0  0  0  0  0  0  0  0  0  0  0
  193.3600  174.0320  141.5910 C   0  0  1  0  0  3  0  0  0  0  0  0
  195.7350  175.0460  140.3990 C   0  0  0  0  0  0  0  0  0  0  0  0
  188.4710  177.5340  146.8730 C   0  0  0  0  0  2  0  0  0  0  0  0
  186.7640  176.9350  147.0860 S   0  0  0  0  0  0  0  0  0  0  0  0
  184.5140  178.3540  146.4510 C   0  0  0  0  0  1  0  0  0  0  0  0
  186.0240  178.4720  146.4570 C   0  0  0  0  0  2  0  0  0  0  0  0
  2 24  1  0  0  0  0
  4  3  2  0  0  0  0
  5 27  1  0  0  0  0
  6  5  1  0  0  0  0
  6 28  2  0  0  0  0
  7 24  1  6  0  0  0
  7 19  1  0  0  0  0
  7 17  1  0  0  0  0
  8 12  1  0  0  0  0
  9 26  2  0  0  0  0
  9 28  1  0  0  0  0
 10  1  1  0  0  0  0
 11  3  1  0  0  0  0
 12 13  1  0  0  0  0
 13 11  2  0  0  0  0
 14 22  1  0  0  0  0
 15 18  2  0  0  0  0
 15  9  1  0  0  0  0
 16 20  1  0  0  0  0
 17  8  1  6  0  0  0
 17 10  1  0  0  0  0
 18  6  1  0  0  0  0
 19 16  1  0  0  0  0
 20  1  1  0  0  0  0
 20 29  1  1  0  0  0
 21  4  1  0  0  0  0
 22 21  2  0  0  0  0
 22 13  1  0  0  0  0
 23 14  2  0  0  0  0
 25  5  2  0  0  0  0
 27  2  1  1  0  0  0
 27 14  1  0  0  0  0
 28 23  1  0  0  0  0
 29 30  1  0  0  0  0
 31 32  1  0  0  0  0
 32 30  1  0  0  0  0
M  END
>  <MODEL>
6

>  <REMARK>
 VINA RESULT:      -7.2      3.266      8.145
  Name = 
  3 active torsions:
  status: ('A' for Active; 'I' for Inactive)
    1  A    between atoms: S_1  and  C_10
    2  A    between atoms: S_1  and  C_20
    3  A    between atoms: C_10  and  C_24
                            x       y       z     vdW  Elec       q    Type
                         _______ _______ _______ _____ _____    ______ ____

>  <TORSDO>
F 3

$$$$
=
 OpenBabel11052421263D

 32 36  0  0  1  0  0  0  0  0999 V2000
  188.0550  177.6150  145.5160 C   0  0  0  0  0  2  0  0  0  0  0  0
  192.0850  174.0120  145.0000 C   0  0  0  0  0  2  0  0  0  0  0  0
  187.8840  174.6830  141.9240 C   0  0  0  0  0  3  0  0  0  0  0  0
  187.9300  173.2990  142.0400 C   0  0  0  0  0  3  0  0  0  0  0  0
  193.3010  171.8210  144.6460 C   0  0  0  0  0  0  0  0  0  0  0  0
  193.4290  170.6090  143.8390 C   0  0  0  0  0  0  0  0  0  0  0  0
  190.2840  175.3100  146.0200 C   0  0  1  0  0  3  0  0  0  0  0  0
  191.3330  176.6690  144.3050 C   0  0  0  0  0  2  0  0  0  0  0  0
  193.0380  169.1200  142.2760 C   0  0  0  0  0  0  0  0  0  0  0  0
  189.5800  177.5450  145.5000 C   0  0  0  0  0  2  0  0  0  0  0  0
  189.0380  175.4340  142.1320 C   0  0  0  0  0  3  0  0  0  0  0  0
  191.6630  175.9240  142.6360 S   0  0  0  0  0  0  0  0  0  0  0  0
  190.2490  174.8200  142.4760 C   0  0  0  0  0  0  0  0  0  0  0  0
  191.5410  172.5910  142.9240 C   0  0  0  0  0  0  0  0  0  0  0  0
  193.9810  168.5150  143.1560 N   0  0  0  0  0  0  0  0  0  0  0  0
  188.2800  175.9630  147.2490 O   0  0  0  0  0  0  0  0  0  0  0  0
  190.0530  176.2890  144.9210 N   0  0  2  0  0  0  0  0  0  0  0  0
  194.2140  169.3930  144.0860 C   0  0  0  0  0  3  0  0  0  0  0  0
  188.9630  174.8840  146.6800 C   0  0  0  0  0  2  0  0  0  0  0  0
  187.4380  176.4170  146.2270 C   0  0  1  0  0  3  0  0  0  0  0  0
  189.1310  172.6670  142.3580 C   0  0  0  0  0  3  0  0  0  0  0  0
  190.3170  173.3950  142.5770 C   0  0  0  0  0  0  0  0  0  0  0  0
  191.6930  171.4000  142.3040 C   0  0  0  0  0  3  0  0  0  0  0  0
  190.8360  174.0440  145.4470 C   0  0  0  0  0  2  0  0  0  0  0  0
  193.8750  171.9210  145.7630 O   0  0  0  0  0  0  0  0  0  0  0  0
  192.5490  168.5530  141.2650 O   0  0  0  0  0  0  0  0  0  0  0  0
  192.5510  172.9810  144.0280 C   0  0  1  0  0  3  0  0  0  0  0  0
  192.7280  170.4500  142.7400 C   0  0  0  0  0  0  0  0  0  0  0  0
  186.0790  176.7970  146.7880 C   0  0  0  0  0  2  0  0  0  0  0  0
  185.8790  178.6070  146.8010 S   0  0  0  0  0  0  0  0  0  0  0  0
  184.7120  179.4230  144.4660 C   0  0  0  0  0  1  0  0  0  0  0  0
  184.4410  178.5710  145.6890 C   0  0  0  0  0  2  0  0  0  0  0  0
  1 20  1  0  0  0  0
  2 24  1  0  0  0  0
  3  4  2  0  0  0  0
  3 11  1  0  0  0  0
  4 21  1  0  0  0  0
  5 25  2  0  0  0  0
  6 18  1  0  0  0  0
  6  5  1  0  0  0  0
  7 24  1  6  0  0  0
  7 19  1  0  0  0  0
  9 28  1  0  0  0  0
  9 15  1  0  0  0  0
 10  1  1  0  0  0  0
 11 13  2  0  0  0  0
 12  8  1  0  0  0  0
 13 22  1  0  0  0  0
 13 12  1  0  0  0  0
 14 27  1  0  0  0  0
 15 18  2  0  0  0  0
 17  8  1  1  0  0  0
 17 10  1  0  0  0  0
 17  7  1  0  0  0  0
 19 16  1  0  0  0  0
 20 29  1  1  0  0  0
 20 16  1  0  0  0  0
 21 22  2  0  0  0  0
 22 14  1  0  0  0  0
 23 28  1  0  0  0  0
 23 14  2  0  0  0  0
 26  9  2  0  0  0  0
 27  5  1  0  0  0  0
 27  2  1  1  0  0  0
 28  6  2  0  0  0  0
 29 30  1  0  0  0  0
 31 32  1  0  0  0  0
 32 30  1  0  0  0  0
M  END
>  <MODEL>
7

>  <REMARK>
 VINA RESULT:      -7.2      2.781      8.506
  Name = 
  3 active torsions:
  status: ('A' for Active; 'I' for Inactive)
    1  A    between atoms: S_1  and  C_10
    2  A    between atoms: S_1  and  C_20
    3  A    between atoms: C_10  and  C_24
                            x       y       z     vdW  Elec       q    Type
                         _______ _______ _______ _____ _____    ______ ____

>  <TORSDO>
F 3

$$$$
=
 OpenBabel11052421263D

 32 36  0  0  1  0  0  0  0  0999 V2000
  194.4060  174.6190  144.8010 C   0  0  0  0  0  2  0  0  0  0  0  0
  189.6170  176.4960  146.5430 C   0  0  0  0  0  2  0  0  0  0  0  0
  190.7970  174.3540  141.8970 C   0  0  0  0  0  3  0  0  0  0  0  0
  190.0160  175.4400  141.5170 C   0  0  0  0  0  3  0  0  0  0  0  0
  187.4110  177.7350  146.5930 C   0  0  0  0  0  0  0  0  0  0  0  0
  186.1750  178.0640  145.8850 C   0  0  0  0  0  0  0  0  0  0  0  0
  192.0070  176.4190  146.0440 C   0  0  1  0  0  3  0  0  0  0  0  0
  191.2470  174.1620  146.5080 C   0  0  0  0  0  2  0  0  0  0  0  0
  184.6650  178.1360  144.2940 C   0  0  0  0  0  0  0  0  0  0  0  0
  193.4560  174.5060  145.9910 C   0  0  0  0  0  2  0  0  0  0  0  0
  190.6740  173.8290  143.1800 C   0  0  0  0  0  3  0  0  0  0  0  0
  189.6930  173.5460  145.6990 S   0  0  0  0  0  0  0  0  0  0  0  0
  189.7870  174.3880  144.1100 C   0  0  0  0  0  0  0  0  0  0  0  0
  187.9550  176.1880  144.6010 C   0  0  0  0  0  0  0  0  0  0  0  0
  184.2370  179.0760  145.2740 N   0  0  0  0  0  0  0  0  0  0  0  0
  194.2520  176.9740  145.2650 O   0  0  0  0  0  0  0  0  0  0  0  0
  192.1170  174.9840  145.6550 N   0  0  2  0  0  0  0  0  0  0  0  0
  185.1300  179.0390  146.2180 C   0  0  0  0  0  3  0  0  0  0  0  0
  192.8990  177.3100  145.1640 C   0  0  0  0  0  2  0  0  0  0  0  0
  194.4540  176.0380  144.2440 C   0  0  1  0  0  3  0  0  0  0  0  0
  189.1100  175.9940  142.4190 C   0  0  0  0  0  3  0  0  0  0  0  0
  188.9600  175.4900  143.7260 C   0  0  0  0  0  0  0  0  0  0  0  0
  186.8200  176.6250  144.0110 C   0  0  0  0  0  3  0  0  0  0  0  0
  190.6190  176.9010  145.7720 C   0  0  0  0  0  2  0  0  0  0  0  0
  187.7470  178.3590  147.6350 O   0  0  0  0  0  0  0  0  0  0  0  0
  184.0620  177.9160  143.2120 O   0  0  0  0  0  0  0  0  0  0  0  0
  188.1970  176.5470  146.0860 C   0  0  1  0  0  3  0  0  0  0  0  0
  185.8890  177.5080  144.7300 C   0  0  0  0  0  0  0  0  0  0  0  0
  195.7880  176.2760  143.5610 C   0  0  0  0  0  2  0  0  0  0  0  0
  195.6030  176.1930  141.7510 S   0  0  0  0  0  0  0  0  0  0  0  0
  197.0680  173.8940  141.9690 C   0  0  0  0  0  1  0  0  0  0  0  0
  197.1870  175.3340  141.5140 C   0  0  0  0  0  2  0  0  0  0  0  0
  1 10  1  0  0  0  0
  3 11  1  0  0  0  0
  4  3  2  0  0  0  0
  4 21  1  0  0  0  0
  5 25  2  0  0  0  0
  6 18  1  0  0  0  0
  6  5  1  0  0  0  0
  7 19  1  6  0  0  0
  9 28  1  0  0  0  0
  9 15  1  0  0  0  0
 11 13  2  0  0  0  0
 12  8  1  0  0  0  0
 13 12  1  0  0  0  0
 14 27  1  0  0  0  0
 15 18  2  0  0  0  0
 17 10  1  1  0  0  0
 17  7  1  0  0  0  0
 17  8  1  0  0  0  0
 19 16  1  0  0  0  0
 20 29  1  1  0  0  0
 20  1  1  0  0  0  0
 20 16  1  0  0  0  0
 21 22  2  0  0  0  0
 22 13  1  0  0  0  0
 22 14  1  0  0  0  0
 23 14  2  0  0  0  0
 23 28  1  0  0  0  0
 24  7  1  0  0  0  0
 24  2  1  0  0  0  0
 26  9  2  0  0  0  0
 27  2  1  6  0  0  0
 27  5  1  0  0  0  0
 28  6  2  0  0  0  0
 30 29  1  0  0  0  0
 32 30  1  0  0  0  0
 32 31  1  0  0  0  0
M  END
>  <MODEL>
8

>  <REMARK>
 VINA RESULT:      -7.0      2.710      4.336
  Name = 
  3 active torsions:
  status: ('A' for Active; 'I' for Inactive)
    1  A    between atoms: S_1  and  C_10
    2  A    between atoms: S_1  and  C_20
    3  A    between atoms: C_10  and  C_24
                            x       y       z     vdW  Elec       q    Type
                         _______ _______ _______ _____ _____    ______ ____

>  <TORSDO>
F 3

$$$$
=
 OpenBabel11052421263D

 32 36  0  0  1  0  0  0  0  0999 V2000
  194.0780  172.6390  142.0150 C   0  0  0  0  0  2  0  0  0  0  0  0
  190.2660  175.5940  144.5090 C   0  0  0  0  0  2  0  0  0  0  0  0
  189.8130  172.6450  140.1900 C   0  0  0  0  0  3  0  0  0  0  0  0
  189.1200  173.7920  139.8220 C   0  0  0  0  0  3  0  0  0  0  0  0
  188.3580  177.2150  144.8730 C   0  0  0  0  0  0  0  0  0  0  0  0
  187.0350  177.6650  144.4440 C   0  0  0  0  0  0  0  0  0  0  0  0
  192.3930  175.0070  143.4590 C   0  0  1  0  0  3  0  0  0  0  0  0
  191.4760  173.0170  144.5020 C   0  0  0  0  0  2  0  0  0  0  0  0
  185.1730  177.7940  143.2900 C   0  0  0  0  0  0  0  0  0  0  0  0
  193.4850  172.8700  143.4020 C   0  0  0  0  0  2  0  0  0  0  0  0
  189.9720  172.3360  141.5380 C   0  0  0  0  0  3  0  0  0  0  0  0
  189.6890  172.5930  144.2290 S   0  0  0  0  0  0  0  0  0  0  0  0
  189.4620  173.1730  142.5390 C   0  0  0  0  0  0  0  0  0  0  0  0
  188.1100  175.3320  143.1280 C   0  0  0  0  0  0  0  0  0  0  0  0
  185.1680  178.9240  144.1560 N   0  0  0  0  0  0  0  0  0  0  0  0
  194.3930  175.0220  142.0630 O   0  0  0  0  0  0  0  0  0  0  0  0
  192.1860  173.5370  143.3260 N   0  0  2  0  0  0  0  0  0  0  0  0
  186.2700  178.8540  144.8410 C   0  0  0  0  0  3  0  0  0  0  0  0
  193.1260  175.5860  142.2390 C   0  0  0  0  0  2  0  0  0  0  0  0
  194.1730  173.9320  141.2130 C   0  0  1  0  0  3  0  0  0  0  0  0
  188.5830  174.6260  140.8010 C   0  0  0  0  0  3  0  0  0  0  0  0
  188.7270  174.3450  142.1750 C   0  0  0  0  0  0  0  0  0  0  0  0
  186.9310  175.8850  142.7660 C   0  0  0  0  0  3  0  0  0  0  0  0
  191.0660  175.6950  143.4550 C   0  0  0  0  0  2  0  0  0  0  0  0
  189.0510  177.9050  145.6680 O   0  0  0  0  0  0  0  0  0  0  0  0
  184.2720  177.5410  142.4490 O   0  0  0  0  0  0  0  0  0  0  0  0
  188.7980  175.8430  144.4150 C   0  0  1  0  0  3  0  0  0  0  0  0
  186.3680  177.0170  143.5170 C   0  0  0  0  0  0  0  0  0  0  0  0
  195.2890  173.8210  140.1900 C   0  0  0  0  0  2  0  0  0  0  0  0
  194.8170  174.6500  138.6390 S   0  0  0  0  0  0  0  0  0  0  0  0
  192.7870  172.9860  137.8700 C   0  0  0  0  0  1  0  0  0  0  0  0
  193.0700  174.1660  138.7780 C   0  0  0  0  0  2  0  0  0  0  0  0
  1 10  1  0  0  0  0
  3 11  1  0  0  0  0
  4  3  2  0  0  0  0
  4 21  1  0  0  0  0
  5 25  2  0  0  0  0
  6 18  1  0  0  0  0
  6  5  1  0  0  0  0
  7 19  1  6  0  0  0
  9 28  1  0  0  0  0
  9 15  1  0  0  0  0
 11 13  2  0  0  0  0
 12  8  1  0  0  0  0
 13 12  1  0  0  0  0
 14 27  1  0  0  0  0
 15 18  2  0  0  0  0
 16 19  1  0  0  0  0
 17 10  1  1  0  0  0
 17  7  1  0  0  0  0
 17  8  1  0  0  0  0
 20 29  1  6  0  0  0
 20  1  1  0  0  0  0
 20 16  1  0  0  0  0
 21 22  2  0  0  0  0
 22 13  1  0  0  0  0
 22 14  1  0  0  0  0
 23 14  2  0  0  0  0
 23 28  1  0  0  0  0
 24  7  1  0  0  0  0
 24  2  1  0  0  0  0
 26  9  2  0  0  0  0
 27  2  1  6  0  0  0
 27  5  1  0  0  0  0
 28  6  2  0  0  0  0
 30 32  1  0  0  0  0
 30 29  1  0  0  0  0
 31 32  1  0  0  0  0
M  END
>  <MODEL>
9

>  <REMARK>
 VINA RESULT:      -6.9      2.799      4.638
  Name = 
  3 active torsions:
  status: ('A' for Active; 'I' for Inactive)
    1  A    between atoms: S_1  and  C_10
    2  A    between atoms: S_1  and  C_20
    3  A    between atoms: C_10  and  C_24
                            x       y       z     vdW  Elec       q    Type
                         _______ _______ _______ _____ _____    ______ ____

>  <TORSDO>
F 3

$$$$
