=
 OpenBabel11052417203D

 30 33  0  0  1  0  0  0  0  0999 V2000
  187.4440  176.2610  141.5970 C   0  0  0  0  0  0  0  0  0  0  0  0
  186.5920  178.6790  141.4160 C   0  0  0  0  0  2  0  0  0  0  0  0
  185.6580  177.8490  145.7630 C   0  0  0  0  0  2  0  0  0  0  0  0
  189.5150  176.7610  144.0070 C   0  0  0  0  0  2  0  0  0  0  0  0
  187.4530  175.0780  142.3950 N   0  0  0  0  0  2  0  0  0  0  0  0
  189.9180  174.5380  142.8450 C   0  0  2  0  0  3  0  0  0  0  0  0
  188.1840  172.5520  142.3550 S   0  0  0  0  0  0  0  0  0  0  0  0
  189.0150  176.3800  146.8780 N   0  0  0  0  0  0  0  0  0  0  0  0
  186.6400  177.0160  146.5880 C   0  0  2  0  0  3  0  0  0  0  0  0
  188.5380  174.1450  142.3740 C   0  0  0  0  0  0  0  0  0  0  0  0
  189.9300  175.3650  144.0560 N   0  0  0  0  0  0  0  0  0  0  0  0
  185.1550  178.2830  141.0620 C   0  0  0  0  0  2  0  0  0  0  0  0
  189.1370  174.9670  146.4700 C   0  0  0  0  0  2  0  0  0  0  0  0
  187.6140  176.1650  140.3520 O   0  0  0  0  0  0  0  0  0  0  0  0
  185.7270  177.4990  144.2760 C   0  0  1  0  0  3  0  0  0  0  0  0
  184.3580  177.6680  142.2110 C   0  0  0  0  0  2  0  0  0  0  0  0
  187.3520  177.6300  142.2290 C   0  0  1  0  0  3  0  0  0  0  0  0
  188.1080  176.8480  144.5630 C   0  0  1  0  0  3  0  0  0  0  0  0
  186.5500  177.4580  148.0370 C   0  0  0  0  0  1  0  0  0  0  0  0
  188.0760  177.1750  146.0640 C   0  0  2  0  0  3  0  0  0  0  0  0
  190.9640  173.8160  145.4580 O   0  0  0  0  0  0  0  0  0  0  0  0
  184.6700  178.3190  143.5480 C   0  0  0  0  0  2  0  0  0  0  0  0
  187.1600  177.7490  143.7620 C   0  0  2  0  0  3  0  0  0  0  0  0
  190.0850  174.7080  145.3220 C   0  0  0  0  0  0  0  0  0  0  0  0
  190.9500  174.9090  141.7780 C   0  0  0  0  0  2  0  0  0  0  0  0
  193.1210  176.1650  142.5110 C   0  0  0  0  0  1  0  0  0  0  0  0
  192.6570  174.4420  142.1940 S   0  0  0  0  0  0  0  0  0  0  0  0
  190.3070  177.0580  146.9780 C   0  0  0  0  0  2  0  0  0  0  0  0
  191.4980  177.6540  149.0830 C   0  0  0  0  0  1  0  0  0  0  0  0
  191.0990  176.5200  148.1580 C   0  0  0  0  0  2  0  0  0  0  0  0
  1 17  1  0  0  0  0
  1  5  1  0  0  0  0
  3  9  1  0  0  0  0
  4 11  1  0  0  0  0
  6 25  1  6  0  0  0
  6 11  1  0  0  0  0
  7 10  2  0  0  0  0
  8 28  1  0  0  0  0
  9 19  1  1  0  0  0
 10  5  1  0  0  0  0
 10  6  1  0  0  0  0
 11 24  1  0  0  0  0
 12  2  1  0  0  0  0
 12 16  1  0  0  0  0
 13  8  1  0  0  0  0
 14  1  2  0  0  0  0
 15 22  1  6  0  0  0
 15  3  1  0  0  0  0
 16 22  1  0  0  0  0
 17  2  1  6  0  0  0
 17 23  1  0  0  0  0
 18  4  1  6  0  0  0
 18 20  1  0  0  0  0
 20  9  1  0  0  0  0
 20  8  1  1  0  0  0
 23 15  1  0  0  0  0
 23 18  1  0  0  0  0
 24 21  2  0  0  0  0
 24 13  1  0  0  0  0
 25 27  1  0  0  0  0
 27 26  1  0  0  0  0
 28 30  1  0  0  0  0
 30 29  1  0  0  0  0
M  END
>  <MODEL>
1

>  <REMARK>
 VINA RESULT:      -7.3      0.000      0.000
  Name = 
  4 active torsions:
  status: ('A' for Active; 'I' for Inactive)
    1  A    between atoms: C_6  and  C_8
    2  A    between atoms: C_6  and  S_21
    3  A    between atoms: C_7  and  N_10
    4  A    between atoms: C_7  and  C_26
                            x       y       z     vdW  Elec       q    Type
                         _______ _______ _______ _____ _____    ______ ____

>  <TORSDO>
F 4

$$$$
=
 OpenBabel11052417203D

 30 33  0  0  1  0  0  0  0  0999 V2000
  188.2640  175.5200  141.6100 C   0  0  0  0  0  0  0  0  0  0  0  0
  187.4760  177.9550  141.3740 C   0  0  0  0  0  2  0  0  0  0  0  0
  188.1720  177.7910  145.8410 C   0  0  0  0  0  2  0  0  0  0  0  0
  191.0860  176.1600  143.0140 C   0  0  0  0  0  2  0  0  0  0  0  0
  188.5280  174.4570  142.5240 N   0  0  0  0  0  2  0  0  0  0  0  0
  190.9700  173.7780  142.1420 C   0  0  2  0  0  3  0  0  0  0  0  0
  189.1200  171.8960  142.6160 S   0  0  0  0  0  0  0  0  0  0  0  0
  191.6590  176.2080  145.8960 N   0  0  0  0  0  0  0  0  0  0  0  0
  189.3630  176.9960  146.3790 C   0  0  2  0  0  3  0  0  0  0  0  0
  189.5030  173.4420  142.2620 C   0  0  0  0  0  0  0  0  0  0  0  0
  191.4490  174.7540  143.1250 N   0  0  0  0  0  0  0  0  0  0  0  0
  185.9980  177.6370  141.6230 C   0  0  0  0  0  2  0  0  0  0  0  0
  191.5820  174.7480  145.6940 C   0  0  0  0  0  2  0  0  0  0  0  0
  187.9640  175.2450  140.4170 O   0  0  0  0  0  0  0  0  0  0  0  0
  187.6820  177.2420  144.5000 C   0  0  1  0  0  3  0  0  0  0  0  0
  185.6590  177.2490  143.0610 C   0  0  0  0  0  2  0  0  0  0  0  0
  188.4500  176.9630  142.0140 C   0  0  1  0  0  3  0  0  0  0  0  0
  189.9820  176.4380  144.0150 C   0  0  1  0  0  3  0  0  0  0  0  0
  189.8210  177.6320  147.6770 C   0  0  0  0  0  1  0  0  0  0  0  0
  190.5110  176.9640  145.3580 C   0  0  2  0  0  3  0  0  0  0  0  0
  192.8770  173.3240  144.2870 O   0  0  0  0  0  0  0  0  0  0  0  0
  186.4570  178.0430  144.0810 C   0  0  0  0  0  2  0  0  0  0  0  0
  188.8340  177.3000  143.4770 C   0  0  2  0  0  3  0  0  0  0  0  0
  192.0360  174.2600  144.3380 C   0  0  0  0  0  0  0  0  0  0  0  0
  191.5510  173.9160  140.7330 C   0  0  0  0  0  2  0  0  0  0  0  0
  191.5860  171.5500  139.6250 C   0  0  0  0  0  1  0  0  0  0  0  0
  190.5980  173.0590  139.4430 S   0  0  0  0  0  0  0  0  0  0  0  0
  192.9170  176.7830  145.4220 C   0  0  0  0  0  2  0  0  0  0  0  0
  195.0470  175.6510  146.0440 C   0  0  0  0  0  1  0  0  0  0  0  0
  193.9950  176.6510  146.4850 C   0  0  0  0  0  2  0  0  0  0  0  0
  1 17  1  0  0  0  0
  1  5  1  0  0  0  0
  2 12  1  0  0  0  0
  3  9  1  0  0  0  0
  4 11  1  0  0  0  0
  6 25  1  6  0  0  0
  6 10  1  0  0  0  0
  6 11  1  0  0  0  0
  9 19  1  1  0  0  0
 10  5  1  0  0  0  0
 10  7  2  0  0  0  0
 11 24  1  0  0  0  0
 12 16  1  0  0  0  0
 13  8  1  0  0  0  0
 14  1  2  0  0  0  0
 15 22  1  6  0  0  0
 15  3  1  0  0  0  0
 16 22  1  0  0  0  0
 17  2  1  1  0  0  0
 17 23  1  0  0  0  0
 18  4  1  6  0  0  0
 18 20  1  0  0  0  0
 20  8  1  1  0  0  0
 20  9  1  0  0  0  0
 21 24  2  0  0  0  0
 23 18  1  0  0  0  0
 23 15  1  0  0  0  0
 24 13  1  0  0  0  0
 27 26  1  0  0  0  0
 27 25  1  0  0  0  0
 28  8  1  0  0  0  0
 28 30  1  0  0  0  0
 29 30  1  0  0  0  0
M  END
>  <MODEL>
2

>  <REMARK>
 VINA RESULT:      -7.1      1.972      2.504
  Name = 
  4 active torsions:
  status: ('A' for Active; 'I' for Inactive)
    1  A    between atoms: C_6  and  C_8
    2  A    between atoms: C_6  and  S_21
    3  A    between atoms: C_7  and  N_10
    4  A    between atoms: C_7  and  C_26
                            x       y       z     vdW  Elec       q    Type
                         _______ _______ _______ _____ _____    ______ ____

>  <TORSDO>
F 4

$$$$
=
 OpenBabel11052417203D

 30 33  0  0  1  0  0  0  0  0999 V2000
  188.6120  175.1260  143.1240 C   0  0  0  0  0  0  0  0  0  0  0  0
  188.0110  177.5380  143.7810 C   0  0  0  0  0  2  0  0  0  0  0  0
  191.4490  176.7910  146.6240 C   0  0  0  0  0  2  0  0  0  0  0  0
  191.6960  175.6810  142.4000 C   0  0  0  0  0  2  0  0  0  0  0  0
  189.3460  173.9590  143.4930 N   0  0  0  0  0  2  0  0  0  0  0  0
  190.8950  173.4380  141.5190 C   0  0  2  0  0  3  0  0  0  0  0  0
  189.6980  171.4360  142.8420 S   0  0  0  0  0  0  0  0  0  0  0  0
  194.0180  175.3560  144.1730 N   0  0  0  0  0  0  0  0  0  0  0  0
  192.6500  175.9780  146.1400 C   0  0  2  0  0  3  0  0  0  0  0  0
  189.8480  173.0310  142.5270 C   0  0  0  0  0  0  0  0  0  0  0  0
  191.9590  174.2880  142.0620 N   0  0  0  0  0  0  0  0  0  0  0  0
  187.0410  177.1290  144.8940 C   0  0  0  0  0  2  0  0  0  0  0  0
  193.7400  173.9350  143.8850 C   0  0  0  0  0  2  0  0  0  0  0  0
  187.5890  175.0060  142.3980 O   0  0  0  0  0  0  0  0  0  0  0  0
  190.1690  176.4120  145.8780 C   0  0  1  0  0  3  0  0  0  0  0  0
  187.7030  176.5350  146.1350 C   0  0  0  0  0  2  0  0  0  0  0  0
  189.1030  176.5070  143.4890 C   0  0  1  0  0  3  0  0  0  0  0  0
  191.5370  175.7750  143.9040 C   0  0  1  0  0  3  0  0  0  0  0  0
  193.8840  176.4480  146.8880 C   0  0  0  0  0  1  0  0  0  0  0  0
  192.8460  176.1310  144.6240 C   0  0  2  0  0  3  0  0  0  0  0  0
  193.7090  172.7710  141.8040 O   0  0  0  0  0  0  0  0  0  0  0  0
  189.0200  177.2130  146.4730 C   0  0  0  0  0  2  0  0  0  0  0  0
  190.3710  176.6560  144.3680 C   0  0  2  0  0  3  0  0  0  0  0  0
  193.1650  173.6560  142.5140 C   0  0  0  0  0  0  0  0  0  0  0  0
  190.4200  173.7910  140.1080 C   0  0  0  0  0  2  0  0  0  0  0  0
  188.2120  172.6700  139.2720 C   0  0  0  0  0  1  0  0  0  0  0  0
  189.9870  172.3530  139.0820 S   0  0  0  0  0  0  0  0  0  0  0  0
  194.6900  176.0400  143.0690 C   0  0  0  0  0  2  0  0  0  0  0  0
  197.1170  175.8230  142.5470 C   0  0  0  0  0  1  0  0  0  0  0  0
  196.0960  176.4500  143.4770 C   0  0  0  0  0  2  0  0  0  0  0  0
  1 17  1  0  0  0  0
  1  5  1  0  0  0  0
  2 12  1  0  0  0  0
  6 25  1  6  0  0  0
  6 11  1  0  0  0  0
  6 10  1  0  0  0  0
  9  3  1  0  0  0  0
  9 19  1  1  0  0  0
 10  7  2  0  0  0  0
 10  5  1  0  0  0  0
 11  4  1  0  0  0  0
 11 24  1  0  0  0  0
 12 16  1  0  0  0  0
 13  8  1  0  0  0  0
 14  1  2  0  0  0  0
 15 22  1  1  0  0  0
 15  3  1  0  0  0  0
 16 22  1  0  0  0  0
 17  2  1  1  0  0  0
 17 23  1  0  0  0  0
 18  4  1  6  0  0  0
 18 23  1  0  0  0  0
 18 20  1  0  0  0  0
 20  8  1  6  0  0  0
 20  9  1  0  0  0  0
 21 24  2  0  0  0  0
 23 15  1  0  0  0  0
 24 13  1  0  0  0  0
 27 26  1  0  0  0  0
 27 25  1  0  0  0  0
 28 30  1  0  0  0  0
 28  8  1  0  0  0  0
 29 30  1  0  0  0  0
M  END
>  <MODEL>
3

>  <REMARK>
 VINA RESULT:      -6.5      2.406      4.742
  Name = 
  4 active torsions:
  status: ('A' for Active; 'I' for Inactive)
    1  A    between atoms: C_6  and  C_8
    2  A    between atoms: C_6  and  S_21
    3  A    between atoms: C_7  and  N_10
    4  A    between atoms: C_7  and  C_26
                            x       y       z     vdW  Elec       q    Type
                         _______ _______ _______ _____ _____    ______ ____

>  <TORSDO>
F 4

$$$$
=
 OpenBabel11052417203D

 30 33  0  0  1  0  0  0  0  0999 V2000
  193.4300  171.7260  143.1530 C   0  0  0  0  0  0  0  0  0  0  0  0
  194.2660  170.6750  145.3450 C   0  0  0  0  0  2  0  0  0  0  0  0
  195.2650  175.0160  146.1320 C   0  0  0  0  0  2  0  0  0  0  0  0
  191.3910  173.8270  144.4840 C   0  0  0  0  0  2  0  0  0  0  0  0
  193.4400  172.8960  142.3350 N   0  0  0  0  0  2  0  0  0  0  0  0
  190.9850  173.5470  141.9930 C   0  0  2  0  0  3  0  0  0  0  0  0
  192.7230  173.7780  139.9640 S   0  0  0  0  0  0  0  0  0  0  0  0
  191.9330  176.6360  145.1610 N   0  0  0  0  0  0  0  0  0  0  0  0
  194.3000  176.1000  145.6510 C   0  0  2  0  0  3  0  0  0  0  0  0
  192.3600  173.2280  141.4570 C   0  0  0  0  0  0  0  0  0  0  0  0
  190.9840  174.3800  143.1990 N   0  0  0  0  0  0  0  0  0  0  0  0
  195.6990  170.4660  144.8480 C   0  0  0  0  0  2  0  0  0  0  0  0
  191.8140  176.7640  143.6950 C   0  0  0  0  0  2  0  0  0  0  0  0
  193.2430  170.6020  142.6150 O   0  0  0  0  0  0  0  0  0  0  0  0
  195.1770  173.7550  145.2720 C   0  0  1  0  0  3  0  0  0  0  0  0
  196.5160  171.7470  144.6880 C   0  0  0  0  0  2  0  0  0  0  0  0
  193.5230  171.8230  144.6570 C   0  0  1  0  0  3  0  0  0  0  0  0
  192.8050  174.2930  144.7660 C   0  0  1  0  0  3  0  0  0  0  0  0
  194.4080  177.2910  146.5840 C   0  0  0  0  0  1  0  0  0  0  0  0
  192.8560  175.5760  145.6110 C   0  0  2  0  0  3  0  0  0  0  0  0
  189.9800  176.2610  142.2570 O   0  0  0  0  0  0  0  0  0  0  0  0
  196.2190  172.7660  145.7760 C   0  0  0  0  0  2  0  0  0  0  0  0
  193.7360  173.2080  145.3190 C   0  0  2  0  0  3  0  0  0  0  0  0
  190.8510  175.8000  143.0400 C   0  0  0  0  0  0  0  0  0  0  0  0
  189.9350  172.4340  141.9550 C   0  0  0  0  0  2  0  0  0  0  0  0
  188.6870  173.8170  140.1230 C   0  0  0  0  0  1  0  0  0  0  0  0
  188.2340  173.0180  141.6860 S   0  0  0  0  0  0  0  0  0  0  0  0
  190.6390  176.5040  145.8290 C   0  0  0  0  0  2  0  0  0  0  0  0
  189.7600  174.9500  147.5660 C   0  0  0  0  0  1  0  0  0  0  0  0
  190.8230  175.9820  147.2440 C   0  0  0  0  0  2  0  0  0  0  0  0
  1 17  1  0  0  0  0
  5  1  1  0  0  0  0
  6 25  1  1  0  0  0
  6 11  1  0  0  0  0
  7 10  2  0  0  0  0
  8 28  1  0  0  0  0
  9  3  1  0  0  0  0
  9 19  1  1  0  0  0
 10  6  1  0  0  0  0
 10  5  1  0  0  0  0
 11  4  1  0  0  0  0
 12  2  1  0  0  0  0
 13  8  1  0  0  0  0
 14  1  2  0  0  0  0
 15 23  1  0  0  0  0
 15 22  1  1  0  0  0
 15  3  1  0  0  0  0
 16 12  1  0  0  0  0
 16 22  1  0  0  0  0
 17 23  1  0  0  0  0
 17  2  1  6  0  0  0
 18  4  1  1  0  0  0
 18 23  1  0  0  0  0
 18 20  1  0  0  0  0
 20  8  1  6  0  0  0
 20  9  1  0  0  0  0
 21 24  2  0  0  0  0
 24 11  1  0  0  0  0
 24 13  1  0  0  0  0
 26 27  1  0  0  0  0
 27 25  1  0  0  0  0
 28 30  1  0  0  0  0
 30 29  1  0  0  0  0
M  END
>  <MODEL>
4

>  <REMARK>
 VINA RESULT:      -6.5      3.561      7.232
  Name = 
  4 active torsions:
  status: ('A' for Active; 'I' for Inactive)
    1  A    between atoms: C_6  and  C_8
    2  A    between atoms: C_6  and  S_21
    3  A    between atoms: C_7  and  N_10
    4  A    between atoms: C_7  and  C_26
                            x       y       z     vdW  Elec       q    Type
                         _______ _______ _______ _____ _____    ______ ____

>  <TORSDO>
F 4

$$$$
=
 OpenBabel11052417203D

 30 33  0  0  1  0  0  0  0  0999 V2000
  191.5510  175.2130  145.9360 C   0  0  0  0  0  0  0  0  0  0  0  0
  189.1500  174.9420  146.8130 C   0  0  0  0  0  2  0  0  0  0  0  0
  188.3280  175.2280  142.3750 C   0  0  0  0  0  2  0  0  0  0  0  0
  191.5230  172.6860  143.9460 C   0  0  0  0  0  2  0  0  0  0  0  0
  192.3550  175.5580  144.8080 N   0  0  0  0  0  2  0  0  0  0  0  0
  193.8760  173.5420  144.3730 C   0  0  2  0  0  3  0  0  0  0  0  0
  194.8430  176.0280  144.0980 S   0  0  0  0  0  0  0  0  0  0  0  0
  190.8950  172.6990  141.0750 N   0  0  0  0  0  0  0  0  0  0  0  0
  189.2950  174.5610  141.3950 C   0  0  2  0  0  3  0  0  0  0  0  0
  193.6650  175.0180  144.6050 C   0  0  0  0  0  0  0  0  0  0  0  0
  192.8860  172.9210  143.4880 N   0  0  0  0  0  0  0  0  0  0  0  0
  188.8850  176.4460  146.9290 C   0  0  0  0  0  2  0  0  0  0  0  0
  192.2450  173.2930  141.0250 C   0  0  0  0  0  2  0  0  0  0  0  0
  192.0210  175.3630  147.0950 O   0  0  0  0  0  0  0  0  0  0  0  0
  189.0240  175.6260  143.6770 C   0  0  1  0  0  3  0  0  0  0  0  0
  188.7380  177.1760  145.5960 C   0  0  0  0  0  2  0  0  0  0  0  0
  190.1970  174.5660  145.7630 C   0  0  1  0  0  3  0  0  0  0  0  0
  190.6400  173.7660  143.3560 C   0  0  1  0  0  3  0  0  0  0  0  0
  188.5220  174.1500  140.1570 C   0  0  0  0  0  1  0  0  0  0  0  0
  189.9770  173.3420  142.0360 C   0  0  2  0  0  3  0  0  0  0  0  0
  194.3390  172.4040  141.7400 O   0  0  0  0  0  0  0  0  0  0  0  0
  188.0080  176.3440  144.5550 C   0  0  0  0  0  2  0  0  0  0  0  0
  189.6260  174.3680  144.3360 C   0  0  2  0  0  3  0  0  0  0  0  0
  193.2010  172.8120  142.0920 C   0  0  0  0  0  0  0  0  0  0  0  0
  194.3210  172.6950  145.5680 C   0  0  0  0  0  2  0  0  0  0  0  0
  196.8170  173.2900  146.0610 C   0  0  0  0  0  1  0  0  0  0  0  0
  195.9310  171.8790  145.3480 S   0  0  0  0  0  0  0  0  0  0  0  0
  190.9160  171.2510  141.2790 C   0  0  0  0  0  2  0  0  0  0  0  0
  190.0430  171.0040  138.9590 C   0  0  0  0  0  1  0  0  0  0  0  0
  191.0880  170.5310  139.9520 C   0  0  0  0  0  2  0  0  0  0  0  0
  1 14  2  0  0  0  0
  2 12  1  0  0  0  0
  5  1  1  0  0  0  0
  6 10  1  0  0  0  0
  6 25  1  1  0  0  0
  7 10  2  0  0  0  0
  8 28  1  0  0  0  0
  9 19  1  6  0  0  0
  9 20  1  0  0  0  0
  9  3  1  0  0  0  0
 10  5  1  0  0  0  0
 11  4  1  0  0  0  0
 11  6  1  0  0  0  0
 13  8  1  0  0  0  0
 13 24  1  0  0  0  0
 15  3  1  6  0  0  0
 15 23  1  0  0  0  0
 15 22  1  0  0  0  0
 16 12  1  0  0  0  0
 17  1  1  0  0  0  0
 17  2  1  1  0  0  0
 18  4  1  1  0  0  0
 18 23  1  0  0  0  0
 20  8  1  6  0  0  0
 20 18  1  0  0  0  0
 21 24  2  0  0  0  0
 22 16  1  0  0  0  0
 23 17  1  0  0  0  0
 24 11  1  0  0  0  0
 27 25  1  0  0  0  0
 27 26  1  0  0  0  0
 29 30  1  0  0  0  0
 30 28  1  0  0  0  0
M  END
>  <MODEL>
5

>  <REMARK>
 VINA RESULT:      -6.3      3.322      6.425
  Name = 
  4 active torsions:
  status: ('A' for Active; 'I' for Inactive)
    1  A    between atoms: C_6  and  C_8
    2  A    between atoms: C_6  and  S_21
    3  A    between atoms: C_7  and  N_10
    4  A    between atoms: C_7  and  C_26
                            x       y       z     vdW  Elec       q    Type
                         _______ _______ _______ _____ _____    ______ ____

>  <TORSDO>
F 4

$$$$
=
 OpenBabel11052417203D

 30 33  0  0  1  0  0  0  0  0999 V2000
  189.3080  175.3790  143.8090 C   0  0  0  0  0  0  0  0  0  0  0  0
  189.5870  177.7490  144.7640 C   0  0  0  0  0  2  0  0  0  0  0  0
  193.2590  175.7690  146.5130 C   0  0  0  0  0  2  0  0  0  0  0  0
  192.1520  175.2270  142.3150 C   0  0  0  0  0  2  0  0  0  0  0  0
  189.7510  174.0250  143.8870 N   0  0  0  0  0  2  0  0  0  0  0  0
  190.5640  173.4040  141.5370 C   0  0  2  0  0  3  0  0  0  0  0  0
  189.2100  171.6090  142.9990 S   0  0  0  0  0  0  0  0  0  0  0  0
  194.6460  174.0820  143.3670 N   0  0  0  0  0  0  0  0  0  0  0  0
  194.0280  174.7530  145.6680 C   0  0  2  0  0  3  0  0  0  0  0  0
  189.7210  173.1410  142.7610 C   0  0  0  0  0  0  0  0  0  0  0  0
  191.9220  173.8730  141.8270 N   0  0  0  0  0  0  0  0  0  0  0  0
  188.8410  177.4510  146.0680 C   0  0  0  0  0  2  0  0  0  0  0  0
  193.9190  172.8320  143.0710 C   0  0  0  0  0  2  0  0  0  0  0  0
  188.1480  175.6240  143.3820 O   0  0  0  0  0  0  0  0  0  0  0  0
  191.7830  175.8350  146.1170 C   0  0  1  0  0  3  0  0  0  0  0  0
  189.5900  176.5430  147.0410 C   0  0  0  0  0  2  0  0  0  0  0  0
  190.2410  176.5260  144.1190 C   0  0  1  0  0  3  0  0  0  0  0  0
  192.3950  175.1500  143.8090 C   0  0  1  0  0  3  0  0  0  0  0  0
  195.4870  174.7870  146.0830 C   0  0  0  0  0  1  0  0  0  0  0  0
  193.8860  175.0590  144.1690 C   0  0  2  0  0  3  0  0  0  0  0  0
  193.0580  172.0120  141.0040 O   0  0  0  0  0  0  0  0  0  0  0  0
  191.0850  176.8110  147.0540 C   0  0  0  0  0  2  0  0  0  0  0  0
  191.6730  176.2250  144.6290 C   0  0  2  0  0  3  0  0  0  0  0  0
  192.9740  172.9000  141.8920 C   0  0  0  0  0  0  0  0  0  0  0  0
  189.8790  174.0580  140.3340 C   0  0  0  0  0  2  0  0  0  0  0  0
  189.9780  171.7020  139.2070 C   0  0  0  0  0  1  0  0  0  0  0  0
  188.7110  172.9740  139.4590 S   0  0  0  0  0  0  0  0  0  0  0  0
  195.1960  174.7190  142.1710 C   0  0  0  0  0  2  0  0  0  0  0  0
  196.1570  176.8330  141.2710 C   0  0  0  0  0  1  0  0  0  0  0  0
  195.8520  176.0420  142.5280 C   0  0  0  0  0  2  0  0  0  0  0  0
  1  5  1  0  0  0  0
  1 17  1  0  0  0  0
  2 12  1  0  0  0  0
  6 25  1  6  0  0  0
  6 11  1  0  0  0  0
  6 10  1  0  0  0  0
  9 19  1  1  0  0  0
  9  3  1  0  0  0  0
 10  7  2  0  0  0  0
 10  5  1  0  0  0  0
 11 24  1  0  0  0  0
 11  4  1  0  0  0  0
 12 16  1  0  0  0  0
 13  8  1  0  0  0  0
 14  1  2  0  0  0  0
 15  3  1  1  0  0  0
 15 22  1  0  0  0  0
 16 22  1  0  0  0  0
 17 23  1  0  0  0  0
 17  2  1  1  0  0  0
 18  4  1  6  0  0  0
 18 20  1  0  0  0  0
 18 23  1  0  0  0  0
 20  8  1  6  0  0  0
 20  9  1  0  0  0  0
 21 24  2  0  0  0  0
 23 15  1  0  0  0  0
 24 13  1  0  0  0  0
 26 27  1  0  0  0  0
 27 25  1  0  0  0  0
 28 30  1  0  0  0  0
 28  8  1  0  0  0  0
 29 30  1  0  0  0  0
M  END
>  <MODEL>
6

>  <REMARK>
 VINA RESULT:      -6.2      3.032      5.726
  Name = 
  4 active torsions:
  status: ('A' for Active; 'I' for Inactive)
    1  A    between atoms: C_6  and  C_8
    2  A    between atoms: C_6  and  S_21
    3  A    between atoms: C_7  and  N_10
    4  A    between atoms: C_7  and  C_26
                            x       y       z     vdW  Elec       q    Type
                         _______ _______ _______ _____ _____    ______ ____

>  <TORSDO>
F 4

$$$$
=
 OpenBabel11052417203D

 30 33  0  0  1  0  0  0  0  0999 V2000
  189.6370  174.2410  143.3990 C   0  0  0  0  0  0  0  0  0  0  0  0
  189.3630  176.4230  144.7310 C   0  0  0  0  0  2  0  0  0  0  0  0
  193.3380  175.0090  146.3620 C   0  0  0  0  0  2  0  0  0  0  0  0
  192.4800  174.9530  142.0730 C   0  0  0  0  0  2  0  0  0  0  0  0
  190.3660  173.0200  143.2880 N   0  0  0  0  0  2  0  0  0  0  0  0
  191.3520  172.9890  140.9220 C   0  0  2  0  0  3  0  0  0  0  0  0
  190.3930  170.7280  141.9980 S   0  0  0  0  0  0  0  0  0  0  0  0
  195.1390  174.2080  143.0780 N   0  0  0  0  0  0  0  0  0  0  0  0
  194.3330  174.3370  145.4150 C   0  0  2  0  0  3  0  0  0  0  0  0
  190.5590  172.3510  142.0370 C   0  0  0  0  0  0  0  0  0  0  0  0
  192.5660  173.6830  141.3640 N   0  0  0  0  0  0  0  0  0  0  0  0
  188.6700  175.7580  145.9240 C   0  0  0  0  0  2  0  0  0  0  0  0
  194.7120  172.8990  142.5450 C   0  0  0  0  0  2  0  0  0  0  0  0
  188.4620  174.3000  142.9460 O   0  0  0  0  0  0  0  0  0  0  0  0
  191.8940  174.8230  145.8940 C   0  0  1  0  0  3  0  0  0  0  0  0
  189.5770  174.8810  146.7850 C   0  0  0  0  0  2  0  0  0  0  0  0
  190.2860  175.4930  143.9410 C   0  0  1  0  0  3  0  0  0  0  0  0
  192.6970  174.6810  143.5470 C   0  0  1  0  0  3  0  0  0  0  0  0
  195.7380  174.6120  145.9170 C   0  0  0  0  0  1  0  0  0  0  0  0
  194.1630  174.8520  143.9780 C   0  0  2  0  0  3  0  0  0  0  0  0
  194.1040  172.2720  140.3270 O   0  0  0  0  0  0  0  0  0  0  0  0
  190.9760  175.4570  146.9300 C   0  0  0  0  0  2  0  0  0  0  0  0
  191.7370  175.4240  144.4820 C   0  0  2  0  0  3  0  0  0  0  0  0
  193.8050  172.9600  141.3380 C   0  0  0  0  0  0  0  0  0  0  0  0
  190.5690  173.6730  139.7990 C   0  0  0  0  0  2  0  0  0  0  0  0
  188.7820  173.6350  137.8930 C   0  0  0  0  0  1  0  0  0  0  0  0
  188.8550  173.0930  139.6220 S   0  0  0  0  0  0  0  0  0  0  0  0
  195.5630  175.1380  142.0330 C   0  0  0  0  0  2  0  0  0  0  0  0
  197.4070  176.4620  143.0590 C   0  0  0  0  0  1  0  0  0  0  0  0
  195.9500  176.4770  142.6390 C   0  0  0  0  0  2  0  0  0  0  0  0
  1 17  1  0  0  0  0
  2 12  1  0  0  0  0
  5  1  1  0  0  0  0
  6 25  1  1  0  0  0
  6 11  1  0  0  0  0
  6 10  1  0  0  0  0
  7 10  2  0  0  0  0
  9 19  1  1  0  0  0
  9  3  1  0  0  0  0
 10  5  1  0  0  0  0
 11  4  1  0  0  0  0
 12 16  1  0  0  0  0
 13  8  1  0  0  0  0
 14  1  2  0  0  0  0
 15  3  1  1  0  0  0
 15 22  1  0  0  0  0
 16 22  1  0  0  0  0
 17 23  1  0  0  0  0
 17  2  1  1  0  0  0
 18  4  1  6  0  0  0
 18 20  1  0  0  0  0
 18 23  1  0  0  0  0
 20  8  1  6  0  0  0
 20  9  1  0  0  0  0
 21 24  2  0  0  0  0
 23 15  1  0  0  0  0
 24 11  1  0  0  0  0
 24 13  1  0  0  0  0
 26 27  1  0  0  0  0
 27 25  1  0  0  0  0
 28 30  1  0  0  0  0
 28  8  1  0  0  0  0
 30 29  1  0  0  0  0
M  END
>  <MODEL>
7

>  <REMARK>
 VINA RESULT:      -6.2      3.279      6.076
  Name = 
  4 active torsions:
  status: ('A' for Active; 'I' for Inactive)
    1  A    between atoms: C_6  and  C_8
    2  A    between atoms: C_6  and  S_21
    3  A    between atoms: C_7  and  N_10
    4  A    between atoms: C_7  and  C_26
                            x       y       z     vdW  Elec       q    Type
                         _______ _______ _______ _____ _____    ______ ____

>  <TORSDO>
F 4

$$$$
=
 OpenBabel11052417203D

 30 33  0  0  1  0  0  0  0  0999 V2000
  191.5790  176.8360  144.5190 C   0  0  0  0  0  0  0  0  0  0  0  0
  194.1280  176.7840  144.1940 C   0  0  0  0  0  2  0  0  0  0  0  0
  193.3320  172.3740  144.8040 C   0  0  0  0  0  2  0  0  0  0  0  0
  190.8450  174.7970  142.1420 C   0  0  0  0  0  2  0  0  0  0  0  0
  190.4360  176.0940  144.9410 N   0  0  0  0  0  2  0  0  0  0  0  0
  188.8150  176.0880  142.9560 C   0  0  2  0  0  3  0  0  0  0  0  0
  187.8690  176.3460  145.4520 S   0  0  0  0  0  0  0  0  0  0  0  0
  190.4170  171.8980  142.3660 N   0  0  0  0  0  0  0  0  0  0  0  0
  192.0660  171.7570  144.2060 C   0  0  2  0  0  3  0  0  0  0  0  0
  189.1280  176.3310  144.4130 C   0  0  0  0  0  0  0  0  0  0  0  0
  189.4140  174.8690  142.4050 N   0  0  0  0  0  0  0  0  0  0  0  0
  194.4510  176.9020  145.6870 C   0  0  0  0  0  2  0  0  0  0  0  0
  189.1490  172.3700  142.9570 C   0  0  0  0  0  2  0  0  0  0  0  0
  191.5530  178.0940  144.5820 O   0  0  0  0  0  0  0  0  0  0  0  0
  193.1520  173.8620  145.1040 C   0  0  1  0  0  3  0  0  0  0  0  0
  194.1320  175.6570  146.5120 C   0  0  0  0  0  2  0  0  0  0  0  0
  192.7690  176.1500  143.8910 C   0  0  1  0  0  3  0  0  0  0  0  0
  191.4860  174.0070  143.2660 C   0  0  1  0  0  3  0  0  0  0  0  0
  192.3420  170.3000  143.8890 C   0  0  0  0  0  1  0  0  0  0  0  0
  191.6290  172.5120  142.9410 C   0  0  2  0  0  3  0  0  0  0  0  0
  187.4250  173.7190  142.0090 O   0  0  0  0  0  0  0  0  0  0  0  0
  194.4280  174.3700  145.7600 C   0  0  0  0  0  2  0  0  0  0  0  0
  192.7940  174.6030  143.7990 C   0  0  2  0  0  3  0  0  0  0  0  0
  188.6230  173.6720  142.3960 C   0  0  0  0  0  0  0  0  0  0  0  0
  188.8030  177.3010  142.0230 C   0  0  0  0  0  2  0  0  0  0  0  0
  186.6080  178.6680  142.3940 C   0  0  0  0  0  1  0  0  0  0  0  0
  187.2400  177.5390  141.1250 S   0  0  0  0  0  0  0  0  0  0  0  0
  190.4370  171.9950  140.9070 C   0  0  0  0  0  2  0  0  0  0  0  0
  192.2220  172.6080  139.2810 C   0  0  0  0  0  1  0  0  0  0  0  0
  191.8130  171.6360  140.3710 C   0  0  0  0  0  2  0  0  0  0  0  0
  1 14  2  0  0  0  0
  1  5  1  0  0  0  0
  2 12  1  0  0  0  0
  4 11  1  0  0  0  0
  6 25  1  6  0  0  0
  6 10  1  0  0  0  0
  8 13  1  0  0  0  0
  9 19  1  6  0  0  0
  9  3  1  0  0  0  0
 10  5  1  0  0  0  0
 10  7  2  0  0  0  0
 11  6  1  0  0  0  0
 12 16  1  0  0  0  0
 15  3  1  6  0  0  0
 15 22  1  0  0  0  0
 17  2  1  1  0  0  0
 17  1  1  0  0  0  0
 18  4  1  6  0  0  0
 18 23  1  0  0  0  0
 20  8  1  1  0  0  0
 20 18  1  0  0  0  0
 20  9  1  0  0  0  0
 21 24  2  0  0  0  0
 22 16  1  0  0  0  0
 23 17  1  0  0  0  0
 23 15  1  0  0  0  0
 24 11  1  0  0  0  0
 24 13  1  0  0  0  0
 27 25  1  0  0  0  0
 27 26  1  0  0  0  0
 28  8  1  0  0  0  0
 29 30  1  0  0  0  0
 30 28  1  0  0  0  0
M  END
>  <MODEL>
8

>  <REMARK>
 VINA RESULT:      -6.1      3.035      7.004
  Name = 
  4 active torsions:
  status: ('A' for Active; 'I' for Inactive)
    1  A    between atoms: C_6  and  C_8
    2  A    between atoms: C_6  and  S_21
    3  A    between atoms: C_7  and  N_10
    4  A    between atoms: C_7  and  C_26
                            x       y       z     vdW  Elec       q    Type
                         _______ _______ _______ _____ _____    ______ ____

>  <TORSDO>
F 4

$$$$
=
 OpenBabel11052417203D

 30 33  0  0  1  0  0  0  0  0999 V2000
  191.3140  174.4700  141.8410 C   0  0  0  0  0  0  0  0  0  0  0  0
  192.2070  172.4610  140.5080 C   0  0  0  0  0  2  0  0  0  0  0  0
  196.0640  174.7270  141.1770 C   0  0  0  0  0  2  0  0  0  0  0  0
  193.1970  174.0900  144.4200 C   0  0  0  0  0  2  0  0  0  0  0  0
  191.6140  175.7740  142.3370 N   0  0  0  0  0  2  0  0  0  0  0  0
  191.2610  175.6700  144.8740 C   0  0  2  0  0  3  0  0  0  0  0  0
  190.5100  177.8540  143.5090 S   0  0  0  0  0  0  0  0  0  0  0  0
  195.7780  175.4000  144.9370 N   0  0  0  0  0  0  0  0  0  0  0  0
  196.2880  175.4340  142.5150 C   0  0  2  0  0  3  0  0  0  0  0  0
  191.0130  176.3000  143.5240 C   0  0  0  0  0  0  0  0  0  0  0  0
  192.6490  175.2560  145.1010 N   0  0  0  0  0  0  0  0  0  0  0  0
  192.0770  173.1440  139.1440 C   0  0  0  0  0  2  0  0  0  0  0  0
  194.8770  176.5380  145.2050 C   0  0  0  0  0  2  0  0  0  0  0  0
  190.1130  174.1540  141.6260 O   0  0  0  0  0  0  0  0  0  0  0  0
  194.5770  174.6040  140.8430 C   0  0  1  0  0  3  0  0  0  0  0  0
  193.0820  174.2660  138.8890 C   0  0  0  0  0  2  0  0  0  0  0  0
  192.3940  173.4270  141.6800 C   0  0  1  0  0  3  0  0  0  0  0  0
  194.0560  174.5810  143.2720 C   0  0  1  0  0  3  0  0  0  0  0  0
  197.7780  175.4690  142.7980 C   0  0  0  0  0  1  0  0  0  0  0  0
  195.5390  174.7180  143.6500 C   0  0  2  0  0  3  0  0  0  0  0  0
  193.1290  176.7650  146.8110 O   0  0  0  0  0  0  0  0  0  0  0  0
  194.4530  173.9590  139.4690 C   0  0  0  0  0  2  0  0  0  0  0  0
  193.8700  173.8100  141.9600 C   0  0  2  0  0  3  0  0  0  0  0  0
  193.5260  176.1700  145.7750 C   0  0  0  0  0  0  0  0  0  0  0  0
  190.1890  174.7260  145.4210 C   0  0  0  0  0  2  0  0  0  0  0  0
  189.3490  176.7410  146.8570 C   0  0  0  0  0  1  0  0  0  0  0  0
  189.7670  175.0050  147.1680 S   0  0  0  0  0  0  0  0  0  0  0  0
  195.8110  174.4300  146.0310 C   0  0  0  0  0  2  0  0  0  0  0  0
  196.7010  172.1050  145.9220 C   0  0  0  0  0  1  0  0  0  0  0  0
  197.0660  173.5770  145.9450 C   0  0  0  0  0  2  0  0  0  0  0  0
  1  5  1  0  0  0  0
  3  9  1  0  0  0  0
  4 11  1  0  0  0  0
  5 10  1  0  0  0  0
  6 11  1  0  0  0  0
  6 25  1  6  0  0  0
  7 10  2  0  0  0  0
  8 13  1  0  0  0  0
  8 28  1  0  0  0  0
  9 19  1  1  0  0  0
  9 20  1  0  0  0  0
 10  6  1  0  0  0  0
 11 24  1  0  0  0  0
 12  2  1  0  0  0  0
 13 24  1  0  0  0  0
 14  1  2  0  0  0  0
 15 22  1  6  0  0  0
 15  3  1  0  0  0  0
 15 23  1  0  0  0  0
 16 12  1  0  0  0  0
 16 22  1  0  0  0  0
 17  2  1  6  0  0  0
 17  1  1  0  0  0  0
 17 23  1  0  0  0  0
 18 20  1  0  0  0  0
 18  4  1  1  0  0  0
 20  8  1  1  0  0  0
 23 18  1  0  0  0  0
 24 21  2  0  0  0  0
 25 27  1  0  0  0  0
 26 27  1  0  0  0  0
 29 30  1  0  0  0  0
 30 28  1  0  0  0  0
M  END
>  <MODEL>
9

>  <REMARK>
 VINA RESULT:      -5.9      3.755      7.274
  Name = 
  4 active torsions:
  status: ('A' for Active; 'I' for Inactive)
    1  A    between atoms: C_6  and  C_8
    2  A    between atoms: C_6  and  S_21
    3  A    between atoms: C_7  and  N_10
    4  A    between atoms: C_7  and  C_26
                            x       y       z     vdW  Elec       q    Type
                         _______ _______ _______ _____ _____    ______ ____

>  <TORSDO>
F 4

$$$$
