=
 OpenBabel11052421033D

 43 48  0  0  1  0  0  0  0  0999 V2000
  191.3760  175.5490  145.4050 C   0  0  1  0  0  3  0  0  0  0  0  0
  185.4610  178.2030  146.0170 C   0  0  2  0  0  3  0  0  0  0  0  0
  190.0330  176.2170  145.2900 C   0  0  0  0  0  0  0  0  0  0  0  0
  187.6260  177.5770  144.9620 C   0  0  0  0  0  0  0  0  0  0  0  0
  185.3640  176.8090  146.4450 N   0  0  0  0  0  2  0  0  0  0  0  0
  184.0790  178.7390  145.7150 C   0  0  0  0  0  1  0  0  0  0  0  0
  187.7370  176.6050  145.9640 C   0  0  0  0  0  0  0  0  0  0  0  0
  186.3300  178.3010  144.7620 C   0  0  0  0  0  2  0  0  0  0  0  0
  186.6300  176.3530  146.7830 O   0  0  0  0  0  0  0  0  0  0  0  0
  189.0640  174.9190  147.2510 C   0  0  0  0  0  1  0  0  0  0  0  0
  188.9480  175.9270  146.1510 C   0  0  0  0  0  0  0  0  0  0  0  0
  189.8810  177.1570  144.3170 N   0  0  0  0  0  0  0  0  0  0  0  0
  188.7160  177.8340  144.1360 C   0  0  0  0  0  3  0  0  0  0  0  0
  191.3780  174.1870  144.7120 C   0  0  0  0  0  2  0  0  0  0  0  0
  188.5360  172.7980  142.4970 C   0  0  0  0  0  2  0  0  0  0  0  0
  188.9970  173.3500  141.1640 C   0  0  0  0  0  0  0  0  0  0  0  0
  191.0580  174.3160  142.2040 C   0  0  0  0  0  2  0  0  0  0  0  0
  189.6380  172.7700  143.5540 C   0  0  0  0  0  2  0  0  0  0  0  0
  190.3800  174.1010  143.5560 C   0  0  1  0  0  3  0  0  0  0  0  0
  190.1130  174.0820  141.0590 C   0  0  0  0  0  3  0  0  0  0  0  0
  188.2260  173.1620  140.0150 O   0  0  0  0  0  0  0  0  0  0  0  0
  188.6220  173.6530  138.7420 C   0  0  0  0  0  1  0  0  0  0  0  0
  192.5220  176.4290  144.9090 C   0  0  0  0  0  2  0  0  0  0  0  0
  194.8370  175.9710  146.5340 O   0  0  0  0  0  0  0  0  0  0  0  0
  194.8150  175.4510  145.3870 C   0  0  0  0  0  0  0  0  0  0  0  0
  193.6720  175.6170  144.5390 N   0  0  0  0  0  2  0  0  0  0  0  0
  195.5480  173.3810  144.2120 C   0  0  2  0  0  3  0  0  0  0  0  0
  196.5440  173.8060  146.0690 C   0  0  0  0  0  2  0  0  0  0  0  0
  195.9950  174.6450  144.9300 C   0  0  2  0  0  3  0  0  0  0  0  0
  196.1160  172.5430  145.3450 C   0  0  0  0  0  2  0  0  0  0  0  0
  196.3340  173.1500  142.9170 C   0  0  2  0  0  3  0  0  0  0  0  0
  194.5250  173.2860  140.5450 C   0  0  0  0  0  2  0  0  0  0  0  0
  194.6990  172.0490  141.3110 N   0  0  0  0  0  0  0  0  0  0  0  0
  196.2340  174.3690  141.9910 C   0  0  0  0  0  2  0  0  0  0  0  0
  195.8010  171.9280  142.2230 C   0  0  0  0  0  0  0  0  0  0  0  0
  196.2590  170.7930  142.5200 O   0  0  0  0  0  0  0  0  0  0  0  0
  194.8320  174.5040  141.4050 C   0  0  0  0  0  2  0  0  0  0  0  0
  193.6460  171.0380  141.3340 C   0  0  0  0  0  3  0  0  0  0  0  0
  191.2950  170.7260  140.3550 C   0  0  0  0  0  2  0  0  0  0  0  0
  191.8070  170.0030  142.7280 C   0  0  0  0  0  2  0  0  0  0  0  0
  191.2260  169.5870  141.3690 C   0  0  0  0  0  2  0  0  0  0  0  0
  192.8500  171.1240  142.6360 C   0  0  0  0  0  2  0  0  0  0  0  0
  192.7480  171.1350  140.0880 C   0  0  0  0  0  2  0  0  0  0  0  0
  1 14  1  6  0  0  0
  2  6  1  6  0  0  0
  2  5  1  0  0  0  0
  3  1  1  0  0  0  0
  3 11  1  0  0  0  0
  4  7  1  0  0  0  0
  5  9  1  0  0  0  0
  7 11  2  0  0  0  0
  7  9  1  0  0  0  0
  8  4  1  0  0  0  0
  8  2  1  0  0  0  0
 11 10  1  0  0  0  0
 12  3  2  0  0  0  0
 13 12  1  0  0  0  0
 13  4  2  0  0  0  0
 15 18  1  0  0  0  0
 16 15  1  0  0  0  0
 17 19  1  0  0  0  0
 18 19  1  0  0  0  0
 19 14  1  1  0  0  0
 20 16  2  0  0  0  0
 20 17  1  0  0  0  0
 21 16  1  0  0  0  0
 22 21  1  0  0  0  0
 23  1  1  0  0  0  0
 25 24  2  0  0  0  0
 26 23  1  0  0  0  0
 26 25  1  0  0  0  0
 27 29  1  0  0  0  0
 27 30  1  1  0  0  0
 29 25  1  1  0  0  0
 29 28  1  0  0  0  0
 30 28  1  0  0  0  0
 31 34  1  6  0  0  0
 31 27  1  0  0  0  0
 32 33  1  0  0  0  0
 32 37  1  0  0  0  0
 33 38  1  0  0  0  0
 33 35  1  0  0  0  0
 35 36  2  0  0  0  0
 35 31  1  0  0  0  0
 37 34  1  0  0  0  0
 38 42  1  0  0  0  0
 39 41  1  0  0  0  0
 41 40  1  0  0  0  0
 42 40  1  0  0  0  0
 43 39  1  0  0  0  0
 43 38  1  0  0  0  0
M  END
>  <MODEL>
1

>  <REMARK>
 VINA RESULT:      -7.5      0.000      0.000
  Name = 
  9 active torsions:
  status: ('A' for Active; 'I' for Inactive)
    1  A    between atoms: C_1  and  C_34
    2  A    between atoms: C_1  and  C_35
    3  A    between atoms: C_3  and  C_4
    4  A    between atoms: C_6  and  C_12
    5  A    between atoms: C_8  and  C_34
    6  A    between atoms: C_11  and  N_14
    7  A    between atoms: N_13  and  C_38
    8  A    between atoms: C_19  and  O_25
    9  A    between atoms: C_34  and  C_38
                            x       y       z     vdW  Elec       q    Type
                         _______ _______ _______ _____ _____    ______ ____

>  <TORSDO>
F 9

$$$$
=
 OpenBabel11052421033D

 43 48  0  0  1  0  0  0  0  0999 V2000
  191.5090  175.0600  145.9800 C   0  0  1  0  0  3  0  0  0  0  0  0
  185.8370  178.2590  146.0670 C   0  0  2  0  0  3  0  0  0  0  0  0
  190.2600  175.8680  145.7540 C   0  0  0  0  0  0  0  0  0  0  0  0
  188.0540  177.4870  145.2410 C   0  0  0  0  0  0  0  0  0  0  0  0
  185.5550  176.8560  146.3670 N   0  0  0  0  0  2  0  0  0  0  0  0
  184.5620  178.9540  145.6410 C   0  0  0  0  0  1  0  0  0  0  0  0
  187.9420  176.4430  146.1670 C   0  0  0  0  0  0  0  0  0  0  0  0
  186.8680  178.3520  144.9420 C   0  0  0  0  0  2  0  0  0  0  0  0
  186.7180  176.2510  146.8210 O   0  0  0  0  0  0  0  0  0  0  0  0
  188.9250  174.5460  147.4690 C   0  0  0  0  0  1  0  0  0  0  0  0
  189.0500  175.6330  146.4480 C   0  0  0  0  0  0  0  0  0  0  0  0
  190.3250  176.8830  144.8480 N   0  0  0  0  0  0  0  0  0  0  0  0
  189.2620  177.6860  144.5800 C   0  0  0  0  0  3  0  0  0  0  0  0
  191.8550  174.2210  144.7500 C   0  0  0  0  0  2  0  0  0  0  0  0
  188.9860  172.2900  143.0300 C   0  0  0  0  0  2  0  0  0  0  0  0
  188.9380  173.0660  141.7310 C   0  0  0  0  0  0  0  0  0  0  0  0
  190.8850  174.4770  142.4260 C   0  0  0  0  0  2  0  0  0  0  0  0
  190.2910  172.4800  143.8000 C   0  0  0  0  0  2  0  0  0  0  0  0
  190.6500  173.9610  143.8440 C   0  0  1  0  0  3  0  0  0  0  0  0
  189.7700  174.0880  141.4960 C   0  0  0  0  0  3  0  0  0  0  0  0
  187.9730  172.7700  140.7650 O   0  0  0  0  0  0  0  0  0  0  0  0
  188.2800  172.6880  139.3810 C   0  0  0  0  0  1  0  0  0  0  0  0
  192.6950  175.9110  146.4260 C   0  0  0  0  0  2  0  0  0  0  0  0
  194.8050  176.8290  144.7190 O   0  0  0  0  0  0  0  0  0  0  0  0
  194.9550  175.7150  145.2870 C   0  0  0  0  0  0  0  0  0  0  0  0
  193.9500  175.2160  146.1780 N   0  0  0  0  0  2  0  0  0  0  0  0
  195.9310  173.7470  144.1120 C   0  0  2  0  0  3  0  0  0  0  0  0
  196.4850  173.9750  146.1770 C   0  0  0  0  0  2  0  0  0  0  0  0
  196.2060  174.9290  145.0310 C   0  0  2  0  0  3  0  0  0  0  0  0
  196.2290  172.7950  145.2580 C   0  0  0  0  0  2  0  0  0  0  0  0
  196.9880  173.6210  143.0110 C   0  0  2  0  0  3  0  0  0  0  0  0
  195.9050  174.5700  140.3950 C   0  0  0  0  0  2  0  0  0  0  0  0
  195.6920  173.1990  140.8650 N   0  0  0  0  0  0  0  0  0  0  0  0
  197.3120  174.9910  142.4020 C   0  0  0  0  0  2  0  0  0  0  0  0
  196.4850  172.6870  141.9450 C   0  0  0  0  0  0  0  0  0  0  0  0
  196.6810  171.4480  142.0590 O   0  0  0  0  0  0  0  0  0  0  0  0
  196.1470  175.5130  141.5660 C   0  0  0  0  0  2  0  0  0  0  0  0
  194.5340  172.4330  140.4090 C   0  0  0  0  0  3  0  0  0  0  0  0
  192.3290  172.8790  139.1780 C   0  0  0  0  0  2  0  0  0  0  0  0
  192.4060  171.2790  141.1390 C   0  0  0  0  0  2  0  0  0  0  0  0
  191.9810  171.4790  139.6770 C   0  0  0  0  0  2  0  0  0  0  0  0
  193.5750  172.1730  141.5710 C   0  0  0  0  0  2  0  0  0  0  0  0
  193.8430  173.1160  139.2170 C   0  0  0  0  0  2  0  0  0  0  0  0
  1 14  1  6  0  0  0
  1 23  1  0  0  0  0
  2  6  1  6  0  0  0
  2  5  1  0  0  0  0
  3  1  1  0  0  0  0
  3 11  1  0  0  0  0
  4  7  1  0  0  0  0
  5  9  1  0  0  0  0
  7 11  2  0  0  0  0
  7  9  1  0  0  0  0
  8  4  1  0  0  0  0
  8  2  1  0  0  0  0
 11 10  1  0  0  0  0
 12  3  2  0  0  0  0
 13 12  1  0  0  0  0
 13  4  2  0  0  0  0
 15 18  1  0  0  0  0
 16 15  1  0  0  0  0
 17 19  1  0  0  0  0
 18 19  1  0  0  0  0
 19 14  1  1  0  0  0
 20 16  2  0  0  0  0
 20 17  1  0  0  0  0
 21 16  1  0  0  0  0
 22 21  1  0  0  0  0
 24 25  2  0  0  0  0
 25 26  1  0  0  0  0
 26 23  1  0  0  0  0
 27 29  1  0  0  0  0
 27 30  1  1  0  0  0
 29 25  1  1  0  0  0
 29 28  1  0  0  0  0
 30 28  1  0  0  0  0
 31 34  1  6  0  0  0
 31 27  1  0  0  0  0
 32 33  1  0  0  0  0
 32 37  1  0  0  0  0
 33 35  1  0  0  0  0
 35 36  2  0  0  0  0
 35 31  1  0  0  0  0
 37 34  1  0  0  0  0
 38 33  1  0  0  0  0
 38 42  1  0  0  0  0
 39 43  1  0  0  0  0
 39 41  1  0  0  0  0
 40 42  1  0  0  0  0
 41 40  1  0  0  0  0
 43 38  1  0  0  0  0
M  END
>  <MODEL>
2

>  <REMARK>
 VINA RESULT:      -7.3      1.002      1.207
  Name = 
  9 active torsions:
  status: ('A' for Active; 'I' for Inactive)
    1  A    between atoms: C_1  and  C_34
    2  A    between atoms: C_1  and  C_35
    3  A    between atoms: C_3  and  C_4
    4  A    between atoms: C_6  and  C_12
    5  A    between atoms: C_8  and  C_34
    6  A    between atoms: C_11  and  N_14
    7  A    between atoms: N_13  and  C_38
    8  A    between atoms: C_19  and  O_25
    9  A    between atoms: C_34  and  C_38
                            x       y       z     vdW  Elec       q    Type
                         _______ _______ _______ _____ _____    ______ ____

>  <TORSDO>
F 9

$$$$
=
 OpenBabel11052421033D

 43 48  0  0  1  0  0  0  0  0999 V2000
  190.4210  174.3560  145.1340 C   0  0  1  0  0  3  0  0  0  0  0  0
  184.9430  177.8770  145.1750 C   0  0  2  0  0  3  0  0  0  0  0  0
  189.2190  175.2220  145.3940 C   0  0  0  0  0  0  0  0  0  0  0  0
  186.9860  176.7510  146.0440 C   0  0  0  0  0  0  0  0  0  0  0  0
  185.7890  178.3910  144.0990 N   0  0  0  0  0  2  0  0  0  0  0  0
  183.8860  178.9020  145.5240 C   0  0  0  0  0  1  0  0  0  0  0  0
  187.4210  176.7000  144.7150 C   0  0  0  0  0  0  0  0  0  0  0  0
  185.7970  177.5870  146.4100 C   0  0  0  0  0  2  0  0  0  0  0  0
  186.7080  177.4150  143.7450 O   0  0  0  0  0  0  0  0  0  0  0  0
  188.9630  175.8440  142.9410 C   0  0  0  0  0  1  0  0  0  0  0  0
  188.5330  175.9200  144.3710 C   0  0  0  0  0  0  0  0  0  0  0  0
  188.7740  175.3110  146.6770 N   0  0  0  0  0  0  0  0  0  0  0  0
  187.6860  176.0510  147.0200 C   0  0  0  0  0  3  0  0  0  0  0  0
  191.4780  174.5360  146.2240 C   0  0  0  0  0  2  0  0  0  0  0  0
  194.8190  176.4550  145.9600 C   0  0  0  0  0  2  0  0  0  0  0  0
  194.9780  176.4270  144.4530 C   0  0  0  0  0  0  0  0  0  0  0  0
  192.7750  175.2710  144.1780 C   0  0  0  0  0  2  0  0  0  0  0  0
  193.3910  176.1720  146.4220 C   0  0  0  0  0  2  0  0  0  0  0  0
  192.8390  174.9650  145.6730 C   0  0  1  0  0  3  0  0  0  0  0  0
  194.0700  175.8380  143.6660 C   0  0  0  0  0  3  0  0  0  0  0  0
  196.1190  176.9620  143.8520 O   0  0  0  0  0  0  0  0  0  0  0  0
  197.1250  176.1480  143.2650 C   0  0  0  0  0  1  0  0  0  0  0  0
  190.0620  172.8840  144.9430 C   0  0  0  0  0  2  0  0  0  0  0  0
  188.7630  172.3220  142.4520 O   0  0  0  0  0  0  0  0  0  0  0  0
  189.9910  172.0590  142.5430 C   0  0  0  0  0  0  0  0  0  0  0  0
  190.7050  172.3470  143.7520 N   0  0  0  0  0  2  0  0  0  0  0  0
  192.2040  171.6400  141.4780 C   0  0  2  0  0  3  0  0  0  0  0  0
  190.6700  172.4060  140.1810 C   0  0  0  0  0  2  0  0  0  0  0  0
  190.6970  171.4570  141.3650 C   0  0  2  0  0  3  0  0  0  0  0  0
  192.1740  172.5740  140.2800 C   0  0  0  0  0  2  0  0  0  0  0  0
  192.9620  170.3510  141.1440 C   0  0  2  0  0  3  0  0  0  0  0  0
  193.8500  168.9720  143.6390 C   0  0  0  0  0  2  0  0  0  0  0  0
  194.6430  170.0410  143.0260 N   0  0  0  0  0  0  0  0  0  0  0  0
  192.2530  169.1280  141.7390 C   0  0  0  0  0  2  0  0  0  0  0  0
  194.3640  170.4480  141.6790 C   0  0  0  0  0  0  0  0  0  0  0  0
  195.2640  170.9760  140.9750 O   0  0  0  0  0  0  0  0  0  0  0  0
  192.3810  169.1010  143.2600 C   0  0  0  0  0  2  0  0  0  0  0  0
  195.5490  170.8490  143.8380 C   0  0  0  0  0  3  0  0  0  0  0  0
  196.6870  170.6970  146.1330 C   0  0  0  0  0  2  0  0  0  0  0  0
  195.7290  172.8940  145.3140 C   0  0  0  0  0  2  0  0  0  0  0  0
  196.9610  172.1790  145.8880 C   0  0  0  0  0  2  0  0  0  0  0  0
  194.7820  171.9690  144.5410 C   0  0  0  0  0  2  0  0  0  0  0  0
  196.3500  169.9770  144.8220 C   0  0  0  0  0  2  0  0  0  0  0  0
  1 23  1  1  0  0  0
  1  3  1  0  0  0  0
  1 14  1  0  0  0  0
  2  6  1  1  0  0  0
  2  8  1  0  0  0  0
  3 12  1  0  0  0  0
  4  8  1  0  0  0  0
  4 13  1  0  0  0  0
  5  2  1  0  0  0  0
  7  4  2  0  0  0  0
  9  5  1  0  0  0  0
  9  7  1  0  0  0  0
 10 11  1  0  0  0  0
 11  7  1  0  0  0  0
 11  3  2  0  0  0  0
 12 13  2  0  0  0  0
 15 18  1  0  0  0  0
 16 15  1  0  0  0  0
 17 19  1  0  0  0  0
 19 14  1  1  0  0  0
 19 18  1  0  0  0  0
 20 17  1  0  0  0  0
 20 16  2  0  0  0  0
 21 16  1  0  0  0  0
 22 21  1  0  0  0  0
 24 25  2  0  0  0  0
 25 26  1  0  0  0  0
 26 23  1  0  0  0  0
 27 30  1  6  0  0  0
 28 30  1  0  0  0  0
 28 29  1  0  0  0  0
 29 27  1  0  0  0  0
 29 25  1  1  0  0  0
 31 27  1  0  0  0  0
 31 35  1  0  0  0  0
 31 34  1  1  0  0  0
 33 32  1  0  0  0  0
 33 38  1  0  0  0  0
 34 37  1  0  0  0  0
 35 33  1  0  0  0  0
 36 35  2  0  0  0  0
 37 32  1  0  0  0  0
 38 42  1  0  0  0  0
 38 43  1  0  0  0  0
 40 41  1  0  0  0  0
 41 39  1  0  0  0  0
 42 40  1  0  0  0  0
 43 39  1  0  0  0  0
M  END
>  <MODEL>
3

>  <REMARK>
 VINA RESULT:      -7.3      1.995      5.189
  Name = 
  9 active torsions:
  status: ('A' for Active; 'I' for Inactive)
    1  A    between atoms: C_1  and  C_34
    2  A    between atoms: C_1  and  C_35
    3  A    between atoms: C_3  and  C_4
    4  A    between atoms: C_6  and  C_12
    5  A    between atoms: C_8  and  C_34
    6  A    between atoms: C_11  and  N_14
    7  A    between atoms: N_13  and  C_38
    8  A    between atoms: C_19  and  O_25
    9  A    between atoms: C_34  and  C_38
                            x       y       z     vdW  Elec       q    Type
                         _______ _______ _______ _____ _____    ______ ____

>  <TORSDO>
F 9

$$$$
=
 OpenBabel11052421033D

 43 48  0  0  1  0  0  0  0  0999 V2000
  191.3400  175.9000  144.0170 C   0  0  1  0  0  3  0  0  0  0  0  0
  185.5620  178.1430  146.0170 C   0  0  2  0  0  3  0  0  0  0  0  0
  189.9660  176.4760  144.2250 C   0  0  0  0  0  0  0  0  0  0  0  0
  187.4650  177.6720  144.4830 C   0  0  0  0  0  0  0  0  0  0  0  0
  185.6540  176.7410  146.4230 N   0  0  0  0  0  2  0  0  0  0  0  0
  184.1160  178.5860  146.0490 C   0  0  0  0  0  1  0  0  0  0  0  0
  187.8630  176.7030  145.4110 C   0  0  0  0  0  0  0  0  0  0  0  0
  186.1140  178.3090  144.6000 C   0  0  0  0  0  2  0  0  0  0  0  0
  186.9900  176.3700  146.4550 O   0  0  0  0  0  0  0  0  0  0  0  0
  189.5540  175.1000  146.3240 C   0  0  0  0  0  1  0  0  0  0  0  0
  189.1260  176.1070  145.3030 C   0  0  0  0  0  0  0  0  0  0  0  0
  189.5350  177.4110  143.3340 N   0  0  0  0  0  0  0  0  0  0  0  0
  188.3190  178.0090  143.4380 C   0  0  0  0  0  3  0  0  0  0  0  0
  191.5950  175.5980  142.5410 C   0  0  0  0  0  2  0  0  0  0  0  0
  190.0550  172.3340  141.1650 C   0  0  0  0  0  2  0  0  0  0  0  0
  190.6730  171.3610  142.1480 C   0  0  0  0  0  0  0  0  0  0  0  0
  191.7620  173.2260  143.4110 C   0  0  0  0  0  2  0  0  0  0  0  0
  190.0820  173.7820  141.6510 C   0  0  0  0  0  2  0  0  0  0  0  0
  191.4650  174.1120  142.2020 C   0  0  1  0  0  3  0  0  0  0  0  0
  191.4870  171.7760  143.1250 C   0  0  0  0  0  3  0  0  0  0  0  0
  190.4560  169.9880  142.0140 O   0  0  0  0  0  0  0  0  0  0  0  0
  191.5190  169.0450  142.0060 C   0  0  0  0  0  1  0  0  0  0  0  0
  192.4450  176.7720  144.6070 C   0  0  0  0  0  2  0  0  0  0  0  0
  194.1890  175.6640  146.5930 O   0  0  0  0  0  0  0  0  0  0  0  0
  194.5930  175.6740  145.4000 C   0  0  0  0  0  0  0  0  0  0  0  0
  193.7540  176.1860  144.3560 N   0  0  0  0  0  2  0  0  0  0  0  0
  195.9190  174.2490  143.8460 C   0  0  2  0  0  3  0  0  0  0  0  0
  196.2550  173.9130  145.9430 C   0  0  0  0  0  2  0  0  0  0  0  0
  195.9540  175.1300  145.0870 C   0  0  2  0  0  3  0  0  0  0  0  0
  196.2390  173.0370  144.7040 C   0  0  0  0  0  2  0  0  0  0  0  0
  197.0760  174.5610  142.8910 C   0  0  2  0  0  3  0  0  0  0  0  0
  196.0690  175.8840  140.4110 C   0  0  0  0  0  2  0  0  0  0  0  0
  196.0860  174.4260  140.5530 N   0  0  0  0  0  0  0  0  0  0  0  0
  197.1790  176.0680  142.6290 C   0  0  0  0  0  2  0  0  0  0  0  0
  196.8630  173.8240  141.5980 C   0  0  0  0  0  0  0  0  0  0  0  0
  197.2860  172.6440  141.4760 O   0  0  0  0  0  0  0  0  0  0  0  0
  196.0150  176.5610  141.7730 C   0  0  0  0  0  2  0  0  0  0  0  0
  195.1470  173.5980  139.8000 C   0  0  0  0  0  3  0  0  0  0  0  0
  192.7770  173.8110  138.8410 C   0  0  0  0  0  2  0  0  0  0  0  0
  193.5310  171.6580  139.9430 C   0  0  0  0  0  2  0  0  0  0  0  0
  192.9000  172.2960  138.6970 C   0  0  0  0  0  2  0  0  0  0  0  0
  194.4430  172.6100  140.7290 C   0  0  0  0  0  2  0  0  0  0  0  0
  194.1570  174.4610  138.9980 C   0  0  0  0  0  2  0  0  0  0  0  0
  1 14  1  6  0  0  0
  1  3  1  0  0  0  0
  1 23  1  0  0  0  0
  2  6  1  6  0  0  0
  2  5  1  0  0  0  0
  3 11  1  0  0  0  0
  4  8  1  0  0  0  0
  4  7  1  0  0  0  0
  5  9  1  0  0  0  0
  7  9  1  0  0  0  0
  8  2  1  0  0  0  0
 11  7  2  0  0  0  0
 11 10  1  0  0  0  0
 12 13  1  0  0  0  0
 12  3  2  0  0  0  0
 13  4  2  0  0  0  0
 15 18  1  0  0  0  0
 15 16  1  0  0  0  0
 16 20  2  0  0  0  0
 18 19  1  0  0  0  0
 19 14  1  1  0  0  0
 19 17  1  0  0  0  0
 20 17  1  0  0  0  0
 21 16  1  0  0  0  0
 22 21  1  0  0  0  0
 25 24  2  0  0  0  0
 26 23  1  0  0  0  0
 26 25  1  0  0  0  0
 27 30  1  1  0  0  0
 27 29  1  0  0  0  0
 29 25  1  1  0  0  0
 29 28  1  0  0  0  0
 30 28  1  0  0  0  0
 31 34  1  6  0  0  0
 31 27  1  0  0  0  0
 32 33  1  0  0  0  0
 32 37  1  0  0  0  0
 33 35  1  0  0  0  0
 35 31  1  0  0  0  0
 36 35  2  0  0  0  0
 37 34  1  0  0  0  0
 38 33  1  0  0  0  0
 38 42  1  0  0  0  0
 39 43  1  0  0  0  0
 40 42  1  0  0  0  0
 41 39  1  0  0  0  0
 41 40  1  0  0  0  0
 43 38  1  0  0  0  0
M  END
>  <MODEL>
4

>  <REMARK>
 VINA RESULT:      -7.2      1.473      2.318
  Name = 
  9 active torsions:
  status: ('A' for Active; 'I' for Inactive)
    1  A    between atoms: C_1  and  C_34
    2  A    between atoms: C_1  and  C_35
    3  A    between atoms: C_3  and  C_4
    4  A    between atoms: C_6  and  C_12
    5  A    between atoms: C_8  and  C_34
    6  A    between atoms: C_11  and  N_14
    7  A    between atoms: N_13  and  C_38
    8  A    between atoms: C_19  and  O_25
    9  A    between atoms: C_34  and  C_38
                            x       y       z     vdW  Elec       q    Type
                         _______ _______ _______ _____ _____    ______ ____

>  <TORSDO>
F 9

$$$$
=
 OpenBabel11052421033D

 43 48  0  0  1  0  0  0  0  0999 V2000
  190.8700  174.8410  145.3700 C   0  0  1  0  0  3  0  0  0  0  0  0
  185.2660  178.1420  145.0410 C   0  0  2  0  0  3  0  0  0  0  0  0
  189.5880  175.6060  145.5570 C   0  0  0  0  0  0  0  0  0  0  0  0
  187.1800  176.9140  146.0510 C   0  0  0  0  0  0  0  0  0  0  0  0
  186.2600  178.8850  144.2690 N   0  0  0  0  0  2  0  0  0  0  0  0
  184.0990  179.0470  145.3720 C   0  0  0  0  0  1  0  0  0  0  0  0
  187.8550  177.1460  144.8460 C   0  0  0  0  0  0  0  0  0  0  0  0
  185.8940  177.6270  146.3360 C   0  0  0  0  0  2  0  0  0  0  0  0
  187.2890  178.0250  143.9150 O   0  0  0  0  0  0  0  0  0  0  0  0
  189.7480  176.7080  143.2700 C   0  0  0  0  0  1  0  0  0  0  0  0
  189.0580  176.4800  144.5780 C   0  0  0  0  0  0  0  0  0  0  0  0
  188.9100  175.4200  146.7230 N   0  0  0  0  0  0  0  0  0  0  0  0
  187.7330  176.0470  146.9880 C   0  0  0  0  0  3  0  0  0  0  0  0
  191.7690  174.9590  146.6010 C   0  0  0  0  0  2  0  0  0  0  0  0
  194.9290  176.4950  144.9990 C   0  0  0  0  0  2  0  0  0  0  0  0
  195.7570  175.2330  144.8770 C   0  0  0  0  0  0  0  0  0  0  0  0
  193.8830  173.8390  145.7750 C   0  0  0  0  0  2  0  0  0  0  0  0
  193.4390  176.2240  145.1910 C   0  0  0  0  0  2  0  0  0  0  0  0
  193.2450  175.1430  146.2490 C   0  0  1  0  0  3  0  0  0  0  0  0
  195.2880  174.0470  145.2830 C   0  0  0  0  0  3  0  0  0  0  0  0
  197.0660  175.2890  144.3920 O   0  0  0  0  0  0  0  0  0  0  0  0
  197.8810  174.1330  144.2610 C   0  0  0  0  0  1  0  0  0  0  0  0
  190.6400  173.3820  144.9850 C   0  0  0  0  0  2  0  0  0  0  0  0
  188.5740  171.8830  143.6830 O   0  0  0  0  0  0  0  0  0  0  0  0
  189.4250  172.4580  142.9560 C   0  0  0  0  0  0  0  0  0  0  0  0
  190.4640  173.2490  143.5460 N   0  0  0  0  0  2  0  0  0  0  0  0
  190.3470  173.2010  140.7640 C   0  0  2  0  0  3  0  0  0  0  0  0
  188.2030  173.1770  140.9190 C   0  0  0  0  0  2  0  0  0  0  0  0
  189.3260  172.3170  141.4660 C   0  0  2  0  0  3  0  0  0  0  0  0
  189.2170  174.0480  140.2030 C   0  0  0  0  0  2  0  0  0  0  0  0
  191.0750  172.4530  139.6420 C   0  0  2  0  0  3  0  0  0  0  0  0
  193.9140  171.9190  140.3990 C   0  0  0  0  0  2  0  0  0  0  0  0
  193.5040  173.1900  139.7950 N   0  0  0  0  0  0  0  0  0  0  0  0
  191.5840  171.0920  140.1320 C   0  0  0  0  0  2  0  0  0  0  0  0
  192.2240  173.2900  139.1530 C   0  0  0  0  0  0  0  0  0  0  0  0
  192.0330  174.1440  138.2470 O   0  0  0  0  0  0  0  0  0  0  0  0
  192.7430  171.2540  141.1110 C   0  0  0  0  0  2  0  0  0  0  0  0
  194.2720  174.4070  140.0390 C   0  0  0  0  0  3  0  0  0  0  0  0
  196.5860  175.0400  140.9490 C   0  0  0  0  0  2  0  0  0  0  0  0
  194.5440  176.4050  141.5660 C   0  0  0  0  0  2  0  0  0  0  0  0
  195.9750  176.4370  141.0100 C   0  0  0  0  0  2  0  0  0  0  0  0
  193.8250  175.0680  141.3430 C   0  0  0  0  0  2  0  0  0  0  0  0
  195.7860  174.1320  140.0080 C   0  0  0  0  0  2  0  0  0  0  0  0
  1 23  1  1  0  0  0
  1  3  1  0  0  0  0
  1 14  1  0  0  0  0
  2  6  1  1  0  0  0
  2  8  1  0  0  0  0
  3 12  1  0  0  0  0
  4  8  1  0  0  0  0
  4 13  1  0  0  0  0
  5  2  1  0  0  0  0
  7  4  2  0  0  0  0
  9  5  1  0  0  0  0
  9  7  1  0  0  0  0
 10 11  1  0  0  0  0
 11  7  1  0  0  0  0
 11  3  2  0  0  0  0
 12 13  2  0  0  0  0
 15 18  1  0  0  0  0
 16 15  1  0  0  0  0
 16 20  2  0  0  0  0
 17 19  1  0  0  0  0
 18 19  1  0  0  0  0
 19 14  1  6  0  0  0
 20 17  1  0  0  0  0
 21 16  1  0  0  0  0
 22 21  1  0  0  0  0
 25 26  1  0  0  0  0
 25 24  2  0  0  0  0
 26 23  1  0  0  0  0
 27 30  1  6  0  0  0
 27 29  1  0  0  0  0
 28 29  1  0  0  0  0
 29 25  1  1  0  0  0
 30 28  1  0  0  0  0
 31 34  1  1  0  0  0
 31 27  1  0  0  0  0
 32 37  1  0  0  0  0
 33 38  1  0  0  0  0
 33 32  1  0  0  0  0
 34 37  1  0  0  0  0
 35 31  1  0  0  0  0
 35 33  1  0  0  0  0
 36 35  2  0  0  0  0
 38 42  1  0  0  0  0
 39 41  1  0  0  0  0
 41 40  1  0  0  0  0
 42 40  1  0  0  0  0
 43 38  1  0  0  0  0
 43 39  1  0  0  0  0
M  END
>  <MODEL>
5

>  <REMARK>
 VINA RESULT:      -7.1      1.962      5.558
  Name = 
  9 active torsions:
  status: ('A' for Active; 'I' for Inactive)
    1  A    between atoms: C_1  and  C_34
    2  A    between atoms: C_1  and  C_35
    3  A    between atoms: C_3  and  C_4
    4  A    between atoms: C_6  and  C_12
    5  A    between atoms: C_8  and  C_34
    6  A    between atoms: C_11  and  N_14
    7  A    between atoms: N_13  and  C_38
    8  A    between atoms: C_19  and  O_25
    9  A    between atoms: C_34  and  C_38
                            x       y       z     vdW  Elec       q    Type
                         _______ _______ _______ _____ _____    ______ ____

>  <TORSDO>
F 9

$$$$
=
 OpenBabel11052421033D

 43 48  0  0  1  0  0  0  0  0999 V2000
  195.1390  175.1280  143.9190 C   0  0  1  0  0  3  0  0  0  0  0  0
  196.9860  175.2810  137.6770 C   0  0  2  0  0  3  0  0  0  0  0  0
  195.8110  175.1560  142.5730 C   0  0  0  0  0  0  0  0  0  0  0  0
  197.1840  175.3170  140.1570 C   0  0  0  0  0  0  0  0  0  0  0  0
  196.1120  174.1220  137.8480 N   0  0  0  0  0  2  0  0  0  0  0  0
  197.7870  175.1290  136.4010 C   0  0  0  0  0  1  0  0  0  0  0  0
  195.9000  174.7600  140.1830 C   0  0  0  0  0  0  0  0  0  0  0  0
  197.9410  175.3910  138.8660 C   0  0  0  0  0  2  0  0  0  0  0  0
  195.3370  174.3080  138.9830 O   0  0  0  0  0  0  0  0  0  0  0  0
  193.8050  174.1270  141.3950 C   0  0  0  0  0  1  0  0  0  0  0  0
  195.1910  174.6890  141.3890 C   0  0  0  0  0  0  0  0  0  0  0  0
  197.0670  175.6760  142.5090 N   0  0  0  0  0  0  0  0  0  0  0  0
  197.7580  175.7650  141.3420 C   0  0  0  0  0  3  0  0  0  0  0  0
  196.1400  174.8150  145.0310 C   0  0  0  0  0  2  0  0  0  0  0  0
  197.0170  171.0900  145.5510 C   0  0  0  0  0  2  0  0  0  0  0  0
  195.6160  170.5560  145.7660 C   0  0  0  0  0  0  0  0  0  0  0  0
  194.6220  172.8170  145.3640 C   0  0  0  0  0  2  0  0  0  0  0  0
  197.0440  172.4620  144.8810 C   0  0  0  0  0  2  0  0  0  0  0  0
  196.0290  173.3810  145.5510 C   0  0  1  0  0  3  0  0  0  0  0  0
  194.5480  171.3610  145.7310 C   0  0  0  0  0  3  0  0  0  0  0  0
  195.4120  169.2090  146.0710 O   0  0  0  0  0  0  0  0  0  0  0  0
  195.8110  168.6390  147.3100 C   0  0  0  0  0  1  0  0  0  0  0  0
  194.3550  176.4040  144.2180 C   0  0  0  0  0  2  0  0  0  0  0  0
  193.9640  176.8940  147.0140 O   0  0  0  0  0  0  0  0  0  0  0  0
  193.0250  176.3450  146.3800 C   0  0  0  0  0  0  0  0  0  0  0  0
  193.1470  176.1020  144.9730 N   0  0  0  0  0  2  0  0  0  0  0  0
  190.5360  176.4570  146.3780 C   0  0  2  0  0  3  0  0  0  0  0  0
  191.4950  176.9410  148.2410 C   0  0  0  0  0  2  0  0  0  0  0  0
  191.7740  175.9640  147.1140 C   0  0  2  0  0  3  0  0  0  0  0  0
  190.2500  177.4200  147.5180 C   0  0  0  0  0  2  0  0  0  0  0  0
  189.4530  175.3760  146.2940 C   0  0  2  0  0  3  0  0  0  0  0  0
  187.9210  175.6130  143.7430 C   0  0  0  0  0  2  0  0  0  0  0  0
  187.5700  176.4010  144.9280 N   0  0  0  0  0  0  0  0  0  0  0  0
  189.6790  174.4680  145.0790 C   0  0  0  0  0  2  0  0  0  0  0  0
  188.1040  176.0320  146.2080 C   0  0  0  0  0  0  0  0  0  0  0  0
  187.4930  176.3430  147.2640 O   0  0  0  0  0  0  0  0  0  0  0  0
  189.3880  175.2070  143.7760 C   0  0  0  0  0  2  0  0  0  0  0  0
  186.8810  177.6810  144.7880 C   0  0  0  0  0  3  0  0  0  0  0  0
  184.4770  178.5650  144.9190 C   0  0  0  0  0  2  0  0  0  0  0  0
  186.0650  179.4160  143.1390 C   0  0  0  0  0  2  0  0  0  0  0  0
  185.0920  179.7990  144.2640 C   0  0  0  0  0  2  0  0  0  0  0  0
  186.6900  178.0260  143.3110 C   0  0  0  0  0  2  0  0  0  0  0  0
  185.5570  177.6940  145.5710 C   0  0  0  0  0  2  0  0  0  0  0  0
  1 23  1  1  0  0  0
  1 14  1  0  0  0  0
  2  6  1  6  0  0  0
  2  5  1  0  0  0  0
  2  8  1  0  0  0  0
  3  1  1  0  0  0  0
  4  7  2  0  0  0  0
  4 13  1  0  0  0  0
  5  9  1  0  0  0  0
  7 11  1  0  0  0  0
  8  4  1  0  0  0  0
  9  7  1  0  0  0  0
 11 10  1  0  0  0  0
 11  3  2  0  0  0  0
 12  3  1  0  0  0  0
 13 12  2  0  0  0  0
 15 16  1  0  0  0  0
 16 21  1  0  0  0  0
 17 19  1  0  0  0  0
 17 20  1  0  0  0  0
 18 19  1  0  0  0  0
 18 15  1  0  0  0  0
 19 14  1  6  0  0  0
 20 16  2  0  0  0  0
 21 22  1  0  0  0  0
 23 26  1  0  0  0  0
 25 24  2  0  0  0  0
 26 25  1  0  0  0  0
 27 29  1  0  0  0  0
 27 30  1  1  0  0  0
 29 25  1  6  0  0  0
 29 28  1  0  0  0  0
 30 28  1  0  0  0  0
 31 34  1  6  0  0  0
 31 27  1  0  0  0  0
 32 37  1  0  0  0  0
 32 33  1  0  0  0  0
 33 35  1  0  0  0  0
 35 31  1  0  0  0  0
 35 36  2  0  0  0  0
 37 34  1  0  0  0  0
 38 33  1  0  0  0  0
 38 43  1  0  0  0  0
 39 43  1  0  0  0  0
 40 42  1  0  0  0  0
 40 41  1  0  0  0  0
 41 39  1  0  0  0  0
 42 38  1  0  0  0  0
M  END
>  <MODEL>
6

>  <REMARK>
 VINA RESULT:      -6.9      2.692      9.119
  Name = 
  9 active torsions:
  status: ('A' for Active; 'I' for Inactive)
    1  A    between atoms: C_1  and  C_34
    2  A    between atoms: C_1  and  C_35
    3  A    between atoms: C_3  and  C_4
    4  A    between atoms: C_6  and  C_12
    5  A    between atoms: C_8  and  C_34
    6  A    between atoms: C_11  and  N_14
    7  A    between atoms: N_13  and  C_38
    8  A    between atoms: C_19  and  O_25
    9  A    between atoms: C_34  and  C_38
                            x       y       z     vdW  Elec       q    Type
                         _______ _______ _______ _____ _____    ______ ____

>  <TORSDO>
F 9

$$$$
=
 OpenBabel11052421033D

 43 48  0  0  1  0  0  0  0  0999 V2000
  186.5300  177.8970  142.1340 C   0  0  1  0  0  3  0  0  0  0  0  0
  180.2420  179.4040  141.3580 C   0  0  2  0  0  3  0  0  0  0  0  0
  185.0760  178.0500  141.7780 C   0  0  0  0  0  0  0  0  0  0  0  0
  182.4330  178.2980  140.9420 C   0  0  0  0  0  0  0  0  0  0  0  0
  180.4470  179.0870  142.7710 N   0  0  0  0  0  2  0  0  0  0  0  0
  178.7670  179.3270  141.0300 C   0  0  0  0  0  1  0  0  0  0  0  0
  182.7860  178.7000  142.2360 C   0  0  0  0  0  0  0  0  0  0  0  0
  181.0090  178.4080  140.4870 C   0  0  0  0  0  2  0  0  0  0  0  0
  181.7940  179.2280  143.0710 O   0  0  0  0  0  0  0  0  0  0  0  0
  184.4860  179.0660  144.0340 C   0  0  0  0  0  1  0  0  0  0  0  0
  184.1160  178.5970  142.6620 C   0  0  0  0  0  0  0  0  0  0  0  0
  184.6900  177.6560  140.5340 N   0  0  0  0  0  0  0  0  0  0  0  0
  183.4050  177.7660  140.1020 C   0  0  0  0  0  3  0  0  0  0  0  0
  186.7330  176.7880  143.1660 C   0  0  0  0  0  2  0  0  0  0  0  0
  189.8830  177.7580  145.1780 C   0  0  0  0  0  2  0  0  0  0  0  0
  189.4340  177.2840  146.5440 C   0  0  0  0  0  0  0  0  0  0  0  0
  187.2910  176.3970  145.6040 C   0  0  0  0  0  2  0  0  0  0  0  0
  189.0770  177.1500  144.0320 C   0  0  0  0  0  2  0  0  0  0  0  0
  187.5890  177.2250  144.3550 C   0  0  1  0  0  3  0  0  0  0  0  0
  188.2340  176.7190  146.7290 C   0  0  0  0  0  3  0  0  0  0  0  0
  190.2430  177.4870  147.6650 O   0  0  0  0  0  0  0  0  0  0  0  0
  191.3160  176.6180  147.9970 C   0  0  0  0  0  1  0  0  0  0  0  0
  187.4230  177.6930  140.9130 C   0  0  0  0  0  2  0  0  0  0  0  0
  187.1270  176.0640  138.5740 O   0  0  0  0  0  0  0  0  0  0  0  0
  187.6190  175.5280  139.6010 C   0  0  0  0  0  0  0  0  0  0  0  0
  187.8220  176.2980  140.7930 N   0  0  0  0  0  2  0  0  0  0  0  0
  189.4100  173.8680  140.0940 C   0  0  2  0  0  3  0  0  0  0  0  0
  188.4760  173.6940  138.1650 C   0  0  0  0  0  2  0  0  0  0  0  0
  188.0020  174.0790  139.5550 C   0  0  2  0  0  3  0  0  0  0  0  0
  189.8750  173.4650  138.7050 C   0  0  0  0  0  2  0  0  0  0  0  0
  189.4810  172.6790  141.0580 C   0  0  2  0  0  3  0  0  0  0  0  0
  189.8520  173.6200  143.8670 C   0  0  0  0  0  2  0  0  0  0  0  0
  190.9890  173.4320  142.9610 N   0  0  0  0  0  0  0  0  0  0  0  0
  188.3490  172.7440  142.0910 C   0  0  0  0  0  2  0  0  0  0  0  0
  190.8150  172.6820  141.7510 C   0  0  0  0  0  0  0  0  0  0  0  0
  191.7970  172.1050  141.2140 O   0  0  0  0  0  0  0  0  0  0  0  0
  188.5720  173.8790  143.0850 C   0  0  0  0  0  2  0  0  0  0  0  0
  192.2220  174.1890  143.1560 C   0  0  0  0  0  3  0  0  0  0  0  0
  193.1530  175.9070  144.8190 C   0  0  0  0  0  2  0  0  0  0  0  0
  193.5910  176.1520  142.3370 C   0  0  0  0  0  2  0  0  0  0  0  0
  194.2140  176.1020  143.7400 C   0  0  0  0  0  2  0  0  0  0  0  0
  192.2570  175.4030  142.2270 C   0  0  0  0  0  2  0  0  0  0  0  0
  192.4180  174.5740  144.6330 C   0  0  0  0  0  2  0  0  0  0  0  0
  1 23  1  6  0  0  0
  1 14  1  0  0  0  0
  2  6  1  6  0  0  0
  2  5  1  0  0  0  0
  3  1  1  0  0  0  0
  3 11  1  0  0  0  0
  4  7  1  0  0  0  0
  5  9  1  0  0  0  0
  7 11  2  0  0  0  0
  7  9  1  0  0  0  0
  8  4  1  0  0  0  0
  8  2  1  0  0  0  0
 11 10  1  0  0  0  0
 12  3  2  0  0  0  0
 13 12  1  0  0  0  0
 13  4  2  0  0  0  0
 15 16  1  0  0  0  0
 16 20  2  0  0  0  0
 16 21  1  0  0  0  0
 17 20  1  0  0  0  0
 18 19  1  0  0  0  0
 18 15  1  0  0  0  0
 19 14  1  6  0  0  0
 19 17  1  0  0  0  0
 21 22  1  0  0  0  0
 24 25  2  0  0  0  0
 25 26  1  0  0  0  0
 26 23  1  0  0  0  0
 27 30  1  6  0  0  0
 27 31  1  0  0  0  0
 28 30  1  0  0  0  0
 28 29  1  0  0  0  0
 29 25  1  6  0  0  0
 29 27  1  0  0  0  0
 31 35  1  0  0  0  0
 31 34  1  1  0  0  0
 33 38  1  0  0  0  0
 33 32  1  0  0  0  0
 34 37  1  0  0  0  0
 35 33  1  0  0  0  0
 36 35  2  0  0  0  0
 37 32  1  0  0  0  0
 38 43  1  0  0  0  0
 40 41  1  0  0  0  0
 41 39  1  0  0  0  0
 42 40  1  0  0  0  0
 42 38  1  0  0  0  0
 43 39  1  0  0  0  0
M  END
>  <MODEL>
7

>  <REMARK>
 VINA RESULT:      -6.8      3.351      7.013
  Name = 
  9 active torsions:
  status: ('A' for Active; 'I' for Inactive)
    1  A    between atoms: C_1  and  C_34
    2  A    between atoms: C_1  and  C_35
    3  A    between atoms: C_3  and  C_4
    4  A    between atoms: C_6  and  C_12
    5  A    between atoms: C_8  and  C_34
    6  A    between atoms: C_11  and  N_14
    7  A    between atoms: N_13  and  C_38
    8  A    between atoms: C_19  and  O_25
    9  A    between atoms: C_34  and  C_38
                            x       y       z     vdW  Elec       q    Type
                         _______ _______ _______ _____ _____    ______ ____

>  <TORSDO>
F 9

$$$$
=
 OpenBabel11052421033D

 43 48  0  0  1  0  0  0  0  0999 V2000
  186.8540  176.8090  141.9700 C   0  0  1  0  0  3  0  0  0  0  0  0
  190.5400  176.8010  147.3380 C   0  0  2  0  0  3  0  0  0  0  0  0
  187.8760  176.9450  143.0650 C   0  0  0  0  0  0  0  0  0  0  0  0
  189.9010  177.1730  144.9620 C   0  0  0  0  0  0  0  0  0  0  0  0
  189.2540  177.4010  147.6890 N   0  0  0  0  0  2  0  0  0  0  0  0
  191.5720  177.1630  148.3840 C   0  0  0  0  0  1  0  0  0  0  0  0
  188.5740  177.0350  145.3850 C   0  0  0  0  0  0  0  0  0  0  0  0
  190.9970  177.3170  145.9730 C   0  0  0  0  0  2  0  0  0  0  0  0
  188.3050  177.0040  146.7590 O   0  0  0  0  0  0  0  0  0  0  0  0
  186.1390  176.7150  144.9080 C   0  0  0  0  0  1  0  0  0  0  0  0
  187.5480  176.9010  144.4410 C   0  0  0  0  0  0  0  0  0  0  0  0
  189.1770  177.0980  142.6940 N   0  0  0  0  0  0  0  0  0  0  0  0
  190.1840  177.2110  143.6000 C   0  0  0  0  0  3  0  0  0  0  0  0
  186.0950  178.1190  141.7570 C   0  0  0  0  0  2  0  0  0  0  0  0
  182.5840  177.9160  140.1610 C   0  0  0  0  0  2  0  0  0  0  0  0
  181.7650  178.3500  141.3590 C   0  0  0  0  0  0  0  0  0  0  0  0
  183.8330  178.7300  142.7160 C   0  0  0  0  0  2  0  0  0  0  0  0
  184.0600  178.2900  140.2700 C   0  0  0  0  0  2  0  0  0  0  0  0
  184.5810  177.9240  141.6560 C   0  0  1  0  0  3  0  0  0  0  0  0
  182.3440  178.6630  142.5250 C   0  0  0  0  0  3  0  0  0  0  0  0
  180.3700  178.3720  141.2930 O   0  0  0  0  0  0  0  0  0  0  0  0
  179.5640  178.8720  142.3500 C   0  0  0  0  0  1  0  0  0  0  0  0
  187.4480  176.2900  140.6630 C   0  0  0  0  0  2  0  0  0  0  0  0
  188.2310  174.3910  138.6650 O   0  0  0  0  0  0  0  0  0  0  0  0
  188.5680  174.1590  139.8560 C   0  0  0  0  0  0  0  0  0  0  0  0
  188.2340  175.0870  140.8960 N   0  0  0  0  0  2  0  0  0  0  0  0
  190.4520  173.1850  141.1620 C   0  0  2  0  0  3  0  0  0  0  0  0
  190.3650  172.6300  139.0870 C   0  0  0  0  0  2  0  0  0  0  0  0
  189.3350  172.9090  140.1660 C   0  0  2  0  0  3  0  0  0  0  0  0
  191.4800  172.8870  140.0840 C   0  0  0  0  0  2  0  0  0  0  0  0
  190.5040  172.1290  142.2710 C   0  0  2  0  0  3  0  0  0  0  0  0
  190.7200  173.4230  144.9530 C   0  0  0  0  0  2  0  0  0  0  0  0
  191.9020  173.1560  144.1290 N   0  0  0  0  0  0  0  0  0  0  0  0
  189.3230  172.2900  143.2360 C   0  0  0  0  0  2  0  0  0  0  0  0
  191.8030  172.2560  143.0170 C   0  0  0  0  0  0  0  0  0  0  0  0
  192.8230  171.6440  142.6010 O   0  0  0  0  0  0  0  0  0  0  0  0
  189.4730  173.5460  144.0890 C   0  0  0  0  0  2  0  0  0  0  0  0
  193.1080  173.9660  144.2810 C   0  0  0  0  0  3  0  0  0  0  0  0
  194.0530  175.6670  145.9530 C   0  0  0  0  0  2  0  0  0  0  0  0
  194.3300  176.0220  143.4600 C   0  0  0  0  0  2  0  0  0  0  0  0
  195.0370  175.9530  144.8220 C   0  0  0  0  0  2  0  0  0  0  0  0
  193.0300  175.2120  143.3990 C   0  0  0  0  0  2  0  0  0  0  0  0
  193.3730  174.3070  145.7580 C   0  0  0  0  0  2  0  0  0  0  0  0
  1 23  1  6  0  0  0
  1  3  1  0  0  0  0
  2  5  1  0  0  0  0
  2  6  1  1  0  0  0
  3 11  1  0  0  0  0
  4  7  1  0  0  0  0
  4  8  1  0  0  0  0
  7  9  1  0  0  0  0
  8  2  1  0  0  0  0
  9  5  1  0  0  0  0
 11 10  1  0  0  0  0
 11  7  2  0  0  0  0
 12  3  2  0  0  0  0
 12 13  1  0  0  0  0
 13  4  2  0  0  0  0
 14  1  1  0  0  0  0
 15 18  1  0  0  0  0
 15 16  1  0  0  0  0
 16 20  2  0  0  0  0
 18 19  1  0  0  0  0
 19 14  1  6  0  0  0
 19 17  1  0  0  0  0
 20 17  1  0  0  0  0
 21 16  1  0  0  0  0
 21 22  1  0  0  0  0
 23 26  1  0  0  0  0
 24 25  2  0  0  0  0
 25 26  1  0  0  0  0
 27 30  1  6  0  0  0
 27 31  1  0  0  0  0
 28 30  1  0  0  0  0
 28 29  1  0  0  0  0
 29 25  1  6  0  0  0
 29 27  1  0  0  0  0
 31 35  1  0  0  0  0
 31 34  1  1  0  0  0
 33 38  1  0  0  0  0
 33 32  1  0  0  0  0
 34 37  1  0  0  0  0
 35 33  1  0  0  0  0
 36 35  2  0  0  0  0
 37 32  1  0  0  0  0
 38 43  1  0  0  0  0
 40 41  1  0  0  0  0
 41 39  1  0  0  0  0
 42 40  1  0  0  0  0
 42 38  1  0  0  0  0
 43 39  1  0  0  0  0
M  END
>  <MODEL>
8

>  <REMARK>
 VINA RESULT:      -6.8      2.980      6.603
  Name = 
  9 active torsions:
  status: ('A' for Active; 'I' for Inactive)
    1  A    between atoms: C_1  and  C_34
    2  A    between atoms: C_1  and  C_35
    3  A    between atoms: C_3  and  C_4
    4  A    between atoms: C_6  and  C_12
    5  A    between atoms: C_8  and  C_34
    6  A    between atoms: C_11  and  N_14
    7  A    between atoms: N_13  and  C_38
    8  A    between atoms: C_19  and  O_25
    9  A    between atoms: C_34  and  C_38
                            x       y       z     vdW  Elec       q    Type
                         _______ _______ _______ _____ _____    ______ ____

>  <TORSDO>
F 9

$$$$
=
 OpenBabel11052421033D

 43 48  0  0  1  0  0  0  0  0999 V2000
  192.3580  175.3140  145.0820 C   0  0  1  0  0  3  0  0  0  0  0  0
  186.1500  177.2700  145.2770 C   0  0  2  0  0  3  0  0  0  0  0  0
  190.9500  175.7460  145.3880 C   0  0  0  0  0  0  0  0  0  0  0  0
  188.3410  176.4170  146.0910 C   0  0  0  0  0  0  0  0  0  0  0  0
  186.9110  178.2930  144.5600 N   0  0  0  0  0  2  0  0  0  0  0  0
  184.8300  177.8500  145.7380 C   0  0  0  0  0  1  0  0  0  0  0  0
  188.8820  176.9130  144.8990 C   0  0  0  0  0  0  0  0  0  0  0  0
  186.9450  176.7880  146.4900 C   0  0  0  0  0  2  0  0  0  0  0  0
  188.0850  177.7280  144.0860 O   0  0  0  0  0  0  0  0  0  0  0  0
  190.7390  177.0740  143.2300 C   0  0  0  0  0  1  0  0  0  0  0  0
  190.1870  176.5680  144.5250 C   0  0  0  0  0  0  0  0  0  0  0  0
  190.3930  175.2970  146.5470 N   0  0  0  0  0  0  0  0  0  0  0  0
  189.1220  175.6110  146.9130 C   0  0  0  0  0  3  0  0  0  0  0  0
  193.3510  176.4490  145.3340 C   0  0  0  0  0  2  0  0  0  0  0  0
  195.1690  176.2000  141.9350 C   0  0  0  0  0  2  0  0  0  0  0  0
  196.5220  175.7390  142.4360 C   0  0  0  0  0  0  0  0  0  0  0  0
  195.6910  175.6470  144.7940 C   0  0  0  0  0  2  0  0  0  0  0  0
  194.0470  175.9910  142.9490 C   0  0  0  0  0  2  0  0  0  0  0  0
  194.4980  176.4760  144.3230 C   0  0  1  0  0  3  0  0  0  0  0  0
  196.7570  175.5450  143.7390 C   0  0  0  0  0  3  0  0  0  0  0  0
  197.5840  175.5650  141.5460 O   0  0  0  0  0  0  0  0  0  0  0  0
  197.4220  175.6640  140.1370 C   0  0  0  0  0  1  0  0  0  0  0  0
  192.7650  174.0430  145.8240 C   0  0  0  0  0  2  0  0  0  0  0  0
  195.0030  172.2550  145.7630 O   0  0  0  0  0  0  0  0  0  0  0  0
  194.1040  172.0970  144.8950 C   0  0  0  0  0  0  0  0  0  0  0  0
  192.9440  172.9380  144.8930 N   0  0  0  0  0  2  0  0  0  0  0  0
  192.9050  170.5710  143.3330 C   0  0  2  0  0  3  0  0  0  0  0  0
  194.4210  169.6590  144.5550 C   0  0  0  0  0  2  0  0  0  0  0  0
  194.2580  171.0060  143.8770 C   0  0  2  0  0  3  0  0  0  0  0  0
  193.0810  169.2160  143.9970 C   0  0  0  0  0  2  0  0  0  0  0  0
  192.9200  170.4350  141.8070 C   0  0  2  0  0  3  0  0  0  0  0  0
  192.3540  173.0630  140.5070 C   0  0  0  0  0  2  0  0  0  0  0  0
  191.2760  172.1740  140.9500 N   0  0  0  0  0  0  0  0  0  0  0  0
  194.0020  171.3290  141.1870 C   0  0  0  0  0  2  0  0  0  0  0  0
  191.5680  170.8050  141.2630 C   0  0  0  0  0  0  0  0  0  0  0  0
  190.6690  169.9270  141.1770 O   0  0  0  0  0  0  0  0  0  0  0  0
  193.6290  172.8040  141.2980 C   0  0  0  0  0  2  0  0  0  0  0  0
  189.9660  172.7180  141.2990 C   0  0  0  0  0  3  0  0  0  0  0  0
  188.6500  174.8870  140.9200 C   0  0  0  0  0  2  0  0  0  0  0  0
  188.5710  173.7090  143.1610 C   0  0  0  0  0  2  0  0  0  0  0  0
  187.7510  174.3140  142.0130 C   0  0  0  0  0  2  0  0  0  0  0  0
  189.9660  173.2320  142.7380 C   0  0  0  0  0  2  0  0  0  0  0  0
  189.5170  173.7910  140.2910 C   0  0  0  0  0  2  0  0  0  0  0  0
  1 14  1  1  0  0  0
  1  3  1  0  0  0  0
  1 23  1  0  0  0  0
  2  6  1  1  0  0  0
  2  8  1  0  0  0  0
  3 12  1  0  0  0  0
  4  8  1  0  0  0  0
  4 13  1  0  0  0  0
  5  2  1  0  0  0  0
  7  4  2  0  0  0  0
  9  5  1  0  0  0  0
  9  7  1  0  0  0  0
 10 11  1  0  0  0  0
 11  7  1  0  0  0  0
 11  3  2  0  0  0  0
 12 13  2  0  0  0  0
 15 16  1  0  0  0  0
 15 18  1  0  0  0  0
 16 20  2  0  0  0  0
 18 19  1  0  0  0  0
 19 17  1  0  0  0  0
 19 14  1  1  0  0  0
 20 17  1  0  0  0  0
 21 16  1  0  0  0  0
 22 21  1  0  0  0  0
 25 24  2  0  0  0  0
 26 25  1  0  0  0  0
 26 23  1  0  0  0  0
 27 29  1  0  0  0  0
 27 30  1  1  0  0  0
 29 28  1  0  0  0  0
 29 25  1  1  0  0  0
 30 28  1  0  0  0  0
 31 34  1  6  0  0  0
 31 27  1  0  0  0  0
 32 33  1  0  0  0  0
 32 37  1  0  0  0  0
 33 35  1  0  0  0  0
 33 38  1  0  0  0  0
 34 37  1  0  0  0  0
 35 31  1  0  0  0  0
 36 35  2  0  0  0  0
 38 42  1  0  0  0  0
 39 41  1  0  0  0  0
 41 40  1  0  0  0  0
 42 40  1  0  0  0  0
 43 39  1  0  0  0  0
 43 38  1  0  0  0  0
M  END
>  <MODEL>
9

>  <REMARK>
 VINA RESULT:      -6.7      2.072      4.553
  Name = 
  9 active torsions:
  status: ('A' for Active; 'I' for Inactive)
    1  A    between atoms: C_1  and  C_34
    2  A    between atoms: C_1  and  C_35
    3  A    between atoms: C_3  and  C_4
    4  A    between atoms: C_6  and  C_12
    5  A    between atoms: C_8  and  C_34
    6  A    between atoms: C_11  and  N_14
    7  A    between atoms: N_13  and  C_38
    8  A    between atoms: C_19  and  O_25
    9  A    between atoms: C_34  and  C_38
                            x       y       z     vdW  Elec       q    Type
                         _______ _______ _______ _____ _____    ______ ____

>  <TORSDO>
F 9

$$$$
