=
 OpenBabel11052417063D

 30 34  0  0  1  0  0  0  0  0999 V2000
  190.1970  176.4540  144.7800 C   0  0  0  0  0  0  0  0  0  0  0  0
  189.8970  175.5040  143.7690 C   0  0  0  0  0  0  0  0  0  0  0  0
  189.2070  177.3370  145.2440 C   0  0  0  0  0  3  0  0  0  0  0  0
  186.0290  176.5780  143.2400 S   0  0  0  0  0  0  0  0  0  0  0  0
  189.3170  174.3720  140.9780 C   0  0  1  0  0  3  0  0  0  0  0  0
  187.6340  176.3550  143.7040 C   0  0  0  0  0  0  0  0  0  0  0  0
  186.9120  178.0890  145.0720 N   0  0  0  0  0  0  0  0  0  0  0  0
  190.3610  173.3370  141.3750 C   0  0  2  0  0  3  0  0  0  0  0  0
  187.9300  177.2700  144.7020 C   0  0  0  0  0  0  0  0  0  0  0  0
  188.5940  175.4680  143.1950 C   0  0  0  0  0  0  0  0  0  0  0  0
  189.8210  172.0190  140.8670 C   0  0  0  0  0  2  0  0  0  0  0  0
  188.6930  173.8380  139.6950 C   0  0  0  0  0  2  0  0  0  0  0  0
  184.5180  178.5620  144.5340 C   0  0  0  0  0  1  0  0  0  0  0  0
  185.7950  177.8230  144.3550 C   0  0  0  0  0  0  0  0  0  0  0  0
  190.9130  174.6220  143.3700 O   0  0  0  0  0  0  0  0  0  0  0  0
  190.6790  173.3050  142.8770 C   0  0  2  0  0  3  0  0  0  0  0  0
  189.0570  172.3630  139.6050 C   0  0  0  0  0  2  0  0  0  0  0  0
  187.1610  174.0080  141.9920 O   0  0  0  0  0  0  0  0  0  0  0  0
  188.2790  174.5910  142.0500 C   0  0  0  0  0  0  0  0  0  0  0  0
  191.7720  176.0100  146.6880 C   0  0  0  0  0  0  0  0  0  0  0  0
  193.0510  176.0770  147.2510 C   0  0  0  0  0  3  0  0  0  0  0  0
  190.7090  175.4510  147.4560 N   0  0  0  0  0  1  0  0  0  0  0  0
  192.6190  177.0740  144.6730 C   0  0  0  0  0  0  0  0  0  0  0  0
  194.1080  176.6370  146.5320 C   0  0  0  0  0  3  0  0  0  0  0  0
  191.5430  176.5160  145.3910 C   0  0  0  0  0  0  0  0  0  0  0  0
  193.8920  177.1320  145.2460 C   0  0  0  0  0  3  0  0  0  0  0  0
  192.4440  177.5400  143.4110 F   0  0  0  0  0  0  0  0  0  0  0  0
  191.6040  171.1010  144.0210 O   0  0  0  0  0  0  0  0  0  0  0  0
  192.1380  172.2950  143.2390 S   0  0  2  0  0  0  0  0  0  0  0  0
  193.0720  173.2290  144.4620 C   0  0  0  0  0  1  0  0  0  0  0  0
  1  3  1  0  0  0  0
  1 25  1  0  0  0  0
  2  1  2  0  0  0  0
  4  6  1  0  0  0  0
  4 14  1  0  0  0  0
  5 12  1  6  0  0  0
  5  8  1  0  0  0  0
  5 19  1  0  0  0  0
  6  9  1  0  0  0  0
  8 11  1  1  0  0  0
  8 16  1  0  0  0  0
  9  7  1  0  0  0  0
  9  3  2  0  0  0  0
 10  6  2  0  0  0  0
 10  2  1  0  0  0  0
 14 13  1  0  0  0  0
 14  7  2  0  0  0  0
 15  2  1  0  0  0  0
 16 29  1  6  0  0  0
 16 15  1  0  0  0  0
 17 12  1  0  0  0  0
 17 11  1  0  0  0  0
 18 19  2  0  0  0  0
 19 10  1  0  0  0  0
 20 21  1  0  0  0  0
 20 22  1  0  0  0  0
 23 26  2  0  0  0  0
 23 25  1  0  0  0  0
 24 21  2  0  0  0  0
 25 20  2  0  0  0  0
 26 24  1  0  0  0  0
 27 23  1  0  0  0  0
 29 28  2  0  0  0  0
 29 30  1  1  0  0  0
M  END
>  <MODEL>
1

>  <REMARK>
 VINA RESULT:      -7.7      0.000      0.000
  Name = 
  2 active torsions:
  status: ('A' for Active; 'I' for Inactive)
    1  A    between atoms: C_1  and  C_22
    2  A    between atoms: S_11  and  C_25
                            x       y       z     vdW  Elec       q    Type
                         _______ _______ _______ _____ _____    ______ ____

>  <TORSDO>
F 2

$$$$
=
 OpenBabel11052417063D

 30 34  0  0  1  0  0  0  0  0999 V2000
  188.5300  175.9820  143.8210 C   0  0  0  0  0  0  0  0  0  0  0  0
  189.9280  175.8650  144.0410 C   0  0  0  0  0  0  0  0  0  0  0  0
  187.9160  175.2910  142.7630 C   0  0  0  0  0  3  0  0  0  0  0  0
  190.6940  173.3910  140.9280 S   0  0  0  0  0  0  0  0  0  0  0  0
  192.9390  176.2890  143.6410 C   0  0  1  0  0  3  0  0  0  0  0  0
  190.0580  174.3850  142.1330 C   0  0  0  0  0  0  0  0  0  0  0  0
  188.1950  173.7980  140.8760 N   0  0  0  0  0  0  0  0  0  0  0  0
  192.9180  176.5650  145.1390 C   0  0  2  0  0  3  0  0  0  0  0  0
  188.6910  174.4910  141.9330 C   0  0  0  0  0  0  0  0  0  0  0  0
  190.7190  175.0710  143.1630 C   0  0  0  0  0  0  0  0  0  0  0  0
  194.1560  175.8860  145.6810 C   0  0  0  0  0  2  0  0  0  0  0  0
  194.4140  176.1910  143.2740 C   0  0  0  0  0  2  0  0  0  0  0  0
  188.9420  172.2950  139.0260 C   0  0  0  0  0  1  0  0  0  0  0  0
  189.1810  173.1360  140.2270 C   0  0  0  0  0  0  0  0  0  0  0  0
  190.4820  176.5470  145.1350 O   0  0  0  0  0  0  0  0  0  0  0  0
  191.6360  176.1080  145.8480 C   0  0  2  0  0  3  0  0  0  0  0  0
  195.1830  175.9860  144.5710 C   0  0  0  0  0  2  0  0  0  0  0  0
  192.8080  173.9460  143.0900 O   0  0  0  0  0  0  0  0  0  0  0  0
  192.1910  175.0320  143.2730 C   0  0  0  0  0  0  0  0  0  0  0  0
  187.0550  177.9730  144.2410 C   0  0  0  0  0  0  0  0  0  0  0  0
  186.2610  178.7390  145.1000 C   0  0  0  0  0  3  0  0  0  0  0  0
  187.2370  178.4100  142.8960 N   0  0  0  0  0  1  0  0  0  0  0  0
  187.4900  176.4160  146.0550 C   0  0  0  0  0  0  0  0  0  0  0  0
  186.0790  178.3480  146.4270 C   0  0  0  0  0  3  0  0  0  0  0  0
  187.6850  176.8030  144.7160 C   0  0  0  0  0  0  0  0  0  0  0  0
  186.6920  177.1880  146.9030 C   0  0  0  0  0  3  0  0  0  0  0  0
  188.0530  175.2790  146.5380 F   0  0  0  0  0  0  0  0  0  0  0  0
  191.1310  175.5430  148.3880 O   0  0  0  0  0  0  0  0  0  0  0  0
  191.5340  176.7440  147.5410 S   0  0  2  0  0  0  0  0  0  0  0  0
  190.0750  177.7990  147.5660 C   0  0  0  0  0  1  0  0  0  0  0  0
  1  2  1  0  0  0  0
  1 25  1  0  0  0  0
  2 15  1  0  0  0  0
  3  1  2  0  0  0  0
  4  6  1  0  0  0  0
  5 12  1  1  0  0  0
  5  8  1  0  0  0  0
  6 10  1  0  0  0  0
  7  9  1  0  0  0  0
  8 11  1  1  0  0  0
  8 16  1  0  0  0  0
  9  6  2  0  0  0  0
  9  3  1  0  0  0  0
 10 19  1  0  0  0  0
 10  2  2  0  0  0  0
 12 17  1  0  0  0  0
 13 14  1  0  0  0  0
 14  7  2  0  0  0  0
 14  4  1  0  0  0  0
 15 16  1  0  0  0  0
 16 29  1  1  0  0  0
 17 11  1  0  0  0  0
 18 19  2  0  0  0  0
 19  5  1  0  0  0  0
 20 25  2  0  0  0  0
 20 21  1  0  0  0  0
 21 24  2  0  0  0  0
 22 20  1  0  0  0  0
 23 27  1  0  0  0  0
 23 26  2  0  0  0  0
 24 26  1  0  0  0  0
 25 23  1  0  0  0  0
 29 30  1  6  0  0  0
 29 28  2  0  0  0  0
M  END
>  <MODEL>
2

>  <REMARK>
 VINA RESULT:      -7.5      2.638      5.847
  Name = 
  2 active torsions:
  status: ('A' for Active; 'I' for Inactive)
    1  A    between atoms: C_1  and  C_22
    2  A    between atoms: S_11  and  C_25
                            x       y       z     vdW  Elec       q    Type
                         _______ _______ _______ _____ _____    ______ ____

>  <TORSDO>
F 2

$$$$
=
 OpenBabel11052417063D

 30 34  0  0  1  0  0  0  0  0999 V2000
  190.1700  176.4500  144.7710 C   0  0  0  0  0  0  0  0  0  0  0  0
  189.8530  175.5150  143.7520 C   0  0  0  0  0  0  0  0  0  0  0  0
  189.1900  177.3300  145.2600 C   0  0  0  0  0  3  0  0  0  0  0  0
  185.9830  176.6100  143.2880 S   0  0  0  0  0  0  0  0  0  0  0  0
  189.2330  174.4230  140.9530 C   0  0  1  0  0  3  0  0  0  0  0  0
  187.5930  176.3750  143.7280 C   0  0  0  0  0  0  0  0  0  0  0  0
  186.8950  178.0920  145.1280 N   0  0  0  0  0  0  0  0  0  0  0  0
  190.2780  173.3790  141.3230 C   0  0  2  0  0  3  0  0  0  0  0  0
  187.9060  177.2760  144.7340 C   0  0  0  0  0  0  0  0  0  0  0  0
  188.5430  175.4910  143.1950 C   0  0  0  0  0  0  0  0  0  0  0  0
  189.7270  172.0700  140.8040 C   0  0  0  0  0  2  0  0  0  0  0  0
  188.5910  173.9080  139.6720 C   0  0  0  0  0  2  0  0  0  0  0  0
  184.4960  178.5810  144.6280 C   0  0  0  0  0  1  0  0  0  0  0  0
  185.7680  177.8400  144.4220 C   0  0  0  0  0  0  0  0  0  0  0  0
  190.8610  174.6340  143.3280 O   0  0  0  0  0  0  0  0  0  0  0  0
  190.6160  173.3260  142.8200 C   0  0  2  0  0  3  0  0  0  0  0  0
  188.9470  172.4330  139.5570 C   0  0  0  0  0  2  0  0  0  0  0  0
  187.0890  174.0530  141.9900 O   0  0  0  0  0  0  0  0  0  0  0  0
  188.2100  174.6310  142.0420 C   0  0  0  0  0  0  0  0  0  0  0  0
  192.5980  177.0910  144.6660 C   0  0  0  0  0  0  0  0  0  0  0  0
  193.8730  177.1280  145.2400 C   0  0  0  0  0  3  0  0  0  0  0  0
  192.4150  177.6330  143.3600 N   0  0  0  0  0  1  0  0  0  0  0  0
  191.7540  175.9630  146.6470 C   0  0  0  0  0  0  0  0  0  0  0  0
  194.0890  176.5890  146.5100 C   0  0  0  0  0  3  0  0  0  0  0  0
  191.5250  176.4990  145.3650 C   0  0  0  0  0  0  0  0  0  0  0  0
  193.0310  176.0090  147.2110 C   0  0  0  0  0  3  0  0  0  0  0  0
  190.7390  175.4160  147.3620 F   0  0  0  0  0  0  0  0  0  0  0  0
  191.5560  171.1300  143.9680 O   0  0  0  0  0  0  0  0  0  0  0  0
  192.0760  172.3050  143.1500 S   0  0  2  0  0  0  0  0  0  0  0  0
  193.0600  173.2490  144.3260 C   0  0  0  0  0  1  0  0  0  0  0  0
  1  3  1  0  0  0  0
  1 25  1  0  0  0  0
  2  1  2  0  0  0  0
  4  6  1  0  0  0  0
  4 14  1  0  0  0  0
  5 12  1  6  0  0  0
  5  8  1  0  0  0  0
  5 19  1  0  0  0  0
  6  9  1  0  0  0  0
  8 11  1  1  0  0  0
  8 16  1  0  0  0  0
  9  7  1  0  0  0  0
  9  3  2  0  0  0  0
 10  6  2  0  0  0  0
 10  2  1  0  0  0  0
 14 13  1  0  0  0  0
 14  7  2  0  0  0  0
 15  2  1  0  0  0  0
 16 29  1  6  0  0  0
 16 15  1  0  0  0  0
 17 12  1  0  0  0  0
 17 11  1  0  0  0  0
 18 19  2  0  0  0  0
 19 10  1  0  0  0  0
 20 21  2  0  0  0  0
 20 25  1  0  0  0  0
 21 24  1  0  0  0  0
 22 20  1  0  0  0  0
 23 26  1  0  0  0  0
 23 27  1  0  0  0  0
 24 26  2  0  0  0  0
 25 23  2  0  0  0  0
 29 28  2  0  0  0  0
 29 30  1  1  0  0  0
M  END
>  <MODEL>
3

>  <REMARK>
 VINA RESULT:      -7.4      1.260      1.540
  Name = 
  2 active torsions:
  status: ('A' for Active; 'I' for Inactive)
    1  A    between atoms: C_1  and  C_22
    2  A    between atoms: S_11  and  C_25
                            x       y       z     vdW  Elec       q    Type
                         _______ _______ _______ _____ _____    ______ ____

>  <TORSDO>
F 2

$$$$
=
 OpenBabel11052417063D

 30 34  0  0  1  0  0  0  0  0999 V2000
  187.9380  175.2800  142.7630 C   0  0  0  0  0  0  0  0  0  0  0  0
  188.9750  175.5760  143.6860 C   0  0  0  0  0  0  0  0  0  0  0  0
  186.6530  175.8210  142.9380 C   0  0  0  0  0  3  0  0  0  0  0  0
  186.7670  177.9140  146.1480 S   0  0  0  0  0  0  0  0  0  0  0  0
  190.6270  175.4890  146.2690 C   0  0  1  0  0  3  0  0  0  0  0  0
  187.4120  176.9330  144.9380 C   0  0  0  0  0  0  0  0  0  0  0  0
  185.1980  177.2090  144.2880 N   0  0  0  0  0  0  0  0  0  0  0  0
  191.7940  175.3110  145.3060 C   0  0  2  0  0  3  0  0  0  0  0  0
  186.4080  176.6510  144.0240 C   0  0  0  0  0  0  0  0  0  0  0  0
  188.7040  176.3990  144.8160 C   0  0  0  0  0  0  0  0  0  0  0  0
  192.9050  176.1670  145.8720 C   0  0  0  0  0  2  0  0  0  0  0  0
  191.2670  175.7380  147.6290 C   0  0  0  0  0  2  0  0  0  0  0  0
  184.0660  178.6660  145.9730 C   0  0  0  0  0  1  0  0  0  0  0  0
  185.2420  177.9390  145.4270 C   0  0  0  0  0  0  0  0  0  0  0  0
  190.2480  175.0390  143.4430 O   0  0  0  0  0  0  0  0  0  0  0  0
  191.4670  175.6580  143.8460 C   0  0  2  0  0  3  0  0  0  0  0  0
  192.7180  176.1170  147.3750 C   0  0  0  0  0  2  0  0  0  0  0  0
  189.8260  177.7580  146.4070 O   0  0  0  0  0  0  0  0  0  0  0  0
  189.7130  176.6210  145.8700 C   0  0  0  0  0  0  0  0  0  0  0  0
  188.4820  173.0520  141.7350 C   0  0  0  0  0  0  0  0  0  0  0  0
  188.7200  172.2570  140.6090 C   0  0  0  0  0  3  0  0  0  0  0  0
  188.5660  172.4580  143.0280 N   0  0  0  0  0  1  0  0  0  0  0  0
  188.1320  174.9730  140.2870 C   0  0  0  0  0  0  0  0  0  0  0  0
  188.6640  172.8130  139.3300 C   0  0  0  0  0  3  0  0  0  0  0  0
  188.1910  174.4240  141.5830 C   0  0  0  0  0  0  0  0  0  0  0  0
  188.3700  174.1680  139.1700 C   0  0  0  0  0  3  0  0  0  0  0  0
  187.8230  176.2810  140.1010 F   0  0  0  0  0  0  0  0  0  0  0  0
  193.3320  176.4180  142.1240 O   0  0  0  0  0  0  0  0  0  0  0  0
  192.7770  175.1270  142.7130 S   0  0  2  0  0  0  0  0  0  0  0  0
  191.9240  174.3510  141.3310 C   0  0  0  0  0  1  0  0  0  0  0  0
  1  3  2  0  0  0  0
  1  2  1  0  0  0  0
  2 10  2  0  0  0  0
  3  9  1  0  0  0  0
  5 12  1  1  0  0  0
  6  4  1  0  0  0  0
  7 14  2  0  0  0  0
  8 11  1  1  0  0  0
  8  5  1  0  0  0  0
  9  7  1  0  0  0  0
  9  6  2  0  0  0  0
 10  6  1  0  0  0  0
 10 19  1  0  0  0  0
 11 17  1  0  0  0  0
 14 13  1  0  0  0  0
 14  4  1  0  0  0  0
 15  2  1  0  0  0  0
 15 16  1  0  0  0  0
 16 29  1  6  0  0  0
 16  8  1  0  0  0  0
 17 12  1  0  0  0  0
 19  5  1  0  0  0  0
 19 18  2  0  0  0  0
 20 22  1  0  0  0  0
 21 20  2  0  0  0  0
 23 25  2  0  0  0  0
 24 21  1  0  0  0  0
 25 20  1  0  0  0  0
 25  1  1  0  0  0  0
 26 24  2  0  0  0  0
 26 23  1  0  0  0  0
 27 23  1  0  0  0  0
 28 29  2  0  0  0  0
 29 30  1  6  0  0  0
M  END
>  <MODEL>
4

>  <REMARK>
 VINA RESULT:      -7.4      2.309      5.410
  Name = 
  2 active torsions:
  status: ('A' for Active; 'I' for Inactive)
    1  A    between atoms: C_1  and  C_22
    2  A    between atoms: S_11  and  C_25
                            x       y       z     vdW  Elec       q    Type
                         _______ _______ _______ _____ _____    ______ ____

>  <TORSDO>
F 2

$$$$
=
 OpenBabel11052417063D

 30 34  0  0  1  0  0  0  0  0999 V2000
  190.3610  175.6650  145.2240 C   0  0  0  0  0  0  0  0  0  0  0  0
  190.3620  175.0830  143.9280 C   0  0  0  0  0  0  0  0  0  0  0  0
  191.5350  175.6870  145.9950 C   0  0  0  0  0  3  0  0  0  0  0  0
  194.2450  173.9330  143.9260 S   0  0  0  0  0  0  0  0  0  0  0  0
  190.3640  172.9160  141.7580 C   0  0  1  0  0  3  0  0  0  0  0  0
  192.7030  174.5490  144.2190 C   0  0  0  0  0  0  0  0  0  0  0  0
  193.8780  175.0900  146.1490 N   0  0  0  0  0  0  0  0  0  0  0  0
  189.2290  173.7490  141.1760 C   0  0  2  0  0  3  0  0  0  0  0  0
  192.6990  175.1330  145.4770 C   0  0  0  0  0  0  0  0  0  0  0  0
  191.5510  174.4860  143.4210 C   0  0  0  0  0  0  0  0  0  0  0  0
  189.4730  173.7560  139.6830 C   0  0  0  0  0  2  0  0  0  0  0  0
  190.7110  171.9020  140.6750 C   0  0  0  0  0  2  0  0  0  0  0  0
  196.2210  174.2600  145.8960 C   0  0  0  0  0  1  0  0  0  0  0  0
  194.8280  174.4630  145.4180 C   0  0  0  0  0  0  0  0  0  0  0  0
  189.1710  175.1220  143.1870 O   0  0  0  0  0  0  0  0  0  0  0  0
  189.1180  175.1630  141.7630 C   0  0  2  0  0  3  0  0  0  0  0  0
  190.1040  172.4130  139.3770 C   0  0  0  0  0  2  0  0  0  0  0  0
  192.5500  173.8510  141.3630 O   0  0  0  0  0  0  0  0  0  0  0  0
  191.5600  173.7510  142.1410 C   0  0  0  0  0  0  0  0  0  0  0  0
  188.4500  175.6950  146.8560 C   0  0  0  0  0  0  0  0  0  0  0  0
  187.2960  176.2970  147.3660 C   0  0  0  0  0  3  0  0  0  0  0  0
  188.8970  174.4670  147.4250 N   0  0  0  0  0  1  0  0  0  0  0  0
  188.6550  177.4950  145.2350 C   0  0  0  0  0  0  0  0  0  0  0  0
  186.8220  177.4910  146.8180 C   0  0  0  0  0  3  0  0  0  0  0  0
  189.1390  176.2890  145.7770 C   0  0  0  0  0  0  0  0  0  0  0  0
  187.5010  178.0880  145.7550 C   0  0  0  0  0  3  0  0  0  0  0  0
  189.3090  178.1120  144.2190 F   0  0  0  0  0  0  0  0  0  0  0  0
  187.9480  177.4490  141.1100 O   0  0  0  0  0  0  0  0  0  0  0  0
  187.5770  175.9800  141.2740 S   0  0  2  0  0  0  0  0  0  0  0  0
  186.5400  175.9580  142.7460 C   0  0  0  0  0  1  0  0  0  0  0  0
  1 25  1  0  0  0  0
  1  3  1  0  0  0  0
  2  1  2  0  0  0  0
  4  6  1  0  0  0  0
  4 14  1  0  0  0  0
  5 12  1  6  0  0  0
  5 19  1  0  0  0  0
  6  9  1  0  0  0  0
  8 11  1  6  0  0  0
  8  5  1  0  0  0  0
  8 16  1  0  0  0  0
  9  3  2  0  0  0  0
  9  7  1  0  0  0  0
 10  2  1  0  0  0  0
 10  6  2  0  0  0  0
 14 13  1  0  0  0  0
 14  7  2  0  0  0  0
 15  2  1  0  0  0  0
 16 29  1  1  0  0  0
 16 15  1  0  0  0  0
 17 11  1  0  0  0  0
 17 12  1  0  0  0  0
 18 19  2  0  0  0  0
 19 10  1  0  0  0  0
 20 21  1  0  0  0  0
 20 22  1  0  0  0  0
 23 26  2  0  0  0  0
 23 25  1  0  0  0  0
 24 21  2  0  0  0  0
 25 20  2  0  0  0  0
 26 24  1  0  0  0  0
 27 23  1  0  0  0  0
 28 29  2  0  0  0  0
 29 30  1  1  0  0  0
M  END
>  <MODEL>
5

>  <REMARK>
 VINA RESULT:      -7.3      2.074      5.366
  Name = 
  2 active torsions:
  status: ('A' for Active; 'I' for Inactive)
    1  A    between atoms: C_1  and  C_22
    2  A    between atoms: S_11  and  C_25
                            x       y       z     vdW  Elec       q    Type
                         _______ _______ _______ _____ _____    ______ ____

>  <TORSDO>
F 2

$$$$
=
 OpenBabel11052417063D

 30 34  0  0  1  0  0  0  0  0999 V2000
  189.3790  175.1430  143.2030 C   0  0  0  0  0  0  0  0  0  0  0  0
  188.6080  175.9320  144.0970 C   0  0  0  0  0  0  0  0  0  0  0  0
  189.1130  175.1670  141.8240 C   0  0  0  0  0  3  0  0  0  0  0  0
  186.1450  177.5390  141.3140 S   0  0  0  0  0  0  0  0  0  0  0  0
  186.2290  176.8210  145.8170 C   0  0  1  0  0  3  0  0  0  0  0  0
  187.3230  176.7330  142.2120 C   0  0  0  0  0  0  0  0  0  0  0  0
  187.7450  176.0520  140.0320 N   0  0  0  0  0  0  0  0  0  0  0  0
  187.2950  176.9820  146.8920 C   0  0  2  0  0  3  0  0  0  0  0  0
  188.0880  175.9720  141.3430 C   0  0  0  0  0  0  0  0  0  0  0  0
  187.5370  176.7260  143.5990 C   0  0  0  0  0  0  0  0  0  0  0  0
  186.9380  178.2650  147.6100 C   0  0  0  0  0  2  0  0  0  0  0  0
  184.9780  177.4700  146.3940 C   0  0  0  0  0  2  0  0  0  0  0  0
  186.0870  177.1660  138.5300 C   0  0  0  0  0  1  0  0  0  0  0  0
  186.6910  176.8830  139.8580 C   0  0  0  0  0  0  0  0  0  0  0  0
  188.9410  175.8990  145.4610 O   0  0  0  0  0  0  0  0  0  0  0  0
  188.7350  176.9850  146.3590 C   0  0  2  0  0  3  0  0  0  0  0  0
  185.4250  178.3420  147.5580 C   0  0  0  0  0  2  0  0  0  0  0  0
  186.2150  178.6050  144.1960 O   0  0  0  0  0  0  0  0  0  0  0  0
  186.6270  177.4530  144.5060 C   0  0  0  0  0  0  0  0  0  0  0  0
  191.8070  174.8200  143.7630 C   0  0  0  0  0  0  0  0  0  0  0  0
  192.8510  174.0150  144.2300 C   0  0  0  0  0  3  0  0  0  0  0  0
  192.0990  176.1480  143.3350 N   0  0  0  0  0  1  0  0  0  0  0  0
  190.2540  172.9830  144.1140 C   0  0  0  0  0  0  0  0  0  0  0  0
  192.6020  172.7040  144.6380 C   0  0  0  0  0  3  0  0  0  0  0  0
  190.4950  174.3060  143.6950 C   0  0  0  0  0  0  0  0  0  0  0  0
  191.3050  172.1900  144.5810 C   0  0  0  0  0  3  0  0  0  0  0  0
  189.0000  172.4660  144.0940 F   0  0  0  0  0  0  0  0  0  0  0  0
  190.1820  178.2910  148.1550 O   0  0  0  0  0  0  0  0  0  0  0  0
  189.9520  176.8570  147.6950 S   0  0  2  0  0  0  0  0  0  0  0  0
  191.4980  176.4080  146.8880 C   0  0  0  0  0  1  0  0  0  0  0  0
  1 25  1  0  0  0  0
  1  2  1  0  0  0  0
  2 15  1  0  0  0  0
  3  1  2  0  0  0  0
  4  6  1  0  0  0  0
  5 12  1  1  0  0  0
  5  8  1  0  0  0  0
  6 10  1  0  0  0  0
  7  9  1  0  0  0  0
  8 11  1  6  0  0  0
  9  3  1  0  0  0  0
  9  6  2  0  0  0  0
 10  2  2  0  0  0  0
 10 19  1  0  0  0  0
 12 17  1  0  0  0  0
 13 14  1  0  0  0  0
 14  7  2  0  0  0  0
 14  4  1  0  0  0  0
 15 16  1  0  0  0  0
 16  8  1  0  0  0  0
 16 29  1  1  0  0  0
 17 11  1  0  0  0  0
 18 19  2  0  0  0  0
 19  5  1  0  0  0  0
 20 21  1  0  0  0  0
 21 24  2  0  0  0  0
 22 20  1  0  0  0  0
 23 26  2  0  0  0  0
 25 20  2  0  0  0  0
 25 23  1  0  0  0  0
 26 24  1  0  0  0  0
 27 23  1  0  0  0  0
 29 30  1  6  0  0  0
 29 28  2  0  0  0  0
M  END
>  <MODEL>
6

>  <REMARK>
 VINA RESULT:      -7.3      3.113      5.450
  Name = 
  2 active torsions:
  status: ('A' for Active; 'I' for Inactive)
    1  A    between atoms: C_1  and  C_22
    2  A    between atoms: S_11  and  C_25
                            x       y       z     vdW  Elec       q    Type
                         _______ _______ _______ _____ _____    ______ ____

>  <TORSDO>
F 2

$$$$
=
 OpenBabel11052417063D

 30 34  0  0  1  0  0  0  0  0999 V2000
  188.3660  175.7620  142.1280 C   0  0  0  0  0  0  0  0  0  0  0  0
  189.4540  175.4470  142.9840 C   0  0  0  0  0  0  0  0  0  0  0  0
  188.2260  175.1170  140.8880 C   0  0  0  0  0  3  0  0  0  0  0  0
  191.2000  172.7220  140.5510 S   0  0  0  0  0  0  0  0  0  0  0  0
  192.3190  175.3880  144.0770 C   0  0  1  0  0  3  0  0  0  0  0  0
  190.2370  173.8640  141.3310 C   0  0  0  0  0  0  0  0  0  0  0  0
  189.1250  173.4990  139.3250 N   0  0  0  0  0  0  0  0  0  0  0  0
  191.6350  175.7440  145.3910 C   0  0  2  0  0  3  0  0  0  0  0  0
  189.1640  174.1660  140.5070 C   0  0  0  0  0  0  0  0  0  0  0  0
  190.4290  174.4970  142.5690 C   0  0  0  0  0  0  0  0  0  0  0  0
  192.3430  174.9160  146.4400 C   0  0  0  0  0  2  0  0  0  0  0  0
  193.7550  175.0480  144.4540 C   0  0  0  0  0  2  0  0  0  0  0  0
  190.4100  171.8030  138.0160 C   0  0  0  0  0  1  0  0  0  0  0  0
  190.1810  172.6620  139.2070 C   0  0  0  0  0  0  0  0  0  0  0  0
  189.5240  176.0950  144.2270 O   0  0  0  0  0  0  0  0  0  0  0  0
  190.1160  175.5250  145.3910 C   0  0  2  0  0  3  0  0  0  0  0  0
  193.7740  174.7990  145.9550 C   0  0  0  0  0  2  0  0  0  0  0  0
  192.0950  173.0660  143.4710 O   0  0  0  0  0  0  0  0  0  0  0  0
  191.6460  174.2410  143.3650 C   0  0  0  0  0  0  0  0  0  0  0  0
  187.5200  178.1240  142.2720 C   0  0  0  0  0  0  0  0  0  0  0  0
  186.5410  179.0440  142.6620 C   0  0  0  0  0  3  0  0  0  0  0  0
  188.7030  178.6040  141.6380 N   0  0  0  0  0  1  0  0  0  0  0  0
  186.1630  176.3210  143.1740 C   0  0  0  0  0  0  0  0  0  0  0  0
  185.3800  178.6080  143.3020 C   0  0  0  0  0  3  0  0  0  0  0  0
  187.3410  176.7490  142.5320 C   0  0  0  0  0  0  0  0  0  0  0  0
  185.1910  177.2490  143.5570 C   0  0  0  0  0  3  0  0  0  0  0  0
  185.9410  175.0030  143.4110 F   0  0  0  0  0  0  0  0  0  0  0  0
  188.5660  175.1130  147.5020 O   0  0  0  0  0  0  0  0  0  0  0  0
  189.3260  176.2600  146.8470 S   0  0  2  0  0  0  0  0  0  0  0  0
  188.0270  177.3240  146.1980 C   0  0  0  0  0  1  0  0  0  0  0  0
  1 25  1  0  0  0  0
  1  2  1  0  0  0  0
  2 15  1  0  0  0  0
  3  1  2  0  0  0  0
  4  6  1  0  0  0  0
  5 12  1  1  0  0  0
  5  8  1  0  0  0  0
  6 10  1  0  0  0  0
  7  9  1  0  0  0  0
  8 11  1  1  0  0  0
  9  3  1  0  0  0  0
  9  6  2  0  0  0  0
 10  2  2  0  0  0  0
 10 19  1  0  0  0  0
 12 17  1  0  0  0  0
 13 14  1  0  0  0  0
 14  7  2  0  0  0  0
 14  4  1  0  0  0  0
 15 16  1  0  0  0  0
 16  8  1  0  0  0  0
 16 29  1  1  0  0  0
 17 11  1  0  0  0  0
 19 18  2  0  0  0  0
 19  5  1  0  0  0  0
 20 25  2  0  0  0  0
 20 21  1  0  0  0  0
 21 24  2  0  0  0  0
 22 20  1  0  0  0  0
 23 27  1  0  0  0  0
 23 26  2  0  0  0  0
 24 26  1  0  0  0  0
 25 23  1  0  0  0  0
 29 30  1  6  0  0  0
 29 28  2  0  0  0  0
M  END
>  <MODEL>
7

>  <REMARK>
 VINA RESULT:      -7.3      2.797      6.392
  Name = 
  2 active torsions:
  status: ('A' for Active; 'I' for Inactive)
    1  A    between atoms: C_1  and  C_22
    2  A    between atoms: S_11  and  C_25
                            x       y       z     vdW  Elec       q    Type
                         _______ _______ _______ _____ _____    ______ ____

>  <TORSDO>
F 2

$$$$
=
 OpenBabel11052417063D

 30 34  0  0  1  0  0  0  0  0999 V2000
  190.0760  175.0130  143.3660 C   0  0  0  0  0  0  0  0  0  0  0  0
  191.4790  175.0950  143.1640 C   0  0  0  0  0  0  0  0  0  0  0  0
  189.2590  174.3590  142.4290 C   0  0  0  0  0  3  0  0  0  0  0  0
  191.5640  173.1460  139.6160 S   0  0  0  0  0  0  0  0  0  0  0  0
  194.1600  176.0340  142.0060 C   0  0  1  0  0  3  0  0  0  0  0  0
  191.2060  173.8820  141.0900 C   0  0  0  0  0  0  0  0  0  0  0  0
  189.1340  173.1550  140.3310 N   0  0  0  0  0  0  0  0  0  0  0  0
  194.5560  176.1310  143.4740 C   0  0  2  0  0  3  0  0  0  0  0  0
  189.8390  173.7930  141.3010 C   0  0  0  0  0  0  0  0  0  0  0  0
  192.0590  174.5430  141.9870 C   0  0  0  0  0  0  0  0  0  0  0  0
  195.9710  175.6000  143.5340 C   0  0  0  0  0  2  0  0  0  0  0  0
  195.4570  176.2140  141.2300 C   0  0  0  0  0  2  0  0  0  0  0  0
  189.4640  172.0100  138.1350 C   0  0  0  0  0  1  0  0  0  0  0  0
  189.9510  172.7360  139.3370 C   0  0  0  0  0  0  0  0  0  0  0  0
  192.2520  175.7270  144.1510 O   0  0  0  0  0  0  0  0  0  0  0  0
  193.6090  175.3980  144.4340 C   0  0  2  0  0  3  0  0  0  0  0  0
  196.5980  175.9870  142.2100 C   0  0  0  0  0  2  0  0  0  0  0  0
  194.1470  173.7790  141.1560 O   0  0  0  0  0  0  0  0  0  0  0  0
  193.4890  174.7250  141.6720 C   0  0  0  0  0  0  0  0  0  0  0  0
  188.9590  176.9070  144.5850 C   0  0  0  0  0  0  0  0  0  0  0  0
  188.3690  177.4300  145.7390 C   0  0  0  0  0  3  0  0  0  0  0  0
  189.0820  177.7400  143.4340 N   0  0  0  0  0  1  0  0  0  0  0  0
  189.3180  174.7990  145.7410 C   0  0  0  0  0  0  0  0  0  0  0  0
  188.2510  176.6450  146.8880 C   0  0  0  0  0  3  0  0  0  0  0  0
  189.4470  175.5820  144.5780 C   0  0  0  0  0  0  0  0  0  0  0  0
  188.7240  175.3330  146.8880 C   0  0  0  0  0  3  0  0  0  0  0  0
  189.7460  173.5120  145.7620 F   0  0  0  0  0  0  0  0  0  0  0  0
  192.5710  175.9380  146.8120 O   0  0  0  0  0  0  0  0  0  0  0  0
  193.9450  175.8130  146.1660 S   0  0  2  0  0  0  0  0  0  0  0  0
  194.5660  177.5020  146.1380 C   0  0  0  0  0  1  0  0  0  0  0  0
  1 25  1  0  0  0  0
  2  1  1  0  0  0  0
  2 15  1  0  0  0  0
  3  1  2  0  0  0  0
  4  6  1  0  0  0  0
  5 12  1  6  0  0  0
  5  8  1  0  0  0  0
  6  9  2  0  0  0  0
  6 10  1  0  0  0  0
  7  9  1  0  0  0  0
  8 11  1  6  0  0  0
  8 16  1  0  0  0  0
  9  3  1  0  0  0  0
 10  2  2  0  0  0  0
 12 17  1  0  0  0  0
 13 14  1  0  0  0  0
 14  4  1  0  0  0  0
 14  7  2  0  0  0  0
 15 16  1  0  0  0  0
 16 29  1  1  0  0  0
 17 11  1  0  0  0  0
 18 19  2  0  0  0  0
 19 10  1  0  0  0  0
 19  5  1  0  0  0  0
 20 21  1  0  0  0  0
 21 24  2  0  0  0  0
 22 20  1  0  0  0  0
 23 27  1  0  0  0  0
 23 26  2  0  0  0  0
 24 26  1  0  0  0  0
 25 20  2  0  0  0  0
 25 23  1  0  0  0  0
 29 30  1  6  0  0  0
 29 28  2  0  0  0  0
M  END
>  <MODEL>
8

>  <REMARK>
 VINA RESULT:      -7.2      3.009      5.711
  Name = 
  2 active torsions:
  status: ('A' for Active; 'I' for Inactive)
    1  A    between atoms: C_1  and  C_22
    2  A    between atoms: S_11  and  C_25
                            x       y       z     vdW  Elec       q    Type
                         _______ _______ _______ _____ _____    ______ ____

>  <TORSDO>
F 2

$$$$
=
 OpenBabel11052417063D

 30 34  0  0  1  0  0  0  0  0999 V2000
  191.1550  174.9710  145.1970 C   0  0  0  0  0  0  0  0  0  0  0  0
  191.1240  174.0040  144.1580 C   0  0  0  0  0  0  0  0  0  0  0  0
  192.3510  175.2430  145.8810 C   0  0  0  0  0  3  0  0  0  0  0  0
  195.0210  172.9290  144.3940 S   0  0  0  0  0  0  0  0  0  0  0  0
  191.0910  171.2550  142.7980 C   0  0  1  0  0  3  0  0  0  0  0  0
  193.4800  173.6010  144.5260 C   0  0  0  0  0  0  0  0  0  0  0  0
  194.7060  174.7370  146.1400 N   0  0  0  0  0  0  0  0  0  0  0  0
  189.9270  171.8530  142.0180 C   0  0  2  0  0  3  0  0  0  0  0  0
  193.5060  174.5570  145.5290 C   0  0  0  0  0  0  0  0  0  0  0  0
  192.3050  173.2800  143.8290 C   0  0  0  0  0  0  0  0  0  0  0  0
  190.1250  171.3820  140.5940 C   0  0  0  0  0  2  0  0  0  0  0  0
  191.4200  169.9500  142.0860 C   0  0  0  0  0  2  0  0  0  0  0  0
  197.0510  173.8790  146.0880 C   0  0  0  0  0  1  0  0  0  0  0  0
  195.6420  173.9120  145.6170 C   0  0  0  0  0  0  0  0  0  0  0  0
  189.9100  173.7990  143.4830 O   0  0  0  0  0  0  0  0  0  0  0  0
  189.8140  173.3800  142.1240 C   0  0  2  0  0  3  0  0  0  0  0  0
  190.7660  170.0140  140.7130 C   0  0  0  0  0  2  0  0  0  0  0  0
  193.2500  172.0230  142.0510 O   0  0  0  0  0  0  0  0  0  0  0  0
  192.2860  172.1740  142.8520 C   0  0  0  0  0  0  0  0  0  0  0  0
  189.6790  176.9940  144.9820 C   0  0  0  0  0  0  0  0  0  0  0  0
  188.5270  177.7030  145.3390 C   0  0  0  0  0  3  0  0  0  0  0  0
  190.5870  177.5770  144.0510 N   0  0  0  0  0  1  0  0  0  0  0  0
  189.0240  175.2020  146.4890 C   0  0  0  0  0  0  0  0  0  0  0  0
  187.6280  177.1670  146.2620 C   0  0  0  0  0  3  0  0  0  0  0  0
  189.9410  175.7340  145.5620 C   0  0  0  0  0  0  0  0  0  0  0  0
  187.8760  175.9190  146.8350 C   0  0  0  0  0  3  0  0  0  0  0  0
  189.2260  173.9800  147.0420 F   0  0  0  0  0  0  0  0  0  0  0  0
  188.5900  174.4990  140.0570 O   0  0  0  0  0  0  0  0  0  0  0  0
  188.2470  173.9920  141.4520 S   0  0  2  0  0  0  0  0  0  0  0  0
  187.8840  175.4910  142.3800 C   0  0  0  0  0  1  0  0  0  0  0  0
  1 25  1  0  0  0  0
  1  3  1  0  0  0  0
  2  1  2  0  0  0  0
  4  6  1  0  0  0  0
  4 14  1  0  0  0  0
  5 12  1  6  0  0  0
  5 19  1  0  0  0  0
  6  9  1  0  0  0  0
  8 11  1  6  0  0  0
  8 16  1  0  0  0  0
  8  5  1  0  0  0  0
  9  3  2  0  0  0  0
  9  7  1  0  0  0  0
 10  2  1  0  0  0  0
 10  6  2  0  0  0  0
 11 17  1  0  0  0  0
 14 13  1  0  0  0  0
 14  7  2  0  0  0  0
 15  2  1  0  0  0  0
 16 29  1  1  0  0  0
 16 15  1  0  0  0  0
 17 12  1  0  0  0  0
 18 19  2  0  0  0  0
 19 10  1  0  0  0  0
 20 21  2  0  0  0  0
 20 25  1  0  0  0  0
 21 24  1  0  0  0  0
 22 20  1  0  0  0  0
 23 26  1  0  0  0  0
 23 27  1  0  0  0  0
 24 26  2  0  0  0  0
 25 23  2  0  0  0  0
 28 29  2  0  0  0  0
 29 30  1  1  0  0  0
M  END
>  <MODEL>
9

>  <REMARK>
 VINA RESULT:      -7.1      2.499      5.765
  Name = 
  2 active torsions:
  status: ('A' for Active; 'I' for Inactive)
    1  A    between atoms: C_1  and  C_22
    2  A    between atoms: S_11  and  C_25
                            x       y       z     vdW  Elec       q    Type
                         _______ _______ _______ _____ _____    ______ ____

>  <TORSDO>
F 2

$$$$
