=
 OpenBabel11052418483D

 34 38  0  0  1  0  0  0  0  0999 V2000
  185.6820  178.1910  144.0500 C   0  0  0  0  0  0  0  0  0  0  0  0
  185.8750  178.1100  146.4710 C   0  0  0  0  0  0  0  0  0  0  0  0
  187.8150  177.2610  144.9960 C   0  0  2  0  0  3  0  0  0  0  0  0
  189.2390  175.4890  146.0590 C   0  0  0  0  0  0  0  0  0  0  0  0
  183.8550  178.9700  145.4350 C   0  0  0  0  0  3  0  0  0  0  0  0
  184.5920  178.6590  146.5790 C   0  0  0  0  0  3  0  0  0  0  0  0
  186.4230  177.8370  145.1950 C   0  0  0  0  0  0  0  0  0  0  0  0
  184.4060  178.7490  144.1710 C   0  0  0  0  0  3  0  0  0  0  0  0
  187.9080  176.3950  143.7430 C   0  0  0  0  0  0  0  0  0  0  0  0
  186.2910  178.0460  142.6930 C   0  0  0  0  0  2  0  0  0  0  0  0
  186.5680  177.8700  147.6120 F   0  0  0  0  0  0  0  0  0  0  0  0
  189.4660  174.9480  144.9030 N   0  0  0  0  0  0  0  0  0  0  0  0
  188.7830  175.3570  143.7040 C   0  0  0  0  0  0  0  0  0  0  0  0
  188.2860  176.5410  146.1750 N   0  0  0  0  0  2  0  0  0  0  0  0
  187.0220  176.7150  142.5580 C   0  0  0  0  0  2  0  0  0  0  0  0
  190.4870  173.7800  140.6900 C   0  0  0  0  0  0  0  0  0  0  0  0
  189.4810  172.9270  140.2300 C   0  0  0  0  0  3  0  0  0  0  0  0
  189.0300  174.5490  142.4820 C   0  0  0  0  0  0  0  0  0  0  0  0
  188.2550  172.8730  140.8970 C   0  0  0  0  0  3  0  0  0  0  0  0
  190.2650  174.5820  141.8130 C   0  0  0  0  0  3  0  0  0  0  0  0
  188.0330  173.6760  142.0200 C   0  0  0  0  0  3  0  0  0  0  0  0
  191.7080  173.8320  140.0320 O   0  0  0  0  0  1  0  0  0  0  0  0
  189.8960  174.9410  147.2780 C   0  0  0  0  0  2  0  0  0  0  0  0
  191.2410  176.5790  148.3650 O   0  0  0  0  0  0  0  0  0  0  0  0
  192.3420  175.2790  146.7650 N   0  0  0  0  0  2  0  0  0  0  0  0
  191.1870  175.6470  147.5200 C   0  0  0  0  0  0  0  0  0  0  0  0
  193.6030  175.9940  146.8790 C   0  0  0  0  0  2  0  0  0  0  0  0
  193.1050  177.0160  144.2360 O   0  0  0  0  0  1  0  0  0  0  0  0
  194.4750  175.6600  145.7150 C   0  0  0  0  0  0  0  0  0  0  0  0
  194.2070  176.1930  144.4420 C   0  0  0  0  0  0  0  0  0  0  0  0
  196.1680  175.0720  143.5630 C   0  0  0  0  0  3  0  0  0  0  0  0
  196.4390  174.5450  144.8300 C   0  0  0  0  0  3  0  0  0  0  0  0
  195.5950  174.8410  145.9050 C   0  0  0  0  0  3  0  0  0  0  0  0
  195.0550  175.8940  143.3700 C   0  0  0  0  0  3  0  0  0  0  0  0
  1  8  2  0  0  0  0
  1  7  1  0  0  0  0
  2  6  1  0  0  0  0
  2 11  1  0  0  0  0
  3  9  1  6  0  0  0
  3  7  1  0  0  0  0
  3 14  1  0  0  0  0
  4 14  1  0  0  0  0
  4 23  1  0  0  0  0
  5  6  2  0  0  0  0
  7  2  2  0  0  0  0
  8  5  1  0  0  0  0
 10  1  1  0  0  0  0
 12  4  2  0  0  0  0
 13  9  2  0  0  0  0
 13 12  1  0  0  0  0
 15 10  1  0  0  0  0
 15  9  1  0  0  0  0
 16 20  1  0  0  0  0
 17 16  2  0  0  0  0
 17 19  1  0  0  0  0
 18 13  1  0  0  0  0
 19 21  2  0  0  0  0
 20 18  2  0  0  0  0
 21 18  1  0  0  0  0
 22 16  1  0  0  0  0
 23 26  1  0  0  0  0
 25 27  1  0  0  0  0
 25 26  1  0  0  0  0
 26 24  2  0  0  0  0
 28 30  1  0  0  0  0
 29 33  1  0  0  0  0
 29 27  1  0  0  0  0
 30 29  2  0  0  0  0
 31 32  1  0  0  0  0
 32 33  2  0  0  0  0
 34 31  2  0  0  0  0
 34 30  1  0  0  0  0
M  END
>  <MODEL>
1

>  <REMARK>
 VINA RESULT:      -8.9      0.000      0.000
  Name = 
  5 active torsions:
  status: ('A' for Active; 'I' for Inactive)
    1  A    between atoms: C_3  and  C_13
    2  A    between atoms: C_3  and  N_17
    3  A    between atoms: C_5  and  C_18
    4  A    between atoms: C_12  and  C_28
    5  A    between atoms: C_18  and  C_29
                            x       y       z     vdW  Elec       q    Type
                         _______ _______ _______ _____ _____    ______ ____

>  <TORSDO>
F 5

$$$$
=
 OpenBabel11052418483D

 34 38  0  0  1  0  0  0  0  0999 V2000
  185.7620  177.6760  142.6820 C   0  0  0  0  0  0  0  0  0  0  0  0
  185.7230  178.7320  144.8700 C   0  0  0  0  0  0  0  0  0  0  0  0
  187.9060  177.6720  143.9910 C   0  0  2  0  0  3  0  0  0  0  0  0
  189.4680  176.8580  145.7780 C   0  0  0  0  0  0  0  0  0  0  0  0
  183.7100  178.6540  143.5160 C   0  0  0  0  0  3  0  0  0  0  0  0
  184.3670  179.0300  144.6890 C   0  0  0  0  0  3  0  0  0  0  0  0
  186.4300  178.0160  143.8750 C   0  0  0  0  0  0  0  0  0  0  0  0
  184.4100  177.9900  142.5080 C   0  0  0  0  0  3  0  0  0  0  0  0
  188.2520  176.3670  143.2800 C   0  0  0  0  0  0  0  0  0  0  0  0
  186.5170  177.0460  141.5560 C   0  0  0  0  0  2  0  0  0  0  0  0
  186.3270  179.1610  146.0060 F   0  0  0  0  0  0  0  0  0  0  0  0
  189.8870  175.9040  145.0060 N   0  0  0  0  0  0  0  0  0  0  0  0
  189.2730  175.5980  143.7420 C   0  0  0  0  0  0  0  0  0  0  0  0
  188.3600  177.6590  145.3780 N   0  0  0  0  0  2  0  0  0  0  0  0
  187.4510  175.9530  142.0650 C   0  0  0  0  0  2  0  0  0  0  0  0
  191.1420  173.3110  141.3450 C   0  0  0  0  0  0  0  0  0  0  0  0
  190.7260  172.0550  141.7940 C   0  0  0  0  0  3  0  0  0  0  0  0
  189.7590  174.3860  143.0340 C   0  0  0  0  0  0  0  0  0  0  0  0
  189.8360  171.9590  142.8660 C   0  0  0  0  0  3  0  0  0  0  0  0
  190.6670  174.4690  141.9660 C   0  0  0  0  0  3  0  0  0  0  0  0
  189.3600  173.1180  143.4870 C   0  0  0  0  0  3  0  0  0  0  0  0
  192.0290  173.4090  140.2820 O   0  0  0  0  0  1  0  0  0  0  0  0
  190.0750  177.0460  147.1240 C   0  0  0  0  0  2  0  0  0  0  0  0
  191.3640  175.2960  148.1000 O   0  0  0  0  0  0  0  0  0  0  0  0
  192.4330  176.5060  146.4110 N   0  0  0  0  0  2  0  0  0  0  0  0
  191.3100  176.2190  147.2450 C   0  0  0  0  0  0  0  0  0  0  0  0
  193.7000  175.8070  146.5480 C   0  0  0  0  0  2  0  0  0  0  0  0
  195.4760  176.2130  144.3220 O   0  0  0  0  0  1  0  0  0  0  0  0
  193.8440  174.8100  145.4470 C   0  0  0  0  0  0  0  0  0  0  0  0
  194.7350  175.0380  144.3850 C   0  0  0  0  0  0  0  0  0  0  0  0
  194.1440  172.8890  143.4310 C   0  0  0  0  0  3  0  0  0  0  0  0
  193.2610  172.6590  144.4910 C   0  0  0  0  0  3  0  0  0  0  0  0
  193.1120  173.6160  145.4980 C   0  0  0  0  0  3  0  0  0  0  0  0
  194.8800  174.0770  143.3790 C   0  0  0  0  0  3  0  0  0  0  0  0
  1  7  1  0  0  0  0
  2 11  1  0  0  0  0
  3  9  1  1  0  0  0
  3 14  1  0  0  0  0
  4 23  1  0  0  0  0
  5  6  2  0  0  0  0
  6  2  1  0  0  0  0
  7  3  1  0  0  0  0
  7  2  2  0  0  0  0
  8  1  2  0  0  0  0
  8  5  1  0  0  0  0
  9 13  2  0  0  0  0
 10 15  1  0  0  0  0
 10  1  1  0  0  0  0
 12  4  2  0  0  0  0
 13 12  1  0  0  0  0
 14  4  1  0  0  0  0
 15  9  1  0  0  0  0
 16 17  2  0  0  0  0
 16 20  1  0  0  0  0
 17 19  1  0  0  0  0
 18 21  1  0  0  0  0
 18 13  1  0  0  0  0
 19 21  2  0  0  0  0
 20 18  2  0  0  0  0
 22 16  1  0  0  0  0
 23 26  1  0  0  0  0
 25 27  1  0  0  0  0
 25 26  1  0  0  0  0
 26 24  2  0  0  0  0
 28 30  1  0  0  0  0
 29 33  1  0  0  0  0
 29 27  1  0  0  0  0
 30 29  2  0  0  0  0
 31 32  1  0  0  0  0
 32 33  2  0  0  0  0
 34 31  2  0  0  0  0
 34 30  1  0  0  0  0
M  END
>  <MODEL>
2

>  <REMARK>
 VINA RESULT:      -8.9      1.562      1.734
  Name = 
  5 active torsions:
  status: ('A' for Active; 'I' for Inactive)
    1  A    between atoms: C_3  and  C_13
    2  A    between atoms: C_3  and  N_17
    3  A    between atoms: C_5  and  C_18
    4  A    between atoms: C_12  and  C_28
    5  A    between atoms: C_18  and  C_29
                            x       y       z     vdW  Elec       q    Type
                         _______ _______ _______ _____ _____    ______ ____

>  <TORSDO>
F 5

$$$$
=
 OpenBabel11052418483D

 34 38  0  0  1  0  0  0  0  0999 V2000
  185.7330  177.7940  144.5820 C   0  0  0  0  0  0  0  0  0  0  0  0
  186.3880  178.3210  146.8620 C   0  0  0  0  0  0  0  0  0  0  0  0
  188.1290  177.3730  145.2080 C   0  0  2  0  0  3  0  0  0  0  0  0
  189.9990  176.0870  146.2800 C   0  0  0  0  0  0  0  0  0  0  0  0
  184.0970  178.6650  146.1400 C   0  0  0  0  0  3  0  0  0  0  0  0
  185.0760  178.7260  147.1330 C   0  0  0  0  0  3  0  0  0  0  0  0
  186.7240  177.8140  145.5830 C   0  0  0  0  0  0  0  0  0  0  0  0
  184.4280  178.2120  144.8620 C   0  0  0  0  0  3  0  0  0  0  0  0
  188.1250  176.2490  144.1770 C   0  0  0  0  0  0  0  0  0  0  0  0
  186.0910  177.3980  143.1860 C   0  0  0  0  0  2  0  0  0  0  0  0
  187.3130  178.4450  147.8460 F   0  0  0  0  0  0  0  0  0  0  0  0
  190.0890  175.3140  145.2430 N   0  0  0  0  0  0  0  0  0  0  0  0
  189.1350  175.3400  144.1670 C   0  0  0  0  0  0  0  0  0  0  0  0
  188.9250  177.0180  146.3790 N   0  0  0  0  0  2  0  0  0  0  0  0
  186.9920  176.1680  143.1770 C   0  0  0  0  0  2  0  0  0  0  0  0
  189.5260  173.6300  140.7910 C   0  0  0  0  0  0  0  0  0  0  0  0
  189.6450  172.2930  141.1800 C   0  0  0  0  0  3  0  0  0  0  0  0
  189.2760  174.2970  143.1190 C   0  0  0  0  0  0  0  0  0  0  0  0
  189.5900  171.9560  142.5340 C   0  0  0  0  0  3  0  0  0  0  0  0
  189.3500  174.6270  141.7550 C   0  0  0  0  0  3  0  0  0  0  0  0
  189.4130  172.9530  143.4990 C   0  0  0  0  0  3  0  0  0  0  0  0
  189.5850  173.9700  139.4460 O   0  0  0  0  0  1  0  0  0  0  0  0
  190.9540  175.9290  147.4110 C   0  0  0  0  0  2  0  0  0  0  0  0
  193.1100  176.7910  146.8820 O   0  0  0  0  0  0  0  0  0  0  0  0
  192.7790  174.5360  146.3670 N   0  0  0  0  0  2  0  0  0  0  0  0
  192.3430  175.7920  146.8880 C   0  0  0  0  0  0  0  0  0  0  0  0
  194.0830  174.3630  145.7490 C   0  0  0  0  0  2  0  0  0  0  0  0
  195.6670  176.3820  144.4500 O   0  0  0  0  0  1  0  0  0  0  0  0
  193.9840  174.6380  144.2860 C   0  0  0  0  0  0  0  0  0  0  0  0
  194.7870  175.6230  143.6860 C   0  0  0  0  0  0  0  0  0  0  0  0
  193.8280  175.0850  141.5250 C   0  0  0  0  0  3  0  0  0  0  0  0
  193.0320  174.1020  142.1200 C   0  0  0  0  0  3  0  0  0  0  0  0
  193.1110  173.8760  143.4980 C   0  0  0  0  0  3  0  0  0  0  0  0
  194.7040  175.8440  142.3070 C   0  0  0  0  0  3  0  0  0  0  0  0
  1  8  2  0  0  0  0
  1  7  1  0  0  0  0
  2  6  1  0  0  0  0
  2 11  1  0  0  0  0
  3  9  1  6  0  0  0
  3  7  1  0  0  0  0
  3 14  1  0  0  0  0
  4 14  1  0  0  0  0
  4 23  1  0  0  0  0
  5  6  2  0  0  0  0
  7  2  2  0  0  0  0
  8  5  1  0  0  0  0
 10  1  1  0  0  0  0
 12  4  2  0  0  0  0
 13  9  2  0  0  0  0
 13 12  1  0  0  0  0
 15 10  1  0  0  0  0
 15  9  1  0  0  0  0
 16 17  2  0  0  0  0
 16 20  1  0  0  0  0
 17 19  1  0  0  0  0
 18 21  1  0  0  0  0
 18 13  1  0  0  0  0
 19 21  2  0  0  0  0
 20 18  2  0  0  0  0
 22 16  1  0  0  0  0
 24 26  2  0  0  0  0
 25 26  1  0  0  0  0
 26 23  1  0  0  0  0
 27 25  1  0  0  0  0
 29 27  1  0  0  0  0
 30 29  1  0  0  0  0
 30 28  1  0  0  0  0
 31 32  2  0  0  0  0
 31 34  1  0  0  0  0
 32 33  1  0  0  0  0
 33 29  2  0  0  0  0
 34 30  2  0  0  0  0
M  END
>  <MODEL>
3

>  <REMARK>
 VINA RESULT:      -8.8      1.412      1.681
  Name = 
  5 active torsions:
  status: ('A' for Active; 'I' for Inactive)
    1  A    between atoms: C_3  and  C_13
    2  A    between atoms: C_3  and  N_17
    3  A    between atoms: C_5  and  C_18
    4  A    between atoms: C_12  and  C_28
    5  A    between atoms: C_18  and  C_29
                            x       y       z     vdW  Elec       q    Type
                         _______ _______ _______ _____ _____    ______ ____

>  <TORSDO>
F 5

$$$$
=
 OpenBabel11052418483D

 34 38  0  0  1  0  0  0  0  0999 V2000
  185.8440  177.9170  145.7060 C   0  0  0  0  0  0  0  0  0  0  0  0
  184.9940  177.7600  143.4360 C   0  0  0  0  0  0  0  0  0  0  0  0
  186.8750  176.1760  144.2180 C   0  0  2  0  0  3  0  0  0  0  0  0
  188.3920  175.3680  142.3890 C   0  0  0  0  0  0  0  0  0  0  0  0
  184.0930  179.4160  144.9650 C   0  0  0  0  0  3  0  0  0  0  0  0
  184.1100  178.8110  143.7060 C   0  0  0  0  0  3  0  0  0  0  0  0
  185.9010  177.3220  144.4310 C   0  0  0  0  0  0  0  0  0  0  0  0
  184.9490  178.9590  145.9680 C   0  0  0  0  0  3  0  0  0  0  0  0
  188.1600  176.3540  145.0220 C   0  0  0  0  0  0  0  0  0  0  0  0
  186.6900  177.3830  146.8170 C   0  0  0  0  0  2  0  0  0  0  0  0
  184.9390  177.1760  142.2130 F   0  0  0  0  0  0  0  0  0  0  0  0
  189.3930  175.3190  143.2120 N   0  0  0  0  0  0  0  0  0  0  0  0
  189.3270  175.8420  144.5500 C   0  0  0  0  0  0  0  0  0  0  0  0
  187.1600  175.9500  142.8040 N   0  0  0  0  0  2  0  0  0  0  0  0
  188.1090  177.0970  146.3390 C   0  0  0  0  0  2  0  0  0  0  0  0
  192.9030  176.5550  145.6340 C   0  0  0  0  0  0  0  0  0  0  0  0
  192.9310  175.9390  146.8880 C   0  0  0  0  0  3  0  0  0  0  0  0
  190.5920  175.8560  145.3290 C   0  0  0  0  0  0  0  0  0  0  0  0
  191.7910  175.2910  147.3700 C   0  0  0  0  0  3  0  0  0  0  0  0
  191.7390  176.5200  144.8620 C   0  0  0  0  0  3  0  0  0  0  0  0
  190.6260  175.2550  146.5970 C   0  0  0  0  0  3  0  0  0  0  0  0
  194.0320  177.2040  145.1540 O   0  0  0  0  0  1  0  0  0  0  0  0
  188.5630  174.9130  140.9820 C   0  0  0  0  0  2  0  0  0  0  0  0
  189.1990  172.6180  140.9310 O   0  0  0  0  0  0  0  0  0  0  0  0
  190.9650  174.1470  140.8860 N   0  0  0  0  0  2  0  0  0  0  0  0
  189.5750  173.8190  140.9210 C   0  0  0  0  0  0  0  0  0  0  0  0
  192.0030  173.1310  140.9300 C   0  0  0  0  0  2  0  0  0  0  0  0
  194.5860  174.2690  141.4880 O   0  0  0  0  0  1  0  0  0  0  0  0
  192.6140  173.0980  142.2910 C   0  0  0  0  0  0  0  0  0  0  0  0
  193.8720  173.6800  142.5260 C   0  0  0  0  0  0  0  0  0  0  0  0
  193.7070  173.0820  144.8700 C   0  0  0  0  0  3  0  0  0  0  0  0
  192.4530  172.5080  144.6380 C   0  0  0  0  0  3  0  0  0  0  0  0
  191.9060  172.5180  143.3510 C   0  0  0  0  0  3  0  0  0  0  0  0
  194.4140  173.6670  143.8160 C   0  0  0  0  0  3  0  0  0  0  0  0
  1  8  1  0  0  0  0
  1 10  1  0  0  0  0
  2  6  2  0  0  0  0
  2  7  1  0  0  0  0
  3 14  1  6  0  0  0
  3  7  1  0  0  0  0
  3  9  1  0  0  0  0
  4 14  1  0  0  0  0
  4 12  2  0  0  0  0
  5  8  2  0  0  0  0
  6  5  1  0  0  0  0
  7  1  2  0  0  0  0
  9 15  1  0  0  0  0
 11  2  1  0  0  0  0
 12 13  1  0  0  0  0
 13  9  2  0  0  0  0
 13 18  1  0  0  0  0
 15 10  1  0  0  0  0
 16 17  1  0  0  0  0
 17 19  2  0  0  0  0
 18 21  2  0  0  0  0
 20 18  1  0  0  0  0
 20 16  2  0  0  0  0
 21 19  1  0  0  0  0
 22 16  1  0  0  0  0
 23  4  1  0  0  0  0
 25 26  1  0  0  0  0
 25 27  1  0  0  0  0
 26 24  2  0  0  0  0
 26 23  1  0  0  0  0
 27 29  1  0  0  0  0
 28 30  1  0  0  0  0
 29 30  2  0  0  0  0
 29 33  1  0  0  0  0
 30 34  1  0  0  0  0
 32 31  1  0  0  0  0
 33 32  2  0  0  0  0
 34 31  2  0  0  0  0
M  END
>  <MODEL>
4

>  <REMARK>
 VINA RESULT:      -8.7      2.231      4.709
  Name = 
  5 active torsions:
  status: ('A' for Active; 'I' for Inactive)
    1  A    between atoms: C_3  and  C_13
    2  A    between atoms: C_3  and  N_17
    3  A    between atoms: C_5  and  C_18
    4  A    between atoms: C_12  and  C_28
    5  A    between atoms: C_18  and  C_29
                            x       y       z     vdW  Elec       q    Type
                         _______ _______ _______ _____ _____    ______ ____

>  <TORSDO>
F 5

$$$$
=
 OpenBabel11052418483D

 34 38  0  0  1  0  0  0  0  0999 V2000
  190.3530  174.9000  146.1040 C   0  0  0  0  0  0  0  0  0  0  0  0
  189.3640  177.1000  145.8130 C   0  0  0  0  0  0  0  0  0  0  0  0
  188.8040  175.2070  144.1510 C   0  0  2  0  0  3  0  0  0  0  0  0
  188.1900  175.9860  141.8460 C   0  0  0  0  0  0  0  0  0  0  0  0
  190.8930  176.6820  147.6510 C   0  0  0  0  0  3  0  0  0  0  0  0
  190.0550  177.5470  146.9450 C   0  0  0  0  0  3  0  0  0  0  0  0
  189.5340  175.7700  145.3580 C   0  0  0  0  0  0  0  0  0  0  0  0
  191.0310  175.3560  147.2390 C   0  0  0  0  0  3  0  0  0  0  0  0
  189.6210  174.1400  143.4280 C   0  0  0  0  0  0  0  0  0  0  0  0
  190.4420  173.4550  145.7300 C   0  0  0  0  0  2  0  0  0  0  0  0
  188.5260  177.9660  145.1910 F   0  0  0  0  0  0  0  0  0  0  0  0
  188.7040  174.9160  141.3240 N   0  0  0  0  0  0  0  0  0  0  0  0
  189.4700  173.9680  142.0890 C   0  0  0  0  0  0  0  0  0  0  0  0
  188.3680  176.2550  143.2330 N   0  0  0  0  0  2  0  0  0  0  0  0
  190.5860  173.2860  144.2210 C   0  0  0  0  0  2  0  0  0  0  0  0
  190.6010  170.5080  140.9820 C   0  0  0  0  0  0  0  0  0  0  0  0
  191.3030  170.8170  139.8140 C   0  0  0  0  0  3  0  0  0  0  0  0
  190.1260  172.8690  141.3340 C   0  0  0  0  0  0  0  0  0  0  0  0
  191.4100  172.1460  139.3970 C   0  0  0  0  0  3  0  0  0  0  0  0
  190.0110  171.5270  141.7340 C   0  0  0  0  0  3  0  0  0  0  0  0
  190.8190  173.1660  140.1500 C   0  0  0  0  0  3  0  0  0  0  0  0
  190.4900  169.1880  141.3970 O   0  0  0  0  0  1  0  0  0  0  0  0
  187.5080  176.9830  140.9750 C   0  0  0  0  0  2  0  0  0  0  0  0
  186.8470  179.0260  142.0070 O   0  0  0  0  0  0  0  0  0  0  0  0
  185.4030  177.2200  142.3450 N   0  0  0  0  0  2  0  0  0  0  0  0
  186.5770  177.8150  141.7900 C   0  0  0  0  0  0  0  0  0  0  0  0
  184.5100  177.9470  143.2320 C   0  0  0  0  0  2  0  0  0  0  0  0
  185.1900  180.4030  144.5650 O   0  0  0  0  0  1  0  0  0  0  0  0
  185.0850  177.9770  144.6080 C   0  0  0  0  0  0  0  0  0  0  0  0
  185.3890  179.1990  145.2310 C   0  0  0  0  0  0  0  0  0  0  0  0
  186.0990  178.0060  147.2190 C   0  0  0  0  0  3  0  0  0  0  0  0
  185.7910  176.7900  146.6010 C   0  0  0  0  0  3  0  0  0  0  0  0
  185.2830  176.7750  145.2990 C   0  0  0  0  0  3  0  0  0  0  0  0
  185.8980  179.2080  146.5350 C   0  0  0  0  0  3  0  0  0  0  0  0
  1  8  1  0  0  0  0
  2  6  2  0  0  0  0
  3 14  1  6  0  0  0
  3  7  1  0  0  0  0
  4 14  1  0  0  0  0
  6  5  1  0  0  0  0
  7  2  1  0  0  0  0
  7  1  2  0  0  0  0
  8  5  2  0  0  0  0
  9  3  1  0  0  0  0
  9 15  1  0  0  0  0
 10  1  1  0  0  0  0
 11  2  1  0  0  0  0
 12  4  2  0  0  0  0
 12 13  1  0  0  0  0
 13  9  2  0  0  0  0
 15 10  1  0  0  0  0
 16 22  1  0  0  0  0
 16 20  1  0  0  0  0
 17 16  2  0  0  0  0
 18 20  2  0  0  0  0
 18 13  1  0  0  0  0
 19 17  1  0  0  0  0
 19 21  2  0  0  0  0
 21 18  1  0  0  0  0
 23 26  1  0  0  0  0
 23  4  1  0  0  0  0
 25 27  1  0  0  0  0
 26 24  2  0  0  0  0
 26 25  1  0  0  0  0
 27 29  1  0  0  0  0
 28 30  1  0  0  0  0
 29 30  2  0  0  0  0
 29 33  1  0  0  0  0
 30 34  1  0  0  0  0
 32 31  1  0  0  0  0
 33 32  2  0  0  0  0
 34 31  2  0  0  0  0
M  END
>  <MODEL>
5

>  <REMARK>
 VINA RESULT:      -8.7      3.357      6.663
  Name = 
  5 active torsions:
  status: ('A' for Active; 'I' for Inactive)
    1  A    between atoms: C_3  and  C_13
    2  A    between atoms: C_3  and  N_17
    3  A    between atoms: C_5  and  C_18
    4  A    between atoms: C_12  and  C_28
    5  A    between atoms: C_18  and  C_29
                            x       y       z     vdW  Elec       q    Type
                         _______ _______ _______ _____ _____    ______ ____

>  <TORSDO>
F 5

$$$$
=
 OpenBabel11052418483D

 34 38  0  0  1  0  0  0  0  0999 V2000
  189.0330  174.1420  141.5950 C   0  0  0  0  0  0  0  0  0  0  0  0
  191.3980  174.1230  142.1530 C   0  0  0  0  0  0  0  0  0  0  0  0
  189.6520  174.6930  143.9670 C   0  0  2  0  0  3  0  0  0  0  0  0
  190.4960  176.1850  145.8000 C   0  0  0  0  0  0  0  0  0  0  0  0
  190.6730  173.6260  139.8900 C   0  0  0  0  0  3  0  0  0  0  0  0
  191.6950  173.7830  140.8280 C   0  0  0  0  0  3  0  0  0  0  0  0
  190.0550  174.3410  142.5440 C   0  0  0  0  0  0  0  0  0  0  0  0
  189.3420  173.7920  140.2770 C   0  0  0  0  0  3  0  0  0  0  0  0
  188.4020  175.5680  144.0130 C   0  0  0  0  0  0  0  0  0  0  0  0
  187.6000  174.2270  142.0130 C   0  0  0  0  0  2  0  0  0  0  0  0
  192.4230  174.2170  143.0360 F   0  0  0  0  0  0  0  0  0  0  0  0
  189.3210  176.7150  145.9380 N   0  0  0  0  0  0  0  0  0  0  0  0
  188.2370  176.4540  145.0290 C   0  0  0  0  0  0  0  0  0  0  0  0
  190.7500  175.2950  144.7160 N   0  0  0  0  0  2  0  0  0  0  0  0
  187.3630  175.4270  142.9220 C   0  0  0  0  0  2  0  0  0  0  0  0
  185.5380  179.1060  144.6350 C   0  0  0  0  0  0  0  0  0  0  0  0
  184.5820  178.6530  145.5480 C   0  0  0  0  0  3  0  0  0  0  0  0
  186.9950  177.2460  145.2200 C   0  0  0  0  0  0  0  0  0  0  0  0
  184.8230  177.4940  146.2890 C   0  0  0  0  0  3  0  0  0  0  0  0
  186.7340  178.4040  144.4670 C   0  0  0  0  0  3  0  0  0  0  0  0
  186.0200  176.7910  146.1220 C   0  0  0  0  0  3  0  0  0  0  0  0
  185.3000  180.2550  143.8940 O   0  0  0  0  0  1  0  0  0  0  0  0
  191.6050  176.5870  146.7080 C   0  0  0  0  0  2  0  0  0  0  0  0
  193.2330  177.1650  145.0690 O   0  0  0  0  0  0  0  0  0  0  0  0
  193.7840  175.3470  146.4300 N   0  0  0  0  0  2  0  0  0  0  0  0
  192.9160  176.4050  146.0210 C   0  0  0  0  0  0  0  0  0  0  0  0
  195.0260  175.0520  145.7360 C   0  0  0  0  0  2  0  0  0  0  0  0
  197.6030  173.7910  145.9550 O   0  0  0  0  0  1  0  0  0  0  0  0
  195.2050  173.5740  145.6350 C   0  0  0  0  0  0  0  0  0  0  0  0
  196.4790  172.9950  145.7640 C   0  0  0  0  0  0  0  0  0  0  0  0
  195.5000  170.7910  145.5110 C   0  0  0  0  0  3  0  0  0  0  0  0
  194.2310  171.3660  145.3880 C   0  0  0  0  0  3  0  0  0  0  0  0
  194.0830  172.7550  145.4520 C   0  0  0  0  0  3  0  0  0  0  0  0
  196.6210  171.6050  145.6980 C   0  0  0  0  0  3  0  0  0  0  0  0
  1 10  1  0  0  0  0
  1  7  1  0  0  0  0
  2  7  2  0  0  0  0
  2 11  1  0  0  0  0
  3  7  1  6  0  0  0
  3  9  1  0  0  0  0
  3 14  1  0  0  0  0
  4 12  2  0  0  0  0
  4 23  1  0  0  0  0
  5  8  1  0  0  0  0
  5  6  2  0  0  0  0
  6  2  1  0  0  0  0
  8  1  2  0  0  0  0
  9 13  2  0  0  0  0
 10 15  1  0  0  0  0
 13 18  1  0  0  0  0
 13 12  1  0  0  0  0
 14  4  1  0  0  0  0
 15  9  1  0  0  0  0
 16 17  1  0  0  0  0
 17 19  2  0  0  0  0
 18 21  2  0  0  0  0
 20 16  2  0  0  0  0
 20 18  1  0  0  0  0
 21 19  1  0  0  0  0
 22 16  1  0  0  0  0
 24 26  2  0  0  0  0
 26 25  1  0  0  0  0
 26 23  1  0  0  0  0
 27 25  1  0  0  0  0
 29 27  1  0  0  0  0
 29 30  1  0  0  0  0
 30 28  1  0  0  0  0
 31 34  1  0  0  0  0
 32 33  1  0  0  0  0
 32 31  2  0  0  0  0
 33 29  2  0  0  0  0
 34 30  2  0  0  0  0
M  END
>  <MODEL>
6

>  <REMARK>
 VINA RESULT:      -8.6      2.718      5.645
  Name = 
  5 active torsions:
  status: ('A' for Active; 'I' for Inactive)
    1  A    between atoms: C_3  and  C_13
    2  A    between atoms: C_3  and  N_17
    3  A    between atoms: C_5  and  C_18
    4  A    between atoms: C_12  and  C_28
    5  A    between atoms: C_18  and  C_29
                            x       y       z     vdW  Elec       q    Type
                         _______ _______ _______ _____ _____    ______ ____

>  <TORSDO>
F 5

$$$$
=
 OpenBabel11052418483D

 34 38  0  0  1  0  0  0  0  0999 V2000
  190.9730  173.9370  141.0390 C   0  0  0  0  0  0  0  0  0  0  0  0
  188.7400  174.2780  141.9350 C   0  0  0  0  0  0  0  0  0  0  0  0
  190.8050  174.9380  143.3370 C   0  0  2  0  0  3  0  0  0  0  0  0
  190.4510  174.8640  145.8200 C   0  0  0  0  0  0  0  0  0  0  0  0
  189.0360  173.3010  139.7330 C   0  0  0  0  0  3  0  0  0  0  0  0
  188.2000  173.7400  140.7610 C   0  0  0  0  0  3  0  0  0  0  0  0
  190.1440  174.3500  142.1010 C   0  0  0  0  0  0  0  0  0  0  0  0
  190.4210  173.4120  139.8670 C   0  0  0  0  0  3  0  0  0  0  0  0
  192.1460  174.2790  143.6430 C   0  0  0  0  0  0  0  0  0  0  0  0
  192.4530  174.1320  141.1280 C   0  0  0  0  0  2  0  0  0  0  0  0
  187.8850  174.7340  142.8840 F   0  0  0  0  0  0  0  0  0  0  0  0
  191.6900  174.5340  146.0090 N   0  0  0  0  0  0  0  0  0  0  0  0
  192.5780  174.1940  144.9290 C   0  0  0  0  0  0  0  0  0  0  0  0
  189.9210  174.9100  144.4990 N   0  0  0  0  0  2  0  0  0  0  0  0
  192.9780  173.7330  142.5030 C   0  0  0  0  0  2  0  0  0  0  0  0
  195.4770  171.8630  145.7250 C   0  0  0  0  0  0  0  0  0  0  0  0
  196.5160  172.7800  145.9060 C   0  0  0  0  0  3  0  0  0  0  0  0
  193.9250  173.6890  145.3000 C   0  0  0  0  0  0  0  0  0  0  0  0
  196.2670  174.1480  145.7750 C   0  0  0  0  0  3  0  0  0  0  0  0
  194.1910  172.3140  145.4170 C   0  0  0  0  0  3  0  0  0  0  0  0
  194.9800  174.5990  145.4680 C   0  0  0  0  0  3  0  0  0  0  0  0
  195.7220  170.5020  145.8500 O   0  0  0  0  0  1  0  0  0  0  0  0
  189.5560  175.0910  146.9890 C   0  0  0  0  0  2  0  0  0  0  0  0
  189.6160  177.4700  147.1040 O   0  0  0  0  0  0  0  0  0  0  0  0
  187.5330  176.5440  146.5900 N   0  0  0  0  0  2  0  0  0  0  0  0
  188.9250  176.4390  146.8910 C   0  0  0  0  0  0  0  0  0  0  0  0
  186.8350  177.8190  146.5800 C   0  0  0  0  0  2  0  0  0  0  0  0
  184.0740  178.5260  146.1980 O   0  0  0  0  0  1  0  0  0  0  0  0
  186.2510  178.0610  145.2290 C   0  0  0  0  0  0  0  0  0  0  0  0
  184.9010  178.4200  145.0860 C   0  0  0  0  0  0  0  0  0  0  0  0
  185.2000  178.5760  142.6850 C   0  0  0  0  0  3  0  0  0  0  0  0
  186.5450  178.2230  142.8270 C   0  0  0  0  0  3  0  0  0  0  0  0
  187.0710  177.9680  144.0970 C   0  0  0  0  0  3  0  0  0  0  0  0
  184.3790  178.6750  143.8120 C   0  0  0  0  0  3  0  0  0  0  0  0
  1 10  1  0  0  0  0
  1  7  1  0  0  0  0
  2  7  2  0  0  0  0
  2 11  1  0  0  0  0
  3  7  1  6  0  0  0
  3  9  1  0  0  0  0
  3 14  1  0  0  0  0
  4 12  2  0  0  0  0
  4 23  1  0  0  0  0
  5  8  1  0  0  0  0
  5  6  2  0  0  0  0
  6  2  1  0  0  0  0
  8  1  2  0  0  0  0
  9 13  2  0  0  0  0
 10 15  1  0  0  0  0
 13 18  1  0  0  0  0
 13 12  1  0  0  0  0
 14  4  1  0  0  0  0
 15  9  1  0  0  0  0
 16 22  1  0  0  0  0
 16 17  1  0  0  0  0
 18 20  1  0  0  0  0
 18 21  2  0  0  0  0
 19 17  2  0  0  0  0
 20 16  2  0  0  0  0
 21 19  1  0  0  0  0
 25 26  1  0  0  0  0
 26 23  1  0  0  0  0
 26 24  2  0  0  0  0
 27 25  1  0  0  0  0
 29 27  1  0  0  0  0
 30 29  1  0  0  0  0
 30 28  1  0  0  0  0
 31 32  2  0  0  0  0
 31 34  1  0  0  0  0
 32 33  1  0  0  0  0
 33 29  2  0  0  0  0
 34 30  2  0  0  0  0
M  END
>  <MODEL>
7

>  <REMARK>
 VINA RESULT:      -8.5      2.558      7.267
  Name = 
  5 active torsions:
  status: ('A' for Active; 'I' for Inactive)
    1  A    between atoms: C_3  and  C_13
    2  A    between atoms: C_3  and  N_17
    3  A    between atoms: C_5  and  C_18
    4  A    between atoms: C_12  and  C_28
    5  A    between atoms: C_18  and  C_29
                            x       y       z     vdW  Elec       q    Type
                         _______ _______ _______ _____ _____    ______ ____

>  <TORSDO>
F 5

$$$$
=
 OpenBabel11052418483D

 34 38  0  0  1  0  0  0  0  0999 V2000
  186.9830  176.7500  144.6940 C   0  0  0  0  0  0  0  0  0  0  0  0
  187.7490  177.5750  146.8470 C   0  0  0  0  0  0  0  0  0  0  0  0
  189.4640  176.9790  145.0130 C   0  0  2  0  0  3  0  0  0  0  0  0
  191.7130  176.2720  145.8730 C   0  0  0  0  0  0  0  0  0  0  0  0
  185.3760  177.2910  146.4230 C   0  0  0  0  0  3  0  0  0  0  0  0
  186.4190  177.6600  147.2750 C   0  0  0  0  0  3  0  0  0  0  0  0
  188.0480  177.0820  145.5540 C   0  0  0  0  0  0  0  0  0  0  0  0
  185.6580  176.8490  145.1290 C   0  0  0  0  0  3  0  0  0  0  0  0
  189.6240  175.8220  144.0320 C   0  0  0  0  0  0  0  0  0  0  0  0
  187.2610  176.3610  143.2780 C   0  0  0  0  0  2  0  0  0  0  0  0
  188.7220  177.9910  147.6960 F   0  0  0  0  0  0  0  0  0  0  0  0
  191.8740  175.4780  144.8610 N   0  0  0  0  0  0  0  0  0  0  0  0
  190.8240  175.1930  143.9200 C   0  0  0  0  0  0  0  0  0  0  0  0
  190.4580  176.9120  146.0800 N   0  0  0  0  0  2  0  0  0  0  0  0
  188.4380  175.3960  143.1940 C   0  0  0  0  0  2  0  0  0  0  0  0
  191.7700  173.4810  140.6570 C   0  0  0  0  0  0  0  0  0  0  0  0
  191.7100  172.1360  141.0340 C   0  0  0  0  0  3  0  0  0  0  0  0
  191.1000  174.1490  142.9000 C   0  0  0  0  0  0  0  0  0  0  0  0
  191.3570  171.7950  142.3410 C   0  0  0  0  0  3  0  0  0  0  0  0
  191.4730  174.4810  141.5860 C   0  0  0  0  0  3  0  0  0  0  0  0
  191.0590  172.7960  143.2700 C   0  0  0  0  0  3  0  0  0  0  0  0
  192.1250  173.8240  139.3600 O   0  0  0  0  0  1  0  0  0  0  0  0
  192.8050  176.4320  146.8730 C   0  0  0  0  0  2  0  0  0  0  0  0
  194.6430  177.4250  145.7280 O   0  0  0  0  0  0  0  0  0  0  0  0
  194.7890  175.1140  146.0450 N   0  0  0  0  0  2  0  0  0  0  0  0
  194.1300  176.3730  146.1920 C   0  0  0  0  0  0  0  0  0  0  0  0
  196.0310  174.9710  145.3030 C   0  0  0  0  0  2  0  0  0  0  0  0
  196.3840  176.6680  143.0080 O   0  0  0  0  0  1  0  0  0  0  0  0
  195.7360  174.5110  143.9150 C   0  0  0  0  0  0  0  0  0  0  0  0
  195.9370  175.3650  142.8180 C   0  0  0  0  0  0  0  0  0  0  0  0
  195.2380  173.5960  141.3150 C   0  0  0  0  0  3  0  0  0  0  0  0
  195.0430  172.7430  142.4060 C   0  0  0  0  0  3  0  0  0  0  0  0
  195.2930  173.1980  143.7040 C   0  0  0  0  0  3  0  0  0  0  0  0
  195.6840  174.9040  141.5210 C   0  0  0  0  0  3  0  0  0  0  0  0
  1  8  2  0  0  0  0
  1  7  1  0  0  0  0
  2  6  1  0  0  0  0
  2 11  1  0  0  0  0
  3  9  1  1  0  0  0
  3  7  1  0  0  0  0
  3 14  1  0  0  0  0
  4 14  1  0  0  0  0
  4 23  1  0  0  0  0
  5  6  2  0  0  0  0
  7  2  2  0  0  0  0
  8  5  1  0  0  0  0
 10  1  1  0  0  0  0
 12  4  2  0  0  0  0
 13  9  2  0  0  0  0
 13 12  1  0  0  0  0
 15 10  1  0  0  0  0
 15  9  1  0  0  0  0
 16 17  2  0  0  0  0
 16 20  1  0  0  0  0
 17 19  1  0  0  0  0
 18 21  1  0  0  0  0
 18 13  1  0  0  0  0
 19 21  2  0  0  0  0
 20 18  2  0  0  0  0
 22 16  1  0  0  0  0
 24 26  2  0  0  0  0
 25 26  1  0  0  0  0
 26 23  1  0  0  0  0
 27 25  1  0  0  0  0
 29 27  1  0  0  0  0
 30 28  1  0  0  0  0
 30 29  2  0  0  0  0
 31 34  2  0  0  0  0
 31 32  1  0  0  0  0
 32 33  2  0  0  0  0
 33 29  1  0  0  0  0
 34 30  1  0  0  0  0
M  END
>  <MODEL>
8

>  <REMARK>
 VINA RESULT:      -8.4      1.871      2.556
  Name = 
  5 active torsions:
  status: ('A' for Active; 'I' for Inactive)
    1  A    between atoms: C_3  and  C_13
    2  A    between atoms: C_3  and  N_17
    3  A    between atoms: C_5  and  C_18
    4  A    between atoms: C_12  and  C_28
    5  A    between atoms: C_18  and  C_29
                            x       y       z     vdW  Elec       q    Type
                         _______ _______ _______ _____ _____    ______ ____

>  <TORSDO>
F 5

$$$$
=
 OpenBabel11052418483D

 34 38  0  0  1  0  0  0  0  0999 V2000
  191.5660  176.3150  145.2970 C   0  0  0  0  0  0  0  0  0  0  0  0
  191.9860  174.0720  144.4630 C   0  0  0  0  0  0  0  0  0  0  0  0
  190.1360  175.5190  143.3910 C   0  0  2  0  0  3  0  0  0  0  0  0
  188.2550  174.2180  142.3600 C   0  0  0  0  0  0  0  0  0  0  0  0
  193.2880  174.9490  146.3140 C   0  0  0  0  0  3  0  0  0  0  0  0
  192.9940  173.9160  145.4210 C   0  0  0  0  0  3  0  0  0  0  0  0
  191.2330  175.2690  144.4140 C   0  0  0  0  0  0  0  0  0  0  0  0
  192.5840  176.1520  146.2430 C   0  0  0  0  0  3  0  0  0  0  0  0
  189.0350  176.4240  143.9360 C   0  0  0  0  0  0  0  0  0  0  0  0
  190.8850  177.6400  145.1770 C   0  0  0  0  0  2  0  0  0  0  0  0
  191.7720  173.0570  143.5880 F   0  0  0  0  0  0  0  0  0  0  0  0
  187.4140  175.1600  142.6530 N   0  0  0  0  0  0  0  0  0  0  0  0
  187.7620  176.2840  143.4820 C   0  0  0  0  0  0  0  0  0  0  0  0
  189.5880  174.2760  142.8580 N   0  0  0  0  0  2  0  0  0  0  0  0
  189.3840  177.4690  144.9720 C   0  0  0  0  0  2  0  0  0  0  0  0
  184.8830  177.9020  145.3690 C   0  0  0  0  0  0  0  0  0  0  0  0
  184.6540  179.0370  144.5860 C   0  0  0  0  0  3  0  0  0  0  0  0
  186.6610  177.2060  143.8600 C   0  0  0  0  0  0  0  0  0  0  0  0
  185.4300  179.2650  143.4480 C   0  0  0  0  0  3  0  0  0  0  0  0
  185.8850  176.9960  145.0120 C   0  0  0  0  0  3  0  0  0  0  0  0
  186.4320  178.3580  143.0900 C   0  0  0  0  0  3  0  0  0  0  0  0
  184.1160  177.6750  146.5040 O   0  0  0  0  0  1  0  0  0  0  0  0
  187.7980  173.0260  141.5930 C   0  0  0  0  0  2  0  0  0  0  0  0
  189.5320  172.0790  140.2630 O   0  0  0  0  0  0  0  0  0  0  0  0
  188.2690  173.7460  139.2230 N   0  0  0  0  0  2  0  0  0  0  0  0
  188.5820  172.9020  140.3310 C   0  0  0  0  0  0  0  0  0  0  0  0
  189.0580  173.7490  138.0020 C   0  0  0  0  0  2  0  0  0  0  0  0
  190.1430  174.1250  135.3650 O   0  0  0  0  0  1  0  0  0  0  0  0
  188.4410  174.6750  137.0080 C   0  0  0  0  0  0  0  0  0  0  0  0
  188.9920  174.8180  135.7240 C   0  0  0  0  0  0  0  0  0  0  0  0
  187.2210  176.3670  135.1390 C   0  0  0  0  0  3  0  0  0  0  0  0
  186.6690  176.2210  136.4160 C   0  0  0  0  0  3  0  0  0  0  0  0
  187.2760  175.3740  137.3480 C   0  0  0  0  0  3  0  0  0  0  0  0
  188.3800  175.6670  134.7950 C   0  0  0  0  0  3  0  0  0  0  0  0
  1  8  1  0  0  0  0
  2  6  2  0  0  0  0
  3 14  1  1  0  0  0
  3  9  1  0  0  0  0
  3  7  1  0  0  0  0
  4 12  2  0  0  0  0
  4 14  1  0  0  0  0
  6  5  1  0  0  0  0
  7  2  1  0  0  0  0
  7  1  2  0  0  0  0
  8  5  2  0  0  0  0
  9 15  1  0  0  0  0
 10  1  1  0  0  0  0
 11  2  1  0  0  0  0
 12 13  1  0  0  0  0
 13 18  1  0  0  0  0
 13  9  2  0  0  0  0
 15 10  1  0  0  0  0
 16 22  1  0  0  0  0
 17 16  2  0  0  0  0
 18 20  2  0  0  0  0
 19 17  1  0  0  0  0
 20 16  1  0  0  0  0
 21 19  2  0  0  0  0
 21 18  1  0  0  0  0
 23  4  1  0  0  0  0
 24 26  2  0  0  0  0
 25 26  1  0  0  0  0
 26 23  1  0  0  0  0
 27 25  1  0  0  0  0
 28 30  1  0  0  0  0
 29 33  1  0  0  0  0
 29 27  1  0  0  0  0
 30 29  2  0  0  0  0
 31 32  1  0  0  0  0
 32 33  2  0  0  0  0
 34 31  2  0  0  0  0
 34 30  1  0  0  0  0
M  END
>  <MODEL>
9

>  <REMARK>
 VINA RESULT:      -8.3      3.572      8.111
  Name = 
  5 active torsions:
  status: ('A' for Active; 'I' for Inactive)
    1  A    between atoms: C_3  and  C_13
    2  A    between atoms: C_3  and  N_17
    3  A    between atoms: C_5  and  C_18
    4  A    between atoms: C_12  and  C_28
    5  A    between atoms: C_18  and  C_29
                            x       y       z     vdW  Elec       q    Type
                         _______ _______ _______ _____ _____    ______ ____

>  <TORSDO>
F 5

$$$$
