=
 OpenBabel11052417423D

 31 35  0  0  1  0  0  0  0  0999 V2000
  185.2960  177.9670  141.1010 C   0  0  0  0  0  0  0  0  0  0  0  0
  187.4330  177.5830  144.1820 C   0  0  0  0  0  0  0  0  0  0  0  0
  186.5930  177.8830  145.3040 C   0  0  0  0  0  0  0  0  0  0  0  0
  184.4510  178.5590  146.2760 C   0  0  0  0  0  0  0  0  0  0  0  0
  186.9980  177.6140  142.8210 C   0  0  0  0  0  0  0  0  0  0  0  0
  186.2080  177.6170  140.1070 C   0  0  0  0  0  3  0  0  0  0  0  0
  185.2470  178.2740  145.1660 C   0  0  0  0  0  3  0  0  0  0  0  0
  189.6630  176.9260  143.3650 C   0  0  0  0  0  0  0  0  0  0  0  0
  183.9050  178.3390  140.7360 C   0  0  0  0  0  1  0  0  0  0  0  0
  188.4320  177.4080  146.8330 C   0  0  0  0  0  3  0  0  0  0  0  0
  183.1280  178.9410  146.1030 O   0  0  0  0  0  1  0  0  0  0  0  0
  189.1860  176.9310  142.0970 N   0  0  0  0  0  0  0  0  0  0  0  0
  188.7900  177.2140  144.4370 C   0  0  0  0  0  0  0  0  0  0  0  0
  185.6890  177.9610  142.4400 C   0  0  0  0  0  3  0  0  0  0  0  0
  184.9840  178.4590  147.5600 C   0  0  0  0  0  3  0  0  0  0  0  0
  187.9120  177.2670  141.7960 C   0  0  0  0  0  0  0  0  0  0  0  0
  187.5130  177.2680  140.4550 C   0  0  0  0  0  3  0  0  0  0  0  0
  189.2570  177.1250  145.7550 C   0  0  0  0  0  3  0  0  0  0  0  0
  187.1150  177.7890  146.6220 C   0  0  0  0  0  0  0  0  0  0  0  0
  186.3130  178.0750  147.7310 C   0  0  0  0  0  3  0  0  0  0  0  0
  192.4340  174.5790  144.4330 O   0  0  0  0  0  1  0  0  0  0  0  0
  191.5920  175.6500  142.4050 C   0  0  0  0  0  2  0  0  0  0  0  0
  191.2980  174.9730  143.7180 C   0  0  2  0  0  0  0  0  0  0  0  0
  191.0950  176.4870  143.5890 C   0  0  2  0  0  3  0  0  0  0  0  0
  190.1140  174.0890  143.7540 N   0  0  0  0  0  0  0  0  0  0  0  0
  190.0300  173.2110  142.5650 C   0  0  0  0  0  0  0  0  0  0  0  0
  191.3010  172.8440  142.1540 F   0  0  0  0  0  0  0  0  0  0  0  0
  189.3940  173.8490  141.5110 F   0  0  0  0  0  0  0  0  0  0  0  0
  189.2840  171.9280  142.8940 C   0  0  0  0  0  1  0  0  0  0  0  0
  189.5110  173.8440  146.0020 O   0  0  0  0  0  1  0  0  0  0  0  0
  190.2250  173.2610  144.9550 C   0  0  0  0  0  2  0  0  0  0  0  0
  1 14  1  0  0  0  0
  2 13  2  0  0  0  0
  2  3  1  0  0  0  0
  3 19  1  0  0  0  0
  4 15  2  0  0  0  0
  5  2  1  0  0  0  0
  6 17  1  0  0  0  0
  6  1  2  0  0  0  0
  7  3  2  0  0  0  0
  7  4  1  0  0  0  0
  8 13  1  0  0  0  0
  9  1  1  0  0  0  0
 11  4  1  0  0  0  0
 12  8  2  0  0  0  0
 13 18  1  0  0  0  0
 14  5  2  0  0  0  0
 15 20  1  0  0  0  0
 16 12  1  0  0  0  0
 16  5  1  0  0  0  0
 17 16  2  0  0  0  0
 18 10  2  0  0  0  0
 19 10  1  0  0  0  0
 19 20  2  0  0  0  0
 22 24  1  0  0  0  0
 22 23  1  0  0  0  0
 23 25  1  0  0  0  0
 23 21  1  1  0  0  0
 24  8  1  6  0  0  0
 24 23  1  0  0  0  0
 25 31  1  0  0  0  0
 26 29  1  0  0  0  0
 26 25  1  0  0  0  0
 27 26  1  0  0  0  0
 28 26  1  0  0  0  0
 31 30  1  0  0  0  0
M  END
>  <MODEL>
1

>  <REMARK>
 VINA RESULT:      -8.3      0.000      0.000
  Name = 
  4 active torsions:
  status: ('A' for Active; 'I' for Inactive)
    1  A    between atoms: C_1  and  N_19
    2  A    between atoms: C_7  and  N_19
    3  A    between atoms: C_15  and  C_23
    4  A    between atoms: N_19  and  C_22
                            x       y       z     vdW  Elec       q    Type
                         _______ _______ _______ _____ _____    ______ ____

>  <TORSDO>
F 4

$$$$
=
 OpenBabel11052417423D

 31 35  0  0  1  0  0  0  0  0999 V2000
  185.5200  177.6340  146.5500 C   0  0  0  0  0  0  0  0  0  0  0  0
  187.2610  176.4700  143.4160 C   0  0  0  0  0  0  0  0  0  0  0  0
  186.4980  176.9750  142.3110 C   0  0  0  0  0  0  0  0  0  0  0  0
  184.5950  178.2040  141.3850 C   0  0  0  0  0  0  0  0  0  0  0  0
  186.9310  176.6920  144.7890 C   0  0  0  0  0  0  0  0  0  0  0  0
  186.3680  177.1140  147.5260 C   0  0  0  0  0  3  0  0  0  0  0  0
  185.3170  177.7220  142.4790 C   0  0  0  0  0  3  0  0  0  0  0  0
  189.2100  175.1720  144.1820 C   0  0  0  0  0  0  0  0  0  0  0  0
  184.3190  178.4130  146.9460 C   0  0  0  0  0  1  0  0  0  0  0  0
  188.0880  175.9980  140.7420 C   0  0  0  0  0  3  0  0  0  0  0  0
  183.4350  178.9370  141.5880 O   0  0  0  0  0  1  0  0  0  0  0  0
  188.8730  175.4490  145.4650 N   0  0  0  0  0  0  0  0  0  0  0  0
  188.4340  175.7070  143.1300 C   0  0  0  0  0  0  0  0  0  0  0  0
  185.8020  177.4260  145.1990 C   0  0  0  0  0  3  0  0  0  0  0  0
  185.0410  177.9480  140.0900 C   0  0  0  0  0  3  0  0  0  0  0  0
  187.7780  176.1680  145.7960 C   0  0  0  0  0  0  0  0  0  0  0  0
  187.4950  176.3830  147.1490 C   0  0  0  0  0  3  0  0  0  0  0  0
  188.8280  175.4960  141.8020 C   0  0  0  0  0  3  0  0  0  0  0  0
  186.9320  176.7260  140.9820 C   0  0  0  0  0  0  0  0  0  0  0  0
  186.2070  177.2110  139.8890 C   0  0  0  0  0  3  0  0  0  0  0  0
  192.9510  174.6070  144.0790 O   0  0  0  0  0  1  0  0  0  0  0  0
  190.9760  173.7310  145.2190 C   0  0  0  0  0  2  0  0  0  0  0  0
  191.7220  174.9180  144.6690 C   0  0  2  0  0  0  0  0  0  0  0  0
  190.4860  174.3970  143.9280 C   0  0  2  0  0  3  0  0  0  0  0  0
  191.6200  176.1750  145.4400 N   0  0  0  0  0  0  0  0  0  0  0  0
  192.2650  176.0740  146.7690 C   0  0  0  0  0  0  0  0  0  0  0  0
  193.3690  176.9080  146.8280 F   0  0  0  0  0  0  0  0  0  0  0  0
  192.6790  174.7770  147.0310 F   0  0  0  0  0  0  0  0  0  0  0  0
  191.3130  176.5230  147.8650 C   0  0  0  0  0  1  0  0  0  0  0  0
  191.3450  177.9620  143.9540 O   0  0  0  0  0  1  0  0  0  0  0  0
  192.2890  177.2190  144.6620 C   0  0  0  0  0  2  0  0  0  0  0  0
  1  9  1  0  0  0  0
  1  6  1  0  0  0  0
  2  5  1  0  0  0  0
  3  7  2  0  0  0  0
  3  2  1  0  0  0  0
  4 11  1  0  0  0  0
  4  7  1  0  0  0  0
  5 14  1  0  0  0  0
  5 16  2  0  0  0  0
  8 12  2  0  0  0  0
 10 19  1  0  0  0  0
 10 18  2  0  0  0  0
 12 16  1  0  0  0  0
 13  2  2  0  0  0  0
 13  8  1  0  0  0  0
 14  1  2  0  0  0  0
 15  4  2  0  0  0  0
 16 17  1  0  0  0  0
 17  6  2  0  0  0  0
 18 13  1  0  0  0  0
 19  3  1  0  0  0  0
 20 15  1  0  0  0  0
 20 19  2  0  0  0  0
 23 21  1  6  0  0  0
 23 22  1  0  0  0  0
 23 25  1  0  0  0  0
 24  8  1  1  0  0  0
 24 23  1  0  0  0  0
 24 22  1  0  0  0  0
 25 26  1  0  0  0  0
 26 27  1  0  0  0  0
 26 28  1  0  0  0  0
 26 29  1  0  0  0  0
 30 31  1  0  0  0  0
 31 25  1  0  0  0  0
M  END
>  <MODEL>
2

>  <REMARK>
 VINA RESULT:      -7.8      2.392      4.858
  Name = 
  4 active torsions:
  status: ('A' for Active; 'I' for Inactive)
    1  A    between atoms: C_1  and  N_19
    2  A    between atoms: C_7  and  N_19
    3  A    between atoms: C_15  and  C_23
    4  A    between atoms: N_19  and  C_22
                            x       y       z     vdW  Elec       q    Type
                         _______ _______ _______ _____ _____    ______ ____

>  <TORSDO>
F 4

$$$$
=
 OpenBabel11052417423D

 31 35  0  0  1  0  0  0  0  0999 V2000
  188.5280  174.6370  140.5790 C   0  0  0  0  0  0  0  0  0  0  0  0
  187.5620  176.3220  143.8100 C   0  0  0  0  0  0  0  0  0  0  0  0
  186.3930  177.1040  143.5310 C   0  0  0  0  0  0  0  0  0  0  0  0
  184.6790  177.9550  142.0050 C   0  0  0  0  0  0  0  0  0  0  0  0
  188.2460  175.5240  142.8410 C   0  0  0  0  0  0  0  0  0  0  0  0
  189.6330  173.8960  140.9930 C   0  0  0  0  0  3  0  0  0  0  0  0
  185.8190  177.1860  142.2480 C   0  0  0  0  0  3  0  0  0  0  0  0
  189.2300  175.5850  145.4670 C   0  0  0  0  0  0  0  0  0  0  0  0
  188.0750  174.5710  139.1660 C   0  0  0  0  0  1  0  0  0  0  0  0
  186.2790  177.8000  145.8650 C   0  0  0  0  0  3  0  0  0  0  0  0
  184.1400  178.0120  140.7270 O   0  0  0  0  0  1  0  0  0  0  0  0
  189.8130  174.8140  144.5180 N   0  0  0  0  0  0  0  0  0  0  0  0
  188.0710  176.3260  145.1450 C   0  0  0  0  0  0  0  0  0  0  0  0
  187.8430  175.4380  141.4950 C   0  0  0  0  0  3  0  0  0  0  0  0
  184.0820  178.6630  143.0460 C   0  0  0  0  0  3  0  0  0  0  0  0
  189.3740  174.7680  143.2400 C   0  0  0  0  0  0  0  0  0  0  0  0
  190.0550  173.9620  142.3210 C   0  0  0  0  0  3  0  0  0  0  0  0
  187.4140  177.0540  146.1440 C   0  0  0  0  0  3  0  0  0  0  0  0
  185.7680  177.8360  144.5760 C   0  0  0  0  0  0  0  0  0  0  0  0
  184.6260  178.6030  144.3280 C   0  0  0  0  0  3  0  0  0  0  0  0
  191.8110  174.8840  148.1450 O   0  0  0  0  0  1  0  0  0  0  0  0
  190.5990  176.7780  147.1920 C   0  0  0  0  0  2  0  0  0  0  0  0
  191.3070  175.4670  146.9780 C   0  0  2  0  0  0  0  0  0  0  0  0
  189.7790  175.5220  146.8760 C   0  0  2  0  0  3  0  0  0  0  0  0
  192.1050  175.3420  145.7400 N   0  0  0  0  0  0  0  0  0  0  0  0
  192.8990  176.5590  145.4570 C   0  0  0  0  0  0  0  0  0  0  0  0
  193.4440  177.0560  146.6300 F   0  0  0  0  0  0  0  0  0  0  0  0
  192.1160  177.5490  144.8820 F   0  0  0  0  0  0  0  0  0  0  0  0
  194.0610  176.2420  144.5300 C   0  0  0  0  0  1  0  0  0  0  0  0
  192.5970  173.1370  145.1300 O   0  0  0  0  0  1  0  0  0  0  0  0
  193.0140  174.2090  145.9190 C   0  0  0  0  0  2  0  0  0  0  0  0
  1  6  2  0  0  0  0
  1 14  1  0  0  0  0
  2 13  1  0  0  0  0
  3  2  2  0  0  0  0
  3 19  1  0  0  0  0
  4  7  2  0  0  0  0
  4 15  1  0  0  0  0
  5 16  1  0  0  0  0
  5  2  1  0  0  0  0
  6 17  1  0  0  0  0
  7  3  1  0  0  0  0
  9  1  1  0  0  0  0
 10 18  1  0  0  0  0
 11  4  1  0  0  0  0
 12  8  2  0  0  0  0
 13  8  1  0  0  0  0
 13 18  2  0  0  0  0
 14  5  2  0  0  0  0
 15 20  2  0  0  0  0
 16 12  1  0  0  0  0
 17 16  2  0  0  0  0
 19 10  2  0  0  0  0
 20 19  1  0  0  0  0
 23 22  1  0  0  0  0
 23 21  1  1  0  0  0
 24  8  1  6  0  0  0
 24 23  1  0  0  0  0
 24 22  1  0  0  0  0
 25 31  1  0  0  0  0
 25 23  1  0  0  0  0
 26 25  1  0  0  0  0
 26 27  1  0  0  0  0
 28 26  1  0  0  0  0
 29 26  1  0  0  0  0
 30 31  1  0  0  0  0
M  END
>  <MODEL>
3

>  <REMARK>
 VINA RESULT:      -7.8      2.644      4.044
  Name = 
  4 active torsions:
  status: ('A' for Active; 'I' for Inactive)
    1  A    between atoms: C_1  and  N_19
    2  A    between atoms: C_7  and  N_19
    3  A    between atoms: C_15  and  C_23
    4  A    between atoms: N_19  and  C_22
                            x       y       z     vdW  Elec       q    Type
                         _______ _______ _______ _____ _____    ______ ____

>  <TORSDO>
F 4

$$$$
=
 OpenBabel11052417423D

 31 35  0  0  1  0  0  0  0  0999 V2000
  185.4110  178.0430  146.8450 C   0  0  0  0  0  0  0  0  0  0  0  0
  186.9230  177.6850  143.4100 C   0  0  0  0  0  0  0  0  0  0  0  0
  185.8590  177.8920  142.4700 C   0  0  0  0  0  0  0  0  0  0  0  0
  183.5150  178.3380  141.9280 C   0  0  0  0  0  0  0  0  0  0  0  0
  186.7620  177.7380  144.8300 C   0  0  0  0  0  0  0  0  0  0  0  0
  186.5360  177.8580  147.6440 C   0  0  0  0  0  3  0  0  0  0  0  0
  184.5300  178.1380  142.8650 C   0  0  0  0  0  3  0  0  0  0  0  0
  189.3090  177.1960  143.7830 C   0  0  0  0  0  0  0  0  0  0  0  0
  184.0890  178.3060  147.4700 C   0  0  0  0  0  1  0  0  0  0  0  0
  187.4190  177.6170  140.6170 C   0  0  0  0  0  3  0  0  0  0  0  0
  182.2160  178.5780  142.3530 O   0  0  0  0  0  1  0  0  0  0  0  0
  189.1070  177.2990  145.1190 N   0  0  0  0  0  0  0  0  0  0  0  0
  188.2310  177.4240  142.8990 C   0  0  0  0  0  0  0  0  0  0  0  0
  185.5260  177.9850  145.4550 C   0  0  0  0  0  3  0  0  0  0  0  0
  183.8060  178.2970  140.5650 C   0  0  0  0  0  3  0  0  0  0  0  0
  187.8930  177.5470  145.6600 C   0  0  0  0  0  0  0  0  0  0  0  0
  187.7750  177.6110  147.0520 C   0  0  0  0  0  3  0  0  0  0  0  0
  188.4530  177.4060  141.5160 C   0  0  0  0  0  3  0  0  0  0  0  0
  186.1320  177.8530  141.0770 C   0  0  0  0  0  0  0  0  0  0  0  0
  185.1120  178.0550  140.1420 C   0  0  0  0  0  3  0  0  0  0  0  0
  192.7810  175.6920  143.8210 O   0  0  0  0  0  1  0  0  0  0  0  0
  190.7820  175.7030  142.4160 C   0  0  0  0  0  2  0  0  0  0  0  0
  191.3830  175.6770  143.7970 C   0  0  2  0  0  0  0  0  0  0  0  0
  190.7200  176.9620  143.2880 C   0  0  2  0  0  3  0  0  0  0  0  0
  190.6800  174.8570  144.8060 N   0  0  0  0  0  0  0  0  0  0  0  0
  190.2020  173.5700  144.2530 C   0  0  0  0  0  0  0  0  0  0  0  0
  191.2380  172.9150  143.6080 F   0  0  0  0  0  0  0  0  0  0  0  0
  189.1720  173.7640  143.3450 F   0  0  0  0  0  0  0  0  0  0  0  0
  189.7210  172.6510  145.3630 C   0  0  0  0  0  1  0  0  0  0  0  0
  191.4100  175.4790  146.9410 O   0  0  0  0  0  1  0  0  0  0  0  0
  191.6290  174.5900  145.8880 C   0  0  0  0  0  2  0  0  0  0  0  0
  1  9  1  0  0  0  0
  1  6  1  0  0  0  0
  2  5  1  0  0  0  0
  3  7  2  0  0  0  0
  3  2  1  0  0  0  0
  4 11  1  0  0  0  0
  4  7  1  0  0  0  0
  5 14  1  0  0  0  0
  5 16  2  0  0  0  0
  8 12  2  0  0  0  0
 10 19  1  0  0  0  0
 10 18  2  0  0  0  0
 12 16  1  0  0  0  0
 13  2  2  0  0  0  0
 13  8  1  0  0  0  0
 14  1  2  0  0  0  0
 15  4  2  0  0  0  0
 16 17  1  0  0  0  0
 17  6  2  0  0  0  0
 18 13  1  0  0  0  0
 19  3  1  0  0  0  0
 20 15  1  0  0  0  0
 20 19  2  0  0  0  0
 22 24  1  0  0  0  0
 22 23  1  0  0  0  0
 23 21  1  1  0  0  0
 23 25  1  0  0  0  0
 24  8  1  1  0  0  0
 24 23  1  0  0  0  0
 25 31  1  0  0  0  0
 26 25  1  0  0  0  0
 26 29  1  0  0  0  0
 27 26  1  0  0  0  0
 28 26  1  0  0  0  0
 31 30  1  0  0  0  0
M  END
>  <MODEL>
4

>  <REMARK>
 VINA RESULT:      -7.4      1.416      4.023
  Name = 
  4 active torsions:
  status: ('A' for Active; 'I' for Inactive)
    1  A    between atoms: C_1  and  N_19
    2  A    between atoms: C_7  and  N_19
    3  A    between atoms: C_15  and  C_23
    4  A    between atoms: N_19  and  C_22
                            x       y       z     vdW  Elec       q    Type
                         _______ _______ _______ _____ _____    ______ ____

>  <TORSDO>
F 4

$$$$
=
 OpenBabel11052417423D

 31 35  0  0  1  0  0  0  0  0999 V2000
  191.1460  176.4980  147.0320 C   0  0  0  0  0  0  0  0  0  0  0  0
  188.1860  176.4290  144.6980 C   0  0  0  0  0  0  0  0  0  0  0  0
  187.1200  177.1160  145.3680 C   0  0  0  0  0  0  0  0  0  0  0  0
  186.1960  178.3100  147.2940 C   0  0  0  0  0  0  0  0  0  0  0  0
  189.4900  176.2360  145.2510 C   0  0  0  0  0  0  0  0  0  0  0  0
  192.1020  175.8430  146.2580 C   0  0  0  0  0  3  0  0  0  0  0  0
  187.2500  177.6440  146.6670 C   0  0  0  0  0  3  0  0  0  0  0  0
  188.9500  175.2170  142.6940 C   0  0  0  0  0  0  0  0  0  0  0  0
  191.4980  176.9940  148.3870 C   0  0  0  0  0  1  0  0  0  0  0  0
  185.6710  176.7900  143.4340 C   0  0  0  0  0  3  0  0  0  0  0  0
  186.3600  178.8180  148.5750 O   0  0  0  0  0  1  0  0  0  0  0  0
  190.1800  175.1000  143.2500 N   0  0  0  0  0  0  0  0  0  0  0  0
  187.9380  175.9170  143.3890 C   0  0  0  0  0  0  0  0  0  0  0  0
  189.8580  176.6940  146.5310 C   0  0  0  0  0  3  0  0  0  0  0  0
  184.9780  178.4640  146.6340 C   0  0  0  0  0  3  0  0  0  0  0  0
  190.4740  175.5680  144.4830 C   0  0  0  0  0  0  0  0  0  0  0  0
  191.7660  175.3800  144.9860 C   0  0  0  0  0  3  0  0  0  0  0  0
  186.6920  176.1160  142.7810 C   0  0  0  0  0  3  0  0  0  0  0  0
  185.8700  177.2840  144.7150 C   0  0  0  0  0  0  0  0  0  0  0  0
  184.8170  177.9520  145.3470 C   0  0  0  0  0  3  0  0  0  0  0  0
  189.8630  173.3410  139.5360 O   0  0  0  0  0  1  0  0  0  0  0  0
  188.1910  173.2690  141.3160 C   0  0  0  0  0  2  0  0  0  0  0  0
  189.6220  173.4970  140.9050 C   0  0  2  0  0  0  0  0  0  0  0  0
  188.7480  174.6970  141.2870 C   0  0  2  0  0  3  0  0  0  0  0  0
  190.6610  173.0360  141.8500 N   0  0  0  0  0  0  0  0  0  0  0  0
  190.3650  171.6930  142.4000 C   0  0  0  0  0  0  0  0  0  0  0  0
  190.0660  170.8130  141.3740 F   0  0  0  0  0  0  0  0  0  0  0  0
  189.2890  171.7330  143.2730 F   0  0  0  0  0  0  0  0  0  0  0  0
  191.5750  171.1300  143.1270 C   0  0  0  0  0  1  0  0  0  0  0  0
  192.6170  174.1850  141.2760 O   0  0  0  0  0  1  0  0  0  0  0  0
  191.9260  172.9840  141.1160 C   0  0  0  0  0  2  0  0  0  0  0  0
  1  9  1  0  0  0  0
  2  5  1  0  0  0  0
  2  3  1  0  0  0  0
  3  7  1  0  0  0  0
  4 11  1  0  0  0  0
  5 14  2  0  0  0  0
  6  1  2  0  0  0  0
  7  4  2  0  0  0  0
  8 12  2  0  0  0  0
  8 13  1  0  0  0  0
 10 19  1  0  0  0  0
 12 16  1  0  0  0  0
 13  2  2  0  0  0  0
 14  1  1  0  0  0  0
 15  4  1  0  0  0  0
 16 17  2  0  0  0  0
 16  5  1  0  0  0  0
 17  6  1  0  0  0  0
 18 13  1  0  0  0  0
 18 10  2  0  0  0  0
 19 20  1  0  0  0  0
 19  3  2  0  0  0  0
 20 15  2  0  0  0  0
 23 21  1  6  0  0  0
 23 24  1  0  0  0  0
 23 22  1  0  0  0  0
 23 25  1  0  0  0  0
 24 22  1  0  0  0  0
 24  8  1  1  0  0  0
 25 26  1  0  0  0  0
 26 29  1  0  0  0  0
 26 28  1  0  0  0  0
 27 26  1  0  0  0  0
 31 30  1  0  0  0  0
 31 25  1  0  0  0  0
M  END
>  <MODEL>
5

>  <REMARK>
 VINA RESULT:      -7.4      2.240      4.480
  Name = 
  4 active torsions:
  status: ('A' for Active; 'I' for Inactive)
    1  A    between atoms: C_1  and  N_19
    2  A    between atoms: C_7  and  N_19
    3  A    between atoms: C_15  and  C_23
    4  A    between atoms: N_19  and  C_22
                            x       y       z     vdW  Elec       q    Type
                         _______ _______ _______ _____ _____    ______ ____

>  <TORSDO>
F 4

$$$$
=
 OpenBabel11052417423D

 31 35  0  0  1  0  0  0  0  0999 V2000
  186.8270  176.8340  141.0610 C   0  0  0  0  0  0  0  0  0  0  0  0
  187.5900  176.4200  144.7290 C   0  0  0  0  0  0  0  0  0  0  0  0
  186.6040  177.1810  145.4420 C   0  0  0  0  0  0  0  0  0  0  0  0
  184.6600  178.6650  145.5120 C   0  0  0  0  0  0  0  0  0  0  0  0
  187.6490  176.3160  143.3050 C   0  0  0  0  0  0  0  0  0  0  0  0
  187.8160  176.0310  140.4980 C   0  0  0  0  0  3  0  0  0  0  0  0
  185.6080  177.9350  144.7930 C   0  0  0  0  0  3  0  0  0  0  0  0
  189.5690  174.9560  144.8340 C   0  0  0  0  0  0  0  0  0  0  0  0
  185.8550  177.5410  140.1870 C   0  0  0  0  0  1  0  0  0  0  0  0
  187.5640  176.4690  147.5670 C   0  0  0  0  0  3  0  0  0  0  0  0
  183.6920  179.3970  144.8390 O   0  0  0  0  0  1  0  0  0  0  0  0
  189.5520  174.8600  143.4830 N   0  0  0  0  0  0  0  0  0  0  0  0
  188.5670  175.7060  145.4890 C   0  0  0  0  0  0  0  0  0  0  0  0
  186.7450  176.9710  142.4480 C   0  0  0  0  0  3  0  0  0  0  0  0
  184.6860  178.6590  146.9050 C   0  0  0  0  0  3  0  0  0  0  0  0
  188.6510  175.5090  142.7130 C   0  0  0  0  0  0  0  0  0  0  0  0
  188.7260  175.3700  141.3230 C   0  0  0  0  0  3  0  0  0  0  0  0
  188.5270  175.7370  146.8880 C   0  0  0  0  0  3  0  0  0  0  0  0
  186.6120  177.1900  146.8620 C   0  0  0  0  0  0  0  0  0  0  0  0
  185.6600  177.9230  147.5780 C   0  0  0  0  0  3  0  0  0  0  0  0
  192.8040  173.0540  145.3220 O   0  0  0  0  0  1  0  0  0  0  0  0
  191.6910  175.0610  146.1590 C   0  0  0  0  0  2  0  0  0  0  0  0
  192.0070  174.1560  144.9970 C   0  0  2  0  0  0  0  0  0  0  0  0
  190.5960  174.1470  145.5970 C   0  0  2  0  0  3  0  0  0  0  0  0
  192.2280  174.8120  143.6910 N   0  0  0  0  0  0  0  0  0  0  0  0
  193.0560  176.0340  143.8080 C   0  0  0  0  0  0  0  0  0  0  0  0
  194.0700  175.8370  144.7300 F   0  0  0  0  0  0  0  0  0  0  0  0
  192.2950  177.1190  144.2160 F   0  0  0  0  0  0  0  0  0  0  0  0
  193.7210  176.3630  142.4820 C   0  0  0  0  0  1  0  0  0  0  0  0
  192.0350  173.3590  141.8660 O   0  0  0  0  0  1  0  0  0  0  0  0
  192.9160  173.8480  142.8310 C   0  0  0  0  0  2  0  0  0  0  0  0
  1 14  1  0  0  0  0
  2  3  2  0  0  0  0
  2 13  1  0  0  0  0
  3 19  1  0  0  0  0
  4 15  1  0  0  0  0
  5  2  1  0  0  0  0
  6  1  2  0  0  0  0
  6 17  1  0  0  0  0
  7  3  1  0  0  0  0
  7  4  2  0  0  0  0
  8 13  1  0  0  0  0
  9  1  1  0  0  0  0
 11  4  1  0  0  0  0
 12  8  2  0  0  0  0
 13 18  2  0  0  0  0
 14  5  2  0  0  0  0
 15 20  2  0  0  0  0
 16  5  1  0  0  0  0
 16 12  1  0  0  0  0
 17 16  2  0  0  0  0
 18 10  1  0  0  0  0
 19 10  2  0  0  0  0
 19 20  1  0  0  0  0
 23 21  1  1  0  0  0
 23 24  1  0  0  0  0
 23 22  1  0  0  0  0
 24  8  1  6  0  0  0
 24 22  1  0  0  0  0
 25 26  1  0  0  0  0
 25 23  1  0  0  0  0
 26 28  1  0  0  0  0
 26 27  1  0  0  0  0
 29 26  1  0  0  0  0
 30 31  1  0  0  0  0
 31 25  1  0  0  0  0
M  END
>  <MODEL>
6

>  <REMARK>
 VINA RESULT:      -7.2      2.079      2.760
  Name = 
  4 active torsions:
  status: ('A' for Active; 'I' for Inactive)
    1  A    between atoms: C_1  and  N_19
    2  A    between atoms: C_7  and  N_19
    3  A    between atoms: C_15  and  C_23
    4  A    between atoms: N_19  and  C_22
                            x       y       z     vdW  Elec       q    Type
                         _______ _______ _______ _____ _____    ______ ____

>  <TORSDO>
F 4

$$$$
=
 OpenBabel11052417423D

 31 35  0  0  1  0  0  0  0  0999 V2000
  191.2430  171.3100  142.5220 C   0  0  0  0  0  0  0  0  0  0  0  0
  192.4910  173.8830  144.9780 C   0  0  0  0  0  0  0  0  0  0  0  0
  193.9170  173.9320  144.8330 C   0  0  0  0  0  0  0  0  0  0  0  0
  196.0090  173.1740  143.8150 C   0  0  0  0  0  0  0  0  0  0  0  0
  191.6340  173.0260  144.2200 C   0  0  0  0  0  0  0  0  0  0  0  0
  189.8690  171.3890  142.7390 C   0  0  0  0  0  3  0  0  0  0  0  0
  194.6200  173.1040  143.9380 C   0  0  0  0  0  3  0  0  0  0  0  0
  190.4830  174.7340  146.1250 C   0  0  0  0  0  0  0  0  0  0  0  0
  191.7840  170.3670  141.5100 C   0  0  0  0  0  1  0  0  0  0  0  0
  194.0470  175.6940  146.5130 C   0  0  0  0  0  3  0  0  0  0  0  0
  196.6700  172.3420  142.9220 O   0  0  0  0  0  1  0  0  0  0  0  0
  189.7160  173.9310  145.3490 N   0  0  0  0  0  0  0  0  0  0  0  0
  191.8820  174.7560  145.9310 C   0  0  0  0  0  0  0  0  0  0  0  0
  192.1120  172.1220  143.2540 C   0  0  0  0  0  3  0  0  0  0  0  0
  196.7320  174.0800  144.5890 C   0  0  0  0  0  3  0  0  0  0  0  0
  190.2350  173.0870  144.4300 C   0  0  0  0  0  0  0  0  0  0  0  0
  189.3670  172.2760  143.6910 C   0  0  0  0  0  3  0  0  0  0  0  0
  192.6700  175.6480  146.6690 C   0  0  0  0  0  3  0  0  0  0  0  0
  194.6740  174.8470  145.6120 C   0  0  0  0  0  0  0  0  0  0  0  0
  196.0650  174.9140  145.4850 C   0  0  0  0  0  3  0  0  0  0  0  0
  188.8640  177.9680  147.2430 O   0  0  0  0  0  1  0  0  0  0  0  0
  188.2700  175.6250  146.8870 C   0  0  0  0  0  2  0  0  0  0  0  0
  189.0380  176.8390  146.4360 C   0  0  2  0  0  0  0  0  0  0  0  0
  189.7890  175.6730  147.0890 C   0  0  2  0  0  3  0  0  0  0  0  0
  189.1550  177.0400  144.9760 N   0  0  0  0  0  0  0  0  0  0  0  0
  187.8510  177.3410  144.3430 C   0  0  0  0  0  0  0  0  0  0  0  0
  187.1720  178.2960  145.0820 F   0  0  0  0  0  0  0  0  0  0  0  0
  187.0580  176.2060  144.2590 F   0  0  0  0  0  0  0  0  0  0  0  0
  188.0470  177.9150  142.9500 C   0  0  0  0  0  1  0  0  0  0  0  0
  191.2430  177.7230  144.1700 O   0  0  0  0  0  1  0  0  0  0  0  0
  190.0620  178.1690  144.7630 C   0  0  0  0  0  2  0  0  0  0  0  0
  1  6  2  0  0  0  0
  1 14  1  0  0  0  0
  2 13  1  0  0  0  0
  3  2  2  0  0  0  0
  3 19  1  0  0  0  0
  4  7  2  0  0  0  0
  4 15  1  0  0  0  0
  5 16  1  0  0  0  0
  5  2  1  0  0  0  0
  6 17  1  0  0  0  0
  7  3  1  0  0  0  0
  9  1  1  0  0  0  0
 10 18  1  0  0  0  0
 11  4  1  0  0  0  0
 12  8  2  0  0  0  0
 13  8  1  0  0  0  0
 13 18  2  0  0  0  0
 14  5  2  0  0  0  0
 15 20  2  0  0  0  0
 16 12  1  0  0  0  0
 17 16  2  0  0  0  0
 19 10  2  0  0  0  0
 20 19  1  0  0  0  0
 22 24  1  0  0  0  0
 23 22  1  0  0  0  0
 23 24  1  0  0  0  0
 23 21  1  1  0  0  0
 24  8  1  6  0  0  0
 25 23  1  0  0  0  0
 26 25  1  0  0  0  0
 26 27  1  0  0  0  0
 28 26  1  0  0  0  0
 29 26  1  0  0  0  0
 30 31  1  0  0  0  0
 31 25  1  0  0  0  0
M  END
>  <MODEL>
7

>  <REMARK>
 VINA RESULT:      -6.9      3.218      7.656
  Name = 
  4 active torsions:
  status: ('A' for Active; 'I' for Inactive)
    1  A    between atoms: C_1  and  N_19
    2  A    between atoms: C_7  and  N_19
    3  A    between atoms: C_15  and  C_23
    4  A    between atoms: N_19  and  C_22
                            x       y       z     vdW  Elec       q    Type
                         _______ _______ _______ _____ _____    ______ ____

>  <TORSDO>
F 4

$$$$
=
 OpenBabel11052417423D

 31 35  0  0  1  0  0  0  0  0999 V2000
  191.4830  175.9100  146.5130 C   0  0  0  0  0  0  0  0  0  0  0  0
  189.3600  174.7020  143.6420 C   0  0  0  0  0  0  0  0  0  0  0  0
  189.8850  173.4250  143.2530 C   0  0  0  0  0  0  0  0  0  0  0  0
  191.4950  171.5960  143.4730 C   0  0  0  0  0  0  0  0  0  0  0  0
  189.8900  175.4990  144.7040 C   0  0  0  0  0  0  0  0  0  0  0  0
  190.8550  177.1180  146.8100 C   0  0  0  0  0  3  0  0  0  0  0  0
  191.0070  172.8420  143.8710 C   0  0  0  0  0  3  0  0  0  0  0  0
  187.6840  176.4680  143.2660 C   0  0  0  0  0  0  0  0  0  0  0  0
  192.6590  175.4690  147.3050 C   0  0  0  0  0  1  0  0  0  0  0  0
  188.1500  173.2090  141.5530 C   0  0  0  0  0  3  0  0  0  0  0  0
  192.6050  171.0510  144.1050 O   0  0  0  0  0  1  0  0  0  0  0  0
  188.2010  177.1620  144.3090 N   0  0  0  0  0  0  0  0  0  0  0  0
  188.2270  175.2070  142.9340 C   0  0  0  0  0  0  0  0  0  0  0  0
  191.0020  175.1110  145.4740 C   0  0  0  0  0  3  0  0  0  0  0  0
  190.8680  170.8980  142.4430 C   0  0  0  0  0  3  0  0  0  0  0  0
  189.2690  176.7320  145.0170 C   0  0  0  0  0  0  0  0  0  0  0  0
  189.7500  177.5270  146.0630 C   0  0  0  0  0  3  0  0  0  0  0  0
  187.6410  174.4480  141.9140 C   0  0  0  0  0  3  0  0  0  0  0  0
  189.2620  172.6960  142.2050 C   0  0  0  0  0  0  0  0  0  0  0  0
  189.7540  171.4480  141.8110 C   0  0  0  0  0  3  0  0  0  0  0  0
  184.1990  177.9280  143.0530 O   0  0  0  0  0  1  0  0  0  0  0  0
  186.5040  178.5560  142.5440 C   0  0  0  0  0  2  0  0  0  0  0  0
  185.5340  177.8640  143.4650 C   0  0  2  0  0  0  0  0  0  0  0  0
  186.4570  177.0240  142.5760 C   0  0  2  0  0  3  0  0  0  0  0  0
  185.8190  177.9550  144.9130 N   0  0  0  0  0  0  0  0  0  0  0  0
  185.3210  179.2170  145.5060 C   0  0  0  0  0  0  0  0  0  0  0  0
  183.9530  179.1400  145.7110 F   0  0  0  0  0  0  0  0  0  0  0  0
  185.5810  180.2990  144.6790 F   0  0  0  0  0  0  0  0  0  0  0  0
  185.9580  179.4620  146.8640 C   0  0  0  0  0  1  0  0  0  0  0  0
  185.9630  176.3100  146.5710 O   0  0  0  0  0  1  0  0  0  0  0  0
  185.1510  176.8250  145.5600 C   0  0  0  0  0  2  0  0  0  0  0  0
  1  6  1  0  0  0  0
  1  9  1  0  0  0  0
  2  5  1  0  0  0  0
  3  2  1  0  0  0  0
  3  7  2  0  0  0  0
  4  7  1  0  0  0  0
  4 11  1  0  0  0  0
  5 16  2  0  0  0  0
  5 14  1  0  0  0  0
  8 12  2  0  0  0  0
 10 18  2  0  0  0  0
 10 19  1  0  0  0  0
 12 16  1  0  0  0  0
 13  8  1  0  0  0  0
 13  2  2  0  0  0  0
 14  1  2  0  0  0  0
 15  4  2  0  0  0  0
 16 17  1  0  0  0  0
 17  6  2  0  0  0  0
 18 13  1  0  0  0  0
 19  3  1  0  0  0  0
 20 19  2  0  0  0  0
 20 15  1  0  0  0  0
 22 24  1  0  0  0  0
 22 23  1  0  0  0  0
 23 21  1  6  0  0  0
 23 25  1  0  0  0  0
 24  8  1  1  0  0  0
 24 23  1  0  0  0  0
 25 26  1  0  0  0  0
 25 31  1  0  0  0  0
 26 27  1  0  0  0  0
 26 29  1  0  0  0  0
 28 26  1  0  0  0  0
 31 30  1  0  0  0  0
M  END
>  <MODEL>
8

>  <REMARK>
 VINA RESULT:      -6.8      3.090      7.388
  Name = 
  4 active torsions:
  status: ('A' for Active; 'I' for Inactive)
    1  A    between atoms: C_1  and  N_19
    2  A    between atoms: C_7  and  N_19
    3  A    between atoms: C_15  and  C_23
    4  A    between atoms: N_19  and  C_22
                            x       y       z     vdW  Elec       q    Type
                         _______ _______ _______ _____ _____    ______ ____

>  <TORSDO>
F 4

$$$$
=
 OpenBabel11052417423D

 31 35  0  0  1  0  0  0  0  0999 V2000
  190.2660  177.3800  147.6560 C   0  0  0  0  0  0  0  0  0  0  0  0
  188.9670  175.7090  144.5370 C   0  0  0  0  0  0  0  0  0  0  0  0
  187.8680  176.5050  144.0730 C   0  0  0  0  0  0  0  0  0  0  0  0
  186.3470  178.4110  144.2750 C   0  0  0  0  0  0  0  0  0  0  0  0
  189.7380  176.0060  145.7040 C   0  0  0  0  0  0  0  0  0  0  0  0
  191.3310  176.5420  147.9760 C   0  0  0  0  0  3  0  0  0  0  0  0
  187.4190  177.6540  144.7510 C   0  0  0  0  0  3  0  0  0  0  0  0
  190.3910  173.7260  144.2050 C   0  0  0  0  0  0  0  0  0  0  0  0
  189.9660  178.5600  148.5080 C   0  0  0  0  0  1  0  0  0  0  0  0
  187.5790  175.0220  142.1590 C   0  0  0  0  0  3  0  0  0  0  0  0
  185.9300  179.5380  144.9700 O   0  0  0  0  0  1  0  0  0  0  0  0
  191.1130  174.0780  145.2960 N   0  0  0  0  0  0  0  0  0  0  0  0
  189.3270  174.5520  143.7800 C   0  0  0  0  0  0  0  0  0  0  0  0
  189.4820  177.1150  146.5320 C   0  0  0  0  0  3  0  0  0  0  0  0
  185.6960  178.0360  143.1010 C   0  0  0  0  0  3  0  0  0  0  0  0
  190.8220  175.1630  146.0490 C   0  0  0  0  0  0  0  0  0  0  0  0
  191.6090  175.4350  147.1730 C   0  0  0  0  0  3  0  0  0  0  0  0
  188.6340  174.2400  142.6040 C   0  0  0  0  0  3  0  0  0  0  0  0
  187.1890  176.1410  142.8790 C   0  0  0  0  0  0  0  0  0  0  0  0
  186.1160  176.9030  142.4060 C   0  0  0  0  0  3  0  0  0  0  0  0
  192.5770  171.7790  141.8060 O   0  0  0  0  0  1  0  0  0  0  0  0
  191.9350  171.7550  144.1630 C   0  0  0  0  0  2  0  0  0  0  0  0
  192.2950  172.5520  142.9370 C   0  0  2  0  0  0  0  0  0  0  0  0
  190.8380  172.5170  143.4110 C   0  0  2  0  0  3  0  0  0  0  0  0
  193.0930  173.7770  143.1580 N   0  0  0  0  0  0  0  0  0  0  0  0
  194.4850  173.4760  143.5620 C   0  0  0  0  0  0  0  0  0  0  0  0
  195.3750  174.0420  142.6640 F   0  0  0  0  0  0  0  0  0  0  0  0
  194.7130  172.1090  143.6050 F   0  0  0  0  0  0  0  0  0  0  0  0
  194.7920  174.0750  144.9250 C   0  0  0  0  0  1  0  0  0  0  0  0
  192.6800  175.8280  142.1110 O   0  0  0  0  0  1  0  0  0  0  0  0
  193.1100  174.5190  141.8970 C   0  0  0  0  0  2  0  0  0  0  0  0
  1  6  1  0  0  0  0
  1  9  1  0  0  0  0
  2  5  1  0  0  0  0
  3  2  1  0  0  0  0
  3  7  2  0  0  0  0
  4  7  1  0  0  0  0
  4 11  1  0  0  0  0
  5 16  2  0  0  0  0
  5 14  1  0  0  0  0
  8 12  2  0  0  0  0
 10 18  2  0  0  0  0
 10 19  1  0  0  0  0
 12 16  1  0  0  0  0
 13  8  1  0  0  0  0
 13  2  2  0  0  0  0
 14  1  2  0  0  0  0
 15  4  2  0  0  0  0
 16 17  1  0  0  0  0
 17  6  2  0  0  0  0
 18 13  1  0  0  0  0
 19  3  1  0  0  0  0
 20 19  2  0  0  0  0
 20 15  1  0  0  0  0
 23 21  1  6  0  0  0
 23 25  1  0  0  0  0
 23 24  1  0  0  0  0
 23 22  1  0  0  0  0
 24 22  1  0  0  0  0
 24  8  1  1  0  0  0
 25 26  1  0  0  0  0
 26 28  1  0  0  0  0
 26 29  1  0  0  0  0
 27 26  1  0  0  0  0
 31 30  1  0  0  0  0
 31 25  1  0  0  0  0
M  END
>  <MODEL>
9

>  <REMARK>
 VINA RESULT:      -6.6      2.618      5.137
  Name = 
  4 active torsions:
  status: ('A' for Active; 'I' for Inactive)
    1  A    between atoms: C_1  and  N_19
    2  A    between atoms: C_7  and  N_19
    3  A    between atoms: C_15  and  C_23
    4  A    between atoms: N_19  and  C_22
                            x       y       z     vdW  Elec       q    Type
                         _______ _______ _______ _____ _____    ______ ____

>  <TORSDO>
F 4

$$$$
