=
 OpenBabel11052417303D

 25 28  0  0  1  0  0  0  0  0999 V2000
  186.6230  176.8560  143.8740 C   0  0  0  0  0  0  0  0  0  0  0  0
  187.7340  176.0290  143.6810 C   0  0  0  0  0  0  0  0  0  0  0  0
  186.2770  176.9570  141.5070 N   0  0  0  0  0  0  0  0  0  0  0  0
  186.0740  177.3350  145.0730 C   0  0  0  0  0  0  0  0  0  0  0  0
  184.7070  178.4710  147.2260 C   0  0  0  0  0  3  0  0  0  0  0  0
  187.3380  176.1650  141.3100 N   0  0  0  0  0  0  0  0  0  0  0  0
  184.9560  178.1410  144.8640 C   0  0  0  0  0  0  0  0  0  0  0  0
  184.2570  178.7200  145.9210 C   0  0  0  0  0  3  0  0  0  0  0  0
  189.1900  174.8540  142.1360 C   0  0  0  0  0  0  0  0  0  0  0  0
  189.6020  174.4540  140.7610 C   0  0  0  0  0  1  0  0  0  0  0  0
  188.4690  175.5550  144.7230 N   0  0  0  0  0  0  0  0  0  0  0  0
  185.8340  177.6590  147.4510 C   0  0  0  0  0  3  0  0  0  0  0  0
  185.9190  177.3020  142.7680 C   0  0  0  0  0  0  0  0  0  0  0  0
  184.6220  178.2820  143.2140 S   0  0  0  0  0  0  0  0  0  0  0  0
  189.9220  174.3840  143.2280 C   0  0  0  0  0  3  0  0  0  0  0  0
  186.5250  177.0840  146.3720 C   0  0  0  0  0  3  0  0  0  0  0  0
  189.5490  174.7520  144.5240 C   0  0  0  0  0  0  0  0  0  0  0  0
  188.0820  175.6860  142.3540 C   0  0  0  0  0  0  0  0  0  0  0  0
  190.3120  174.2360  145.6920 C   0  0  0  0  0  2  0  0  0  0  0  0
  189.4960  174.7450  147.2330 S   0  0  0  0  0  0  0  0  0  0  0  0
  191.0160  175.4980  147.8870 C   0  0  1  0  0  3  0  0  0  0  0  0
  192.1890  175.1840  146.9750 C   0  0  0  0  0  1  0  0  0  0  0  0
  190.8460  176.9740  148.0270 C   0  0  0  0  0  0  0  0  0  0  0  0
  191.5660  177.6580  148.9970 O   0  0  0  0  0  1  0  0  0  0  0  0
  190.0560  177.6040  147.2750 O   0  0  0  0  0  0  0  0  0  0  0  0
  1  4  1  0  0  0  0
  2  1  1  0  0  0  0
  2 11  1  0  0  0  0
  3 13  1  0  0  0  0
  4 16  1  0  0  0  0
  5 12  1  0  0  0  0
  6  3  2  0  0  0  0
  6 18  1  0  0  0  0
  7  4  2  0  0  0  0
  7  8  1  0  0  0  0
  8  5  2  0  0  0  0
  9 18  1  0  0  0  0
  9 15  2  0  0  0  0
 10  9  1  0  0  0  0
 13 14  1  0  0  0  0
 13  1  2  0  0  0  0
 14  7  1  0  0  0  0
 15 17  1  0  0  0  0
 16 12  2  0  0  0  0
 17 11  2  0  0  0  0
 17 19  1  0  0  0  0
 18  2  2  0  0  0  0
 19 20  1  0  0  0  0
 20 21  1  0  0  0  0
 21 22  1  6  0  0  0
 21 23  1  0  0  0  0
 23 24  1  0  0  0  0
 25 23  2  0  0  0  0
M  END
>  <MODEL>
1

>  <REMARK>
 VINA RESULT:      -7.5      0.000      0.000
  Name = 
  4 active torsions:
  status: ('A' for Active; 'I' for Inactive)
    1  A    between atoms: C_2  and  C_21
    2  A    between atoms: C_6  and  S_15
    3  A    between atoms: C_6  and  C_23
    4  A    between atoms: S_15  and  C_21
                            x       y       z     vdW  Elec       q    Type
                         _______ _______ _______ _____ _____    ______ ____

>  <TORSDO>
F 4

$$$$
=
 OpenBabel11052417303D

 25 28  0  0  1  0  0  0  0  0999 V2000
  186.8070  176.8080  144.0810 C   0  0  0  0  0  0  0  0  0  0  0  0
  187.9890  176.0690  143.9680 C   0  0  0  0  0  0  0  0  0  0  0  0
  186.4820  176.6630  141.7130 N   0  0  0  0  0  0  0  0  0  0  0  0
  186.2040  177.3430  145.2290 C   0  0  0  0  0  0  0  0  0  0  0  0
  184.7170  178.5440  147.2640 C   0  0  0  0  0  3  0  0  0  0  0  0
  187.6100  175.9550  141.5930 N   0  0  0  0  0  0  0  0  0  0  0  0
  185.0210  178.0240  144.9430 C   0  0  0  0  0  0  0  0  0  0  0  0
  184.2620  178.6320  145.9400 C   0  0  0  0  0  3  0  0  0  0  0  0
  189.5610  174.8930  142.5420 C   0  0  0  0  0  0  0  0  0  0  0  0
  190.0230  174.4090  141.2110 C   0  0  0  0  0  1  0  0  0  0  0  0
  188.7510  175.7590  145.0520 N   0  0  0  0  0  0  0  0  0  0  0  0
  185.9090  177.8590  147.5660 C   0  0  0  0  0  3  0  0  0  0  0  0
  186.0790  177.0870  142.9360 C   0  0  0  0  0  0  0  0  0  0  0  0
  184.6960  177.9850  143.2860 S   0  0  0  0  0  0  0  0  0  0  0  0
  190.3190  174.5920  143.6750 C   0  0  0  0  0  3  0  0  0  0  0  0
  186.6610  177.2530  146.5470 C   0  0  0  0  0  3  0  0  0  0  0  0
  189.9000  175.0410  144.9310 C   0  0  0  0  0  0  0  0  0  0  0  0
  188.3810  175.6400  142.6790 C   0  0  0  0  0  0  0  0  0  0  0  0
  190.6920  174.7030  146.1430 C   0  0  0  0  0  2  0  0  0  0  0  0
  191.2630  176.2270  146.9500 S   0  0  0  0  0  0  0  0  0  0  0  0
  193.0070  175.8680  146.5820 C   0  0  1  0  0  3  0  0  0  0  0  0
  193.1590  174.4280  146.1270 C   0  0  0  0  0  1  0  0  0  0  0  0
  193.5190  176.8010  145.5350 C   0  0  0  0  0  0  0  0  0  0  0  0
  194.6850  177.5180  145.7680 O   0  0  0  0  0  1  0  0  0  0  0  0
  192.9040  176.9440  144.4450 O   0  0  0  0  0  0  0  0  0  0  0  0
  1  4  1  0  0  0  0
  2  1  1  0  0  0  0
  2 11  1  0  0  0  0
  3 13  1  0  0  0  0
  4 16  1  0  0  0  0
  5 12  1  0  0  0  0
  6  3  2  0  0  0  0
  6 18  1  0  0  0  0
  7  4  2  0  0  0  0
  7  8  1  0  0  0  0
  8  5  2  0  0  0  0
  9 18  1  0  0  0  0
  9 15  2  0  0  0  0
 10  9  1  0  0  0  0
 13 14  1  0  0  0  0
 13  1  2  0  0  0  0
 14  7  1  0  0  0  0
 15 17  1  0  0  0  0
 16 12  2  0  0  0  0
 17 11  2  0  0  0  0
 17 19  1  0  0  0  0
 18  2  2  0  0  0  0
 19 20  1  0  0  0  0
 21 22  1  6  0  0  0
 21 20  1  0  0  0  0
 23 24  1  0  0  0  0
 23 21  1  0  0  0  0
 25 23  2  0  0  0  0
M  END
>  <MODEL>
2

>  <REMARK>
 VINA RESULT:      -7.2      1.532      1.637
  Name = 
  4 active torsions:
  status: ('A' for Active; 'I' for Inactive)
    1  A    between atoms: C_2  and  C_21
    2  A    between atoms: C_6  and  S_15
    3  A    between atoms: C_6  and  C_23
    4  A    between atoms: S_15  and  C_21
                            x       y       z     vdW  Elec       q    Type
                         _______ _______ _______ _____ _____    ______ ____

>  <TORSDO>
F 4

$$$$
=
 OpenBabel11052417303D

 25 28  0  0  1  0  0  0  0  0999 V2000
  186.7660  176.8050  144.0170 C   0  0  0  0  0  0  0  0  0  0  0  0
  187.9300  176.0400  143.8890 C   0  0  0  0  0  0  0  0  0  0  0  0
  186.4440  176.7250  141.6450 N   0  0  0  0  0  0  0  0  0  0  0  0
  186.1730  177.3260  145.1750 C   0  0  0  0  0  0  0  0  0  0  0  0
  184.7090  178.5130  147.2360 C   0  0  0  0  0  3  0  0  0  0  0  0
  187.5560  175.9920  141.5110 N   0  0  0  0  0  0  0  0  0  0  0  0
  185.0080  178.0430  144.9040 C   0  0  0  0  0  0  0  0  0  0  0  0
  184.2600  178.6450  145.9130 C   0  0  0  0  0  3  0  0  0  0  0  0
  189.4770  174.8610  142.4380 C   0  0  0  0  0  0  0  0  0  0  0  0
  189.9310  174.3980  141.0970 C   0  0  0  0  0  1  0  0  0  0  0  0
  188.6810  175.6860  144.9660 N   0  0  0  0  0  0  0  0  0  0  0  0
  185.8830  177.7920  147.5240 C   0  0  0  0  0  3  0  0  0  0  0  0
  186.0490  177.1290  142.8760 C   0  0  0  0  0  0  0  0  0  0  0  0
  184.6860  178.0500  143.2450 S   0  0  0  0  0  0  0  0  0  0  0  0
  190.2250  174.5140  143.5660 C   0  0  0  0  0  3  0  0  0  0  0  0
  186.6230  177.1930  146.4920 C   0  0  0  0  0  3  0  0  0  0  0  0
  189.8130  174.9430  144.8310 C   0  0  0  0  0  0  0  0  0  0  0  0
  188.3160  175.6330  142.5910 C   0  0  0  0  0  0  0  0  0  0  0  0
  190.5920  174.5570  146.0370 C   0  0  0  0  0  2  0  0  0  0  0  0
  192.3610  174.4830  145.6280 S   0  0  0  0  0  0  0  0  0  0  0  0
  192.6530  176.1800  146.2130 C   0  0  1  0  0  3  0  0  0  0  0  0
  191.8500  176.4430  147.4740 C   0  0  0  0  0  1  0  0  0  0  0  0
  194.1070  176.3980  146.4670 C   0  0  0  0  0  0  0  0  0  0  0  0
  195.0000  175.3500  146.2870 O   0  0  0  0  0  0  0  0  0  0  0  0
  194.5320  177.5230  146.8440 O   0  0  0  0  0  1  0  0  0  0  0  0
  1  4  1  0  0  0  0
  2  1  1  0  0  0  0
  2 11  1  0  0  0  0
  3 13  1  0  0  0  0
  4 16  1  0  0  0  0
  5 12  1  0  0  0  0
  6  3  2  0  0  0  0
  6 18  1  0  0  0  0
  7  4  2  0  0  0  0
  7  8  1  0  0  0  0
  8  5  2  0  0  0  0
  9 18  1  0  0  0  0
  9 15  2  0  0  0  0
 10  9  1  0  0  0  0
 13 14  1  0  0  0  0
 13  1  2  0  0  0  0
 14  7  1  0  0  0  0
 15 17  1  0  0  0  0
 16 12  2  0  0  0  0
 17 11  2  0  0  0  0
 17 19  1  0  0  0  0
 18  2  2  0  0  0  0
 20 19  1  0  0  0  0
 20 21  1  0  0  0  0
 21 23  1  0  0  0  0
 21 22  1  1  0  0  0
 23 25  1  0  0  0  0
 24 23  2  0  0  0  0
M  END
>  <MODEL>
3

>  <REMARK>
 VINA RESULT:      -7.2      1.543      1.775
  Name = 
  4 active torsions:
  status: ('A' for Active; 'I' for Inactive)
    1  A    between atoms: C_2  and  C_21
    2  A    between atoms: C_6  and  S_15
    3  A    between atoms: C_6  and  C_23
    4  A    between atoms: S_15  and  C_21
                            x       y       z     vdW  Elec       q    Type
                         _______ _______ _______ _____ _____    ______ ____

>  <TORSDO>
F 4

$$$$
=
 OpenBabel11052417303D

 25 28  0  0  1  0  0  0  0  0999 V2000
  185.7740  177.6200  143.7330 C   0  0  0  0  0  0  0  0  0  0  0  0
  186.5550  176.9910  142.7590 C   0  0  0  0  0  0  0  0  0  0  0  0
  184.4490  178.6430  142.0210 N   0  0  0  0  0  0  0  0  0  0  0  0
  185.8800  177.5540  145.1300 C   0  0  0  0  0  0  0  0  0  0  0  0
  185.7730  177.6710  147.9180 C   0  0  0  0  0  3  0  0  0  0  0  0
  185.1890  178.0450  141.0800 N   0  0  0  0  0  0  0  0  0  0  0  0
  184.9140  178.3250  145.7760 C   0  0  0  0  0  0  0  0  0  0  0  0
  184.8390  178.4000  147.1650 C   0  0  0  0  0  3  0  0  0  0  0  0
  187.0020  176.5990  140.4060 C   0  0  0  0  0  0  0  0  0  0  0  0
  186.7090  176.8020  138.9590 C   0  0  0  0  0  1  0  0  0  0  0  0
  187.5930  176.1740  143.0840 N   0  0  0  0  0  0  0  0  0  0  0  0
  186.7520  176.8890  147.2780 C   0  0  0  0  0  3  0  0  0  0  0  0
  184.7310  178.4380  143.3310 C   0  0  0  0  0  0  0  0  0  0  0  0
  183.9180  179.0980  144.6520 S   0  0  0  0  0  0  0  0  0  0  0  0
  188.0600  175.7660  140.7750 C   0  0  0  0  0  3  0  0  0  0  0  0
  186.8110  176.8260  145.8770 C   0  0  0  0  0  3  0  0  0  0  0  0
  188.3490  175.5680  142.1280 C   0  0  0  0  0  0  0  0  0  0  0  0
  186.2350  177.2230  141.4010 C   0  0  0  0  0  0  0  0  0  0  0  0
  189.4600  174.6640  142.5260 C   0  0  0  0  0  2  0  0  0  0  0  0
  190.3550  175.3750  143.9390 S   0  0  0  0  0  0  0  0  0  0  0  0
  189.5810  174.2230  145.1150 C   0  0  1  0  0  3  0  0  0  0  0  0
  190.0420  172.8040  144.8370 C   0  0  0  0  0  1  0  0  0  0  0  0
  189.9130  174.6120  146.5170 C   0  0  0  0  0  0  0  0  0  0  0  0
  191.1360  175.2100  146.7920 O   0  0  0  0  0  0  0  0  0  0  0  0
  189.0970  174.4020  147.4540 O   0  0  0  0  0  1  0  0  0  0  0  0
  1  4  1  0  0  0  0
  2 11  1  0  0  0  0
  2  1  1  0  0  0  0
  3 13  1  0  0  0  0
  4  7  2  0  0  0  0
  4 16  1  0  0  0  0
  6 18  1  0  0  0  0
  6  3  2  0  0  0  0
  7  8  1  0  0  0  0
  8  5  2  0  0  0  0
  9 15  2  0  0  0  0
  9 18  1  0  0  0  0
 10  9  1  0  0  0  0
 12  5  1  0  0  0  0
 13  1  2  0  0  0  0
 13 14  1  0  0  0  0
 14  7  1  0  0  0  0
 15 17  1  0  0  0  0
 16 12  2  0  0  0  0
 17 19  1  0  0  0  0
 17 11  2  0  0  0  0
 18  2  2  0  0  0  0
 19 20  1  0  0  0  0
 20 21  1  0  0  0  0
 21 22  1  6  0  0  0
 21 23  1  0  0  0  0
 23 24  2  0  0  0  0
 23 25  1  0  0  0  0
M  END
>  <MODEL>
4

>  <REMARK>
 VINA RESULT:      -7.0      1.809      2.610
  Name = 
  4 active torsions:
  status: ('A' for Active; 'I' for Inactive)
    1  A    between atoms: C_2  and  C_21
    2  A    between atoms: C_6  and  S_15
    3  A    between atoms: C_6  and  C_23
    4  A    between atoms: S_15  and  C_21
                            x       y       z     vdW  Elec       q    Type
                         _______ _______ _______ _____ _____    ______ ____

>  <TORSDO>
F 4

$$$$
=
 OpenBabel11052417303D

 25 28  0  0  1  0  0  0  0  0999 V2000
  186.9370  177.7190  144.7370 C   0  0  0  0  0  0  0  0  0  0  0  0
  188.2770  177.3440  144.8820 C   0  0  0  0  0  0  0  0  0  0  0  0
  186.7220  177.8970  147.1150 N   0  0  0  0  0  0  0  0  0  0  0  0
  186.1840  177.8760  143.5640 C   0  0  0  0  0  0  0  0  0  0  0  0
  184.3810  178.2910  141.4730 C   0  0  0  0  0  3  0  0  0  0  0  0
  188.0030  177.5410  147.2650 N   0  0  0  0  0  0  0  0  0  0  0  0
  184.8700  178.2640  143.8200 C   0  0  0  0  0  0  0  0  0  0  0  0
  183.9510  178.4760  142.7960 C   0  0  0  0  0  3  0  0  0  0  0  0
  190.1460  176.8910  146.3610 C   0  0  0  0  0  0  0  0  0  0  0  0
  190.7580  176.7910  147.7160 C   0  0  0  0  0  1  0  0  0  0  0  0
  189.0670  177.0670  143.8100 N   0  0  0  0  0  0  0  0  0  0  0  0
  185.7050  177.9000  141.2000 C   0  0  0  0  0  3  0  0  0  0  0  0
  186.1900  177.9870  145.8720 C   0  0  0  0  0  0  0  0  0  0  0  0
  184.6080  178.4190  145.4830 S   0  0  0  0  0  0  0  0  0  0  0  0
  190.9300  176.6140  145.2390 C   0  0  0  0  0  3  0  0  0  0  0  0
  186.6170  177.6900  142.2470 C   0  0  0  0  0  3  0  0  0  0  0  0
  190.3690  176.7010  143.9620 C   0  0  0  0  0  0  0  0  0  0  0  0
  188.8030  177.2600  146.1910 C   0  0  0  0  0  0  0  0  0  0  0  0
  191.2060  176.4300  142.7630 C   0  0  0  0  0  2  0  0  0  0  0  0
  191.7410  174.6940  142.7660 S   0  0  0  0  0  0  0  0  0  0  0  0
  190.1210  174.1060  142.1860 C   0  0  1  0  0  3  0  0  0  0  0  0
  190.2540  173.4870  140.8060 C   0  0  0  0  0  1  0  0  0  0  0  0
  189.5520  173.1170  143.1470 C   0  0  0  0  0  0  0  0  0  0  0  0
  189.7000  173.3240  144.5120 O   0  0  0  0  0  1  0  0  0  0  0  0
  188.9410  172.0950  142.7330 O   0  0  0  0  0  0  0  0  0  0  0  0
  1  2  2  0  0  0  0
  1 13  1  0  0  0  0
  2 18  1  0  0  0  0
  3  6  1  0  0  0  0
  4  7  1  0  0  0  0
  4  1  1  0  0  0  0
  5  8  1  0  0  0  0
  7 14  1  0  0  0  0
  8  7  2  0  0  0  0
  9 10  1  0  0  0  0
 11 17  2  0  0  0  0
 11  2  1  0  0  0  0
 12  5  2  0  0  0  0
 12 16  1  0  0  0  0
 13  3  2  0  0  0  0
 14 13  1  0  0  0  0
 15  9  2  0  0  0  0
 16  4  2  0  0  0  0
 17 15  1  0  0  0  0
 18  9  1  0  0  0  0
 18  6  2  0  0  0  0
 19 20  1  0  0  0  0
 19 17  1  0  0  0  0
 21 22  1  6  0  0  0
 21 20  1  0  0  0  0
 21 23  1  0  0  0  0
 23 24  1  0  0  0  0
 25 23  2  0  0  0  0
M  END
>  <MODEL>
5

>  <REMARK>
 VINA RESULT:      -6.6      2.744      4.743
  Name = 
  4 active torsions:
  status: ('A' for Active; 'I' for Inactive)
    1  A    between atoms: C_2  and  C_21
    2  A    between atoms: C_6  and  S_15
    3  A    between atoms: C_6  and  C_23
    4  A    between atoms: S_15  and  C_21
                            x       y       z     vdW  Elec       q    Type
                         _______ _______ _______ _____ _____    ______ ____

>  <TORSDO>
F 4

$$$$
=
 OpenBabel11052417303D

 25 28  0  0  1  0  0  0  0  0999 V2000
  187.8090  177.5360  144.2450 C   0  0  0  0  0  0  0  0  0  0  0  0
  189.1000  177.1430  144.6100 C   0  0  0  0  0  0  0  0  0  0  0  0
  187.2320  177.8070  146.5540 N   0  0  0  0  0  0  0  0  0  0  0  0
  187.2510  177.6630  142.9650 C   0  0  0  0  0  0  0  0  0  0  0  0
  185.8030  178.0330  140.6060 C   0  0  0  0  0  3  0  0  0  0  0  0
  188.4640  177.4340  146.9140 N   0  0  0  0  0  0  0  0  0  0  0  0
  185.9220  178.0840  143.0000 C   0  0  0  0  0  0  0  0  0  0  0  0
  185.1780  178.2750  141.8380 C   0  0  0  0  0  3  0  0  0  0  0  0
  190.7050  176.7110  146.3780 C   0  0  0  0  0  0  0  0  0  0  0  0
  191.0980  176.6510  147.8140 C   0  0  0  0  0  1  0  0  0  0  0  0
  190.0400  176.8120  143.6840 N   0  0  0  0  0  0  0  0  0  0  0  0
  187.1440  177.6080  140.5560 C   0  0  0  0  0  3  0  0  0  0  0  0
  186.9010  177.8610  145.2410 C   0  0  0  0  0  0  0  0  0  0  0  0
  185.4090  178.3060  144.5950 S   0  0  0  0  0  0  0  0  0  0  0  0
  191.6470  176.3790  145.4010 C   0  0  0  0  0  3  0  0  0  0  0  0
  187.8770  177.4210  141.7390 C   0  0  0  0  0  3  0  0  0  0  0  0
  191.2940  176.4280  144.0500 C   0  0  0  0  0  0  0  0  0  0  0  0
  189.4150  177.0990  145.9880 C   0  0  0  0  0  0  0  0  0  0  0  0
  192.3000  176.0980  143.0060 C   0  0  0  0  0  2  0  0  0  0  0  0
  193.4170  174.8020  143.6170 S   0  0  0  0  0  0  0  0  0  0  0  0
  194.8540  175.5240  142.7680 C   0  0  1  0  0  3  0  0  0  0  0  0
  194.4010  176.3130  141.5520 C   0  0  0  0  0  1  0  0  0  0  0  0
  195.6220  176.4010  143.7000 C   0  0  0  0  0  0  0  0  0  0  0  0
  195.1520  176.6080  144.9890 O   0  0  0  0  0  1  0  0  0  0  0  0
  196.6900  176.9550  143.3270 O   0  0  0  0  0  0  0  0  0  0  0  0
  1  2  2  0  0  0  0
  1 13  1  0  0  0  0
  2 18  1  0  0  0  0
  3  6  1  0  0  0  0
  4  7  1  0  0  0  0
  4  1  1  0  0  0  0
  5  8  1  0  0  0  0
  7 14  1  0  0  0  0
  8  7  2  0  0  0  0
  9 10  1  0  0  0  0
 11 17  2  0  0  0  0
 11  2  1  0  0  0  0
 12  5  2  0  0  0  0
 12 16  1  0  0  0  0
 13  3  2  0  0  0  0
 14 13  1  0  0  0  0
 15  9  2  0  0  0  0
 16  4  2  0  0  0  0
 17 15  1  0  0  0  0
 18  9  1  0  0  0  0
 18  6  2  0  0  0  0
 19 20  1  0  0  0  0
 19 17  1  0  0  0  0
 21 22  1  6  0  0  0
 21 20  1  0  0  0  0
 21 23  1  0  0  0  0
 23 24  1  0  0  0  0
 25 23  2  0  0  0  0
M  END
>  <MODEL>
6

>  <REMARK>
 VINA RESULT:      -6.6      3.310      4.879
  Name = 
  4 active torsions:
  status: ('A' for Active; 'I' for Inactive)
    1  A    between atoms: C_2  and  C_21
    2  A    between atoms: C_6  and  S_15
    3  A    between atoms: C_6  and  C_23
    4  A    between atoms: S_15  and  C_21
                            x       y       z     vdW  Elec       q    Type
                         _______ _______ _______ _____ _____    ______ ____

>  <TORSDO>
F 4

$$$$
=
 OpenBabel11052417303D

 25 28  0  0  1  0  0  0  0  0999 V2000
  187.1140  177.0260  143.5370 C   0  0  0  0  0  0  0  0  0  0  0  0
  187.9910  175.9830  143.2230 C   0  0  0  0  0  0  0  0  0  0  0  0
  186.5680  177.2750  141.2180 N   0  0  0  0  0  0  0  0  0  0  0  0
  186.8050  177.5760  144.7890 C   0  0  0  0  0  0  0  0  0  0  0  0
  185.9420  178.9160  147.0820 C   0  0  0  0  0  3  0  0  0  0  0  0
  187.4030  176.2770  140.9060 N   0  0  0  0  0  0  0  0  0  0  0  0
  185.8780  178.6130  144.7040 C   0  0  0  0  0  0  0  0  0  0  0  0
  185.4310  179.2980  145.8320 C   0  0  0  0  0  3  0  0  0  0  0  0
  188.9920  174.5670  141.5250 C   0  0  0  0  0  0  0  0  0  0  0  0
  189.1680  174.1300  140.1120 C   0  0  0  0  0  1  0  0  0  0  0  0
  188.7020  175.3270  144.1790 N   0  0  0  0  0  0  0  0  0  0  0  0
  186.8780  177.8700  147.1820 C   0  0  0  0  0  3  0  0  0  0  0  0
  186.4210  177.6500  142.5120 C   0  0  0  0  0  0  0  0  0  0  0  0
  185.4220  178.8750  143.0980 S   0  0  0  0  0  0  0  0  0  0  0  0
  189.7070  173.9140  142.5320 C   0  0  0  0  0  3  0  0  0  0  0  0
  187.3160  177.1920  146.0330 C   0  0  0  0  0  3  0  0  0  0  0  0
  189.5540  174.3150  143.8630 C   0  0  0  0  0  0  0  0  0  0  0  0
  188.1220  175.6140  141.8640 C   0  0  0  0  0  0  0  0  0  0  0  0
  190.2950  173.6080  144.9410 C   0  0  0  0  0  2  0  0  0  0  0  0
  190.8600  174.8050  146.1860 S   0  0  0  0  0  0  0  0  0  0  0  0
  192.2570  175.3440  145.1550 C   0  0  1  0  0  3  0  0  0  0  0  0
  193.0110  176.4680  145.8420 C   0  0  0  0  0  1  0  0  0  0  0  0
  193.1720  174.1970  144.8790 C   0  0  0  0  0  0  0  0  0  0  0  0
  193.4970  173.8800  143.5670 O   0  0  0  0  0  0  0  0  0  0  0  0
  193.6490  173.5140  145.8230 O   0  0  0  0  0  1  0  0  0  0  0  0
  1  4  1  0  0  0  0
  2  1  1  0  0  0  0
  2 11  1  0  0  0  0
  3 13  1  0  0  0  0
  4 16  1  0  0  0  0
  5 12  1  0  0  0  0
  6  3  2  0  0  0  0
  6 18  1  0  0  0  0
  7  4  2  0  0  0  0
  7  8  1  0  0  0  0
  8  5  2  0  0  0  0
  9 18  1  0  0  0  0
  9 15  2  0  0  0  0
 10  9  1  0  0  0  0
 13 14  1  0  0  0  0
 13  1  2  0  0  0  0
 14  7  1  0  0  0  0
 15 17  1  0  0  0  0
 16 12  2  0  0  0  0
 17 11  2  0  0  0  0
 17 19  1  0  0  0  0
 18  2  2  0  0  0  0
 19 20  1  0  0  0  0
 21 22  1  1  0  0  0
 21 20  1  0  0  0  0
 23 21  1  0  0  0  0
 23 25  1  0  0  0  0
 24 23  2  0  0  0  0
M  END
>  <MODEL>
7

>  <REMARK>
 VINA RESULT:      -6.5      2.021      2.296
  Name = 
  4 active torsions:
  status: ('A' for Active; 'I' for Inactive)
    1  A    between atoms: C_2  and  C_21
    2  A    between atoms: C_6  and  S_15
    3  A    between atoms: C_6  and  C_23
    4  A    between atoms: S_15  and  C_21
                            x       y       z     vdW  Elec       q    Type
                         _______ _______ _______ _____ _____    ______ ____

>  <TORSDO>
F 4

$$$$
=
 OpenBabel11052417303D

 25 28  0  0  1  0  0  0  0  0999 V2000
  185.8680  177.5480  143.7960 C   0  0  0  0  0  0  0  0  0  0  0  0
  186.6080  176.9090  142.7960 C   0  0  0  0  0  0  0  0  0  0  0  0
  184.5580  178.6590  142.1270 N   0  0  0  0  0  0  0  0  0  0  0  0
  185.9930  177.4490  145.1890 C   0  0  0  0  0  0  0  0  0  0  0  0
  185.9330  177.5130  147.9800 C   0  0  0  0  0  3  0  0  0  0  0  0
  185.2590  178.0520  141.1620 N   0  0  0  0  0  0  0  0  0  0  0  0
  185.0690  178.2440  145.8670 C   0  0  0  0  0  0  0  0  0  0  0  0
  185.0190  178.2940  147.2580 C   0  0  0  0  0  3  0  0  0  0  0  0
  187.0010  176.5490  140.4290 C   0  0  0  0  0  0  0  0  0  0  0  0
  186.6950  176.7930  138.9920 C   0  0  0  0  0  1  0  0  0  0  0  0
  187.6170  176.0450  143.0880 N   0  0  0  0  0  0  0  0  0  0  0  0
  186.8710  176.7060  147.3090 C   0  0  0  0  0  3  0  0  0  0  0  0
  184.8520  178.4160  143.4270 C   0  0  0  0  0  0  0  0  0  0  0  0
  184.0870  179.0790  144.7740 S   0  0  0  0  0  0  0  0  0  0  0  0
  188.0310  175.6670  140.7640 C   0  0  0  0  0  3  0  0  0  0  0  0
  186.9060  176.6700  145.9060 C   0  0  0  0  0  3  0  0  0  0  0  0
  188.3330  175.4300  142.1080 C   0  0  0  0  0  0  0  0  0  0  0  0
  186.2760  177.1820  141.4490 C   0  0  0  0  0  0  0  0  0  0  0  0
  189.4130  174.4740  142.4700 C   0  0  0  0  0  2  0  0  0  0  0  0
  188.7790  172.7730  142.3920 S   0  0  0  0  0  0  0  0  0  0  0  0
  190.2240  172.1880  141.4560 C   0  0  1  0  0  3  0  0  0  0  0  0
  190.6420  170.8130  141.9430 C   0  0  0  0  0  1  0  0  0  0  0  0
  189.9170  172.1510  139.9960 C   0  0  0  0  0  0  0  0  0  0  0  0
  188.6160  172.3690  139.5630 O   0  0  0  0  0  1  0  0  0  0  0  0
  190.8250  171.9220  139.1530 O   0  0  0  0  0  0  0  0  0  0  0  0
  1  4  1  0  0  0  0
  2 11  1  0  0  0  0
  2  1  1  0  0  0  0
  3 13  1  0  0  0  0
  4  7  2  0  0  0  0
  4 16  1  0  0  0  0
  6 18  1  0  0  0  0
  6  3  2  0  0  0  0
  7  8  1  0  0  0  0
  8  5  2  0  0  0  0
  9 15  2  0  0  0  0
  9 18  1  0  0  0  0
 10  9  1  0  0  0  0
 12  5  1  0  0  0  0
 13  1  2  0  0  0  0
 13 14  1  0  0  0  0
 14  7  1  0  0  0  0
 15 17  1  0  0  0  0
 16 12  2  0  0  0  0
 17 19  1  0  0  0  0
 17 11  2  0  0  0  0
 18  2  2  0  0  0  0
 20 19  1  0  0  0  0
 21 22  1  1  0  0  0
 21 20  1  0  0  0  0
 23 21  1  0  0  0  0
 24 23  1  0  0  0  0
 25 23  2  0  0  0  0
M  END
>  <MODEL>
8

>  <REMARK>
 VINA RESULT:      -6.4      3.721      4.656
  Name = 
  4 active torsions:
  status: ('A' for Active; 'I' for Inactive)
    1  A    between atoms: C_2  and  C_21
    2  A    between atoms: C_6  and  S_15
    3  A    between atoms: C_6  and  C_23
    4  A    between atoms: S_15  and  C_21
                            x       y       z     vdW  Elec       q    Type
                         _______ _______ _______ _____ _____    ______ ____

>  <TORSDO>
F 4

$$$$
=
 OpenBabel11052417303D

 25 28  0  0  1  0  0  0  0  0999 V2000
  190.5060  174.8510  143.9750 C   0  0  0  0  0  0  0  0  0  0  0  0
  189.5500  175.0920  142.9830 C   0  0  0  0  0  0  0  0  0  0  0  0
  191.6210  173.2970  142.5350 N   0  0  0  0  0  0  0  0  0  0  0  0
  190.6060  175.4040  145.2600 C   0  0  0  0  0  0  0  0  0  0  0  0
  191.1360  176.2780  147.8590 C   0  0  0  0  0  3  0  0  0  0  0  0
  190.7130  173.5210  141.5780 N   0  0  0  0  0  0  0  0  0  0  0  0
  191.7040  174.9170  145.9680 C   0  0  0  0  0  0  0  0  0  0  0  0
  191.9900  175.3360  147.2660 C   0  0  0  0  0  3  0  0  0  0  0  0
  188.7340  174.6260  140.7460 C   0  0  0  0  0  0  0  0  0  0  0  0
  188.8190  173.9290  139.4320 C   0  0  0  0  0  1  0  0  0  0  0  0
  188.5240  175.9650  143.1680 N   0  0  0  0  0  0  0  0  0  0  0  0
  190.0250  176.7790  147.1550 C   0  0  0  0  0  3  0  0  0  0  0  0
  191.5260  173.9490  143.7190 C   0  0  0  0  0  0  0  0  0  0  0  0
  192.5670  173.8020  145.0360 S   0  0  0  0  0  0  0  0  0  0  0  0
  187.6930  175.5300  140.9690 C   0  0  0  0  0  3  0  0  0  0  0  0
  189.7530  176.3440  145.8480 C   0  0  0  0  0  3  0  0  0  0  0  0
  187.5980  176.1910  142.1970 C   0  0  0  0  0  0  0  0  0  0  0  0
  189.6780  174.3970  141.7580 C   0  0  0  0  0  0  0  0  0  0  0  0
  186.5050  177.1710  142.4310 C   0  0  0  0  0  2  0  0  0  0  0  0
  186.8690  178.1570  143.9130 S   0  0  0  0  0  0  0  0  0  0  0  0
  185.4930  177.4180  144.8440 C   0  0  1  0  0  3  0  0  0  0  0  0
  186.0090  176.7780  146.1210 C   0  0  0  0  0  1  0  0  0  0  0  0
  184.4650  178.4540  145.1610 C   0  0  0  0  0  0  0  0  0  0  0  0
  184.0520  179.3350  144.1710 O   0  0  0  0  0  0  0  0  0  0  0  0
  183.9710  178.5370  146.3170 O   0  0  0  0  0  1  0  0  0  0  0  0
  1  4  1  0  0  0  0
  2 11  1  0  0  0  0
  2  1  1  0  0  0  0
  3 13  1  0  0  0  0
  4 16  2  0  0  0  0
  4  7  1  0  0  0  0
  6 18  1  0  0  0  0
  6  3  2  0  0  0  0
  7  8  2  0  0  0  0
  8  5  1  0  0  0  0
  9 15  2  0  0  0  0
  9 18  1  0  0  0  0
 10  9  1  0  0  0  0
 12  5  2  0  0  0  0
 13  1  2  0  0  0  0
 13 14  1  0  0  0  0
 14  7  1  0  0  0  0
 15 17  1  0  0  0  0
 16 12  1  0  0  0  0
 17 19  1  0  0  0  0
 17 11  2  0  0  0  0
 18  2  2  0  0  0  0
 19 20  1  0  0  0  0
 20 21  1  0  0  0  0
 21 23  1  0  0  0  0
 21 22  1  1  0  0  0
 23 25  1  0  0  0  0
 24 23  2  0  0  0  0
M  END
>  <MODEL>
9

>  <REMARK>
 VINA RESULT:      -6.4      2.621      5.662
  Name = 
  4 active torsions:
  status: ('A' for Active; 'I' for Inactive)
    1  A    between atoms: C_2  and  C_21
    2  A    between atoms: C_6  and  S_15
    3  A    between atoms: C_6  and  C_23
    4  A    between atoms: S_15  and  C_21
                            x       y       z     vdW  Elec       q    Type
                         _______ _______ _______ _____ _____    ______ ____

>  <TORSDO>
F 4

$$$$
