=
 OpenBabel11052418003D

 31 34  0  0  1  0  0  0  0  0999 V2000
  191.4890  175.1530  145.6290 O   0  0  0  0  0  0  0  0  0  0  0  0
  192.0380  175.6850  146.8110 C   0  0  2  0  0  3  0  0  0  0  0  0
  189.4480  176.2210  146.4160 C   0  0  1  0  0  3  0  0  0  0  0  0
  190.1990  176.6200  147.5390 O   0  0  0  0  0  0  0  0  0  0  0  0
  190.1070  174.9520  145.8450 C   0  0  1  0  0  3  0  0  0  0  0  0
  191.4130  176.9180  147.0910 O   0  0  0  0  0  0  0  0  0  0  0  0
  189.4240  174.4880  144.5530 C   0  0  1  0  0  3  0  0  0  0  0  0
  190.1340  175.8610  142.5670 C   0  0  0  0  0  2  0  0  0  0  0  0
  189.0730  175.6730  143.6400 C   0  0  0  0  0  2  0  0  0  0  0  0
  190.2420  174.6080  141.6810 C   0  0  0  0  0  2  0  0  0  0  0  0
  188.6000  172.9570  142.1450 C   0  0  0  0  0  1  0  0  0  0  0  0
  190.2800  173.4240  143.8290 C   0  0  2  0  0  3  0  0  0  0  0  0
  189.9890  173.3360  142.3830 N   0  0  0  0  0  0  0  0  0  0  0  0
  190.1850  172.0530  144.4920 C   0  0  0  0  0  2  0  0  0  0  0  0
  191.3860  171.3590  144.3430 O   0  0  0  0  0  1  0  0  0  0  0  0
  188.0070  175.9460  146.8310 C   0  0  0  0  0  2  0  0  0  0  0  0
  187.0780  177.1150  146.5080 C   0  0  1  0  0  3  0  0  0  0  0  0
  186.1430  176.7810  145.3530 C   0  0  1  0  0  3  0  0  0  0  0  0
  185.0090  177.7850  145.3040 C   0  0  0  0  0  2  0  0  0  0  0  0
  186.1730  177.9100  144.3420 C   0  0  2  0  0  3  0  0  0  0  0  0
  185.7690  177.3650  142.9870 C   0  0  0  0  0  2  0  0  0  0  0  0
  186.2500  178.2930  141.8880 C   0  0  2  0  0  3  0  0  0  0  0  0
  187.1230  177.5570  140.9500 C   0  0  0  0  0  2  0  0  0  0  0  0
  187.6510  178.3890  141.9540 O   0  0  0  0  0  0  0  0  0  0  0  0
  186.3380  177.4760  147.6380 O   0  0  0  0  0  0  0  0  0  0  0  0
  186.9560  178.6300  148.1210 C   0  0  0  0  0  1  0  0  0  0  0  0
  193.5270  175.9000  146.6160 C   0  0  0  0  0  2  0  0  0  0  0  0
  193.7840  176.8670  145.4740 C   0  0  1  0  0  3  0  0  0  0  0  0
  194.5660  177.9170  145.9180 F   0  0  0  0  0  0  0  0  0  0  0  0
  194.6400  176.0040  144.1250 S   0  0  0  0  0  0  0  0  0  0  0  0
  195.6350  175.0200  145.2800 C   0  0  0  0  0  1  0  0  0  0  0  0
  1  2  1  0  0  0  0
  2 27  1  6  0  0  0
  2  6  1  0  0  0  0
  3 16  1  1  0  0  0
  3  4  1  0  0  0  0
  5  1  1  6  0  0  0
  5  3  1  0  0  0  0
  6  4  1  0  0  0  0
  7  9  1  6  0  0  0
  7  5  1  0  0  0  0
  8  9  1  0  0  0  0
 10 13  1  0  0  0  0
 10  8  1  0  0  0  0
 11 13  1  0  0  0  0
 12 14  1  1  0  0  0
 12  7  1  0  0  0  0
 13 12  1  0  0  0  0
 15 14  1  0  0  0  0
 17 16  1  1  0  0  0
 17 25  1  0  0  0  0
 18 17  1  1  0  0  0
 19 18  1  0  0  0  0
 20 21  1  6  0  0  0
 20 19  1  0  0  0  0
 20 18  1  0  0  0  0
 22 24  1  0  0  0  0
 22 21  1  1  0  0  0
 23 22  1  0  0  0  0
 23 24  1  0  0  0  0
 25 26  1  0  0  0  0
 28 29  1  1  0  0  0
 28 27  1  0  0  0  0
 30 31  1  0  0  0  0
 30 28  1  0  0  0  0
M  END
>  <MODEL>
1

>  <REMARK>
 VINA RESULT:      -6.1      0.000      0.000
  Name = 
  11 active torsions:
  status: ('A' for Active; 'I' for Inactive)
    1  A    between atoms: C_1  and  C_24
    2  A    between atoms: C_2  and  S_13
    3  A    between atoms: C_2  and  C_25
    4  A    between atoms: O_3  and  C_9
    5  A    between atoms: C_5  and  C_21
    6  A    between atoms: C_6  and  C_9
    7  A    between atoms: C_9  and  C_23
    8  A    between atoms: C_12  and  C_25
    9  A    between atoms: C_15  and  C_23
   10  A    between atoms: C_17  and  C_30
   11  A    between atoms: C_19  and  C_24
                            x       y       z     vdW  Elec       q    Type
                         _______ _______ _______ _____ _____    ______ ____

>  <TORSDO>
F 11

$$$$
=
 OpenBabel11052418003D

 31 34  0  0  1  0  0  0  0  0999 V2000
  187.6370  175.4240  142.4820 O   0  0  0  0  0  0  0  0  0  0  0  0
  188.5220  174.3330  142.3950 C   0  0  2  0  0  3  0  0  0  0  0  0
  189.5230  176.5210  143.5620 C   0  0  1  0  0  3  0  0  0  0  0  0
  190.2100  175.3020  143.3930 O   0  0  0  0  0  0  0  0  0  0  0  0
  188.0170  176.2020  143.5990 C   0  0  1  0  0  3  0  0  0  0  0  0
  189.8340  174.8210  142.2140 O   0  0  0  0  0  0  0  0  0  0  0  0
  187.1680  177.4760  143.6790 C   0  0  1  0  0  3  0  0  0  0  0  0
  185.5960  177.6850  141.7240 C   0  0  0  0  0  2  0  0  0  0  0  0
  186.9450  178.0980  142.2920 C   0  0  0  0  0  2  0  0  0  0  0  0
  184.4520  178.1620  142.6360 C   0  0  0  0  0  2  0  0  0  0  0  0
  185.1650  179.5340  144.4360 C   0  0  0  0  0  1  0  0  0  0  0  0
  185.8380  177.2060  144.4200 C   0  0  2  0  0  3  0  0  0  0  0  0
  184.7780  178.1740  144.0730 N   0  0  0  0  0  0  0  0  0  0  0  0
  186.0240  177.1120  145.9310 C   0  0  0  0  0  2  0  0  0  0  0  0
  184.8390  176.6980  146.5400 O   0  0  0  0  0  1  0  0  0  0  0  0
  189.9690  177.1890  144.8580 C   0  0  0  0  0  2  0  0  0  0  0  0
  190.5480  176.1860  145.8560 C   0  0  1  0  0  3  0  0  0  0  0  0
  191.9740  176.5490  146.2480 C   0  0  1  0  0  3  0  0  0  0  0  0
  192.6650  175.3420  146.8480 C   0  0  0  0  0  2  0  0  0  0  0  0
  192.9440  175.7380  145.4120 C   0  0  2  0  0  3  0  0  0  0  0  0
  194.2660  176.4770  145.3410 C   0  0  0  0  0  2  0  0  0  0  0  0
  195.2720  175.6670  144.5460 C   0  0  2  0  0  3  0  0  0  0  0  0
  196.0890  176.5640  143.7020 C   0  0  0  0  0  2  0  0  0  0  0  0
  195.0090  175.8340  143.1740 O   0  0  0  0  0  0  0  0  0  0  0  0
  189.7390  176.1110  146.9950 O   0  0  0  0  0  0  0  0  0  0  0  0
  189.1040  174.8730  146.9060 C   0  0  0  0  0  1  0  0  0  0  0  0
  188.1310  173.4680  141.2110 C   0  0  0  0  0  2  0  0  0  0  0  0
  189.3620  172.8610  140.5620 C   0  0  1  0  0  3  0  0  0  0  0  0
  189.7310  171.7140  141.2410 F   0  0  0  0  0  0  0  0  0  0  0  0
  188.9970  172.4470  138.8310 S   0  0  0  0  0  0  0  0  0  0  0  0
  188.2730  174.0790  138.5120 C   0  0  0  0  0  1  0  0  0  0  0  0
  2 27  1  6  0  0  0
  2  1  1  0  0  0  0
  3  5  1  0  0  0  0
  3 16  1  1  0  0  0
  4  3  1  0  0  0  0
  5  1  1  6  0  0  0
  5  7  1  0  0  0  0
  6  2  1  0  0  0  0
  6  4  1  0  0  0  0
  7  9  1  6  0  0  0
  7 12  1  0  0  0  0
  8  9  1  0  0  0  0
  8 10  1  0  0  0  0
 10 13  1  0  0  0  0
 12 14  1  1  0  0  0
 13 12  1  0  0  0  0
 13 11  1  0  0  0  0
 14 15  1  0  0  0  0
 17 16  1  6  0  0  0
 17 25  1  0  0  0  0
 18 17  1  6  0  0  0
 18 19  1  0  0  0  0
 20 21  1  1  0  0  0
 20 18  1  0  0  0  0
 20 19  1  0  0  0  0
 22 21  1  1  0  0  0
 23 22  1  0  0  0  0
 24 23  1  0  0  0  0
 24 22  1  0  0  0  0
 26 25  1  0  0  0  0
 28 27  1  0  0  0  0
 28 29  1  1  0  0  0
 30 28  1  0  0  0  0
 31 30  1  0  0  0  0
M  END
>  <MODEL>
2

>  <REMARK>
 VINA RESULT:      -6.0      3.184      6.748
  Name = 
  11 active torsions:
  status: ('A' for Active; 'I' for Inactive)
    1  A    between atoms: C_1  and  C_24
    2  A    between atoms: C_2  and  S_13
    3  A    between atoms: C_2  and  C_25
    4  A    between atoms: O_3  and  C_9
    5  A    between atoms: C_5  and  C_21
    6  A    between atoms: C_6  and  C_9
    7  A    between atoms: C_9  and  C_23
    8  A    between atoms: C_12  and  C_25
    9  A    between atoms: C_15  and  C_23
   10  A    between atoms: C_17  and  C_30
   11  A    between atoms: C_19  and  C_24
                            x       y       z     vdW  Elec       q    Type
                         _______ _______ _______ _____ _____    ______ ____

>  <TORSDO>
F 11

$$$$
=
 OpenBabel11052418003D

 31 34  0  0  1  0  0  0  0  0999 V2000
  189.4020  173.9170  143.7500 O   0  0  0  0  0  0  0  0  0  0  0  0
  189.2160  173.2430  142.5280 C   0  0  2  0  0  3  0  0  0  0  0  0
  187.9880  175.6100  142.7210 C   0  0  1  0  0  3  0  0  0  0  0  0
  187.9710  174.7760  141.5870 O   0  0  0  0  0  0  0  0  0  0  0  0
  189.2780  175.3030  143.5040 C   0  0  1  0  0  3  0  0  0  0  0  0
  187.9240  173.5290  142.0400 O   0  0  0  0  0  0  0  0  0  0  0  0
  189.3480  176.0900  144.8180 C   0  0  1  0  0  3  0  0  0  0  0  0
  189.2780  174.5750  146.8270 C   0  0  0  0  0  2  0  0  0  0  0  0
  188.4580  175.4620  145.9030 C   0  0  0  0  0  2  0  0  0  0  0  0
  190.3710  175.3910  147.5380 C   0  0  0  0  0  2  0  0  0  0  0  0
  190.2500  177.7260  147.1270 C   0  0  0  0  0  1  0  0  0  0  0  0
  190.8120  176.2550  145.2850 C   0  0  2  0  0  3  0  0  0  0  0  0
  190.9310  176.4950  146.7380 N   0  0  0  0  0  0  0  0  0  0  0  0
  191.5590  177.3210  144.4890 C   0  0  0  0  0  2  0  0  0  0  0  0
  192.6240  176.7480  143.7930 O   0  0  0  0  0  1  0  0  0  0  0  0
  187.9510  177.0720  142.2870 C   0  0  0  0  0  2  0  0  0  0  0  0
  186.5970  177.7240  142.5660 C   0  0  1  0  0  3  0  0  0  0  0  0
  186.6700  178.6710  143.7560 C   0  0  1  0  0  3  0  0  0  0  0  0
  185.5250  179.6620  143.6940 C   0  0  0  0  0  2  0  0  0  0  0  0
  185.4470  178.4720  144.6290 C   0  0  2  0  0  3  0  0  0  0  0  0
  185.7750  178.9180  146.0410 C   0  0  0  0  0  2  0  0  0  0  0  0
  185.0070  178.0780  147.0430 C   0  0  2  0  0  3  0  0  0  0  0  0
  185.9480  177.3010  147.8780 C   0  0  0  0  0  2  0  0  0  0  0  0
  185.2680  176.7180  146.7930 O   0  0  0  0  0  0  0  0  0  0  0  0
  186.1430  178.4070  141.4330 O   0  0  0  0  0  0  0  0  0  0  0  0
  186.5660  177.6330  140.3520 C   0  0  0  0  0  1  0  0  0  0  0  0
  189.3580  171.7500  142.7560 C   0  0  0  0  0  2  0  0  0  0  0  0
  190.6310  171.2290  142.1140 C   0  0  1  0  0  3  0  0  0  0  0  0
  190.4130  169.9620  141.6040 F   0  0  0  0  0  0  0  0  0  0  0  0
  191.1350  172.3420  140.7700 S   0  0  0  0  0  0  0  0  0  0  0  0
  190.3910  171.2770  139.5030 C   0  0  0  0  0  1  0  0  0  0  0  0
  2 27  1  1  0  0  0
  2  1  1  0  0  0  0
  3 16  1  6  0  0  0
  3  5  1  0  0  0  0
  4  6  1  0  0  0  0
  4  3  1  0  0  0  0
  5  1  1  1  0  0  0
  5  7  1  0  0  0  0
  6  2  1  0  0  0  0
  7 12  1  0  0  0  0
  7  9  1  1  0  0  0
  8 10  1  0  0  0  0
  9  8  1  0  0  0  0
 12 14  1  6  0  0  0
 12 13  1  0  0  0  0
 13 11  1  0  0  0  0
 13 10  1  0  0  0  0
 15 14  1  0  0  0  0
 17 16  1  6  0  0  0
 18 17  1  6  0  0  0
 18 20  1  0  0  0  0
 19 18  1  0  0  0  0
 19 20  1  0  0  0  0
 20 21  1  1  0  0  0
 22 21  1  6  0  0  0
 22 23  1  0  0  0  0
 24 22  1  0  0  0  0
 24 23  1  0  0  0  0
 25 17  1  0  0  0  0
 26 25  1  0  0  0  0
 28 29  1  6  0  0  0
 28 27  1  0  0  0  0
 30 28  1  0  0  0  0
 31 30  1  0  0  0  0
M  END
>  <MODEL>
3

>  <REMARK>
 VINA RESULT:      -6.0      3.094      5.563
  Name = 
  11 active torsions:
  status: ('A' for Active; 'I' for Inactive)
    1  A    between atoms: C_1  and  C_24
    2  A    between atoms: C_2  and  S_13
    3  A    between atoms: C_2  and  C_25
    4  A    between atoms: O_3  and  C_9
    5  A    between atoms: C_5  and  C_21
    6  A    between atoms: C_6  and  C_9
    7  A    between atoms: C_9  and  C_23
    8  A    between atoms: C_12  and  C_25
    9  A    between atoms: C_15  and  C_23
   10  A    between atoms: C_17  and  C_30
   11  A    between atoms: C_19  and  C_24
                            x       y       z     vdW  Elec       q    Type
                         _______ _______ _______ _____ _____    ______ ____

>  <TORSDO>
F 11

$$$$
=
 OpenBabel11052418003D

 31 34  0  0  1  0  0  0  0  0999 V2000
  189.5380  174.9410  142.3050 O   0  0  0  0  0  0  0  0  0  0  0  0
  188.6230  175.6460  141.5000 C   0  0  2  0  0  3  0  0  0  0  0  0
  188.7080  176.4060  144.0630 C   0  0  1  0  0  3  0  0  0  0  0  0
  187.8960  176.9860  143.0690 O   0  0  0  0  0  0  0  0  0  0  0  0
  189.9340  175.7930  143.3600 C   0  0  1  0  0  3  0  0  0  0  0  0
  187.5010  175.9930  142.2820 O   0  0  0  0  0  0  0  0  0  0  0  0
  190.8390  175.0440  144.3450 C   0  0  1  0  0  3  0  0  0  0  0  0
  190.3960  172.5660  144.3330 C   0  0  0  0  0  2  0  0  0  0  0  0
  190.0970  173.8850  145.0290 C   0  0  0  0  0  2  0  0  0  0  0  0
  191.9000  172.2500  144.3870 C   0  0  0  0  0  2  0  0  0  0  0  0
  193.1580  173.7760  145.7010 C   0  0  0  0  0  1  0  0  0  0  0  0
  192.1410  174.5780  143.6520 C   0  0  2  0  0  3  0  0  0  0  0  0
  192.7780  173.4330  144.3340 N   0  0  0  0  0  0  0  0  0  0  0  0
  193.1330  175.7200  143.4520 C   0  0  0  0  0  2  0  0  0  0  0  0
  194.1810  175.3110  142.6270 O   0  0  0  0  0  1  0  0  0  0  0  0
  189.1340  177.4710  145.0670 C   0  0  0  0  0  2  0  0  0  0  0  0
  188.4500  177.2940  146.4230 C   0  0  1  0  0  3  0  0  0  0  0  0
  187.0120  176.8180  146.2640 C   0  0  1  0  0  3  0  0  0  0  0  0
  186.3110  176.8450  147.6070 C   0  0  0  0  0  2  0  0  0  0  0  0
  186.0680  177.9540  146.6030 C   0  0  2  0  0  3  0  0  0  0  0  0
  184.7450  177.7180  145.9010 C   0  0  0  0  0  2  0  0  0  0  0  0
  184.2760  178.9960  145.2350 C   0  0  2  0  0  3  0  0  0  0  0  0
  184.1330  178.7850  143.7790 C   0  0  0  0  0  2  0  0  0  0  0  0
  185.2600  179.4250  144.3260 O   0  0  0  0  0  0  0  0  0  0  0  0
  189.1700  176.3970  147.2180 O   0  0  0  0  0  0  0  0  0  0  0  0
  190.4220  176.9890  147.3860 C   0  0  0  0  0  1  0  0  0  0  0  0
  188.1890  174.7600  140.3470 C   0  0  0  0  0  2  0  0  0  0  0  0
  188.5410  173.3090  140.6250 C   0  0  1  0  0  3  0  0  0  0  0  0
  187.5320  172.7170  141.3620 F   0  0  0  0  0  0  0  0  0  0  0  0
  188.7430  172.4210  139.0530 S   0  0  0  0  0  0  0  0  0  0  0  0
  188.2920  173.8820  138.0780 C   0  0  0  0  0  1  0  0  0  0  0  0
  2 27  1  6  0  0  0
  2  6  1  0  0  0  0
  2  1  1  0  0  0  0
  3 16  1  1  0  0  0
  4  3  1  0  0  0  0
  5  1  1  6  0  0  0
  5  3  1  0  0  0  0
  5  7  1  0  0  0  0
  6  4  1  0  0  0  0
  7  9  1  6  0  0  0
  8 10  1  0  0  0  0
  8  9  1  0  0  0  0
 12 14  1  1  0  0  0
 12 13  1  0  0  0  0
 12  7  1  0  0  0  0
 13 10  1  0  0  0  0
 13 11  1  0  0  0  0
 15 14  1  0  0  0  0
 17 16  1  6  0  0  0
 17 25  1  0  0  0  0
 18 17  1  1  0  0  0
 18 20  1  0  0  0  0
 18 19  1  0  0  0  0
 20 21  1  6  0  0  0
 20 19  1  0  0  0  0
 22 21  1  1  0  0  0
 23 24  1  0  0  0  0
 23 22  1  0  0  0  0
 24 22  1  0  0  0  0
 25 26  1  0  0  0  0
 27 28  1  0  0  0  0
 28 29  1  1  0  0  0
 30 28  1  0  0  0  0
 31 30  1  0  0  0  0
M  END
>  <MODEL>
4

>  <REMARK>
 VINA RESULT:      -6.0      3.152      5.033
  Name = 
  11 active torsions:
  status: ('A' for Active; 'I' for Inactive)
    1  A    between atoms: C_1  and  C_24
    2  A    between atoms: C_2  and  S_13
    3  A    between atoms: C_2  and  C_25
    4  A    between atoms: O_3  and  C_9
    5  A    between atoms: C_5  and  C_21
    6  A    between atoms: C_6  and  C_9
    7  A    between atoms: C_9  and  C_23
    8  A    between atoms: C_12  and  C_25
    9  A    between atoms: C_15  and  C_23
   10  A    between atoms: C_17  and  C_30
   11  A    between atoms: C_19  and  C_24
                            x       y       z     vdW  Elec       q    Type
                         _______ _______ _______ _____ _____    ______ ____

>  <TORSDO>
F 11

$$$$
=
 OpenBabel11052418003D

 31 34  0  0  1  0  0  0  0  0999 V2000
  188.9780  176.0380  142.6780 O   0  0  0  0  0  0  0  0  0  0  0  0
  188.8040  177.4230  142.8580 C   0  0  2  0  0  3  0  0  0  0  0  0
  191.2590  176.5050  143.3870 C   0  0  1  0  0  3  0  0  0  0  0  0
  190.8610  177.8540  143.4650 O   0  0  0  0  0  0  0  0  0  0  0  0
  190.3370  175.8080  142.3690 C   0  0  1  0  0  3  0  0  0  0  0  0
  189.6170  177.8510  143.9290 O   0  0  0  0  0  0  0  0  0  0  0  0
  190.6200  174.3030  142.2820 C   0  0  1  0  0  3  0  0  0  0  0  0
  189.6570  173.0480  144.2390 C   0  0  0  0  0  2  0  0  0  0  0  0
  190.9060  173.6980  143.6650 C   0  0  0  0  0  2  0  0  0  0  0  0
  189.1660  171.9110  143.3260 C   0  0  0  0  0  2  0  0  0  0  0  0
  190.6230  171.4340  141.5140 C   0  0  0  0  0  1  0  0  0  0  0  0
  189.4760  173.5690  141.5460 C   0  0  2  0  0  3  0  0  0  0  0  0
  189.3980  172.1340  141.8880 N   0  0  0  0  0  0  0  0  0  0  0  0
  189.5330  173.7710  140.0350 C   0  0  0  0  0  2  0  0  0  0  0  0
  188.4060  174.4650  139.5960 O   0  0  0  0  0  1  0  0  0  0  0  0
  192.7160  176.4220  142.9460 C   0  0  0  0  0  2  0  0  0  0  0  0
  193.6850  176.5500  144.1210 C   0  0  1  0  0  3  0  0  0  0  0  0
  193.3950  175.5140  145.1980 C   0  0  1  0  0  3  0  0  0  0  0  0
  194.2810  175.7630  146.4030 C   0  0  0  0  0  2  0  0  0  0  0  0
  192.8320  176.2080  146.4220 C   0  0  2  0  0  3  0  0  0  0  0  0
  192.0100  175.2120  147.2160 C   0  0  0  0  0  2  0  0  0  0  0  0
  190.6950  175.8400  147.6340 C   0  0  2  0  0  3  0  0  0  0  0  0
  189.5870  174.8860  147.4170 C   0  0  0  0  0  2  0  0  0  0  0  0
  189.8530  175.9280  146.5100 O   0  0  0  0  0  0  0  0  0  0  0  0
  195.0060  176.4290  143.6780 O   0  0  0  0  0  0  0  0  0  0  0  0
  194.9830  175.3840  142.7550 C   0  0  0  0  0  1  0  0  0  0  0  0
  187.3480  177.7050  143.1780 C   0  0  0  0  0  2  0  0  0  0  0  0
  187.1930  178.1470  144.6220 C   0  0  1  0  0  3  0  0  0  0  0  0
  186.3980  179.2770  144.6820 F   0  0  0  0  0  0  0  0  0  0  0  0
  186.4230  176.8150  145.5880 S   0  0  0  0  0  0  0  0  0  0  0  0
  186.7960  177.6340  147.1630 C   0  0  0  0  0  1  0  0  0  0  0  0
  1  2  1  0  0  0  0
  2 27  1  1  0  0  0
  2  6  1  0  0  0  0
  3 16  1  6  0  0  0
  3  4  1  0  0  0  0
  4  6  1  0  0  0  0
  5  1  1  1  0  0  0
  5  3  1  0  0  0  0
  7  5  1  0  0  0  0
  7  9  1  1  0  0  0
  9  8  1  0  0  0  0
 10  8  1  0  0  0  0
 11 13  1  0  0  0  0
 12 14  1  6  0  0  0
 12 13  1  0  0  0  0
 12  7  1  0  0  0  0
 13 10  1  0  0  0  0
 15 14  1  0  0  0  0
 17 16  1  6  0  0  0
 18 17  1  6  0  0  0
 18 19  1  0  0  0  0
 18 20  1  0  0  0  0
 19 20  1  0  0  0  0
 20 21  1  1  0  0  0
 22 21  1  6  0  0  0
 23 22  1  0  0  0  0
 24 23  1  0  0  0  0
 24 22  1  0  0  0  0
 25 17  1  0  0  0  0
 26 25  1  0  0  0  0
 27 28  1  0  0  0  0
 28 29  1  6  0  0  0
 28 30  1  0  0  0  0
 30 31  1  0  0  0  0
M  END
>  <MODEL>
5

>  <REMARK>
 VINA RESULT:      -5.9      2.917      6.306
  Name = 
  11 active torsions:
  status: ('A' for Active; 'I' for Inactive)
    1  A    between atoms: C_1  and  C_24
    2  A    between atoms: C_2  and  S_13
    3  A    between atoms: C_2  and  C_25
    4  A    between atoms: O_3  and  C_9
    5  A    between atoms: C_5  and  C_21
    6  A    between atoms: C_6  and  C_9
    7  A    between atoms: C_9  and  C_23
    8  A    between atoms: C_12  and  C_25
    9  A    between atoms: C_15  and  C_23
   10  A    between atoms: C_17  and  C_30
   11  A    between atoms: C_19  and  C_24
                            x       y       z     vdW  Elec       q    Type
                         _______ _______ _______ _____ _____    ______ ____

>  <TORSDO>
F 11

$$$$
=
 OpenBabel11052418003D

 31 34  0  0  1  0  0  0  0  0999 V2000
  189.7650  175.1570  144.6910 O   0  0  0  0  0  0  0  0  0  0  0  0
  189.2670  175.8410  145.8160 C   0  0  2  0  0  3  0  0  0  0  0  0
  189.1530  177.1980  143.5140 C   0  0  1  0  0  3  0  0  0  0  0  0
  188.6840  177.6650  144.7580 O   0  0  0  0  0  0  0  0  0  0  0  0
  189.1020  175.6590  143.5490 C   0  0  1  0  0  3  0  0  0  0  0  0
  189.5380  177.2180  145.6710 O   0  0  0  0  0  0  0  0  0  0  0  0
  189.6880  175.0410  142.2730 C   0  0  1  0  0  3  0  0  0  0  0  0
  191.8410  173.8170  142.7230 C   0  0  0  0  0  2  0  0  0  0  0  0
  191.2230  175.1250  142.2560 C   0  0  0  0  0  2  0  0  0  0  0  0
  191.4280  172.6580  141.7990 C   0  0  0  0  0  2  0  0  0  0  0  0
  190.1930  173.3420  139.8910 C   0  0  0  0  0  1  0  0  0  0  0  0
  189.1780  173.5950  142.0770 C   0  0  2  0  0  3  0  0  0  0  0  0
  190.0730  172.7780  141.2320 N   0  0  0  0  0  0  0  0  0  0  0  0
  187.7430  173.5500  141.5610 C   0  0  0  0  0  2  0  0  0  0  0  0
  187.1080  172.3880  141.9980 O   0  0  0  0  0  1  0  0  0  0  0  0
  188.2750  177.7450  142.3940 C   0  0  0  0  0  2  0  0  0  0  0  0
  186.8140  177.3210  142.5440 C   0  0  1  0  0  3  0  0  0  0  0  0
  185.9700  178.4340  143.1490 C   0  0  1  0  0  3  0  0  0  0  0  0
  184.5000  178.0830  143.0360 C   0  0  0  0  0  2  0  0  0  0  0  0
  185.2240  177.8970  144.3550 C   0  0  2  0  0  3  0  0  0  0  0  0
  184.8910  179.0520  145.2790 C   0  0  0  0  0  2  0  0  0  0  0  0
  184.4220  178.5240  146.6210 C   0  0  2  0  0  3  0  0  0  0  0  0
  185.5120  178.6260  147.6140 C   0  0  0  0  0  2  0  0  0  0  0  0
  185.2070  177.4110  146.9740 O   0  0  0  0  0  0  0  0  0  0  0  0
  186.2900  176.9360  141.3060 O   0  0  0  0  0  0  0  0  0  0  0  0
  187.1190  177.5400  140.3600 C   0  0  0  0  0  1  0  0  0  0  0  0
  189.9500  175.3130  147.0630 C   0  0  0  0  0  2  0  0  0  0  0  0
  191.2620  176.0390  147.3020 C   0  0  1  0  0  3  0  0  0  0  0  0
  191.4890  176.1580  148.6610 F   0  0  0  0  0  0  0  0  0  0  0  0
  192.6220  175.1050  146.5420 S   0  0  0  0  0  0  0  0  0  0  0  0
  193.0440  176.4730  145.4280 C   0  0  0  0  0  1  0  0  0  0  0  0
  1  2  1  0  0  0  0
  2 27  1  1  0  0  0
  3 16  1  6  0  0  0
  3  5  1  0  0  0  0
  3  4  1  0  0  0  0
  4  6  1  0  0  0  0
  5  1  1  1  0  0  0
  6  2  1  0  0  0  0
  7  9  1  1  0  0  0
  7  5  1  0  0  0  0
  9  8  1  0  0  0  0
 10  8  1  0  0  0  0
 11 13  1  0  0  0  0
 12 14  1  6  0  0  0
 12  7  1  0  0  0  0
 13 10  1  0  0  0  0
 13 12  1  0  0  0  0
 14 15  1  0  0  0  0
 17 16  1  6  0  0  0
 18 17  1  6  0  0  0
 18 20  1  0  0  0  0
 19 18  1  0  0  0  0
 19 20  1  0  0  0  0
 20 21  1  1  0  0  0
 22 21  1  6  0  0  0
 22 24  1  0  0  0  0
 22 23  1  0  0  0  0
 24 23  1  0  0  0  0
 25 17  1  0  0  0  0
 26 25  1  0  0  0  0
 27 28  1  0  0  0  0
 28 29  1  1  0  0  0
 30 28  1  0  0  0  0
 31 30  1  0  0  0  0
M  END
>  <MODEL>
6

>  <REMARK>
 VINA RESULT:      -5.8      1.979      3.846
  Name = 
  11 active torsions:
  status: ('A' for Active; 'I' for Inactive)
    1  A    between atoms: C_1  and  C_24
    2  A    between atoms: C_2  and  S_13
    3  A    between atoms: C_2  and  C_25
    4  A    between atoms: O_3  and  C_9
    5  A    between atoms: C_5  and  C_21
    6  A    between atoms: C_6  and  C_9
    7  A    between atoms: C_9  and  C_23
    8  A    between atoms: C_12  and  C_25
    9  A    between atoms: C_15  and  C_23
   10  A    between atoms: C_17  and  C_30
   11  A    between atoms: C_19  and  C_24
                            x       y       z     vdW  Elec       q    Type
                         _______ _______ _______ _____ _____    ______ ____

>  <TORSDO>
F 11

$$$$
=
 OpenBabel11052418003D

 31 34  0  0  1  0  0  0  0  0999 V2000
  189.9050  173.6950  143.7070 O   0  0  0  0  0  0  0  0  0  0  0  0
  189.8480  172.9850  142.4930 C   0  0  2  0  0  3  0  0  0  0  0  0
  188.4850  175.2850  142.5330 C   0  0  1  0  0  3  0  0  0  0  0  0
  188.5980  174.4260  141.4220 O   0  0  0  0  0  0  0  0  0  0  0  0
  189.7280  175.0660  143.4160 C   0  0  1  0  0  3  0  0  0  0  0  0
  188.5820  173.1890  141.9030 O   0  0  0  0  0  0  0  0  0  0  0  0
  189.6570  175.8850  144.7110 C   0  0  1  0  0  3  0  0  0  0  0  0
  189.3220  174.4230  146.7320 C   0  0  0  0  0  2  0  0  0  0  0  0
  188.6340  175.2990  145.6980 C   0  0  0  0  0  2  0  0  0  0  0  0
  190.3400  175.2390  147.5480 C   0  0  0  0  0  2  0  0  0  0  0  0
  190.3110  177.5640  147.0720 C   0  0  0  0  0  1  0  0  0  0  0  0
  191.0590  176.0380  145.3430 C   0  0  2  0  0  3  0  0  0  0  0  0
  191.0100  176.3130  146.7940 N   0  0  0  0  0  0  0  0  0  0  0  0
  191.9140  177.0720  144.6170 C   0  0  0  0  0  2  0  0  0  0  0  0
  193.2360  177.0030  145.0580 O   0  0  0  0  0  1  0  0  0  0  0  0
  188.4040  176.7330  142.0590 C   0  0  0  0  0  2  0  0  0  0  0  0
  187.0070  177.3250  142.2430 C   0  0  1  0  0  3  0  0  0  0  0  0
  186.8150  177.8720  143.6510 C   0  0  1  0  0  3  0  0  0  0  0  0
  185.6010  178.7770  143.6890 C   0  0  0  0  0  2  0  0  0  0  0  0
  185.5050  177.3580  144.2130 C   0  0  2  0  0  3  0  0  0  0  0  0
  185.5820  177.3740  145.7270 C   0  0  0  0  0  2  0  0  0  0  0  0
  184.9800  178.6580  146.2650 C   0  0  2  0  0  3  0  0  0  0  0  0
  185.7770  179.1500  147.4090 C   0  0  0  0  0  2  0  0  0  0  0  0
  184.5710  178.4490  147.5940 O   0  0  0  0  0  0  0  0  0  0  0  0
  186.7770  178.3310  141.2990 O   0  0  0  0  0  0  0  0  0  0  0  0
  186.1460  177.6880  140.2340 C   0  0  0  0  0  1  0  0  0  0  0  0
  190.0500  171.5070  142.7700 C   0  0  0  0  0  2  0  0  0  0  0  0
  190.5870  170.8000  141.5380 C   0  0  1  0  0  3  0  0  0  0  0  0
  191.2930  171.6960  140.7560 F   0  0  0  0  0  0  0  0  0  0  0  0
  191.6850  169.4450  142.0450 S   0  0  0  0  0  0  0  0  0  0  0  0
  192.2860  170.3650  143.4880 C   0  0  0  0  0  1  0  0  0  0  0  0
  2 27  1  1  0  0  0
  2  1  1  0  0  0  0
  3 16  1  6  0  0  0
  3  5  1  0  0  0  0
  4  6  1  0  0  0  0
  4  3  1  0  0  0  0
  5  1  1  1  0  0  0
  5  7  1  0  0  0  0
  6  2  1  0  0  0  0
  7 12  1  0  0  0  0
  7  9  1  1  0  0  0
  8 10  1  0  0  0  0
  9  8  1  0  0  0  0
 12 14  1  6  0  0  0
 12 13  1  0  0  0  0
 13 11  1  0  0  0  0
 13 10  1  0  0  0  0
 14 15  1  0  0  0  0
 17 16  1  1  0  0  0
 18 17  1  6  0  0  0
 18 19  1  0  0  0  0
 18 20  1  0  0  0  0
 19 20  1  0  0  0  0
 20 21  1  1  0  0  0
 22 21  1  1  0  0  0
 22 23  1  0  0  0  0
 22 24  1  0  0  0  0
 23 24  1  0  0  0  0
 25 17  1  0  0  0  0
 26 25  1  0  0  0  0
 28 29  1  6  0  0  0
 28 30  1  0  0  0  0
 28 27  1  0  0  0  0
 30 31  1  0  0  0  0
M  END
>  <MODEL>
7

>  <REMARK>
 VINA RESULT:      -5.7      2.966      5.440
  Name = 
  11 active torsions:
  status: ('A' for Active; 'I' for Inactive)
    1  A    between atoms: C_1  and  C_24
    2  A    between atoms: C_2  and  S_13
    3  A    between atoms: C_2  and  C_25
    4  A    between atoms: O_3  and  C_9
    5  A    between atoms: C_5  and  C_21
    6  A    between atoms: C_6  and  C_9
    7  A    between atoms: C_9  and  C_23
    8  A    between atoms: C_12  and  C_25
    9  A    between atoms: C_15  and  C_23
   10  A    between atoms: C_17  and  C_30
   11  A    between atoms: C_19  and  C_24
                            x       y       z     vdW  Elec       q    Type
                         _______ _______ _______ _____ _____    ______ ____

>  <TORSDO>
F 11

$$$$
=
 OpenBabel11052418003D

 31 34  0  0  1  0  0  0  0  0999 V2000
  188.7030  176.0430  145.3180 O   0  0  0  0  0  0  0  0  0  0  0  0
  188.6030  177.0380  146.3080 C   0  0  2  0  0  3  0  0  0  0  0  0
  191.0720  176.1060  145.8740 C   0  0  1  0  0  3  0  0  0  0  0  0
  190.7350  177.1220  146.7900 O   0  0  0  0  0  0  0  0  0  0  0  0
  190.0020  176.1080  144.7660 C   0  0  1  0  0  3  0  0  0  0  0  0
  189.5620  176.7830  147.3110 O   0  0  0  0  0  0  0  0  0  0  0  0
  190.2180  174.9680  143.7640 C   0  0  1  0  0  3  0  0  0  0  0  0
  189.6810  172.7210  144.7640 C   0  0  0  0  0  2  0  0  0  0  0  0
  190.7880  173.7140  144.4450 C   0  0  0  0  0  2  0  0  0  0  0  0
  188.9690  172.2680  143.4780 C   0  0  0  0  0  2  0  0  0  0  0  0
  189.9710  173.0790  141.4860 C   0  0  0  0  0  1  0  0  0  0  0  0
  188.9190  174.6690  142.9810 C   0  0  2  0  0  3  0  0  0  0  0  0
  188.8800  173.2990  142.4290 N   0  0  0  0  0  0  0  0  0  0  0  0
  188.6430  175.7060  141.8960 C   0  0  0  0  0  2  0  0  0  0  0  0
  187.3460  176.2030  142.0200 O   0  0  0  0  0  1  0  0  0  0  0  0
  192.4560  176.3730  145.2930 C   0  0  0  0  0  2  0  0  0  0  0  0
  193.5500  175.5920  146.0210 C   0  0  1  0  0  3  0  0  0  0  0  0
  194.3070  174.6750  145.0700 C   0  0  1  0  0  3  0  0  0  0  0  0
  195.5550  174.1490  145.7480 C   0  0  0  0  0  2  0  0  0  0  0  0
  194.3260  173.2700  145.6380 C   0  0  2  0  0  3  0  0  0  0  0  0
  194.5120  172.2840  144.5020 C   0  0  0  0  0  2  0  0  0  0  0  0
  193.4960  171.1640  144.6140 C   0  0  2  0  0  3  0  0  0  0  0  0
  193.7920  170.1110  143.6210 C   0  0  0  0  0  2  0  0  0  0  0  0
  192.7860  171.0690  143.4040 O   0  0  0  0  0  0  0  0  0  0  0  0
  194.4360  176.4700  146.6520 O   0  0  0  0  0  0  0  0  0  0  0  0
  194.5790  177.5380  145.7660 C   0  0  0  0  0  1  0  0  0  0  0  0
  187.2120  177.0030  146.9110 C   0  0  0  0  0  2  0  0  0  0  0  0
  186.1600  177.2690  145.8480 C   0  0  1  0  0  3  0  0  0  0  0  0
  185.0490  176.4810  146.0830 F   0  0  0  0  0  0  0  0  0  0  0  0
  185.6800  179.0200  145.8920 S   0  0  0  0  0  0  0  0  0  0  0  0
  185.7990  179.1790  144.0880 C   0  0  0  0  0  1  0  0  0  0  0  0
  1  2  1  0  0  0  0
  2 27  1  1  0  0  0
  2  6  1  0  0  0  0
  3 16  1  6  0  0  0
  3  4  1  0  0  0  0
  4  6  1  0  0  0  0
  5  1  1  1  0  0  0
  5  3  1  0  0  0  0
  7  9  1  1  0  0  0
  7  5  1  0  0  0  0
  9  8  1  0  0  0  0
 10  8  1  0  0  0  0
 11 13  1  0  0  0  0
 12 14  1  6  0  0  0
 12  7  1  0  0  0  0
 13 12  1  0  0  0  0
 13 10  1  0  0  0  0
 14 15  1  0  0  0  0
 17 16  1  6  0  0  0
 17 25  1  0  0  0  0
 18 20  1  0  0  0  0
 18 19  1  0  0  0  0
 18 17  1  1  0  0  0
 20 21  1  6  0  0  0
 20 19  1  0  0  0  0
 22 21  1  6  0  0  0
 23 22  1  0  0  0  0
 24 23  1  0  0  0  0
 24 22  1  0  0  0  0
 26 25  1  0  0  0  0
 28 30  1  0  0  0  0
 28 29  1  1  0  0  0
 28 27  1  0  0  0  0
 31 30  1  0  0  0  0
M  END
>  <MODEL>
8

>  <REMARK>
 VINA RESULT:      -5.5      3.019      6.795
  Name = 
  11 active torsions:
  status: ('A' for Active; 'I' for Inactive)
    1  A    between atoms: C_1  and  C_24
    2  A    between atoms: C_2  and  S_13
    3  A    between atoms: C_2  and  C_25
    4  A    between atoms: O_3  and  C_9
    5  A    between atoms: C_5  and  C_21
    6  A    between atoms: C_6  and  C_9
    7  A    between atoms: C_9  and  C_23
    8  A    between atoms: C_12  and  C_25
    9  A    between atoms: C_15  and  C_23
   10  A    between atoms: C_17  and  C_30
   11  A    between atoms: C_19  and  C_24
                            x       y       z     vdW  Elec       q    Type
                         _______ _______ _______ _____ _____    ______ ____

>  <TORSDO>
F 11

$$$$
=
 OpenBabel11052418003D

 31 34  0  0  1  0  0  0  0  0999 V2000
  191.5840  175.0400  144.6470 O   0  0  0  0  0  0  0  0  0  0  0  0
  191.5200  176.0510  145.6240 C   0  0  2  0  0  3  0  0  0  0  0  0
  190.5540  176.7250  143.2240 C   0  0  1  0  0  3  0  0  0  0  0  0
  190.5640  177.5580  144.3600 O   0  0  0  0  0  0  0  0  0  0  0  0
  190.5420  175.2670  143.7190 C   0  0  1  0  0  3  0  0  0  0  0  0
  191.6990  177.3030  145.0000 O   0  0  0  0  0  0  0  0  0  0  0  0
  190.6320  174.2700  142.5570 C   0  0  1  0  0  3  0  0  0  0  0  0
  193.0170  173.7350  141.9570 C   0  0  0  0  0  2  0  0  0  0  0  0
  191.8080  174.5930  141.6220 C   0  0  0  0  0  2  0  0  0  0  0  0
  192.6880  172.2410  141.7910 C   0  0  0  0  0  2  0  0  0  0  0  0
  190.5390  171.8260  140.8730 C   0  0  0  0  0  1  0  0  0  0  0  0
  190.6820  172.8170  143.0800 C   0  0  2  0  0  3  0  0  0  0  0  0
  191.2970  171.8790  142.1190 N   0  0  0  0  0  0  0  0  0  0  0  0
  189.3150  172.3170  143.5380 C   0  0  0  0  0  2  0  0  0  0  0  0
  189.3540  171.9700  144.8880 O   0  0  0  0  0  1  0  0  0  0  0  0
  189.3190  177.0210  142.3790 C   0  0  0  0  0  2  0  0  0  0  0  0
  188.0800  176.2840  142.8860 C   0  0  1  0  0  3  0  0  0  0  0  0
  187.1360  177.2230  143.6250 C   0  0  1  0  0  3  0  0  0  0  0  0
  185.9100  176.4610  144.0850 C   0  0  0  0  0  2  0  0  0  0  0  0
  187.0180  176.7780  145.0690 C   0  0  2  0  0  3  0  0  0  0  0  0
  186.6140  177.9680  145.9170 C   0  0  0  0  0  2  0  0  0  0  0  0
  185.4050  177.6170  146.7620 C   0  0  2  0  0  3  0  0  0  0  0  0
  184.3430  178.6270  146.5690 C   0  0  0  0  0  2  0  0  0  0  0  0
  185.1860  178.6480  147.6950 O   0  0  0  0  0  0  0  0  0  0  0  0
  187.4120  175.6670  141.8230 O   0  0  0  0  0  0  0  0  0  0  0  0
  187.4330  176.6050  140.7910 C   0  0  0  0  0  1  0  0  0  0  0  0
  192.6190  175.8270  146.6450 C   0  0  0  0  0  2  0  0  0  0  0  0
  193.8980  176.5230  146.2160 C   0  0  1  0  0  3  0  0  0  0  0  0
  194.3890  177.2830  147.2620 F   0  0  0  0  0  0  0  0  0  0  0  0
  195.1360  175.2830  145.7380 S   0  0  0  0  0  0  0  0  0  0  0  0
  195.2920  175.9680  144.0660 C   0  0  0  0  0  1  0  0  0  0  0  0
  1  2  1  0  0  0  0
  2 27  1  1  0  0  0
  3 16  1  1  0  0  0
  3  5  1  0  0  0  0
  3  4  1  0  0  0  0
  4  6  1  0  0  0  0
  5  1  1  1  0  0  0
  6  2  1  0  0  0  0
  7  9  1  1  0  0  0
  7 12  1  0  0  0  0
  7  5  1  0  0  0  0
  9  8  1  0  0  0  0
 10  8  1  0  0  0  0
 10 13  1  0  0  0  0
 11 13  1  0  0  0  0
 12 14  1  6  0  0  0
 13 12  1  0  0  0  0
 14 15  1  0  0  0  0
 17 16  1  6  0  0  0
 18 17  1  6  0  0  0
 18 19  1  0  0  0  0
 18 20  1  0  0  0  0
 19 20  1  0  0  0  0
 20 21  1  1  0  0  0
 22 21  1  6  0  0  0
 22 24  1  0  0  0  0
 23 22  1  0  0  0  0
 23 24  1  0  0  0  0
 25 17  1  0  0  0  0
 26 25  1  0  0  0  0
 28 27  1  0  0  0  0
 28 29  1  1  0  0  0
 30 28  1  0  0  0  0
 31 30  1  0  0  0  0
M  END
>  <MODEL>
9

>  <REMARK>
 VINA RESULT:      -5.5      1.757      3.429
  Name = 
  11 active torsions:
  status: ('A' for Active; 'I' for Inactive)
    1  A    between atoms: C_1  and  C_24
    2  A    between atoms: C_2  and  S_13
    3  A    between atoms: C_2  and  C_25
    4  A    between atoms: O_3  and  C_9
    5  A    between atoms: C_5  and  C_21
    6  A    between atoms: C_6  and  C_9
    7  A    between atoms: C_9  and  C_23
    8  A    between atoms: C_12  and  C_25
    9  A    between atoms: C_15  and  C_23
   10  A    between atoms: C_17  and  C_30
   11  A    between atoms: C_19  and  C_24
                            x       y       z     vdW  Elec       q    Type
                         _______ _______ _______ _____ _____    ______ ____

>  <TORSDO>
F 11

$$$$
