=
 OpenBabel11052418193D

 27 31  0  0  1  0  0  0  0  0999 V2000
  188.2550  177.5430  145.0230 C   0  0  0  0  0  3  0  0  0  0  0  0
  187.5780  176.3710  142.9340 C   0  0  0  0  0  0  0  0  0  0  0  0
  189.1910  174.7690  144.0790 C   0  0  0  0  0  3  0  0  0  0  0  0
  188.5080  174.4280  139.4210 N   0  0  0  0  0  0  0  0  0  0  0  0
  190.1010  172.5960  139.1750 N   0  0  0  0  0  1  0  0  0  0  0  0
  186.9200  176.7790  141.7470 C   0  0  0  0  0  3  0  0  0  0  0  0
  189.5870  173.7150  141.2880 N   0  0  0  0  0  0  0  0  0  0  0  0
  191.0380  175.3860  147.1850 C   0  0  0  0  0  0  0  0  0  0  0  0
  190.4940  172.9470  142.1300 C   0  0  0  0  0  1  0  0  0  0  0  0
  192.0550  174.9090  147.6600 O   0  0  0  0  0  0  0  0  0  0  0  0
  188.7610  174.7230  141.6280 C   0  0  0  0  0  0  0  0  0  0  0  0
  187.2310  177.0090  144.1740 N   0  0  0  0  0  0  0  0  0  0  0  0
  189.4080  173.5660  139.9560 C   0  0  0  0  0  0  0  0  0  0  0  0
  188.1170  175.1430  140.4940 C   0  0  0  0  0  0  0  0  0  0  0  0
  189.3090  176.8530  145.4520 C   0  0  0  0  0  0  0  0  0  0  0  0
  188.5330  175.3210  142.8820 C   0  0  0  0  0  0  0  0  0  0  0  0
  190.1810  174.5660  146.2660 C   0  0  0  0  0  2  0  0  0  0  0  0
  187.1870  176.1710  140.5120 C   0  0  0  0  0  3  0  0  0  0  0  0
  190.6020  176.7610  147.5790 C   0  0  0  0  0  2  0  0  0  0  0  0
  190.2870  177.5740  146.3280 C   0  0  0  0  0  2  0  0  0  0  0  0
  189.5160  175.4010  145.2080 C   0  0  0  0  0  0  0  0  0  0  0  0
  183.9420  178.9920  145.7830 O   0  0  0  0  0  0  0  0  0  0  0  0
  185.8580  177.4790  144.3680 C   0  0  2  0  0  3  0  0  0  0  0  0
  185.7510  178.9940  144.1680 C   0  0  0  0  0  2  0  0  0  0  0  0
  184.3190  179.4230  144.4740 C   0  0  0  0  0  2  0  0  0  0  0  0
  184.4020  177.7870  146.3360 C   0  0  0  0  0  3  0  0  0  0  0  0
  185.3220  177.0530  145.7090 C   0  0  0  0  0  3  0  0  0  0  0  0
  1 15  2  0  0  0  0
  2 12  1  0  0  0  0
  3 21  2  0  0  0  0
  4 13  2  0  0  0  0
  4 14  1  0  0  0  0
  5 13  1  0  0  0  0
  6  2  2  0  0  0  0
  7 11  1  0  0  0  0
  7  9  1  0  0  0  0
  8 19  1  0  0  0  0
  8 10  2  0  0  0  0
 11 16  2  0  0  0  0
 12 23  1  0  0  0  0
 12  1  1  0  0  0  0
 13  7  1  0  0  0  0
 14 18  2  0  0  0  0
 14 11  1  0  0  0  0
 15 20  1  0  0  0  0
 16  2  1  0  0  0  0
 16  3  1  0  0  0  0
 17  8  1  0  0  0  0
 18  6  1  0  0  0  0
 20 19  1  0  0  0  0
 21 15  1  0  0  0  0
 21 17  1  0  0  0  0
 22 26  1  0  0  0  0
 23 24  1  1  0  0  0
 23 27  1  0  0  0  0
 24 25  1  0  0  0  0
 25 22  1  0  0  0  0
 27 26  2  0  0  0  0
M  END
>  <MODEL>
1

>  <REMARK>
 VINA RESULT:      -8.1      0.000      0.000
  Name = 
  1 active torsions:
  status: ('A' for Active; 'I' for Inactive)
    1  A    between atoms: C_9  and  N_15
                            x       y       z     vdW  Elec       q    Type
                         _______ _______ _______ _____ _____    ______ ____

>  <TORSDO>
F 1

$$$$
=
 OpenBabel11052418193D

 27 31  0  0  1  0  0  0  0  0999 V2000
  187.8740  175.9760  145.6200 C   0  0  0  0  0  3  0  0  0  0  0  0
  189.0030  175.0340  143.6130 C   0  0  0  0  0  0  0  0  0  0  0  0
  187.6800  177.0230  142.7340 C   0  0  0  0  0  3  0  0  0  0  0  0
  188.8900  173.5580  139.7670 N   0  0  0  0  0  0  0  0  0  0  0  0
  187.7780  174.6020  137.8630 N   0  0  0  0  0  1  0  0  0  0  0  0
  189.6710  173.8130  143.3420 C   0  0  0  0  0  3  0  0  0  0  0  0
  187.8120  175.5240  140.1280 N   0  0  0  0  0  0  0  0  0  0  0  0
  185.4360  179.1760  144.6760 C   0  0  0  0  0  0  0  0  0  0  0  0
  187.0180  176.7140  139.8560 C   0  0  0  0  0  1  0  0  0  0  0  0
  184.5080  179.9050  144.3700 O   0  0  0  0  0  0  0  0  0  0  0  0
  188.3550  175.1120  141.2890 C   0  0  0  0  0  0  0  0  0  0  0  0
  189.0720  175.5840  144.9390 N   0  0  0  0  0  0  0  0  0  0  0  0
  188.1550  174.5650  139.2370 C   0  0  0  0  0  0  0  0  0  0  0  0
  189.0010  173.9260  141.0590 C   0  0  0  0  0  0  0  0  0  0  0  0
  186.9610  176.8050  145.1170 C   0  0  0  0  0  0  0  0  0  0  0  0
  188.3160  175.7050  142.5660 C   0  0  0  0  0  0  0  0  0  0  0  0
  186.5430  178.9170  143.6960 C   0  0  0  0  0  2  0  0  0  0  0  0
  189.6720  173.2440  142.0610 C   0  0  0  0  0  3  0  0  0  0  0  0
  185.5130  178.6010  146.0550 C   0  0  0  0  0  2  0  0  0  0  0  0
  185.7640  177.1000  145.9680 C   0  0  0  0  0  2  0  0  0  0  0  0
  187.1090  177.5300  143.8280 C   0  0  0  0  0  0  0  0  0  0  0  0
  192.3340  176.2990  147.4260 O   0  0  0  0  0  0  0  0  0  0  0  0
  190.2790  175.3580  145.7360 C   0  0  2  0  0  3  0  0  0  0  0  0
  190.0200  175.6000  147.2260 C   0  0  0  0  0  2  0  0  0  0  0  0
  191.3360  175.4370  147.9790 C   0  0  0  0  0  2  0  0  0  0  0  0
  192.3900  176.5950  146.0560 C   0  0  0  0  0  3  0  0  0  0  0  0
  191.4280  176.1870  145.2270 C   0  0  0  0  0  3  0  0  0  0  0  0
  2 12  1  0  0  0  0
  3 21  2  0  0  0  0
  4 14  1  0  0  0  0
  5 13  1  0  0  0  0
  6  2  1  0  0  0  0
  7 11  1  0  0  0  0
  8 19  1  0  0  0  0
  9  7  1  0  0  0  0
 10  8  2  0  0  0  0
 11 16  1  0  0  0  0
 12  1  1  0  0  0  0
 13  4  2  0  0  0  0
 13  7  1  0  0  0  0
 14 11  2  0  0  0  0
 14 18  1  0  0  0  0
 15  1  2  0  0  0  0
 15 20  1  0  0  0  0
 16  3  1  0  0  0  0
 16  2  2  0  0  0  0
 17 21  1  0  0  0  0
 17  8  1  0  0  0  0
 18  6  2  0  0  0  0
 20 19  1  0  0  0  0
 21 15  1  0  0  0  0
 22 25  1  0  0  0  0
 23 12  1  6  0  0  0
 23 24  1  0  0  0  0
 24 25  1  0  0  0  0
 26 22  1  0  0  0  0
 27 23  1  0  0  0  0
 27 26  2  0  0  0  0
M  END
>  <MODEL>
2

>  <REMARK>
 VINA RESULT:      -8.0      1.320      5.079
  Name = 
  1 active torsions:
  status: ('A' for Active; 'I' for Inactive)
    1  A    between atoms: C_9  and  N_15
                            x       y       z     vdW  Elec       q    Type
                         _______ _______ _______ _____ _____    ______ ____

>  <TORSDO>
F 1

$$$$
=
 OpenBabel11052418193D

 27 31  0  0  1  0  0  0  0  0999 V2000
  188.5990  176.8950  143.5350 C   0  0  0  0  0  3  0  0  0  0  0  0
  188.4180  175.0030  141.9280 C   0  0  0  0  0  0  0  0  0  0  0  0
  189.4140  173.9710  144.0320 C   0  0  0  0  0  3  0  0  0  0  0  0
  190.0810  171.8420  139.8730 N   0  0  0  0  0  0  0  0  0  0  0  0
  191.4350  170.0580  140.8390 N   0  0  0  0  0  1  0  0  0  0  0  0
  188.1910  174.9160  140.5320 C   0  0  0  0  0  3  0  0  0  0  0  0
  190.4720  171.9120  142.1090 N   0  0  0  0  0  0  0  0  0  0  0  0
  190.3390  175.7480  147.1030 C   0  0  0  0  0  0  0  0  0  0  0  0
  190.9920  171.5320  143.4150 C   0  0  0  0  0  1  0  0  0  0  0  0
  191.1050  175.4920  148.0160 O   0  0  0  0  0  0  0  0  0  0  0  0
  189.7160  172.9740  141.7710 C   0  0  0  0  0  0  0  0  0  0  0  0
  187.8080  176.0740  142.6660 N   0  0  0  0  0  0  0  0  0  0  0  0
  190.6720  171.2560  140.9430 C   0  0  0  0  0  0  0  0  0  0  0  0
  189.4880  172.9200  140.4220 C   0  0  0  0  0  0  0  0  0  0  0  0
  189.3880  176.4250  144.4990 C   0  0  0  0  0  0  0  0  0  0  0  0
  189.2080  174.0140  142.5730 C   0  0  0  0  0  0  0  0  0  0  0  0
  189.6910  174.6350  146.3310 C   0  0  0  0  0  2  0  0  0  0  0  0
  188.7290  173.8750  139.7630 C   0  0  0  0  0  3  0  0  0  0  0  0
  189.9820  177.1680  146.8000 C   0  0  0  0  0  2  0  0  0  0  0  0
  190.1490  177.4300  145.3080 C   0  0  0  0  0  2  0  0  0  0  0  0
  189.4730  174.9930  144.8870 C   0  0  0  0  0  0  0  0  0  0  0  0
  184.5750  178.6360  142.1020 O   0  0  0  0  0  0  0  0  0  0  0  0
  186.5090  176.5850  142.2260 C   0  0  2  0  0  3  0  0  0  0  0  0
  186.6670  177.7540  141.2500 C   0  0  0  0  0  2  0  0  0  0  0  0
  185.2800  178.2910  140.9070 C   0  0  0  0  0  2  0  0  0  0  0  0
  184.7260  177.9160  143.2960 C   0  0  0  0  0  3  0  0  0  0  0  0
  185.6430  176.9520  143.4020 C   0  0  0  0  0  3  0  0  0  0  0  0
  1 15  2  0  0  0  0
  2 16  1  0  0  0  0
  2 12  1  0  0  0  0
  3 21  2  0  0  0  0
  4 14  1  0  0  0  0
  4 13  2  0  0  0  0
  5 13  1  0  0  0  0
  6  2  2  0  0  0  0
  7  9  1  0  0  0  0
  8 10  2  0  0  0  0
 11  7  1  0  0  0  0
 11 16  2  0  0  0  0
 12  1  1  0  0  0  0
 13  7  1  0  0  0  0
 14 11  1  0  0  0  0
 15 21  1  0  0  0  0
 15 20  1  0  0  0  0
 16  3  1  0  0  0  0
 17  8  1  0  0  0  0
 18 14  2  0  0  0  0
 18  6  1  0  0  0  0
 19  8  1  0  0  0  0
 20 19  1  0  0  0  0
 21 17  1  0  0  0  0
 22 26  1  0  0  0  0
 23 24  1  6  0  0  0
 23 12  1  0  0  0  0
 23 27  1  0  0  0  0
 25 24  1  0  0  0  0
 25 22  1  0  0  0  0
 26 27  2  0  0  0  0
M  END
>  <MODEL>
3

>  <REMARK>
 VINA RESULT:      -7.7      1.628      2.290
  Name = 
  1 active torsions:
  status: ('A' for Active; 'I' for Inactive)
    1  A    between atoms: C_9  and  N_15
                            x       y       z     vdW  Elec       q    Type
                         _______ _______ _______ _____ _____    ______ ____

>  <TORSDO>
F 1

$$$$
=
 OpenBabel11052418193D

 27 31  0  0  1  0  0  0  0  0999 V2000
  189.2870  177.2360  145.1180 C   0  0  0  0  0  3  0  0  0  0  0  0
  187.6520  177.2450  143.2410 C   0  0  0  0  0  0  0  0  0  0  0  0
  188.8750  175.0230  143.0230 C   0  0  0  0  0  3  0  0  0  0  0  0
  186.7530  176.8780  139.2370 N   0  0  0  0  0  0  0  0  0  0  0  0
  187.4610  175.0620  137.7700 N   0  0  0  0  0  1  0  0  0  0  0  0
  186.8530  178.2480  142.6380 C   0  0  0  0  0  3  0  0  0  0  0  0
  188.0250  175.2290  140.1430 N   0  0  0  0  0  0  0  0  0  0  0  0
  191.6620  173.8540  145.0980 C   0  0  0  0  0  0  0  0  0  0  0  0
  188.8180  174.0110  140.2310 C   0  0  0  0  0  1  0  0  0  0  0  0
  192.5430  173.0300  144.9250 O   0  0  0  0  0  0  0  0  0  0  0  0
  187.7420  176.1300  141.1030 C   0  0  0  0  0  0  0  0  0  0  0  0
  187.9370  177.3360  144.6470 N   0  0  0  0  0  0  0  0  0  0  0  0
  187.4150  175.7130  139.0370 C   0  0  0  0  0  0  0  0  0  0  0  0
  186.9760  177.1190  140.5440 C   0  0  0  0  0  0  0  0  0  0  0  0
  190.1140  176.2360  144.8210 C   0  0  0  0  0  0  0  0  0  0  0  0
  188.1220  176.1570  142.4580 C   0  0  0  0  0  0  0  0  0  0  0  0
  190.3400  173.7000  144.4040 C   0  0  0  0  0  2  0  0  0  0  0  0
  186.5100  178.1970  141.2800 C   0  0  0  0  0  3  0  0  0  0  0  0
  191.8680  174.9790  146.0630 C   0  0  0  0  0  2  0  0  0  0  0  0
  191.4950  176.2980  145.3970 C   0  0  0  0  0  2  0  0  0  0  0  0
  189.7210  175.0250  144.0530 C   0  0  0  0  0  0  0  0  0  0  0  0
  185.1580  177.7700  147.7170 O   0  0  0  0  0  0  0  0  0  0  0  0
  186.9380  177.9350  145.5330 C   0  0  2  0  0  3  0  0  0  0  0  0
  187.4510  178.0310  146.9730 C   0  0  0  0  0  2  0  0  0  0  0  0
  186.3300  178.5770  147.8520 C   0  0  0  0  0  2  0  0  0  0  0  0
  184.8070  177.1570  146.5050 C   0  0  0  0  0  3  0  0  0  0  0  0
  185.6300  177.1940  145.4550 C   0  0  0  0  0  3  0  0  0  0  0  0
  2 12  1  0  0  0  0
  3 21  2  0  0  0  0
  4 14  1  0  0  0  0
  5 13  1  0  0  0  0
  6  2  1  0  0  0  0
  7  9  1  0  0  0  0
  7 11  1  0  0  0  0
  8 19  1  0  0  0  0
 10  8  2  0  0  0  0
 11 16  1  0  0  0  0
 12  1  1  0  0  0  0
 13  4  2  0  0  0  0
 13  7  1  0  0  0  0
 14 11  2  0  0  0  0
 14 18  1  0  0  0  0
 15  1  2  0  0  0  0
 15 20  1  0  0  0  0
 16  3  1  0  0  0  0
 16  2  2  0  0  0  0
 17  8  1  0  0  0  0
 18  6  2  0  0  0  0
 20 19  1  0  0  0  0
 21 17  1  0  0  0  0
 21 15  1  0  0  0  0
 22 25  1  0  0  0  0
 23 12  1  6  0  0  0
 23 24  1  0  0  0  0
 24 25  1  0  0  0  0
 26 22  1  0  0  0  0
 27 23  1  0  0  0  0
 27 26  2  0  0  0  0
M  END
>  <MODEL>
4

>  <REMARK>
 VINA RESULT:      -7.4      1.739      2.306
  Name = 
  1 active torsions:
  status: ('A' for Active; 'I' for Inactive)
    1  A    between atoms: C_9  and  N_15
                            x       y       z     vdW  Elec       q    Type
                         _______ _______ _______ _____ _____    ______ ____

>  <TORSDO>
F 1

$$$$
=
 OpenBabel11052418193D

 27 31  0  0  1  0  0  0  0  0999 V2000
  187.5380  174.9770  142.3730 C   0  0  0  0  0  3  0  0  0  0  0  0
  188.8920  176.3500  143.9460 C   0  0  0  0  0  0  0  0  0  0  0  0
  190.6060  175.1520  142.4950 C   0  0  0  0  0  3  0  0  0  0  0  0
  191.8790  176.7210  146.7610 N   0  0  0  0  0  0  0  0  0  0  0  0
  194.1530  175.8600  146.5580 N   0  0  0  0  0  1  0  0  0  0  0  0
  188.6000  177.0430  145.1470 C   0  0  0  0  0  3  0  0  0  0  0  0
  192.4180  175.6100  144.8540 N   0  0  0  0  0  0  0  0  0  0  0  0
  189.9020  172.6840  139.8760 C   0  0  0  0  0  0  0  0  0  0  0  0
  193.2110  174.8590  143.8910 C   0  0  0  0  0  1  0  0  0  0  0  0
  190.5670  171.8050  139.3580 O   0  0  0  0  0  0  0  0  0  0  0  0
  191.1310  176.0000  144.7750 C   0  0  0  0  0  0  0  0  0  0  0  0
  187.8740  176.2510  142.9370 N   0  0  0  0  0  0  0  0  0  0  0  0
  192.8330  176.0610  146.0600 C   0  0  0  0  0  0  0  0  0  0  0  0
  190.8190  176.6680  145.9300 C   0  0  0  0  0  0  0  0  0  0  0  0
  188.4200  174.1370  141.8360 C   0  0  0  0  0  0  0  0  0  0  0  0
  190.1880  175.8020  143.7490 C   0  0  0  0  0  0  0  0  0  0  0  0
  190.5720  173.9060  140.4330 C   0  0  0  0  0  2  0  0  0  0  0  0
  189.5620  177.2050  146.1550 C   0  0  0  0  0  3  0  0  0  0  0  0
  188.4090  172.5860  139.8880 C   0  0  0  0  0  2  0  0  0  0  0  0
  187.8920  172.8430  141.2980 C   0  0  0  0  0  2  0  0  0  0  0  0
  189.8610  174.4490  141.6410 C   0  0  0  0  0  0  0  0  0  0  0  0
  184.5190  178.4090  141.7420 O   0  0  0  0  0  0  0  0  0  0  0  0
  186.9140  177.3460  142.7910 C   0  0  2  0  0  3  0  0  0  0  0  0
  185.5600  176.9920  143.4130 C   0  0  0  0  0  2  0  0  0  0  0  0
  184.5890  178.1380  143.1440 C   0  0  0  0  0  2  0  0  0  0  0  0
  185.6320  178.2760  140.8980 C   0  0  0  0  0  3  0  0  0  0  0  0
  186.7760  177.7590  141.3500 C   0  0  0  0  0  3  0  0  0  0  0  0
  1 12  1  0  0  0  0
  2  6  1  0  0  0  0
  3 16  1  0  0  0  0
  6 18  2  0  0  0  0
  7 13  1  0  0  0  0
  8 19  1  0  0  0  0
  8 17  1  0  0  0  0
  9  7  1  0  0  0  0
 10  8  2  0  0  0  0
 11  7  1  0  0  0  0
 11 14  2  0  0  0  0
 12  2  1  0  0  0  0
 13  5  1  0  0  0  0
 13  4  2  0  0  0  0
 14 18  1  0  0  0  0
 14  4  1  0  0  0  0
 15  1  2  0  0  0  0
 16  2  2  0  0  0  0
 16 11  1  0  0  0  0
 17 21  1  0  0  0  0
 19 20  1  0  0  0  0
 20 15  1  0  0  0  0
 21 15  1  0  0  0  0
 21  3  2  0  0  0  0
 22 25  1  0  0  0  0
 23 27  1  6  0  0  0
 23 12  1  0  0  0  0
 23 24  1  0  0  0  0
 25 24  1  0  0  0  0
 26 27  2  0  0  0  0
 26 22  1  0  0  0  0
M  END
>  <MODEL>
5

>  <REMARK>
 VINA RESULT:      -7.4      3.123      5.483
  Name = 
  1 active torsions:
  status: ('A' for Active; 'I' for Inactive)
    1  A    between atoms: C_9  and  N_15
                            x       y       z     vdW  Elec       q    Type
                         _______ _______ _______ _____ _____    ______ ____

>  <TORSDO>
F 1

$$$$
=
 OpenBabel11052418193D

 27 31  0  0  1  0  0  0  0  0999 V2000
  187.5710  175.9520  144.1140 C   0  0  0  0  0  3  0  0  0  0  0  0
  189.1760  174.3650  143.0650 C   0  0  0  0  0  0  0  0  0  0  0  0
  188.1910  175.6710  141.1150 C   0  0  0  0  0  3  0  0  0  0  0  0
  190.0660  171.4110  140.3340 N   0  0  0  0  0  0  0  0  0  0  0  0
  189.5370  171.4540  137.9530 N   0  0  0  0  0  1  0  0  0  0  0  0
  189.8600  173.2110  143.5230 C   0  0  0  0  0  3  0  0  0  0  0  0
  188.9840  173.2380  139.5300 N   0  0  0  0  0  0  0  0  0  0  0  0
  185.5640  178.2210  141.3040 C   0  0  0  0  0  0  0  0  0  0  0  0
  188.3240  174.1250  138.5830 C   0  0  0  0  0  1  0  0  0  0  0  0
  184.7730  178.6660  140.4900 O   0  0  0  0  0  0  0  0  0  0  0  0
  189.1810  173.4020  140.8520 C   0  0  0  0  0  0  0  0  0  0  0  0
  188.8980  175.4240  143.9970 N   0  0  0  0  0  0  0  0  0  0  0  0
  189.5290  172.0310  139.2560 C   0  0  0  0  0  0  0  0  0  0  0  0
  189.8340  172.2940  141.3240 C   0  0  0  0  0  0  0  0  0  0  0  0
  186.8510  176.4060  143.0910 C   0  0  0  0  0  0  0  0  0  0  0  0
  188.8150  174.4690  141.6950 C   0  0  0  0  0  0  0  0  0  0  0  0
  186.8870  177.6800  140.8480 C   0  0  0  0  0  2  0  0  0  0  0  0
  190.1910  172.1600  142.6560 C   0  0  0  0  0  3  0  0  0  0  0  0
  185.2510  178.2860  142.7650 C   0  0  0  0  0  2  0  0  0  0  0  0
  185.4770  176.9180  143.3970 C   0  0  0  0  0  2  0  0  0  0  0  0
  187.3610  176.5340  141.7000 C   0  0  0  0  0  0  0  0  0  0  0  0
  190.4420  176.7090  147.6440 O   0  0  0  0  0  0  0  0  0  0  0  0
  189.8390  175.6660  145.0920 C   0  0  2  0  0  3  0  0  0  0  0  0
  189.4230  174.9200  146.3630 C   0  0  0  0  0  2  0  0  0  0  0  0
  190.3920  175.2900  147.4820 C   0  0  0  0  0  2  0  0  0  0  0  0
  190.3180  177.5910  146.5590 C   0  0  0  0  0  3  0  0  0  0  0  0
  190.0140  177.1400  145.3410 C   0  0  0  0  0  3  0  0  0  0  0  0
  2  6  1  0  0  0  0
  2 12  1  0  0  0  0
  3 16  1  0  0  0  0
  3 21  2  0  0  0  0
  4 14  1  0  0  0  0
  5 13  1  0  0  0  0
  7 11  1  0  0  0  0
  8 19  1  0  0  0  0
  9  7  1  0  0  0  0
 10  8  2  0  0  0  0
 11 14  2  0  0  0  0
 11 16  1  0  0  0  0
 12  1  1  0  0  0  0
 13  7  1  0  0  0  0
 13  4  2  0  0  0  0
 14 18  1  0  0  0  0
 15 20  1  0  0  0  0
 15  1  2  0  0  0  0
 16  2  2  0  0  0  0
 17  8  1  0  0  0  0
 17 21  1  0  0  0  0
 18  6  2  0  0  0  0
 19 20  1  0  0  0  0
 21 15  1  0  0  0  0
 23 12  1  6  0  0  0
 23 27  1  0  0  0  0
 23 24  1  0  0  0  0
 24 25  1  0  0  0  0
 25 22  1  0  0  0  0
 26 22  1  0  0  0  0
 27 26  2  0  0  0  0
M  END
>  <MODEL>
6

>  <REMARK>
 VINA RESULT:      -7.4      1.795      5.167
  Name = 
  1 active torsions:
  status: ('A' for Active; 'I' for Inactive)
    1  A    between atoms: C_9  and  N_15
                            x       y       z     vdW  Elec       q    Type
                         _______ _______ _______ _____ _____    ______ ____

>  <TORSDO>
F 1

$$$$
=
 OpenBabel11052418193D

 27 31  0  0  1  0  0  0  0  0999 V2000
  187.7370  176.7580  141.5150 C   0  0  0  0  0  3  0  0  0  0  0  0
  189.5440  175.9020  142.9970 C   0  0  0  0  0  0  0  0  0  0  0  0
  187.7060  176.6550  144.5890 C   0  0  0  0  0  3  0  0  0  0  0  0
  192.1500  176.3760  146.1540 N   0  0  0  0  0  0  0  0  0  0  0  0
  191.5660  177.1650  148.3880 N   0  0  0  0  0  1  0  0  0  0  0  0
  190.9090  175.5760  142.7970 C   0  0  0  0  0  3  0  0  0  0  0  0
  189.9770  176.9030  146.5490 N   0  0  0  0  0  0  0  0  0  0  0  0
  184.5460  178.2680  143.6640 C   0  0  0  0  0  0  0  0  0  0  0  0
  188.7910  177.3570  147.2630 C   0  0  0  0  0  1  0  0  0  0  0  0
  183.7590  178.9710  144.2730 O   0  0  0  0  0  0  0  0  0  0  0  0
  190.0940  176.4950  145.2710 C   0  0  0  0  0  0  0  0  0  0  0  0
  188.6160  175.7000  141.9190 N   0  0  0  0  0  0  0  0  0  0  0  0
  191.2310  176.8190  147.0470 C   0  0  0  0  0  0  0  0  0  0  0  0
  191.4080  176.1800  145.0460 C   0  0  0  0  0  0  0  0  0  0  0  0
  186.9280  177.4190  142.3410 C   0  0  0  0  0  0  0  0  0  0  0  0
  189.1170  176.3840  144.2640 C   0  0  0  0  0  0  0  0  0  0  0  0
  185.3820  177.2620  144.4000 C   0  0  0  0  0  2  0  0  0  0  0  0
  191.8570  175.7170  143.8200 C   0  0  0  0  0  3  0  0  0  0  0  0
  184.6260  178.3520  142.1720 C   0  0  0  0  0  2  0  0  0  0  0  0
  186.0820  178.5020  141.7470 C   0  0  0  0  0  2  0  0  0  0  0  0
  186.7380  177.0790  143.7760 C   0  0  0  0  0  0  0  0  0  0  0  0
  187.9030  172.4720  139.3880 O   0  0  0  0  0  0  0  0  0  0  0  0
  188.8480  174.5990  140.9830 C   0  0  2  0  0  3  0  0  0  0  0  0
  188.1910  174.8680  139.6260 C   0  0  0  0  0  2  0  0  0  0  0  0
  188.3970  173.6450  138.7370 C   0  0  0  0  0  2  0  0  0  0  0  0
  187.9810  172.2980  140.7780 C   0  0  0  0  0  3  0  0  0  0  0  0
  188.4030  173.2860  141.5690 C   0  0  0  0  0  3  0  0  0  0  0  0
  1 12  1  0  0  0  0
  1 15  2  0  0  0  0
  2 16  1  0  0  0  0
  4 13  2  0  0  0  0
  6  2  2  0  0  0  0
  6 18  1  0  0  0  0
  7 13  1  0  0  0  0
  7  9  1  0  0  0  0
  8 10  2  0  0  0  0
  8 17  1  0  0  0  0
 11  7  1  0  0  0  0
 12  2  1  0  0  0  0
 13  5  1  0  0  0  0
 14 11  1  0  0  0  0
 14  4  1  0  0  0  0
 15 21  1  0  0  0  0
 16  3  1  0  0  0  0
 16 11  2  0  0  0  0
 18 14  2  0  0  0  0
 19  8  1  0  0  0  0
 20 19  1  0  0  0  0
 20 15  1  0  0  0  0
 21 17  1  0  0  0  0
 21  3  2  0  0  0  0
 22 26  1  0  0  0  0
 23 24  1  6  0  0  0
 23 27  1  0  0  0  0
 23 12  1  0  0  0  0
 25 22  1  0  0  0  0
 25 24  1  0  0  0  0
 26 27  2  0  0  0  0
M  END
>  <MODEL>
7

>  <REMARK>
 VINA RESULT:      -7.3      2.907      6.545
  Name = 
  1 active torsions:
  status: ('A' for Active; 'I' for Inactive)
    1  A    between atoms: C_9  and  N_15
                            x       y       z     vdW  Elec       q    Type
                         _______ _______ _______ _____ _____    ______ ____

>  <TORSDO>
F 1

$$$$
=
 OpenBabel11052418193D

 27 31  0  0  1  0  0  0  0  0999 V2000
  187.0970  176.7210  143.2820 C   0  0  0  0  0  3  0  0  0  0  0  0
  189.4270  175.8580  143.4320 C   0  0  0  0  0  0  0  0  0  0  0  0
  188.7520  176.3150  145.8430 C   0  0  0  0  0  3  0  0  0  0  0  0
  193.3310  176.2090  144.7040 N   0  0  0  0  0  0  0  0  0  0  0  0
  194.0570  176.7300  146.9740 N   0  0  0  0  0  1  0  0  0  0  0  0
  190.4630  175.6540  142.4860 C   0  0  0  0  0  3  0  0  0  0  0  0
  191.7220  176.5350  146.2740 N   0  0  0  0  0  0  0  0  0  0  0  0
  185.5880  177.7760  146.9810 C   0  0  0  0  0  0  0  0  0  0  0  0
  191.1160  176.8290  147.5650 C   0  0  0  0  0  1  0  0  0  0  0  0
  185.2560  178.3570  148.0000 O   0  0  0  0  0  0  0  0  0  0  0  0
  191.1260  176.2630  145.0970 C   0  0  0  0  0  0  0  0  0  0  0  0
  188.0620  175.6960  143.0130 N   0  0  0  0  0  0  0  0  0  0  0  0
  193.0460  176.4940  145.9980 C   0  0  0  0  0  0  0  0  0  0  0  0
  192.1060  176.0690  144.1600 C   0  0  0  0  0  0  0  0  0  0  0  0
  186.8670  177.2370  144.4880 C   0  0  0  0  0  0  0  0  0  0  0  0
  189.7580  176.1810  144.7750 C   0  0  0  0  0  0  0  0  0  0  0  0
  186.6970  176.7670  147.0180 C   0  0  0  0  0  2  0  0  0  0  0  0
  191.8150  175.7620  142.8400 C   0  0  0  0  0  3  0  0  0  0  0  0
  184.8390  178.0120  145.7080 C   0  0  0  0  0  2  0  0  0  0  0  0
  185.8240  178.3080  144.5840 C   0  0  0  0  0  2  0  0  0  0  0  0
  187.4930  176.7450  145.7430 C   0  0  0  0  0  0  0  0  0  0  0  0
  188.5410  173.0600  139.8260 O   0  0  0  0  0  0  0  0  0  0  0  0
  187.7540  174.7120  141.9740 C   0  0  2  0  0  3  0  0  0  0  0  0
  188.4740  173.3840  142.2280 C   0  0  0  0  0  2  0  0  0  0  0  0
  188.1800  172.4430  141.0630 C   0  0  0  0  0  2  0  0  0  0  0  0
  188.4050  174.4390  139.6090 C   0  0  0  0  0  3  0  0  0  0  0  0
  188.0550  175.2570  140.6030 C   0  0  0  0  0  3  0  0  0  0  0  0
  1 15  2  0  0  0  0
  2 16  1  0  0  0  0
  4 13  2  0  0  0  0
  6 18  1  0  0  0  0
  6  2  2  0  0  0  0
  7  9  1  0  0  0  0
  8 17  1  0  0  0  0
  8 10  2  0  0  0  0
 11  7  1  0  0  0  0
 12  1  1  0  0  0  0
 12  2  1  0  0  0  0
 13  7  1  0  0  0  0
 13  5  1  0  0  0  0
 14  4  1  0  0  0  0
 14 11  1  0  0  0  0
 15 20  1  0  0  0  0
 15 21  1  0  0  0  0
 16 11  2  0  0  0  0
 16  3  1  0  0  0  0
 18 14  2  0  0  0  0
 19  8  1  0  0  0  0
 20 19  1  0  0  0  0
 21  3  2  0  0  0  0
 21 17  1  0  0  0  0
 22 25  1  0  0  0  0
 23 27  1  6  0  0  0
 23 24  1  0  0  0  0
 23 12  1  0  0  0  0
 25 24  1  0  0  0  0
 26 22  1  0  0  0  0
 26 27  2  0  0  0  0
M  END
>  <MODEL>
8

>  <REMARK>
 VINA RESULT:      -7.2      3.061      5.858
  Name = 
  1 active torsions:
  status: ('A' for Active; 'I' for Inactive)
    1  A    between atoms: C_9  and  N_15
                            x       y       z     vdW  Elec       q    Type
                         _______ _______ _______ _____ _____    ______ ____

>  <TORSDO>
F 1

$$$$
=
 OpenBabel11052418193D

 27 31  0  0  1  0  0  0  0  0999 V2000
  190.7040  176.5850  144.4850 C   0  0  0  0  0  3  0  0  0  0  0  0
  189.5450  174.8330  143.1500 C   0  0  0  0  0  0  0  0  0  0  0  0
  191.6230  173.6800  144.0620 C   0  0  0  0  0  3  0  0  0  0  0  0
  189.5380  171.9660  140.1900 N   0  0  0  0  0  0  0  0  0  0  0  0
  191.1820  170.1840  139.9170 N   0  0  0  0  0  1  0  0  0  0  0  0
  188.4980  174.8560  142.1950 C   0  0  0  0  0  3  0  0  0  0  0  0
  191.2360  171.8610  141.6950 N   0  0  0  0  0  0  0  0  0  0  0  0
  194.2750  175.2310  146.0640 C   0  0  0  0  0  0  0  0  0  0  0  0
  192.4510  171.3990  142.3500 C   0  0  0  0  0  1  0  0  0  0  0  0
  195.4400  174.9410  146.2730 O   0  0  0  0  0  0  0  0  0  0  0  0
  190.4440  172.9040  142.0120 C   0  0  0  0  0  0  0  0  0  0  0  0
  189.5360  175.7990  144.2140 N   0  0  0  0  0  0  0  0  0  0  0  0
  190.6600  171.3230  140.5960 C   0  0  0  0  0  0  0  0  0  0  0  0
  189.4250  172.9560  141.0980 C   0  0  0  0  0  0  0  0  0  0  0  0
  191.9160  176.0780  144.6980 C   0  0  0  0  0  0  0  0  0  0  0  0
  190.5550  173.8380  143.0590 C   0  0  0  0  0  0  0  0  0  0  0  0
  193.2770  174.1550  145.7490 C   0  0  0  0  0  2  0  0  0  0  0  0
  188.4300  173.9190  141.1550 C   0  0  0  0  0  3  0  0  0  0  0  0
  193.8200  176.6500  146.1980 C   0  0  0  0  0  2  0  0  0  0  0  0
  193.0260  177.0500  144.9610 C   0  0  0  0  0  2  0  0  0  0  0  0
  192.2110  174.6240  144.7980 C   0  0  0  0  0  0  0  0  0  0  0  0
  186.7290  177.9760  146.3850 O   0  0  0  0  0  0  0  0  0  0  0  0
  188.2500  176.2700  144.7300 C   0  0  2  0  0  3  0  0  0  0  0  0
  187.9820  177.7230  144.3250 C   0  0  0  0  0  2  0  0  0  0  0  0
  186.6750  178.1730  144.9710 C   0  0  0  0  0  2  0  0  0  0  0  0
  187.4140  176.8980  146.9650 C   0  0  0  0  0  3  0  0  0  0  0  0
  188.1610  176.0810  146.2210 C   0  0  0  0  0  3  0  0  0  0  0  0
  1 15  2  0  0  0  0
  2 12  1  0  0  0  0
  3 21  2  0  0  0  0
  4 13  2  0  0  0  0
  4 14  1  0  0  0  0
  5 13  1  0  0  0  0
  6  2  2  0  0  0  0
  7 11  1  0  0  0  0
  7  9  1  0  0  0  0
  8 19  1  0  0  0  0
  8 10  2  0  0  0  0
 11 16  2  0  0  0  0
 12  1  1  0  0  0  0
 13  7  1  0  0  0  0
 14 18  2  0  0  0  0
 14 11  1  0  0  0  0
 15 21  1  0  0  0  0
 15 20  1  0  0  0  0
 16  2  1  0  0  0  0
 16  3  1  0  0  0  0
 17  8  1  0  0  0  0
 18  6  1  0  0  0  0
 20 19  1  0  0  0  0
 21 17  1  0  0  0  0
 22 26  1  0  0  0  0
 23 12  1  1  0  0  0
 23 27  1  0  0  0  0
 24 23  1  0  0  0  0
 24 25  1  0  0  0  0
 25 22  1  0  0  0  0
 27 26  2  0  0  0  0
M  END
>  <MODEL>
9

>  <REMARK>
 VINA RESULT:      -7.1      2.234      2.843
  Name = 
  1 active torsions:
  status: ('A' for Active; 'I' for Inactive)
    1  A    between atoms: C_9  and  N_15
                            x       y       z     vdW  Elec       q    Type
                         _______ _______ _______ _____ _____    ______ ____

>  <TORSDO>
F 1

$$$$
