=
 OpenBabel11052420113D

 37 40  0  0  1  0  0  0  0  0999 V2000
  193.0100  173.8970  145.5870 C   0  0  2  0  0  3  0  0  0  0  0  0
  194.6800  172.4680  142.6680 C   0  0  0  0  0  1  0  0  0  0  0  0
  191.5570  176.1150  145.7690 C   0  0  2  0  0  3  0  0  0  0  0  0
  192.9740  172.9760  144.3970 C   0  0  2  0  0  3  0  0  0  0  0  0
  191.6230  174.5780  145.6050 C   0  0  1  0  0  3  0  0  0  0  0  0
  193.8690  173.5900  143.2950 C   0  0  1  0  0  0  0  0  0  0  0  0
  192.7590  176.7980  145.1220 C   0  0  0  0  0  2  0  0  0  0  0  0
  190.7340  173.9760  144.5850 N   0  0  2  0  0  0  0  0  0  0  0  0
  195.1260  177.0330  145.3420 O   0  0  0  0  0  1  0  0  0  0  0  0
  194.0360  176.2650  145.7470 C   0  0  2  0  0  3  0  0  0  0  0  0
  194.2450  174.7830  145.4120 C   0  0  2  0  0  3  0  0  0  0  0  0
  191.4790  172.7900  144.1200 C   0  0  1  0  0  3  0  0  0  0  0  0
  194.8110  174.5340  144.0210 C   0  0  0  0  0  2  0  0  0  0  0  0
  190.1240  177.4030  147.3830 C   0  0  0  0  0  1  0  0  0  0  0  0
  191.3690  176.5370  147.2330 C   0  0  0  0  0  3  0  0  0  0  0  0
  191.2110  175.3260  148.1380 C   0  0  0  0  0  1  0  0  0  0  0  0
  189.5710  175.9180  143.9230 O   0  0  0  0  0  0  0  0  0  0  0  0
  188.9880  174.8830  143.1740 C   0  0  2  0  0  3  0  0  0  0  0  0
  190.4450  174.8980  143.4790 C   0  0  2  0  0  3  0  0  0  0  0  0
  188.6650  175.3450  141.7370 C   0  0  1  0  0  3  0  0  0  0  0  0
  188.5570  174.1280  140.8190 C   0  0  0  0  0  1  0  0  0  0  0  0
  187.5020  176.3400  141.5510 C   0  0  2  0  0  3  0  0  0  0  0  0
  187.9810  177.7870  141.5200 C   0  0  0  0  0  1  0  0  0  0  0  0
  186.4770  176.1580  142.6610 C   0  0  0  0  0  2  0  0  0  0  0  0
  186.2920  177.4270  143.4890 C   0  0  0  0  0  2  0  0  0  0  0  0
  186.4440  177.1470  144.9750 C   0  0  0  0  0  1  0  0  0  0  0  0
  193.1000  174.3700  142.2100 C   0  0  0  0  0  2  0  0  0  0  0  0
  193.5040  174.0140  140.7810 C   0  0  1  0  0  3  0  0  0  0  0  0
  192.3110  173.9110  139.9560 N   0  0  0  0  0  2  0  0  0  0  0  0
  191.0940  172.7820  138.3260 O   0  0  0  0  0  0  0  0  0  0  0  0
  192.7540  171.5460  139.3710 N   0  0  0  0  0  1  0  0  0  0  0  0
  192.0140  172.7460  139.1820 C   0  0  0  0  0  0  0  0  0  0  0  0
  194.5820  175.2880  140.0950 S   0  0  0  0  0  3  0  0  0  0  0  0
  194.4940  176.4110  141.1170 O   0  0  0  0  0  0  0  0  0  0  0  0
  191.0690  172.1910  142.7730 C   0  0  0  0  0  2  0  0  0  0  0  0
  191.3870  170.7340  142.7310 C   0  0  0  0  0  3  0  0  0  0  0  0
  190.8890  170.0120  141.8780 O   0  0  0  0  0  0  0  0  0  0  0  0
  1  5  1  0  0  0  0
  2  6  1  0  0  0  0
  3 15  1  0  0  0  0
  4  1  1  0  0  0  0
  5  3  1  0  0  0  0
  6 13  1  0  0  0  0
  6  4  1  0  0  0  0
  7 10  1  0  0  0  0
  7  3  1  0  0  0  0
  8  5  1  0  0  0  0
  9 10  1  0  0  0  0
 11  1  1  0  0  0  0
 11 10  1  0  0  0  0
 12  4  1  0  0  0  0
 12  8  1  0  0  0  0
 13 11  1  0  0  0  0
 15 14  1  0  0  0  0
 15 16  1  0  0  0  0
 18 19  1  0  0  0  0
 18 17  1  0  0  0  0
 19 17  1  0  0  0  0
 19  8  1  0  0  0  0
 20 18  1  0  0  0  0
 21 20  1  0  0  0  0
 22 20  1  0  0  0  0
 22 24  1  0  0  0  0
 23 22  1  0  0  0  0
 24 25  1  0  0  0  0
 25 26  1  0  0  0  0
 27  6  1  0  0  0  0
 28 27  1  0  0  0  0
 29 28  1  0  0  0  0
 30 32  2  0  0  0  0
 32 31  1  0  0  0  0
 32 29  1  0  0  0  0
 33 28  1  0  0  0  0
 33 34  2  0  0  0  0
 35 12  1  0  0  0  0
 36 35  1  0  0  0  0
 37 36  2  0  0  0  0
M  END
>  <MODEL>
1

>  <REMARK>
 VINA RESULT:      -5.6      0.000      0.000
  Name = 
  12 active torsions:
  status: ('A' for Active; 'I' for Inactive)
    1  A    between atoms: C_1  and  C_5
    2  A    between atoms: C_1  and  C_23
    3  A    between atoms: S_2  and  C_6
    4  A    between atoms: C_5  and  C_26
    5  A    between atoms: C_6  and  N_8
    6  A    between atoms: C_6  and  C_31
    7  A    between atoms: C_9  and  C_30
    8  A    between atoms: C_11  and  C_26
    9  A    between atoms: C_14  and  C_31
   10  A    between atoms: N_20  and  C_25
   11  A    between atoms: C_27  and  C_33
   12  A    between atoms: C_29  and  C_33
                            x       y       z     vdW  Elec       q    Type
                         _______ _______ _______ _____ _____    ______ ____

>  <TORSDO>
F 12

$$$$
=
 OpenBabel11052420113D

 37 40  0  0  1  0  0  0  0  0999 V2000
  192.1930  173.5950  140.6990 C   0  0  2  0  0  3  0  0  0  0  0  0
  195.5430  172.5660  141.7330 C   0  0  0  0  0  1  0  0  0  0  0  0
  189.9240  173.5540  142.0820 C   0  0  2  0  0  3  0  0  0  0  0  0
  193.5270  173.9470  141.3010 C   0  0  2  0  0  3  0  0  0  0  0  0
  191.1550  174.3380  141.5680 C   0  0  1  0  0  3  0  0  0  0  0  0
  194.0590  172.6950  142.0370 C   0  0  1  0  0  0  0  0  0  0  0  0
  190.2650  172.0900  142.3450 C   0  0  0  0  0  2  0  0  0  0  0  0
  191.8310  175.2300  142.5390 N   0  0  2  0  0  0  0  0  0  0  0  0
  190.8830  170.0760  141.2170 O   0  0  0  0  0  1  0  0  0  0  0  0
  190.7850  171.4580  141.0660 C   0  0  2  0  0  3  0  0  0  0  0  0
  192.1290  172.0670  140.6490 C   0  0  2  0  0  3  0  0  0  0  0  0
  193.2430  175.2170  142.1090 C   0  0  1  0  0  3  0  0  0  0  0  0
  193.3250  171.5200  141.4170 C   0  0  0  0  0  2  0  0  0  0  0  0
  187.5320  172.8940  141.6840 C   0  0  0  0  0  1  0  0  0  0  0  0
  188.7080  173.7100  141.1580 C   0  0  0  0  0  3  0  0  0  0  0  0
  188.2690  175.1620  141.0670 C   0  0  0  0  0  1  0  0  0  0  0  0
  190.3550  174.9610  144.3590 O   0  0  0  0  0  0  0  0  0  0  0  0
  191.3010  175.9000  144.8040 C   0  0  2  0  0  3  0  0  0  0  0  0
  191.6870  174.7640  143.9240 C   0  0  2  0  0  3  0  0  0  0  0  0
  191.6630  175.6690  146.2860 C   0  0  1  0  0  3  0  0  0  0  0  0
  192.9940  176.3500  146.6020 C   0  0  0  0  0  1  0  0  0  0  0  0
  190.5770  175.9600  147.3420 C   0  0  2  0  0  3  0  0  0  0  0  0
  189.5690  174.8240  147.4610 C   0  0  0  0  0  1  0  0  0  0  0  0
  189.8560  177.2580  147.0030 C   0  0  0  0  0  2  0  0  0  0  0  0
  188.3690  177.0390  146.7400 C   0  0  0  0  0  2  0  0  0  0  0  0
  187.9820  177.4850  145.3400 C   0  0  0  0  0  1  0  0  0  0  0  0
  193.8200  172.7010  143.5600 C   0  0  0  0  0  2  0  0  0  0  0  0
  194.8750  171.9400  144.3600 C   0  0  1  0  0  3  0  0  0  0  0  0
  195.3610  172.7850  145.4400 N   0  0  0  0  0  2  0  0  0  0  0  0
  197.1410  173.6270  146.6790 O   0  0  0  0  0  0  0  0  0  0  0  0
  197.6930  172.7420  144.6090 N   0  0  0  0  0  1  0  0  0  0  0  0
  196.7490  173.0750  145.6200 C   0  0  0  0  0  0  0  0  0  0  0  0
  194.1690  170.4370  145.0650 S   0  0  0  0  0  3  0  0  0  0  0  0
  195.1120  170.1100  146.2120 O   0  0  0  0  0  0  0  0  0  0  0  0
  194.2900  175.6650  143.1320 C   0  0  0  0  0  2  0  0  0  0  0  0
  195.5170  176.1580  142.4410 C   0  0  0  0  0  3  0  0  0  0  0  0
  196.6260  175.7860  142.8000 O   0  0  0  0  0  0  0  0  0  0  0  0
  1  4  1  0  0  0  0
  1  5  1  0  0  0  0
  2  6  1  0  0  0  0
  3  7  1  0  0  0  0
  4  6  1  0  0  0  0
  4 12  1  0  0  0  0
  5  3  1  0  0  0  0
  5  8  1  0  0  0  0
  6 27  1  0  0  0  0
  8 19  1  0  0  0  0
 10  9  1  0  0  0  0
 10  7  1  0  0  0  0
 11  1  1  0  0  0  0
 11 10  1  0  0  0  0
 11 13  1  0  0  0  0
 12  8  1  0  0  0  0
 12 35  1  0  0  0  0
 13  6  1  0  0  0  0
 15 14  1  0  0  0  0
 15  3  1  0  0  0  0
 16 15  1  0  0  0  0
 17 18  1  0  0  0  0
 18 20  1  0  0  0  0
 19 17  1  0  0  0  0
 19 18  1  0  0  0  0
 20 21  1  0  0  0  0
 20 22  1  0  0  0  0
 22 23  1  0  0  0  0
 24 22  1  0  0  0  0
 25 24  1  0  0  0  0
 26 25  1  0  0  0  0
 27 28  1  0  0  0  0
 28 33  1  0  0  0  0
 28 29  1  0  0  0  0
 29 32  1  0  0  0  0
 31 32  1  0  0  0  0
 32 30  2  0  0  0  0
 33 34  2  0  0  0  0
 36 37  2  0  0  0  0
 36 35  1  0  0  0  0
M  END
>  <MODEL>
2

>  <REMARK>
 VINA RESULT:      -5.3      2.641      5.872
  Name = 
  12 active torsions:
  status: ('A' for Active; 'I' for Inactive)
    1  A    between atoms: C_1  and  C_5
    2  A    between atoms: C_1  and  C_23
    3  A    between atoms: S_2  and  C_6
    4  A    between atoms: C_5  and  C_26
    5  A    between atoms: C_6  and  N_8
    6  A    between atoms: C_6  and  C_31
    7  A    between atoms: C_9  and  C_30
    8  A    between atoms: C_11  and  C_26
    9  A    between atoms: C_14  and  C_31
   10  A    between atoms: N_20  and  C_25
   11  A    between atoms: C_27  and  C_33
   12  A    between atoms: C_29  and  C_33
                            x       y       z     vdW  Elec       q    Type
                         _______ _______ _______ _____ _____    ______ ____

>  <TORSDO>
F 12

$$$$
=
 OpenBabel11052420113D

 37 40  0  0  1  0  0  0  0  0999 V2000
  193.8210  174.3120  146.0400 C   0  0  2  0  0  3  0  0  0  0  0  0
  196.2710  173.2070  143.5650 C   0  0  0  0  0  1  0  0  0  0  0  0
  191.8140  176.0330  145.7620 C   0  0  2  0  0  3  0  0  0  0  0  0
  194.2300  173.3340  144.9720 C   0  0  2  0  0  3  0  0  0  0  0  0
  192.3190  174.5710  145.7880 C   0  0  1  0  0  3  0  0  0  0  0  0
  195.0960  174.0960  143.9400 C   0  0  1  0  0  0  0  0  0  0  0  0
  192.8780  176.9810  145.2130 C   0  0  0  0  0  2  0  0  0  0  0  0
  191.8040  173.6680  144.7320 N   0  0  2  0  0  0  0  0  0  0  0  0
  195.0250  177.8930  145.7290 O   0  0  0  0  0  1  0  0  0  0  0  0
  194.1300  176.8790  146.0660 C   0  0  2  0  0  3  0  0  0  0  0  0
  194.7830  175.4970  145.9360 C   0  0  2  0  0  3  0  0  0  0  0  0
  192.9070  172.7130  144.5140 C   0  0  1  0  0  3  0  0  0  0  0  0
  195.6160  175.3180  144.6750 C   0  0  0  0  0  2  0  0  0  0  0  0
  189.9380  177.1920  146.9680 C   0  0  0  0  0  1  0  0  0  0  0  0
  191.2820  176.4900  147.1280 C   0  0  0  0  0  3  0  0  0  0  0  0
  191.0860  175.3080  148.0640 C   0  0  0  0  0  1  0  0  0  0  0  0
  190.2690  175.1200  143.6840 O   0  0  0  0  0  0  0  0  0  0  0  0
  190.1540  173.9110  142.9780 C   0  0  2  0  0  3  0  0  0  0  0  0
  191.4650  174.3880  143.4970 C   0  0  2  0  0  3  0  0  0  0  0  0
  189.9730  174.1620  141.4660 C   0  0  1  0  0  3  0  0  0  0  0  0
  190.7480  173.1090  140.6750 C   0  0  0  0  0  1  0  0  0  0  0  0
  188.5380  174.3680  140.9410 C   0  0  2  0  0  3  0  0  0  0  0  0
  188.4470  174.1960  139.4300 C   0  0  0  0  0  1  0  0  0  0  0  0
  188.0310  175.7490  141.3360 C   0  0  0  0  0  2  0  0  0  0  0  0
  186.9960  175.6830  142.4560 C   0  0  0  0  0  2  0  0  0  0  0  0
  186.1430  176.9390  142.4970 C   0  0  0  0  0  1  0  0  0  0  0  0
  194.3350  174.5440  142.6770 C   0  0  0  0  0  2  0  0  0  0  0  0
  195.1310  174.3930  141.3820 C   0  0  1  0  0  3  0  0  0  0  0  0
  194.2590  173.8750  140.3390 N   0  0  0  0  0  2  0  0  0  0  0  0
  193.7830  172.2370  138.7570 O   0  0  0  0  0  0  0  0  0  0  0  0
  195.2820  171.6210  140.4140 N   0  0  0  0  0  1  0  0  0  0  0  0
  194.4150  172.5630  139.7930 C   0  0  0  0  0  0  0  0  0  0  0  0
  195.7880  175.9890  140.8560 S   0  0  0  0  0  3  0  0  0  0  0  0
  197.1420  176.0570  141.5470 O   0  0  0  0  0  0  0  0  0  0  0  0
  192.9020  171.9260  143.2010 C   0  0  0  0  0  2  0  0  0  0  0  0
  193.1280  170.4740  143.4620 C   0  0  0  0  0  3  0  0  0  0  0  0
  193.1810  170.0480  144.6090 O   0  0  0  0  0  0  0  0  0  0  0  0
  2  6  1  0  0  0  0
  3  5  1  0  0  0  0
  3 15  1  0  0  0  0
  4  1  1  0  0  0  0
  5  1  1  0  0  0  0
  6 13  1  0  0  0  0
  6  4  1  0  0  0  0
  7  3  1  0  0  0  0
  7 10  1  0  0  0  0
  8  5  1  0  0  0  0
  9 10  1  0  0  0  0
 11  1  1  0  0  0  0
 11 10  1  0  0  0  0
 12  8  1  0  0  0  0
 12  4  1  0  0  0  0
 13 11  1  0  0  0  0
 14 15  1  0  0  0  0
 15 16  1  0  0  0  0
 18 19  1  0  0  0  0
 18 17  1  0  0  0  0
 19 17  1  0  0  0  0
 19  8  1  0  0  0  0
 20 18  1  0  0  0  0
 21 20  1  0  0  0  0
 22 24  1  0  0  0  0
 22 20  1  0  0  0  0
 23 22  1  0  0  0  0
 24 25  1  0  0  0  0
 25 26  1  0  0  0  0
 27  6  1  0  0  0  0
 28 27  1  0  0  0  0
 29 28  1  0  0  0  0
 30 32  2  0  0  0  0
 32 29  1  0  0  0  0
 32 31  1  0  0  0  0
 33 28  1  0  0  0  0
 33 34  2  0  0  0  0
 35 36  1  0  0  0  0
 35 12  1  0  0  0  0
 36 37  2  0  0  0  0
M  END
>  <MODEL>
3

>  <REMARK>
 VINA RESULT:      -5.2      1.556      1.872
  Name = 
  12 active torsions:
  status: ('A' for Active; 'I' for Inactive)
    1  A    between atoms: C_1  and  C_5
    2  A    between atoms: C_1  and  C_23
    3  A    between atoms: S_2  and  C_6
    4  A    between atoms: C_5  and  C_26
    5  A    between atoms: C_6  and  N_8
    6  A    between atoms: C_6  and  C_31
    7  A    between atoms: C_9  and  C_30
    8  A    between atoms: C_11  and  C_26
    9  A    between atoms: C_14  and  C_31
   10  A    between atoms: N_20  and  C_25
   11  A    between atoms: C_27  and  C_33
   12  A    between atoms: C_29  and  C_33
                            x       y       z     vdW  Elec       q    Type
                         _______ _______ _______ _____ _____    ______ ____

>  <TORSDO>
F 12

$$$$
=
 OpenBabel11052420113D

 37 40  0  0  1  0  0  0  0  0999 V2000
  193.0610  174.3550  146.0980 C   0  0  2  0  0  3  0  0  0  0  0  0
  196.2780  172.6510  145.7730 C   0  0  0  0  0  1  0  0  0  0  0  0
  191.8530  175.9970  144.3920 C   0  0  2  0  0  3  0  0  0  0  0  0
  193.8470  173.1450  145.6710 C   0  0  2  0  0  3  0  0  0  0  0  0
  192.0240  174.5730  144.9740 C   0  0  1  0  0  3  0  0  0  0  0  0
  195.2480  173.6240  145.2210 C   0  0  1  0  0  0  0  0  0  0  0  0
  193.1710  176.7670  144.4050 C   0  0  0  0  0  2  0  0  0  0  0  0
  192.0650  173.4550  144.0030 N   0  0  2  0  0  0  0  0  0  0  0  0
  194.7610  177.7380  145.9000 O   0  0  0  0  0  1  0  0  0  0  0  0
  193.6910  176.8490  145.8290 C   0  0  2  0  0  3  0  0  0  0  0  0
  194.0820  175.4650  146.3610 C   0  0  2  0  0  3  0  0  0  0  0  0
  192.9370  172.4560  144.6500 C   0  0  1  0  0  3  0  0  0  0  0  0
  195.4420  174.9770  145.8820 C   0  0  0  0  0  2  0  0  0  0  0  0
  190.3050  177.9690  144.2270 C   0  0  0  0  0  1  0  0  0  0  0  0
  190.7210  176.7740  145.0770 C   0  0  0  0  0  3  0  0  0  0  0  0
  189.4970  175.8950  145.2830 C   0  0  0  0  0  1  0  0  0  0  0  0
  191.5370  174.3100  141.8690 O   0  0  0  0  0  0  0  0  0  0  0  0
  192.0170  173.0130  141.6230 C   0  0  2  0  0  3  0  0  0  0  0  0
  192.5950  173.8660  142.6970 C   0  0  2  0  0  3  0  0  0  0  0  0
  192.8850  172.9700  140.3490 C   0  0  1  0  0  3  0  0  0  0  0  0
  193.1620  171.5170  139.9650 C   0  0  0  0  0  1  0  0  0  0  0  0
  192.4390  173.8310  139.1490 C   0  0  2  0  0  3  0  0  0  0  0  0
  191.8730  172.9870  138.0140 C   0  0  0  0  0  1  0  0  0  0  0  0
  193.6070  174.6650  138.6430 C   0  0  0  0  0  2  0  0  0  0  0  0
  194.5210  175.1240  139.7760 C   0  0  0  0  0  2  0  0  0  0  0  0
  195.9780  175.1300  139.3450 C   0  0  0  0  0  1  0  0  0  0  0  0
  195.4120  173.7730  143.6960 C   0  0  0  0  0  2  0  0  0  0  0  0
  196.7500  173.2700  143.1600 C   0  0  1  0  0  3  0  0  0  0  0  0
  196.5270  172.5240  141.9310 N   0  0  0  0  0  2  0  0  0  0  0  0
  196.7630  170.5580  140.7100 O   0  0  0  0  0  0  0  0  0  0  0  0
  197.0050  170.3450  143.0050 N   0  0  0  0  0  1  0  0  0  0  0  0
  196.7640  171.1180  141.8350 C   0  0  0  0  0  0  0  0  0  0  0  0
  197.8500  174.6570  142.8100 S   0  0  0  0  0  3  0  0  0  0  0  0
  196.9080  175.8500  142.7630 O   0  0  0  0  0  0  0  0  0  0  0  0
  193.5520  171.3800  143.7520 C   0  0  0  0  0  2  0  0  0  0  0  0
  193.4520  170.0390  144.4010 C   0  0  0  0  0  3  0  0  0  0  0  0
  194.1500  169.7610  145.3670 O   0  0  0  0  0  0  0  0  0  0  0  0
  1 11  1  0  0  0  0
  3  7  1  0  0  0  0
  3  5  1  0  0  0  0
  3 15  1  0  0  0  0
  4  1  1  0  0  0  0
  5  1  1  0  0  0  0
  6  4  1  0  0  0  0
  6  2  1  0  0  0  0
  6 13  1  0  0  0  0
  7 10  1  0  0  0  0
  8 12  1  0  0  0  0
  8  5  1  0  0  0  0
 10  9  1  0  0  0  0
 10 11  1  0  0  0  0
 12  4  1  0  0  0  0
 13 11  1  0  0  0  0
 14 15  1  0  0  0  0
 15 16  1  0  0  0  0
 17 19  1  0  0  0  0
 18 17  1  0  0  0  0
 18 19  1  0  0  0  0
 19  8  1  0  0  0  0
 20 18  1  0  0  0  0
 21 20  1  0  0  0  0
 22 20  1  0  0  0  0
 23 22  1  0  0  0  0
 24 22  1  0  0  0  0
 24 25  1  0  0  0  0
 26 25  1  0  0  0  0
 27  6  1  0  0  0  0
 28 27  1  0  0  0  0
 29 28  1  0  0  0  0
 30 32  2  0  0  0  0
 32 29  1  0  0  0  0
 32 31  1  0  0  0  0
 33 28  1  0  0  0  0
 34 33  2  0  0  0  0
 35 36  1  0  0  0  0
 35 12  1  0  0  0  0
 36 37  2  0  0  0  0
M  END
>  <MODEL>
4

>  <REMARK>
 VINA RESULT:      -5.2      2.707      4.472
  Name = 
  12 active torsions:
  status: ('A' for Active; 'I' for Inactive)
    1  A    between atoms: C_1  and  C_5
    2  A    between atoms: C_1  and  C_23
    3  A    between atoms: S_2  and  C_6
    4  A    between atoms: C_5  and  C_26
    5  A    between atoms: C_6  and  N_8
    6  A    between atoms: C_6  and  C_31
    7  A    between atoms: C_9  and  C_30
    8  A    between atoms: C_11  and  C_26
    9  A    between atoms: C_14  and  C_31
   10  A    between atoms: N_20  and  C_25
   11  A    between atoms: C_27  and  C_33
   12  A    between atoms: C_29  and  C_33
                            x       y       z     vdW  Elec       q    Type
                         _______ _______ _______ _____ _____    ______ ____

>  <TORSDO>
F 12

$$$$
=
 OpenBabel11052420113D

 37 40  0  0  1  0  0  0  0  0999 V2000
  194.2740  173.1130  143.4080 C   0  0  2  0  0  3  0  0  0  0  0  0
  193.0820  171.2260  140.5140 C   0  0  0  0  0  1  0  0  0  0  0  0
  194.1440  175.7270  143.8750 C   0  0  2  0  0  3  0  0  0  0  0  0
  193.1770  172.3350  142.7330 C   0  0  2  0  0  3  0  0  0  0  0  0
  193.5600  174.3080  144.0780 C   0  0  1  0  0  3  0  0  0  0  0  0
  193.3050  172.5610  141.2080 C   0  0  1  0  0  0  0  0  0  0  0  0
  194.7980  175.8710  142.5030 C   0  0  0  0  0  2  0  0  0  0  0  0
  192.0900  174.1690  143.9610 N   0  0  2  0  0  0  0  0  0  0  0  0
  196.6550  175.0910  141.2180 O   0  0  0  0  0  1  0  0  0  0  0  0
  195.8960  174.8320  142.3580 C   0  0  2  0  0  3  0  0  0  0  0  0
  195.3200  173.4110  142.3310 C   0  0  2  0  0  3  0  0  0  0  0  0
  191.9030  172.7990  143.4470 C   0  0  1  0  0  3  0  0  0  0  0  0
  194.7410  173.0000  140.9850 C   0  0  0  0  0  2  0  0  0  0  0  0
  194.6210  177.4350  145.6560 C   0  0  0  0  0  1  0  0  0  0  0  0
  195.0900  176.1350  145.0130 C   0  0  0  0  0  3  0  0  0  0  0  0
  195.1410  175.0680  146.0950 C   0  0  0  0  0  1  0  0  0  0  0  0
  191.3440  176.3960  143.7420 O   0  0  0  0  0  0  0  0  0  0  0  0
  190.1860  175.6170  143.5880 C   0  0  2  0  0  3  0  0  0  0  0  0
  191.5020  175.1670  143.0590 C   0  0  2  0  0  3  0  0  0  0  0  0
  189.2610  176.1990  142.4990 C   0  0  1  0  0  3  0  0  0  0  0  0
  188.1800  175.1780  142.1450 C   0  0  0  0  0  1  0  0  0  0  0  0
  188.6940  177.6160  142.7240 C   0  0  2  0  0  3  0  0  0  0  0  0
  188.1280  177.7940  144.1280 C   0  0  0  0  0  1  0  0  0  0  0  0
  187.6180  177.9170  141.6900 C   0  0  0  0  0  2  0  0  0  0  0  0
  186.3960  178.5890  142.3100 C   0  0  0  0  0  2  0  0  0  0  0  0
  185.1170  177.8490  141.9540 C   0  0  0  0  0  1  0  0  0  0  0  0
  192.3500  173.6290  140.6390 C   0  0  0  0  0  2  0  0  0  0  0  0
  191.6780  173.2300  139.3270 C   0  0  1  0  0  3  0  0  0  0  0  0
  190.2660  173.5740  139.3850 N   0  0  0  0  0  2  0  0  0  0  0  0
  188.0550  173.0580  138.8760 O   0  0  0  0  0  0  0  0  0  0  0  0
  189.5430  171.2810  138.7940 N   0  0  0  0  0  1  0  0  0  0  0  0
  189.2380  172.6530  139.0130 C   0  0  0  0  0  0  0  0  0  0  0  0
  192.4360  174.1020  137.9410 S   0  0  0  0  0  3  0  0  0  0  0  0
  191.8240  173.4270  136.7240 O   0  0  0  0  0  0  0  0  0  0  0  0
  190.5580  172.4740  142.7940 C   0  0  0  0  0  2  0  0  0  0  0  0
  189.6080  171.9220  143.8040 C   0  0  0  0  0  3  0  0  0  0  0  0
  189.6470  172.2990  144.9680 O   0  0  0  0  0  0  0  0  0  0  0  0
  1  5  1  0  0  0  0
  2  6  1  0  0  0  0
  3  5  1  0  0  0  0
  3 15  1  0  0  0  0
  4  1  1  0  0  0  0
  4 12  1  0  0  0  0
  6  4  1  0  0  0  0
  7  3  1  0  0  0  0
  8  5  1  0  0  0  0
  9 10  1  0  0  0  0
 10  7  1  0  0  0  0
 11 10  1  0  0  0  0
 11  1  1  0  0  0  0
 12  8  1  0  0  0  0
 13  6  1  0  0  0  0
 13 11  1  0  0  0  0
 15 14  1  0  0  0  0
 15 16  1  0  0  0  0
 18 17  1  0  0  0  0
 19 18  1  0  0  0  0
 19 17  1  0  0  0  0
 19  8  1  0  0  0  0
 20 22  1  0  0  0  0
 20 18  1  0  0  0  0
 21 20  1  0  0  0  0
 22 23  1  0  0  0  0
 24 25  1  0  0  0  0
 24 22  1  0  0  0  0
 26 25  1  0  0  0  0
 27  6  1  0  0  0  0
 28 29  1  0  0  0  0
 28 27  1  0  0  0  0
 30 32  2  0  0  0  0
 31 32  1  0  0  0  0
 32 29  1  0  0  0  0
 33 28  1  0  0  0  0
 34 33  2  0  0  0  0
 35 12  1  0  0  0  0
 35 36  1  0  0  0  0
 36 37  2  0  0  0  0
M  END
>  <MODEL>
5

>  <REMARK>
 VINA RESULT:      -5.1      2.208      3.009
  Name = 
  12 active torsions:
  status: ('A' for Active; 'I' for Inactive)
    1  A    between atoms: C_1  and  C_5
    2  A    between atoms: C_1  and  C_23
    3  A    between atoms: S_2  and  C_6
    4  A    between atoms: C_5  and  C_26
    5  A    between atoms: C_6  and  N_8
    6  A    between atoms: C_6  and  C_31
    7  A    between atoms: C_9  and  C_30
    8  A    between atoms: C_11  and  C_26
    9  A    between atoms: C_14  and  C_31
   10  A    between atoms: N_20  and  C_25
   11  A    between atoms: C_27  and  C_33
   12  A    between atoms: C_29  and  C_33
                            x       y       z     vdW  Elec       q    Type
                         _______ _______ _______ _____ _____    ______ ____

>  <TORSDO>
F 12

$$$$
=
 OpenBabel11052420113D

 37 40  0  0  1  0  0  0  0  0999 V2000
  190.2450  171.6710  143.0400 C   0  0  2  0  0  3  0  0  0  0  0  0
  190.0080  174.3880  145.4720 C   0  0  0  0  0  1  0  0  0  0  0  0
  191.3270  171.6830  140.6120 C   0  0  2  0  0  3  0  0  0  0  0  0
  190.8280  172.4130  144.2120 C   0  0  2  0  0  3  0  0  0  0  0  0
  191.4500  171.3680  142.1210 C   0  0  1  0  0  3  0  0  0  0  0  0
  190.4090  173.8970  144.0900 C   0  0  1  0  0  0  0  0  0  0  0  0
  190.4380  172.9000  140.3660 C   0  0  0  0  0  2  0  0  0  0  0  0
  192.7180  171.7520  142.7830 N   0  0  2  0  0  0  0  0  0  0  0  0
  188.1730  173.6360  140.5470 O   0  0  0  0  0  1  0  0  0  0  0  0
  189.0630  172.6460  140.9560 C   0  0  2  0  0  3  0  0  0  0  0  0
  189.1210  172.5500  142.4860 C   0  0  2  0  0  3  0  0  0  0  0  0
  192.3170  172.0570  144.1690 C   0  0  1  0  0  3  0  0  0  0  0  0
  189.1850  173.8970  143.1920 C   0  0  0  0  0  2  0  0  0  0  0  0
  191.5780  170.4350  138.4450 C   0  0  0  0  0  1  0  0  0  0  0  0
  190.8750  170.4630  139.7970 C   0  0  0  0  0  3  0  0  0  0  0  0
  191.2000  169.1670  140.5230 C   0  0  0  0  0  1  0  0  0  0  0  0
  194.1200  172.4780  141.0300 O   0  0  0  0  0  0  0  0  0  0  0  0
  194.8370  172.7690  142.2020 C   0  0  2  0  0  3  0  0  0  0  0  0
  193.3570  172.9080  142.1410 C   0  0  2  0  0  3  0  0  0  0  0  0
  195.5790  174.1170  142.0840 C   0  0  1  0  0  3  0  0  0  0  0  0
  196.3440  174.3970  143.3770 C   0  0  0  0  0  1  0  0  0  0  0  0
  196.4300  174.3570  140.8200 C   0  0  2  0  0  3  0  0  0  0  0  0
  197.8540  174.7840  141.1580 C   0  0  0  0  0  1  0  0  0  0  0  0
  195.7700  175.4070  139.9380 C   0  0  0  0  0  2  0  0  0  0  0  0
  195.3260  174.8330  138.5950 C   0  0  0  0  0  2  0  0  0  0  0  0
  193.8110  174.8090  138.4760 C   0  0  0  0  0  1  0  0  0  0  0  0
  191.4870  174.8160  143.4840 C   0  0  0  0  0  2  0  0  0  0  0  0
  191.5840  176.1880  144.1490 C   0  0  1  0  0  3  0  0  0  0  0  0
  192.9840  176.5600  144.2810 N   0  0  0  0  0  2  0  0  0  0  0  0
  194.7680  177.1990  145.6320 O   0  0  0  0  0  0  0  0  0  0  0  0
  192.9910  176.1930  146.7300 N   0  0  0  0  0  1  0  0  0  0  0  0
  193.6290  176.6720  145.5520 C   0  0  0  0  0  0  0  0  0  0  0  0
  190.7390  177.4320  143.1520 S   0  0  0  0  0  3  0  0  0  0  0  0
  191.1790  178.7450  143.7820 O   0  0  0  0  0  0  0  0  0  0  0  0
  193.2800  172.9040  145.0060 C   0  0  0  0  0  2  0  0  0  0  0  0
  194.2690  172.0320  145.7040 C   0  0  0  0  0  3  0  0  0  0  0  0
  194.2710  170.8210  145.5210 O   0  0  0  0  0  0  0  0  0  0  0  0
  1  4  1  0  0  0  0
  3  5  1  0  0  0  0
  5  8  1  0  0  0  0
  5  1  1  0  0  0  0
  6  4  1  0  0  0  0
  6  2  1  0  0  0  0
  7  3  1  0  0  0  0
  7 10  1  0  0  0  0
  8 12  1  0  0  0  0
  9 10  1  0  0  0  0
 10 11  1  0  0  0  0
 11  1  1  0  0  0  0
 11 13  1  0  0  0  0
 12  4  1  0  0  0  0
 12 35  1  0  0  0  0
 13  6  1  0  0  0  0
 14 15  1  0  0  0  0
 15 16  1  0  0  0  0
 15  3  1  0  0  0  0
 17 19  1  0  0  0  0
 17 18  1  0  0  0  0
 19 18  1  0  0  0  0
 19  8  1  0  0  0  0
 20 18  1  0  0  0  0
 20 21  1  0  0  0  0
 22 23  1  0  0  0  0
 22 20  1  0  0  0  0
 24 22  1  0  0  0  0
 25 24  1  0  0  0  0
 26 25  1  0  0  0  0
 27  6  1  0  0  0  0
 27 28  1  0  0  0  0
 28 29  1  0  0  0  0
 29 32  1  0  0  0  0
 32 30  2  0  0  0  0
 32 31  1  0  0  0  0
 33 34  2  0  0  0  0
 33 28  1  0  0  0  0
 35 36  1  0  0  0  0
 37 36  2  0  0  0  0
M  END
>  <MODEL>
6

>  <REMARK>
 VINA RESULT:      -5.0      2.732      7.012
  Name = 
  12 active torsions:
  status: ('A' for Active; 'I' for Inactive)
    1  A    between atoms: C_1  and  C_5
    2  A    between atoms: C_1  and  C_23
    3  A    between atoms: S_2  and  C_6
    4  A    between atoms: C_5  and  C_26
    5  A    between atoms: C_6  and  N_8
    6  A    between atoms: C_6  and  C_31
    7  A    between atoms: C_9  and  C_30
    8  A    between atoms: C_11  and  C_26
    9  A    between atoms: C_14  and  C_31
   10  A    between atoms: N_20  and  C_25
   11  A    between atoms: C_27  and  C_33
   12  A    between atoms: C_29  and  C_33
                            x       y       z     vdW  Elec       q    Type
                         _______ _______ _______ _____ _____    ______ ____

>  <TORSDO>
F 12

$$$$
=
 OpenBabel11052420113D

 37 40  0  0  1  0  0  0  0  0999 V2000
  190.1340  175.4990  144.7900 C   0  0  2  0  0  3  0  0  0  0  0  0
  193.6250  174.4390  144.9850 C   0  0  0  0  0  1  0  0  0  0  0  0
  188.7880  176.4680  142.7110 C   0  0  2  0  0  3  0  0  0  0  0  0
  191.1620  174.4070  144.6770 C   0  0  2  0  0  3  0  0  0  0  0  0
  189.1710  175.2640  143.6050 C   0  0  1  0  0  3  0  0  0  0  0  0
  192.4830  175.0480  144.1880 C   0  0  1  0  0  0  0  0  0  0  0  0
  189.9360  177.4700  142.6040 C   0  0  0  0  0  2  0  0  0  0  0  0
  189.4980  173.9960  142.9120 N   0  0  2  0  0  0  0  0  0  0  0  0
  191.1900  179.0320  143.9070 O   0  0  0  0  0  1  0  0  0  0  0  0
  190.3110  177.9540  143.9940 C   0  0  2  0  0  3  0  0  0  0  0  0
  190.9060  176.8190  144.8380 C   0  0  2  0  0  3  0  0  0  0  0  0
  190.4830  173.3500  143.8010 C   0  0  1  0  0  3  0  0  0  0  0  0
  192.3680  176.5210  144.5360 C   0  0  0  0  0  2  0  0  0  0  0  0
  187.1250  178.2900  142.2320 C   0  0  0  0  0  1  0  0  0  0  0  0
  187.4790  177.1320  143.1590 C   0  0  0  0  0  3  0  0  0  0  0  0
  186.3250  176.1430  143.1360 C   0  0  0  0  0  1  0  0  0  0  0  0
  188.9980  174.4490  140.6520 O   0  0  0  0  0  0  0  0  0  0  0  0
  189.5610  173.1620  140.6400 C   0  0  2  0  0  3  0  0  0  0  0  0
  190.0500  174.2170  141.5690 C   0  0  2  0  0  3  0  0  0  0  0  0
  190.4750  172.9640  139.4130 C   0  0  1  0  0  3  0  0  0  0  0  0
  190.7210  171.4710  139.1930 C   0  0  0  0  0  1  0  0  0  0  0  0
  190.1000  173.7060  138.1140 C   0  0  2  0  0  3  0  0  0  0  0  0
  188.9360  173.0430  137.3870 C   0  0  0  0  0  1  0  0  0  0  0  0
  191.3090  173.7840  137.1910 C   0  0  0  0  0  2  0  0  0  0  0  0
  192.5620  174.2580  137.9230 C   0  0  0  0  0  2  0  0  0  0  0  0
  193.7600  173.3840  137.5940 C   0  0  0  0  0  1  0  0  0  0  0  0
  192.7420  174.8990  142.6760 C   0  0  0  0  0  2  0  0  0  0  0  0
  194.1730  174.4980  142.3250 C   0  0  1  0  0  3  0  0  0  0  0  0
  194.1460  173.4790  141.2870 N   0  0  0  0  0  2  0  0  0  0  0  0
  195.0270  171.5320  140.3670 O   0  0  0  0  0  0  0  0  0  0  0  0
  195.5610  171.9190  142.5890 N   0  0  0  0  0  1  0  0  0  0  0  0
  194.9160  172.2770  141.3730 C   0  0  0  0  0  0  0  0  0  0  0  0
  195.0970  175.9240  141.7200 S   0  0  0  0  0  3  0  0  0  0  0  0
  195.8330  176.4170  142.9570 O   0  0  0  0  0  0  0  0  0  0  0  0
  191.3590  172.2520  143.1930 C   0  0  0  0  0  2  0  0  0  0  0  0
  191.8960  171.3610  144.2630 C   0  0  0  0  0  3  0  0  0  0  0  0
  192.7610  170.5330  144.0080 O   0  0  0  0  0  0  0  0  0  0  0  0
  1 11  1  0  0  0  0
  3 15  1  0  0  0  0
  3  5  1  0  0  0  0
  4  1  1  0  0  0  0
  5  1  1  0  0  0  0
  6 13  1  0  0  0  0
  6  4  1  0  0  0  0
  6  2  1  0  0  0  0
  7  3  1  0  0  0  0
  7 10  1  0  0  0  0
  8  5  1  0  0  0  0
  8 12  1  0  0  0  0
  9 10  1  0  0  0  0
 10 11  1  0  0  0  0
 12  4  1  0  0  0  0
 13 11  1  0  0  0  0
 14 15  1  0  0  0  0
 16 15  1  0  0  0  0
 17 19  1  0  0  0  0
 18 17  1  0  0  0  0
 18 19  1  0  0  0  0
 19  8  1  0  0  0  0
 20 18  1  0  0  0  0
 21 20  1  0  0  0  0
 22 20  1  0  0  0  0
 23 22  1  0  0  0  0
 24 25  1  0  0  0  0
 24 22  1  0  0  0  0
 26 25  1  0  0  0  0
 27  6  1  0  0  0  0
 28 27  1  0  0  0  0
 29 32  1  0  0  0  0
 29 28  1  0  0  0  0
 30 32  2  0  0  0  0
 32 31  1  0  0  0  0
 33 28  1  0  0  0  0
 33 34  2  0  0  0  0
 35 12  1  0  0  0  0
 35 36  1  0  0  0  0
 37 36  2  0  0  0  0
M  END
>  <MODEL>
7

>  <REMARK>
 VINA RESULT:      -4.9      2.153      4.444
  Name = 
  12 active torsions:
  status: ('A' for Active; 'I' for Inactive)
    1  A    between atoms: C_1  and  C_5
    2  A    between atoms: C_1  and  C_23
    3  A    between atoms: S_2  and  C_6
    4  A    between atoms: C_5  and  C_26
    5  A    between atoms: C_6  and  N_8
    6  A    between atoms: C_6  and  C_31
    7  A    between atoms: C_9  and  C_30
    8  A    between atoms: C_11  and  C_26
    9  A    between atoms: C_14  and  C_31
   10  A    between atoms: N_20  and  C_25
   11  A    between atoms: C_27  and  C_33
   12  A    between atoms: C_29  and  C_33
                            x       y       z     vdW  Elec       q    Type
                         _______ _______ _______ _____ _____    ______ ____

>  <TORSDO>
F 12

$$$$
=
 OpenBabel11052420113D

 37 40  0  0  1  0  0  0  0  0999 V2000
  197.4910  174.3170  142.9830 C   0  0  2  0  0  3  0  0  0  0  0  0
  197.0240  172.9100  146.3230 C   0  0  0  0  0  1  0  0  0  0  0  0
  195.9110  174.1400  140.8520 C   0  0  2  0  0  3  0  0  0  0  0  0
  196.9750  174.4650  144.3890 C   0  0  2  0  0  3  0  0  0  0  0  0
  196.3930  174.9350  142.0890 C   0  0  1  0  0  3  0  0  0  0  0  0
  196.5490  173.0640  144.8870 C   0  0  1  0  0  0  0  0  0  0  0  0
  195.9680  172.6340  141.1000 C   0  0  0  0  0  2  0  0  0  0  0  0
  195.3460  175.5780  142.9180 N   0  0  2  0  0  0  0  0  0  0  0  0
  197.5150  170.8480  141.4550 O   0  0  0  0  0  1  0  0  0  0  0  0
  197.3900  172.2360  141.4510 C   0  0  2  0  0  3  0  0  0  0  0  0
  197.8220  172.8350  142.7960 C   0  0  2  0  0  3  0  0  0  0  0  0
  195.9160  175.5660  144.2800 C   0  0  1  0  0  3  0  0  0  0  0  0
  197.3000  172.0790  144.0100 C   0  0  0  0  0  2  0  0  0  0  0  0
  195.6690  174.9380  138.4820 C   0  0  0  0  0  1  0  0  0  0  0  0
  196.6580  174.5450  139.5740 C   0  0  0  0  0  3  0  0  0  0  0  0
  197.5760  175.7300  139.8250 C   0  0  0  0  0  1  0  0  0  0  0  0
  193.3930  175.1710  141.6610 O   0  0  0  0  0  0  0  0  0  0  0  0
  192.9410  175.8290  142.8160 C   0  0  2  0  0  3  0  0  0  0  0  0
  194.0680  174.8580  142.8640 C   0  0  2  0  0  3  0  0  0  0  0  0
  191.6060  175.2340  143.3120 C   0  0  1  0  0  3  0  0  0  0  0  0
  191.3100  175.7430  144.7230 C   0  0  0  0  0  1  0  0  0  0  0  0
  190.3870  175.3310  142.3730 C   0  0  2  0  0  3  0  0  0  0  0  0
  189.1530  175.8720  143.0850 C   0  0  0  0  0  1  0  0  0  0  0  0
  190.0810  173.9660  141.7730 C   0  0  0  0  0  2  0  0  0  0  0  0
  188.7510  173.4040  142.2670 C   0  0  0  0  0  2  0  0  0  0  0  0
  188.9350  172.0560  142.9430 C   0  0  0  0  0  1  0  0  0  0  0  0
  195.0360  172.7840  144.7880 C   0  0  0  0  0  2  0  0  0  0  0  0
  194.6880  171.3230  144.5170 C   0  0  1  0  0  3  0  0  0  0  0  0
  194.4280  170.6480  145.7800 N   0  0  0  0  0  2  0  0  0  0  0  0
  194.6810  168.7780  147.1410 O   0  0  0  0  0  0  0  0  0  0  0  0
  196.1990  168.9600  145.3990 N   0  0  0  0  0  1  0  0  0  0  0  0
  195.0870  169.4340  146.1490 C   0  0  0  0  0  0  0  0  0  0  0  0
  193.2170  171.2070  143.4800 S   0  0  0  0  0  3  0  0  0  0  0  0
  192.1520  171.9200  144.2980 O   0  0  0  0  0  0  0  0  0  0  0  0
  194.9410  175.7420  145.4470 C   0  0  0  0  0  2  0  0  0  0  0  0
  194.7710  177.1880  145.7710 C   0  0  0  0  0  3  0  0  0  0  0  0
  194.4130  177.5380  146.8880 O   0  0  0  0  0  0  0  0  0  0  0  0
  1  4  1  0  0  0  0
  3  7  1  0  0  0  0
  3  5  1  0  0  0  0
  4  6  1  0  0  0  0
  5  8  1  0  0  0  0
  5  1  1  0  0  0  0
  6  2  1  0  0  0  0
  7 10  1  0  0  0  0
  8 12  1  0  0  0  0
 10  9  1  0  0  0  0
 10 11  1  0  0  0  0
 11  1  1  0  0  0  0
 11 13  1  0  0  0  0
 12  4  1  0  0  0  0
 12 35  1  0  0  0  0
 13  6  1  0  0  0  0
 14 15  1  0  0  0  0
 15 16  1  0  0  0  0
 15  3  1  0  0  0  0
 17 18  1  0  0  0  0
 17 19  1  0  0  0  0
 18 19  1  0  0  0  0
 18 20  1  0  0  0  0
 19  8  1  0  0  0  0
 20 21  1  0  0  0  0
 22 23  1  0  0  0  0
 22 20  1  0  0  0  0
 24 25  1  0  0  0  0
 24 22  1  0  0  0  0
 25 26  1  0  0  0  0
 27  6  1  0  0  0  0
 28 27  1  0  0  0  0
 28 29  1  0  0  0  0
 29 32  1  0  0  0  0
 31 32  1  0  0  0  0
 32 30  2  0  0  0  0
 33 34  2  0  0  0  0
 33 28  1  0  0  0  0
 35 36  1  0  0  0  0
 36 37  2  0  0  0  0
M  END
>  <MODEL>
8

>  <REMARK>
 VINA RESULT:      -4.8      3.306      6.296
  Name = 
  12 active torsions:
  status: ('A' for Active; 'I' for Inactive)
    1  A    between atoms: C_1  and  C_5
    2  A    between atoms: C_1  and  C_23
    3  A    between atoms: S_2  and  C_6
    4  A    between atoms: C_5  and  C_26
    5  A    between atoms: C_6  and  N_8
    6  A    between atoms: C_6  and  C_31
    7  A    between atoms: C_9  and  C_30
    8  A    between atoms: C_11  and  C_26
    9  A    between atoms: C_14  and  C_31
   10  A    between atoms: N_20  and  C_25
   11  A    between atoms: C_27  and  C_33
   12  A    between atoms: C_29  and  C_33
                            x       y       z     vdW  Elec       q    Type
                         _______ _______ _______ _____ _____    ______ ____

>  <TORSDO>
F 12

$$$$
=
 OpenBabel11052420113D

 37 40  0  0  1  0  0  0  0  0999 V2000
  190.7260  175.4250  145.1260 C   0  0  2  0  0  3  0  0  0  0  0  0
  194.2190  175.0420  146.1290 C   0  0  0  0  0  1  0  0  0  0  0  0
  189.7210  175.9960  142.7330 C   0  0  2  0  0  3  0  0  0  0  0  0
  191.9230  174.5360  145.3350 C   0  0  2  0  0  3  0  0  0  0  0  0
  190.0970  174.9420  143.8010 C   0  0  1  0  0  3  0  0  0  0  0  0
  193.1910  175.3780  145.0610 C   0  0  1  0  0  0  0  0  0  0  0  0
  190.6800  177.1840  142.7600 C   0  0  0  0  0  2  0  0  0  0  0  0
  190.7730  173.7150  143.3200 N   0  0  2  0  0  0  0  0  0  0  0  0
  191.3430  179.0290  144.1250 O   0  0  0  0  0  1  0  0  0  0  0  0
  190.6590  177.8150  144.1400 C   0  0  2  0  0  3  0  0  0  0  0  0
  191.2380  176.8650  145.1970 C   0  0  2  0  0  3  0  0  0  0  0  0
  191.6360  173.3190  144.4500 C   0  0  1  0  0  3  0  0  0  0  0  0
  192.7600  176.8240  145.2290 C   0  0  0  0  0  2  0  0  0  0  0  0
  187.9780  177.6000  141.8950 C   0  0  0  0  0  1  0  0  0  0  0  0
  188.2540  176.4340  142.8370 C   0  0  0  0  0  3  0  0  0  0  0  0
  187.3140  175.2980  142.4660 C   0  0  0  0  0  1  0  0  0  0  0  0
  190.6890  174.1550  141.0040 O   0  0  0  0  0  0  0  0  0  0  0  0
  191.2760  172.8820  141.1030 C   0  0  2  0  0  3  0  0  0  0  0  0
  191.5580  173.9490  142.1010 C   0  0  2  0  0  3  0  0  0  0  0  0
  192.4060  172.7060  140.0670 C   0  0  1  0  0  3  0  0  0  0  0  0
  192.8410  171.2420  140.0270 C   0  0  0  0  0  1  0  0  0  0  0  0
  192.1880  173.3050  138.6620 C   0  0  2  0  0  3  0  0  0  0  0  0
  191.8170  172.2420  137.6350 C   0  0  0  0  0  1  0  0  0  0  0  0
  193.4400  174.0450  138.2110 C   0  0  0  0  0  2  0  0  0  0  0  0
  194.2630  174.5560  139.3910 C   0  0  0  0  0  2  0  0  0  0  0  0
  195.6320  175.0380  138.9440 C   0  0  0  0  0  1  0  0  0  0  0  0
  193.7940  175.1850  143.6550 C   0  0  0  0  0  2  0  0  0  0  0  0
  195.3210  175.1930  143.6240 C   0  0  1  0  0  3  0  0  0  0  0  0
  195.8000  173.8800  143.2200 N   0  0  0  0  0  2  0  0  0  0  0  0
  197.4580  172.2490  143.2730 O   0  0  0  0  0  0  0  0  0  0  0  0
  197.5630  173.8380  144.9580 N   0  0  0  0  0  1  0  0  0  0  0  0
  196.9620  173.2780  143.7960 C   0  0  0  0  0  0  0  0  0  0  0  0
  195.9210  176.4220  142.4470 S   0  0  0  0  0  3  0  0  0  0  0  0
  197.1310  177.0190  143.1490 O   0  0  0  0  0  0  0  0  0  0  0  0
  192.7940  172.3660  144.1450 C   0  0  0  0  0  2  0  0  0  0  0  0
  192.3460  170.9470  144.2630 C   0  0  0  0  0  3  0  0  0  0  0  0
  191.9350  170.3400  143.2830 O   0  0  0  0  0  0  0  0  0  0  0  0
  1 11  1  0  0  0  0
  1  4  1  0  0  0  0
  3  7  1  0  0  0  0
  3 15  1  0  0  0  0
  3  5  1  0  0  0  0
  5  1  1  0  0  0  0
  6 13  1  0  0  0  0
  6  4  1  0  0  0  0
  6  2  1  0  0  0  0
  7 10  1  0  0  0  0
  8  5  1  0  0  0  0
  8 12  1  0  0  0  0
  9 10  1  0  0  0  0
 10 11  1  0  0  0  0
 11 13  1  0  0  0  0
 12  4  1  0  0  0  0
 14 15  1  0  0  0  0
 16 15  1  0  0  0  0
 17 18  1  0  0  0  0
 17 19  1  0  0  0  0
 18 19  1  0  0  0  0
 19  8  1  0  0  0  0
 20 18  1  0  0  0  0
 21 20  1  0  0  0  0
 22 20  1  0  0  0  0
 23 22  1  0  0  0  0
 24 22  1  0  0  0  0
 24 25  1  0  0  0  0
 26 25  1  0  0  0  0
 27  6  1  0  0  0  0
 28 27  1  0  0  0  0
 29 28  1  0  0  0  0
 29 32  1  0  0  0  0
 30 32  2  0  0  0  0
 32 31  1  0  0  0  0
 33 34  2  0  0  0  0
 33 28  1  0  0  0  0
 35 36  1  0  0  0  0
 35 12  1  0  0  0  0
 37 36  2  0  0  0  0
M  END
>  <MODEL>
9

>  <REMARK>
 VINA RESULT:      -4.8      2.388      5.065
  Name = 
  12 active torsions:
  status: ('A' for Active; 'I' for Inactive)
    1  A    between atoms: C_1  and  C_5
    2  A    between atoms: C_1  and  C_23
    3  A    between atoms: S_2  and  C_6
    4  A    between atoms: C_5  and  C_26
    5  A    between atoms: C_6  and  N_8
    6  A    between atoms: C_6  and  C_31
    7  A    between atoms: C_9  and  C_30
    8  A    between atoms: C_11  and  C_26
    9  A    between atoms: C_14  and  C_31
   10  A    between atoms: N_20  and  C_25
   11  A    between atoms: C_27  and  C_33
   12  A    between atoms: C_29  and  C_33
                            x       y       z     vdW  Elec       q    Type
                         _______ _______ _______ _____ _____    ______ ____

>  <TORSDO>
F 12

$$$$
