=
 OpenBabel11052418203D

 27 31  0  0  1  0  0  0  0  0999 V2000
  188.8890  175.9270  146.3580 C   0  0  0  0  0  2  0  0  0  0  0  0
  188.7260  176.0710  143.9270 N   0  0  0  0  0  0  0  0  0  0  0  0
  191.2260  175.6440  144.1590 N   0  0  0  0  0  2  0  0  0  0  0  0
  188.5310  172.6770  140.8510 C   0  0  0  0  0  3  0  0  0  0  0  0
  190.5660  171.6100  140.3370 O   0  0  0  0  0  1  0  0  0  0  0  0
  187.7150  175.4680  143.2050 O   0  0  0  0  0  0  0  0  0  0  0  0
  190.6370  173.5170  141.9630 C   0  0  1  0  0  3  0  0  0  0  0  0
  193.9330  176.2930  145.4860 N   0  0  0  0  0  0  0  0  0  0  0  0
  191.6950  174.2710  141.1760 C   0  0  0  0  0  1  0  0  0  0  0  0
  193.5210  175.3550  146.5000 C   0  0  0  0  0  3  0  0  0  0  0  0
  189.7120  174.4900  142.6380 C   0  0  0  0  0  0  0  0  0  0  0  0
  188.5180  176.8010  145.1700 C   0  0  1  0  0  3  0  0  0  0  0  0
  189.8670  172.5920  141.0290 C   0  0  0  0  0  0  0  0  0  0  0  0
  187.6920  173.6700  141.5620 C   0  0  0  0  0  3  0  0  0  0  0  0
  190.0040  176.5980  147.1350 C   0  0  0  0  0  2  0  0  0  0  0  0
  189.9470  175.4160  143.5580 C   0  0  0  0  0  0  0  0  0  0  0  0
  193.0720  177.0040  144.8070 C   0  0  0  0  0  3  0  0  0  0  0  0
  188.2910  174.5030  142.3990 C   0  0  0  0  0  0  0  0  0  0  0  0
  192.2760  175.3950  146.9880 C   0  0  0  0  0  3  0  0  0  0  0  0
  191.3850  176.4880  146.4850 C   0  0  1  0  0  3  0  0  0  0  0  0
  191.5920  176.7900  144.9880 C   0  0  2  0  0  3  0  0  0  0  0  0
  184.5280  178.3580  145.5520 C   0  0  0  0  0  3  0  0  0  0  0  0
  187.1270  177.3490  145.2790 C   0  0  0  0  0  0  0  0  0  0  0  0
  186.2320  176.7560  146.1780 C   0  0  0  0  0  3  0  0  0  0  0  0
  184.9350  177.2580  146.3130 C   0  0  0  0  0  3  0  0  0  0  0  0
  185.4180  178.9580  144.6570 C   0  0  0  0  0  3  0  0  0  0  0  0
  186.7160  178.4560  144.5220 C   0  0  0  0  0  3  0  0  0  0  0  0
  1 15  1  0  0  0  0
  2 12  1  0  0  0  0
  3 21  1  0  0  0  0
  4 13  2  0  0  0  0
  4 14  1  0  0  0  0
  5 13  1  0  0  0  0
  6  2  1  0  0  0  0
  7  9  1  6  0  0  0
  7 11  1  0  0  0  0
  8 10  1  0  0  0  0
 10 19  2  0  0  0  0
 11 16  2  0  0  0  0
 12 23  1  1  0  0  0
 12  1  1  0  0  0  0
 13  7  1  0  0  0  0
 14 18  2  0  0  0  0
 16  2  1  0  0  0  0
 16  3  1  0  0  0  0
 17  8  2  0  0  0  0
 18 11  1  0  0  0  0
 18  6  1  0  0  0  0
 20 19  1  6  0  0  0
 20 15  1  0  0  0  0
 21 17  1  1  0  0  0
 21 20  1  0  0  0  0
 22 25  1  0  0  0  0
 23 24  1  0  0  0  0
 24 25  2  0  0  0  0
 26 22  2  0  0  0  0
 27 26  1  0  0  0  0
 27 23  2  0  0  0  0
M  END
>  <MODEL>
1

>  <REMARK>
 VINA RESULT:      -8.4      0.000      0.000
  Name = 
  1 active torsions:
  status: ('A' for Active; 'I' for Inactive)
    1  A    between atoms: C_9  and  C_15
                            x       y       z     vdW  Elec       q    Type
                         _______ _______ _______ _____ _____    ______ ____

>  <TORSDO>
F 1

$$$$
=
 OpenBabel11052418203D

 27 31  0  0  1  0  0  0  0  0999 V2000
  188.6730  176.1920  143.0430 C   0  0  0  0  0  2  0  0  0  0  0  0
  189.7570  175.5330  145.1290 N   0  0  0  0  0  0  0  0  0  0  0  0
  190.6470  173.7060  143.5930 N   0  0  0  0  0  2  0  0  0  0  0  0
  194.0550  176.3280  146.5130 C   0  0  0  0  0  3  0  0  0  0  0  0
  195.7270  174.9600  145.5780 O   0  0  0  0  0  1  0  0  0  0  0  0
  190.3530  176.4380  145.9840 O   0  0  0  0  0  0  0  0  0  0  0  0
  193.3550  174.5150  144.9010 C   0  0  1  0  0  3  0  0  0  0  0  0
  190.1510  171.5420  141.4530 N   0  0  0  0  0  0  0  0  0  0  0  0
  193.4210  173.0480  145.2900 C   0  0  0  0  0  1  0  0  0  0  0  0
  190.2910  172.6210  140.5070 C   0  0  0  0  0  3  0  0  0  0  0  0
  191.9700  175.0450  145.1410 C   0  0  0  0  0  0  0  0  0  0  0  0
  188.4690  175.7460  144.4830 C   0  0  1  0  0  3  0  0  0  0  0  0
  194.3860  175.3030  145.6990 C   0  0  0  0  0  0  0  0  0  0  0  0
  192.6580  176.7890  146.6900 C   0  0  0  0  0  3  0  0  0  0  0  0
  188.0210  175.1850  142.1180 C   0  0  0  0  0  2  0  0  0  0  0  0
  190.8030  174.7000  144.6110 C   0  0  0  0  0  0  0  0  0  0  0  0
  189.6910  171.7330  142.6610 C   0  0  0  0  0  3  0  0  0  0  0  0
  191.7060  176.1560  146.0200 C   0  0  0  0  0  0  0  0  0  0  0  0
  189.6800  173.7910  140.7260 C   0  0  0  0  0  3  0  0  0  0  0  0
  188.8080  173.8840  141.9400 C   0  0  1  0  0  3  0  0  0  0  0  0
  189.3830  173.1240  143.1500 C   0  0  2  0  0  3  0  0  0  0  0  0
  185.9360  178.4730  146.6360 C   0  0  0  0  0  3  0  0  0  0  0  0
  187.5980  176.6910  145.2540 C   0  0  0  0  0  0  0  0  0  0  0  0
  187.1440  177.8580  144.6290 C   0  0  0  0  0  3  0  0  0  0  0  0
  186.3160  178.7490  145.3190 C   0  0  0  0  0  3  0  0  0  0  0  0
  186.3810  177.3070  147.2630 C   0  0  0  0  0  3  0  0  0  0  0  0
  187.2090  176.4160  146.5740 C   0  0  0  0  0  3  0  0  0  0  0  0
  1 12  1  0  0  0  0
  2  6  1  0  0  0  0
  3 16  1  0  0  0  0
  4 14  1  0  0  0  0
  5 13  1  0  0  0  0
  6 18  1  0  0  0  0
  7 11  1  0  0  0  0
  7  9  1  1  0  0  0
  7 13  1  0  0  0  0
  8 17  2  0  0  0  0
 10 19  2  0  0  0  0
 10  8  1  0  0  0  0
 11 18  1  0  0  0  0
 12  2  1  0  0  0  0
 12 23  1  1  0  0  0
 13  4  2  0  0  0  0
 15  1  1  0  0  0  0
 16  2  1  0  0  0  0
 16 11  2  0  0  0  0
 18 14  2  0  0  0  0
 20 19  1  6  0  0  0
 20 15  1  0  0  0  0
 20 21  1  0  0  0  0
 21 17  1  6  0  0  0
 21  3  1  0  0  0  0
 22 26  1  0  0  0  0
 23 27  1  0  0  0  0
 24 23  2  0  0  0  0
 24 25  1  0  0  0  0
 25 22  2  0  0  0  0
 27 26  2  0  0  0  0
M  END
>  <MODEL>
2

>  <REMARK>
 VINA RESULT:      -8.0      2.393      5.039
  Name = 
  1 active torsions:
  status: ('A' for Active; 'I' for Inactive)
    1  A    between atoms: C_9  and  C_15
                            x       y       z     vdW  Elec       q    Type
                         _______ _______ _______ _____ _____    ______ ____

>  <TORSDO>
F 1

$$$$
=
 OpenBabel11052418203D

 27 31  0  0  1  0  0  0  0  0999 V2000
  189.3800  175.7270  142.5870 C   0  0  0  0  0  2  0  0  0  0  0  0
  190.2660  175.1590  144.7890 N   0  0  0  0  0  0  0  0  0  0  0  0
  191.2690  173.2550  143.4260 N   0  0  0  0  0  2  0  0  0  0  0  0
  194.4320  175.9870  146.5160 C   0  0  0  0  0  3  0  0  0  0  0  0
  196.1650  174.5640  145.7990 O   0  0  0  0  0  1  0  0  0  0  0  0
  190.7930  176.0990  145.6520 O   0  0  0  0  0  0  0  0  0  0  0  0
  193.8570  174.1050  144.9330 C   0  0  1  0  0  3  0  0  0  0  0  0
  190.9410  170.9960  141.3530 N   0  0  0  0  0  0  0  0  0  0  0  0
  193.8720  172.6570  145.3940 C   0  0  0  0  0  1  0  0  0  0  0  0
  191.1770  172.0280  140.3750 C   0  0  0  0  0  3  0  0  0  0  0  0
  192.4640  174.6560  145.0230 C   0  0  0  0  0  0  0  0  0  0  0  0
  189.0430  175.3510  144.0220 C   0  0  1  0  0  3  0  0  0  0  0  0
  194.8230  174.9220  145.7830 C   0  0  0  0  0  0  0  0  0  0  0  0
  193.0300  176.4660  146.5440 C   0  0  0  0  0  3  0  0  0  0  0  0
  188.8020  174.6820  141.6550 C   0  0  0  0  0  2  0  0  0  0  0  0
  191.3450  174.2950  144.4070 C   0  0  0  0  0  0  0  0  0  0  0  0
  190.3770  171.2470  142.5050 C   0  0  0  0  0  3  0  0  0  0  0  0
  192.1350  175.8100  145.8210 C   0  0  0  0  0  0  0  0  0  0  0  0
  190.5620  173.2110  140.4830 C   0  0  0  0  0  3  0  0  0  0  0  0
  189.5870  173.3680  141.6080 C   0  0  1  0  0  3  0  0  0  0  0  0
  190.0420  172.6620  142.9000 C   0  0  2  0  0  3  0  0  0  0  0  0
  186.4230  178.1740  145.9320 C   0  0  0  0  0  3  0  0  0  0  0  0
  188.1180  176.3380  144.6660 C   0  0  0  0  0  0  0  0  0  0  0  0
  187.7230  176.1320  145.9930 C   0  0  0  0  0  3  0  0  0  0  0  0
  186.8750  177.0470  146.6240 C   0  0  0  0  0  3  0  0  0  0  0  0
  186.8190  178.3890  144.6090 C   0  0  0  0  0  3  0  0  0  0  0  0
  187.6670  177.4740  143.9770 C   0  0  0  0  0  3  0  0  0  0  0  0
  1 12  1  0  0  0  0
  2  6  1  0  0  0  0
  3 16  1  0  0  0  0
  4 14  1  0  0  0  0
  6 18  1  0  0  0  0
  7 11  1  0  0  0  0
  7  9  1  1  0  0  0
  7 13  1  0  0  0  0
  8 17  2  0  0  0  0
 10 19  2  0  0  0  0
 10  8  1  0  0  0  0
 11 18  1  0  0  0  0
 12 23  1  1  0  0  0
 12  2  1  0  0  0  0
 13  5  1  0  0  0  0
 13  4  2  0  0  0  0
 15  1  1  0  0  0  0
 16  2  1  0  0  0  0
 16 11  2  0  0  0  0
 18 14  2  0  0  0  0
 20 19  1  6  0  0  0
 20 15  1  0  0  0  0
 20 21  1  0  0  0  0
 21 17  1  6  0  0  0
 21  3  1  0  0  0  0
 22 25  1  0  0  0  0
 23 24  1  0  0  0  0
 24 25  2  0  0  0  0
 26 22  2  0  0  0  0
 27 26  1  0  0  0  0
 27 23  2  0  0  0  0
M  END
>  <MODEL>
3

>  <REMARK>
 VINA RESULT:      -7.6      2.515      5.137
  Name = 
  1 active torsions:
  status: ('A' for Active; 'I' for Inactive)
    1  A    between atoms: C_9  and  C_15
                            x       y       z     vdW  Elec       q    Type
                         _______ _______ _______ _____ _____    ______ ____

>  <TORSDO>
F 1

$$$$
=
 OpenBabel11052418203D

 27 31  0  0  1  0  0  0  0  0999 V2000
  190.7890  175.1820  142.5210 C   0  0  0  0  0  2  0  0  0  0  0  0
  188.3520  175.2550  142.6280 N   0  0  0  0  0  0  0  0  0  0  0  0
  188.9000  175.8520  145.0430 N   0  0  0  0  0  2  0  0  0  0  0  0
  185.5740  178.8990  142.4620 C   0  0  0  0  0  3  0  0  0  0  0  0
  185.3850  180.1650  144.4380 O   0  0  0  0  0  1  0  0  0  0  0  0
  187.5750  175.8430  141.6500 O   0  0  0  0  0  0  0  0  0  0  0  0
  186.8410  178.1240  144.5040 C   0  0  0  0  0  0  0  0  0  0  0  0
  190.4640  175.2930  147.6420 N   0  0  0  0  0  0  0  0  0  0  0  0
  186.1170  177.5330  145.7010 C   0  0  0  0  0  1  0  0  0  0  0  0
  191.5010  176.0970  147.0440 C   0  0  0  0  0  3  0  0  0  0  0  0
  187.3210  177.0240  143.6020 C   0  0  0  0  0  0  0  0  0  0  0  0
  189.4970  174.3980  142.3550 C   0  0  1  0  0  3  0  0  0  0  0  0
  185.9080  179.0710  143.7580 C   0  0  0  0  0  0  0  0  0  0  0  0
  186.0990  177.7810  141.6420 C   0  0  0  0  0  3  0  0  0  0  0  0
  191.6270  174.5300  143.6020 C   0  0  0  0  0  2  0  0  0  0  0  0
  188.1800  176.0350  143.8190 C   0  0  0  0  0  0  0  0  0  0  0  0
  189.6340  174.5850  146.9230 C   0  0  0  0  0  3  0  0  0  0  0  0
  186.9240  176.9220  142.2210 C   0  0  1  0  0  3  0  0  0  0  0  0
  191.8400  175.9150  145.7630 C   0  0  0  0  0  3  0  0  0  0  0  0
  191.1490  174.8080  145.0300 C   0  0  1  0  0  3  0  0  0  0  0  0
  189.6650  174.6660  145.4180 C   0  0  2  0  0  3  0  0  0  0  0  0
  189.2910  172.4810  138.5110 C   0  0  0  0  0  3  0  0  0  0  0  0
  189.4010  173.7360  141.0140 C   0  0  0  0  0  0  0  0  0  0  0  0
  190.5010  173.7910  140.1500 C   0  0  0  0  0  3  0  0  0  0  0  0
  190.4450  173.1660  138.9000 C   0  0  0  0  0  3  0  0  0  0  0  0
  188.1920  172.4170  139.3720 C   0  0  0  0  0  3  0  0  0  0  0  0
  188.2470  173.0410  140.6220 C   0  0  0  0  0  3  0  0  0  0  0  0
  1 15  1  0  0  0  0
  2 16  1  0  0  0  0
  3 21  1  0  0  0  0
  4 13  1  0  0  0  0
  6 18  1  0  0  0  0
  6  2  1  0  0  0  0
  7  9  1  0  0  0  0
 10  8  1  0  0  0  0
 11 16  2  0  0  0  0
 11  7  1  0  0  0  0
 12 23  1  6  0  0  0
 12  1  1  0  0  0  0
 12  2  1  0  0  0  0
 13  5  1  0  0  0  0
 13  7  2  0  0  0  0
 14  4  2  0  0  0  0
 16  3  1  0  0  0  0
 17  8  2  0  0  0  0
 18 14  1  6  0  0  0
 18 11  1  0  0  0  0
 19 10  2  0  0  0  0
 20 15  1  6  0  0  0
 20 21  1  0  0  0  0
 20 19  1  0  0  0  0
 21 17  1  1  0  0  0
 22 25  2  0  0  0  0
 22 26  1  0  0  0  0
 24 23  2  0  0  0  0
 25 24  1  0  0  0  0
 26 27  2  0  0  0  0
 27 23  1  0  0  0  0
M  END
>  <MODEL>
4

>  <REMARK>
 VINA RESULT:      -7.5      2.038      5.895
  Name = 
  1 active torsions:
  status: ('A' for Active; 'I' for Inactive)
    1  A    between atoms: C_9  and  C_15
                            x       y       z     vdW  Elec       q    Type
                         _______ _______ _______ _____ _____    ______ ____

>  <TORSDO>
F 1

$$$$
=
 OpenBabel11052418203D

 27 31  0  0  1  0  0  0  0  0999 V2000
  190.7640  174.1610  144.7860 C   0  0  0  0  0  2  0  0  0  0  0  0
  189.8550  176.4250  144.8620 N   0  0  0  0  0  0  0  0  0  0  0  0
  188.2440  175.3770  143.1910 N   0  0  0  0  0  2  0  0  0  0  0  0
  186.2430  177.9960  147.2090 C   0  0  0  0  0  3  0  0  0  0  0  0
  184.1200  177.5100  146.3150 O   0  0  0  0  0  1  0  0  0  0  0  0
  189.6890  177.1280  146.0390 O   0  0  0  0  0  0  0  0  0  0  0  0
  186.1250  176.7300  145.0280 C   0  0  1  0  0  3  0  0  0  0  0  0
  187.7500  173.6860  140.6590 N   0  0  0  0  0  0  0  0  0  0  0  0
  185.6840  177.4120  143.7450 C   0  0  0  0  0  1  0  0  0  0  0  0
  187.8000  172.5570  141.5550 C   0  0  0  0  0  3  0  0  0  0  0  0
  187.6240  176.7330  145.1190 C   0  0  0  0  0  0  0  0  0  0  0  0
  191.0370  175.6370  144.5420 C   0  0  1  0  0  3  0  0  0  0  0  0
  185.5050  177.4400  146.2250 C   0  0  0  0  0  0  0  0  0  0  0  0
  187.7240  177.9500  147.2210 C   0  0  0  0  0  3  0  0  0  0  0  0
  190.9430  173.4050  143.4850 C   0  0  0  0  0  2  0  0  0  0  0  0
  188.5440  176.1820  144.3360 C   0  0  0  0  0  0  0  0  0  0  0  0
  188.4200  174.7840  140.8900 C   0  0  0  0  0  3  0  0  0  0  0  0
  188.3340  177.3400  146.2150 C   0  0  0  0  0  0  0  0  0  0  0  0
  188.7570  172.4780  142.4860 C   0  0  0  0  0  3  0  0  0  0  0  0
  189.7860  173.5650  142.4950 C   0  0  1  0  0  3  0  0  0  0  0  0
  189.1980  174.9510  142.1690 C   0  0  2  0  0  3  0  0  0  0  0  0
  194.5300  177.0760  146.5970 C   0  0  0  0  0  3  0  0  0  0  0  0
  192.2540  176.1190  145.2720 C   0  0  0  0  0  0  0  0  0  0  0  0
  193.2460  176.8040  144.5610 C   0  0  0  0  0  3  0  0  0  0  0  0
  194.3830  177.2800  145.2210 C   0  0  0  0  0  3  0  0  0  0  0  0
  193.5400  176.3980  147.3130 C   0  0  0  0  0  3  0  0  0  0  0  0
  192.4030  175.9220  146.6540 C   0  0  0  0  0  3  0  0  0  0  0  0
  2  6  1  0  0  0  0
  3 16  1  0  0  0  0
  4 14  1  0  0  0  0
  6 18  1  0  0  0  0
  7  9  1  6  0  0  0
  7 11  1  0  0  0  0
  7 13  1  0  0  0  0
  8 17  2  0  0  0  0
  8 10  1  0  0  0  0
 10 19  2  0  0  0  0
 11 18  1  0  0  0  0
 12  1  1  0  0  0  0
 12  2  1  0  0  0  0
 12 23  1  1  0  0  0
 13  5  1  0  0  0  0
 13  4  2  0  0  0  0
 15  1  1  0  0  0  0
 16  2  1  0  0  0  0
 16 11  2  0  0  0  0
 18 14  2  0  0  0  0
 20 19  1  1  0  0  0
 20 15  1  0  0  0  0
 21 17  1  6  0  0  0
 21 20  1  0  0  0  0
 21  3  1  0  0  0  0
 22 26  1  0  0  0  0
 23 27  1  0  0  0  0
 24 25  1  0  0  0  0
 24 23  2  0  0  0  0
 25 22  2  0  0  0  0
 27 26  2  0  0  0  0
M  END
>  <MODEL>
5

>  <REMARK>
 VINA RESULT:      -7.4      2.261      6.568
  Name = 
  1 active torsions:
  status: ('A' for Active; 'I' for Inactive)
    1  A    between atoms: C_9  and  C_15
                            x       y       z     vdW  Elec       q    Type
                         _______ _______ _______ _____ _____    ______ ____

>  <TORSDO>
F 1

$$$$
=
 OpenBabel11052418203D

 27 31  0  0  1  0  0  0  0  0999 V2000
  191.4150  175.3070  146.2490 C   0  0  0  0  0  2  0  0  0  0  0  0
  190.6950  175.0220  143.9340 N   0  0  0  0  0  0  0  0  0  0  0  0
  193.2080  174.7310  143.6360 N   0  0  0  0  0  2  0  0  0  0  0  0
  190.0650  171.1400  141.5760 C   0  0  0  0  0  3  0  0  0  0  0  0
  192.0060  170.0740  140.7750 O   0  0  0  0  0  1  0  0  0  0  0  0
  189.5960  174.2660  143.5770 O   0  0  0  0  0  0  0  0  0  0  0  0
  192.2990  172.2360  142.0110 C   0  0  1  0  0  3  0  0  0  0  0  0
  196.0880  175.6980  144.1650 N   0  0  0  0  0  0  0  0  0  0  0  0
  193.0920  172.8790  140.8860 C   0  0  0  0  0  1  0  0  0  0  0  0
  195.9880  174.9350  145.3840 C   0  0  0  0  0  3  0  0  0  0  0  0
  191.4800  173.2770  142.7190 C   0  0  0  0  0  0  0  0  0  0  0  0
  190.7190  175.9480  145.0570 C   0  0  1  0  0  3  0  0  0  0  0  0
  191.4090  171.1350  141.4460 C   0  0  0  0  0  0  0  0  0  0  0  0
  189.3370  172.2100  142.2970 C   0  0  0  0  0  3  0  0  0  0  0  0
  192.6220  176.1430  146.6230 C   0  0  0  0  0  2  0  0  0  0  0  0
  191.8470  174.3570  143.3980 C   0  0  0  0  0  0  0  0  0  0  0  0
  195.0450  176.2480  143.6030 C   0  0  0  0  0  3  0  0  0  0  0  0
  190.0450  173.1980  142.8240 C   0  0  0  0  0  0  0  0  0  0  0  0
  194.8860  175.0150  146.1390 C   0  0  0  0  0  3  0  0  0  0  0  0
  193.8250  175.9710  145.6920 C   0  0  1  0  0  3  0  0  0  0  0  0
  193.6640  176.0160  144.1600 C   0  0  2  0  0  3  0  0  0  0  0  0
  186.8120  177.4000  146.1150 C   0  0  0  0  0  3  0  0  0  0  0  0
  189.3520  176.4560  145.4020 C   0  0  0  0  0  0  0  0  0  0  0  0
  188.7040  175.9470  146.5340 C   0  0  0  0  0  3  0  0  0  0  0  0
  187.4350  176.4160  146.8880 C   0  0  0  0  0  3  0  0  0  0  0  0
  187.4560  177.9160  144.9880 C   0  0  0  0  0  3  0  0  0  0  0  0
  188.7250  177.4470  144.6330 C   0  0  0  0  0  3  0  0  0  0  0  0
  1 15  1  0  0  0  0
  2 12  1  0  0  0  0
  3 21  1  0  0  0  0
  4 14  1  0  0  0  0
  5 13  1  0  0  0  0
  6  2  1  0  0  0  0
  7  9  1  6  0  0  0
  7 11  1  0  0  0  0
  8 10  1  0  0  0  0
 10 19  2  0  0  0  0
 11 18  1  0  0  0  0
 11 16  2  0  0  0  0
 12 23  1  1  0  0  0
 12  1  1  0  0  0  0
 13  4  2  0  0  0  0
 13  7  1  0  0  0  0
 14 18  2  0  0  0  0
 16  3  1  0  0  0  0
 16  2  1  0  0  0  0
 17  8  2  0  0  0  0
 18  6  1  0  0  0  0
 20 19  1  6  0  0  0
 20 15  1  0  0  0  0
 21 17  1  6  0  0  0
 21 20  1  0  0  0  0
 22 25  1  0  0  0  0
 23 24  1  0  0  0  0
 24 25  2  0  0  0  0
 26 22  2  0  0  0  0
 27 26  1  0  0  0  0
 27 23  2  0  0  0  0
M  END
>  <MODEL>
6

>  <REMARK>
 VINA RESULT:      -7.3      1.659      2.392
  Name = 
  1 active torsions:
  status: ('A' for Active; 'I' for Inactive)
    1  A    between atoms: C_9  and  C_15
                            x       y       z     vdW  Elec       q    Type
                         _______ _______ _______ _____ _____    ______ ____

>  <TORSDO>
F 1

$$$$
=
 OpenBabel11052418203D

 27 31  0  0  1  0  0  0  0  0999 V2000
  188.5310  176.1680  145.1720 C   0  0  0  0  0  2  0  0  0  0  0  0
  189.0920  175.9010  142.8120 N   0  0  0  0  0  0  0  0  0  0  0  0
  191.3960  175.5450  143.8380 N   0  0  0  0  0  2  0  0  0  0  0  0
  189.6720  172.0360  140.4130 C   0  0  0  0  0  3  0  0  0  0  0  0
  191.7240  170.9200  140.7040 O   0  0  0  0  0  1  0  0  0  0  0  0
  188.3140  175.1740  141.9320 O   0  0  0  0  0  0  0  0  0  0  0  0
  191.3910  173.0730  141.9440 C   0  0  0  0  0  0  0  0  0  0  0  0
  193.6200  176.4360  145.7810 N   0  0  0  0  0  0  0  0  0  0  0  0
  192.6630  173.6960  141.3930 C   0  0  0  0  0  1  0  0  0  0  0  0
  192.8920  175.6760  146.7660 C   0  0  0  0  0  3  0  0  0  0  0  0
  190.3490  174.1360  142.1480 C   0  0  0  0  0  0  0  0  0  0  0  0
  188.5580  176.8260  143.8010 C   0  0  1  0  0  3  0  0  0  0  0  0
  190.8930  171.9960  140.9890 C   0  0  0  0  0  0  0  0  0  0  0  0
  188.7010  173.1260  140.6730 C   0  0  0  0  0  3  0  0  0  0  0  0
  189.3950  176.9720  146.1220 C   0  0  0  0  0  2  0  0  0  0  0  0
  190.3410  175.2060  142.9320 C   0  0  0  0  0  0  0  0  0  0  0  0
  193.0240  177.0130  144.7710 C   0  0  0  0  0  3  0  0  0  0  0  0
  189.0620  174.0940  141.5020 C   0  0  1  0  0  3  0  0  0  0  0  0
  191.5610  175.7850  146.8510 C   0  0  0  0  0  3  0  0  0  0  0  0
  190.9010  176.7690  145.9370 C   0  0  1  0  0  3  0  0  0  0  0  0
  191.5480  176.8170  144.5400 C   0  0  2  0  0  3  0  0  0  0  0  0
  184.7010  178.3950  142.7290 C   0  0  0  0  0  3  0  0  0  0  0  0
  187.2190  177.3700  143.4040 C   0  0  0  0  0  0  0  0  0  0  0  0
  186.1120  177.1090  144.2190 C   0  0  0  0  0  3  0  0  0  0  0  0
  184.8550  177.6190  143.8820 C   0  0  0  0  0  3  0  0  0  0  0  0
  185.8040  178.6640  141.9150 C   0  0  0  0  0  3  0  0  0  0  0  0
  187.0610  178.1540  142.2510 C   0  0  0  0  0  3  0  0  0  0  0  0
  1 15  1  0  0  0  0
  2 16  1  0  0  0  0
  2 12  1  0  0  0  0
  3 21  1  0  0  0  0
  4 14  2  0  0  0  0
  4 13  1  0  0  0  0
  5 13  1  0  0  0  0
  6  2  1  0  0  0  0
  7 11  1  0  0  0  0
  8 10  1  0  0  0  0
  9  7  1  0  0  0  0
 10 19  2  0  0  0  0
 11 16  2  0  0  0  0
 12 23  1  6  0  0  0
 12  1  1  0  0  0  0
 13  7  2  0  0  0  0
 16  3  1  0  0  0  0
 17  8  2  0  0  0  0
 18 14  1  1  0  0  0
 18  6  1  0  0  0  0
 18 11  1  0  0  0  0
 20 15  1  6  0  0  0
 20 19  1  0  0  0  0
 21 17  1  1  0  0  0
 21 20  1  0  0  0  0
 22 25  1  0  0  0  0
 23 24  1  0  0  0  0
 25 24  2  0  0  0  0
 26 27  1  0  0  0  0
 26 22  2  0  0  0  0
 27 23  2  0  0  0  0
M  END
>  <MODEL>
7

>  <REMARK>
 VINA RESULT:      -7.2      1.273      1.465
  Name = 
  1 active torsions:
  status: ('A' for Active; 'I' for Inactive)
    1  A    between atoms: C_9  and  C_15
                            x       y       z     vdW  Elec       q    Type
                         _______ _______ _______ _____ _____    ______ ____

>  <TORSDO>
F 1

$$$$
=
 OpenBabel11052418203D

 27 31  0  0  1  0  0  0  0  0999 V2000
  189.4730  174.1630  144.7680 C   0  0  0  0  0  2  0  0  0  0  0  0
  189.0270  176.5000  144.2240 N   0  0  0  0  0  0  0  0  0  0  0  0
  188.0820  175.3910  142.1350 N   0  0  0  0  0  2  0  0  0  0  0  0
  185.1100  178.8500  144.6300 C   0  0  0  0  0  3  0  0  0  0  0  0
  183.4890  178.4790  142.9640 O   0  0  0  0  0  1  0  0  0  0  0  0
  188.5220  177.4010  145.1410 O   0  0  0  0  0  0  0  0  0  0  0  0
  185.6720  177.2670  142.7440 C   0  0  1  0  0  3  0  0  0  0  0  0
  188.3750  173.3790  139.8170 N   0  0  0  0  0  0  0  0  0  0  0  0
  185.9210  177.7780  141.3350 C   0  0  0  0  0  1  0  0  0  0  0  0
  187.8550  172.4140  140.7530 C   0  0  0  0  0  3  0  0  0  0  0  0
  186.9780  177.1070  143.4680 C   0  0  0  0  0  0  0  0  0  0  0  0
  190.0780  175.5370  144.5210 C   0  0  1  0  0  3  0  0  0  0  0  0
  184.7530  178.2310  143.4840 C   0  0  0  0  0  0  0  0  0  0  0  0
  186.4240  178.6320  145.2790 C   0  0  0  0  0  3  0  0  0  0  0  0
  190.0310  173.1890  143.7500 C   0  0  0  0  0  2  0  0  0  0  0  0
  188.0240  176.3310  143.2130 C   0  0  0  0  0  0  0  0  0  0  0  0
  189.0740  174.4130  140.2030 C   0  0  0  0  0  3  0  0  0  0  0  0
  187.2740  177.7980  144.6980 C   0  0  0  0  0  0  0  0  0  0  0  0
  188.3180  172.3760  142.0070 C   0  0  0  0  0  3  0  0  0  0  0  0
  189.4280  173.3200  142.3500 C   0  0  1  0  0  3  0  0  0  0  0  0
  189.2780  174.6940  141.6690 C   0  0  2  0  0  3  0  0  0  0  0  0
  192.5610  176.7750  147.8060 C   0  0  0  0  0  3  0  0  0  0  0  0
  190.9540  175.9840  145.6510 C   0  0  0  0  0  0  0  0  0  0  0  0
  190.4260  176.0220  146.9470 C   0  0  0  0  0  3  0  0  0  0  0  0
  191.2270  176.4180  148.0220 C   0  0  0  0  0  3  0  0  0  0  0  0
  193.0960  176.7340  146.5160 C   0  0  0  0  0  3  0  0  0  0  0  0
  192.2960  176.3380  145.4400 C   0  0  0  0  0  3  0  0  0  0  0  0
  2 12  1  0  0  0  0
  2  6  1  0  0  0  0
  3 16  1  0  0  0  0
  4 14  1  0  0  0  0
  5 13  1  0  0  0  0
  7  9  1  6  0  0  0
  7 11  1  0  0  0  0
  7 13  1  0  0  0  0
  8 17  2  0  0  0  0
  8 10  1  0  0  0  0
 10 19  2  0  0  0  0
 11 18  1  0  0  0  0
 12  1  1  0  0  0  0
 12 23  1  1  0  0  0
 13  4  2  0  0  0  0
 15  1  1  0  0  0  0
 16 11  2  0  0  0  0
 16  2  1  0  0  0  0
 18  6  1  0  0  0  0
 18 14  2  0  0  0  0
 20 19  1  1  0  0  0
 20 15  1  0  0  0  0
 21 17  1  6  0  0  0
 21  3  1  0  0  0  0
 21 20  1  0  0  0  0
 22 25  1  0  0  0  0
 23 24  1  0  0  0  0
 24 25  2  0  0  0  0
 26 22  2  0  0  0  0
 27 23  2  0  0  0  0
 27 26  1  0  0  0  0
M  END
>  <MODEL>
8

>  <REMARK>
 VINA RESULT:      -7.2      2.309      6.071
  Name = 
  1 active torsions:
  status: ('A' for Active; 'I' for Inactive)
    1  A    between atoms: C_9  and  C_15
                            x       y       z     vdW  Elec       q    Type
                         _______ _______ _______ _____ _____    ______ ____

>  <TORSDO>
F 1

$$$$
=
 OpenBabel11052418203D

 27 31  0  0  1  0  0  0  0  0999 V2000
  188.5560  176.2180  142.1620 C   0  0  0  0  0  2  0  0  0  0  0  0
  189.8190  175.6970  144.1850 N   0  0  0  0  0  0  0  0  0  0  0  0
  190.6960  173.8600  142.6530 N   0  0  0  0  0  2  0  0  0  0  0  0
  194.1560  176.7650  145.2220 C   0  0  0  0  0  3  0  0  0  0  0  0
  195.8290  175.4490  144.2160 O   0  0  0  0  0  1  0  0  0  0  0  0
  190.4250  176.6640  144.9620 O   0  0  0  0  0  0  0  0  0  0  0  0
  193.4420  174.8570  143.7300 C   0  0  1  0  0  3  0  0  0  0  0  0
  190.1670  171.5910  140.6320 N   0  0  0  0  0  0  0  0  0  0  0  0
  193.6140  173.4120  144.1640 C   0  0  0  0  0  1  0  0  0  0  0  0
  190.1800  172.6390  139.6410 C   0  0  0  0  0  3  0  0  0  0  0  0
  192.0510  175.3240  144.0520 C   0  0  0  0  0  0  0  0  0  0  0  0
  188.4790  175.8180  143.6280 C   0  0  1  0  0  3  0  0  0  0  0  0
  194.4830  175.7270  144.4230 C   0  0  0  0  0  0  0  0  0  0  0  0
  192.7520  177.1600  145.4840 C   0  0  0  0  0  3  0  0  0  0  0  0
  187.8950  175.1430  141.3230 C   0  0  0  0  0  2  0  0  0  0  0  0
  190.8700  174.9000  143.6210 C   0  0  0  0  0  0  0  0  0  0  0  0
  189.7840  171.8050  141.8630 C   0  0  0  0  0  3  0  0  0  0  0  0
  191.7900  176.4540  144.9080 C   0  0  0  0  0  0  0  0  0  0  0  0
  189.5240  173.7830  139.8630 C   0  0  0  0  0  3  0  0  0  0  0  0
  188.7370  173.8790  141.1330 C   0  0  1  0  0  3  0  0  0  0  0  0
  189.4370  173.1970  142.3240 C   0  0  2  0  0  3  0  0  0  0  0  0
  186.0400  178.4690  145.9760 C   0  0  0  0  0  3  0  0  0  0  0  0
  187.6160  176.7470  144.4260 C   0  0  0  0  0  0  0  0  0  0  0  0
  187.3260  176.4290  145.7580 C   0  0  0  0  0  3  0  0  0  0  0  0
  186.5380  177.2860  146.5310 C   0  0  0  0  0  3  0  0  0  0  0  0
  186.3300  178.7950  144.6490 C   0  0  0  0  0  3  0  0  0  0  0  0
  187.1180  177.9380  143.8750 C   0  0  0  0  0  3  0  0  0  0  0  0
  1 12  1  0  0  0  0
  2  6  1  0  0  0  0
  3 16  1  0  0  0  0
  4 14  1  0  0  0  0
  5 13  1  0  0  0  0
  7 11  1  0  0  0  0
  7  9  1  1  0  0  0
  7 13  1  0  0  0  0
  8 17  2  0  0  0  0
 10 19  2  0  0  0  0
 10  8  1  0  0  0  0
 11 18  1  0  0  0  0
 12  2  1  0  0  0  0
 12 23  1  1  0  0  0
 13  4  2  0  0  0  0
 15  1  1  0  0  0  0
 16 11  2  0  0  0  0
 16  2  1  0  0  0  0
 18  6  1  0  0  0  0
 18 14  2  0  0  0  0
 20 19  1  6  0  0  0
 20 15  1  0  0  0  0
 20 21  1  0  0  0  0
 21 17  1  6  0  0  0
 21  3  1  0  0  0  0
 22 25  1  0  0  0  0
 23 24  1  0  0  0  0
 24 25  2  0  0  0  0
 26 22  2  0  0  0  0
 27 23  2  0  0  0  0
 27 26  1  0  0  0  0
M  END
>  <MODEL>
9

>  <REMARK>
 VINA RESULT:      -7.2      2.393      4.976
  Name = 
  1 active torsions:
  status: ('A' for Active; 'I' for Inactive)
    1  A    between atoms: C_9  and  C_15
                            x       y       z     vdW  Elec       q    Type
                         _______ _______ _______ _____ _____    ______ ____

>  <TORSDO>
F 1

$$$$
