=
 OpenBabel11052419043D

 32 37  0  0  1  0  0  0  0  0999 V2000
  187.1750  176.6110  141.5300 C   0  0  0  0  0  0  0  0  0  0  0  0
  185.6320  177.5330  143.1640 C   0  0  0  0  0  0  0  0  0  0  0  0
  187.5200  176.4160  140.1830 C   0  0  0  0  0  3  0  0  0  0  0  0
  185.9760  177.2780  141.8370 C   0  0  0  0  0  0  0  0  0  0  0  0
  184.4340  178.1940  143.4740 C   0  0  0  0  0  0  0  0  0  0  0  0
  186.3160  176.8210  147.9740 C   0  0  0  0  0  2  0  0  0  0  0  0
  186.4850  177.1160  144.1910 C   0  0  0  0  0  0  0  0  0  0  0  0
  184.4590  178.2910  147.2120 C   0  0  0  0  0  2  0  0  0  0  0  0
  184.9370  178.0780  145.7980 C   0  0  0  0  0  0  0  0  0  0  0  0
  185.1210  177.7280  140.8170 C   0  0  0  0  0  0  0  0  0  0  0  0
  184.1120  178.4340  144.7730 N   0  0  0  0  0  0  0  0  0  0  0  0
  183.9650  178.3700  141.1400 N   0  0  0  0  0  0  0  0  0  0  0  0
  185.4820  177.5410  139.4820 C   0  0  0  0  0  3  0  0  0  0  0  0
  187.6380  176.4610  143.8790 N   0  0  0  0  0  0  0  0  0  0  0  0
  188.0090  176.2060  142.5920 C   0  0  0  0  0  0  0  0  0  0  0  0
  186.1350  177.3670  145.5240 C   0  0  0  0  0  0  0  0  0  0  0  0
  183.5930  178.5940  142.4340 C   0  0  0  0  0  0  0  0  0  0  0  0
  186.6800  176.8870  139.1670 C   0  0  0  0  0  3  0  0  0  0  0  0
  185.5690  178.1160  148.2460 C   0  0  0  0  0  2  0  0  0  0  0  0
  187.0520  176.9350  146.6420 C   0  0  0  0  0  2  0  0  0  0  0  0
  190.1570  173.0880  142.5450 N   0  0  0  0  0  0  0  0  0  0  0  0
  192.1920  174.9190  141.8000 C   0  0  0  0  0  1  0  0  0  0  0  0
  189.8010  171.7620  143.0260 C   0  0  0  0  0  1  0  0  0  0  0  0
  190.8530  177.2980  142.8410 C   0  0  0  0  0  1  0  0  0  0  0  0
  189.2500  175.3890  142.3330 C   0  0  1  0  0  3  0  0  0  0  0  0
  191.1490  173.5980  143.4950 C   0  0  0  0  0  2  0  0  0  0  0  0
  190.4380  175.8710  143.1840 C   0  0  1  0  0  3  0  0  0  0  0  0
  188.9470  173.9120  142.6400 C   0  0  1  0  0  3  0  0  0  0  0  0
  187.9920  173.4490  141.7440 F   0  0  0  0  0  0  0  0  0  0  0  0
  191.5880  174.9480  143.1330 N   0  0  0  0  0  0  0  0  0  0  0  0
  182.3840  179.2290  142.7280 O   0  0  0  0  0  0  0  0  0  0  0  0
  181.2080  178.9770  141.9760 C   0  0  0  0  0  1  0  0  0  0  0  0
  1  4  2  0  0  0  0
  1 15  1  0  0  0  0
  2  5  2  0  0  0  0
  2  7  1  0  0  0  0
  3  1  1  0  0  0  0
  4  2  1  0  0  0  0
  5 11  1  0  0  0  0
  6 19  1  0  0  0  0
  7 16  2  0  0  0  0
  8 19  1  0  0  0  0
  9  8  1  0  0  0  0
 10 12  1  0  0  0  0
 10  4  1  0  0  0  0
 11  9  2  0  0  0  0
 12 17  2  0  0  0  0
 13 10  2  0  0  0  0
 14  7  1  0  0  0  0
 15 14  2  0  0  0  0
 16  9  1  0  0  0  0
 16 20  1  0  0  0  0
 17 31  1  0  0  0  0
 17  5  1  0  0  0  0
 18 13  1  0  0  0  0
 18  3  2  0  0  0  0
 20  6  1  0  0  0  0
 21 28  1  0  0  0  0
 21 23  1  0  0  0  0
 21 26  1  0  0  0  0
 22 30  1  0  0  0  0
 25 15  1  1  0  0  0
 25 28  1  0  0  0  0
 25 27  1  0  0  0  0
 27 24  1  6  0  0  0
 28 29  1  6  0  0  0
 30 27  1  0  0  0  0
 30 26  1  0  0  0  0
 32 31  1  0  0  0  0
M  END
>  <MODEL>
1

>  <REMARK>
 VINA RESULT:      -7.9      0.000      0.000
  Name = 
  2 active torsions:
  status: ('A' for Active; 'I' for Inactive)
    1  A    between atoms: O_13  and  C_29
    2  A    between atoms: C_16  and  C_27
                            x       y       z     vdW  Elec       q    Type
                         _______ _______ _______ _____ _____    ______ ____

>  <TORSDO>
F 2

$$$$
=
 OpenBabel11052419043D

 32 37  0  0  1  0  0  0  0  0999 V2000
  189.6140  175.0840  144.7420 C   0  0  0  0  0  0  0  0  0  0  0  0
  187.7620  176.5660  144.2140 C   0  0  0  0  0  0  0  0  0  0  0  0
  190.4250  174.4790  145.7160 C   0  0  0  0  0  3  0  0  0  0  0  0
  188.6180  175.9890  145.1510 C   0  0  0  0  0  0  0  0  0  0  0  0
  186.7720  177.4730  144.6180 C   0  0  0  0  0  0  0  0  0  0  0  0
  186.5510  177.5380  139.5560 C   0  0  0  0  0  2  0  0  0  0  0  0
  187.9030  176.2420  142.8600 C   0  0  0  0  0  0  0  0  0  0  0  0
  185.1400  178.4410  141.3950 C   0  0  0  0  0  2  0  0  0  0  0  0
  186.0270  177.7050  142.3690 C   0  0  0  0  0  0  0  0  0  0  0  0
  188.4460  176.3040  146.5090 C   0  0  0  0  0  0  0  0  0  0  0  0
  185.9460  178.0270  143.6900 N   0  0  0  0  0  0  0  0  0  0  0  0
  187.4770  177.1840  146.8790 N   0  0  0  0  0  0  0  0  0  0  0  0
  189.2500  175.6850  147.4680 C   0  0  0  0  0  3  0  0  0  0  0  0
  188.8780  175.3720  142.4770 N   0  0  0  0  0  0  0  0  0  0  0  0
  189.7240  174.7820  143.3700 C   0  0  0  0  0  0  0  0  0  0  0  0
  187.0470  176.8270  141.9180 C   0  0  0  0  0  0  0  0  0  0  0  0
  186.6550  177.7880  145.9730 C   0  0  0  0  0  0  0  0  0  0  0  0
  190.2360  174.7740  147.0710 C   0  0  0  0  0  3  0  0  0  0  0  0
  185.1250  177.8020  140.0080 C   0  0  0  0  0  2  0  0  0  0  0  0
  187.1770  176.4770  140.4560 C   0  0  0  0  0  2  0  0  0  0  0  0
  192.8670  173.9620  141.4240 N   0  0  0  0  0  0  0  0  0  0  0  0
  192.2320  171.3050  142.1890 C   0  0  0  0  0  1  0  0  0  0  0  0
  193.6360  174.8540  140.5690 C   0  0  0  0  0  1  0  0  0  0  0  0
  189.4050  171.8120  142.7230 C   0  0  0  0  0  1  0  0  0  0  0  0
  190.8410  173.9080  142.8570 C   0  0  1  0  0  3  0  0  0  0  0  0
  192.2160  173.0120  140.5190 C   0  0  0  0  0  2  0  0  0  0  0  0
  190.3120  172.7740  141.9620 C   0  0  1  0  0  3  0  0  0  0  0  0
  191.8340  174.7790  142.0690 C   0  0  1  0  0  3  0  0  0  0  0  0
  192.4280  175.6870  142.9380 F   0  0  0  0  0  0  0  0  0  0  0  0
  191.3900  172.0540  141.2570 N   0  0  0  0  0  0  0  0  0  0  0  0
  185.6910  178.7110  146.3870 O   0  0  0  0  0  0  0  0  0  0  0  0
  184.4380  178.2970  146.9070 C   0  0  0  0  0  1  0  0  0  0  0  0
  1  4  1  0  0  0  0
  1  3  2  0  0  0  0
  2  5  1  0  0  0  0
  2  4  1  0  0  0  0
  3 18  1  0  0  0  0
  4 10  2  0  0  0  0
  5 17  1  0  0  0  0
  6 19  1  0  0  0  0
  6 20  1  0  0  0  0
  7  2  2  0  0  0  0
  8  9  1  0  0  0  0
  9 11  1  0  0  0  0
 10 12  1  0  0  0  0
 10 13  1  0  0  0  0
 11  5  2  0  0  0  0
 14  7  1  0  0  0  0
 14 15  2  0  0  0  0
 15  1  1  0  0  0  0
 16  9  2  0  0  0  0
 16  7  1  0  0  0  0
 17 31  1  0  0  0  0
 17 12  2  0  0  0  0
 18 13  2  0  0  0  0
 19  8  1  0  0  0  0
 20 16  1  0  0  0  0
 21 28  1  0  0  0  0
 23 21  1  0  0  0  0
 25 15  1  6  0  0  0
 26 30  1  0  0  0  0
 26 21  1  0  0  0  0
 27 24  1  1  0  0  0
 27 25  1  0  0  0  0
 28 25  1  0  0  0  0
 28 29  1  1  0  0  0
 30 27  1  0  0  0  0
 30 22  1  0  0  0  0
 31 32  1  0  0  0  0
M  END
>  <MODEL>
2

>  <REMARK>
 VINA RESULT:      -7.9      2.137      5.149
  Name = 
  2 active torsions:
  status: ('A' for Active; 'I' for Inactive)
    1  A    between atoms: O_13  and  C_29
    2  A    between atoms: C_16  and  C_27
                            x       y       z     vdW  Elec       q    Type
                         _______ _______ _______ _____ _____    ______ ____

>  <TORSDO>
F 2

$$$$
=
 OpenBabel11052419043D

 32 37  0  0  1  0  0  0  0  0999 V2000
  192.0400  175.7120  145.7190 C   0  0  0  0  0  0  0  0  0  0  0  0
  190.1490  175.5060  144.2060 C   0  0  0  0  0  0  0  0  0  0  0  0
  192.5440  176.1440  146.9560 C   0  0  0  0  0  3  0  0  0  0  0  0
  190.6940  175.9690  145.4040 C   0  0  0  0  0  0  0  0  0  0  0  0
  188.8080  175.7650  143.8870 C   0  0  0  0  0  0  0  0  0  0  0  0
  190.6930  173.5730  139.7260 C   0  0  0  0  0  2  0  0  0  0  0  0
  190.9540  174.7890  143.3140 C   0  0  0  0  0  0  0  0  0  0  0  0
  188.4180  174.1900  140.5180 C   0  0  0  0  0  2  0  0  0  0  0  0
  189.0350  174.5720  141.8400 C   0  0  0  0  0  0  0  0  0  0  0  0
  189.8650  176.6640  146.3010 C   0  0  0  0  0  0  0  0  0  0  0  0
  188.2930  175.3080  142.7150 N   0  0  0  0  0  0  0  0  0  0  0  0
  188.5660  176.9000  145.9730 N   0  0  0  0  0  0  0  0  0  0  0  0
  190.3740  177.0750  147.5340 C   0  0  0  0  0  3  0  0  0  0  0  0
  192.2590  174.5580  143.6270 N   0  0  0  0  0  0  0  0  0  0  0  0
  192.8190  174.9860  144.7950 C   0  0  0  0  0  0  0  0  0  0  0  0
  190.4080  174.3310  142.1080 C   0  0  0  0  0  0  0  0  0  0  0  0
  188.0260  176.4900  144.7890 C   0  0  0  0  0  0  0  0  0  0  0  0
  191.7110  176.8140  147.8600 C   0  0  0  0  0  3  0  0  0  0  0  0
  189.2350  173.1470  139.7610 C   0  0  0  0  0  2  0  0  0  0  0  0
  191.2600  173.5440  141.1420 C   0  0  0  0  0  2  0  0  0  0  0  0
  196.5230  175.5050  144.2060 N   0  0  0  0  0  0  0  0  0  0  0  0
  196.7630  173.3420  146.0260 C   0  0  0  0  0  1  0  0  0  0  0  0
  197.1480  176.3560  143.2040 C   0  0  0  0  0  1  0  0  0  0  0  0
  194.0530  172.3220  145.6400 C   0  0  0  0  0  1  0  0  0  0  0  0
  194.2950  174.7770  145.0230 C   0  0  1  0  0  3  0  0  0  0  0  0
  196.7800  174.1300  143.7710 C   0  0  0  0  0  2  0  0  0  0  0  0
  194.7200  173.3310  144.7130 C   0  0  1  0  0  3  0  0  0  0  0  0
  195.0800  175.7580  144.1350 C   0  0  1  0  0  3  0  0  0  0  0  0
  194.8110  177.0570  144.5480 F   0  0  0  0  0  0  0  0  0  0  0  0
  196.1860  173.1600  144.6940 N   0  0  0  0  0  0  0  0  0  0  0  0
  186.6960  176.7780  144.4720 O   0  0  0  0  0  0  0  0  0  0  0  0
  185.6860  176.8190  145.4670 C   0  0  0  0  0  1  0  0  0  0  0  0
  1  3  2  0  0  0  0
  2  4  1  0  0  0  0
  3 18  1  0  0  0  0
  4  1  1  0  0  0  0
  4 10  2  0  0  0  0
  5  2  1  0  0  0  0
  5 17  1  0  0  0  0
  6 19  1  0  0  0  0
  6 20  1  0  0  0  0
  7 14  1  0  0  0  0
  7  2  2  0  0  0  0
  8  9  1  0  0  0  0
  9 16  2  0  0  0  0
  9 11  1  0  0  0  0
 10 13  1  0  0  0  0
 11  5  2  0  0  0  0
 12 10  1  0  0  0  0
 13 18  2  0  0  0  0
 14 15  2  0  0  0  0
 15  1  1  0  0  0  0
 16  7  1  0  0  0  0
 17 12  2  0  0  0  0
 19  8  1  0  0  0  0
 20 16  1  0  0  0  0
 23 21  1  0  0  0  0
 25 15  1  6  0  0  0
 26 21  1  0  0  0  0
 26 30  1  0  0  0  0
 27 25  1  0  0  0  0
 27 24  1  1  0  0  0
 28 21  1  0  0  0  0
 28 29  1  1  0  0  0
 28 25  1  0  0  0  0
 30 27  1  0  0  0  0
 30 22  1  0  0  0  0
 31 17  1  0  0  0  0
 31 32  1  0  0  0  0
M  END
>  <MODEL>
3

>  <REMARK>
 VINA RESULT:      -7.8      3.650      6.991
  Name = 
  2 active torsions:
  status: ('A' for Active; 'I' for Inactive)
    1  A    between atoms: O_13  and  C_29
    2  A    between atoms: C_16  and  C_27
                            x       y       z     vdW  Elec       q    Type
                         _______ _______ _______ _____ _____    ______ ____

>  <TORSDO>
F 2

$$$$
=
 OpenBabel11052419043D

 32 37  0  0  1  0  0  0  0  0999 V2000
  188.2040  177.3130  144.7180 C   0  0  0  0  0  0  0  0  0  0  0  0
  187.5500  176.6770  142.4660 C   0  0  0  0  0  0  0  0  0  0  0  0
  187.9260  178.0400  145.8870 C   0  0  0  0  0  3  0  0  0  0  0  0
  187.3310  177.4260  143.6220 C   0  0  0  0  0  0  0  0  0  0  0  0
  186.6850  176.7920  141.3680 C   0  0  0  0  0  0  0  0  0  0  0  0
  190.4240  173.7980  139.7160 C   0  0  0  0  0  2  0  0  0  0  0  0
  188.6500  175.8140  142.4010 C   0  0  0  0  0  0  0  0  0  0  0  0
  188.1910  174.4720  138.8520 C   0  0  0  0  0  2  0  0  0  0  0  0
  187.9500  175.1750  140.1650 C   0  0  0  0  0  0  0  0  0  0  0  0
  186.2080  178.2680  143.6800 C   0  0  0  0  0  0  0  0  0  0  0  0
  186.9130  176.0550  140.2490 N   0  0  0  0  0  0  0  0  0  0  0  0
  185.3790  178.3610  142.6050 N   0  0  0  0  0  0  0  0  0  0  0  0
  185.9350  178.9740  144.8530 C   0  0  0  0  0  3  0  0  0  0  0  0
  189.4920  175.7220  143.4670 N   0  0  0  0  0  0  0  0  0  0  0  0
  189.3000  176.4330  144.6160 C   0  0  0  0  0  0  0  0  0  0  0  0
  188.8730  175.0670  141.2370 C   0  0  0  0  0  0  0  0  0  0  0  0
  185.5990  177.6660  141.4510 C   0  0  0  0  0  0  0  0  0  0  0  0
  186.7930  178.8580  145.9540 C   0  0  0  0  0  3  0  0  0  0  0  0
  189.1900  173.3230  138.9690 C   0  0  0  0  0  2  0  0  0  0  0  0
  190.0460  174.1210  141.1590 C   0  0  0  0  0  2  0  0  0  0  0  0
  192.7830  176.4090  146.0990 N   0  0  0  0  0  0  0  0  0  0  0  0
  191.3960  175.6890  148.4670 C   0  0  0  0  0  1  0  0  0  0  0  0
  194.0490  176.5060  145.3860 C   0  0  0  0  0  1  0  0  0  0  0  0
  188.9940  174.7120  147.1230 C   0  0  0  0  0  1  0  0  0  0  0  0
  190.3320  176.3510  145.7120 C   0  0  1  0  0  3  0  0  0  0  0  0
  192.7100  175.0290  146.5840 C   0  0  0  0  0  2  0  0  0  0  0  0
  190.3150  174.9800  146.4110 C   0  0  1  0  0  3  0  0  0  0  0  0
  191.7220  176.6160  145.1080 C   0  0  1  0  0  3  0  0  0  0  0  0
  191.7700  177.9220  144.6360 F   0  0  0  0  0  0  0  0  0  0  0  0
  191.4640  174.7880  147.3170 N   0  0  0  0  0  0  0  0  0  0  0  0
  184.7440  177.8110  140.3560 O   0  0  0  0  0  0  0  0  0  0  0  0
  183.4170  178.2910  140.5050 C   0  0  0  0  0  1  0  0  0  0  0  0
  1  3  2  0  0  0  0
  2  4  1  0  0  0  0
  3 18  1  0  0  0  0
  4 10  2  0  0  0  0
  4  1  1  0  0  0  0
  5 17  1  0  0  0  0
  5  2  2  0  0  0  0
  6 20  1  0  0  0  0
  7  2  1  0  0  0  0
  7 14  1  0  0  0  0
  8 19  1  0  0  0  0
  8  9  1  0  0  0  0
  9 11  2  0  0  0  0
  9 16  1  0  0  0  0
 10 13  1  0  0  0  0
 11  5  1  0  0  0  0
 12 10  1  0  0  0  0
 13 18  2  0  0  0  0
 14 15  2  0  0  0  0
 15  1  1  0  0  0  0
 16  7  2  0  0  0  0
 17 12  2  0  0  0  0
 19  6  1  0  0  0  0
 20 16  1  0  0  0  0
 21 26  1  0  0  0  0
 23 21  1  0  0  0  0
 25 15  1  6  0  0  0
 25 27  1  0  0  0  0
 26 30  1  0  0  0  0
 27 24  1  1  0  0  0
 27 30  1  0  0  0  0
 28 29  1  1  0  0  0
 28 25  1  0  0  0  0
 28 21  1  0  0  0  0
 30 22  1  0  0  0  0
 31 32  1  0  0  0  0
 31 17  1  0  0  0  0
M  END
>  <MODEL>
4

>  <REMARK>
 VINA RESULT:      -7.4      2.813      5.467
  Name = 
  2 active torsions:
  status: ('A' for Active; 'I' for Inactive)
    1  A    between atoms: O_13  and  C_29
    2  A    between atoms: C_16  and  C_27
                            x       y       z     vdW  Elec       q    Type
                         _______ _______ _______ _____ _____    ______ ____

>  <TORSDO>
F 2

$$$$
=
 OpenBabel11052419043D

 32 37  0  0  1  0  0  0  0  0999 V2000
  189.5070  175.2520  144.5030 C   0  0  0  0  0  0  0  0  0  0  0  0
  187.3660  176.3840  144.3130 C   0  0  0  0  0  0  0  0  0  0  0  0
  190.4690  174.6350  145.3190 C   0  0  0  0  0  3  0  0  0  0  0  0
  188.3640  175.8110  145.1010 C   0  0  0  0  0  0  0  0  0  0  0  0
  186.2270  176.9470  144.9060 C   0  0  0  0  0  0  0  0  0  0  0  0
  185.7750  178.0770  139.9880 C   0  0  0  0  0  2  0  0  0  0  0  0
  187.5110  176.4040  142.9220 C   0  0  0  0  0  0  0  0  0  0  0  0
  184.2890  178.2300  141.9770 C   0  0  0  0  0  2  0  0  0  0  0  0
  185.3520  177.5050  142.7640 C   0  0  0  0  0  0  0  0  0  0  0  0
  188.1900  175.7750  146.4940 C   0  0  0  0  0  0  0  0  0  0  0  0
  185.2630  177.5030  144.1240 N   0  0  0  0  0  0  0  0  0  0  0  0
  187.0760  176.3240  147.0480 N   0  0  0  0  0  0  0  0  0  0  0  0
  189.1470  175.1460  147.2930 C   0  0  0  0  0  3  0  0  0  0  0  0
  188.6290  175.8680  142.3570 N   0  0  0  0  0  0  0  0  0  0  0  0
  189.6180  175.2900  143.0980 C   0  0  0  0  0  0  0  0  0  0  0  0
  186.5110  176.9860  142.1320 C   0  0  0  0  0  0  0  0  0  0  0  0
  186.1070  176.9240  146.2970 C   0  0  0  0  0  0  0  0  0  0  0  0
  190.2830  174.5760  146.7050 C   0  0  0  0  0  3  0  0  0  0  0  0
  184.3470  177.9240  140.4820 C   0  0  0  0  0  2  0  0  0  0  0  0
  186.6470  177.0020  140.6290 C   0  0  0  0  0  2  0  0  0  0  0  0
  192.1990  172.7590  141.9730 N   0  0  0  0  0  0  0  0  0  0  0  0
  193.5910  175.0760  141.1120 C   0  0  0  0  0  1  0  0  0  0  0  0
  192.2320  171.3360  142.2740 C   0  0  0  0  0  1  0  0  0  0  0  0
  192.1780  176.9430  142.8580 C   0  0  0  0  0  1  0  0  0  0  0  0
  190.8690  174.8090  142.4060 C   0  0  1  0  0  3  0  0  0  0  0  0
  193.3020  173.3480  142.7350 C   0  0  0  0  0  2  0  0  0  0  0  0
  192.1360  175.4280  143.0240 C   0  0  1  0  0  3  0  0  0  0  0  0
  190.9320  173.2750  142.5020 C   0  0  1  0  0  3  0  0  0  0  0  0
  189.8700  172.7330  141.7900 F   0  0  0  0  0  0  0  0  0  0  0  0
  193.3760  174.7970  142.5320 N   0  0  0  0  0  0  0  0  0  0  0  0
  184.9910  177.5050  146.9040 O   0  0  0  0  0  0  0  0  0  0  0  0
  185.0820  178.7290  147.6150 C   0  0  0  0  0  1  0  0  0  0  0  0
  1  4  1  0  0  0  0
  1  3  2  0  0  0  0
  2  5  1  0  0  0  0
  2  4  1  0  0  0  0
  3 18  1  0  0  0  0
  4 10  2  0  0  0  0
  5 17  1  0  0  0  0
  6 19  1  0  0  0  0
  6 20  1  0  0  0  0
  7  2  2  0  0  0  0
  8  9  1  0  0  0  0
  9 11  1  0  0  0  0
 10 12  1  0  0  0  0
 10 13  1  0  0  0  0
 11  5  2  0  0  0  0
 14  7  1  0  0  0  0
 14 15  2  0  0  0  0
 15  1  1  0  0  0  0
 16  9  2  0  0  0  0
 16  7  1  0  0  0  0
 17 31  1  0  0  0  0
 17 12  2  0  0  0  0
 18 13  2  0  0  0  0
 19  8  1  0  0  0  0
 20 16  1  0  0  0  0
 21 23  1  0  0  0  0
 21 28  1  0  0  0  0
 21 26  1  0  0  0  0
 22 30  1  0  0  0  0
 25 28  1  0  0  0  0
 25 27  1  0  0  0  0
 25 15  1  1  0  0  0
 27 24  1  6  0  0  0
 28 29  1  6  0  0  0
 30 26  1  0  0  0  0
 30 27  1  0  0  0  0
 31 32  1  0  0  0  0
M  END
>  <MODEL>
5

>  <REMARK>
 VINA RESULT:      -7.4      1.945      4.670
  Name = 
  2 active torsions:
  status: ('A' for Active; 'I' for Inactive)
    1  A    between atoms: O_13  and  C_29
    2  A    between atoms: C_16  and  C_27
                            x       y       z     vdW  Elec       q    Type
                         _______ _______ _______ _____ _____    ______ ____

>  <TORSDO>
F 2

$$$$
=
 OpenBabel11052419043D

 32 37  0  0  1  0  0  0  0  0999 V2000
  189.7260  176.3790  145.3800 C   0  0  0  0  0  0  0  0  0  0  0  0
  190.6180  174.4960  144.1300 C   0  0  0  0  0  0  0  0  0  0  0  0
  189.8450  177.2640  146.4640 C   0  0  0  0  0  3  0  0  0  0  0  0
  190.6790  175.3580  145.2260 C   0  0  0  0  0  0  0  0  0  0  0  0
  191.5640  173.4720  143.9770 C   0  0  0  0  0  0  0  0  0  0  0  0
  188.2190  172.6660  140.2570 C   0  0  0  0  0  2  0  0  0  0  0  0
  189.5970  174.6510  143.1870 C   0  0  0  0  0  0  0  0  0  0  0  0
  190.4610  171.7600  140.8400 C   0  0  0  0  0  2  0  0  0  0  0  0
  190.5340  172.7860  141.9430 C   0  0  0  0  0  0  0  0  0  0  0  0
  191.7260  175.2050  146.1500 C   0  0  0  0  0  0  0  0  0  0  0  0
  191.4900  172.6400  142.9040 N   0  0  0  0  0  0  0  0  0  0  0  0
  192.6350  174.2070  145.9790 N   0  0  0  0  0  0  0  0  0  0  0  0
  191.8420  176.0990  147.2150 C   0  0  0  0  0  3  0  0  0  0  0  0
  188.6740  175.6390  143.3540 N   0  0  0  0  0  0  0  0  0  0  0  0
  188.7120  176.5050  144.4080 C   0  0  0  0  0  0  0  0  0  0  0  0
  189.5320  173.7810  142.0900 C   0  0  0  0  0  0  0  0  0  0  0  0
  192.5690  173.3300  144.9350 C   0  0  0  0  0  0  0  0  0  0  0  0
  190.9030  177.1270  147.3700 C   0  0  0  0  0  3  0  0  0  0  0  0
  189.5460  172.1850  139.6950 C   0  0  0  0  0  2  0  0  0  0  0  0
  188.4450  173.9450  141.0570 C   0  0  0  0  0  2  0  0  0  0  0  0
  185.4040  177.8230  145.6930 N   0  0  0  0  0  0  0  0  0  0  0  0
  185.9420  179.9440  143.8880 C   0  0  0  0  0  1  0  0  0  0  0  0
  184.4410  177.1280  146.5350 C   0  0  0  0  0  1  0  0  0  0  0  0
  187.8280  178.4550  142.2280 C   0  0  0  0  0  1  0  0  0  0  0  0
  187.5980  177.5070  144.5760 C   0  0  1  0  0  3  0  0  0  0  0  0
  184.7770  177.9160  144.3730 C   0  0  0  0  0  2  0  0  0  0  0  0
  186.8930  177.8050  143.2410 C   0  0  1  0  0  3  0  0  0  0  0  0
  186.5840  176.9580  145.5950 C   0  0  1  0  0  3  0  0  0  0  0  0
  187.1980  176.8580  146.8370 F   0  0  0  0  0  0  0  0  0  0  0  0
  185.6550  178.5900  143.4130 N   0  0  0  0  0  0  0  0  0  0  0  0
  193.5030  172.2990  144.8100 O   0  0  0  0  0  0  0  0  0  0  0  0
  194.7950  172.3880  145.3880 C   0  0  0  0  0  1  0  0  0  0  0  0
  1  3  2  0  0  0  0
  2  4  1  0  0  0  0
  3 18  1  0  0  0  0
  4  1  1  0  0  0  0
  4 10  2  0  0  0  0
  5  2  1  0  0  0  0
  5 17  1  0  0  0  0
  6 20  1  0  0  0  0
  7 14  1  0  0  0  0
  7  2  2  0  0  0  0
  8  9  1  0  0  0  0
  9 16  2  0  0  0  0
  9 11  1  0  0  0  0
 10 13  1  0  0  0  0
 11  5  2  0  0  0  0
 12 10  1  0  0  0  0
 13 18  2  0  0  0  0
 14 15  2  0  0  0  0
 15  1  1  0  0  0  0
 16  7  1  0  0  0  0
 17 12  2  0  0  0  0
 19  6  1  0  0  0  0
 19  8  1  0  0  0  0
 20 16  1  0  0  0  0
 21 23  1  0  0  0  0
 25 15  1  6  0  0  0
 25 28  1  0  0  0  0
 26 21  1  0  0  0  0
 27 24  1  6  0  0  0
 27 30  1  0  0  0  0
 27 25  1  0  0  0  0
 28 21  1  0  0  0  0
 28 29  1  1  0  0  0
 30 22  1  0  0  0  0
 30 26  1  0  0  0  0
 31 17  1  0  0  0  0
 31 32  1  0  0  0  0
M  END
>  <MODEL>
6

>  <REMARK>
 VINA RESULT:      -6.9      3.414      8.136
  Name = 
  2 active torsions:
  status: ('A' for Active; 'I' for Inactive)
    1  A    between atoms: O_13  and  C_29
    2  A    between atoms: C_16  and  C_27
                            x       y       z     vdW  Elec       q    Type
                         _______ _______ _______ _____ _____    ______ ____

>  <TORSDO>
F 2

$$$$
=
 OpenBabel11052419043D

 32 37  0  0  1  0  0  0  0  0999 V2000
  191.9240  174.1330  143.9580 C   0  0  0  0  0  0  0  0  0  0  0  0
  190.3080  175.6690  144.9240 C   0  0  0  0  0  0  0  0  0  0  0  0
  193.1490  173.4550  144.0690 C   0  0  0  0  0  3  0  0  0  0  0  0
  191.5420  175.0210  144.9790 C   0  0  0  0  0  0  0  0  0  0  0  0
  189.9260  176.5590  145.9380 C   0  0  0  0  0  0  0  0  0  0  0  0
  186.2640  176.9640  142.4590 C   0  0  0  0  0  2  0  0  0  0  0  0
  189.4530  175.4350  143.8410 C   0  0  0  0  0  0  0  0  0  0  0  0
  186.5730  177.7580  144.7960 C   0  0  0  0  0  2  0  0  0  0  0  0
  187.8450  176.9490  144.8500 C   0  0  0  0  0  0  0  0  0  0  0  0
  192.3760  175.2470  146.0870 C   0  0  0  0  0  0  0  0  0  0  0  0
  188.7200  177.1830  145.8680 N   0  0  0  0  0  0  0  0  0  0  0  0
  191.9840  176.1120  147.0610 N   0  0  0  0  0  0  0  0  0  0  0  0
  193.5850  174.5560  146.1920 C   0  0  0  0  0  3  0  0  0  0  0  0
  189.8420  174.5800  142.8540 N   0  0  0  0  0  0  0  0  0  0  0  0
  191.0370  173.9220  142.8840 C   0  0  0  0  0  0  0  0  0  0  0  0
  188.2170  176.0910  143.7830 C   0  0  0  0  0  0  0  0  0  0  0  0
  190.7980  176.7850  147.0050 C   0  0  0  0  0  0  0  0  0  0  0  0
  193.9690  173.6610  145.1850 C   0  0  0  0  0  3  0  0  0  0  0  0
  185.5660  177.2130  143.7850 C   0  0  0  0  0  2  0  0  0  0  0  0
  187.2790  175.8370  142.6280 C   0  0  0  0  0  2  0  0  0  0  0  0
  191.9980  173.2120  139.2910 N   0  0  0  0  0  0  0  0  0  0  0  0
  191.7600  170.5100  140.1250 C   0  0  0  0  0  1  0  0  0  0  0  0
  192.0950  174.1650  138.1960 C   0  0  0  0  0  1  0  0  0  0  0  0
  190.0660  171.0580  142.4410 C   0  0  0  0  0  1  0  0  0  0  0  0
  191.4360  173.0710  141.7050 C   0  0  1  0  0  3  0  0  0  0  0  0
  190.8180  172.3950  138.9990 C   0  0  0  0  0  2  0  0  0  0  0  0
  190.3340  172.0650  141.3280 C   0  0  1  0  0  3  0  0  0  0  0  0
  191.7420  173.9890  140.5080 C   0  0  1  0  0  3  0  0  0  0  0  0
  192.8520  174.7690  140.8080 F   0  0  0  0  0  0  0  0  0  0  0  0
  190.5940  171.3900  140.0420 N   0  0  0  0  0  0  0  0  0  0  0  0
  190.4420  177.6890  148.0080 O   0  0  0  0  0  0  0  0  0  0  0  0
  191.2720  177.9150  149.1360 C   0  0  0  0  0  1  0  0  0  0  0  0
  1  3  2  0  0  0  0
  1  4  1  0  0  0  0
  2  4  1  0  0  0  0
  2  5  1  0  0  0  0
  3 18  1  0  0  0  0
  4 10  2  0  0  0  0
  5 17  1  0  0  0  0
  6 20  1  0  0  0  0
  6 19  1  0  0  0  0
  7  2  2  0  0  0  0
  8  9  1  0  0  0  0
  9 11  1  0  0  0  0
 10 13  1  0  0  0  0
 10 12  1  0  0  0  0
 11  5  2  0  0  0  0
 14 15  2  0  0  0  0
 14  7  1  0  0  0  0
 15  1  1  0  0  0  0
 16  7  1  0  0  0  0
 16  9  2  0  0  0  0
 17 12  2  0  0  0  0
 17 31  1  0  0  0  0
 18 13  2  0  0  0  0
 19  8  1  0  0  0  0
 20 16  1  0  0  0  0
 21 28  1  0  0  0  0
 23 21  1  0  0  0  0
 25 15  1  1  0  0  0
 26 21  1  0  0  0  0
 26 30  1  0  0  0  0
 27 25  1  0  0  0  0
 27 24  1  1  0  0  0
 28 29  1  1  0  0  0
 28 25  1  0  0  0  0
 30 22  1  0  0  0  0
 30 27  1  0  0  0  0
 31 32  1  0  0  0  0
M  END
>  <MODEL>
7

>  <REMARK>
 VINA RESULT:      -6.9      3.241      6.422
  Name = 
  2 active torsions:
  status: ('A' for Active; 'I' for Inactive)
    1  A    between atoms: O_13  and  C_29
    2  A    between atoms: C_16  and  C_27
                            x       y       z     vdW  Elec       q    Type
                         _______ _______ _______ _____ _____    ______ ____

>  <TORSDO>
F 2

$$$$
=
 OpenBabel11052419043D

 32 37  0  0  1  0  0  0  0  0999 V2000
  189.1240  176.4410  143.1760 C   0  0  0  0  0  0  0  0  0  0  0  0
  189.0760  174.9450  141.2620 C   0  0  0  0  0  0  0  0  0  0  0  0
  188.5890  177.5580  143.8390 C   0  0  0  0  0  3  0  0  0  0  0  0
  188.6030  176.0790  141.9210 C   0  0  0  0  0  0  0  0  0  0  0  0
  188.5630  174.5840  140.0080 C   0  0  0  0  0  0  0  0  0  0  0  0
  192.3690  171.3330  140.7930 C   0  0  0  0  0  2  0  0  0  0  0  0
  190.0790  174.1710  141.8550 C   0  0  0  0  0  0  0  0  0  0  0  0
  190.5250  171.5230  139.1340 C   0  0  0  0  0  2  0  0  0  0  0  0
  189.9830  172.6760  139.9430 C   0  0  0  0  0  0  0  0  0  0  0  0
  187.5770  176.8300  141.3240 C   0  0  0  0  0  0  0  0  0  0  0  0
  189.0360  173.4760  139.3780 N   0  0  0  0  0  0  0  0  0  0  0  0
  187.0910  176.4600  140.1080 N   0  0  0  0  0  0  0  0  0  0  0  0
  187.0440  177.9300  142.0000 C   0  0  0  0  0  3  0  0  0  0  0  0
  190.5820  174.5390  143.0660 N   0  0  0  0  0  0  0  0  0  0  0  0
  190.1330  175.6360  143.7420 C   0  0  0  0  0  0  0  0  0  0  0  0
  190.5590  173.0350  141.1890 C   0  0  0  0  0  0  0  0  0  0  0  0
  187.5680  175.3770  139.4310 C   0  0  0  0  0  0  0  0  0  0  0  0
  187.5490  178.2910  143.2550 C   0  0  0  0  0  3  0  0  0  0  0  0
  191.3590  170.5540  139.9690 C   0  0  0  0  0  2  0  0  0  0  0  0
  191.6310  172.1820  141.8230 C   0  0  0  0  0  2  0  0  0  0  0  0
  193.0170  176.6790  145.9620 N   0  0  0  0  0  0  0  0  0  0  0  0
  191.1150  176.2880  148.0300 C   0  0  0  0  0  1  0  0  0  0  0  0
  194.4100  176.8560  145.5780 C   0  0  0  0  0  1  0  0  0  0  0  0
  189.3470  174.5480  146.4880 C   0  0  0  0  0  1  0  0  0  0  0  0
  190.8090  176.0330  145.0300 C   0  0  1  0  0  3  0  0  0  0  0  0
  192.9880  175.4720  146.7910 C   0  0  0  0  0  2  0  0  0  0  0  0
  190.7700  174.8980  146.0680 C   0  0  1  0  0  3  0  0  0  0  0  0
  192.2670  176.4200  144.7280 C   0  0  1  0  0  3  0  0  0  0  0  0
  192.2780  177.5550  143.9260 F   0  0  0  0  0  0  0  0  0  0  0  0
  191.6260  175.1680  147.2400 N   0  0  0  0  0  0  0  0  0  0  0  0
  187.0660  175.0450  138.1700 O   0  0  0  0  0  0  0  0  0  0  0  0
  186.6910  176.0410  137.2320 C   0  0  0  0  0  1  0  0  0  0  0  0
  1 15  1  0  0  0  0
  1  3  2  0  0  0  0
  2  7  1  0  0  0  0
  2  4  1  0  0  0  0
  4  1  1  0  0  0  0
  5  2  2  0  0  0  0
  6 20  1  0  0  0  0
  7 14  1  0  0  0  0
  8  9  1  0  0  0  0
  8 19  1  0  0  0  0
  9 16  1  0  0  0  0
 10  4  2  0  0  0  0
 10 13  1  0  0  0  0
 11  9  2  0  0  0  0
 11  5  1  0  0  0  0
 12 10  1  0  0  0  0
 13 18  2  0  0  0  0
 14 15  2  0  0  0  0
 16 20  1  0  0  0  0
 16  7  2  0  0  0  0
 17  5  1  0  0  0  0
 17 12  2  0  0  0  0
 18  3  1  0  0  0  0
 19  6  1  0  0  0  0
 21 26  1  0  0  0  0
 23 21  1  0  0  0  0
 25 15  1  6  0  0  0
 25 27  1  0  0  0  0
 26 30  1  0  0  0  0
 27 24  1  1  0  0  0
 27 30  1  0  0  0  0
 28 29  1  6  0  0  0
 28 25  1  0  0  0  0
 28 21  1  0  0  0  0
 30 22  1  0  0  0  0
 31 17  1  0  0  0  0
 32 31  1  0  0  0  0
M  END
>  <MODEL>
8

>  <REMARK>
 VINA RESULT:      -6.9      3.420      6.450
  Name = 
  2 active torsions:
  status: ('A' for Active; 'I' for Inactive)
    1  A    between atoms: O_13  and  C_29
    2  A    between atoms: C_16  and  C_27
                            x       y       z     vdW  Elec       q    Type
                         _______ _______ _______ _____ _____    ______ ____

>  <TORSDO>
F 2

$$$$
=
 OpenBabel11052419043D

 32 37  0  0  1  0  0  0  0  0999 V2000
  189.5150  175.8800  143.1230 C   0  0  0  0  0  0  0  0  0  0  0  0
  189.5710  173.8980  141.7180 C   0  0  0  0  0  0  0  0  0  0  0  0
  188.9900  177.1590  143.3720 C   0  0  0  0  0  3  0  0  0  0  0  0
  189.1090  175.1910  141.9670 C   0  0  0  0  0  0  0  0  0  0  0  0
  189.1730  173.2100  140.5630 C   0  0  0  0  0  0  0  0  0  0  0  0
  192.6360  170.1900  142.6980 C   0  0  0  0  0  2  0  0  0  0  0  0
  190.4480  173.2920  142.6250 C   0  0  0  0  0  0  0  0  0  0  0  0
  191.0010  169.9590  140.8380 C   0  0  0  0  0  2  0  0  0  0  0  0
  190.4560  171.3140  141.2160 C   0  0  0  0  0  0  0  0  0  0  0  0
  188.2090  175.7740  141.0590 C   0  0  0  0  0  0  0  0  0  0  0  0
  189.6330  171.9510  140.3350 N   0  0  0  0  0  0  0  0  0  0  0  0
  187.8330  175.0860  139.9470 N   0  0  0  0  0  0  0  0  0  0  0  0
  187.6840  177.0390  141.3260 C   0  0  0  0  0  3  0  0  0  0  0  0
  190.8400  173.9760  143.7350 N   0  0  0  0  0  0  0  0  0  0  0  0
  190.3980  175.2370  144.0130 C   0  0  0  0  0  0  0  0  0  0  0  0
  190.9170  171.9970  142.3710 C   0  0  0  0  0  0  0  0  0  0  0  0
  188.3050  173.8370  139.6670 C   0  0  0  0  0  0  0  0  0  0  0  0
  188.0740  177.7290  142.4810 C   0  0  0  0  0  3  0  0  0  0  0  0
  191.6690  169.2420  142.0090 C   0  0  0  0  0  2  0  0  0  0  0  0
  191.8510  171.3250  143.3480 C   0  0  0  0  0  2  0  0  0  0  0  0
  193.0790  176.8420  146.1500 N   0  0  0  0  0  0  0  0  0  0  0  0
  190.9800  177.0070  148.0510 C   0  0  0  0  0  1  0  0  0  0  0  0
  194.5060  176.9150  145.8730 C   0  0  0  0  0  1  0  0  0  0  0  0
  189.3280  174.9140  146.8580 C   0  0  0  0  0  1  0  0  0  0  0  0
  190.9560  175.9640  145.2100 C   0  0  1  0  0  3  0  0  0  0  0  0
  192.9430  175.8980  147.2630 C   0  0  0  0  0  2  0  0  0  0  0  0
  190.7930  175.1460  146.5030 C   0  0  1  0  0  3  0  0  0  0  0  0
  192.4450  176.2630  144.9620 C   0  0  1  0  0  3  0  0  0  0  0  0
  192.5590  177.1430  143.8930 F   0  0  0  0  0  0  0  0  0  0  0  0
  191.5380  175.7190  147.6400 N   0  0  0  0  0  0  0  0  0  0  0  0
  187.9210  173.1740  138.4990 O   0  0  0  0  0  0  0  0  0  0  0  0
  188.5670  173.4140  137.2590 C   0  0  0  0  0  1  0  0  0  0  0  0
  1  3  1  0  0  0  0
  1 15  1  0  0  0  0
  2  4  1  0  0  0  0
  2  7  1  0  0  0  0
  4  1  2  0  0  0  0
  5  2  2  0  0  0  0
  6 20  1  0  0  0  0
  7 14  1  0  0  0  0
  8  9  1  0  0  0  0
  8 19  1  0  0  0  0
  9 16  1  0  0  0  0
 10 13  2  0  0  0  0
 10  4  1  0  0  0  0
 11  5  1  0  0  0  0
 11  9  2  0  0  0  0
 12 10  1  0  0  0  0
 13 18  1  0  0  0  0
 14 15  2  0  0  0  0
 16  7  2  0  0  0  0
 16 20  1  0  0  0  0
 17 12  2  0  0  0  0
 17  5  1  0  0  0  0
 18  3  2  0  0  0  0
 19  6  1  0  0  0  0
 21 26  1  0  0  0  0
 23 21  1  0  0  0  0
 25 15  1  6  0  0  0
 25 27  1  0  0  0  0
 26 30  1  0  0  0  0
 27 24  1  1  0  0  0
 27 30  1  0  0  0  0
 28 29  1  6  0  0  0
 28 25  1  0  0  0  0
 28 21  1  0  0  0  0
 30 22  1  0  0  0  0
 31 17  1  0  0  0  0
 32 31  1  0  0  0  0
M  END
>  <MODEL>
9

>  <REMARK>
 VINA RESULT:      -6.8      3.862      6.879
  Name = 
  2 active torsions:
  status: ('A' for Active; 'I' for Inactive)
    1  A    between atoms: O_13  and  C_29
    2  A    between atoms: C_16  and  C_27
                            x       y       z     vdW  Elec       q    Type
                         _______ _______ _______ _____ _____    ______ ____

>  <TORSDO>
F 2

$$$$
