=
 OpenBabel11052419203D

 32 34  0  0  1  0  0  0  0  0999 V2000
  189.7170  174.4220  144.9990 N   0  0  0  0  0  0  0  0  0  0  0  0
  189.7020  175.6550  145.4230 C   0  0  0  0  0  0  0  0  0  0  0  0
  190.9010  176.4430  145.5000 N   0  0  0  0  0  2  0  0  0  0  0  0
  192.1570  174.9860  146.8280 O   0  0  0  0  0  0  0  0  0  0  0  0
  192.1230  176.0320  146.1270 C   0  0  0  0  0  0  0  0  0  0  0  0
  188.4080  176.2950  145.7340 C   0  0  0  0  0  0  0  0  0  0  0  0
  187.7630  176.0250  146.9500 C   0  0  0  0  0  3  0  0  0  0  0  0
  184.7920  179.2980  144.5320 C   0  0  0  0  0  3  0  0  0  0  0  0
  187.8140  177.1850  144.8240 C   0  0  0  0  0  3  0  0  0  0  0  0
  184.7390  178.1360  146.6600 C   0  0  0  0  0  3  0  0  0  0  0  0
  185.9560  177.5210  146.3560 C   0  0  0  0  0  0  0  0  0  0  0  0
  186.5430  176.6340  147.2600 C   0  0  0  0  0  3  0  0  0  0  0  0
  186.5970  177.7980  145.1270 C   0  0  0  0  0  0  0  0  0  0  0  0
  184.1580  179.0240  145.7480 C   0  0  0  0  0  3  0  0  0  0  0  0
  186.0110  178.6860  144.2210 C   0  0  0  0  0  3  0  0  0  0  0  0
  190.8940  173.6960  144.5300 C   0  0  0  0  0  2  0  0  0  0  0  0
  190.6850  173.1830  143.1410 C   0  0  0  0  0  0  0  0  0  0  0  0
  190.8180  171.9920  142.9120 O   0  0  0  0  0  0  0  0  0  0  0  0
  190.2760  174.1130  142.0420 C   0  0  0  0  0  2  0  0  0  0  0  0
  188.9970  173.6980  141.4820 N   0  0  0  0  0  0  0  0  0  0  0  0
  189.0550  173.9470  140.0480 C   0  0  1  0  0  3  0  0  0  0  0  0
  190.1100  173.0650  139.4070 C   0  0  0  0  0  2  0  0  0  0  0  0
  188.6500  172.6890  139.2990 C   0  0  2  0  0  3  0  0  0  0  0  0
  188.1760  173.0440  138.0370 O   0  0  0  0  0  1  0  0  0  0  0  0
  187.9900  174.5970  142.0290 C   0  0  0  0  0  2  0  0  0  0  0  0
  188.0550  175.9330  141.3130 C   0  0  0  0  0  2  0  0  0  0  0  0
  186.7740  177.6670  140.4190 C   0  0  0  0  0  1  0  0  0  0  0  0
  186.7690  176.6010  141.4050 N   0  0  0  0  0  2  0  0  0  0  0  0
  193.2760  176.8080  146.0060 O   0  0  0  0  0  0  0  0  0  0  0  0
  194.5590  176.3360  146.4020 C   0  0  0  0  0  2  0  0  0  0  0  0
  195.9280  174.3400  145.8170 C   0  0  0  0  0  1  0  0  0  0  0  0
  195.2250  175.5680  145.2720 C   0  0  0  0  0  2  0  0  0  0  0  0
  1  2  2  0  0  0  0
  2  3  1  0  0  0  0
  2  6  1  0  0  0  0
  3  5  1  0  0  0  0
  5  4  2  0  0  0  0
  6  7  1  0  0  0  0
  7 12  2  0  0  0  0
  8 14  1  0  0  0  0
  9 13  1  0  0  0  0
  9  6  2  0  0  0  0
 11 10  1  0  0  0  0
 11 12  1  0  0  0  0
 13 11  2  0  0  0  0
 14 10  2  0  0  0  0
 15  8  2  0  0  0  0
 15 13  1  0  0  0  0
 16  1  1  0  0  0  0
 17 16  1  0  0  0  0
 18 17  2  0  0  0  0
 19 17  1  0  0  0  0
 20 25  1  0  0  0  0
 20 19  1  0  0  0  0
 21 20  1  1  0  0  0
 22 21  1  0  0  0  0
 23 24  1  6  0  0  0
 23 22  1  0  0  0  0
 23 21  1  0  0  0  0
 26 28  1  0  0  0  0
 26 25  1  0  0  0  0
 27 28  1  0  0  0  0
 29  5  1  0  0  0  0
 29 30  1  0  0  0  0
 32 31  1  0  0  0  0
 32 30  1  0  0  0  0
M  END
>  <MODEL>
1

>  <REMARK>
 VINA RESULT:      -6.7      0.000      0.000
  Name = 
  12 active torsions:
  status: ('A' for Active; 'I' for Inactive)
    1  A    between atoms: N_1  and  C_4
    2  A    between atoms: C_2  and  C_5
    3  A    between atoms: C_3  and  N_20
    4  A    between atoms: C_4  and  C_24
    5  A    between atoms: C_13  and  O_18
    6  A    between atoms: C_13  and  C_29
    7  A    between atoms: C_15  and  N_20
    8  A    between atoms: C_15  and  C_26
    9  A    between atoms: C_16  and  N_20
   10  A    between atoms: C_16  and  C_24
   11  A    between atoms: O_18  and  C_30
   12  A    between atoms: N_19  and  C_26
                            x       y       z     vdW  Elec       q    Type
                         _______ _______ _______ _____ _____    ______ ____

>  <TORSDO>
F 12

$$$$
=
 OpenBabel11052419203D

 32 34  0  0  1  0  0  0  0  0999 V2000
  190.2430  175.0970  144.5540 N   0  0  0  0  0  0  0  0  0  0  0  0
  190.0860  176.0980  145.3750 C   0  0  0  0  0  0  0  0  0  0  0  0
  191.2090  176.7790  145.9590 N   0  0  0  0  0  2  0  0  0  0  0  0
  192.2570  174.9160  146.9060 O   0  0  0  0  0  0  0  0  0  0  0  0
  192.3060  176.1430  146.6280 C   0  0  0  0  0  0  0  0  0  0  0  0
  188.7280  176.6140  145.6310 C   0  0  0  0  0  0  0  0  0  0  0  0
  188.0200  176.2010  146.7700 C   0  0  0  0  0  3  0  0  0  0  0  0
  184.9830  179.4340  144.3800 C   0  0  0  0  0  3  0  0  0  0  0  0
  188.1330  177.5290  144.7470 C   0  0  0  0  0  3  0  0  0  0  0  0
  184.8680  178.1030  146.4040 C   0  0  0  0  0  3  0  0  0  0  0  0
  186.1480  177.6040  146.1500 C   0  0  0  0  0  0  0  0  0  0  0  0
  186.7360  176.6930  147.0290 C   0  0  0  0  0  3  0  0  0  0  0  0
  186.8520  178.0260  144.9990 C   0  0  0  0  0  0  0  0  0  0  0  0
  184.2860  179.0170  145.5190 C   0  0  0  0  0  3  0  0  0  0  0  0
  186.2650  178.9390  144.1200 C   0  0  0  0  0  3  0  0  0  0  0  0
  191.5220  174.5590  144.1000 C   0  0  0  0  0  2  0  0  0  0  0  0
  191.8200  175.0010  142.7020 C   0  0  0  0  0  0  0  0  0  0  0  0
  192.1880  176.1460  142.4980 O   0  0  0  0  0  0  0  0  0  0  0  0
  191.7070  174.0390  141.5620 C   0  0  0  0  0  2  0  0  0  0  0  0
  190.5130  173.2190  141.7130 N   0  0  0  0  0  0  0  0  0  0  0  0
  190.8190  171.9070  141.1580 C   0  0  1  0  0  3  0  0  0  0  0  0
  192.0960  171.3650  141.7740 C   0  0  0  0  0  2  0  0  0  0  0  0
  190.7540  170.8640  142.2600 C   0  0  2  0  0  3  0  0  0  0  0  0
  190.4970  169.6180  141.6910 O   0  0  0  0  0  1  0  0  0  0  0  0
  189.4890  173.8110  140.8630 C   0  0  0  0  0  2  0  0  0  0  0  0
  188.1180  173.5550  141.4590 C   0  0  0  0  0  2  0  0  0  0  0  0
  188.2300  175.8850  141.5170 C   0  0  0  0  0  1  0  0  0  0  0  0
  187.6780  174.7270  142.1960 N   0  0  0  0  0  2  0  0  0  0  0  0
  193.4220  176.8850  147.0180 O   0  0  0  0  0  0  0  0  0  0  0  0
  194.4640  177.2310  146.1130 C   0  0  0  0  0  2  0  0  0  0  0  0
  195.4990  176.4140  144.0000 C   0  0  0  0  0  1  0  0  0  0  0  0
  194.9480  176.0060  145.3520 C   0  0  0  0  0  2  0  0  0  0  0  0
  1  2  2  0  0  0  0
  2  6  1  0  0  0  0
  2  3  1  0  0  0  0
  3  5  1  0  0  0  0
  5  4  2  0  0  0  0
  5 29  1  0  0  0  0
  6  7  1  0  0  0  0
  7 12  2  0  0  0  0
  8 14  1  0  0  0  0
  9 13  1  0  0  0  0
  9  6  2  0  0  0  0
 11 10  1  0  0  0  0
 11 12  1  0  0  0  0
 13 11  2  0  0  0  0
 14 10  2  0  0  0  0
 15  8  2  0  0  0  0
 15 13  1  0  0  0  0
 16  1  1  0  0  0  0
 17 16  1  0  0  0  0
 18 17  2  0  0  0  0
 19 20  1  0  0  0  0
 19 17  1  0  0  0  0
 21 20  1  1  0  0  0
 21 22  1  0  0  0  0
 21 23  1  0  0  0  0
 22 23  1  0  0  0  0
 23 24  1  6  0  0  0
 25 26  1  0  0  0  0
 25 20  1  0  0  0  0
 26 28  1  0  0  0  0
 27 28  1  0  0  0  0
 30 29  1  0  0  0  0
 31 32  1  0  0  0  0
 32 30  1  0  0  0  0
M  END
>  <MODEL>
2

>  <REMARK>
 VINA RESULT:      -6.6      1.561      2.038
  Name = 
  12 active torsions:
  status: ('A' for Active; 'I' for Inactive)
    1  A    between atoms: N_1  and  C_4
    2  A    between atoms: C_2  and  C_5
    3  A    between atoms: C_3  and  N_20
    4  A    between atoms: C_4  and  C_24
    5  A    between atoms: C_13  and  O_18
    6  A    between atoms: C_13  and  C_29
    7  A    between atoms: C_15  and  N_20
    8  A    between atoms: C_15  and  C_26
    9  A    between atoms: C_16  and  N_20
   10  A    between atoms: C_16  and  C_24
   11  A    between atoms: O_18  and  C_30
   12  A    between atoms: N_19  and  C_26
                            x       y       z     vdW  Elec       q    Type
                         _______ _______ _______ _____ _____    ______ ____

>  <TORSDO>
F 12

$$$$
=
 OpenBabel11052419203D

 32 34  0  0  1  0  0  0  0  0999 V2000
  189.8620  174.7780  144.9850 N   0  0  0  0  0  0  0  0  0  0  0  0
  189.7510  175.9040  145.6340 C   0  0  0  0  0  0  0  0  0  0  0  0
  190.9050  176.6360  146.0800 N   0  0  0  0  0  2  0  0  0  0  0  0
  191.9220  174.9190  147.2980 O   0  0  0  0  0  0  0  0  0  0  0  0
  191.9990  176.0830  146.8230 C   0  0  0  0  0  0  0  0  0  0  0  0
  188.4140  176.4970  145.8270 C   0  0  0  0  0  0  0  0  0  0  0  0
  187.6610  176.1830  146.9680 C   0  0  0  0  0  3  0  0  0  0  0  0
  184.8380  179.4130  144.3260 C   0  0  0  0  0  3  0  0  0  0  0  0
  187.8830  177.3870  144.8780 C   0  0  0  0  0  3  0  0  0  0  0  0
  184.6130  178.2060  146.4180 C   0  0  0  0  0  3  0  0  0  0  0  0
  185.8740  177.6340  146.2250 C   0  0  0  0  0  0  0  0  0  0  0  0
  186.3970  176.7480  147.1670 C   0  0  0  0  0  3  0  0  0  0  0  0
  186.6230  177.9560  145.0700 C   0  0  0  0  0  0  0  0  0  0  0  0
  184.0960  179.0940  145.4690 C   0  0  0  0  0  3  0  0  0  0  0  0
  186.1000  178.8440  144.1270 C   0  0  0  0  0  3  0  0  0  0  0  0
  191.1140  174.1340  144.6020 C   0  0  0  0  0  2  0  0  0  0  0  0
  190.8750  173.0660  143.5830 C   0  0  0  0  0  0  0  0  0  0  0  0
  191.6320  172.1100  143.5230 O   0  0  0  0  0  0  0  0  0  0  0  0
  189.6940  173.1410  142.6670 C   0  0  0  0  0  2  0  0  0  0  0  0
  189.9210  174.1470  141.6380 N   0  0  0  0  0  0  0  0  0  0  0  0
  188.6150  174.5280  141.1150 C   0  0  1  0  0  3  0  0  0  0  0  0
  187.6580  174.8120  142.2570 C   0  0  0  0  0  2  0  0  0  0  0  0
  188.3080  175.9600  141.5170 C   0  0  2  0  0  3  0  0  0  0  0  0
  187.3940  176.4990  140.6130 O   0  0  0  0  0  1  0  0  0  0  0  0
  190.6350  173.4830  140.5550 C   0  0  0  0  0  2  0  0  0  0  0  0
  189.6440  172.7860  139.6420 C   0  0  0  0  0  2  0  0  0  0  0  0
  191.3870  171.2630  139.9390 C   0  0  0  0  0  1  0  0  0  0  0  0
  190.2410  171.5760  139.1040 N   0  0  0  0  0  2  0  0  0  0  0  0
  193.1440  176.8430  147.0670 O   0  0  0  0  0  0  0  0  0  0  0  0
  194.2200  176.9230  146.1400 C   0  0  0  0  0  2  0  0  0  0  0  0
  194.8540  174.9930  144.6990 C   0  0  0  0  0  1  0  0  0  0  0  0
  194.9800  175.6070  146.0790 C   0  0  0  0  0  2  0  0  0  0  0  0
  1  2  2  0  0  0  0
  2  6  1  0  0  0  0
  2  3  1  0  0  0  0
  3  5  1  0  0  0  0
  5 29  1  0  0  0  0
  5  4  2  0  0  0  0
  6  7  1  0  0  0  0
  7 12  2  0  0  0  0
  8 14  1  0  0  0  0
  9 13  1  0  0  0  0
  9  6  2  0  0  0  0
 11 10  1  0  0  0  0
 11 12  1  0  0  0  0
 13 11  2  0  0  0  0
 14 10  2  0  0  0  0
 15  8  2  0  0  0  0
 15 13  1  0  0  0  0
 16  1  1  0  0  0  0
 17 16  1  0  0  0  0
 18 17  2  0  0  0  0
 19 17  1  0  0  0  0
 20 19  1  0  0  0  0
 21 23  1  0  0  0  0
 21 20  1  1  0  0  0
 21 22  1  0  0  0  0
 23 24  1  6  0  0  0
 23 22  1  0  0  0  0
 25 20  1  0  0  0  0
 26 25  1  0  0  0  0
 28 26  1  0  0  0  0
 28 27  1  0  0  0  0
 30 29  1  0  0  0  0
 31 32  1  0  0  0  0
 32 30  1  0  0  0  0
M  END
>  <MODEL>
3

>  <REMARK>
 VINA RESULT:      -6.6      1.326      2.475
  Name = 
  12 active torsions:
  status: ('A' for Active; 'I' for Inactive)
    1  A    between atoms: N_1  and  C_4
    2  A    between atoms: C_2  and  C_5
    3  A    between atoms: C_3  and  N_20
    4  A    between atoms: C_4  and  C_24
    5  A    between atoms: C_13  and  O_18
    6  A    between atoms: C_13  and  C_29
    7  A    between atoms: C_15  and  N_20
    8  A    between atoms: C_15  and  C_26
    9  A    between atoms: C_16  and  N_20
   10  A    between atoms: C_16  and  C_24
   11  A    between atoms: O_18  and  C_30
   12  A    between atoms: N_19  and  C_26
                            x       y       z     vdW  Elec       q    Type
                         _______ _______ _______ _____ _____    ______ ____

>  <TORSDO>
F 12

$$$$
=
 OpenBabel11052419203D

 32 34  0  0  1  0  0  0  0  0999 V2000
  190.2990  176.1930  142.7170 N   0  0  0  0  0  0  0  0  0  0  0  0
  189.1320  175.6930  143.0150 C   0  0  0  0  0  0  0  0  0  0  0  0
  188.9120  174.2740  143.0790 N   0  0  0  0  0  2  0  0  0  0  0  0
  189.6670  173.7370  140.9320 O   0  0  0  0  0  0  0  0  0  0  0  0
  189.2770  173.3330  142.0600 C   0  0  0  0  0  0  0  0  0  0  0  0
  188.0350  176.6020  143.4010 C   0  0  0  0  0  0  0  0  0  0  0  0
  187.7040  177.6920  142.5840 C   0  0  0  0  0  3  0  0  0  0  0  0
  184.4870  177.8710  146.4570 C   0  0  0  0  0  3  0  0  0  0  0  0
  187.3060  176.3820  144.5820 C   0  0  0  0  0  3  0  0  0  0  0  0
  184.8850  179.1850  144.4580 C   0  0  0  0  0  3  0  0  0  0  0  0
  185.9340  178.3320  144.1050 C   0  0  0  0  0  0  0  0  0  0  0  0
  186.6580  178.5540  142.9330 C   0  0  0  0  0  3  0  0  0  0  0  0
  186.2610  177.2360  144.9360 C   0  0  0  0  0  0  0  0  0  0  0  0
  184.1630  178.9550  145.6350 C   0  0  0  0  0  3  0  0  0  0  0  0
  185.5350  177.0120  146.1090 C   0  0  0  0  0  3  0  0  0  0  0  0
  191.5110  175.4270  142.4440 C   0  0  0  0  0  2  0  0  0  0  0  0
  192.7120  176.1060  143.0190 C   0  0  0  0  0  0  0  0  0  0  0  0
  193.5440  176.5940  142.2700 O   0  0  0  0  0  0  0  0  0  0  0  0
  192.8800  176.2260  144.5010 C   0  0  0  0  0  2  0  0  0  0  0  0
  192.4410  175.0020  145.1560 N   0  0  0  0  0  0  0  0  0  0  0  0
  191.8480  175.3860  146.4310 C   0  0  1  0  0  3  0  0  0  0  0  0
  190.8530  176.5130  146.2250 C   0  0  0  0  0  2  0  0  0  0  0  0
  190.3570  175.0960  146.4030 C   0  0  2  0  0  3  0  0  0  0  0  0
  189.9020  174.9300  147.7100 O   0  0  0  0  0  1  0  0  0  0  0  0
  193.6420  174.2370  145.4610 C   0  0  0  0  0  2  0  0  0  0  0  0
  194.7170  175.1640  145.9970 C   0  0  0  0  0  2  0  0  0  0  0  0
  196.3930  174.9930  144.3820 C   0  0  0  0  0  1  0  0  0  0  0  0
  196.0280  174.6000  145.7310 N   0  0  0  0  0  2  0  0  0  0  0  0
  189.1640  171.9620  142.2900 O   0  0  0  0  0  0  0  0  0  0  0  0
  190.2980  171.1210  142.4690 C   0  0  0  0  0  2  0  0  0  0  0  0
  192.3940  170.7430  143.7590 C   0  0  0  0  0  1  0  0  0  0  0  0
  191.1760  171.6310  143.6000 C   0  0  0  0  0  2  0  0  0  0  0  0
  1  2  2  0  0  0  0
  2  3  1  0  0  0  0
  2  6  1  0  0  0  0
  4  5  2  0  0  0  0
  5 29  1  0  0  0  0
  5  3  1  0  0  0  0
  6  9  1  0  0  0  0
  7 12  1  0  0  0  0
  7  6  2  0  0  0  0
  9 13  2  0  0  0  0
 10 14  2  0  0  0  0
 11 10  1  0  0  0  0
 11 13  1  0  0  0  0
 12 11  2  0  0  0  0
 13 15  1  0  0  0  0
 14  8  1  0  0  0  0
 15  8  2  0  0  0  0
 16  1  1  0  0  0  0
 16 17  1  0  0  0  0
 17 19  1  0  0  0  0
 18 17  2  0  0  0  0
 19 20  1  0  0  0  0
 20 25  1  0  0  0  0
 21 20  1  6  0  0  0
 22 23  1  0  0  0  0
 22 21  1  0  0  0  0
 23 21  1  0  0  0  0
 23 24  1  1  0  0  0
 25 26  1  0  0  0  0
 27 28  1  0  0  0  0
 28 26  1  0  0  0  0
 29 30  1  0  0  0  0
 30 32  1  0  0  0  0
 32 31  1  0  0  0  0
M  END
>  <MODEL>
4

>  <REMARK>
 VINA RESULT:      -6.4      2.084      5.744
  Name = 
  12 active torsions:
  status: ('A' for Active; 'I' for Inactive)
    1  A    between atoms: N_1  and  C_4
    2  A    between atoms: C_2  and  C_5
    3  A    between atoms: C_3  and  N_20
    4  A    between atoms: C_4  and  C_24
    5  A    between atoms: C_13  and  O_18
    6  A    between atoms: C_13  and  C_29
    7  A    between atoms: C_15  and  N_20
    8  A    between atoms: C_15  and  C_26
    9  A    between atoms: C_16  and  N_20
   10  A    between atoms: C_16  and  C_24
   11  A    between atoms: O_18  and  C_30
   12  A    between atoms: N_19  and  C_26
                            x       y       z     vdW  Elec       q    Type
                         _______ _______ _______ _____ _____    ______ ____

>  <TORSDO>
F 12

$$$$
=
 OpenBabel11052419203D

 32 34  0  0  1  0  0  0  0  0999 V2000
  190.9390  177.0290  145.1680 N   0  0  0  0  0  0  0  0  0  0  0  0
  189.9260  176.2210  145.0170 C   0  0  0  0  0  0  0  0  0  0  0  0
  190.1010  174.8630  144.5810 N   0  0  0  0  0  2  0  0  0  0  0  0
  191.2760  175.3080  142.6100 O   0  0  0  0  0  0  0  0  0  0  0  0
  190.8560  174.4530  143.4330 C   0  0  0  0  0  0  0  0  0  0  0  0
  188.5760  176.6770  145.4030 C   0  0  0  0  0  0  0  0  0  0  0  0
  187.9870  176.2100  146.5870 C   0  0  0  0  0  3  0  0  0  0  0  0
  184.6320  179.3730  144.5570 C   0  0  0  0  0  3  0  0  0  0  0  0
  187.8720  177.5880  144.5980 C   0  0  0  0  0  3  0  0  0  0  0  0
  184.7450  177.9920  146.5470 C   0  0  0  0  0  3  0  0  0  0  0  0
  186.0170  177.5510  146.1700 C   0  0  0  0  0  0  0  0  0  0  0  0
  186.7130  176.6440  146.9700 C   0  0  0  0  0  3  0  0  0  0  0  0
  186.6010  178.0270  144.9740 C   0  0  0  0  0  0  0  0  0  0  0  0
  184.0540  178.9020  145.7410 C   0  0  0  0  0  3  0  0  0  0  0  0
  185.9050  178.9360  144.1730 C   0  0  0  0  0  3  0  0  0  0  0  0
  192.3420  176.6860  144.9570 C   0  0  0  0  0  2  0  0  0  0  0  0
  193.0080  176.3470  146.2520 C   0  0  0  0  0  0  0  0  0  0  0  0
  192.4180  176.5430  147.3020 O   0  0  0  0  0  0  0  0  0  0  0  0
  194.3730  175.7340  146.2650 C   0  0  0  0  0  2  0  0  0  0  0  0
  194.6660  175.1340  144.9710 N   0  0  0  0  0  0  0  0  0  0  0  0
  195.0530  173.7500  145.2170 C   0  0  1  0  0  3  0  0  0  0  0  0
  193.8280  172.9180  145.5460 C   0  0  0  0  0  2  0  0  0  0  0  0
  194.4280  172.8560  144.1600 C   0  0  2  0  0  3  0  0  0  0  0  0
  195.1900  171.6940  144.0400 O   0  0  0  0  0  1  0  0  0  0  0  0
  195.8430  175.8170  144.4510 C   0  0  0  0  0  2  0  0  0  0  0  0
  195.5830  176.2680  143.0250 C   0  0  0  0  0  2  0  0  0  0  0  0
  197.8290  175.6360  143.0830 C   0  0  0  0  0  1  0  0  0  0  0  0
  196.8400  176.3590  142.3040 N   0  0  0  0  0  2  0  0  0  0  0  0
  191.0950  173.1000  143.1900 O   0  0  0  0  0  0  0  0  0  0  0  0
  190.0440  172.1650  142.9730 C   0  0  0  0  0  2  0  0  0  0  0  0
  187.9050  172.8750  141.9130 C   0  0  0  0  0  1  0  0  0  0  0  0
  189.3360  172.4450  141.6570 C   0  0  0  0  0  2  0  0  0  0  0  0
  2  1  2  0  0  0  0
  2  6  1  0  0  0  0
  3  2  1  0  0  0  0
  4  5  2  0  0  0  0
  5  3  1  0  0  0  0
  6  7  1  0  0  0  0
  7 12  2  0  0  0  0
  8 14  1  0  0  0  0
  9 13  1  0  0  0  0
  9  6  2  0  0  0  0
 11 10  1  0  0  0  0
 11 12  1  0  0  0  0
 13 11  2  0  0  0  0
 14 10  2  0  0  0  0
 15  8  2  0  0  0  0
 15 13  1  0  0  0  0
 16  1  1  0  0  0  0
 16 17  1  0  0  0  0
 17 19  1  0  0  0  0
 17 18  2  0  0  0  0
 20 19  1  0  0  0  0
 21 20  1  6  0  0  0
 21 22  1  0  0  0  0
 23 24  1  1  0  0  0
 23 21  1  0  0  0  0
 23 22  1  0  0  0  0
 25 20  1  0  0  0  0
 26 25  1  0  0  0  0
 28 26  1  0  0  0  0
 28 27  1  0  0  0  0
 29  5  1  0  0  0  0
 30 29  1  0  0  0  0
 32 31  1  0  0  0  0
 32 30  1  0  0  0  0
M  END
>  <MODEL>
5

>  <REMARK>
 VINA RESULT:      -6.4      2.141      5.713
  Name = 
  12 active torsions:
  status: ('A' for Active; 'I' for Inactive)
    1  A    between atoms: N_1  and  C_4
    2  A    between atoms: C_2  and  C_5
    3  A    between atoms: C_3  and  N_20
    4  A    between atoms: C_4  and  C_24
    5  A    between atoms: C_13  and  O_18
    6  A    between atoms: C_13  and  C_29
    7  A    between atoms: C_15  and  N_20
    8  A    between atoms: C_15  and  C_26
    9  A    between atoms: C_16  and  N_20
   10  A    between atoms: C_16  and  C_24
   11  A    between atoms: O_18  and  C_30
   12  A    between atoms: N_19  and  C_26
                            x       y       z     vdW  Elec       q    Type
                         _______ _______ _______ _____ _____    ______ ____

>  <TORSDO>
F 12

$$$$
=
 OpenBabel11052419203D

 32 34  0  0  1  0  0  0  0  0999 V2000
  189.8000  174.6650  144.9830 N   0  0  0  0  0  0  0  0  0  0  0  0
  189.8200  175.9370  145.2730 C   0  0  0  0  0  0  0  0  0  0  0  0
  191.0300  176.6030  145.6690 N   0  0  0  0  0  2  0  0  0  0  0  0
  191.5970  175.2020  147.4530 O   0  0  0  0  0  0  0  0  0  0  0  0
  191.9270  176.1510  146.6920 C   0  0  0  0  0  0  0  0  0  0  0  0
  188.5940  176.7370  145.0890 C   0  0  0  0  0  0  0  0  0  0  0  0
  188.4370  177.5310  143.9430 C   0  0  0  0  0  3  0  0  0  0  0  0
  184.2230  178.1720  146.6290 C   0  0  0  0  0  3  0  0  0  0  0  0
  187.5700  176.7080  146.0490 C   0  0  0  0  0  3  0  0  0  0  0  0
  185.0900  178.9990  144.5200 C   0  0  0  0  0  3  0  0  0  0  0  0
  186.2560  178.2520  144.7060 C   0  0  0  0  0  0  0  0  0  0  0  0
  187.2740  178.2850  143.7520 C   0  0  0  0  0  3  0  0  0  0  0  0
  186.4060  177.4560  145.8650 C   0  0  0  0  0  0  0  0  0  0  0  0
  184.0740  178.9590  145.4820 C   0  0  0  0  0  3  0  0  0  0  0  0
  185.3870  177.4210  146.8210 C   0  0  0  0  0  3  0  0  0  0  0  0
  190.9540  173.7720  144.9860 C   0  0  0  0  0  2  0  0  0  0  0  0
  190.7170  172.5900  144.1000 C   0  0  0  0  0  0  0  0  0  0  0  0
  191.3850  171.5810  144.2500 O   0  0  0  0  0  0  0  0  0  0  0  0
  189.6410  172.6260  143.0610 C   0  0  0  0  0  2  0  0  0  0  0  0
  190.0460  173.4750  141.9480 N   0  0  0  0  0  0  0  0  0  0  0  0
  188.8420  173.7930  141.1910 C   0  0  1  0  0  3  0  0  0  0  0  0
  187.7610  174.3100  142.1230 C   0  0  0  0  0  2  0  0  0  0  0  0
  188.5630  175.2830  141.2890 C   0  0  2  0  0  3  0  0  0  0  0  0
  187.8050  175.6770  140.1870 O   0  0  0  0  0  1  0  0  0  0  0  0
  190.8870  172.6590  141.0840 C   0  0  0  0  0  2  0  0  0  0  0  0
  191.8670  173.5460  140.3380 C   0  0  0  0  0  2  0  0  0  0  0  0
  193.6190  173.2550  141.8520 C   0  0  0  0  0  1  0  0  0  0  0  0
  192.7170  174.2420  141.2870 N   0  0  0  0  0  2  0  0  0  0  0  0
  193.1540  176.7850  146.8890 O   0  0  0  0  0  0  0  0  0  0  0  0
  194.3870  176.2090  146.4700 C   0  0  0  0  0  2  0  0  0  0  0  0
  194.6790  173.9870  145.3840 C   0  0  0  0  0  1  0  0  0  0  0  0
  194.2040  175.4140  145.1880 C   0  0  0  0  0  2  0  0  0  0  0  0
  1 16  1  0  0  0  0
  1  2  2  0  0  0  0
  2  3  1  0  0  0  0
  3  5  1  0  0  0  0
  5 29  1  0  0  0  0
  5  4  2  0  0  0  0
  6  2  1  0  0  0  0
  6  9  1  0  0  0  0
  7  6  2  0  0  0  0
  8 15  2  0  0  0  0
 10 11  1  0  0  0  0
 10 14  2  0  0  0  0
 11 13  1  0  0  0  0
 12  7  1  0  0  0  0
 12 11  2  0  0  0  0
 13  9  2  0  0  0  0
 13 15  1  0  0  0  0
 14  8  1  0  0  0  0
 17 18  2  0  0  0  0
 17 16  1  0  0  0  0
 19 17  1  0  0  0  0
 20 19  1  0  0  0  0
 21 23  1  0  0  0  0
 21 20  1  1  0  0  0
 21 22  1  0  0  0  0
 23 24  1  6  0  0  0
 23 22  1  0  0  0  0
 25 20  1  0  0  0  0
 26 25  1  0  0  0  0
 26 28  1  0  0  0  0
 28 27  1  0  0  0  0
 30 29  1  0  0  0  0
 32 31  1  0  0  0  0
 32 30  1  0  0  0  0
M  END
>  <MODEL>
6

>  <REMARK>
 VINA RESULT:      -6.3      1.509      2.794
  Name = 
  12 active torsions:
  status: ('A' for Active; 'I' for Inactive)
    1  A    between atoms: N_1  and  C_4
    2  A    between atoms: C_2  and  C_5
    3  A    between atoms: C_3  and  N_20
    4  A    between atoms: C_4  and  C_24
    5  A    between atoms: C_13  and  O_18
    6  A    between atoms: C_13  and  C_29
    7  A    between atoms: C_15  and  N_20
    8  A    between atoms: C_15  and  C_26
    9  A    between atoms: C_16  and  N_20
   10  A    between atoms: C_16  and  C_24
   11  A    between atoms: O_18  and  C_30
   12  A    between atoms: N_19  and  C_26
                            x       y       z     vdW  Elec       q    Type
                         _______ _______ _______ _____ _____    ______ ____

>  <TORSDO>
F 12

$$$$
=
 OpenBabel11052419203D

 32 34  0  0  1  0  0  0  0  0999 V2000
  189.9330  174.6540  145.3260 N   0  0  0  0  0  0  0  0  0  0  0  0
  189.8960  175.9290  145.6000 C   0  0  0  0  0  0  0  0  0  0  0  0
  191.0570  176.6360  146.0670 N   0  0  0  0  0  2  0  0  0  0  0  0
  191.5450  175.2720  147.9020 O   0  0  0  0  0  0  0  0  0  0  0  0
  191.8960  176.2220  147.1540 C   0  0  0  0  0  0  0  0  0  0  0  0
  188.6620  176.6900  145.3260 C   0  0  0  0  0  0  0  0  0  0  0  0
  188.5060  177.3620  144.1040 C   0  0  0  0  0  3  0  0  0  0  0  0
  184.2560  178.2100  146.6730 C   0  0  0  0  0  3  0  0  0  0  0  0
  187.6280  176.7420  146.2750 C   0  0  0  0  0  3  0  0  0  0  0  0
  185.1350  178.8340  144.5010 C   0  0  0  0  0  3  0  0  0  0  0  0
  186.3090  178.1250  144.7710 C   0  0  0  0  0  0  0  0  0  0  0  0
  187.3360  178.0770  143.8270 C   0  0  0  0  0  3  0  0  0  0  0  0
  186.4560  177.4520  146.0050 C   0  0  0  0  0  0  0  0  0  0  0  0
  184.1100  178.8770  145.4520 C   0  0  0  0  0  3  0  0  0  0  0  0
  185.4280  177.4990  146.9500 C   0  0  0  0  0  3  0  0  0  0  0  0
  191.1110  173.7960  145.4170 C   0  0  0  0  0  2  0  0  0  0  0  0
  191.2510  172.9520  144.1910 C   0  0  0  0  0  0  0  0  0  0  0  0
  192.3630  172.7060  143.7530 O   0  0  0  0  0  0  0  0  0  0  0  0
  190.0420  172.3760  143.5230 C   0  0  0  0  0  2  0  0  0  0  0  0
  190.2260  172.3610  142.0780 N   0  0  0  0  0  0  0  0  0  0  0  0
  188.9870  172.8450  141.4830 C   0  0  1  0  0  3  0  0  0  0  0  0
  188.6920  174.2520  141.9660 C   0  0  0  0  0  2  0  0  0  0  0  0
  189.2870  174.0390  140.5930 C   0  0  2  0  0  3  0  0  0  0  0  0
  188.2830  174.1540  139.6330 O   0  0  0  0  0  1  0  0  0  0  0  0
  190.3650  170.9630  141.6900 C   0  0  0  0  0  2  0  0  0  0  0  0
  191.3250  170.8520  140.5200 C   0  0  0  0  0  2  0  0  0  0  0  0
  190.4970  171.3060  138.3860 C   0  0  0  0  0  1  0  0  0  0  0  0
  190.6430  170.2600  139.3820 N   0  0  0  0  0  2  0  0  0  0  0  0
  193.0890  176.8950  147.4230 O   0  0  0  0  0  0  0  0  0  0  0  0
  194.1910  176.8860  146.5220 C   0  0  0  0  0  2  0  0  0  0  0  0
  194.6530  175.3580  144.6120 C   0  0  0  0  0  1  0  0  0  0  0  0
  194.5490  175.4650  146.1200 C   0  0  0  0  0  2  0  0  0  0  0  0
  1 16  1  0  0  0  0
  1  2  2  0  0  0  0
  2  3  1  0  0  0  0
  3  5  1  0  0  0  0
  5 29  1  0  0  0  0
  5  4  2  0  0  0  0
  6  2  1  0  0  0  0
  6  9  1  0  0  0  0
  7  6  2  0  0  0  0
  8 15  2  0  0  0  0
 10 11  1  0  0  0  0
 10 14  2  0  0  0  0
 11 13  1  0  0  0  0
 12  7  1  0  0  0  0
 12 11  2  0  0  0  0
 13  9  2  0  0  0  0
 13 15  1  0  0  0  0
 14  8  1  0  0  0  0
 17 16  1  0  0  0  0
 18 17  2  0  0  0  0
 19 17  1  0  0  0  0
 20 19  1  0  0  0  0
 21 22  1  0  0  0  0
 21 20  1  1  0  0  0
 23 24  1  6  0  0  0
 23 21  1  0  0  0  0
 23 22  1  0  0  0  0
 25 20  1  0  0  0  0
 26 25  1  0  0  0  0
 27 28  1  0  0  0  0
 28 26  1  0  0  0  0
 30 29  1  0  0  0  0
 31 32  1  0  0  0  0
 32 30  1  0  0  0  0
M  END
>  <MODEL>
7

>  <REMARK>
 VINA RESULT:      -6.3      1.630      2.922
  Name = 
  12 active torsions:
  status: ('A' for Active; 'I' for Inactive)
    1  A    between atoms: N_1  and  C_4
    2  A    between atoms: C_2  and  C_5
    3  A    between atoms: C_3  and  N_20
    4  A    between atoms: C_4  and  C_24
    5  A    between atoms: C_13  and  O_18
    6  A    between atoms: C_13  and  C_29
    7  A    between atoms: C_15  and  N_20
    8  A    between atoms: C_15  and  C_26
    9  A    between atoms: C_16  and  N_20
   10  A    between atoms: C_16  and  C_24
   11  A    between atoms: O_18  and  C_30
   12  A    between atoms: N_19  and  C_26
                            x       y       z     vdW  Elec       q    Type
                         _______ _______ _______ _____ _____    ______ ____

>  <TORSDO>
F 12

$$$$
=
 OpenBabel11052419203D

 32 34  0  0  1  0  0  0  0  0999 V2000
  190.1040  176.0300  143.2790 N   0  0  0  0  0  0  0  0  0  0  0  0
  188.9110  175.5400  143.4770 C   0  0  0  0  0  0  0  0  0  0  0  0
  188.4510  174.3680  142.7860 N   0  0  0  0  0  2  0  0  0  0  0  0
  188.8320  175.1130  140.6030 O   0  0  0  0  0  0  0  0  0  0  0  0
  188.5170  174.1640  141.3680 C   0  0  0  0  0  0  0  0  0  0  0  0
  188.0490  176.1400  144.5140 C   0  0  0  0  0  0  0  0  0  0  0  0
  188.4040  176.0420  145.8680 C   0  0  0  0  0  3  0  0  0  0  0  0
  184.1000  178.6580  145.7770 C   0  0  0  0  0  3  0  0  0  0  0  0
  186.8740  176.8220  144.1600 C   0  0  0  0  0  3  0  0  0  0  0  0
  185.6300  177.8760  147.4880 C   0  0  0  0  0  3  0  0  0  0  0  0
  186.4350  177.2960  146.5040 C   0  0  0  0  0  0  0  0  0  0  0  0
  187.6010  176.6170  146.8590 C   0  0  0  0  0  3  0  0  0  0  0  0
  186.0680  177.3990  145.1430 C   0  0  0  0  0  0  0  0  0  0  0  0
  184.4620  178.5570  147.1240 C   0  0  0  0  0  3  0  0  0  0  0  0
  184.9010  178.0810  144.7870 C   0  0  0  0  0  3  0  0  0  0  0  0
  191.1180  175.4720  142.3890 C   0  0  0  0  0  2  0  0  0  0  0  0
  192.4850  175.6270  142.9740 C   0  0  0  0  0  0  0  0  0  0  0  0
  193.3450  176.2240  142.3470 O   0  0  0  0  0  0  0  0  0  0  0  0
  192.7920  175.0910  144.3370 C   0  0  0  0  0  2  0  0  0  0  0  0
  194.0060  175.7060  144.8570 N   0  0  0  0  0  0  0  0  0  0  0  0
  194.8860  174.6260  145.2830 C   0  0  1  0  0  3  0  0  0  0  0  0
  195.2800  173.7740  144.0910 C   0  0  0  0  0  2  0  0  0  0  0  0
  196.2490  174.8000  144.6350 C   0  0  2  0  0  3  0  0  0  0  0  0
  197.2080  174.1570  145.4160 O   0  0  0  0  0  1  0  0  0  0  0  0
  193.6220  176.4390  146.0560 C   0  0  0  0  0  2  0  0  0  0  0  0
  192.1120  176.4210  146.2050 C   0  0  0  0  0  2  0  0  0  0  0  0
  191.1850  175.2920  148.0250 C   0  0  0  0  0  1  0  0  0  0  0  0
  191.7570  176.5590  147.6060 N   0  0  0  0  0  2  0  0  0  0  0  0
  188.1890  172.9250  140.8150 O   0  0  0  0  0  0  0  0  0  0  0  0
  188.2010  172.6870  139.4120 C   0  0  0  0  0  2  0  0  0  0  0  0
  190.5740  172.7170  138.6550 C   0  0  0  0  0  1  0  0  0  0  0  0
  189.3960  171.8340  139.0200 C   0  0  0  0  0  2  0  0  0  0  0  0
  1  2  2  0  0  0  0
  2  6  1  0  0  0  0
  3  2  1  0  0  0  0
  4  5  2  0  0  0  0
  5  3  1  0  0  0  0
  6  7  1  0  0  0  0
  7 12  2  0  0  0  0
  8 14  1  0  0  0  0
  9  6  2  0  0  0  0
  9 13  1  0  0  0  0
 11 12  1  0  0  0  0
 11 10  1  0  0  0  0
 13 11  2  0  0  0  0
 14 10  2  0  0  0  0
 15 13  1  0  0  0  0
 15  8  2  0  0  0  0
 16 17  1  0  0  0  0
 16  1  1  0  0  0  0
 17 19  1  0  0  0  0
 18 17  2  0  0  0  0
 19 20  1  0  0  0  0
 20 25  1  0  0  0  0
 21 20  1  6  0  0  0
 22 23  1  0  0  0  0
 22 21  1  0  0  0  0
 23 21  1  0  0  0  0
 23 24  1  1  0  0  0
 25 26  1  0  0  0  0
 26 28  1  0  0  0  0
 28 27  1  0  0  0  0
 29  5  1  0  0  0  0
 30 29  1  0  0  0  0
 31 32  1  0  0  0  0
 32 30  1  0  0  0  0
M  END
>  <MODEL>
8

>  <REMARK>
 VINA RESULT:      -6.0      2.010      5.978
  Name = 
  12 active torsions:
  status: ('A' for Active; 'I' for Inactive)
    1  A    between atoms: N_1  and  C_4
    2  A    between atoms: C_2  and  C_5
    3  A    between atoms: C_3  and  N_20
    4  A    between atoms: C_4  and  C_24
    5  A    between atoms: C_13  and  O_18
    6  A    between atoms: C_13  and  C_29
    7  A    between atoms: C_15  and  N_20
    8  A    between atoms: C_15  and  C_26
    9  A    between atoms: C_16  and  N_20
   10  A    between atoms: C_16  and  C_24
   11  A    between atoms: O_18  and  C_30
   12  A    between atoms: N_19  and  C_26
                            x       y       z     vdW  Elec       q    Type
                         _______ _______ _______ _____ _____    ______ ____

>  <TORSDO>
F 12

$$$$
=
 OpenBabel11052419203D

 32 34  0  0  1  0  0  0  0  0999 V2000
  189.6640  174.6800  145.0550 N   0  0  0  0  0  0  0  0  0  0  0  0
  189.6920  175.9570  145.3220 C   0  0  0  0  0  0  0  0  0  0  0  0
  190.9000  176.6170  145.7330 N   0  0  0  0  0  2  0  0  0  0  0  0
  191.4130  175.2440  147.5540 O   0  0  0  0  0  0  0  0  0  0  0  0
  191.7690  176.1750  146.7840 C   0  0  0  0  0  0  0  0  0  0  0  0
  188.4780  176.7660  145.0970 C   0  0  0  0  0  0  0  0  0  0  0  0
  188.3550  177.5420  143.9340 C   0  0  0  0  0  3  0  0  0  0  0  0
  184.0890  178.2710  146.5130 C   0  0  0  0  0  3  0  0  0  0  0  0
  187.4320  176.7640  146.0340 C   0  0  0  0  0  3  0  0  0  0  0  0
  185.0120  179.0530  144.4110 C   0  0  0  0  0  3  0  0  0  0  0  0
  186.1660  178.2970  144.6360 C   0  0  0  0  0  0  0  0  0  0  0  0
  187.2050  178.3040  143.7040 C   0  0  0  0  0  3  0  0  0  0  0  0
  186.2810  177.5210  145.8110 C   0  0  0  0  0  0  0  0  0  0  0  0
  183.9740  179.0400  145.3500 C   0  0  0  0  0  3  0  0  0  0  0  0
  185.2400  177.5120  146.7440 C   0  0  0  0  0  3  0  0  0  0  0  0
  190.8090  173.7750  145.1000 C   0  0  0  0  0  2  0  0  0  0  0  0
  190.5420  172.5390  144.3020 C   0  0  0  0  0  0  0  0  0  0  0  0
  189.4590  171.9850  144.3930 O   0  0  0  0  0  0  0  0  0  0  0  0
  191.5790  172.0020  143.3660 C   0  0  0  0  0  2  0  0  0  0  0  0
  192.7560  172.8610  143.3740 N   0  0  0  0  0  0  0  0  0  0  0  0
  193.0200  173.2410  141.9920 C   0  0  1  0  0  3  0  0  0  0  0  0
  191.8300  173.9900  141.4210 C   0  0  0  0  0  2  0  0  0  0  0  0
  193.0500  174.7550  141.8820 C   0  0  2  0  0  3  0  0  0  0  0  0
  193.8130  175.1150  140.7720 O   0  0  0  0  0  1  0  0  0  0  0  0
  193.8730  172.0340  143.8080 C   0  0  0  0  0  2  0  0  0  0  0  0
  194.2890  172.4310  145.2120 C   0  0  0  0  0  2  0  0  0  0  0  0
  194.5470  170.1690  145.7270 C   0  0  0  0  0  1  0  0  0  0  0  0
  195.2240  171.4540  145.7410 N   0  0  0  0  0  2  0  0  0  0  0  0
  192.9980  176.8000  146.9960 O   0  0  0  0  0  0  0  0  0  0  0  0
  194.2220  176.2650  146.5030 C   0  0  0  0  0  2  0  0  0  0  0  0
  195.6090  175.8370  144.4800 C   0  0  0  0  0  1  0  0  0  0  0  0
  194.2710  176.3380  144.9860 C   0  0  0  0  0  2  0  0  0  0  0  0
  1 16  1  0  0  0  0
  1  2  2  0  0  0  0
  2  3  1  0  0  0  0
  3  5  1  0  0  0  0
  5 29  1  0  0  0  0
  5  4  2  0  0  0  0
  6  2  1  0  0  0  0
  6  9  1  0  0  0  0
  7  6  2  0  0  0  0
  8 15  2  0  0  0  0
 10 11  1  0  0  0  0
 10 14  2  0  0  0  0
 11 13  1  0  0  0  0
 12  7  1  0  0  0  0
 12 11  2  0  0  0  0
 13  9  2  0  0  0  0
 13 15  1  0  0  0  0
 14  8  1  0  0  0  0
 17 18  2  0  0  0  0
 17 16  1  0  0  0  0
 19 20  1  0  0  0  0
 19 17  1  0  0  0  0
 20 25  1  0  0  0  0
 21 20  1  1  0  0  0
 22 23  1  0  0  0  0
 22 21  1  0  0  0  0
 23 24  1  6  0  0  0
 23 21  1  0  0  0  0
 25 26  1  0  0  0  0
 26 28  1  0  0  0  0
 27 28  1  0  0  0  0
 30 29  1  0  0  0  0
 31 32  1  0  0  0  0
 32 30  1  0  0  0  0
M  END
>  <MODEL>
9

>  <REMARK>
 VINA RESULT:      -5.9      2.334      4.219
  Name = 
  12 active torsions:
  status: ('A' for Active; 'I' for Inactive)
    1  A    between atoms: N_1  and  C_4
    2  A    between atoms: C_2  and  C_5
    3  A    between atoms: C_3  and  N_20
    4  A    between atoms: C_4  and  C_24
    5  A    between atoms: C_13  and  O_18
    6  A    between atoms: C_13  and  C_29
    7  A    between atoms: C_15  and  N_20
    8  A    between atoms: C_15  and  C_26
    9  A    between atoms: C_16  and  N_20
   10  A    between atoms: C_16  and  C_24
   11  A    between atoms: O_18  and  C_30
   12  A    between atoms: N_19  and  C_26
                            x       y       z     vdW  Elec       q    Type
                         _______ _______ _______ _____ _____    ______ ____

>  <TORSDO>
F 12

$$$$
