=
 OpenBabel11052418563D

 34 40  0  0  0  0  0  0  0  0999 V2000
  188.9850  174.6450  141.6120 C   0  0  0  0  0  0  0  0  0  0  0  0
  191.1640  174.1170  142.6260 C   0  0  0  0  0  0  0  0  0  0  0  0
  189.5150  175.4090  143.8500 C   0  0  0  0  0  0  0  0  0  0  0  0
  190.2300  176.0170  146.0310 C   0  0  0  0  0  0  0  0  0  0  0  0
  190.6350  173.3550  140.3850 C   0  0  0  0  0  3  0  0  0  0  0  0
  191.5300  173.4330  141.4640 C   0  0  0  0  0  3  0  0  0  0  0  0
  191.6040  174.8810  144.8020 C   0  0  0  0  0  0  0  0  0  0  0  0
  189.8810  174.7250  142.6860 C   0  0  0  0  0  0  0  0  0  0  0  0
  191.3630  175.8200  146.8240 C   0  0  0  0  0  2  0  0  0  0  0  0
  189.3680  173.9560  140.4570 C   0  0  0  0  0  3  0  0  0  0  0  0
  188.2620  176.0330  143.9920 C   0  0  0  0  0  0  0  0  0  0  0  0
  187.7260  175.2510  141.7250 C   0  0  0  0  0  3  0  0  0  0  0  0
  192.0200  174.2000  143.6970 N   0  0  0  0  0  0  0  0  0  0  0  0
  188.9320  176.6970  146.3550 C   0  0  0  0  0  3  0  0  0  0  0  0
  187.9540  176.6800  145.1650 C   0  0  0  0  0  0  0  0  0  0  0  0
  192.2480  175.0930  146.0050 C   0  0  0  0  0  0  0  0  0  0  0  0
  190.4050  175.4490  144.8480 N   0  0  0  0  0  0  0  0  0  0  0  0
  187.3690  175.9350  142.9030 C   0  0  0  0  0  3  0  0  0  0  0  0
  185.1570  179.2490  144.9410 C   0  0  0  0  0  0  0  0  0  0  0  0
  184.2390  178.7270  145.8550 C   0  0  0  0  0  3  0  0  0  0  0  0
  186.6620  177.3850  145.3730 C   0  0  0  0  0  0  0  0  0  0  0  0
  184.5280  177.5430  146.5360 C   0  0  0  0  0  3  0  0  0  0  0  0
  186.3640  178.5850  144.7060 C   0  0  0  0  0  3  0  0  0  0  0  0
  185.7360  176.8780  146.2990 C   0  0  0  0  0  3  0  0  0  0  0  0
  184.8730  180.4300  144.2690 O   0  0  0  0  0  1  0  0  0  0  0  0
  193.5880  174.5770  146.4000 C   0  0  0  0  0  2  0  0  0  0  0  0
  194.6150  175.6910  146.3160 C   0  0  0  0  0  2  0  0  0  0  0  0
  196.7990  173.8450  146.3580 F   0  0  0  0  0  0  0  0  0  0  0  0
  195.5150  175.4690  145.1470 C   0  0  0  0  0  0  0  0  0  0  0  0
  196.5800  174.5560  145.2240 C   0  0  0  0  0  0  0  0  0  0  0  0
  197.2120  175.1040  142.9500 C   0  0  0  0  0  3  0  0  0  0  0  0
  196.1570  176.0170  142.8750 C   0  0  0  0  0  3  0  0  0  0  0  0
  195.3110  176.2010  143.9720 C   0  0  0  0  0  3  0  0  0  0  0  0
  197.4230  174.3750  144.1240 C   0  0  0  0  0  3  0  0  0  0  0  0
  1 12  1  0  0  0  0
  1  8  1  0  0  0  0
  2  8  1  0  0  0  0
  2 13  2  0  0  0  0
  3 11  1  0  0  0  0
  3 17  1  0  0  0  0
  4 14  2  0  0  0  0
  4  9  1  0  0  0  0
  5 10  1  0  0  0  0
  5  6  2  0  0  0  0
  6  2  1  0  0  0  0
  7 17  1  0  0  0  0
  7 16  2  0  0  0  0
  8  3  2  0  0  0  0
 10  1  2  0  0  0  0
 11 15  2  0  0  0  0
 12 18  2  0  0  0  0
 13  7  1  0  0  0  0
 15 21  1  0  0  0  0
 15 14  1  0  0  0  0
 16 26  1  0  0  0  0
 16  9  1  0  0  0  0
 17  4  1  0  0  0  0
 18 11  1  0  0  0  0
 19 20  1  0  0  0  0
 20 22  2  0  0  0  0
 21 24  2  0  0  0  0
 23 19  2  0  0  0  0
 23 21  1  0  0  0  0
 24 22  1  0  0  0  0
 25 19  1  0  0  0  0
 27 26  1  0  0  0  0
 29 30  1  0  0  0  0
 29 27  1  0  0  0  0
 30 28  1  0  0  0  0
 31 34  1  0  0  0  0
 32 31  2  0  0  0  0
 32 33  1  0  0  0  0
 33 29  2  0  0  0  0
 34 30  2  0  0  0  0
M  END
>  <MODEL>
1

>  <REMARK>
 VINA RESULT:      -9.3      0.000      0.000
  Name = 
  4 active torsions:
  status: ('A' for Active; 'I' for Inactive)
    1  A    between atoms: C_3  and  C_13
    2  A    between atoms: C_3  and  C_17
    3  A    between atoms: C_12  and  C_28
    4  A    between atoms: C_17  and  C_29
                            x       y       z     vdW  Elec       q    Type
                         _______ _______ _______ _____ _____    ______ ____

>  <TORSDO>
F 4

$$$$
=
 OpenBabel11052418563D

 34 40  0  0  0  0  0  0  0  0999 V2000
  189.1870  174.3790  141.3060 C   0  0  0  0  0  0  0  0  0  0  0  0
  191.5940  174.4830  141.8080 C   0  0  0  0  0  0  0  0  0  0  0  0
  189.9900  175.6560  143.2020 C   0  0  0  0  0  0  0  0  0  0  0  0
  190.9940  176.8060  145.0210 C   0  0  0  0  0  0  0  0  0  0  0  0
  190.7890  173.2080  139.9080 C   0  0  0  0  0  3  0  0  0  0  0  0
  191.8510  173.6650  140.7050 C   0  0  0  0  0  3  0  0  0  0  0  0
  192.2990  175.7300  143.6680 C   0  0  0  0  0  0  0  0  0  0  0  0
  190.2480  174.8380  142.0970 C   0  0  0  0  0  0  0  0  0  0  0  0
  192.2840  176.9860  145.5250 C   0  0  0  0  0  3  0  0  0  0  0  0
  189.4630  173.5620  140.2060 C   0  0  0  0  0  3  0  0  0  0  0  0
  188.6880  176.0470  143.5590 C   0  0  0  0  0  0  0  0  0  0  0  0
  187.8760  174.7470  141.6390 C   0  0  0  0  0  3  0  0  0  0  0  0
  192.6150  174.9360  142.6070 N   0  0  0  0  0  0  0  0  0  0  0  0
  189.6740  177.2790  145.5560 C   0  0  0  0  0  2  0  0  0  0  0  0
  188.4960  176.8420  144.6640 C   0  0  0  0  0  0  0  0  0  0  0  0
  193.1170  176.2930  144.6270 C   0  0  0  0  0  0  0  0  0  0  0  0
  191.0400  176.0590  143.9280 N   0  0  0  0  0  0  0  0  0  0  0  0
  187.6300  175.5690  142.7550 C   0  0  0  0  0  3  0  0  0  0  0  0
  185.3060  178.9000  144.9310 C   0  0  0  0  0  0  0  0  0  0  0  0
  184.6390  178.2290  145.9590 C   0  0  0  0  0  3  0  0  0  0  0  0
  187.1510  177.3180  145.0830 C   0  0  0  0  0  0  0  0  0  0  0  0
  185.2240  177.1110  146.5570 C   0  0  0  0  0  3  0  0  0  0  0  0
  186.5580  178.4500  144.5000 C   0  0  0  0  0  3  0  0  0  0  0  0
  186.4760  176.6610  146.1240 C   0  0  0  0  0  3  0  0  0  0  0  0
  184.7290  180.0150  144.3400 O   0  0  0  0  0  1  0  0  0  0  0  0
  194.5920  176.1270  144.7460 C   0  0  0  0  0  2  0  0  0  0  0  0
  194.9310  175.4500  146.0620 C   0  0  0  0  0  2  0  0  0  0  0  0
  193.1180  173.2710  145.6830 F   0  0  0  0  0  0  0  0  0  0  0  0
  195.3830  174.0500  145.8160 C   0  0  0  0  0  0  0  0  0  0  0  0
  194.4490  173.0140  145.6450 C   0  0  0  0  0  0  0  0  0  0  0  0
  196.2610  171.4250  145.3960 C   0  0  0  0  0  3  0  0  0  0  0  0
  197.1910  172.4540  145.5710 C   0  0  0  0  0  3  0  0  0  0  0  0
  196.7520  173.7640  145.7830 C   0  0  0  0  0  3  0  0  0  0  0  0
  194.8920  171.7060  145.4330 C   0  0  0  0  0  3  0  0  0  0  0  0
  1 12  1  0  0  0  0
  1  8  1  0  0  0  0
  2  8  1  0  0  0  0
  2 13  2  0  0  0  0
  3 11  1  0  0  0  0
  3 17  1  0  0  0  0
  4  9  2  0  0  0  0
  4 14  1  0  0  0  0
  5 10  1  0  0  0  0
  5  6  2  0  0  0  0
  6  2  1  0  0  0  0
  7 17  1  0  0  0  0
  7 16  2  0  0  0  0
  8  3  2  0  0  0  0
 10  1  2  0  0  0  0
 11 15  2  0  0  0  0
 12 18  2  0  0  0  0
 13  7  1  0  0  0  0
 15 21  1  0  0  0  0
 15 14  1  0  0  0  0
 16 26  1  0  0  0  0
 16  9  1  0  0  0  0
 17  4  1  0  0  0  0
 18 11  1  0  0  0  0
 19 20  1  0  0  0  0
 20 22  2  0  0  0  0
 21 24  2  0  0  0  0
 23 19  2  0  0  0  0
 23 21  1  0  0  0  0
 24 22  1  0  0  0  0
 25 19  1  0  0  0  0
 26 27  1  0  0  0  0
 29 27  1  0  0  0  0
 30 28  1  0  0  0  0
 30 29  2  0  0  0  0
 31 34  2  0  0  0  0
 31 32  1  0  0  0  0
 32 33  2  0  0  0  0
 33 29  1  0  0  0  0
 34 30  1  0  0  0  0
M  END
>  <MODEL>
2

>  <REMARK>
 VINA RESULT:      -9.3      1.468      1.908
  Name = 
  4 active torsions:
  status: ('A' for Active; 'I' for Inactive)
    1  A    between atoms: C_3  and  C_13
    2  A    between atoms: C_3  and  C_17
    3  A    between atoms: C_12  and  C_28
    4  A    between atoms: C_17  and  C_29
                            x       y       z     vdW  Elec       q    Type
                         _______ _______ _______ _____ _____    ______ ____

>  <TORSDO>
F 4

$$$$
=
 OpenBabel11052418563D

 34 40  0  0  0  0  0  0  0  0999 V2000
  190.8840  173.8670  141.6420 C   0  0  0  0  0  0  0  0  0  0  0  0
  188.9310  174.7750  142.8330 C   0  0  0  0  0  0  0  0  0  0  0  0
  191.0100  174.3560  144.0110 C   0  0  0  0  0  0  0  0  0  0  0  0
  190.9200  174.9430  146.3110 C   0  0  0  0  0  0  0  0  0  0  0  0
  188.8030  174.2820  140.4620 C   0  0  0  0  0  3  0  0  0  0  0  0
  188.2010  174.7460  141.6420 C   0  0  0  0  0  3  0  0  0  0  0  0
  189.1300  175.2350  145.1270 C   0  0  0  0  0  0  0  0  0  0  0  0
  190.2790  174.3270  142.8200 C   0  0  0  0  0  0  0  0  0  0  0  0
  189.9780  175.4870  147.1870 C   0  0  0  0  0  2  0  0  0  0  0  0
  190.1380  173.8460  140.4590 C   0  0  0  0  0  3  0  0  0  0  0  0
  192.3510  173.9360  144.0820 C   0  0  0  0  0  0  0  0  0  0  0  0
  192.2200  173.4470  141.6770 C   0  0  0  0  0  3  0  0  0  0  0  0
  188.3660  175.2320  143.9990 N   0  0  0  0  0  0  0  0  0  0  0  0
  192.3540  174.5710  146.5460 C   0  0  0  0  0  3  0  0  0  0  0  0
  193.0220  174.0000  145.2790 C   0  0  0  0  0  0  0  0  0  0  0  0
  188.8200  175.6560  146.4050 C   0  0  0  0  0  0  0  0  0  0  0  0
  190.3880  174.8110  145.1050 N   0  0  0  0  0  0  0  0  0  0  0  0
  192.9450  173.4840  142.8830 C   0  0  0  0  0  3  0  0  0  0  0  0
  196.0760  171.7830  145.7620 C   0  0  0  0  0  0  0  0  0  0  0  0
  197.0970  172.7360  145.7990 C   0  0  0  0  0  3  0  0  0  0  0  0
  194.4290  173.5460  145.4330 C   0  0  0  0  0  0  0  0  0  0  0  0
  196.7910  174.0920  145.6630 C   0  0  0  0  0  3  0  0  0  0  0  0
  194.7490  172.1860  145.5860 C   0  0  0  0  0  3  0  0  0  0  0  0
  195.4630  174.4950  145.4860 C   0  0  0  0  0  3  0  0  0  0  0  0
  196.3780  170.4360  145.9030 O   0  0  0  0  0  1  0  0  0  0  0  0
  187.5360  176.2600  146.8550 C   0  0  0  0  0  2  0  0  0  0  0  0
  187.5690  177.7630  146.6410 C   0  0  0  0  0  2  0  0  0  0  0  0
  187.6950  178.2970  143.8350 F   0  0  0  0  0  0  0  0  0  0  0  0
  186.3860  178.1930  145.8420 C   0  0  0  0  0  0  0  0  0  0  0  0
  186.5050  178.4510  144.4660 C   0  0  0  0  0  0  0  0  0  0  0  0
  184.1560  179.0380  144.3750 C   0  0  0  0  0  3  0  0  0  0  0  0
  184.0380  178.7860  145.7450 C   0  0  0  0  0  3  0  0  0  0  0  0
  185.1510  178.3670  146.4780 C   0  0  0  0  0  3  0  0  0  0  0  0
  185.3880  178.8700  143.7370 C   0  0  0  0  0  3  0  0  0  0  0  0
  1 12  1  0  0  0  0
  1  8  1  0  0  0  0
  2 13  2  0  0  0  0
  3 11  1  0  0  0  0
  3 17  1  0  0  0  0
  4 14  2  0  0  0  0
  4  9  1  0  0  0  0
  5  6  2  0  0  0  0
  6  2  1  0  0  0  0
  7 16  2  0  0  0  0
  8  2  1  0  0  0  0
  8  3  2  0  0  0  0
 10  5  1  0  0  0  0
 10  1  2  0  0  0  0
 11 15  2  0  0  0  0
 12 18  2  0  0  0  0
 13  7  1  0  0  0  0
 15 21  1  0  0  0  0
 15 14  1  0  0  0  0
 16 26  1  0  0  0  0
 16  9  1  0  0  0  0
 17  7  1  0  0  0  0
 17  4  1  0  0  0  0
 18 11  1  0  0  0  0
 19 20  1  0  0  0  0
 19 25  1  0  0  0  0
 21 24  2  0  0  0  0
 21 23  1  0  0  0  0
 22 20  2  0  0  0  0
 23 19  2  0  0  0  0
 24 22  1  0  0  0  0
 27 26  1  0  0  0  0
 28 30  1  0  0  0  0
 29 33  1  0  0  0  0
 29 27  1  0  0  0  0
 30 29  2  0  0  0  0
 31 32  1  0  0  0  0
 32 33  2  0  0  0  0
 34 31  2  0  0  0  0
 34 30  1  0  0  0  0
M  END
>  <MODEL>
3

>  <REMARK>
 VINA RESULT:      -9.2      3.466      8.231
  Name = 
  4 active torsions:
  status: ('A' for Active; 'I' for Inactive)
    1  A    between atoms: C_3  and  C_13
    2  A    between atoms: C_3  and  C_17
    3  A    between atoms: C_12  and  C_28
    4  A    between atoms: C_17  and  C_29
                            x       y       z     vdW  Elec       q    Type
                         _______ _______ _______ _____ _____    ______ ____

>  <TORSDO>
F 4

$$$$
=
 OpenBabel11052418563D

 34 40  0  0  1  0  0  0  0  0999 V2000
  191.2090  175.0900  145.8520 C   0  0  0  0  0  0  0  0  0  0  0  0
  189.6370  176.9320  145.4160 C   0  0  0  0  0  0  0  0  0  0  0  0
  190.0080  175.2050  143.7520 C   0  0  0  0  0  0  0  0  0  0  0  0
  188.6990  175.4960  141.7920 C   0  0  0  0  0  0  0  0  0  0  0  0
  190.8430  176.8180  147.5180 C   0  0  0  0  0  3  0  0  0  0  0  0
  189.9220  177.4640  146.6760 C   0  0  0  0  0  3  0  0  0  0  0  0
  188.4990  176.9730  143.3630 C   0  0  0  0  0  0  0  0  0  0  0  0
  190.2940  175.7390  145.0130 C   0  0  2  0  0  3  0  0  0  0  0  0
  187.7440  176.4040  141.3290 C   0  0  0  0  0  3  0  0  0  0  0  0
  191.4830  175.6360  147.1100 C   0  0  0  0  0  3  0  0  0  0  0  0
  190.6100  174.0260  143.2800 C   0  0  0  0  0  0  0  0  0  0  0  0
  191.8220  173.9090  145.4140 C   0  0  0  0  0  3  0  0  0  0  0  0
  188.7350  177.5410  144.5790 N   0  0  0  0  0  0  0  0  0  0  0  0
  189.2200  174.2400  141.1590 C   0  0  0  0  0  3  0  0  0  0  0  0
  190.2790  173.5430  142.0360 C   0  0  0  0  0  0  0  0  0  0  0  0
  187.6380  177.3620  142.3560 C   0  0  0  0  0  0  0  0  0  0  0  0
  189.1200  175.8600  142.9930 N   0  0  0  0  0  0  0  0  0  0  0  0
  191.5240  173.3820  144.1430 C   0  0  0  0  0  3  0  0  0  0  0  0
  191.0570  169.8960  141.2800 C   0  0  0  0  0  0  0  0  0  0  0  0
  192.1450  170.0280  140.4140 C   0  0  0  0  0  3  0  0  0  0  0  0
  190.8970  172.3190  141.4620 C   0  0  0  0  0  0  0  0  0  0  0  0
  192.6190  171.2980  140.0770 C   0  0  0  0  0  3  0  0  0  0  0  0
  190.4400  171.0360  141.8060 C   0  0  0  0  0  3  0  0  0  0  0  0
  192.0010  172.4370  140.6020 C   0  0  0  0  0  3  0  0  0  0  0  0
  190.5890  168.6350  141.6210 O   0  0  0  0  0  1  0  0  0  0  0  0
  186.7050  178.5230  142.3830 C   0  0  0  0  0  2  0  0  0  0  0  0
  185.3630  178.0940  142.9480 C   0  0  0  0  0  2  0  0  0  0  0  0
  185.5620  180.5170  144.4530 F   0  0  0  0  0  0  0  0  0  0  0  0
  185.4020  178.1240  144.4380 C   0  0  0  0  0  0  0  0  0  0  0  0
  185.5090  179.3420  145.1290 C   0  0  0  0  0  0  0  0  0  0  0  0
  185.5120  178.1460  147.2360 C   0  0  0  0  0  3  0  0  0  0  0  0
  185.4110  176.9330  146.5490 C   0  0  0  0  0  3  0  0  0  0  0  0
  185.3580  176.9220  145.1530 C   0  0  0  0  0  3  0  0  0  0  0  0
  185.5610  179.3490  146.5260 C   0  0  0  0  0  3  0  0  0  0  0  0
  1 10  2  0  0  0  0
  2  6  1  0  0  0  0
  4 17  1  0  0  0  0
  6  5  2  0  0  0  0
  7 13  1  0  0  0  0
  8  3  1  1  0  0  0
  8  2  1  0  0  0  0
  8  1  1  0  0  0  0
  9  4  2  0  0  0  0
  9 16  1  0  0  0  0
 10  5  1  0  0  0  0
 11  3  2  0  0  0  0
 11 18  1  0  0  0  0
 12  1  1  0  0  0  0
 13  2  2  0  0  0  0
 14  4  1  0  0  0  0
 14 15  2  0  0  0  0
 15 11  1  0  0  0  0
 16 26  1  0  0  0  0
 16  7  2  0  0  0  0
 17  7  1  0  0  0  0
 17  3  1  0  0  0  0
 18 12  2  0  0  0  0
 19 25  1  0  0  0  0
 19 23  1  0  0  0  0
 20 19  2  0  0  0  0
 21 23  2  0  0  0  0
 21 15  1  0  0  0  0
 22 20  1  0  0  0  0
 22 24  2  0  0  0  0
 24 21  1  0  0  0  0
 26 27  1  0  0  0  0
 27 29  1  0  0  0  0
 28 30  1  0  0  0  0
 29 30  2  0  0  0  0
 29 33  1  0  0  0  0
 30 34  1  0  0  0  0
 32 31  1  0  0  0  0
 33 32  2  0  0  0  0
 34 31  2  0  0  0  0
M  END
>  <MODEL>
4

>  <REMARK>
 VINA RESULT:      -8.9      4.097      8.611
  Name = 
  4 active torsions:
  status: ('A' for Active; 'I' for Inactive)
    1  A    between atoms: C_3  and  C_13
    2  A    between atoms: C_3  and  C_17
    3  A    between atoms: C_12  and  C_28
    4  A    between atoms: C_17  and  C_29
                            x       y       z     vdW  Elec       q    Type
                         _______ _______ _______ _____ _____    ______ ____

>  <TORSDO>
F 4

$$$$
=
 OpenBabel11052418563D

 34 40  0  0  1  0  0  0  0  0999 V2000
  191.3200  175.8230  145.9480 C   0  0  0  0  0  0  0  0  0  0  0  0
  191.7560  173.9280  144.4400 C   0  0  0  0  0  0  0  0  0  0  0  0
  189.7010  175.2060  144.2550 C   0  0  0  0  0  0  0  0  0  0  0  0
  188.2830  174.4510  142.5060 C   0  0  0  0  0  0  0  0  0  0  0  0
  193.3750  174.5450  146.1380 C   0  0  0  0  0  3  0  0  0  0  0  0
  192.9820  173.7150  145.0750 C   0  0  0  0  0  3  0  0  0  0  0  0
  190.1480  173.3940  142.8150 C   0  0  0  0  0  0  0  0  0  0  0  0
  190.9280  174.9910  144.8910 C   0  0  2  0  0  3  0  0  0  0  0  0
  188.3150  173.4580  141.5250 C   0  0  0  0  0  3  0  0  0  0  0  0
  192.5500  175.5950  146.5730 C   0  0  0  0  0  3  0  0  0  0  0  0
  188.8270  176.2390  144.6370 C   0  0  0  0  0  0  0  0  0  0  0  0
  190.4740  176.8660  146.3490 C   0  0  0  0  0  3  0  0  0  0  0  0
  191.3540  173.1350  143.3940 N   0  0  0  0  0  0  0  0  0  0  0  0
  187.2620  175.5200  142.7630 C   0  0  0  0  0  3  0  0  0  0  0  0
  187.6400  176.4080  143.9640 C   0  0  0  0  0  0  0  0  0  0  0  0
  189.5250  172.7740  141.7500 C   0  0  0  0  0  0  0  0  0  0  0  0
  189.3790  174.3870  143.2460 N   0  0  0  0  0  0  0  0  0  0  0  0
  189.2420  177.0720  145.6980 C   0  0  0  0  0  3  0  0  0  0  0  0
  184.8780  178.3080  145.7650 C   0  0  0  0  0  0  0  0  0  0  0  0
  184.7530  179.4360  144.9500 C   0  0  0  0  0  3  0  0  0  0  0  0
  186.6550  177.4590  144.3330 C   0  0  0  0  0  0  0  0  0  0  0  0
  185.5660  179.5770  143.8230 C   0  0  0  0  0  3  0  0  0  0  0  0
  185.8200  177.3230  145.4540 C   0  0  0  0  0  3  0  0  0  0  0  0
  186.5090  178.5910  143.5140 C   0  0  0  0  0  3  0  0  0  0  0  0
  184.0660  178.1640  146.8800 O   0  0  0  0  0  1  0  0  0  0  0  0
  190.0660  171.6520  140.9340 C   0  0  0  0  0  2  0  0  0  0  0  0
  191.0310  172.1910  139.8930 C   0  0  0  0  0  2  0  0  0  0  0  0
  189.6440  174.1660  138.3580 F   0  0  0  0  0  0  0  0  0  0  0  0
  190.5020  171.9320  138.5230 C   0  0  0  0  0  0  0  0  0  0  0  0
  189.8200  172.9360  137.8150 C   0  0  0  0  0  0  0  0  0  0  0  0
  189.4860  171.4040  135.9670 C   0  0  0  0  0  3  0  0  0  0  0  0
  190.1600  170.4030  136.6730 C   0  0  0  0  0  3  0  0  0  0  0  0
  190.6650  170.6660  137.9490 C   0  0  0  0  0  3  0  0  0  0  0  0
  189.3160  172.6680  136.5380 C   0  0  0  0  0  3  0  0  0  0  0  0
  1 12  1  0  0  0  0
  1 10  2  0  0  0  0
  2  8  1  0  0  0  0
  2  6  1  0  0  0  0
  3 11  2  0  0  0  0
  4 14  1  0  0  0  0
  4 17  1  0  0  0  0
  5 10  1  0  0  0  0
  6  5  2  0  0  0  0
  7 17  1  0  0  0  0
  7 13  1  0  0  0  0
  8  3  1  6  0  0  0
  8  1  1  0  0  0  0
  9 16  1  0  0  0  0
  9  4  2  0  0  0  0
 11 18  1  0  0  0  0
 13  2  2  0  0  0  0
 14 15  2  0  0  0  0
 15 21  1  0  0  0  0
 15 11  1  0  0  0  0
 16  7  2  0  0  0  0
 17  3  1  0  0  0  0
 18 12  2  0  0  0  0
 19 25  1  0  0  0  0
 20 19  2  0  0  0  0
 21 23  2  0  0  0  0
 22 20  1  0  0  0  0
 23 19  1  0  0  0  0
 24 22  2  0  0  0  0
 24 21  1  0  0  0  0
 26 16  1  0  0  0  0
 27 26  1  0  0  0  0
 29 27  1  0  0  0  0
 30 28  1  0  0  0  0
 30 29  2  0  0  0  0
 31 34  2  0  0  0  0
 31 32  1  0  0  0  0
 32 33  2  0  0  0  0
 33 29  1  0  0  0  0
 34 30  1  0  0  0  0
M  END
>  <MODEL>
5

>  <REMARK>
 VINA RESULT:      -8.7      2.744      5.983
  Name = 
  4 active torsions:
  status: ('A' for Active; 'I' for Inactive)
    1  A    between atoms: C_3  and  C_13
    2  A    between atoms: C_3  and  C_17
    3  A    between atoms: C_12  and  C_28
    4  A    between atoms: C_17  and  C_29
                            x       y       z     vdW  Elec       q    Type
                         _______ _______ _______ _____ _____    ______ ____

>  <TORSDO>
F 4

$$$$
=
 OpenBabel11052418563D

 34 40  0  0  1  0  0  0  0  0999 V2000
  185.2050  177.8350  144.8420 C   0  0  0  0  0  0  0  0  0  0  0  0
  186.9490  177.6250  146.5650 C   0  0  0  0  0  0  0  0  0  0  0  0
  187.3920  176.9600  144.2740 C   0  0  0  0  0  0  0  0  0  0  0  0
  189.6070  176.1710  143.9380 C   0  0  0  0  0  0  0  0  0  0  0  0
  184.7590  178.4980  147.1350 C   0  0  0  0  0  3  0  0  0  0  0  0
  186.0630  178.1400  147.5140 C   0  0  0  0  0  3  0  0  0  0  0  0
  189.0490  176.7800  145.9400 C   0  0  0  0  0  0  0  0  0  0  0  0
  186.5040  177.4740  145.2240 C   0  0  2  0  0  3  0  0  0  0  0  0
  190.7530  175.9920  144.7140 C   0  0  0  0  0  3  0  0  0  0  0  0
  184.3310  178.3480  145.8050 C   0  0  0  0  0  3  0  0  0  0  0  0
  187.0320  176.7850  142.9260 C   0  0  0  0  0  0  0  0  0  0  0  0
  184.8170  177.6790  143.5050 C   0  0  0  0  0  3  0  0  0  0  0  0
  188.2320  177.2760  146.9110 N   0  0  0  0  0  0  0  0  0  0  0  0
  189.3950  175.9600  142.4680 C   0  0  0  0  0  3  0  0  0  0  0  0
  187.9520  176.2870  142.0350 C   0  0  0  0  0  0  0  0  0  0  0  0
  190.3680  176.3790  146.0120 C   0  0  0  0  0  0  0  0  0  0  0  0
  188.6220  176.6390  144.6910 N   0  0  0  0  0  0  0  0  0  0  0  0
  185.7210  177.1620  142.5570 C   0  0  0  0  0  3  0  0  0  0  0  0
  187.8240  174.7270  138.5670 C   0  0  0  0  0  0  0  0  0  0  0  0
  187.0670  175.6750  137.8740 C   0  0  0  0  0  3  0  0  0  0  0  0
  187.6320  176.0490  140.6030 C   0  0  0  0  0  0  0  0  0  0  0  0
  186.5980  176.8130  138.5350 C   0  0  0  0  0  3  0  0  0  0  0  0
  188.1100  174.9160  139.9220 C   0  0  0  0  0  3  0  0  0  0  0  0
  186.8830  177.0000  139.8910 C   0  0  0  0  0  3  0  0  0  0  0  0
  188.2950  173.6000  137.9100 O   0  0  0  0  0  1  0  0  0  0  0  0
  191.2480  176.4300  147.2120 C   0  0  0  0  0  2  0  0  0  0  0  0
  192.1750  175.2280  147.2230 C   0  0  0  0  0  2  0  0  0  0  0  0
  193.4120  173.1780  145.6580 F   0  0  0  0  0  0  0  0  0  0  0  0
  193.3490  175.4780  146.3380 C   0  0  0  0  0  0  0  0  0  0  0  0
  193.9240  174.4330  145.5960 C   0  0  0  0  0  0  0  0  0  0  0  0
  195.5760  175.9700  144.7140 C   0  0  0  0  0  3  0  0  0  0  0  0
  195.0070  177.0100  145.4550 C   0  0  0  0  0  3  0  0  0  0  0  0
  193.8970  176.7640  146.2670 C   0  0  0  0  0  3  0  0  0  0  0  0
  195.0340  174.6840  144.7850 C   0  0  0  0  0  3  0  0  0  0  0  0
  1  8  1  0  0  0  0
  1 10  2  0  0  0  0
  2 13  2  0  0  0  0
  2  6  1  0  0  0  0
  3 17  1  0  0  0  0
  4 17  1  0  0  0  0
  4  9  2  0  0  0  0
  5  6  2  0  0  0  0
  7 16  2  0  0  0  0
  7 13  1  0  0  0  0
  8  3  1  6  0  0  0
  8  2  1  0  0  0  0
  9 16  1  0  0  0  0
 10  5  1  0  0  0  0
 11  3  2  0  0  0  0
 12  1  1  0  0  0  0
 14  4  1  0  0  0  0
 15 14  2  0  0  0  0
 15 11  1  0  0  0  0
 16 26  1  0  0  0  0
 17  7  1  0  0  0  0
 18 11  1  0  0  0  0
 18 12  2  0  0  0  0
 19 23  1  0  0  0  0
 20 22  1  0  0  0  0
 20 19  2  0  0  0  0
 21 15  1  0  0  0  0
 22 24  2  0  0  0  0
 23 21  2  0  0  0  0
 24 21  1  0  0  0  0
 25 19  1  0  0  0  0
 26 27  1  0  0  0  0
 29 27  1  0  0  0  0
 30 28  1  0  0  0  0
 30 29  2  0  0  0  0
 31 34  2  0  0  0  0
 31 32  1  0  0  0  0
 32 33  2  0  0  0  0
 33 29  1  0  0  0  0
 34 30  1  0  0  0  0
M  END
>  <MODEL>
6

>  <REMARK>
 VINA RESULT:      -8.5      2.483      5.404
  Name = 
  4 active torsions:
  status: ('A' for Active; 'I' for Inactive)
    1  A    between atoms: C_3  and  C_13
    2  A    between atoms: C_3  and  C_17
    3  A    between atoms: C_12  and  C_28
    4  A    between atoms: C_17  and  C_29
                            x       y       z     vdW  Elec       q    Type
                         _______ _______ _______ _____ _____    ______ ____

>  <TORSDO>
F 4

$$$$
=
 OpenBabel11052418563D

 34 40  0  0  1  0  0  0  0  0999 V2000
  191.5070  176.2910  146.2610 C   0  0  0  0  0  0  0  0  0  0  0  0
  192.2820  174.7530  144.5040 C   0  0  0  0  0  0  0  0  0  0  0  0
  190.0240  175.6380  144.4600 C   0  0  0  0  0  0  0  0  0  0  0  0
  188.7630  174.8980  142.5880 C   0  0  0  0  0  0  0  0  0  0  0  0
  193.7660  175.4030  146.3090 C   0  0  0  0  0  3  0  0  0  0  0  0
  193.5300  174.6800  145.1290 C   0  0  0  0  0  3  0  0  0  0  0  0
  190.7940  174.1730  142.7830 C   0  0  0  0  0  0  0  0  0  0  0  0
  191.2720  175.5650  145.0860 C   0  0  2  0  0  3  0  0  0  0  0  0
  188.9750  174.0830  141.4750 C   0  0  0  0  0  3  0  0  0  0  0  0
  192.7610  176.2070  146.8730 C   0  0  0  0  0  3  0  0  0  0  0  0
  188.9730  176.4230  144.9680 C   0  0  0  0  0  0  0  0  0  0  0  0
  190.4820  177.0870  146.7890 C   0  0  0  0  0  3  0  0  0  0  0  0
  192.0300  174.0610  143.3450 N   0  0  0  0  0  0  0  0  0  0  0  0
  187.5610  175.7090  142.9750 C   0  0  0  0  0  3  0  0  0  0  0  0
  187.7720  176.4650  144.3010 C   0  0  0  0  0  0  0  0  0  0  0  0
  190.2930  173.6110  141.6260 C   0  0  0  0  0  0  0  0  0  0  0  0
  189.8560  174.9310  143.3360 N   0  0  0  0  0  0  0  0  0  0  0  0
  189.2300  177.1540  146.1480 C   0  0  0  0  0  3  0  0  0  0  0  0
  185.2460  179.2670  144.8010 C   0  0  0  0  0  0  0  0  0  0  0  0
  184.4470  178.7310  145.8130 C   0  0  0  0  0  3  0  0  0  0  0  0
  186.6100  177.2500  144.7950 C   0  0  0  0  0  0  0  0  0  0  0  0
  184.7280  177.4620  146.3260 C   0  0  0  0  0  3  0  0  0  0  0  0
  186.3250  178.5330  144.2990 C   0  0  0  0  0  3  0  0  0  0  0  0
  185.8060  176.7280  145.8220 C   0  0  0  0  0  3  0  0  0  0  0  0
  184.9720  180.5300  144.2950 O   0  0  0  0  0  1  0  0  0  0  0  0
  191.0310  172.7420  140.6670 C   0  0  0  0  0  2  0  0  0  0  0  0
  190.6180  171.2940  140.8610 C   0  0  0  0  0  2  0  0  0  0  0  0
  192.6210  169.3490  140.2390 F   0  0  0  0  0  0  0  0  0  0  0  0
  190.6700  170.5680  139.5590 C   0  0  0  0  0  0  0  0  0  0  0  0
  191.6810  169.6270  139.3020 C   0  0  0  0  0  0  0  0  0  0  0  0
  190.7640  169.2500  137.0910 C   0  0  0  0  0  3  0  0  0  0  0  0
  189.7610  170.1890  137.3450 C   0  0  0  0  0  3  0  0  0  0  0  0
  189.7150  170.8490  138.5760 C   0  0  0  0  0  3  0  0  0  0  0  0
  191.7230  168.9700  138.0690 C   0  0  0  0  0  3  0  0  0  0  0  0
  1 12  1  0  0  0  0
  1 10  2  0  0  0  0
  2  8  1  0  0  0  0
  2  6  1  0  0  0  0
  3 11  2  0  0  0  0
  4 14  1  0  0  0  0
  4 17  1  0  0  0  0
  5 10  1  0  0  0  0
  6  5  2  0  0  0  0
  7 17  1  0  0  0  0
  7 13  1  0  0  0  0
  8  3  1  6  0  0  0
  8  1  1  0  0  0  0
  9 16  1  0  0  0  0
  9  4  2  0  0  0  0
 11 18  1  0  0  0  0
 13  2  2  0  0  0  0
 14 15  2  0  0  0  0
 15 21  1  0  0  0  0
 15 11  1  0  0  0  0
 16  7  2  0  0  0  0
 17  3  1  0  0  0  0
 18 12  2  0  0  0  0
 19 20  1  0  0  0  0
 20 22  2  0  0  0  0
 21 24  2  0  0  0  0
 23 21  1  0  0  0  0
 23 19  2  0  0  0  0
 24 22  1  0  0  0  0
 25 19  1  0  0  0  0
 26 27  1  0  0  0  0
 26 16  1  0  0  0  0
 29 27  1  0  0  0  0
 30 29  1  0  0  0  0
 30 28  1  0  0  0  0
 31 32  2  0  0  0  0
 31 34  1  0  0  0  0
 32 33  1  0  0  0  0
 33 29  2  0  0  0  0
 34 30  2  0  0  0  0
M  END
>  <MODEL>
7

>  <REMARK>
 VINA RESULT:      -8.4      2.465      5.622
  Name = 
  4 active torsions:
  status: ('A' for Active; 'I' for Inactive)
    1  A    between atoms: C_3  and  C_13
    2  A    between atoms: C_3  and  C_17
    3  A    between atoms: C_12  and  C_28
    4  A    between atoms: C_17  and  C_29
                            x       y       z     vdW  Elec       q    Type
                         _______ _______ _______ _____ _____    ______ ____

>  <TORSDO>
F 4

$$$$
=
 OpenBabel11052418563D

 34 40  0  0  1  0  0  0  0  0999 V2000
  192.7440  176.3810  146.6830 C   0  0  0  0  0  0  0  0  0  0  0  0
  190.3440  176.6190  146.1930 C   0  0  0  0  0  0  0  0  0  0  0  0
  191.8800  175.8340  144.4870 C   0  0  0  0  0  0  0  0  0  0  0  0
  190.8130  175.3210  142.4280 C   0  0  0  0  0  0  0  0  0  0  0  0
  191.2090  177.1700  148.3910 C   0  0  0  0  0  3  0  0  0  0  0  0
  190.1290  177.0650  147.4990 C   0  0  0  0  0  3  0  0  0  0  0  0
  189.5760  176.0600  144.0460 C   0  0  0  0  0  0  0  0  0  0  0  0
  191.6650  176.2810  145.7940 C   0  0  2  0  0  3  0  0  0  0  0  0
  189.5100  175.3380  141.9240 C   0  0  0  0  0  3  0  0  0  0  0  0
  192.5100  176.8290  147.9870 C   0  0  0  0  0  3  0  0  0  0  0  0
  193.1550  175.4750  144.0150 C   0  0  0  0  0  0  0  0  0  0  0  0
  194.0260  176.0240  146.2460 C   0  0  0  0  0  3  0  0  0  0  0  0
  189.3020  176.5000  145.3050 N   0  0  0  0  0  0  0  0  0  0  0  0
  192.0900  174.8670  141.7850 C   0  0  0  0  0  3  0  0  0  0  0  0
  193.3020  175.0300  142.7230 C   0  0  0  0  0  0  0  0  0  0  0  0
  188.7250  175.8330  142.9830 C   0  0  0  0  0  0  0  0  0  0  0  0
  190.8140  175.7500  143.6810 N   0  0  0  0  0  0  0  0  0  0  0  0
  194.2290  175.5740  144.9280 C   0  0  0  0  0  3  0  0  0  0  0  0
  196.4060  173.0470  141.7690 C   0  0  0  0  0  0  0  0  0  0  0  0
  197.1600  174.0250  141.1170 C   0  0  0  0  0  3  0  0  0  0  0  0
  194.6230  174.6610  142.1490 C   0  0  0  0  0  0  0  0  0  0  0  0
  196.6570  175.3220  140.9860 C   0  0  0  0  0  3  0  0  0  0  0  0
  195.1470  173.3650  142.2870 C   0  0  0  0  0  3  0  0  0  0  0  0
  195.3980  175.6390  141.5040 C   0  0  0  0  0  3  0  0  0  0  0  0
  196.9080  171.7600  141.9050 O   0  0  0  0  0  1  0  0  0  0  0  0
  187.2450  175.9920  142.9790 C   0  0  0  0  0  2  0  0  0  0  0  0
  186.8850  177.4670  143.0040 C   0  0  0  0  0  2  0  0  0  0  0  0
  185.7570  180.0450  143.5120 F   0  0  0  0  0  0  0  0  0  0  0  0
  186.0790  177.7760  144.2200 C   0  0  0  0  0  0  0  0  0  0  0  0
  185.5540  179.0630  144.4250 C   0  0  0  0  0  0  0  0  0  0  0  0
  184.6020  178.3380  146.5320 C   0  0  0  0  0  3  0  0  0  0  0  0
  185.1280  177.0590  146.3310 C   0  0  0  0  0  3  0  0  0  0  0  0
  185.8660  176.7790  145.1780 C   0  0  0  0  0  3  0  0  0  0  0  0
  184.8150  179.3390  145.5790 C   0  0  0  0  0  3  0  0  0  0  0  0
  1 10  2  0  0  0  0
  2  6  1  0  0  0  0
  4 17  1  0  0  0  0
  6  5  2  0  0  0  0
  7 13  1  0  0  0  0
  8  3  1  1  0  0  0
  8  2  1  0  0  0  0
  8  1  1  0  0  0  0
  9  4  2  0  0  0  0
  9 16  1  0  0  0  0
 10  5  1  0  0  0  0
 11  3  2  0  0  0  0
 11 18  1  0  0  0  0
 12  1  1  0  0  0  0
 13  2  2  0  0  0  0
 14  4  1  0  0  0  0
 14 15  2  0  0  0  0
 15 11  1  0  0  0  0
 16  7  2  0  0  0  0
 17  7  1  0  0  0  0
 17  3  1  0  0  0  0
 18 12  2  0  0  0  0
 19 25  1  0  0  0  0
 19 23  1  0  0  0  0
 20 19  2  0  0  0  0
 21 23  2  0  0  0  0
 21 15  1  0  0  0  0
 22 20  1  0  0  0  0
 22 24  2  0  0  0  0
 24 21  1  0  0  0  0
 26 16  1  0  0  0  0
 26 27  1  0  0  0  0
 27 29  1  0  0  0  0
 28 30  1  0  0  0  0
 29 30  2  0  0  0  0
 29 33  1  0  0  0  0
 30 34  1  0  0  0  0
 32 31  1  0  0  0  0
 33 32  2  0  0  0  0
 34 31  2  0  0  0  0
M  END
>  <MODEL>
8

>  <REMARK>
 VINA RESULT:      -8.2      3.710      9.100
  Name = 
  4 active torsions:
  status: ('A' for Active; 'I' for Inactive)
    1  A    between atoms: C_3  and  C_13
    2  A    between atoms: C_3  and  C_17
    3  A    between atoms: C_12  and  C_28
    4  A    between atoms: C_17  and  C_29
                            x       y       z     vdW  Elec       q    Type
                         _______ _______ _______ _____ _____    ______ ____

>  <TORSDO>
F 4

$$$$
=
 OpenBabel11052418563D

 34 40  0  0  1  0  0  0  0  0999 V2000
  191.2310  175.8040  145.9560 C   0  0  0  0  0  0  0  0  0  0  0  0
  191.7280  173.9390  144.4290 C   0  0  0  0  0  0  0  0  0  0  0  0
  189.6690  175.2040  144.2050 C   0  0  0  0  0  0  0  0  0  0  0  0
  188.3100  174.4690  142.4010 C   0  0  0  0  0  0  0  0  0  0  0  0
  193.2910  174.5380  146.1850 C   0  0  0  0  0  3  0  0  0  0  0  0
  192.9360  173.7240  145.0970 C   0  0  0  0  0  3  0  0  0  0  0  0
  190.1730  173.4210  142.7480 C   0  0  0  0  0  0  0  0  0  0  0  0
  190.8780  174.9880  144.8740 C   0  0  2  0  0  3  0  0  0  0  0  0
  188.3790  173.4930  141.4050 C   0  0  0  0  0  3  0  0  0  0  0  0
  192.4440  175.5750  146.6130 C   0  0  0  0  0  3  0  0  0  0  0  0
  188.7750  176.2230  144.5780 C   0  0  0  0  0  0  0  0  0  0  0  0
  190.3650  176.8330  146.3490 C   0  0  0  0  0  3  0  0  0  0  0  0
  191.3640  173.1620  143.3580 N   0  0  0  0  0  0  0  0  0  0  0  0
  187.2730  175.5250  142.6460 C   0  0  0  0  0  3  0  0  0  0  0  0
  187.6070  176.3950  143.8740 C   0  0  0  0  0  0  0  0  0  0  0  0
  189.5870  172.8150  141.6540 C   0  0  0  0  0  0  0  0  0  0  0  0
  189.3840  174.4000  143.1730 N   0  0  0  0  0  0  0  0  0  0  0  0
  189.1520  177.0410  145.6660 C   0  0  0  0  0  3  0  0  0  0  0  0
  184.7530  178.2260  145.6000 C   0  0  0  0  0  0  0  0  0  0  0  0
  184.6680  179.3840  144.8230 C   0  0  0  0  0  3  0  0  0  0  0  0
  186.6030  177.4320  144.2300 C   0  0  0  0  0  0  0  0  0  0  0  0
  185.5390  179.5680  143.7470 C   0  0  0  0  0  3  0  0  0  0  0  0
  185.7110  177.2530  145.3010 C   0  0  0  0  0  3  0  0  0  0  0  0
  186.4990  178.5950  143.4500 C   0  0  0  0  0  3  0  0  0  0  0  0
  183.8840  178.0390  146.6650 O   0  0  0  0  0  1  0  0  0  0  0  0
  190.1620  171.7120  140.8350 C   0  0  0  0  0  2  0  0  0  0  0  0
  190.8420  172.2840  139.6040 C   0  0  0  0  0  2  0  0  0  0  0  0
  192.3870  174.5120  140.5150 F   0  0  0  0  0  0  0  0  0  0  0  0
  192.3230  172.2340  139.7670 C   0  0  0  0  0  0  0  0  0  0  0  0
  193.0360  173.3610  140.2100 C   0  0  0  0  0  0  0  0  0  0  0  0
  195.1090  172.1210  140.0260 C   0  0  0  0  0  3  0  0  0  0  0  0
  194.4020  171.0000  139.5800 C   0  0  0  0  0  3  0  0  0  0  0  0
  193.0120  171.0570  139.4490 C   0  0  0  0  0  3  0  0  0  0  0  0
  194.4260  173.2990  140.3400 C   0  0  0  0  0  3  0  0  0  0  0  0
  1 12  1  0  0  0  0
  1 10  2  0  0  0  0
  2  8  1  0  0  0  0
  2  6  1  0  0  0  0
  3 11  2  0  0  0  0
  4 14  1  0  0  0  0
  4 17  1  0  0  0  0
  5 10  1  0  0  0  0
  6  5  2  0  0  0  0
  7 17  1  0  0  0  0
  7 13  1  0  0  0  0
  8  3  1  6  0  0  0
  8  1  1  0  0  0  0
  9 16  1  0  0  0  0
  9  4  2  0  0  0  0
 11 18  1  0  0  0  0
 13  2  2  0  0  0  0
 14 15  2  0  0  0  0
 15 21  1  0  0  0  0
 15 11  1  0  0  0  0
 16  7  2  0  0  0  0
 17  3  1  0  0  0  0
 18 12  2  0  0  0  0
 19 25  1  0  0  0  0
 20 19  2  0  0  0  0
 21 23  2  0  0  0  0
 22 20  1  0  0  0  0
 23 19  1  0  0  0  0
 24 22  2  0  0  0  0
 24 21  1  0  0  0  0
 26 16  1  0  0  0  0
 27 29  1  0  0  0  0
 27 26  1  0  0  0  0
 29 30  1  0  0  0  0
 30 34  2  0  0  0  0
 30 28  1  0  0  0  0
 31 34  1  0  0  0  0
 32 31  2  0  0  0  0
 33 32  1  0  0  0  0
 33 29  2  0  0  0  0
M  END
>  <MODEL>
9

>  <REMARK>
 VINA RESULT:      -8.1      2.346      4.731
  Name = 
  4 active torsions:
  status: ('A' for Active; 'I' for Inactive)
    1  A    between atoms: C_3  and  C_13
    2  A    between atoms: C_3  and  C_17
    3  A    between atoms: C_12  and  C_28
    4  A    between atoms: C_17  and  C_29
                            x       y       z     vdW  Elec       q    Type
                         _______ _______ _______ _____ _____    ______ ____

>  <TORSDO>
F 4

$$$$
