=
 OpenBabel11052419453D

 55 59  0  0  1  0  0  0  0  0999 V2000
  194.2220  176.0740  145.8810 C   0  0  0  0  0  3  0  0  0  0  0  0
  195.6660  174.9950  143.7380 C   0  0  0  0  0  0  0  0  0  0  0  0
  194.5390  175.7860  143.4970 C   0  0  0  0  0  3  0  0  0  0  0  0
  195.3560  175.2920  146.1230 C   0  0  0  0  0  3  0  0  0  0  0  0
  193.8090  176.3180  144.5670 C   0  0  0  0  0  0  0  0  0  0  0  0
  196.0740  174.7450  145.0530 C   0  0  0  0  0  3  0  0  0  0  0  0
  196.3790  174.3580  142.5920 C   0  0  0  0  0  2  0  0  0  0  0  0
  196.9820  173.0170  142.9960 C   0  0  0  0  0  2  0  0  0  0  0  0
  196.7550  171.7780  141.6830 S   0  0  0  0  0  0  0  0  0  0  0  0
  194.6830  171.5770  142.1050 S   0  0  0  0  0  0  0  0  0  0  0  0
  194.4970  170.1890  140.9450 C   0  0  0  0  0  2  0  0  0  0  0  0
  194.1320  171.0690  138.2450 C   0  0  0  0  0  1  0  0  0  0  0  0
  192.9810  170.6250  139.1140 C   0  0  0  0  0  0  0  0  0  0  0  0
  193.1930  170.2160  140.3230 N   0  0  0  0  0  0  0  0  0  0  0  0
  189.5460  173.2420  138.0560 C   0  0  2  0  0  3  0  0  0  0  0  0
  190.5280  171.2580  139.4450 C   0  0  1  0  0  3  0  0  0  0  0  0
  191.2110  169.2070  138.4860 F   0  0  0  0  0  0  0  0  0  0  0  0
  188.1900  173.0860  138.3440 O   0  0  0  0  0  1  0  0  0  0  0  0
  190.1860  171.2210  136.6860 O   0  0  0  0  0  0  0  0  0  0  0  0
  189.8540  172.5920  136.6950 C   0  0  2  0  0  3  0  0  0  0  0  0
  191.5690  170.5440  138.5520 C   0  0  2  0  0  0  0  0  0  0  0  0
  190.6610  170.9280  140.7970 O   0  0  0  0  0  1  0  0  0  0  0  0
  191.5120  171.0970  137.1240 C   0  0  0  0  0  2  0  0  0  0  0  0
  190.3780  172.7750  139.2620 C   0  0  1  0  0  3  0  0  0  0  0  0
  191.5730  173.6140  139.5840 C   0  0  0  0  0  0  0  0  0  0  0  0
  192.3550  174.1670  138.5810 O   0  0  0  0  0  0  0  0  0  0  0  0
  191.8690  173.8280  140.7880 O   0  0  0  0  0  1  0  0  0  0  0  0
  190.3160  174.8230  135.8860 O   0  0  0  0  0  1  0  0  0  0  0  0
  190.5190  173.4660  135.6290 C   0  0  0  0  0  2  0  0  0  0  0  0
  192.5780  177.1190  144.3040 C   0  0  0  0  0  2  0  0  0  0  0  0
  191.5580  176.2600  143.5690 C   0  0  0  0  0  2  0  0  0  0  0  0
  188.8660  172.8080  143.0880 C   0  0  0  0  0  2  0  0  0  0  0  0
  187.8750  172.6610  141.9530 C   0  0  0  0  0  2  0  0  0  0  0  0
  188.5870  176.0910  141.4940 C   0  0  0  0  0  3  0  0  0  0  0  0
  188.1740  174.8710  142.2580 C   0  0  1  0  0  3  0  0  0  0  0  0
  187.6130  173.9240  141.3870 O   0  0  0  0  0  0  0  0  0  0  0  0
  189.3330  174.2290  142.9850 C   0  0  1  0  0  3  0  0  0  0  0  0
  189.2710  177.3600  143.5700 C   0  0  2  0  0  3  0  0  0  0  0  0
  189.0650  177.1970  142.0800 C   0  0  0  0  0  3  0  0  0  0  0  0
  189.5440  174.9140  144.3580 C   0  0  2  0  0  3  0  0  0  0  0  0
  190.1850  176.3150  144.2400 C   0  0  1  0  0  3  0  0  0  0  0  0
  186.9530  178.2770  143.6700 C   0  0  0  0  0  3  0  0  0  0  0  0
  185.6820  178.3550  145.7390 C   0  0  0  0  0  0  0  0  0  0  0  0
  187.9400  177.4630  145.7240 C   0  0  0  0  0  3  0  0  0  0  0  0
  186.7700  177.7870  146.4160 C   0  0  0  0  0  3  0  0  0  0  0  0
  185.7820  178.6000  144.3630 C   0  0  0  0  0  3  0  0  0  0  0  0
  188.0340  177.7010  144.3460 C   0  0  0  0  0  0  0  0  0  0  0  0
  184.4440  178.6900  146.4590 C   0  0  0  0  0  0  0  0  0  0  0  0
  184.4140  178.6660  147.7190 O   0  0  0  0  0  1  0  0  0  0  0  0
  183.2960  179.0360  145.7560 O   0  0  0  0  0  0  0  0  0  0  0  0
  190.2560  174.0870  145.4510 C   0  0  1  0  0  3  0  0  0  0  0  0
  191.6520  173.6510  145.0380 C   0  0  0  0  0  1  0  0  0  0  0  0
  191.3830  175.2880  147.3250 O   0  0  0  0  0  0  0  0  0  0  0  0
  189.1940  174.6450  147.5360 O   0  0  0  0  0  1  0  0  0  0  0  0
  190.2370  174.6790  146.8300 C   0  0  0  0  0  0  0  0  0  0  0  0
  1  4  1  0  0  0  0
  2  6  1  0  0  0  0
  3  2  2  0  0  0  0
  3  5  1  0  0  0  0
  5  1  2  0  0  0  0
  6  4  2  0  0  0  0
  7  8  1  0  0  0  0
  7  2  1  0  0  0  0
  9 10  1  0  0  0  0
  9  8  1  0  0  0  0
 11 10  1  0  0  0  0
 12 13  1  0  0  0  0
 13 14  2  0  0  0  0
 14 11  1  0  0  0  0
 15 18  1  1  0  0  0
 15 24  1  0  0  0  0
 16 22  1  1  0  0  0
 19 20  1  0  0  0  0
 19 23  1  0  0  0  0
 20 29  1  1  0  0  0
 20 15  1  0  0  0  0
 21 17  1  6  0  0  0
 21 13  1  0  0  0  0
 21 16  1  0  0  0  0
 23 21  1  0  0  0  0
 24 16  1  0  0  0  0
 24 25  1  6  0  0  0
 25 27  1  0  0  0  0
 26 25  2  0  0  0  0
 29 28  1  0  0  0  0
 30  5  1  0  0  0  0
 31 30  1  0  0  0  0
 33 32  1  0  0  0  0
 34 39  2  0  0  0  0
 35 34  1  6  0  0  0
 35 37  1  0  0  0  0
 36 33  1  0  0  0  0
 36 35  1  0  0  0  0
 37 32  1  1  0  0  0
 37 40  1  0  0  0  0
 38 41  1  0  0  0  0
 38 47  1  1  0  0  0
 39 38  1  0  0  0  0
 40 51  1  1  0  0  0
 41 31  1  6  0  0  0
 41 40  1  0  0  0  0
 42 47  2  0  0  0  0
 42 46  1  0  0  0  0
 43 45  1  0  0  0  0
 43 48  1  0  0  0  0
 44 45  2  0  0  0  0
 46 43  2  0  0  0  0
 47 44  1  0  0  0  0
 48 49  1  0  0  0  0
 50 48  2  0  0  0  0
 51 52  1  6  0  0  0
 51 55  1  0  0  0  0
 55 53  2  0  0  0  0
 55 54  1  0  0  0  0
M  END
>  <MODEL>
1

>  <REMARK>
 VINA RESULT:      -7.0      0.000      0.000
  Name = 
  16 active torsions:
  status: ('A' for Active; 'I' for Inactive)
    1  A    between atoms: C_1  and  C_53
    2  A    between atoms: C_2  and  C_28
    3  A    between atoms: C_2  and  C_44
    4  A    between atoms: C_8  and  N_22
    5  A    between atoms: C_8  and  S_35
    6  A    between atoms: C_10  and  C_32
    7  A    between atoms: C_19  and  C_40
    8  A    between atoms: C_19  and  C_45
    9  A    between atoms: C_20  and  C_42
   10  A    between atoms: C_25  and  C_38
   11  A    between atoms: C_27  and  C_54
   12  A    between atoms: C_28  and  C_49
   13  A    between atoms: C_33  and  C_52
   14  A    between atoms: S_35  and  S_43
   15  A    between atoms: S_43  and  C_51
   16  A    between atoms: C_51  and  C_54
                            x       y       z     vdW  Elec       q    Type
                         _______ _______ _______ _____ _____    ______ ____

>  <TORSDO>
F 16

$$$$
=
 OpenBabel11052419453D

 55 59  0  0  1  0  0  0  0  0999 V2000
  194.2130  176.0530  145.9220 C   0  0  0  0  0  3  0  0  0  0  0  0
  195.5740  174.9540  143.7340 C   0  0  0  0  0  0  0  0  0  0  0  0
  194.4310  175.7320  143.5310 C   0  0  0  0  0  3  0  0  0  0  0  0
  195.3640  175.2840  146.1260 C   0  0  0  0  0  3  0  0  0  0  0  0
  193.7420  176.2740  144.6230 C   0  0  0  0  0  0  0  0  0  0  0  0
  196.0390  174.7270  145.0350 C   0  0  0  0  0  3  0  0  0  0  0  0
  196.2430  174.3050  142.5690 C   0  0  0  0  0  2  0  0  0  0  0  0
  195.2530  174.0500  141.4380 C   0  0  0  0  0  2  0  0  0  0  0  0
  196.1090  173.9350  139.8360 S   0  0  0  0  0  0  0  0  0  0  0  0
  195.6760  171.8630  139.6490 S   0  0  0  0  0  0  0  0  0  0  0  0
  194.1490  172.0110  140.6230 C   0  0  0  0  0  2  0  0  0  0  0  0
  191.6930  173.4790  140.5140 C   0  0  0  0  0  1  0  0  0  0  0  0
  191.8790  172.1610  139.8030 C   0  0  0  0  0  0  0  0  0  0  0  0
  193.0130  171.5400  139.8630 N   0  0  0  0  0  0  0  0  0  0  0  0
  190.6140  172.0570  135.5420 C   0  0  2  0  0  3  0  0  0  0  0  0
  190.1110  172.6730  138.0310 C   0  0  1  0  0  3  0  0  0  0  0  0
  189.8000  171.0620  139.7360 F   0  0  0  0  0  0  0  0  0  0  0  0
  189.3520  172.2600  134.9870 O   0  0  0  0  0  1  0  0  0  0  0  0
  190.3670  170.0720  137.0810 O   0  0  0  0  0  0  0  0  0  0  0  0
  190.8060  170.5570  135.8320 C   0  0  2  0  0  3  0  0  0  0  0  0
  190.7810  171.5940  138.9150 C   0  0  2  0  0  0  0  0  0  0  0  0
  189.7750  173.8250  138.7490 O   0  0  0  0  0  1  0  0  0  0  0  0
  191.3120  170.4510  138.0450 C   0  0  0  0  0  2  0  0  0  0  0  0
  190.8160  173.0300  136.7150 C   0  0  1  0  0  3  0  0  0  0  0  0
  192.1790  173.6360  136.8250 C   0  0  0  0  0  0  0  0  0  0  0  0
  193.3230  172.8570  136.7190 O   0  0  0  0  0  0  0  0  0  0  0  0
  192.2890  174.8750  137.0070 O   0  0  0  0  0  1  0  0  0  0  0  0
  191.7460  168.5500  134.8650 O   0  0  0  0  0  1  0  0  0  0  0  0
  192.0300  169.8700  135.2210 C   0  0  0  0  0  2  0  0  0  0  0  0
  192.4940  177.0600  144.4020 C   0  0  0  0  0  2  0  0  0  0  0  0
  191.4960  176.2230  143.6130 C   0  0  0  0  0  2  0  0  0  0  0  0
  188.8160  172.7860  142.9780 C   0  0  0  0  0  2  0  0  0  0  0  0
  187.8630  172.6630  141.8080 C   0  0  0  0  0  2  0  0  0  0  0  0
  188.5970  176.0990  141.4370 C   0  0  0  0  0  3  0  0  0  0  0  0
  188.1550  174.8660  142.1640 C   0  0  1  0  0  3  0  0  0  0  0  0
  187.6230  173.9370  141.2570 O   0  0  0  0  0  0  0  0  0  0  0  0
  189.2880  174.2090  142.9180 C   0  0  1  0  0  3  0  0  0  0  0  0
  189.2130  177.3280  143.5570 C   0  0  2  0  0  3  0  0  0  0  0  0
  189.0560  177.1930  142.0590 C   0  0  0  0  0  3  0  0  0  0  0  0
  189.4540  174.8680  144.3090 C   0  0  2  0  0  3  0  0  0  0  0  0
  190.1010  176.2690  144.2380 C   0  0  1  0  0  3  0  0  0  0  0  0
  187.8560  177.3160  145.6520 C   0  0  0  0  0  3  0  0  0  0  0  0
  185.6190  178.2570  145.7490 C   0  0  0  0  0  0  0  0  0  0  0  0
  186.8710  178.2910  143.6680 C   0  0  0  0  0  3  0  0  0  0  0  0
  185.7120  178.5900  144.3900 C   0  0  0  0  0  3  0  0  0  0  0  0
  186.6970  177.6160  146.3740 C   0  0  0  0  0  3  0  0  0  0  0  0
  187.9510  177.6580  144.2980 C   0  0  0  0  0  0  0  0  0  0  0  0
  184.4060  178.5770  146.5170 C   0  0  0  0  0  0  0  0  0  0  0  0
  184.4150  178.5130  147.7750 O   0  0  0  0  0  1  0  0  0  0  0  0
  183.2400  178.9530  145.8610 O   0  0  0  0  0  0  0  0  0  0  0  0
  190.1280  174.0190  145.4100 C   0  0  1  0  0  3  0  0  0  0  0  0
  191.5170  173.5460  145.0160 C   0  0  0  0  0  1  0  0  0  0  0  0
  191.2610  175.1850  147.3020 O   0  0  0  0  0  0  0  0  0  0  0  0
  189.0530  174.6010  147.4820 O   0  0  0  0  0  1  0  0  0  0  0  0
  190.1050  174.6080  146.7900 C   0  0  0  0  0  0  0  0  0  0  0  0
  1  4  1  0  0  0  0
  2  6  1  0  0  0  0
  3  2  2  0  0  0  0
  3  5  1  0  0  0  0
  5  1  2  0  0  0  0
  6  4  2  0  0  0  0
  7  2  1  0  0  0  0
  8  7  1  0  0  0  0
  9  8  1  0  0  0  0
 10  9  1  0  0  0  0
 10 11  1  0  0  0  0
 13 14  2  0  0  0  0
 13 12  1  0  0  0  0
 14 11  1  0  0  0  0
 15 18  1  1  0  0  0
 15 20  1  0  0  0  0
 15 24  1  0  0  0  0
 16 22  1  1  0  0  0
 16 21  1  0  0  0  0
 19 23  1  0  0  0  0
 20 29  1  1  0  0  0
 20 19  1  0  0  0  0
 21 17  1  1  0  0  0
 21 13  1  0  0  0  0
 23 21  1  0  0  0  0
 24 25  1  1  0  0  0
 24 16  1  0  0  0  0
 25 27  1  0  0  0  0
 26 25  2  0  0  0  0
 28 29  1  0  0  0  0
 30  5  1  0  0  0  0
 31 30  1  0  0  0  0
 33 32  1  0  0  0  0
 34 39  2  0  0  0  0
 35 34  1  6  0  0  0
 35 37  1  0  0  0  0
 36 33  1  0  0  0  0
 36 35  1  0  0  0  0
 37 32  1  1  0  0  0
 37 40  1  0  0  0  0
 38 41  1  0  0  0  0
 38 47  1  1  0  0  0
 39 38  1  0  0  0  0
 40 51  1  1  0  0  0
 41 31  1  6  0  0  0
 41 40  1  0  0  0  0
 42 46  1  0  0  0  0
 43 46  2  0  0  0  0
 43 48  1  0  0  0  0
 44 47  1  0  0  0  0
 44 45  2  0  0  0  0
 45 43  1  0  0  0  0
 47 42  2  0  0  0  0
 48 49  1  0  0  0  0
 50 48  2  0  0  0  0
 51 52  1  6  0  0  0
 51 55  1  0  0  0  0
 55 53  2  0  0  0  0
 55 54  1  0  0  0  0
M  END
>  <MODEL>
2

>  <REMARK>
 VINA RESULT:      -6.8      1.213      2.017
  Name = 
  16 active torsions:
  status: ('A' for Active; 'I' for Inactive)
    1  A    between atoms: C_1  and  C_53
    2  A    between atoms: C_2  and  C_28
    3  A    between atoms: C_2  and  C_44
    4  A    between atoms: C_8  and  N_22
    5  A    between atoms: C_8  and  S_35
    6  A    between atoms: C_10  and  C_32
    7  A    between atoms: C_19  and  C_40
    8  A    between atoms: C_19  and  C_45
    9  A    between atoms: C_20  and  C_42
   10  A    between atoms: C_25  and  C_38
   11  A    between atoms: C_27  and  C_54
   12  A    between atoms: C_28  and  C_49
   13  A    between atoms: C_33  and  C_52
   14  A    between atoms: S_35  and  S_43
   15  A    between atoms: S_43  and  C_51
   16  A    between atoms: C_51  and  C_54
                            x       y       z     vdW  Elec       q    Type
                         _______ _______ _______ _____ _____    ______ ____

>  <TORSDO>
F 16

$$$$
=
 OpenBabel11052419453D

 55 59  0  0  1  0  0  0  0  0999 V2000
  188.0450  172.7120  142.8620 C   0  0  0  0  0  3  0  0  0  0  0  0
  189.6490  171.8310  140.7420 C   0  0  0  0  0  0  0  0  0  0  0  0
  190.0710  171.6530  142.0620 C   0  0  0  0  0  3  0  0  0  0  0  0
  187.6160  172.8800  141.5410 C   0  0  0  0  0  3  0  0  0  0  0  0
  189.2770  172.1010  143.1240 C   0  0  0  0  0  0  0  0  0  0  0  0
  188.4210  172.4490  140.4810 C   0  0  0  0  0  3  0  0  0  0  0  0
  190.5480  171.4330  139.6200 C   0  0  0  0  0  2  0  0  0  0  0  0
  191.8090  170.7500  140.1390 C   0  0  0  0  0  2  0  0  0  0  0  0
  192.5480  169.6860  138.8610 S   0  0  0  0  0  0  0  0  0  0  0  0
  193.5140  168.4650  140.3060 S   0  0  0  0  0  0  0  0  0  0  0  0
  193.6870  169.8440  141.4770 C   0  0  0  0  0  2  0  0  0  0  0  0
  193.9950  172.5650  142.3130 C   0  0  0  0  0  1  0  0  0  0  0  0
  195.0680  171.8270  141.5500 C   0  0  0  0  0  0  0  0  0  0  0  0
  194.8950  170.5910  141.2090 N   0  0  0  0  0  0  0  0  0  0  0  0
  196.8210  175.2480  139.3170 C   0  0  2  0  0  3  0  0  0  0  0  0
  196.6750  172.6760  139.7560 C   0  0  1  0  0  3  0  0  0  0  0  0
  197.4050  171.6520  141.7590 F   0  0  0  0  0  0  0  0  0  0  0  0
  197.9410  175.2860  138.4880 O   0  0  0  0  0  1  0  0  0  0  0  0
  197.6740  174.5240  141.5790 O   0  0  0  0  0  0  0  0  0  0  0  0
  197.2440  175.5870  140.7580 C   0  0  2  0  0  3  0  0  0  0  0  0
  196.4110  172.4830  141.2670 C   0  0  2  0  0  0  0  0  0  0  0  0
  196.3930  171.5290  139.0080 O   0  0  0  0  0  1  0  0  0  0  0  0
  196.5370  173.8210  142.0030 C   0  0  0  0  0  2  0  0  0  0  0  0
  196.0700  173.9250  139.0970 C   0  0  1  0  0  3  0  0  0  0  0  0
  194.5780  174.0230  139.0860 C   0  0  0  0  0  0  0  0  0  0  0  0
  193.8020  173.0990  138.4000 O   0  0  0  0  0  0  0  0  0  0  0  0
  194.0180  174.9550  139.7170 O   0  0  0  0  0  1  0  0  0  0  0  0
  197.0050  176.9380  142.7490 O   0  0  0  0  0  1  0  0  0  0  0  0
  196.5200  176.7420  141.4550 C   0  0  0  0  0  2  0  0  0  0  0  0
  189.7560  171.9540  144.5290 C   0  0  0  0  0  2  0  0  0  0  0  0
  190.7430  173.0680  144.8500 C   0  0  0  0  0  2  0  0  0  0  0  0
  193.2400  176.6110  145.6310 C   0  0  0  0  0  2  0  0  0  0  0  0
  193.4100  177.2400  146.9980 C   0  0  0  0  0  2  0  0  0  0  0  0
  190.6250  175.2100  147.7760 C   0  0  0  0  0  3  0  0  0  0  0  0
  191.3960  176.2370  147.0040 C   0  0  1  0  0  3  0  0  0  0  0  0
  192.3460  176.8510  147.8340 O   0  0  0  0  0  0  0  0  0  0  0  0
  192.1110  175.6410  145.8120 C   0  0  1  0  0  3  0  0  0  0  0  0
  189.0700  174.6920  145.8520 C   0  0  2  0  0  3  0  0  0  0  0  0
  189.5880  174.5330  147.2640 C   0  0  0  0  0  3  0  0  0  0  0  0
  191.1520  175.5700  144.5980 C   0  0  2  0  0  3  0  0  0  0  0  0
  190.0970  174.4490  144.7290 C   0  0  1  0  0  3  0  0  0  0  0  0
  187.3740  176.3150  146.6970 C   0  0  0  0  0  3  0  0  0  0  0  0
  186.4760  178.0900  145.3020 C   0  0  0  0  0  0  0  0  0  0  0  0
  188.1130  176.5380  144.4030 C   0  0  0  0  0  3  0  0  0  0  0  0
  187.2710  177.6400  144.2380 C   0  0  0  0  0  3  0  0  0  0  0  0
  186.5310  177.4190  146.5310 C   0  0  0  0  0  3  0  0  0  0  0  0
  188.1730  175.8740  145.6360 C   0  0  0  0  0  0  0  0  0  0  0  0
  185.5940  179.2550  145.1380 C   0  0  0  0  0  0  0  0  0  0  0  0
  185.8520  180.1310  144.2700 O   0  0  0  0  0  0  0  0  0  0  0  0
  184.4680  179.4000  145.9390 O   0  0  0  0  0  1  0  0  0  0  0  0
  191.8000  175.5390  143.1960 C   0  0  1  0  0  3  0  0  0  0  0  0
  190.8940  174.9160  142.1470 C   0  0  0  0  0  1  0  0  0  0  0  0
  191.6840  178.0140  142.9070 O   0  0  0  0  0  1  0  0  0  0  0  0
  193.5330  176.8680  142.1890 O   0  0  0  0  0  0  0  0  0  0  0  0
  192.3950  176.8340  142.7270 C   0  0  0  0  0  0  0  0  0  0  0  0
  1  5  1  0  0  0  0
  2  3  1  0  0  0  0
  3  5  2  0  0  0  0
  4  1  2  0  0  0  0
  5 30  1  0  0  0  0
  6  2  2  0  0  0  0
  6  4  1  0  0  0  0
  7  8  1  0  0  0  0
  7  2  1  0  0  0  0
  9  8  1  0  0  0  0
  9 10  1  0  0  0  0
 10 11  1  0  0  0  0
 13 12  1  0  0  0  0
 14 11  1  0  0  0  0
 14 13  2  0  0  0  0
 15 18  1  6  0  0  0
 15 20  1  0  0  0  0
 16 22  1  6  0  0  0
 16 21  1  0  0  0  0
 19 23  1  0  0  0  0
 20 29  1  1  0  0  0
 20 19  1  0  0  0  0
 21 13  1  0  0  0  0
 21 17  1  1  0  0  0
 21 23  1  0  0  0  0
 24 25  1  1  0  0  0
 24 15  1  0  0  0  0
 24 16  1  0  0  0  0
 25 27  1  0  0  0  0
 26 25  2  0  0  0  0
 29 28  1  0  0  0  0
 30 31  1  0  0  0  0
 32 33  1  0  0  0  0
 33 36  1  0  0  0  0
 35 34  1  1  0  0  0
 35 36  1  0  0  0  0
 37 32  1  6  0  0  0
 37 35  1  0  0  0  0
 38 47  1  1  0  0  0
 38 39  1  0  0  0  0
 39 34  2  0  0  0  0
 40 51  1  6  0  0  0
 40 41  1  0  0  0  0
 40 37  1  0  0  0  0
 41 31  1  1  0  0  0
 41 38  1  0  0  0  0
 43 46  2  0  0  0  0
 44 47  1  0  0  0  0
 45 44  2  0  0  0  0
 45 43  1  0  0  0  0
 46 42  1  0  0  0  0
 47 42  2  0  0  0  0
 48 43  1  0  0  0  0
 48 50  1  0  0  0  0
 49 48  2  0  0  0  0
 51 52  1  6  0  0  0
 54 55  2  0  0  0  0
 55 53  1  0  0  0  0
 55 51  1  0  0  0  0
M  END
>  <MODEL>
3

>  <REMARK>
 VINA RESULT:      -6.2      2.722      5.855
  Name = 
  16 active torsions:
  status: ('A' for Active; 'I' for Inactive)
    1  A    between atoms: C_1  and  C_53
    2  A    between atoms: C_2  and  C_28
    3  A    between atoms: C_2  and  C_44
    4  A    between atoms: C_8  and  N_22
    5  A    between atoms: C_8  and  S_35
    6  A    between atoms: C_10  and  C_32
    7  A    between atoms: C_19  and  C_40
    8  A    between atoms: C_19  and  C_45
    9  A    between atoms: C_20  and  C_42
   10  A    between atoms: C_25  and  C_38
   11  A    between atoms: C_27  and  C_54
   12  A    between atoms: C_28  and  C_49
   13  A    between atoms: C_33  and  C_52
   14  A    between atoms: S_35  and  S_43
   15  A    between atoms: S_43  and  C_51
   16  A    between atoms: C_51  and  C_54
                            x       y       z     vdW  Elec       q    Type
                         _______ _______ _______ _____ _____    ______ ____

>  <TORSDO>
F 16

$$$$
=
 OpenBabel11052419453D

 55 59  0  0  1  0  0  0  0  0999 V2000
  194.0610  175.3660  145.6010 C   0  0  0  0  0  3  0  0  0  0  0  0
  196.1890  175.5970  143.7950 C   0  0  0  0  0  0  0  0  0  0  0  0
  194.9950  176.2860  143.5640 C   0  0  0  0  0  3  0  0  0  0  0  0
  195.2600  174.6850  145.8390 C   0  0  0  0  0  3  0  0  0  0  0  0
  193.9250  176.1640  144.4600 C   0  0  0  0  0  0  0  0  0  0  0  0
  196.3210  174.7930  144.9330 C   0  0  0  0  0  3  0  0  0  0  0  0
  197.2860  175.6620  142.7850 C   0  0  0  0  0  2  0  0  0  0  0  0
  197.2690  174.4390  141.8750 C   0  0  0  0  0  2  0  0  0  0  0  0
  197.4490  174.9220  140.1300 S   0  0  0  0  0  0  0  0  0  0  0  0
  195.3910  175.4220  139.9610 S   0  0  0  0  0  0  0  0  0  0  0  0
  194.8690  173.6970  140.1920 C   0  0  0  0  0  2  0  0  0  0  0  0
  195.2440  172.4210  137.6570 C   0  0  0  0  0  1  0  0  0  0  0  0
  193.8820  172.8240  138.1650 C   0  0  0  0  0  0  0  0  0  0  0  0
  193.7560  173.3820  139.3260 N   0  0  0  0  0  0  0  0  0  0  0  0
  190.1000  170.5190  138.5480 C   0  0  2  0  0  3  0  0  0  0  0  0
  192.3560  170.9640  137.3060 C   0  0  1  0  0  3  0  0  0  0  0  0
  192.8010  172.9360  136.0780 F   0  0  0  0  0  0  0  0  0  0  0  0
  189.4990  169.6440  137.6430 O   0  0  0  0  0  1  0  0  0  0  0  0
  190.2200  172.7440  137.3620 O   0  0  0  0  0  0  0  0  0  0  0  0
  189.5580  171.9410  138.3140 C   0  0  2  0  0  3  0  0  0  0  0  0
  192.6250  172.4860  137.3760 C   0  0  2  0  0  0  0  0  0  0  0  0
  193.4970  170.2290  136.9710 O   0  0  0  0  0  1  0  0  0  0  0  0
  191.4040  173.2150  137.9460 C   0  0  0  0  0  2  0  0  0  0  0  0
  191.6250  170.3310  138.4990 C   0  0  1  0  0  3  0  0  0  0  0  0
  192.3240  170.3820  139.8200 C   0  0  0  0  0  0  0  0  0  0  0  0
  193.5380  169.7390  140.0160 O   0  0  0  0  0  0  0  0  0  0  0  0
  191.8050  171.0260  140.7670 O   0  0  0  0  0  1  0  0  0  0  0  0
  188.1710  173.7590  139.1020 O   0  0  0  0  0  1  0  0  0  0  0  0
  188.9390  172.6670  139.5110 C   0  0  0  0  0  2  0  0  0  0  0  0
  192.6360  176.8600  144.1820 C   0  0  0  0  0  2  0  0  0  0  0  0
  191.6550  176.5880  145.3130 C   0  0  0  0  0  2  0  0  0  0  0  0
  189.5280  172.7310  145.2910 C   0  0  0  0  0  2  0  0  0  0  0  0
  189.5390  171.7670  144.1240 C   0  0  0  0  0  2  0  0  0  0  0  0
  190.8410  174.5690  142.4100 C   0  0  0  0  0  3  0  0  0  0  0  0
  189.8600  173.8200  143.2590 C   0  0  1  0  0  3  0  0  0  0  0  0
  189.9000  172.4520  142.9470 O   0  0  0  0  0  0  0  0  0  0  0  0
  190.1350  173.9860  144.7360 C   0  0  1  0  0  3  0  0  0  0  0  0
  190.1320  176.8270  143.2970 C   0  0  2  0  0  3  0  0  0  0  0  0
  190.9520  175.9040  142.4230 C   0  0  0  0  0  3  0  0  0  0  0  0
  189.4680  175.2820  145.2580 C   0  0  2  0  0  3  0  0  0  0  0  0
  190.2090  176.5620  144.8130 C   0  0  1  0  0  3  0  0  0  0  0  0
  187.8920  177.8910  143.5770 C   0  0  0  0  0  3  0  0  0  0  0  0
  186.1660  177.7380  141.8740 C   0  0  0  0  0  0  0  0  0  0  0  0
  188.3170  176.6610  141.5360 C   0  0  0  0  0  3  0  0  0  0  0  0
  187.0300  176.9650  141.0840 C   0  0  0  0  0  3  0  0  0  0  0  0
  186.6050  178.1960  143.1240 C   0  0  0  0  0  3  0  0  0  0  0  0
  188.7560  177.1280  142.7820 C   0  0  0  0  0  0  0  0  0  0  0  0
  184.8140  178.0690  141.4010 C   0  0  0  0  0  0  0  0  0  0  0  0
  183.8660  178.1970  142.2220 O   0  0  0  0  0  1  0  0  0  0  0  0
  184.5700  178.2460  140.0440 O   0  0  0  0  0  0  0  0  0  0  0  0
  189.1460  175.3440  146.7680 C   0  0  1  0  0  3  0  0  0  0  0  0
  190.3850  175.2100  147.6360 C   0  0  0  0  0  1  0  0  0  0  0  0
  188.8680  177.6950  147.5540 O   0  0  0  0  0  1  0  0  0  0  0  0
  187.0230  176.3760  147.2310 O   0  0  0  0  0  0  0  0  0  0  0  0
  188.2770  176.4880  147.2000 C   0  0  0  0  0  0  0  0  0  0  0  0
  1  4  1  0  0  0  0
  2  6  1  0  0  0  0
  3  2  2  0  0  0  0
  3  5  1  0  0  0  0
  5  1  2  0  0  0  0
  6  4  2  0  0  0  0
  7  2  1  0  0  0  0
  8  7  1  0  0  0  0
  9  8  1  0  0  0  0
 10  9  1  0  0  0  0
 10 11  1  0  0  0  0
 12 13  1  0  0  0  0
 13 14  2  0  0  0  0
 14 11  1  0  0  0  0
 15 18  1  6  0  0  0
 16 22  1  1  0  0  0
 16 21  1  0  0  0  0
 16 24  1  0  0  0  0
 19 23  1  0  0  0  0
 19 20  1  0  0  0  0
 20 15  1  0  0  0  0
 20 29  1  1  0  0  0
 21 17  1  6  0  0  0
 21 23  1  0  0  0  0
 21 13  1  0  0  0  0
 24 15  1  0  0  0  0
 24 25  1  1  0  0  0
 25 26  2  0  0  0  0
 25 27  1  0  0  0  0
 28 29  1  0  0  0  0
 30  5  1  0  0  0  0
 30 31  1  0  0  0  0
 33 32  1  0  0  0  0
 34 39  2  0  0  0  0
 35 34  1  6  0  0  0
 35 37  1  0  0  0  0
 36 35  1  0  0  0  0
 36 33  1  0  0  0  0
 37 40  1  0  0  0  0
 37 32  1  1  0  0  0
 38 47  1  6  0  0  0
 38 41  1  0  0  0  0
 39 38  1  0  0  0  0
 40 51  1  1  0  0  0
 41 40  1  0  0  0  0
 41 31  1  6  0  0  0
 43 46  2  0  0  0  0
 44 47  1  0  0  0  0
 45 44  2  0  0  0  0
 45 43  1  0  0  0  0
 46 42  1  0  0  0  0
 47 42  2  0  0  0  0
 48 43  1  0  0  0  0
 48 49  1  0  0  0  0
 50 48  2  0  0  0  0
 51 55  1  0  0  0  0
 51 52  1  1  0  0  0
 55 54  2  0  0  0  0
 55 53  1  0  0  0  0
M  END
>  <MODEL>
4

>  <REMARK>
 VINA RESULT:      -5.9      2.084      3.038
  Name = 
  16 active torsions:
  status: ('A' for Active; 'I' for Inactive)
    1  A    between atoms: C_1  and  C_53
    2  A    between atoms: C_2  and  C_28
    3  A    between atoms: C_2  and  C_44
    4  A    between atoms: C_8  and  N_22
    5  A    between atoms: C_8  and  S_35
    6  A    between atoms: C_10  and  C_32
    7  A    between atoms: C_19  and  C_40
    8  A    between atoms: C_19  and  C_45
    9  A    between atoms: C_20  and  C_42
   10  A    between atoms: C_25  and  C_38
   11  A    between atoms: C_27  and  C_54
   12  A    between atoms: C_28  and  C_49
   13  A    between atoms: C_33  and  C_52
   14  A    between atoms: S_35  and  S_43
   15  A    between atoms: S_43  and  C_51
   16  A    between atoms: C_51  and  C_54
                            x       y       z     vdW  Elec       q    Type
                         _______ _______ _______ _____ _____    ______ ____

>  <TORSDO>
F 16

$$$$
=
 OpenBabel11052419453D

 55 59  0  0  1  0  0  0  0  0999 V2000
  194.7240  175.9310  145.7760 C   0  0  0  0  0  3  0  0  0  0  0  0
  195.2330  174.0330  143.7800 C   0  0  0  0  0  0  0  0  0  0  0  0
  194.3800  175.1100  143.5230 C   0  0  0  0  0  3  0  0  0  0  0  0
  195.5880  174.8600  146.0300 C   0  0  0  0  0  3  0  0  0  0  0  0
  194.1150  176.0550  144.5220 C   0  0  0  0  0  0  0  0  0  0  0  0
  195.8360  173.9070  145.0370 C   0  0  0  0  0  3  0  0  0  0  0  0
  195.4320  172.9840  142.7380 C   0  0  0  0  0  2  0  0  0  0  0  0
  195.5320  171.5980  143.3640 C   0  0  0  0  0  2  0  0  0  0  0  0
  194.9850  170.3140  142.1950 S   0  0  0  0  0  0  0  0  0  0  0  0
  193.4010  171.5260  141.4640 S   0  0  0  0  0  0  0  0  0  0  0  0
  193.2540  170.5550  139.9350 C   0  0  0  0  0  2  0  0  0  0  0  0
  195.2310  171.5030  138.0940 C   0  0  0  0  0  1  0  0  0  0  0  0
  193.7740  171.8750  137.9770 C   0  0  0  0  0  0  0  0  0  0  0  0
  192.9100  171.4080  138.8200 N   0  0  0  0  0  0  0  0  0  0  0  0
  193.9850  176.0180  136.3790 C   0  0  2  0  0  3  0  0  0  0  0  0
  192.5650  174.0090  137.2610 C   0  0  1  0  0  3  0  0  0  0  0  0
  192.3520  171.9570  136.1050 F   0  0  0  0  0  0  0  0  0  0  0  0
  192.9650  176.8320  135.8860 O   0  0  0  0  0  1  0  0  0  0  0  0
  194.0120  173.9840  134.8860 O   0  0  0  0  0  0  0  0  0  0  0  0
  194.6040  175.2200  135.2170 C   0  0  2  0  0  3  0  0  0  0  0  0
  193.2760  172.7120  136.8080 C   0  0  2  0  0  0  0  0  0  0  0  0
  191.6380  173.7870  138.2840 O   0  0  0  0  0  1  0  0  0  0  0  0
  194.4180  173.0430  135.8420 C   0  0  0  0  0  2  0  0  0  0  0  0
  193.4580  175.2160  137.5810 C   0  0  1  0  0  3  0  0  0  0  0  0
  194.4120  175.0640  138.7230 C   0  0  0  0  0  0  0  0  0  0  0  0
  193.9590  174.9870  140.0320 O   0  0  0  0  0  1  0  0  0  0  0  0
  195.6460  174.9970  138.4890 O   0  0  0  0  0  0  0  0  0  0  0  0
  196.6580  176.3670  135.7740 O   0  0  0  0  0  1  0  0  0  0  0  0
  196.1160  175.3340  135.0080 C   0  0  0  0  0  2  0  0  0  0  0  0
  193.1630  177.1720  144.2590 C   0  0  0  0  0  2  0  0  0  0  0  0
  192.0340  176.6810  143.3630 C   0  0  0  0  0  2  0  0  0  0  0  0
  189.4180  173.3040  142.2880 C   0  0  0  0  0  2  0  0  0  0  0  0
  188.3250  173.3810  141.2430 C   0  0  0  0  0  2  0  0  0  0  0  0
  188.8800  176.8540  141.5780 C   0  0  0  0  0  3  0  0  0  0  0  0
  188.5830  175.4650  142.0530 C   0  0  1  0  0  3  0  0  0  0  0  0
  187.9700  174.7270  141.0290 O   0  0  0  0  0  0  0  0  0  0  0  0
  189.8280  174.7320  142.4970 C   0  0  1  0  0  3  0  0  0  0  0  0
  189.7240  177.6210  143.8340 C   0  0  2  0  0  3  0  0  0  0  0  0
  189.3780  177.8100  142.3740 C   0  0  0  0  0  3  0  0  0  0  0  0
  190.1500  175.0760  143.9720 C   0  0  2  0  0  3  0  0  0  0  0  0
  190.7320  176.4960  144.1450 C   0  0  1  0  0  3  0  0  0  0  0  0
  188.7500  177.3300  146.1120 C   0  0  0  0  0  3  0  0  0  0  0  0
  186.4220  177.8260  146.5960 C   0  0  0  0  0  0  0  0  0  0  0  0
  187.2930  178.1170  144.3480 C   0  0  0  0  0  3  0  0  0  0  0  0
  186.2310  178.1830  145.2540 C   0  0  0  0  0  3  0  0  0  0  0  0
  187.6870  177.3960  147.0190 C   0  0  0  0  0  3  0  0  0  0  0  0
  188.5600  177.6960  144.7750 C   0  0  0  0  0  0  0  0  0  0  0  0
  185.3110  177.9000  147.5570 C   0  0  0  0  0  0  0  0  0  0  0  0
  185.4880  177.5770  148.7620 O   0  0  0  0  0  1  0  0  0  0  0  0
  184.0550  178.3290  147.1440 O   0  0  0  0  0  0  0  0  0  0  0  0
  190.9930  174.0500  144.7620 C   0  0  1  0  0  3  0  0  0  0  0  0
  191.3760  174.5490  146.1440 C   0  0  0  0  0  1  0  0  0  0  0  0
  191.2040  171.6120  144.2760 O   0  0  0  0  0  0  0  0  0  0  0  0
  189.3220  172.4090  145.3120 O   0  0  0  0  0  1  0  0  0  0  0  0
  190.4460  172.6530  144.8000 C   0  0  0  0  0  0  0  0  0  0  0  0
  1  4  1  0  0  0  0
  2  6  1  0  0  0  0
  3  2  2  0  0  0  0
  3  5  1  0  0  0  0
  5  1  2  0  0  0  0
  6  4  2  0  0  0  0
  7  8  1  0  0  0  0
  7  2  1  0  0  0  0
  9  8  1  0  0  0  0
 10  9  1  0  0  0  0
 11 10  1  0  0  0  0
 13 12  1  0  0  0  0
 13 14  2  0  0  0  0
 14 11  1  0  0  0  0
 15 18  1  6  0  0  0
 15 24  1  0  0  0  0
 16 24  1  0  0  0  0
 16 22  1  1  0  0  0
 19 20  1  0  0  0  0
 19 23  1  0  0  0  0
 20 29  1  1  0  0  0
 20 15  1  0  0  0  0
 21 17  1  6  0  0  0
 21 16  1  0  0  0  0
 21 13  1  0  0  0  0
 23 21  1  0  0  0  0
 24 25  1  6  0  0  0
 25 26  1  0  0  0  0
 27 25  2  0  0  0  0
 29 28  1  0  0  0  0
 30  5  1  0  0  0  0
 31 30  1  0  0  0  0
 33 32  1  0  0  0  0
 34 39  2  0  0  0  0
 35 34  1  6  0  0  0
 35 37  1  0  0  0  0
 36 33  1  0  0  0  0
 36 35  1  0  0  0  0
 37 32  1  1  0  0  0
 37 40  1  0  0  0  0
 38 41  1  0  0  0  0
 38 47  1  1  0  0  0
 39 38  1  0  0  0  0
 40 41  1  0  0  0  0
 40 51  1  6  0  0  0
 41 31  1  6  0  0  0
 42 46  1  0  0  0  0
 43 46  2  0  0  0  0
 43 48  1  0  0  0  0
 44 47  1  0  0  0  0
 44 45  2  0  0  0  0
 45 43  1  0  0  0  0
 47 42  2  0  0  0  0
 48 49  1  0  0  0  0
 50 48  2  0  0  0  0
 51 55  1  0  0  0  0
 51 52  1  1  0  0  0
 53 55  2  0  0  0  0
 55 54  1  0  0  0  0
M  END
>  <MODEL>
5

>  <REMARK>
 VINA RESULT:      -5.8      2.218      2.871
  Name = 
  16 active torsions:
  status: ('A' for Active; 'I' for Inactive)
    1  A    between atoms: C_1  and  C_53
    2  A    between atoms: C_2  and  C_28
    3  A    between atoms: C_2  and  C_44
    4  A    between atoms: C_8  and  N_22
    5  A    between atoms: C_8  and  S_35
    6  A    between atoms: C_10  and  C_32
    7  A    between atoms: C_19  and  C_40
    8  A    between atoms: C_19  and  C_45
    9  A    between atoms: C_20  and  C_42
   10  A    between atoms: C_25  and  C_38
   11  A    between atoms: C_27  and  C_54
   12  A    between atoms: C_28  and  C_49
   13  A    between atoms: C_33  and  C_52
   14  A    between atoms: S_35  and  S_43
   15  A    between atoms: S_43  and  C_51
   16  A    between atoms: C_51  and  C_54
                            x       y       z     vdW  Elec       q    Type
                         _______ _______ _______ _____ _____    ______ ____

>  <TORSDO>
F 16

$$$$
=
 OpenBabel11052419453D

 55 59  0  0  1  0  0  0  0  0999 V2000
  194.9700  176.4440  144.0010 C   0  0  0  0  0  3  0  0  0  0  0  0
  194.5870  173.8520  144.9930 C   0  0  0  0  0  0  0  0  0  0  0  0
  193.4910  174.6930  144.7850 C   0  0  0  0  0  3  0  0  0  0  0  0
  196.0680  175.5980  144.1980 C   0  0  0  0  0  3  0  0  0  0  0  0
  193.6790  175.9920  144.2990 C   0  0  0  0  0  0  0  0  0  0  0  0
  195.8790  174.3070  144.7010 C   0  0  0  0  0  3  0  0  0  0  0  0
  194.3800  172.5040  145.5980 C   0  0  0  0  0  2  0  0  0  0  0  0
  193.5570  171.6080  144.6790 C   0  0  0  0  0  2  0  0  0  0  0  0
  193.9190  169.8510  144.9870 S   0  0  0  0  0  0  0  0  0  0  0  0
  193.3540  169.2950  143.0160 S   0  0  0  0  0  0  0  0  0  0  0  0
  194.4420  170.5410  142.2640 C   0  0  0  0  0  2  0  0  0  0  0  0
  193.4650  172.8700  140.9160 C   0  0  0  0  0  1  0  0  0  0  0  0
  193.8080  171.5970  140.1830 C   0  0  0  0  0  0  0  0  0  0  0  0
  194.2660  170.5730  140.8300 N   0  0  0  0  0  0  0  0  0  0  0  0
  190.8420  171.8330  136.8800 C   0  0  2  0  0  3  0  0  0  0  0  0
  192.6860  170.5010  138.1670 C   0  0  1  0  0  3  0  0  0  0  0  0
  194.9670  171.1230  138.1910 F   0  0  0  0  0  0  0  0  0  0  0  0
  190.6920  171.0120  135.7630 O   0  0  0  0  0  1  0  0  0  0  0  0
  193.1610  172.8120  136.6950 O   0  0  0  0  0  0  0  0  0  0  0  0
  191.7750  173.0060  136.5260 C   0  0  2  0  0  3  0  0  0  0  0  0
  193.7300  171.5270  138.6650 C   0  0  2  0  0  0  0  0  0  0  0  0
  192.7830  169.2710  138.8250 O   0  0  0  0  0  1  0  0  0  0  0  0
  193.4450  172.9080  138.0650 C   0  0  0  0  0  2  0  0  0  0  0  0
  191.2260  170.9720  138.0940 C   0  0  1  0  0  3  0  0  0  0  0  0
  190.5770  171.3530  139.3870 C   0  0  0  0  0  0  0  0  0  0  0  0
  190.4440  170.4390  140.4220 O   0  0  0  0  0  1  0  0  0  0  0  0
  190.1530  172.5270  139.5390 O   0  0  0  0  0  0  0  0  0  0  0  0
  189.9200  174.5460  136.3450 O   0  0  0  0  0  1  0  0  0  0  0  0
  191.2470  174.4240  136.7590 C   0  0  0  0  0  2  0  0  0  0  0  0
  192.5100  176.9020  144.1280 C   0  0  0  0  0  2  0  0  0  0  0  0
  191.5370  176.7050  145.2810 C   0  0  0  0  0  2  0  0  0  0  0  0
  189.3900  172.8590  145.2200 C   0  0  0  0  0  2  0  0  0  0  0  0
  189.3800  171.9160  144.0360 C   0  0  0  0  0  2  0  0  0  0  0  0
  190.6740  174.7410  142.3550 C   0  0  0  0  0  3  0  0  0  0  0  0
  189.7000  173.9820  143.2030 C   0  0  1  0  0  3  0  0  0  0  0  0
  189.7290  172.6190  142.8670 O   0  0  0  0  0  0  0  0  0  0  0  0
  189.9950  174.1200  144.6790 C   0  0  1  0  0  3  0  0  0  0  0  0
  189.9890  176.9870  143.2900 C   0  0  2  0  0  3  0  0  0  0  0  0
  190.7920  176.0750  142.3900 C   0  0  0  0  0  3  0  0  0  0  0  0
  189.3420  175.4100  145.2330 C   0  0  2  0  0  3  0  0  0  0  0  0
  190.0840  176.6940  144.8010 C   0  0  1  0  0  3  0  0  0  0  0  0
  187.7140  177.9390  143.6690 C   0  0  0  0  0  3  0  0  0  0  0  0
  186.0060  177.9360  141.9410 C   0  0  0  0  0  0  0  0  0  0  0  0
  188.1930  176.9740  141.5020 C   0  0  0  0  0  3  0  0  0  0  0  0
  186.9000  177.2900  141.0750 C   0  0  0  0  0  3  0  0  0  0  0  0
  186.4210  178.2560  143.2410 C   0  0  0  0  0  3  0  0  0  0  0  0
  188.6070  177.3030  142.8000 C   0  0  0  0  0  0  0  0  0  0  0  0
  184.6480  178.2790  141.4960 C   0  0  0  0  0  0  0  0  0  0  0  0
  184.4290  178.5770  140.2900 O   0  0  0  0  0  0  0  0  0  0  0  0
  183.5920  178.2770  142.4000 O   0  0  0  0  0  1  0  0  0  0  0  0
  189.0410  175.4470  146.7480 C   0  0  1  0  0  3  0  0  0  0  0  0
  190.2910  175.2980  147.5970 C   0  0  0  0  0  1  0  0  0  0  0  0
  186.8020  176.4150  147.2700 O   0  0  0  0  0  0  0  0  0  0  0  0
  188.6870  177.6830  147.5620 O   0  0  0  0  0  1  0  0  0  0  0  0
  188.1790  176.5850  147.2110 C   0  0  0  0  0  0  0  0  0  0  0  0
  1  4  2  0  0  0  0
  1  5  1  0  0  0  0
  2  7  1  0  0  0  0
  3  2  1  0  0  0  0
  4  6  1  0  0  0  0
  5  3  2  0  0  0  0
  6  2  2  0  0  0  0
  8  9  1  0  0  0  0
  8  7  1  0  0  0  0
 10  9  1  0  0  0  0
 11 10  1  0  0  0  0
 13 14  2  0  0  0  0
 13 12  1  0  0  0  0
 14 11  1  0  0  0  0
 15 18  1  6  0  0  0
 15 24  1  0  0  0  0
 16 21  1  0  0  0  0
 16 22  1  1  0  0  0
 19 23  1  0  0  0  0
 20 19  1  0  0  0  0
 20 29  1  1  0  0  0
 20 15  1  0  0  0  0
 21 17  1  6  0  0  0
 21 13  1  0  0  0  0
 23 21  1  0  0  0  0
 24 16  1  0  0  0  0
 24 25  1  1  0  0  0
 25 27  2  0  0  0  0
 25 26  1  0  0  0  0
 28 29  1  0  0  0  0
 30  5  1  0  0  0  0
 30 31  1  0  0  0  0
 33 32  1  0  0  0  0
 34 39  2  0  0  0  0
 35 34  1  6  0  0  0
 35 37  1  0  0  0  0
 36 35  1  0  0  0  0
 36 33  1  0  0  0  0
 37 32  1  1  0  0  0
 37 40  1  0  0  0  0
 38 47  1  6  0  0  0
 38 41  1  0  0  0  0
 39 38  1  0  0  0  0
 40 51  1  1  0  0  0
 41 40  1  0  0  0  0
 41 31  1  6  0  0  0
 43 46  2  0  0  0  0
 44 47  1  0  0  0  0
 45 44  2  0  0  0  0
 45 43  1  0  0  0  0
 46 42  1  0  0  0  0
 47 42  2  0  0  0  0
 48 43  1  0  0  0  0
 48 50  1  0  0  0  0
 49 48  2  0  0  0  0
 51 55  1  0  0  0  0
 51 52  1  1  0  0  0
 55 53  2  0  0  0  0
 55 54  1  0  0  0  0
M  END
>  <MODEL>
6

>  <REMARK>
 VINA RESULT:      -5.8      2.002      2.971
  Name = 
  16 active torsions:
  status: ('A' for Active; 'I' for Inactive)
    1  A    between atoms: C_1  and  C_53
    2  A    between atoms: C_2  and  C_28
    3  A    between atoms: C_2  and  C_44
    4  A    between atoms: C_8  and  N_22
    5  A    between atoms: C_8  and  S_35
    6  A    between atoms: C_10  and  C_32
    7  A    between atoms: C_19  and  C_40
    8  A    between atoms: C_19  and  C_45
    9  A    between atoms: C_20  and  C_42
   10  A    between atoms: C_25  and  C_38
   11  A    between atoms: C_27  and  C_54
   12  A    between atoms: C_28  and  C_49
   13  A    between atoms: C_33  and  C_52
   14  A    between atoms: S_35  and  S_43
   15  A    between atoms: S_43  and  C_51
   16  A    between atoms: C_51  and  C_54
                            x       y       z     vdW  Elec       q    Type
                         _______ _______ _______ _____ _____    ______ ____

>  <TORSDO>
F 16

$$$$
=
 OpenBabel11052419453D

 55 59  0  0  1  0  0  0  0  0999 V2000
  195.4540  176.8440  144.4830 C   0  0  0  0  0  3  0  0  0  0  0  0
  193.5530  175.0310  145.4560 C   0  0  0  0  0  0  0  0  0  0  0  0
  194.2110  174.7770  144.2490 C   0  0  0  0  0  3  0  0  0  0  0  0
  194.8030  177.0930  145.6970 C   0  0  0  0  0  3  0  0  0  0  0  0
  195.1540  175.6860  143.7550 C   0  0  0  0  0  0  0  0  0  0  0  0
  193.8470  176.1920  146.1790 C   0  0  0  0  0  3  0  0  0  0  0  0
  192.4830  174.1010  145.9230 C   0  0  0  0  0  2  0  0  0  0  0  0
  191.3350  174.8640  146.5730 C   0  0  0  0  0  2  0  0  0  0  0  0
  189.7340  174.0920  146.1800 S   0  0  0  0  0  0  0  0  0  0  0  0
  190.5850  172.8960  144.6430 S   0  0  0  0  0  0  0  0  0  0  0  0
  189.7330  173.8260  143.3350 C   0  0  0  0  0  2  0  0  0  0  0  0
  191.0610  176.2950  142.7560 C   0  0  0  0  0  1  0  0  0  0  0  0
  189.8260  176.2240  143.6210 C   0  0  0  0  0  0  0  0  0  0  0  0
  189.2460  175.0890  143.8410 N   0  0  0  0  0  0  0  0  0  0  0  0
  185.9120  178.3320  143.6600 C   0  0  2  0  0  3  0  0  0  0  0  0
  188.4550  178.3050  143.0580 C   0  0  1  0  0  3  0  0  0  0  0  0
  190.1790  178.2970  144.6770 F   0  0  0  0  0  0  0  0  0  0  0  0
  185.6270  179.6770  143.4260 O   0  0  0  0  0  1  0  0  0  0  0  0
  187.4590  178.3040  145.6540 O   0  0  0  0  0  0  0  0  0  0  0  0
  186.1490  178.1180  145.1670 C   0  0  2  0  0  3  0  0  0  0  0  0
  189.1780  177.4920  144.1570 C   0  0  2  0  0  0  0  0  0  0  0  0
  189.2310  178.4630  141.9060 O   0  0  0  0  0  1  0  0  0  0  0  0
  188.2130  177.1750  145.3030 C   0  0  0  0  0  2  0  0  0  0  0  0
  187.0240  177.8750  142.7020 C   0  0  1  0  0  3  0  0  0  0  0  0
  186.8570  176.5060  142.1250 C   0  0  0  0  0  0  0  0  0  0  0  0
  187.4450  176.1570  140.9180 O   0  0  0  0  0  0  0  0  0  0  0  0
  186.1770  175.6530  142.7520 O   0  0  0  0  0  1  0  0  0  0  0  0
  184.2440  177.6430  146.5780 O   0  0  0  0  0  1  0  0  0  0  0  0
  185.2980  177.0600  145.8730 C   0  0  0  0  0  2  0  0  0  0  0  0
  195.8160  175.4350  142.4420 C   0  0  0  0  0  2  0  0  0  0  0  0
  195.9460  173.9360  142.2150 C   0  0  0  0  0  2  0  0  0  0  0  0
  197.2190  171.1140  139.0810 C   0  0  0  0  0  2  0  0  0  0  0  0
  197.7170  171.5370  137.7160 C   0  0  0  0  0  2  0  0  0  0  0  0
  196.3400  174.6450  138.6790 C   0  0  0  0  0  3  0  0  0  0  0  0
  196.3390  173.1690  138.4250 C   0  0  1  0  0  3  0  0  0  0  0  0
  197.2850  172.8490  137.4390 O   0  0  0  0  0  0  0  0  0  0  0  0
  196.6540  172.3720  139.6710 C   0  0  1  0  0  3  0  0  0  0  0  0
  194.4000  174.5350  140.2940 C   0  0  2  0  0  3  0  0  0  0  0  0
  195.4730  175.2490  139.5020 C   0  0  0  0  0  3  0  0  0  0  0  0
  195.3640  172.1460  140.4970 C   0  0  2  0  0  3  0  0  0  0  0  0
  194.8910  173.4180  141.2360 C   0  0  1  0  0  3  0  0  0  0  0  0
  192.0910  173.5940  140.1930 C   0  0  0  0  0  3  0  0  0  0  0  0
  190.7970  173.5630  138.1380 C   0  0  0  0  0  0  0  0  0  0  0  0
  193.0450  174.4800  138.1530 C   0  0  0  0  0  3  0  0  0  0  0  0
  191.8710  174.1630  137.4650 C   0  0  0  0  0  3  0  0  0  0  0  0
  190.9160  173.2780  139.5050 C   0  0  0  0  0  3  0  0  0  0  0  0
  193.1580  174.2020  139.5220 C   0  0  0  0  0  0  0  0  0  0  0  0
  189.5550  173.2340  137.4220 C   0  0  0  0  0  0  0  0  0  0  0  0
  188.4900  173.8600  137.6750 O   0  0  0  0  0  1  0  0  0  0  0  0
  189.5440  172.2320  136.4600 O   0  0  0  0  0  0  0  0  0  0  0  0
  195.3490  170.9320  141.4520 C   0  0  1  0  0  3  0  0  0  0  0  0
  196.4660  170.9820  142.4800 C   0  0  0  0  0  1  0  0  0  0  0  0
  193.9210  170.5570  143.4640 O   0  0  0  0  0  1  0  0  0  0  0  0
  193.0000  170.4180  141.3710 O   0  0  0  0  0  0  0  0  0  0  0  0
  194.0230  170.6150  142.0790 C   0  0  0  0  0  0  0  0  0  0  0  0
  1  4  1  0  0  0  0
  2  7  1  0  0  0  0
  2  6  1  0  0  0  0
  3  2  2  0  0  0  0
  4  6  2  0  0  0  0
  5  3  1  0  0  0  0
  5  1  2  0  0  0  0
  7  8  1  0  0  0  0
  9  8  1  0  0  0  0
 10  9  1  0  0  0  0
 11 14  1  0  0  0  0
 11 10  1  0  0  0  0
 12 13  1  0  0  0  0
 13 14  2  0  0  0  0
 13 21  1  0  0  0  0
 15 18  1  1  0  0  0
 15 20  1  0  0  0  0
 16 22  1  6  0  0  0
 16 21  1  0  0  0  0
 20 19  1  0  0  0  0
 20 29  1  6  0  0  0
 21 17  1  1  0  0  0
 21 23  1  0  0  0  0
 23 19  1  0  0  0  0
 24 25  1  1  0  0  0
 24 16  1  0  0  0  0
 24 15  1  0  0  0  0
 25 27  1  0  0  0  0
 26 25  2  0  0  0  0
 29 28  1  0  0  0  0
 30  5  1  0  0  0  0
 31 30  1  0  0  0  0
 33 32  1  0  0  0  0
 34 39  2  0  0  0  0
 35 34  1  1  0  0  0
 35 37  1  0  0  0  0
 36 33  1  0  0  0  0
 36 35  1  0  0  0  0
 37 32  1  6  0  0  0
 37 40  1  0  0  0  0
 38 47  1  6  0  0  0
 38 41  1  0  0  0  0
 39 38  1  0  0  0  0
 40 41  1  0  0  0  0
 40 51  1  1  0  0  0
 41 31  1  6  0  0  0
 43 46  1  0  0  0  0
 44 47  2  0  0  0  0
 45 43  2  0  0  0  0
 45 44  1  0  0  0  0
 46 42  2  0  0  0  0
 47 42  1  0  0  0  0
 48 49  1  0  0  0  0
 48 43  1  0  0  0  0
 50 48  2  0  0  0  0
 51 55  1  0  0  0  0
 51 52  1  1  0  0  0
 54 55  2  0  0  0  0
 55 53  1  0  0  0  0
M  END
>  <MODEL>
7

>  <REMARK>
 VINA RESULT:      -5.7      3.018      8.231
  Name = 
  16 active torsions:
  status: ('A' for Active; 'I' for Inactive)
    1  A    between atoms: C_1  and  C_53
    2  A    between atoms: C_2  and  C_28
    3  A    between atoms: C_2  and  C_44
    4  A    between atoms: C_8  and  N_22
    5  A    between atoms: C_8  and  S_35
    6  A    between atoms: C_10  and  C_32
    7  A    between atoms: C_19  and  C_40
    8  A    between atoms: C_19  and  C_45
    9  A    between atoms: C_20  and  C_42
   10  A    between atoms: C_25  and  C_38
   11  A    between atoms: C_27  and  C_54
   12  A    between atoms: C_28  and  C_49
   13  A    between atoms: C_33  and  C_52
   14  A    between atoms: S_35  and  S_43
   15  A    between atoms: S_43  and  C_51
   16  A    between atoms: C_51  and  C_54
                            x       y       z     vdW  Elec       q    Type
                         _______ _______ _______ _____ _____    ______ ____

>  <TORSDO>
F 16

$$$$
=
 OpenBabel11052419453D

 55 59  0  0  1  0  0  0  0  0999 V2000
  194.5790  176.0410  143.3440 C   0  0  0  0  0  3  0  0  0  0  0  0
  195.2130  173.3260  143.0740 C   0  0  0  0  0  0  0  0  0  0  0  0
  193.9180  173.7740  142.8010 C   0  0  0  0  0  3  0  0  0  0  0  0
  195.8790  175.5950  143.6060 C   0  0  0  0  0  3  0  0  0  0  0  0
  193.5950  175.1290  142.9460 C   0  0  0  0  0  0  0  0  0  0  0  0
  196.1950  174.2370  143.4800 C   0  0  0  0  0  3  0  0  0  0  0  0
  195.5190  171.8670  143.0070 C   0  0  0  0  0  2  0  0  0  0  0  0
  194.2470  171.0320  143.1090 C   0  0  0  0  0  2  0  0  0  0  0  0
  194.0660  169.9410  141.6630 S   0  0  0  0  0  0  0  0  0  0  0  0
  192.0090  170.4280  141.4390 S   0  0  0  0  0  0  0  0  0  0  0  0
  191.8480  169.4120  139.9410 C   0  0  0  0  0  2  0  0  0  0  0  0
  189.8480  169.6120  137.9020 C   0  0  0  0  0  1  0  0  0  0  0  0
  191.1780  170.3180  137.8020 C   0  0  0  0  0  0  0  0  0  0  0  0
  192.0460  170.2160  138.7560 N   0  0  0  0  0  0  0  0  0  0  0  0
  192.1440  174.5760  136.9630 C   0  0  2  0  0  3  0  0  0  0  0  0
  190.5810  172.5080  136.6290 C   0  0  1  0  0  3  0  0  0  0  0  0
  191.2320  170.5570  135.4620 F   0  0  0  0  0  0  0  0  0  0  0  0
  191.6170  175.4310  135.9960 O   0  0  0  0  0  1  0  0  0  0  0  0
  193.1920  172.6690  135.6850 O   0  0  0  0  0  0  0  0  0  0  0  0
  193.3900  173.8710  136.3940 C   0  0  2  0  0  3  0  0  0  0  0  0
  191.4790  171.2490  136.6360 C   0  0  2  0  0  0  0  0  0  0  0  0
  189.2300  172.2090  136.8310 O   0  0  0  0  0  1  0  0  0  0  0  0
  192.9570  171.6510  136.6210 C   0  0  0  0  0  2  0  0  0  0  0  0
  191.0220  173.6820  137.5160 C   0  0  1  0  0  3  0  0  0  0  0  0
  191.0610  173.4340  138.9900 C   0  0  0  0  0  0  0  0  0  0  0  0
  192.2290  173.6130  139.7180 O   0  0  0  0  0  1  0  0  0  0  0  0
  190.0140  173.0660  139.5800 O   0  0  0  0  0  0  0  0  0  0  0  0
  194.6980  175.1400  137.9820 O   0  0  0  0  0  1  0  0  0  0  0  0
  194.6950  173.9960  137.1840 C   0  0  0  0  0  2  0  0  0  0  0  0
  192.1990  175.5930  142.7030 C   0  0  0  0  0  2  0  0  0  0  0  0
  191.9650  176.9110  143.4290 C   0  0  0  0  0  2  0  0  0  0  0  0
  190.1600  173.0240  144.4460 C   0  0  0  0  0  2  0  0  0  0  0  0
  189.1930  172.2810  143.5490 C   0  0  0  0  0  2  0  0  0  0  0  0
  189.0490  175.3970  141.8900 C   0  0  0  0  0  3  0  0  0  0  0  0
  188.9660  174.4660  143.0610 C   0  0  1  0  0  3  0  0  0  0  0  0
  188.6170  173.1780  142.6280 O   0  0  0  0  0  0  0  0  0  0  0  0
  190.2700  174.3830  143.8210 C   0  0  1  0  0  3  0  0  0  0  0  0
  189.4830  177.4300  143.3270 C   0  0  2  0  0  3  0  0  0  0  0  0
  189.2690  176.7130  142.0130 C   0  0  0  0  0  3  0  0  0  0  0  0
  190.3590  175.5350  144.8510 C   0  0  2  0  0  3  0  0  0  0  0  0
  190.6430  176.9060  144.1980 C   0  0  1  0  0  3  0  0  0  0  0  0
  188.2050  177.5460  145.4670 C   0  0  0  0  0  3  0  0  0  0  0  0
  185.9140  178.3480  145.5630 C   0  0  0  0  0  0  0  0  0  0  0  0
  187.0870  178.2480  143.4390 C   0  0  0  0  0  3  0  0  0  0  0  0
  185.9370  178.5450  144.1750 C   0  0  0  0  0  3  0  0  0  0  0  0
  187.0540  177.8440  146.2030 C   0  0  0  0  0  3  0  0  0  0  0  0
  188.2290  177.7530  144.0830 C   0  0  0  0  0  0  0  0  0  0  0  0
  184.7100  178.6670  146.3450 C   0  0  0  0  0  0  0  0  0  0  0  0
  183.6540  179.0380  145.7650 O   0  0  0  0  0  0  0  0  0  0  0  0
  184.7260  178.5600  147.7300 O   0  0  0  0  0  1  0  0  0  0  0  0
  191.2860  175.3170  146.0670 C   0  0  1  0  0  3  0  0  0  0  0  0
  192.3740  176.3730  146.1710 C   0  0  0  0  0  1  0  0  0  0  0  0
  189.2820  174.6370  147.3870 O   0  0  0  0  0  0  0  0  0  0  0  0
  191.1910  175.2910  148.4700 O   0  0  0  0  0  1  0  0  0  0  0  0
  190.5950  175.0910  147.3790 C   0  0  0  0  0  0  0  0  0  0  0  0
  1  4  1  0  0  0  0
  2  6  1  0  0  0  0
  3  5  1  0  0  0  0
  3  2  2  0  0  0  0
  5  1  2  0  0  0  0
  6  4  2  0  0  0  0
  7  2  1  0  0  0  0
  7  8  1  0  0  0  0
  9  8  1  0  0  0  0
 10  9  1  0  0  0  0
 11 10  1  0  0  0  0
 13 12  1  0  0  0  0
 13 14  2  0  0  0  0
 14 11  1  0  0  0  0
 15 18  1  6  0  0  0
 15 24  1  0  0  0  0
 16 21  1  0  0  0  0
 16 22  1  1  0  0  0
 16 24  1  0  0  0  0
 19 20  1  0  0  0  0
 19 23  1  0  0  0  0
 20 15  1  0  0  0  0
 20 29  1  1  0  0  0
 21 17  1  6  0  0  0
 21 13  1  0  0  0  0
 23 21  1  0  0  0  0
 24 25  1  1  0  0  0
 25 27  2  0  0  0  0
 25 26  1  0  0  0  0
 29 28  1  0  0  0  0
 30  5  1  0  0  0  0
 30 31  1  0  0  0  0
 33 32  1  0  0  0  0
 34 39  2  0  0  0  0
 35 34  1  6  0  0  0
 35 37  1  0  0  0  0
 36 35  1  0  0  0  0
 36 33  1  0  0  0  0
 37 32  1  1  0  0  0
 37 40  1  0  0  0  0
 38 47  1  1  0  0  0
 38 41  1  0  0  0  0
 39 38  1  0  0  0  0
 40 51  1  1  0  0  0
 41 31  1  6  0  0  0
 41 40  1  0  0  0  0
 42 46  1  0  0  0  0
 43 46  2  0  0  0  0
 43 48  1  0  0  0  0
 44 47  1  0  0  0  0
 44 45  2  0  0  0  0
 45 43  1  0  0  0  0
 47 42  2  0  0  0  0
 48 50  1  0  0  0  0
 49 48  2  0  0  0  0
 51 52  1  1  0  0  0
 51 55  1  0  0  0  0
 55 53  2  0  0  0  0
 55 54  1  0  0  0  0
M  END
>  <MODEL>
8

>  <REMARK>
 VINA RESULT:      -5.7      1.567      2.510
  Name = 
  16 active torsions:
  status: ('A' for Active; 'I' for Inactive)
    1  A    between atoms: C_1  and  C_53
    2  A    between atoms: C_2  and  C_28
    3  A    between atoms: C_2  and  C_44
    4  A    between atoms: C_8  and  N_22
    5  A    between atoms: C_8  and  S_35
    6  A    between atoms: C_10  and  C_32
    7  A    between atoms: C_19  and  C_40
    8  A    between atoms: C_19  and  C_45
    9  A    between atoms: C_20  and  C_42
   10  A    between atoms: C_25  and  C_38
   11  A    between atoms: C_27  and  C_54
   12  A    between atoms: C_28  and  C_49
   13  A    between atoms: C_33  and  C_52
   14  A    between atoms: S_35  and  S_43
   15  A    between atoms: S_43  and  C_51
   16  A    between atoms: C_51  and  C_54
                            x       y       z     vdW  Elec       q    Type
                         _______ _______ _______ _____ _____    ______ ____

>  <TORSDO>
F 16

$$$$
=
 OpenBabel11052419453D

 55 59  0  0  1  0  0  0  0  0999 V2000
  194.6690  175.6180  144.2800 C   0  0  0  0  0  3  0  0  0  0  0  0
  196.0220  175.8460  141.8380 C   0  0  0  0  0  0  0  0  0  0  0  0
  194.6250  175.8850  141.8720 C   0  0  0  0  0  3  0  0  0  0  0  0
  196.0670  175.5900  144.2470 C   0  0  0  0  0  3  0  0  0  0  0  0
  193.9450  175.7600  143.0900 C   0  0  0  0  0  0  0  0  0  0  0  0
  196.7440  175.6960  143.0270 C   0  0  0  0  0  3  0  0  0  0  0  0
  196.7290  175.8850  140.5240 C   0  0  0  0  0  2  0  0  0  0  0  0
  195.8340  175.3730  139.4010 C   0  0  0  0  0  2  0  0  0  0  0  0
  196.7660  175.2140  137.8460 S   0  0  0  0  0  0  0  0  0  0  0  0
  195.3710  173.8260  137.0450 S   0  0  0  0  0  0  0  0  0  0  0  0
  194.0070  175.0240  137.1290 C   0  0  0  0  0  2  0  0  0  0  0  0
  191.5550  175.2630  135.6710 C   0  0  0  0  0  1  0  0  0  0  0  0
  191.6580  174.4790  136.9560 C   0  0  0  0  0  0  0  0  0  0  0  0
  192.7910  174.3800  137.5730 N   0  0  0  0  0  0  0  0  0  0  0  0
  190.5130  170.3650  138.1940 C   0  0  2  0  0  3  0  0  0  0  0  0
  190.1480  172.4400  136.6490 C   0  0  1  0  0  3  0  0  0  0  0  0
  189.3540  174.5260  137.4320 F   0  0  0  0  0  0  0  0  0  0  0  0
  189.3740  169.6280  137.8760 O   0  0  0  0  0  1  0  0  0  0  0  0
  189.6770  172.4250  139.3890 O   0  0  0  0  0  0  0  0  0  0  0  0
  190.2640  171.1480  139.4970 C   0  0  2  0  0  3  0  0  0  0  0  0
  190.4640  173.7000  137.4890 C   0  0  2  0  0  0  0  0  0  0  0  0
  190.1370  172.6980  135.2740 O   0  0  0  0  0  1  0  0  0  0  0  0
  190.6680  173.3190  138.9590 C   0  0  0  0  0  2  0  0  0  0  0  0
  190.9560  171.1730  136.9640 C   0  0  1  0  0  3  0  0  0  0  0  0
  192.4320  171.2400  136.7330 C   0  0  0  0  0  0  0  0  0  0  0  0
  192.9510  171.5380  135.4810 O   0  0  0  0  0  0  0  0  0  0  0  0
  193.2150  171.0320  137.6940 O   0  0  0  0  0  1  0  0  0  0  0  0
  191.8580  169.6850  140.5780 O   0  0  0  0  0  1  0  0  0  0  0  0
  191.2560  170.9430  140.6450 C   0  0  0  0  0  2  0  0  0  0  0  0
  192.4540  175.7510  143.1150 C   0  0  0  0  0  2  0  0  0  0  0  0
  191.9410  177.1310  143.5030 C   0  0  0  0  0  2  0  0  0  0  0  0
  190.2850  173.1450  144.3830 C   0  0  0  0  0  2  0  0  0  0  0  0
  189.3710  172.3850  143.4460 C   0  0  0  0  0  2  0  0  0  0  0  0
  189.1280  175.5330  141.8610 C   0  0  0  0  0  3  0  0  0  0  0  0
  189.0600  174.5700  143.0060 C   0  0  1  0  0  3  0  0  0  0  0  0
  188.7780  173.2790  142.5340 O   0  0  0  0  0  0  0  0  0  0  0  0
  190.3490  174.5230  143.7940 C   0  0  1  0  0  3  0  0  0  0  0  0
  189.4420  177.5450  143.3570 C   0  0  2  0  0  3  0  0  0  0  0  0
  189.2890  176.8530  142.0210 C   0  0  0  0  0  3  0  0  0  0  0  0
  190.3660  175.6520  144.8540 C   0  0  2  0  0  3  0  0  0  0  0  0
  190.6040  177.0500  144.2410 C   0  0  1  0  0  3  0  0  0  0  0  0
  187.0440  178.2350  143.3700 C   0  0  0  0  0  3  0  0  0  0  0  0
  185.7190  178.2700  145.4050 C   0  0  0  0  0  0  0  0  0  0  0  0
  188.0530  177.6030  145.4770 C   0  0  0  0  0  3  0  0  0  0  0  0
  186.8390  177.8380  146.1290 C   0  0  0  0  0  3  0  0  0  0  0  0
  185.8300  178.4700  144.0220 C   0  0  0  0  0  3  0  0  0  0  0  0
  188.1590  177.7940  144.0920 C   0  0  0  0  0  0  0  0  0  0  0  0
  184.4370  178.5120  146.0830 C   0  0  0  0  0  0  0  0  0  0  0  0
  184.3100  178.2620  147.3120 O   0  0  0  0  0  1  0  0  0  0  0  0
  183.3530  179.0170  145.3750 O   0  0  0  0  0  0  0  0  0  0  0  0
  191.2750  175.4420  146.0850 C   0  0  1  0  0  3  0  0  0  0  0  0
  192.2460  176.5910  146.2980 C   0  0  0  0  0  1  0  0  0  0  0  0
  191.1850  175.3120  148.5740 O   0  0  0  0  0  1  0  0  0  0  0  0
  189.4310  174.5250  147.3280 O   0  0  0  0  0  0  0  0  0  0  0  0
  190.5720  175.0580  147.3530 C   0  0  0  0  0  0  0  0  0  0  0  0
  2  3  2  0  0  0  0
  2  6  1  0  0  0  0
  3  5  1  0  0  0  0
  4  1  1  0  0  0  0
  5 30  1  0  0  0  0
  5  1  2  0  0  0  0
  6  4  2  0  0  0  0
  7  2  1  0  0  0  0
  8  7  1  0  0  0  0
  9  8  1  0  0  0  0
 10 11  1  0  0  0  0
 10  9  1  0  0  0  0
 11 14  1  0  0  0  0
 12 13  1  0  0  0  0
 13 21  1  0  0  0  0
 13 14  2  0  0  0  0
 15 18  1  6  0  0  0
 15 20  1  0  0  0  0
 16 22  1  6  0  0  0
 16 24  1  0  0  0  0
 16 21  1  0  0  0  0
 19 20  1  0  0  0  0
 20 29  1  6  0  0  0
 21 17  1  6  0  0  0
 21 23  1  0  0  0  0
 23 19  1  0  0  0  0
 24 25  1  1  0  0  0
 24 15  1  0  0  0  0
 25 27  1  0  0  0  0
 26 25  2  0  0  0  0
 28 29  1  0  0  0  0
 30 31  1  0  0  0  0
 33 32  1  0  0  0  0
 34 39  2  0  0  0  0
 35 34  1  6  0  0  0
 35 37  1  0  0  0  0
 36 35  1  0  0  0  0
 36 33  1  0  0  0  0
 37 32  1  1  0  0  0
 37 40  1  0  0  0  0
 38 47  1  1  0  0  0
 38 41  1  0  0  0  0
 39 38  1  0  0  0  0
 40 51  1  1  0  0  0
 41 31  1  6  0  0  0
 41 40  1  0  0  0  0
 42 46  2  0  0  0  0
 42 47  1  0  0  0  0
 43 48  1  0  0  0  0
 43 45  2  0  0  0  0
 44 45  1  0  0  0  0
 46 43  1  0  0  0  0
 47 44  2  0  0  0  0
 48 49  1  0  0  0  0
 50 48  2  0  0  0  0
 51 52  1  1  0  0  0
 51 55  1  0  0  0  0
 54 55  2  0  0  0  0
 55 53  1  0  0  0  0
M  END
>  <MODEL>
9

>  <REMARK>
 VINA RESULT:      -5.7      2.026      3.140
  Name = 
  16 active torsions:
  status: ('A' for Active; 'I' for Inactive)
    1  A    between atoms: C_1  and  C_53
    2  A    between atoms: C_2  and  C_28
    3  A    between atoms: C_2  and  C_44
    4  A    between atoms: C_8  and  N_22
    5  A    between atoms: C_8  and  S_35
    6  A    between atoms: C_10  and  C_32
    7  A    between atoms: C_19  and  C_40
    8  A    between atoms: C_19  and  C_45
    9  A    between atoms: C_20  and  C_42
   10  A    between atoms: C_25  and  C_38
   11  A    between atoms: C_27  and  C_54
   12  A    between atoms: C_28  and  C_49
   13  A    between atoms: C_33  and  C_52
   14  A    between atoms: S_35  and  S_43
   15  A    between atoms: S_43  and  C_51
   16  A    between atoms: C_51  and  C_54
                            x       y       z     vdW  Elec       q    Type
                         _______ _______ _______ _____ _____    ______ ____

>  <TORSDO>
F 16

$$$$
