=
 OpenBabel11052420143D

 34 39  0  0  0  0  0  0  0  0999 V2000
  187.2300  176.8980  144.1570 C   0  0  0  0  0  0  0  0  0  0  0  0
  185.8280  178.2070  140.8980 C   0  0  0  0  0  3  0  0  0  0  0  0
  185.5600  178.9420  143.1170 C   0  0  0  0  0  3  0  0  0  0  0  0
  188.1340  176.0570  146.4190 C   0  0  0  0  0  0  0  0  0  0  0  0
  188.0880  175.8720  144.8890 C   0  0  0  0  0  3  0  0  0  0  0  0
  186.6790  177.9790  146.2550 C   0  0  0  0  0  0  0  0  0  0  0  0
  185.9230  179.0380  146.6270 N   0  0  0  0  0  2  0  0  0  0  0  0
  187.4660  177.0450  147.0610 C   0  0  0  0  0  3  0  0  0  0  0  0
  185.8240  178.8240  144.4740 C   0  0  0  0  0  0  0  0  0  0  0  0
  186.6170  177.8480  144.9250 C   0  0  0  0  0  0  0  0  0  0  0  0
  185.3900  179.5640  145.5170 N   0  0  0  0  0  0  0  0  0  0  0  0
  186.1970  177.5210  139.7520 C   0  0  0  0  0  3  0  0  0  0  0  0
  187.0120  176.4080  139.5970 C   0  0  0  0  0  0  0  0  0  0  0  0
  187.6500  175.7330  140.6310 C   0  0  0  0  0  3  0  0  0  0  0  0
  186.1540  178.0010  142.2320 C   0  0  0  0  0  0  0  0  0  0  0  0
  187.6440  175.9750  141.9950 C   0  0  0  0  0  3  0  0  0  0  0  0
  187.0060  176.9550  142.7530 C   0  0  0  0  0  0  0  0  0  0  0  0
  187.2120  175.9050  138.2240 C   0  0  0  0  0  0  0  0  0  0  0  0
  187.8480  174.6880  138.0060 O   0  0  0  0  0  1  0  0  0  0  0  0
  186.8110  176.5710  137.2320 O   0  0  0  0  0  0  0  0  0  0  0  0
  188.9190  175.0830  147.2290 C   0  0  0  0  0  2  0  0  0  0  0  0
  192.4690  176.4090  147.1250 C   0  0  0  0  0  3  0  0  0  0  0  0
  190.9990  174.2440  146.1140 C   0  0  0  0  0  3  0  0  0  0  0  0
  195.0880  174.6240  145.2040 C   0  0  0  0  0  0  0  0  0  0  0  0
  194.4560  175.5780  146.0140 C   0  0  0  0  0  3  0  0  0  0  0  0
  193.0980  175.4560  146.3190 C   0  0  0  0  0  0  0  0  0  0  0  0
  192.9860  173.4150  145.0020 C   0  0  0  0  0  3  0  0  0  0  0  0
  192.3580  174.3660  145.8100 C   0  0  0  0  0  0  0  0  0  0  0  0
  194.3450  173.5440  144.7010 C   0  0  0  0  0  3  0  0  0  0  0  0
  190.3760  175.1990  146.9250 C   0  0  0  0  0  0  0  0  0  0  0  0
  191.1100  176.2810  147.4250 C   0  0  0  0  0  3  0  0  0  0  0  0
  196.5180  174.7580  144.8860 C   0  0  0  0  0  0  0  0  0  0  0  0
  196.8980  175.5280  143.9650 O   0  0  0  0  0  0  0  0  0  0  0  0
  197.4660  174.0330  145.6010 O   0  0  0  0  0  1  0  0  0  0  0  0
  1  5  2  0  0  0  0
  1 10  1  0  0  0  0
  2 15  1  0  0  0  0
  3  9  1  0  0  0  0
  4  8  2  0  0  0  0
  4 21  1  0  0  0  0
  5  4  1  0  0  0  0
  6  7  1  0  0  0  0
  6  8  1  0  0  0  0
  9 10  1  0  0  0  0
  9 11  2  0  0  0  0
 10  6  2  0  0  0  0
 11  7  1  0  0  0  0
 12  2  2  0  0  0  0
 13 12  1  0  0  0  0
 13 14  2  0  0  0  0
 14 16  1  0  0  0  0
 15 17  1  0  0  0  0
 15  3  2  0  0  0  0
 16 17  2  0  0  0  0
 17  1  1  0  0  0  0
 18 13  1  0  0  0  0
 19 18  1  0  0  0  0
 20 18  2  0  0  0  0
 22 31  1  0  0  0  0
 23 30  1  0  0  0  0
 24 25  2  0  0  0  0
 25 26  1  0  0  0  0
 26 22  2  0  0  0  0
 27 28  1  0  0  0  0
 28 23  2  0  0  0  0
 28 26  1  0  0  0  0
 29 27  2  0  0  0  0
 29 24  1  0  0  0  0
 30 21  1  0  0  0  0
 30 31  2  0  0  0  0
 32 24  1  0  0  0  0
 32 34  1  0  0  0  0
 33 32  2  0  0  0  0
M  END
>  <MODEL>
1

>  <REMARK>
 VINA RESULT:      -9.2      0.000      0.000
  Name = 
  4 active torsions:
  status: ('A' for Active; 'I' for Inactive)
    1  A    between atoms: C_3  and  C_25
    2  A    between atoms: C_7  and  C_11
    3  A    between atoms: C_8  and  C_18
    4  A    between atoms: C_18  and  C_30
                            x       y       z     vdW  Elec       q    Type
                         _______ _______ _______ _____ _____    ______ ____

>  <TORSDO>
F 4

$$$$
=
 OpenBabel11052420143D

 34 39  0  0  0  0  0  0  0  0999 V2000
  186.6320  176.9280  144.4350 C   0  0  0  0  0  0  0  0  0  0  0  0
  185.0640  178.2140  141.2430 C   0  0  0  0  0  3  0  0  0  0  0  0
  184.5740  178.6450  143.5040 C   0  0  0  0  0  3  0  0  0  0  0  0
  187.6370  176.0870  146.6530 C   0  0  0  0  0  0  0  0  0  0  0  0
  187.6780  176.0500  145.1130 C   0  0  0  0  0  3  0  0  0  0  0  0
  185.7920  177.6440  146.5930 C   0  0  0  0  0  0  0  0  0  0  0  0
  184.8070  178.4670  147.0210 N   0  0  0  0  0  2  0  0  0  0  0  0
  186.7460  176.8330  147.3480 C   0  0  0  0  0  3  0  0  0  0  0  0
  184.8190  178.4530  144.8550 C   0  0  0  0  0  0  0  0  0  0  0  0
  185.7990  177.6370  145.2550 C   0  0  0  0  0  0  0  0  0  0  0  0
  184.2000  178.9710  145.9390 N   0  0  0  0  0  0  0  0  0  0  0  0
  185.6110  177.7450  140.0590 C   0  0  0  0  0  3  0  0  0  0  0  0
  186.6590  176.8620  139.8440 C   0  0  0  0  0  0  0  0  0  0  0  0
  187.4030  176.2450  140.8430 C   0  0  0  0  0  3  0  0  0  0  0  0
  185.3900  177.9530  142.5680 C   0  0  0  0  0  0  0  0  0  0  0  0
  187.3040  176.3410  142.2220 C   0  0  0  0  0  3  0  0  0  0  0  0
  186.4410  177.0750  143.0330 C   0  0  0  0  0  0  0  0  0  0  0  0
  187.0070  176.5560  138.4430 C   0  0  0  0  0  0  0  0  0  0  0  0
  187.3680  175.2650  138.0730 O   0  0  0  0  0  1  0  0  0  0  0  0
  186.9800  177.4580  137.5630 O   0  0  0  0  0  0  0  0  0  0  0  0
  188.5990  175.2340  147.4100 C   0  0  0  0  0  2  0  0  0  0  0  0
  191.3240  174.1470  145.0090 C   0  0  0  0  0  3  0  0  0  0  0  0
  190.9630  175.9940  147.0900 C   0  0  0  0  0  3  0  0  0  0  0  0
  194.6740  175.7290  145.1270 C   0  0  0  0  0  0  0  0  0  0  0  0
  193.6140  174.8940  144.7430 C   0  0  0  0  0  3  0  0  0  0  0  0
  192.3790  174.9790  145.3920 C   0  0  0  0  0  0  0  0  0  0  0  0
  193.2530  176.7400  146.8240 C   0  0  0  0  0  3  0  0  0  0  0  0
  192.1980  175.9100  146.4390 C   0  0  0  0  0  0  0  0  0  0  0  0
  194.4860  176.6500  146.1690 C   0  0  0  0  0  3  0  0  0  0  0  0
  189.9090  175.1610  146.6990 C   0  0  0  0  0  0  0  0  0  0  0  0
  190.0920  174.2360  145.6630 C   0  0  0  0  0  3  0  0  0  0  0  0
  195.9720  175.6340  144.4400 C   0  0  0  0  0  0  0  0  0  0  0  0
  196.7170  174.6350  144.6180 O   0  0  0  0  0  1  0  0  0  0  0  0
  196.3880  176.6500  143.5870 O   0  0  0  0  0  0  0  0  0  0  0  0
  1  5  2  0  0  0  0
  1 10  1  0  0  0  0
  2 15  1  0  0  0  0
  3  9  1  0  0  0  0
  4  8  2  0  0  0  0
  4 21  1  0  0  0  0
  5  4  1  0  0  0  0
  6  7  1  0  0  0  0
  6  8  1  0  0  0  0
  9 10  1  0  0  0  0
  9 11  2  0  0  0  0
 10  6  2  0  0  0  0
 11  7  1  0  0  0  0
 12  2  2  0  0  0  0
 13 12  1  0  0  0  0
 13 14  2  0  0  0  0
 14 16  1  0  0  0  0
 15 17  1  0  0  0  0
 15  3  2  0  0  0  0
 16 17  2  0  0  0  0
 17  1  1  0  0  0  0
 18 13  1  0  0  0  0
 19 18  1  0  0  0  0
 20 18  2  0  0  0  0
 22 26  2  0  0  0  0
 22 31  1  0  0  0  0
 24 29  1  0  0  0  0
 25 24  2  0  0  0  0
 25 26  1  0  0  0  0
 26 28  1  0  0  0  0
 28 27  1  0  0  0  0
 28 23  2  0  0  0  0
 29 27  2  0  0  0  0
 30 23  1  0  0  0  0
 30 21  1  0  0  0  0
 31 30  2  0  0  0  0
 32 33  1  0  0  0  0
 32 24  1  0  0  0  0
 34 32  2  0  0  0  0
M  END
>  <MODEL>
2

>  <REMARK>
 VINA RESULT:      -9.2      0.951      1.610
  Name = 
  4 active torsions:
  status: ('A' for Active; 'I' for Inactive)
    1  A    between atoms: C_3  and  C_25
    2  A    between atoms: C_7  and  C_11
    3  A    between atoms: C_8  and  C_18
    4  A    between atoms: C_18  and  C_30
                            x       y       z     vdW  Elec       q    Type
                         _______ _______ _______ _____ _____    ______ ____

>  <TORSDO>
F 4

$$$$
=
 OpenBabel11052420143D

 34 39  0  0  0  0  0  0  0  0999 V2000
  190.6530  176.8790  144.4250 C   0  0  0  0  0  0  0  0  0  0  0  0
  186.9760  177.7570  144.5250 C   0  0  0  0  0  3  0  0  0  0  0  0
  188.5370  177.3850  146.2460 C   0  0  0  0  0  3  0  0  0  0  0  0
  193.1560  176.2660  144.4390 C   0  0  0  0  0  0  0  0  0  0  0  0
  191.8990  176.5750  143.6010 C   0  0  0  0  0  3  0  0  0  0  0  0
  191.9020  176.5750  146.4800 C   0  0  0  0  0  0  0  0  0  0  0  0
  191.6170  176.6380  147.8020 N   0  0  0  0  0  2  0  0  0  0  0  0
  193.1540  176.2620  145.7930 C   0  0  0  0  0  3  0  0  0  0  0  0
  189.8210  177.0790  146.6730 C   0  0  0  0  0  0  0  0  0  0  0  0
  190.7910  176.8480  145.7840 C   0  0  0  0  0  0  0  0  0  0  0  0
  190.3210  176.9520  147.9220 N   0  0  0  0  0  0  0  0  0  0  0  0
  186.3470  177.9060  143.2990 C   0  0  0  0  0  3  0  0  0  0  0  0
  186.8530  177.7840  142.0130 C   0  0  0  0  0  0  0  0  0  0  0  0
  188.1680  177.4680  141.6960 C   0  0  0  0  0  3  0  0  0  0  0  0
  188.2910  177.4430  144.8470 C   0  0  0  0  0  0  0  0  0  0  0  0
  189.2510  177.2110  142.5230 C   0  0  0  0  0  3  0  0  0  0  0  0
  189.3620  177.1860  143.9120 C   0  0  0  0  0  0  0  0  0  0  0  0
  185.9140  178.0060  140.8960 C   0  0  0  0  0  0  0  0  0  0  0  0
  186.2480  177.6090  139.6060 O   0  0  0  0  0  0  0  0  0  0  0  0
  184.7980  178.5580  141.0950 O   0  0  0  0  0  1  0  0  0  0  0  0
  194.4190  175.9230  143.7250 C   0  0  0  0  0  2  0  0  0  0  0  0
  197.0360  173.7040  145.3370 C   0  0  0  0  0  3  0  0  0  0  0  0
  194.3630  173.5420  144.5030 C   0  0  0  0  0  3  0  0  0  0  0  0
  196.2420  170.1910  146.2130 C   0  0  0  0  0  0  0  0  0  0  0  0
  196.9500  171.3920  146.0590 C   0  0  0  0  0  3  0  0  0  0  0  0
  196.3300  172.5080  145.4920 C   0  0  0  0  0  0  0  0  0  0  0  0
  194.2780  171.2310  145.2230 C   0  0  0  0  0  3  0  0  0  0  0  0
  194.9830  172.4270  145.0720 C   0  0  0  0  0  0  0  0  0  0  0  0
  194.9050  170.1180  145.7920 C   0  0  0  0  0  3  0  0  0  0  0  0
  195.0740  174.7390  144.3550 C   0  0  0  0  0  0  0  0  0  0  0  0
  196.4100  174.8160  144.7680 C   0  0  0  0  0  3  0  0  0  0  0  0
  196.9010  169.0190  146.8110 C   0  0  0  0  0  0  0  0  0  0  0  0
  196.6990  168.7210  148.0180 O   0  0  0  0  0  1  0  0  0  0  0  0
  197.7550  168.2300  146.0480 O   0  0  0  0  0  0  0  0  0  0  0  0
  1 10  1  0  0  0  0
  2 15  1  0  0  0  0
  3  9  1  0  0  0  0
  4  8  2  0  0  0  0
  5  1  2  0  0  0  0
  5  4  1  0  0  0  0
  6  7  1  0  0  0  0
  7 11  1  0  0  0  0
  8  6  1  0  0  0  0
  9 11  2  0  0  0  0
 10  6  2  0  0  0  0
 10  9  1  0  0  0  0
 12  2  2  0  0  0  0
 13 12  1  0  0  0  0
 14 13  2  0  0  0  0
 14 16  1  0  0  0  0
 15  3  2  0  0  0  0
 16 17  2  0  0  0  0
 17  1  1  0  0  0  0
 17 15  1  0  0  0  0
 18 20  1  0  0  0  0
 18 13  1  0  0  0  0
 19 18  2  0  0  0  0
 21 30  1  0  0  0  0
 21  4  1  0  0  0  0
 22 26  1  0  0  0  0
 23 28  1  0  0  0  0
 24 32  1  0  0  0  0
 25 24  1  0  0  0  0
 26 25  2  0  0  0  0
 27 29  1  0  0  0  0
 28 27  2  0  0  0  0
 28 26  1  0  0  0  0
 29 24  2  0  0  0  0
 30 23  2  0  0  0  0
 30 31  1  0  0  0  0
 31 22  2  0  0  0  0
 32 33  1  0  0  0  0
 34 32  2  0  0  0  0
M  END
>  <MODEL>
3

>  <REMARK>
 VINA RESULT:      -8.8      2.993      4.727
  Name = 
  4 active torsions:
  status: ('A' for Active; 'I' for Inactive)
    1  A    between atoms: C_3  and  C_25
    2  A    between atoms: C_7  and  C_11
    3  A    between atoms: C_8  and  C_18
    4  A    between atoms: C_18  and  C_30
                            x       y       z     vdW  Elec       q    Type
                         _______ _______ _______ _____ _____    ______ ____

>  <TORSDO>
F 4

$$$$
=
 OpenBabel11052420143D

 34 39  0  0  0  0  0  0  0  0999 V2000
  193.6890  174.0820  145.7900 C   0  0  0  0  0  0  0  0  0  0  0  0
  196.9770  172.5580  144.7080 C   0  0  0  0  0  3  0  0  0  0  0  0
  196.2570  174.7960  144.8160 C   0  0  0  0  0  3  0  0  0  0  0  0
  191.4760  175.1950  146.4970 C   0  0  0  0  0  0  0  0  0  0  0  0
  192.2690  173.8880  146.3090 C   0  0  0  0  0  2  0  0  0  0  0  0
  193.3710  176.4850  145.7360 C   0  0  0  0  0  0  0  0  0  0  0  0
  194.1260  177.5520  145.3860 N   0  0  0  0  0  0  0  0  0  0  0  0
  191.9930  176.4160  146.2230 C   0  0  0  0  0  3  0  0  0  0  0  0
  195.2870  175.7450  145.1020 C   0  0  0  0  0  0  0  0  0  0  0  0
  194.0890  175.3690  145.5610 C   0  0  0  0  0  0  0  0  0  0  0  0
  195.3200  177.0910  144.9910 N   0  0  0  0  0  0  0  0  0  0  0  0
  197.0620  171.1760  144.7700 C   0  0  0  0  0  3  0  0  0  0  0  0
  196.1210  170.2380  145.1710 C   0  0  0  0  0  0  0  0  0  0  0  0
  194.8370  170.5300  145.6120 C   0  0  0  0  0  3  0  0  0  0  0  0
  195.9390  173.4260  145.0230 C   0  0  0  0  0  0  0  0  0  0  0  0
  194.1980  171.7510  145.7610 C   0  0  0  0  0  3  0  0  0  0  0  0
  194.6330  173.0530  145.5190 C   0  0  0  0  0  0  0  0  0  0  0  0
  196.5220  168.8180  145.1210 C   0  0  0  0  0  0  0  0  0  0  0  0
  196.6610  168.1690  143.8990 O   0  0  0  0  0  0  0  0  0  0  0  0
  196.7440  168.1760  146.1820 O   0  0  0  0  0  1  0  0  0  0  0  0
  190.0640  175.1080  146.9690 C   0  0  0  0  0  2  0  0  0  0  0  0
  188.4500  175.5670  143.5700 C   0  0  0  0  0  3  0  0  0  0  0  0
  188.0730  176.4270  146.2130 C   0  0  0  0  0  3  0  0  0  0  0  0
  185.4750  177.7420  143.1790 C   0  0  0  0  0  0  0  0  0  0  0  0
  186.5310  176.8730  142.8720 C   0  0  0  0  0  3  0  0  0  0  0  0
  187.3970  176.4330  143.8770 C   0  0  0  0  0  0  0  0  0  0  0  0
  186.1560  177.7330  145.5150 C   0  0  0  0  0  3  0  0  0  0  0  0
  187.2070  176.8660  145.2080 C   0  0  0  0  0  0  0  0  0  0  0  0
  185.2940  178.1690  144.5040 C   0  0  0  0  0  3  0  0  0  0  0  0
  189.1240  175.5560  145.9010 C   0  0  0  0  0  0  0  0  0  0  0  0
  189.3130  175.1320  144.5790 C   0  0  0  0  0  3  0  0  0  0  0  0
  184.5670  178.2020  142.1170 C   0  0  0  0  0  0  0  0  0  0  0  0
  183.3280  178.2880  142.3290 O   0  0  0  0  0  1  0  0  0  0  0  0
  185.0690  178.5460  140.8670 O   0  0  0  0  0  0  0  0  0  0  0  0
  1  5  1  0  0  0  0
  2 12  2  0  0  0  0
  2 15  1  0  0  0  0
  3 15  2  0  0  0  0
  3  9  1  0  0  0  0
  4 21  1  0  0  0  0
  5  4  1  0  0  0  0
  6  8  1  0  0  0  0
  7  6  2  0  0  0  0
  8  4  2  0  0  0  0
  9 10  1  0  0  0  0
 10  6  1  0  0  0  0
 10  1  2  0  0  0  0
 11  9  2  0  0  0  0
 11  7  1  0  0  0  0
 12 13  1  0  0  0  0
 13 14  2  0  0  0  0
 14 16  1  0  0  0  0
 15 17  1  0  0  0  0
 17 16  2  0  0  0  0
 17  1  1  0  0  0  0
 18 13  1  0  0  0  0
 18 20  1  0  0  0  0
 19 18  2  0  0  0  0
 22 26  2  0  0  0  0
 22 31  1  0  0  0  0
 24 29  1  0  0  0  0
 25 24  2  0  0  0  0
 25 26  1  0  0  0  0
 26 28  1  0  0  0  0
 28 27  1  0  0  0  0
 28 23  2  0  0  0  0
 29 27  2  0  0  0  0
 30 23  1  0  0  0  0
 30 21  1  0  0  0  0
 31 30  2  0  0  0  0
 32 33  1  0  0  0  0
 32 24  1  0  0  0  0
 34 32  2  0  0  0  0
M  END
>  <MODEL>
4

>  <REMARK>
 VINA RESULT:      -8.4      3.421      9.614
  Name = 
  4 active torsions:
  status: ('A' for Active; 'I' for Inactive)
    1  A    between atoms: C_3  and  C_25
    2  A    between atoms: C_7  and  C_11
    3  A    between atoms: C_8  and  C_18
    4  A    between atoms: C_18  and  C_30
                            x       y       z     vdW  Elec       q    Type
                         _______ _______ _______ _____ _____    ______ ____

>  <TORSDO>
F 4

$$$$
=
 OpenBabel11052420143D

 34 39  0  0  0  0  0  0  0  0999 V2000
  193.2050  175.0000  142.9760 C   0  0  0  0  0  0  0  0  0  0  0  0
  193.4860  174.4890  139.2390 C   0  0  0  0  0  3  0  0  0  0  0  0
  194.9200  175.5400  140.7810 C   0  0  0  0  0  3  0  0  0  0  0  0
  193.0800  175.3990  145.5180 C   0  0  0  0  0  0  0  0  0  0  0  0
  192.4120  174.8040  144.2630 C   0  0  0  0  0  2  0  0  0  0  0  0
  194.9480  176.1650  144.1920 C   0  0  0  0  0  0  0  0  0  0  0  0
  196.1240  176.7520  143.8700 N   0  0  0  0  0  0  0  0  0  0  0  0
  194.2710  176.0430  145.4830 C   0  0  0  0  0  3  0  0  0  0  0  0
  195.2300  175.9350  142.0740 C   0  0  0  0  0  0  0  0  0  0  0  0
  194.3960  175.6610  143.0820 C   0  0  0  0  0  0  0  0  0  0  0  0
  196.3000  176.6090  142.5500 N   0  0  0  0  0  0  0  0  0  0  0  0
  192.4380  173.8150  138.6320 C   0  0  0  0  0  3  0  0  0  0  0  0
  191.2780  173.2850  139.1780 C   0  0  0  0  0  0  0  0  0  0  0  0
  190.9300  173.3370  140.5220 C   0  0  0  0  0  3  0  0  0  0  0  0
  193.7010  174.8410  140.5660 C   0  0  0  0  0  0  0  0  0  0  0  0
  191.6020  173.8900  141.6000 C   0  0  0  0  0  3  0  0  0  0  0  0
  192.8200  174.5620  141.6780 C   0  0  0  0  0  0  0  0  0  0  0  0
  190.3420  172.6160  138.2530 C   0  0  0  0  0  0  0  0  0  0  0  0
  189.1690  172.0430  138.7310 O   0  0  0  0  0  1  0  0  0  0  0  0
  190.5920  172.5560  137.0190 O   0  0  0  0  0  0  0  0  0  0  0  0
  192.3660  175.2900  146.8230 C   0  0  0  0  0  2  0  0  0  0  0  0
  188.6020  175.2670  147.2740 C   0  0  0  0  0  3  0  0  0  0  0  0
  190.5280  176.5770  145.7110 C   0  0  0  0  0  3  0  0  0  0  0  0
  186.4480  177.4700  145.2140 C   0  0  0  0  0  0  0  0  0  0  0  0
  186.8490  176.5170  146.1610 C   0  0  0  0  0  3  0  0  0  0  0  0
  188.2030  176.2180  146.3310 C   0  0  0  0  0  0  0  0  0  0  0  0
  188.7750  177.8250  144.5980 C   0  0  0  0  0  3  0  0  0  0  0  0
  189.1730  176.8780  145.5430 C   0  0  0  0  0  0  0  0  0  0  0  0
  187.4180  178.1200  144.4350 C   0  0  0  0  0  3  0  0  0  0  0  0
  190.9210  175.6280  146.6610 C   0  0  0  0  0  0  0  0  0  0  0  0
  189.9580  174.9720  147.4370 C   0  0  0  0  0  3  0  0  0  0  0  0
  185.0200  177.7800  145.0400 C   0  0  0  0  0  0  0  0  0  0  0  0
  184.5230  177.8730  143.8870 O   0  0  0  0  0  0  0  0  0  0  0  0
  184.2060  177.9750  146.1500 O   0  0  0  0  0  1  0  0  0  0  0  0
  1 10  2  0  0  0  0
  1  5  1  0  0  0  0
  2 15  1  0  0  0  0
  3  9  1  0  0  0  0
  4 21  1  0  0  0  0
  5  4  1  0  0  0  0
  6  8  1  0  0  0  0
  7  6  2  0  0  0  0
  8  4  2  0  0  0  0
  9 11  2  0  0  0  0
  9 10  1  0  0  0  0
 10  6  1  0  0  0  0
 11  7  1  0  0  0  0
 12 13  1  0  0  0  0
 12  2  2  0  0  0  0
 13 14  2  0  0  0  0
 14 16  1  0  0  0  0
 15  3  2  0  0  0  0
 15 17  1  0  0  0  0
 16 17  2  0  0  0  0
 17  1  1  0  0  0  0
 18 19  1  0  0  0  0
 18 13  1  0  0  0  0
 20 18  2  0  0  0  0
 22 31  1  0  0  0  0
 23 30  1  0  0  0  0
 24 25  2  0  0  0  0
 25 26  1  0  0  0  0
 26 22  2  0  0  0  0
 27 28  1  0  0  0  0
 28 23  2  0  0  0  0
 28 26  1  0  0  0  0
 29 27  2  0  0  0  0
 29 24  1  0  0  0  0
 30 21  1  0  0  0  0
 30 31  2  0  0  0  0
 32 24  1  0  0  0  0
 32 34  1  0  0  0  0
 33 32  2  0  0  0  0
M  END
>  <MODEL>
5

>  <REMARK>
 VINA RESULT:      -8.4      4.401      7.524
  Name = 
  4 active torsions:
  status: ('A' for Active; 'I' for Inactive)
    1  A    between atoms: C_3  and  C_25
    2  A    between atoms: C_7  and  C_11
    3  A    between atoms: C_8  and  C_18
    4  A    between atoms: C_18  and  C_30
                            x       y       z     vdW  Elec       q    Type
                         _______ _______ _______ _____ _____    ______ ____

>  <TORSDO>
F 4

$$$$
=
 OpenBabel11052420143D

 34 39  0  0  1  0  0  0  0  0999 V2000
  190.2780  175.9540  143.8600 C   0  0  0  0  0  0  0  0  0  0  0  0
  186.5320  176.1650  143.3930 C   0  0  0  0  0  3  0  0  0  0  0  0
  188.2080  175.1330  142.1030 C   0  0  0  0  0  3  0  0  0  0  0  0
  192.8380  175.7780  144.1010 C   0  0  0  0  0  0  0  0  0  0  0  0
  191.5120  176.3090  144.6820 C   0  0  0  0  0  3  0  0  0  0  0  0
  191.6540  174.7700  142.2530 C   0  0  0  0  0  0  0  0  0  0  0  0
  191.4290  174.0890  141.1050 N   0  0  0  0  0  0  0  0  0  0  0  0
  192.9040  175.0590  142.9560 C   0  0  0  0  0  3  0  0  0  0  0  0
  189.5380  174.8120  141.8770 C   0  0  0  0  0  0  0  0  0  0  0  0
  190.4850  175.2160  142.7280 C   0  0  2  0  0  3  0  0  0  0  0  0
  190.1110  174.1150  140.8710 N   0  0  0  0  0  0  0  0  0  0  0  0
  185.8310  176.8660  144.3610 C   0  0  0  0  0  3  0  0  0  0  0  0
  186.2850  177.5190  145.4990 C   0  0  0  0  0  0  0  0  0  0  0  0
  187.6130  177.5940  145.9020 C   0  0  0  0  0  3  0  0  0  0  0  0
  187.8880  175.8990  143.2580 C   0  0  0  0  0  0  0  0  0  0  0  0
  188.7570  177.0740  145.3180 C   0  0  0  0  0  3  0  0  0  0  0  0
  188.9370  176.3220  144.1580 C   0  0  0  0  0  0  0  0  0  0  0  0
  185.2740  178.1840  146.3420 C   0  0  0  0  0  0  0  0  0  0  0  0
  185.5580  179.4010  146.9540 O   0  0  0  0  0  1  0  0  0  0  0  0
  184.1410  177.6610  146.5200 O   0  0  0  0  0  0  0  0  0  0  0  0
  194.1070  176.1020  144.8150 C   0  0  0  0  0  2  0  0  0  0  0  0
  196.9950  173.7290  145.4400 C   0  0  0  0  0  3  0  0  0  0  0  0
  194.1940  173.6480  145.3070 C   0  0  0  0  0  3  0  0  0  0  0  0
  196.3690  170.1330  146.0880 C   0  0  0  0  0  0  0  0  0  0  0  0
  197.0420  171.3480  145.8940 C   0  0  0  0  0  3  0  0  0  0  0  0
  196.3240  172.5190  145.6350 C   0  0  0  0  0  0  0  0  0  0  0  0
  194.2420  171.2680  145.7580 C   0  0  0  0  0  3  0  0  0  0  0  0
  194.9130  172.4780  145.5680 C   0  0  0  0  0  0  0  0  0  0  0  0
  194.9670  170.1020  146.0180 C   0  0  0  0  0  3  0  0  0  0  0  0
  194.8720  174.8580  145.1180 C   0  0  0  0  0  0  0  0  0  0  0  0
  196.2710  174.8950  145.1800 C   0  0  0  0  0  3  0  0  0  0  0  0
  197.1310  168.9050  146.3600 C   0  0  0  0  0  0  0  0  0  0  0  0
  197.1750  168.4270  147.5240 O   0  0  0  0  0  1  0  0  0  0  0  0
  197.8090  168.2590  145.3330 O   0  0  0  0  0  0  0  0  0  0  0  0
  1 17  2  0  0  0  0
  1  5  1  0  0  0  0
  2 12  1  0  0  0  0
  3 15  1  0  0  0  0
  4  5  2  0  0  0  0
  4 21  1  0  0  0  0
  6 10  1  0  0  0  0
  6  8  2  0  0  0  0
  7  6  1  0  0  0  0
  8  4  1  0  0  0  0
  9  3  2  0  0  0  0
 10  9  1  6  0  0  0
 10  1  1  0  0  0  0
 11  7  2  0  0  0  0
 11  9  1  0  0  0  0
 12 13  2  0  0  0  0
 13 14  1  0  0  0  0
 13 18  1  0  0  0  0
 15  2  2  0  0  0  0
 15 17  1  0  0  0  0
 16 14  2  0  0  0  0
 17 16  1  0  0  0  0
 18 20  2  0  0  0  0
 18 19  1  0  0  0  0
 21 30  1  0  0  0  0
 22 26  1  0  0  0  0
 23 28  1  0  0  0  0
 24 32  1  0  0  0  0
 25 24  2  0  0  0  0
 26 25  1  0  0  0  0
 27 29  2  0  0  0  0
 28 26  2  0  0  0  0
 28 27  1  0  0  0  0
 29 24  1  0  0  0  0
 30 31  1  0  0  0  0
 30 23  2  0  0  0  0
 31 22  2  0  0  0  0
 32 33  1  0  0  0  0
 34 32  2  0  0  0  0
M  END
>  <MODEL>
6

>  <REMARK>
 VINA RESULT:      -8.3      4.141      5.854
  Name = 
  4 active torsions:
  status: ('A' for Active; 'I' for Inactive)
    1  A    between atoms: C_3  and  C_25
    2  A    between atoms: C_7  and  C_11
    3  A    between atoms: C_8  and  C_18
    4  A    between atoms: C_18  and  C_30
                            x       y       z     vdW  Elec       q    Type
                         _______ _______ _______ _____ _____    ______ ____

>  <TORSDO>
F 4

$$$$
=
 OpenBabel11052420143D

 34 39  0  0  0  0  0  0  0  0999 V2000
  191.5080  174.5980  145.4000 C   0  0  0  0  0  0  0  0  0  0  0  0
  193.4520  172.3590  143.0530 C   0  0  0  0  0  3  0  0  0  0  0  0
  194.1440  174.0980  144.4790 C   0  0  0  0  0  3  0  0  0  0  0  0
  190.2520  176.1700  147.0100 C   0  0  0  0  0  0  0  0  0  0  0  0
  190.1680  175.0080  146.0010 C   0  0  0  0  0  2  0  0  0  0  0  0
  192.6450  176.2960  146.7030 C   0  0  0  0  0  0  0  0  0  0  0  0
  193.9250  176.7150  146.8380 N   0  0  0  0  0  0  0  0  0  0  0  0
  191.4170  176.7780  147.3360 C   0  0  0  0  0  3  0  0  0  0  0  0
  193.8640  175.0850  145.4120 C   0  0  0  0  0  0  0  0  0  0  0  0
  192.6080  175.2900  145.8220 C   0  0  0  0  0  0  0  0  0  0  0  0
  194.6840  175.9600  146.0330 N   0  0  0  0  0  0  0  0  0  0  0  0
  192.7140  171.4210  142.3480 C   0  0  0  0  0  3  0  0  0  0  0  0
  191.3510  171.1610  142.3600 C   0  0  0  0  0  0  0  0  0  0  0  0
  190.4130  171.8380  143.1310 C   0  0  0  0  0  3  0  0  0  0  0  0
  193.0650  173.3190  143.9790 C   0  0  0  0  0  0  0  0  0  0  0  0
  190.5780  172.8790  144.0310 C   0  0  0  0  0  3  0  0  0  0  0  0
  191.7180  173.5670  144.4420 C   0  0  0  0  0  0  0  0  0  0  0  0
  190.8630  170.0800  141.4820 C   0  0  0  0  0  0  0  0  0  0  0  0
  190.7700  168.7760  141.9560 O   0  0  0  0  0  1  0  0  0  0  0  0
  190.5250  170.3220  140.2920 O   0  0  0  0  0  0  0  0  0  0  0  0
  188.9890  176.6680  147.6270 C   0  0  0  0  0  2  0  0  0  0  0  0
  185.6410  176.8760  145.8620 C   0  0  0  0  0  3  0  0  0  0  0  0
  188.3430  177.3990  145.3210 C   0  0  0  0  0  3  0  0  0  0  0  0
  185.4350  178.0500  142.3530 C   0  0  0  0  0  0  0  0  0  0  0  0
  185.0560  177.5710  143.6150 C   0  0  0  0  0  3  0  0  0  0  0  0
  186.0190  177.3540  144.6050 C   0  0  0  0  0  0  0  0  0  0  0  0
  187.7580  178.0930  143.0740 C   0  0  0  0  0  3  0  0  0  0  0  0
  187.3800  177.6180  144.3320 C   0  0  0  0  0  0  0  0  0  0  0  0
  186.7890  178.3090  142.0890 C   0  0  0  0  0  3  0  0  0  0  0  0
  187.9580  176.9250  146.5800 C   0  0  0  0  0  0  0  0  0  0  0  0
  186.6090  176.6600  146.8470 C   0  0  0  0  0  3  0  0  0  0  0  0
  184.4160  178.2770  141.3150 C   0  0  0  0  0  0  0  0  0  0  0  0
  184.7540  178.6540  140.1620 O   0  0  0  0  0  0  0  0  0  0  0  0
  183.0700  178.0760  141.5990 O   0  0  0  0  0  1  0  0  0  0  0  0
  1 10  2  0  0  0  0
  1  5  1  0  0  0  0
  2 15  1  0  0  0  0
  3  9  1  0  0  0  0
  4  8  2  0  0  0  0
  4 21  1  0  0  0  0
  5  4  1  0  0  0  0
  6  7  2  0  0  0  0
  6  8  1  0  0  0  0
  9 10  1  0  0  0  0
  9 11  2  0  0  0  0
 10  6  1  0  0  0  0
 11  7  1  0  0  0  0
 12 13  1  0  0  0  0
 12  2  2  0  0  0  0
 13 14  2  0  0  0  0
 14 16  1  0  0  0  0
 15 17  1  0  0  0  0
 15  3  2  0  0  0  0
 16 17  2  0  0  0  0
 17  1  1  0  0  0  0
 18 19  1  0  0  0  0
 18 13  1  0  0  0  0
 20 18  2  0  0  0  0
 22 31  1  0  0  0  0
 23 30  1  0  0  0  0
 24 25  2  0  0  0  0
 25 26  1  0  0  0  0
 26 22  2  0  0  0  0
 27 28  1  0  0  0  0
 28 26  1  0  0  0  0
 28 23  2  0  0  0  0
 29 24  1  0  0  0  0
 29 27  2  0  0  0  0
 30 31  2  0  0  0  0
 30 21  1  0  0  0  0
 32 34  1  0  0  0  0
 32 24  1  0  0  0  0
 33 32  2  0  0  0  0
M  END
>  <MODEL>
7

>  <REMARK>
 VINA RESULT:      -8.2      3.641      8.016
  Name = 
  4 active torsions:
  status: ('A' for Active; 'I' for Inactive)
    1  A    between atoms: C_3  and  C_25
    2  A    between atoms: C_7  and  C_11
    3  A    between atoms: C_8  and  C_18
    4  A    between atoms: C_18  and  C_30
                            x       y       z     vdW  Elec       q    Type
                         _______ _______ _______ _____ _____    ______ ____

>  <TORSDO>
F 4

$$$$
=
 OpenBabel11052420143D

 34 39  0  0  0  0  0  0  0  0999 V2000
  188.1930  177.3950  144.1310 C   0  0  0  0  0  0  0  0  0  0  0  0
  184.6060  178.4390  144.7170 C   0  0  0  0  0  3  0  0  0  0  0  0
  186.4240  178.2100  146.1940 C   0  0  0  0  0  3  0  0  0  0  0  0
  190.6490  176.6810  143.8150 C   0  0  0  0  0  0  0  0  0  0  0  0
  189.2780  176.9400  143.1610 C   0  0  0  0  0  3  0  0  0  0  0  0
  189.7610  177.2900  145.9770 C   0  0  0  0  0  0  0  0  0  0  0  0
  189.7030  177.5250  147.3090 N   0  0  0  0  0  2  0  0  0  0  0  0
  190.8740  176.8410  145.1410 C   0  0  0  0  0  3  0  0  0  0  0  0
  187.7540  177.9040  146.4410 C   0  0  0  0  0  0  0  0  0  0  0  0
  188.5560  177.5240  145.4430 C   0  0  0  0  0  0  0  0  0  0  0  0
  188.4520  177.9070  147.5980 N   0  0  0  0  0  0  0  0  0  0  0  0
  183.7850  178.4650  143.6010 C   0  0  0  0  0  3  0  0  0  0  0  0
  184.0650  178.1650  142.2760 C   0  0  0  0  0  0  0  0  0  0  0  0
  185.3020  177.7560  141.7920 C   0  0  0  0  0  3  0  0  0  0  0  0
  185.9480  178.1090  144.8580 C   0  0  0  0  0  0  0  0  0  0  0  0
  186.5010  177.5540  142.4570 C   0  0  0  0  0  3  0  0  0  0  0  0
  186.8420  177.6940  143.8000 C   0  0  0  0  0  0  0  0  0  0  0  0
  182.9580  178.2900  141.3080 C   0  0  0  0  0  0  0  0  0  0  0  0
  181.7210  178.7800  141.7130 O   0  0  0  0  0  1  0  0  0  0  0  0
  183.1170  177.9580  140.1030 O   0  0  0  0  0  0  0  0  0  0  0  0
  191.7670  176.1980  142.9540 C   0  0  0  0  0  2  0  0  0  0  0  0
  192.0850  172.5580  143.9620 C   0  0  0  0  0  3  0  0  0  0  0  0
  193.6040  174.9140  144.0710 C   0  0  0  0  0  3  0  0  0  0  0  0
  195.1530  171.3330  145.6430 C   0  0  0  0  0  0  0  0  0  0  0  0
  193.8760  171.3520  145.0630 C   0  0  0  0  0  3  0  0  0  0  0  0
  193.3580  172.5390  144.5390 C   0  0  0  0  0  0  0  0  0  0  0  0
  195.3940  173.7080  145.1730 C   0  0  0  0  0  3  0  0  0  0  0  0
  194.1230  173.7260  144.5930 C   0  0  0  0  0  0  0  0  0  0  0  0
  195.9060  172.5160  145.6940 C   0  0  0  0  0  3  0  0  0  0  0  0
  192.3310  174.9250  143.4900 C   0  0  0  0  0  0  0  0  0  0  0  0
  191.5720  173.7490  143.4410 C   0  0  0  0  0  3  0  0  0  0  0  0
  195.6930  170.0800  146.1930 C   0  0  0  0  0  0  0  0  0  0  0  0
  196.9160  169.9820  146.4760 O   0  0  0  0  0  1  0  0  0  0  0  0
  194.8560  168.9900  146.4060 O   0  0  0  0  0  0  0  0  0  0  0  0
  1 10  1  0  0  0  0
  2 15  1  0  0  0  0
  3  9  1  0  0  0  0
  4  8  2  0  0  0  0
  5  4  1  0  0  0  0
  5  1  2  0  0  0  0
  6  7  1  0  0  0  0
  7 11  1  0  0  0  0
  8  6  1  0  0  0  0
  9 11  2  0  0  0  0
 10  6  2  0  0  0  0
 10  9  1  0  0  0  0
 12  2  2  0  0  0  0
 13 12  1  0  0  0  0
 14 13  2  0  0  0  0
 14 16  1  0  0  0  0
 15  3  2  0  0  0  0
 16 17  2  0  0  0  0
 17  1  1  0  0  0  0
 17 15  1  0  0  0  0
 18 19  1  0  0  0  0
 18 13  1  0  0  0  0
 20 18  2  0  0  0  0
 21 30  1  0  0  0  0
 21  4  1  0  0  0  0
 22 26  1  0  0  0  0
 23 28  1  0  0  0  0
 24 29  1  0  0  0  0
 24 32  1  0  0  0  0
 25 24  2  0  0  0  0
 26 28  2  0  0  0  0
 26 25  1  0  0  0  0
 27 29  2  0  0  0  0
 28 27  1  0  0  0  0
 30 23  2  0  0  0  0
 31 30  1  0  0  0  0
 31 22  2  0  0  0  0
 32 34  2  0  0  0  0
 32 33  1  0  0  0  0
M  END
>  <MODEL>
8

>  <REMARK>
 VINA RESULT:      -8.2      2.769      4.064
  Name = 
  4 active torsions:
  status: ('A' for Active; 'I' for Inactive)
    1  A    between atoms: C_3  and  C_25
    2  A    between atoms: C_7  and  C_11
    3  A    between atoms: C_8  and  C_18
    4  A    between atoms: C_18  and  C_30
                            x       y       z     vdW  Elec       q    Type
                         _______ _______ _______ _____ _____    ______ ____

>  <TORSDO>
F 4

$$$$
=
 OpenBabel11052420143D

 34 39  0  0  0  0  0  0  0  0999 V2000
  190.2580  176.6540  144.4810 C   0  0  0  0  0  0  0  0  0  0  0  0
  193.1570  175.1490  146.3860 C   0  0  0  0  0  3  0  0  0  0  0  0
  190.8660  175.3030  146.9010 C   0  0  0  0  0  3  0  0  0  0  0  0
  188.2340  177.6690  143.2510 C   0  0  0  0  0  0  0  0  0  0  0  0
  189.7490  177.3870  143.2450 C   0  0  0  0  0  3  0  0  0  0  0  0
  188.0170  176.5950  145.4040 C   0  0  0  0  0  0  0  0  0  0  0  0
  187.4520  176.1220  146.5390 N   0  0  0  0  0  2  0  0  0  0  0  0
  187.4210  177.3010  144.2700 C   0  0  0  0  0  3  0  0  0  0  0  0
  189.5760  175.7000  146.5820 C   0  0  0  0  0  0  0  0  0  0  0  0
  189.3290  176.3330  145.4310 C   0  0  0  0  0  0  0  0  0  0  0  0
  188.4230  175.5640  147.2730 N   0  0  0  0  0  0  0  0  0  0  0  0
  194.4000  175.2350  145.7790 C   0  0  0  0  0  3  0  0  0  0  0  0
  194.7670  175.7940  144.5630 C   0  0  0  0  0  0  0  0  0  0  0  0
  193.8980  176.4110  143.6720 C   0  0  0  0  0  3  0  0  0  0  0  0
  191.9050  175.5890  145.9740 C   0  0  0  0  0  0  0  0  0  0  0  0
  192.5300  176.6170  143.7530 C   0  0  0  0  0  3  0  0  0  0  0  0
  191.6050  176.2770  144.7390 C   0  0  0  0  0  0  0  0  0  0  0  0
  196.1940  175.7250  144.1930 C   0  0  0  0  0  0  0  0  0  0  0  0
  196.9480  174.5980  144.5030 O   0  0  0  0  0  1  0  0  0  0  0  0
  196.7480  176.6850  143.5920 O   0  0  0  0  0  0  0  0  0  0  0  0
  187.6450  178.4130  142.1010 C   0  0  0  0  0  2  0  0  0  0  0  0
  184.2230  179.0490  143.6030 C   0  0  0  0  0  3  0  0  0  0  0  0
  185.3280  178.1390  141.1900 C   0  0  0  0  0  3  0  0  0  0  0  0
  181.1530  178.3750  141.6380 C   0  0  0  0  0  0  0  0  0  0  0  0
  181.9960  178.7510  142.6940 C   0  0  0  0  0  3  0  0  0  0  0  0
  183.3840  178.6750  142.5490 C   0  0  0  0  0  0  0  0  0  0  0  0
  183.1010  177.8400  140.2830 C   0  0  0  0  0  3  0  0  0  0  0  0
  183.9400  178.2170  141.3340 C   0  0  0  0  0  0  0  0  0  0  0  0
  181.7140  177.9200  140.4350 C   0  0  0  0  0  3  0  0  0  0  0  0
  186.1640  178.5200  142.2460 C   0  0  0  0  0  0  0  0  0  0  0  0
  185.6100  178.9690  143.4510 C   0  0  0  0  0  3  0  0  0  0  0  0
  179.6920  178.4570  141.7970 C   0  0  0  0  0  0  0  0  0  0  0  0
  179.1900  179.0280  142.8010 O   0  0  0  0  0  1  0  0  0  0  0  0
  178.8510  177.9040  140.8380 O   0  0  0  0  0  0  0  0  0  0  0  0
  1 17  1  0  0  0  0
  1 10  1  0  0  0  0
  4  8  2  0  0  0  0
  5  4  1  0  0  0  0
  5  1  2  0  0  0  0
  6 10  2  0  0  0  0
  6  7  1  0  0  0  0
  7 11  1  0  0  0  0
  8  6  1  0  0  0  0
  9  3  1  0  0  0  0
  9 11  2  0  0  0  0
 10  9  1  0  0  0  0
 12  2  2  0  0  0  0
 13 12  1  0  0  0  0
 14 16  1  0  0  0  0
 14 13  2  0  0  0  0
 15  2  1  0  0  0  0
 15  3  2  0  0  0  0
 16 17  2  0  0  0  0
 17 15  1  0  0  0  0
 18 19  1  0  0  0  0
 18 13  1  0  0  0  0
 20 18  2  0  0  0  0
 21 30  1  0  0  0  0
 21  4  1  0  0  0  0
 23 28  2  0  0  0  0
 23 30  1  0  0  0  0
 24 32  1  0  0  0  0
 24 25  2  0  0  0  0
 26 25  1  0  0  0  0
 26 22  2  0  0  0  0
 27 29  2  0  0  0  0
 27 28  1  0  0  0  0
 28 26  1  0  0  0  0
 29 24  1  0  0  0  0
 30 31  2  0  0  0  0
 31 22  1  0  0  0  0
 32 33  1  0  0  0  0
 34 32  2  0  0  0  0
M  END
>  <MODEL>
9

>  <REMARK>
 VINA RESULT:      -8.1      3.258      9.815
  Name = 
  4 active torsions:
  status: ('A' for Active; 'I' for Inactive)
    1  A    between atoms: C_3  and  C_25
    2  A    between atoms: C_7  and  C_11
    3  A    between atoms: C_8  and  C_18
    4  A    between atoms: C_18  and  C_30
                            x       y       z     vdW  Elec       q    Type
                         _______ _______ _______ _____ _____    ______ ____

>  <TORSDO>
F 4

$$$$
