=
 OpenBabel11052418483D

 34 39  0  0  1  0  0  0  0  0999 V2000
  191.5880  174.9400  145.4710 C   0  0  0  0  0  0  0  0  0  0  0  0
  189.6830  176.5850  145.9040 C   0  0  1  0  0  3  0  0  0  0  0  0
  186.9540  178.1860  144.3760 C   0  0  0  0  0  2  0  0  0  0  0  0
  189.9330  175.2800  143.7570 C   0  0  0  0  0  0  0  0  0  0  0  0
  188.1770  175.5250  142.0250 C   0  0  0  0  0  0  0  0  0  0  0  0
  191.1910  175.8400  147.7740 C   0  0  0  0  0  2  0  0  0  0  0  0
  190.4930  177.0280  147.1270 C   0  0  0  0  0  2  0  0  0  0  0  0
  185.1810  177.9160  141.5880 S   0  0  0  0  0  0  0  0  0  0  0  0
  184.2420  178.5140  146.3050 C   0  0  0  0  0  1  0  0  0  0  0  0
  186.6050  178.2300  145.7900 N   0  0  0  0  0  0  0  0  0  0  0  0
  185.5930  179.1980  146.2140 C   0  0  2  0  0  3  0  0  0  0  0  0
  190.4300  175.6030  145.0240 C   0  0  0  0  0  0  0  0  0  0  0  0
  186.3760  177.0490  143.7560 O   0  0  0  0  0  0  0  0  0  0  0  0
  187.0680  176.0570  141.6050 N   0  0  0  0  0  0  0  0  0  0  0  0
  192.2080  175.2580  146.8000 C   0  0  0  0  0  2  0  0  0  0  0  0
  186.7580  179.1480  148.3880 C   0  0  0  0  0  3  0  0  0  0  0  0
  190.5940  174.3350  142.9580 C   0  0  0  0  0  0  0  0  0  0  0  0
  187.3800  177.9130  148.0050 N   0  0  0  0  0  0  0  0  0  0  0  0
  192.2070  174.0530  144.6500 N   0  0  0  0  0  0  0  0  0  0  0  0
  188.0730  175.8820  146.4070 S   0  0  0  0  0  0  0  0  0  0  0  0
  188.9030  174.5620  141.1870 C   0  0  0  0  0  3  0  0  0  0  0  0
  190.0450  173.9820  141.6030 C   0  0  0  0  0  0  0  0  0  0  0  0
  186.2690  176.9760  142.3650 C   0  0  0  0  0  0  0  0  0  0  0  0
  188.7330  175.8880  143.2860 N   0  0  0  0  0  2  0  0  0  0  0  0
  191.7280  173.7590  143.4400 N   0  0  0  0  0  0  0  0  0  0  0  0
  187.3240  177.4720  146.7840 C   0  0  0  0  0  0  0  0  0  0  0  0
  185.9410  179.7910  147.5510 C   0  0  0  0  0  3  0  0  0  0  0  0
  192.3330  172.4920  138.8530 C   0  0  2  0  0  3  0  0  0  0  0  0
  192.2880  171.0980  139.3080 N   0  0  0  0  0  2  0  0  0  0  0  0
  190.7140  173.0130  140.6880 C   0  0  0  0  0  0  0  0  0  0  0  0
  190.9120  170.7300  139.6370 C   0  0  0  0  0  2  0  0  0  0  0  0
  191.6370  173.4250  139.8070 C   0  0  0  0  0  3  0  0  0  0  0  0
  190.4440  171.5330  140.8460 C   0  0  0  0  0  2  0  0  0  0  0  0
  191.7510  172.6250  137.4560 C   0  0  0  0  0  1  0  0  0  0  0  0
  1 15  1  0  0  0  0
  2 20  1  0  0  0  0
  2  7  1  1  0  0  0
  3 10  1  0  0  0  0
  4 12  2  0  0  0  0
  5 24  1  0  0  0  0
  7  6  1  0  0  0  0
  8 23  2  0  0  0  0
 10 11  1  0  0  0  0
 10 26  1  0  0  0  0
 11  9  1  1  0  0  0
 11 27  1  0  0  0  0
 12  1  1  0  0  0  0
 12  2  1  0  0  0  0
 13  3  1  0  0  0  0
 14  5  2  0  0  0  0
 14 23  1  0  0  0  0
 15  6  1  0  0  0  0
 17 25  2  0  0  0  0
 17  4  1  0  0  0  0
 18 16  1  0  0  0  0
 19  1  2  0  0  0  0
 20 26  1  0  0  0  0
 21 22  2  0  0  0  0
 21  5  1  0  0  0  0
 22 17  1  0  0  0  0
 23 13  1  0  0  0  0
 24  4  1  0  0  0  0
 25 19  1  0  0  0  0
 26 18  2  0  0  0  0
 27 16  2  0  0  0  0
 28 34  1  6  0  0  0
 28 29  1  0  0  0  0
 28 32  1  0  0  0  0
 29 31  1  0  0  0  0
 30 33  1  0  0  0  0
 30 22  1  0  0  0  0
 31 33  1  0  0  0  0
 32 30  2  0  0  0  0
M  END
>  <MODEL>
1

>  <REMARK>
 VINA RESULT:      -8.6      0.000      0.000
  Name = 
  1 active torsions:
  status: ('A' for Active; 'I' for Inactive)
    1  A    between atoms: C_12  and  C_28
                            x       y       z     vdW  Elec       q    Type
                         _______ _______ _______ _____ _____    ______ ____

>  <TORSDO>
F 1

$$$$
=
 OpenBabel11052418483D

 34 39  0  0  1  0  0  0  0  0999 V2000
  191.4150  176.3890  146.3200 C   0  0  0  0  0  0  0  0  0  0  0  0
  192.5580  174.7420  144.7380 C   0  0  1  0  0  3  0  0  0  0  0  0
  191.9920  172.6530  141.9690 C   0  0  0  0  0  2  0  0  0  0  0  0
  190.1940  175.5680  144.4150 C   0  0  0  0  0  0  0  0  0  0  0  0
  188.9590  174.8280  142.3970 C   0  0  0  0  0  0  0  0  0  0  0  0
  193.8800  175.9800  146.4830 C   0  0  0  0  0  2  0  0  0  0  0  0
  193.6410  174.6330  145.8160 C   0  0  0  0  0  2  0  0  0  0  0  0
  189.6480  172.1870  139.6710 S   0  0  0  0  0  0  0  0  0  0  0  0
  194.4820  172.5510  139.7390 C   0  0  0  0  0  1  0  0  0  0  0  0
  193.4280  172.8900  141.9090 N   0  0  0  0  0  0  0  0  0  0  0  0
  194.2390  171.9640  141.1170 C   0  0  2  0  0  3  0  0  0  0  0  0
  191.3640  175.5630  145.1820 C   0  0  0  0  0  0  0  0  0  0  0  0
  191.2990  173.5850  141.1540 O   0  0  0  0  0  0  0  0  0  0  0  0
  188.8980  174.1390  141.2970 N   0  0  0  0  0  0  0  0  0  0  0  0
  192.6170  176.4110  147.2190 C   0  0  0  0  0  2  0  0  0  0  0  0
  196.0610  172.5660  142.6680 C   0  0  0  0  0  3  0  0  0  0  0  0
  189.1040  176.3650  144.7940 C   0  0  0  0  0  0  0  0  0  0  0  0
  195.3210  173.7320  143.0560 N   0  0  0  0  0  0  0  0  0  0  0  0
  190.3230  177.1220  146.6610 N   0  0  0  0  0  0  0  0  0  0  0  0
  193.2460  175.4160  143.1860 S   0  0  0  0  0  0  0  0  0  0  0  0
  187.8140  175.6380  142.8310 C   0  0  0  0  0  3  0  0  0  0  0  0
  187.8550  176.3770  143.9560 C   0  0  0  0  0  0  0  0  0  0  0  0
  189.9760  173.3490  140.7720 C   0  0  0  0  0  0  0  0  0  0  0  0
  190.1190  174.7870  143.2250 N   0  0  0  0  0  2  0  0  0  0  0  0
  189.2100  177.1120  145.9260 N   0  0  0  0  0  0  0  0  0  0  0  0
  194.0780  173.8950  142.7140 C   0  0  0  0  0  0  0  0  0  0  0  0
  195.5600  171.7000  141.7840 C   0  0  0  0  0  3  0  0  0  0  0  0
  184.9780  178.9700  143.8250 C   0  0  2  0  0  3  0  0  0  0  0  0
  184.1030  178.3280  144.8120 N   0  0  0  0  0  2  0  0  0  0  0  0
  186.6460  177.1720  144.3190 C   0  0  0  0  0  0  0  0  0  0  0  0
  184.8890  177.9060  145.9700 C   0  0  0  0  0  2  0  0  0  0  0  0
  186.1850  178.1300  143.5030 C   0  0  0  0  0  3  0  0  0  0  0  0
  185.8580  176.8040  145.5560 C   0  0  0  0  0  2  0  0  0  0  0  0
  185.3990  180.3520  144.2940 C   0  0  0  0  0  1  0  0  0  0  0  0
  1 19  1  0  0  0  0
  1 15  1  0  0  0  0
  2 12  1  0  0  0  0
  2  7  1  1  0  0  0
  4 17  2  0  0  0  0
  4 12  1  0  0  0  0
  5 21  1  0  0  0  0
  5 24  1  0  0  0  0
  6 15  1  0  0  0  0
  7  6  1  0  0  0  0
  8 23  2  0  0  0  0
 10  3  1  0  0  0  0
 10 26  1  0  0  0  0
 11  9  1  6  0  0  0
 11 27  1  0  0  0  0
 11 10  1  0  0  0  0
 12  1  2  0  0  0  0
 13  3  1  0  0  0  0
 14  5  2  0  0  0  0
 16 18  1  0  0  0  0
 17 25  1  0  0  0  0
 20  2  1  0  0  0  0
 21 22  2  0  0  0  0
 22 30  1  0  0  0  0
 22 17  1  0  0  0  0
 23 13  1  0  0  0  0
 23 14  1  0  0  0  0
 24  4  1  0  0  0  0
 25 19  2  0  0  0  0
 26 18  2  0  0  0  0
 26 20  1  0  0  0  0
 27 16  2  0  0  0  0
 28 34  1  1  0  0  0
 28 29  1  0  0  0  0
 29 31  1  0  0  0  0
 30 33  1  0  0  0  0
 32 28  1  0  0  0  0
 32 30  2  0  0  0  0
 33 31  1  0  0  0  0
M  END
>  <MODEL>
2

>  <REMARK>
 VINA RESULT:      -8.5      3.014      7.757
  Name = 
  1 active torsions:
  status: ('A' for Active; 'I' for Inactive)
    1  A    between atoms: C_12  and  C_28
                            x       y       z     vdW  Elec       q    Type
                         _______ _______ _______ _____ _____    ______ ____

>  <TORSDO>
F 1

$$$$
=
 OpenBabel11052418483D

 34 39  0  0  1  0  0  0  0  0999 V2000
  188.9020  173.7810  141.4830 C   0  0  0  0  0  0  0  0  0  0  0  0
  191.3270  173.3550  142.1620 C   0  0  1  0  0  3  0  0  0  0  0  0
  193.9960  174.6800  144.0240 C   0  0  0  0  0  2  0  0  0  0  0  0
  189.9250  175.2270  143.1130 C   0  0  0  0  0  0  0  0  0  0  0  0
  190.9180  176.6550  144.8790 C   0  0  0  0  0  0  0  0  0  0  0  0
  190.0490  171.6570  140.8170 C   0  0  0  0  0  2  0  0  0  0  0  0
  191.3730  172.3920  140.9720 C   0  0  0  0  0  2  0  0  0  0  0  0
  194.4790  177.0290  146.3130 S   0  0  0  0  0  0  0  0  0  0  0  0
  195.8370  172.4210  145.6660 C   0  0  0  0  0  1  0  0  0  0  0  0
  194.3220  173.2620  143.9540 N   0  0  0  0  0  0  0  0  0  0  0  0
  195.7060  172.8660  144.2210 C   0  0  2  0  0  3  0  0  0  0  0  0
  190.0360  174.1460  142.2330 C   0  0  0  0  0  0  0  0  0  0  0  0
  193.2840  174.9680  145.2180 O   0  0  0  0  0  0  0  0  0  0  0  0
  191.9160  176.9770  145.6460 N   0  0  0  0  0  0  0  0  0  0  0  0
  188.9500  172.6590  140.4870 C   0  0  0  0  0  2  0  0  0  0  0  0
  195.2200  170.9480  142.7460 C   0  0  0  0  0  3  0  0  0  0  0  0
  188.7160  175.9310  143.2190 C   0  0  0  0  0  0  0  0  0  0  0  0
  193.8170  171.1880  142.9270 N   0  0  0  0  0  0  0  0  0  0  0  0
  187.7620  174.5110  141.6000 N   0  0  0  0  0  0  0  0  0  0  0  0
  191.6080  172.4660  143.7330 S   0  0  0  0  0  0  0  0  0  0  0  0
  189.6570  177.4050  144.9480 C   0  0  0  0  0  3  0  0  0  0  0  0
  188.5990  177.0830  144.1780 C   0  0  0  0  0  0  0  0  0  0  0  0
  193.1720  176.2810  145.6790 C   0  0  0  0  0  0  0  0  0  0  0  0
  191.0310  175.5970  143.9310 N   0  0  0  0  0  2  0  0  0  0  0  0
  187.6710  175.5460  142.4370 N   0  0  0  0  0  0  0  0  0  0  0  0
  193.3790  172.2770  143.4850 C   0  0  0  0  0  0  0  0  0  0  0  0
  196.1290  171.7430  143.3150 C   0  0  0  0  0  3  0  0  0  0  0  0
  185.5640  178.9380  145.7170 C   0  0  2  0  0  3  0  0  0  0  0  0
  185.2870  179.8200  144.5780 N   0  0  0  0  0  2  0  0  0  0  0  0
  187.3570  177.8970  144.3170 C   0  0  0  0  0  0  0  0  0  0  0  0
  185.3440  179.0540  143.3340 C   0  0  0  0  0  2  0  0  0  0  0  0
  186.8220  178.1340  145.5220 C   0  0  0  0  0  3  0  0  0  0  0  0
  186.7710  178.5710  143.0960 C   0  0  0  0  0  2  0  0  0  0  0  0
  184.3830  178.0230  145.9930 C   0  0  0  0  0  1  0  0  0  0  0  0
  1 19  2  0  0  0  0
  1 12  1  0  0  0  0
  2  7  1  6  0  0  0
  2 12  1  0  0  0  0
  2 20  1  0  0  0  0
  3 13  1  0  0  0  0
  4 17  1  0  0  0  0
  4 24  1  0  0  0  0
  5 21  1  0  0  0  0
  5 14  2  0  0  0  0
  6  7  1  0  0  0  0
 10  3  1  0  0  0  0
 10 11  1  0  0  0  0
 11  9  1  1  0  0  0
 12  4  2  0  0  0  0
 13 23  1  0  0  0  0
 14 23  1  0  0  0  0
 15  6  1  0  0  0  0
 15  1  1  0  0  0  0
 16 18  1  0  0  0  0
 16 27  2  0  0  0  0
 17 22  1  0  0  0  0
 18 26  2  0  0  0  0
 19 25  1  0  0  0  0
 22 30  1  0  0  0  0
 22 21  2  0  0  0  0
 23  8  2  0  0  0  0
 24  5  1  0  0  0  0
 25 17  2  0  0  0  0
 26 20  1  0  0  0  0
 26 10  1  0  0  0  0
 27 11  1  0  0  0  0
 28 34  1  6  0  0  0
 29 28  1  0  0  0  0
 30 32  2  0  0  0  0
 31 29  1  0  0  0  0
 32 28  1  0  0  0  0
 33 31  1  0  0  0  0
 33 30  1  0  0  0  0
M  END
>  <MODEL>
3

>  <REMARK>
 VINA RESULT:      -8.5      3.083      8.446
  Name = 
  1 active torsions:
  status: ('A' for Active; 'I' for Inactive)
    1  A    between atoms: C_12  and  C_28
                            x       y       z     vdW  Elec       q    Type
                         _______ _______ _______ _____ _____    ______ ____

>  <TORSDO>
F 1

$$$$
=
 OpenBabel11052418483D

 34 39  0  0  1  0  0  0  0  0999 V2000
  191.4040  176.1730  146.0380 C   0  0  0  0  0  0  0  0  0  0  0  0
  192.1870  174.4270  144.3460 C   0  0  1  0  0  3  0  0  0  0  0  0
  191.1720  172.6040  141.5180 C   0  0  0  0  0  2  0  0  0  0  0  0
  189.9970  175.6700  144.1500 C   0  0  0  0  0  0  0  0  0  0  0  0
  188.5880  175.2550  142.1540 C   0  0  0  0  0  0  0  0  0  0  0  0
  193.7610  175.3300  146.0870 C   0  0  0  0  0  2  0  0  0  0  0  0
  193.2670  174.0790  145.3740 C   0  0  0  0  0  2  0  0  0  0  0  0
  188.7120  172.6660  139.2970 S   0  0  0  0  0  0  0  0  0  0  0  0
  193.5330  172.1720  139.1890 C   0  0  0  0  0  1  0  0  0  0  0  0
  192.6250  172.5880  141.4110 N   0  0  0  0  0  0  0  0  0  0  0  0
  193.2340  171.5720  140.5500 C   0  0  2  0  0  3  0  0  0  0  0  0
  191.1710  175.4230  144.8700 C   0  0  0  0  0  0  0  0  0  0  0  0
  190.6300  173.6800  140.7700 O   0  0  0  0  0  0  0  0  0  0  0  0
  188.3710  174.6390  141.0300 N   0  0  0  0  0  0  0  0  0  0  0  0
  192.6180  175.9410  146.8880 C   0  0  0  0  0  2  0  0  0  0  0  0
  195.1820  171.7710  142.0520 C   0  0  0  0  0  3  0  0  0  0  0  0
  189.0770  176.6270  144.6040 C   0  0  0  0  0  0  0  0  0  0  0  0
  194.6720  173.0290  142.5160 N   0  0  0  0  0  0  0  0  0  0  0  0
  190.4700  177.0690  146.4510 N   0  0  0  0  0  0  0  0  0  0  0  0
  192.9330  175.0430  142.7970 S   0  0  0  0  0  0  0  0  0  0  0  0
  187.6180  176.2320  142.6650 C   0  0  0  0  0  3  0  0  0  0  0  0
  187.8250  176.8970  143.8180 C   0  0  0  0  0  0  0  0  0  0  0  0
  189.2750  173.6990  140.4310 C   0  0  0  0  0  0  0  0  0  0  0  0
  189.7470  174.9720  142.9330 N   0  0  0  0  0  2  0  0  0  0  0  0
  189.3500  177.2900  145.7600 N   0  0  0  0  0  0  0  0  0  0  0  0
  193.4670  173.4230  142.2300 C   0  0  0  0  0  0  0  0  0  0  0  0
  194.5080  171.0500  141.1540 C   0  0  0  0  0  3  0  0  0  0  0  0
  185.4990  179.0370  146.0610 C   0  0  2  0  0  3  0  0  0  0  0  0
  185.1630  180.0570  145.0620 N   0  0  0  0  0  2  0  0  0  0  0  0
  186.7880  177.8750  144.2600 C   0  0  0  0  0  0  0  0  0  0  0  0
  184.8500  179.4160  143.7870 C   0  0  0  0  0  2  0  0  0  0  0  0
  186.5420  178.0720  145.5620 C   0  0  0  0  0  3  0  0  0  0  0  0
  186.1020  178.7460  143.2300 C   0  0  0  0  0  2  0  0  0  0  0  0
  184.2550  178.2910  146.5130 C   0  0  0  0  0  1  0  0  0  0  0  0
  1 19  1  0  0  0  0
  1 15  1  0  0  0  0
  2 12  1  0  0  0  0
  2  7  1  1  0  0  0
  4 17  2  0  0  0  0
  4 12  1  0  0  0  0
  5 21  1  0  0  0  0
  5 24  1  0  0  0  0
  6 15  1  0  0  0  0
  7  6  1  0  0  0  0
  8 23  2  0  0  0  0
 10  3  1  0  0  0  0
 10 26  1  0  0  0  0
 11  9  1  6  0  0  0
 11 27  1  0  0  0  0
 11 10  1  0  0  0  0
 12  1  2  0  0  0  0
 13  3  1  0  0  0  0
 14  5  2  0  0  0  0
 16 18  1  0  0  0  0
 17 25  1  0  0  0  0
 20  2  1  0  0  0  0
 21 22  2  0  0  0  0
 22 30  1  0  0  0  0
 22 17  1  0  0  0  0
 23 13  1  0  0  0  0
 23 14  1  0  0  0  0
 24  4  1  0  0  0  0
 25 19  2  0  0  0  0
 26 18  2  0  0  0  0
 26 20  1  0  0  0  0
 27 16  2  0  0  0  0
 28 34  1  6  0  0  0
 29 28  1  0  0  0  0
 30 32  2  0  0  0  0
 31 29  1  0  0  0  0
 32 28  1  0  0  0  0
 33 31  1  0  0  0  0
 33 30  1  0  0  0  0
M  END
>  <MODEL>
4

>  <REMARK>
 VINA RESULT:      -8.2      2.700      7.847
  Name = 
  1 active torsions:
  status: ('A' for Active; 'I' for Inactive)
    1  A    between atoms: C_12  and  C_28
                            x       y       z     vdW  Elec       q    Type
                         _______ _______ _______ _____ _____    ______ ____

>  <TORSDO>
F 1

$$$$
=
 OpenBabel11052418483D

 34 39  0  0  1  0  0  0  0  0999 V2000
  189.0610  173.7290  141.3950 C   0  0  0  0  0  0  0  0  0  0  0  0
  191.6130  173.8030  141.4690 C   0  0  1  0  0  3  0  0  0  0  0  0
  194.3320  175.4060  143.0140 C   0  0  0  0  0  2  0  0  0  0  0  0
  190.1370  175.0810  143.0710 C   0  0  0  0  0  0  0  0  0  0  0  0
  191.2220  176.3860  144.8780 C   0  0  0  0  0  0  0  0  0  0  0  0
  190.4150  172.0990  140.0600 C   0  0  0  0  0  2  0  0  0  0  0  0
  191.5610  173.1000  140.1090 C   0  0  0  0  0  2  0  0  0  0  0  0
  194.8750  177.3750  145.6260 S   0  0  0  0  0  0  0  0  0  0  0  0
  196.9330  173.4240  143.7150 C   0  0  0  0  0  1  0  0  0  0  0  0
  194.9100  174.1460  142.5670 N   0  0  0  0  0  0  0  0  0  0  0  0
  196.3670  174.0630  142.4610 C   0  0  2  0  0  3  0  0  0  0  0  0
  190.2460  174.2280  141.9680 C   0  0  0  0  0  0  0  0  0  0  0  0
  193.8890  175.3010  144.3580 O   0  0  0  0  0  0  0  0  0  0  0  0
  192.2910  176.8080  145.4830 N   0  0  0  0  0  0  0  0  0  0  0  0
  189.0900  172.8410  140.1850 C   0  0  0  0  0  2  0  0  0  0  0  0
  195.9340  172.3660  140.7220 C   0  0  0  0  0  3  0  0  0  0  0  0
  188.8740  175.4380  143.5670 C   0  0  0  0  0  0  0  0  0  0  0  0
  194.5990  172.2190  141.2260 N   0  0  0  0  0  0  0  0  0  0  0  0
  187.8620  174.1250  141.8940 N   0  0  0  0  0  0  0  0  0  0  0  0
  192.4410  172.7560  142.7150 S   0  0  0  0  0  0  0  0  0  0  0  0
  189.8910  176.7790  145.3590 C   0  0  0  0  0  3  0  0  0  0  0  0
  188.7650  176.3440  144.7620 C   0  0  0  0  0  0  0  0  0  0  0  0
  193.6310  176.4480  145.1120 C   0  0  0  0  0  0  0  0  0  0  0  0
  191.3120  175.5670  143.7150 N   0  0  0  0  0  2  0  0  0  0  0  0
  187.7710  174.9460  142.9420 N   0  0  0  0  0  0  0  0  0  0  0  0
  194.0990  173.0540  142.0870 C   0  0  0  0  0  0  0  0  0  0  0  0
  196.7740  173.2510  141.2630 C   0  0  0  0  0  3  0  0  0  0  0  0
  185.2150  177.8700  145.0550 C   0  0  2  0  0  3  0  0  0  0  0  0
  184.8240  177.1960  146.2980 N   0  0  0  0  0  2  0  0  0  0  0  0
  187.4560  176.7910  145.3200 C   0  0  0  0  0  0  0  0  0  0  0  0
  185.9200  177.2620  147.2630 C   0  0  0  0  0  2  0  0  0  0  0  0
  186.5460  177.3890  144.5400 C   0  0  0  0  0  3  0  0  0  0  0  0
  187.1030  176.4460  146.7500 C   0  0  0  0  0  2  0  0  0  0  0  0
  185.2280  179.3780  145.2390 C   0  0  0  0  0  1  0  0  0  0  0  0
  1 19  2  0  0  0  0
  1 12  1  0  0  0  0
  2  7  1  6  0  0  0
  2 12  1  0  0  0  0
  2 20  1  0  0  0  0
  3 13  1  0  0  0  0
  4 17  1  0  0  0  0
  4 24  1  0  0  0  0
  5 21  1  0  0  0  0
  5 14  2  0  0  0  0
  6  7  1  0  0  0  0
  6 15  1  0  0  0  0
 10  3  1  0  0  0  0
 11 10  1  0  0  0  0
 11  9  1  1  0  0  0
 12  4  2  0  0  0  0
 13 23  1  0  0  0  0
 15  1  1  0  0  0  0
 16 18  1  0  0  0  0
 16 27  2  0  0  0  0
 17 22  1  0  0  0  0
 18 26  2  0  0  0  0
 19 25  1  0  0  0  0
 22 30  1  0  0  0  0
 22 21  2  0  0  0  0
 23 14  1  0  0  0  0
 23  8  2  0  0  0  0
 24  5  1  0  0  0  0
 25 17  2  0  0  0  0
 26 10  1  0  0  0  0
 26 20  1  0  0  0  0
 27 11  1  0  0  0  0
 28 34  1  1  0  0  0
 28 29  1  0  0  0  0
 29 31  1  0  0  0  0
 30 33  1  0  0  0  0
 32 28  1  0  0  0  0
 32 30  2  0  0  0  0
 33 31  1  0  0  0  0
M  END
>  <MODEL>
5

>  <REMARK>
 VINA RESULT:      -8.0      3.239      8.626
  Name = 
  1 active torsions:
  status: ('A' for Active; 'I' for Inactive)
    1  A    between atoms: C_12  and  C_28
                            x       y       z     vdW  Elec       q    Type
                         _______ _______ _______ _____ _____    ______ ____

>  <TORSDO>
F 1

$$$$
=
 OpenBabel11052418483D

 34 39  0  0  1  0  0  0  0  0999 V2000
  190.5920  173.5420  141.6100 C   0  0  0  0  0  0  0  0  0  0  0  0
  188.6560  175.0010  142.4140 C   0  0  1  0  0  3  0  0  0  0  0  0
  187.4930  176.8610  145.1590 C   0  0  0  0  0  2  0  0  0  0  0  0
  190.7910  174.6790  143.7230 C   0  0  0  0  0  0  0  0  0  0  0  0
  191.0670  175.9320  145.8430 C   0  0  0  0  0  0  0  0  0  0  0  0
  188.7250  174.1390  140.0520 C   0  0  0  0  0  2  0  0  0  0  0  0
  187.8510  174.3610  141.2790 C   0  0  0  0  0  2  0  0  0  0  0  0
  188.6860  178.0550  148.0120 S   0  0  0  0  0  0  0  0  0  0  0  0
  185.9440  179.7210  144.3780 C   0  0  0  0  0  1  0  0  0  0  0  0
  186.7810  177.4590  144.0370 N   0  0  0  0  0  0  0  0  0  0  0  0
  185.5840  178.2480  144.3310 C   0  0  2  0  0  3  0  0  0  0  0  0
  190.0250  174.3760  142.5920 C   0  0  0  0  0  0  0  0  0  0  0  0
  188.6850  177.5810  145.4330 O   0  0  0  0  0  0  0  0  0  0  0  0
  190.6120  176.7590  146.7370 N   0  0  0  0  0  0  0  0  0  0  0  0
  189.8220  173.1360  140.3880 C   0  0  0  0  0  2  0  0  0  0  0  0
  184.8520  177.5890  142.0680 C   0  0  0  0  0  3  0  0  0  0  0  0
  192.0790  174.1420  143.8690 C   0  0  0  0  0  0  0  0  0  0  0  0
  186.2080  177.2480  141.7490 N   0  0  0  0  0  0  0  0  0  0  0  0
  191.8320  173.0250  141.8100 N   0  0  0  0  0  0  0  0  0  0  0  0
  188.8130  176.8040  142.1690 S   0  0  0  0  0  0  0  0  0  0  0  0
  192.3980  175.3300  145.9980 C   0  0  0  0  0  3  0  0  0  0  0  0
  192.9030  174.4840  145.0790 C   0  0  0  0  0  0  0  0  0  0  0  0
  189.3430  177.4260  146.6550 C   0  0  0  0  0  0  0  0  0  0  0  0
  190.2770  175.5620  144.7160 N   0  0  0  0  0  2  0  0  0  0  0  0
  192.5500  173.3150  142.8970 N   0  0  0  0  0  0  0  0  0  0  0  0
  187.1260  177.1730  142.6660 C   0  0  0  0  0  0  0  0  0  0  0  0
  184.5260  178.0290  143.2860 C   0  0  0  0  0  3  0  0  0  0  0  0
  196.7320  174.2110  145.6160 C   0  0  2  0  0  3  0  0  0  0  0  0
  196.7390  172.8770  146.2260 N   0  0  0  0  0  2  0  0  0  0  0  0
  194.2650  173.9230  145.3160 C   0  0  0  0  0  0  0  0  0  0  0  0
  195.8650  171.9820  145.4700 C   0  0  0  0  0  2  0  0  0  0  0  0
  195.3350  174.7260  145.3910 C   0  0  0  0  0  3  0  0  0  0  0  0
  194.4190  172.4460  145.6040 C   0  0  0  0  0  2  0  0  0  0  0  0
  197.5170  174.2160  144.3150 C   0  0  0  0  0  1  0  0  0  0  0  0
  1 19  2  0  0  0  0
  1 12  1  0  0  0  0
  2  7  1  6  0  0  0
  2 12  1  0  0  0  0
  3 13  1  0  0  0  0
  4 17  1  0  0  0  0
  4 24  1  0  0  0  0
  5 21  1  0  0  0  0
  5 14  2  0  0  0  0
  6 15  1  0  0  0  0
  6  7  1  0  0  0  0
 10 11  1  0  0  0  0
 10  3  1  0  0  0  0
 11  9  1  6  0  0  0
 12  4  2  0  0  0  0
 13 23  1  0  0  0  0
 15  1  1  0  0  0  0
 16 27  2  0  0  0  0
 17 22  1  0  0  0  0
 18 16  1  0  0  0  0
 18 26  2  0  0  0  0
 19 25  1  0  0  0  0
 20  2  1  0  0  0  0
 20 26  1  0  0  0  0
 22 30  1  0  0  0  0
 22 21  2  0  0  0  0
 23 14  1  0  0  0  0
 23  8  2  0  0  0  0
 24  5  1  0  0  0  0
 25 17  2  0  0  0  0
 26 10  1  0  0  0  0
 27 11  1  0  0  0  0
 28 34  1  6  0  0  0
 28 29  1  0  0  0  0
 30 32  2  0  0  0  0
 30 33  1  0  0  0  0
 31 33  1  0  0  0  0
 31 29  1  0  0  0  0
 32 28  1  0  0  0  0
M  END
>  <MODEL>
6

>  <REMARK>
 VINA RESULT:      -7.8      2.617      5.438
  Name = 
  1 active torsions:
  status: ('A' for Active; 'I' for Inactive)
    1  A    between atoms: C_12  and  C_28
                            x       y       z     vdW  Elec       q    Type
                         _______ _______ _______ _____ _____    ______ ____

>  <TORSDO>
F 1

$$$$
=
 OpenBabel11052418483D

 34 39  0  0  1  0  0  0  0  0999 V2000
  191.2920  175.1700  145.6020 C   0  0  0  0  0  0  0  0  0  0  0  0
  189.3910  176.7270  144.9060 C   0  0  1  0  0  3  0  0  0  0  0  0
  187.4040  177.6840  142.1700 C   0  0  0  0  0  2  0  0  0  0  0  0
  190.3500  174.9420  143.3990 C   0  0  0  0  0  0  0  0  0  0  0  0
  189.3170  174.6100  141.1700 C   0  0  0  0  0  0  0  0  0  0  0  0
  190.1320  176.5930  147.3060 C   0  0  0  0  0  2  0  0  0  0  0  0
  189.7310  177.5230  146.1690 C   0  0  0  0  0  2  0  0  0  0  0  0
  186.7150  176.5850  139.1190 S   0  0  0  0  0  0  0  0  0  0  0  0
  184.1950  178.2900  142.8930 C   0  0  0  0  0  1  0  0  0  0  0  0
  186.5830  178.0590  143.3140 N   0  0  0  0  0  0  0  0  0  0  0  0
  185.5070  179.0260  143.0930 C   0  0  2  0  0  3  0  0  0  0  0  0
  190.3780  175.6110  144.6270 C   0  0  0  0  0  0  0  0  0  0  0  0
  187.0560  176.3870  141.7110 O   0  0  0  0  0  0  0  0  0  0  0  0
  188.4370  174.9360  140.2710 N   0  0  0  0  0  0  0  0  0  0  0  0
  191.4140  175.8600  146.9290 C   0  0  0  0  0  2  0  0  0  0  0  0
  185.8360  179.6140  145.4670 C   0  0  0  0  0  3  0  0  0  0  0  0
  191.2290  173.8760  143.1540 C   0  0  0  0  0  0  0  0  0  0  0  0
  186.5260  178.3720  145.6600 N   0  0  0  0  0  0  0  0  0  0  0  0
  192.1410  174.1520  145.3070 N   0  0  0  0  0  0  0  0  0  0  0  0
  187.6930  176.0580  144.9920 S   0  0  0  0  0  0  0  0  0  0  0  0
  190.2710  173.5220  140.9170 C   0  0  0  0  0  3  0  0  0  0  0  0
  191.1820  173.1520  141.8370 C   0  0  0  0  0  0  0  0  0  0  0  0
  187.4410  175.9560  140.4400 C   0  0  0  0  0  0  0  0  0  0  0  0
  189.4040  175.3210  142.4030 N   0  0  0  0  0  2  0  0  0  0  0  0
  192.1100  173.5270  144.1290 N   0  0  0  0  0  0  0  0  0  0  0  0
  186.8920  177.6320  144.6570 C   0  0  0  0  0  0  0  0  0  0  0  0
  185.3780  179.9620  144.2630 C   0  0  0  0  0  3  0  0  0  0  0  0
  192.6040  169.5930  141.2580 C   0  0  2  0  0  3  0  0  0  0  0  0
  193.7300  169.9800  140.4000 N   0  0  0  0  0  2  0  0  0  0  0  0
  192.1090  172.0340  141.4960 C   0  0  0  0  0  0  0  0  0  0  0  0
  194.4070  171.1440  140.9680 C   0  0  0  0  0  2  0  0  0  0  0  0
  191.7060  170.7590  141.5790 C   0  0  0  0  0  3  0  0  0  0  0  0
  193.4750  172.3490  140.9260 C   0  0  0  0  0  2  0  0  0  0  0  0
  193.0980  168.9340  142.5350 C   0  0  0  0  0  1  0  0  0  0  0  0
  1 15  1  0  0  0  0
  2 20  1  0  0  0  0
  2  7  1  1  0  0  0
  3 10  1  0  0  0  0
  4 12  1  0  0  0  0
  5 24  1  0  0  0  0
  7  6  1  0  0  0  0
  8 23  2  0  0  0  0
 10 26  1  0  0  0  0
 11  9  1  1  0  0  0
 11 10  1  0  0  0  0
 11 27  1  0  0  0  0
 12  2  1  0  0  0  0
 12  1  2  0  0  0  0
 13  3  1  0  0  0  0
 14 23  1  0  0  0  0
 14  5  2  0  0  0  0
 15  6  1  0  0  0  0
 16 18  1  0  0  0  0
 17  4  2  0  0  0  0
 17 25  1  0  0  0  0
 19  1  1  0  0  0  0
 21  5  1  0  0  0  0
 21 22  2  0  0  0  0
 22 17  1  0  0  0  0
 23 13  1  0  0  0  0
 24  4  1  0  0  0  0
 25 19  2  0  0  0  0
 26 20  1  0  0  0  0
 26 18  2  0  0  0  0
 27 16  2  0  0  0  0
 28 32  1  0  0  0  0
 28 34  1  1  0  0  0
 29 31  1  0  0  0  0
 29 28  1  0  0  0  0
 30 32  2  0  0  0  0
 30 22  1  0  0  0  0
 33 31  1  0  0  0  0
 33 30  1  0  0  0  0
M  END
>  <MODEL>
7

>  <REMARK>
 VINA RESULT:      -7.3      1.794      2.479
  Name = 
  1 active torsions:
  status: ('A' for Active; 'I' for Inactive)
    1  A    between atoms: C_12  and  C_28
                            x       y       z     vdW  Elec       q    Type
                         _______ _______ _______ _____ _____    ______ ____

>  <TORSDO>
F 1

$$$$
=
 OpenBabel11052418483D

 34 39  0  0  1  0  0  0  0  0999 V2000
  190.2340  174.8280  141.9240 C   0  0  0  0  0  0  0  0  0  0  0  0
  188.7880  175.7020  143.8400 C   0  0  1  0  0  3  0  0  0  0  0  0
  188.8970  176.7240  147.2000 C   0  0  0  0  0  2  0  0  0  0  0  0
  191.3050  175.5390  143.9590 C   0  0  0  0  0  0  0  0  0  0  0  0
  192.4390  176.3760  145.9990 C   0  0  0  0  0  0  0  0  0  0  0  0
  187.8160  175.3560  141.5460 C   0  0  0  0  0  2  0  0  0  0  0  0
  187.5990  175.1600  143.0400 C   0  0  0  0  0  2  0  0  0  0  0  0
  191.1850  177.5330  149.4590 S   0  0  0  0  0  0  0  0  0  0  0  0
  186.9450  179.3340  147.9510 C   0  0  0  0  0  1  0  0  0  0  0  0
  187.7010  177.3870  146.6980 N   0  0  0  0  0  0  0  0  0  0  0  0
  186.7210  177.8590  147.6780 C   0  0  2  0  0  3  0  0  0  0  0  0
  190.1270  175.3270  143.2360 C   0  0  0  0  0  0  0  0  0  0  0  0
  190.0190  177.5880  147.1100 O   0  0  0  0  0  0  0  0  0  0  0  0
  192.3890  176.9060  147.1840 N   0  0  0  0  0  0  0  0  0  0  0  0
  189.0170  174.5340  141.0970 C   0  0  0  0  0  2  0  0  0  0  0  0
  185.0720  177.5360  145.8700 C   0  0  0  0  0  3  0  0  0  0  0  0
  192.5500  175.2400  143.3860 C   0  0  0  0  0  0  0  0  0  0  0  0
  186.1450  177.5290  144.9180 N   0  0  0  0  0  0  0  0  0  0  0  0
  191.4610  174.5280  141.4240 N   0  0  0  0  0  0  0  0  0  0  0  0
  188.6720  177.5150  144.0360 S   0  0  0  0  0  0  0  0  0  0  0  0
  193.7310  176.0190  145.3980 C   0  0  0  0  0  3  0  0  0  0  0  0
  193.8130  175.4850  144.1640 C   0  0  0  0  0  0  0  0  0  0  0  0
  191.1810  177.3220  147.8380 C   0  0  0  0  0  0  0  0  0  0  0  0
  191.2460  176.0930  145.2710 N   0  0  0  0  0  2  0  0  0  0  0  0
  192.5770  174.7270  142.1270 N   0  0  0  0  0  0  0  0  0  0  0  0
  187.3870  177.4500  145.2920 C   0  0  0  0  0  0  0  0  0  0  0  0
  185.3180  177.6540  147.1760 C   0  0  0  0  0  3  0  0  0  0  0  0
  196.9840  173.5130  143.1240 C   0  0  2  0  0  3  0  0  0  0  0  0
  197.5270  174.5090  142.1940 N   0  0  0  0  0  2  0  0  0  0  0  0
  195.1680  175.1570  143.6310 C   0  0  0  0  0  0  0  0  0  0  0  0
  197.4440  175.8400  142.7930 C   0  0  0  0  0  2  0  0  0  0  0  0
  195.6210  173.8960  143.6390 C   0  0  0  0  0  3  0  0  0  0  0  0
  195.9820  176.2390  142.9550 C   0  0  0  0  0  2  0  0  0  0  0  0
  197.9410  173.2720  144.2790 C   0  0  0  0  0  1  0  0  0  0  0  0
  1 12  1  0  0  0  0
  2  7  1  6  0  0  0
  2 20  1  0  0  0  0
  4 24  1  0  0  0  0
  5 14  2  0  0  0  0
  6  7  1  0  0  0  0
 10  3  1  0  0  0  0
 10 11  1  0  0  0  0
 11  9  1  6  0  0  0
 12  2  1  0  0  0  0
 12  4  2  0  0  0  0
 13  3  1  0  0  0  0
 13 23  1  0  0  0  0
 14 23  1  0  0  0  0
 15  6  1  0  0  0  0
 15  1  1  0  0  0  0
 16 27  2  0  0  0  0
 17  4  1  0  0  0  0
 17 22  1  0  0  0  0
 18 26  2  0  0  0  0
 18 16  1  0  0  0  0
 19  1  2  0  0  0  0
 19 25  1  0  0  0  0
 20 26  1  0  0  0  0
 21  5  1  0  0  0  0
 22 21  2  0  0  0  0
 23  8  2  0  0  0  0
 24  5  1  0  0  0  0
 25 17  2  0  0  0  0
 26 10  1  0  0  0  0
 27 11  1  0  0  0  0
 28 32  1  0  0  0  0
 28 34  1  1  0  0  0
 29 31  1  0  0  0  0
 29 28  1  0  0  0  0
 30 32  2  0  0  0  0
 30 22  1  0  0  0  0
 31 33  1  0  0  0  0
 33 30  1  0  0  0  0
M  END
>  <MODEL>
8

>  <REMARK>
 VINA RESULT:      -7.3      3.180      5.316
  Name = 
  1 active torsions:
  status: ('A' for Active; 'I' for Inactive)
    1  A    between atoms: C_12  and  C_28
                            x       y       z     vdW  Elec       q    Type
                         _______ _______ _______ _____ _____    ______ ____

>  <TORSDO>
F 1

$$$$
=
 OpenBabel11052418483D

 34 39  0  0  1  0  0  0  0  0999 V2000
  193.2630  172.3870  142.9450 C   0  0  0  0  0  0  0  0  0  0  0  0
  191.9570  174.2210  144.1500 C   0  0  1  0  0  3  0  0  0  0  0  0
  189.3240  176.5150  143.7560 C   0  0  0  0  0  2  0  0  0  0  0  0
  191.3100  173.3120  141.8850 C   0  0  0  0  0  0  0  0  0  0  0  0
  189.2370  174.1660  140.8270 C   0  0  0  0  0  0  0  0  0  0  0  0
  193.7270  172.9000  145.3520 C   0  0  0  0  0  2  0  0  0  0  0  0
  193.1510  174.2880  145.1060 C   0  0  0  0  0  2  0  0  0  0  0  0
  186.8300  177.0670  141.6430 S   0  0  0  0  0  0  0  0  0  0  0  0
  187.3950  176.9360  146.4550 C   0  0  0  0  0  1  0  0  0  0  0  0
  189.4010  176.3560  145.2020 N   0  0  0  0  0  0  0  0  0  0  0  0
  188.7820  177.3860  146.0360 C   0  0  2  0  0  3  0  0  0  0  0  0
  192.1980  173.3070  142.9650 C   0  0  0  0  0  0  0  0  0  0  0  0
  188.3640  175.6270  143.2070 O   0  0  0  0  0  0  0  0  0  0  0  0
  188.1980  174.9460  140.8410 N   0  0  0  0  0  0  0  0  0  0  0  0
  194.2820  172.3450  144.0460 C   0  0  0  0  0  2  0  0  0  0  0  0
  190.4670  176.7400  147.7180 C   0  0  0  0  0  3  0  0  0  0  0  0
  191.5010  172.4330  140.8090 C   0  0  0  0  0  0  0  0  0  0  0  0
  190.6750  175.5090  147.0100 N   0  0  0  0  0  0  0  0  0  0  0  0
  193.4210  171.5750  141.8680 N   0  0  0  0  0  0  0  0  0  0  0  0
  190.4390  173.7210  145.0340 S   0  0  0  0  0  0  0  0  0  0  0  0
  189.4750  173.2650  139.6910 C   0  0  0  0  0  3  0  0  0  0  0  0
  190.5340  172.4340  139.6580 C   0  0  0  0  0  0  0  0  0  0  0  0
  187.8600  175.8300  141.9210 C   0  0  0  0  0  0  0  0  0  0  0  0
  190.1880  174.1900  141.8890 N   0  0  0  0  0  2  0  0  0  0  0  0
  192.5720  171.5950  140.8400 N   0  0  0  0  0  0  0  0  0  0  0  0
  190.1870  175.3170  145.8210 C   0  0  0  0  0  0  0  0  0  0  0  0
  189.6090  177.6540  147.2630 C   0  0  0  0  0  3  0  0  0  0  0  0
  190.0660  169.5260  137.1380 C   0  0  2  0  0  3  0  0  0  0  0  0
  190.7020  170.1740  135.9850 N   0  0  0  0  0  2  0  0  0  0  0  0
  190.6950  171.5510  138.4650 C   0  0  0  0  0  0  0  0  0  0  0  0
  191.9460  170.8170  136.4040 C   0  0  0  0  0  2  0  0  0  0  0  0
  189.9360  170.4570  138.3140 C   0  0  0  0  0  3  0  0  0  0  0  0
  191.6320  171.9680  137.3540 C   0  0  0  0  0  2  0  0  0  0  0  0
  190.8190  168.2670  137.5340 C   0  0  0  0  0  1  0  0  0  0  0  0
  1 12  1  0  0  0  0
  1 15  1  0  0  0  0
  2 20  1  0  0  0  0
  2  7  1  1  0  0  0
  3 10  1  0  0  0  0
  4 24  1  0  0  0  0
  4 12  2  0  0  0  0
  5 14  2  0  0  0  0
  5 24  1  0  0  0  0
  7  6  1  0  0  0  0
  8 23  2  0  0  0  0
 10 26  1  0  0  0  0
 10 11  1  0  0  0  0
 11  9  1  1  0  0  0
 11 27  1  0  0  0  0
 12  2  1  0  0  0  0
 13  3  1  0  0  0  0
 14 23  1  0  0  0  0
 15  6  1  0  0  0  0
 17 25  2  0  0  0  0
 17  4  1  0  0  0  0
 18 16  1  0  0  0  0
 19  1  2  0  0  0  0
 20 26  1  0  0  0  0
 21  5  1  0  0  0  0
 22 21  2  0  0  0  0
 22 17  1  0  0  0  0
 23 13  1  0  0  0  0
 25 19  1  0  0  0  0
 26 18  2  0  0  0  0
 27 16  2  0  0  0  0
 28 34  1  1  0  0  0
 28 32  1  0  0  0  0
 29 31  1  0  0  0  0
 29 28  1  0  0  0  0
 30 22  1  0  0  0  0
 31 33  1  0  0  0  0
 32 30  2  0  0  0  0
 33 30  1  0  0  0  0
M  END
>  <MODEL>
9

>  <REMARK>
 VINA RESULT:      -7.1      2.145      3.483
  Name = 
  1 active torsions:
  status: ('A' for Active; 'I' for Inactive)
    1  A    between atoms: C_12  and  C_28
                            x       y       z     vdW  Elec       q    Type
                         _______ _______ _______ _____ _____    ______ ____

>  <TORSDO>
F 1

$$$$
