=
 OpenBabel11052417063D

 30 35  0  0  1  0  0  0  0  0999 V2000
  192.0330  174.2370  143.4810 C   0  0  1  0  0  3  0  0  0  0  0  0
  194.7150  174.7960  143.3280 C   0  0  1  0  0  3  0  0  0  0  0  0
  193.2390  176.6670  147.1530 N   0  0  0  0  0  2  0  0  0  0  0  0
  190.7190  174.5850  144.2990 C   0  0  2  0  0  3  0  0  0  0  0  0
  191.8000  174.1430  141.9760 C   0  0  0  0  0  2  0  0  0  0  0  0
  187.7630  174.8550  141.7940 S   0  0  0  0  0  0  0  0  0  0  0  0
  188.3350  175.9740  145.7210 C   0  0  1  0  0  3  0  0  0  0  0  0
  189.4990  175.0600  142.2370 C   0  0  0  0  0  0  0  0  0  0  0  0
  189.7010  173.2590  140.2580 S   0  0  0  0  0  0  0  0  0  0  0  0
  189.3410  176.2930  146.8340 C   0  0  2  0  0  3  0  0  0  0  0  0
  191.8580  176.2390  147.5760 C   0  0  1  0  0  3  0  0  0  0  0  0
  190.3690  174.3030  141.5480 C   0  0  0  0  0  0  0  0  0  0  0  0
  189.9130  175.6760  143.5590 C   0  0  1  0  0  3  0  0  0  0  0  0
  195.6650  174.1810  144.3000 N   0  0  0  0  0  2  0  0  0  0  0  0
  189.0020  177.6880  147.3060 C   0  0  0  0  0  2  0  0  0  0  0  0
  187.0830  176.6730  146.1540 C   0  0  0  0  0  2  0  0  0  0  0  0
  188.1800  172.2380  142.2500 N   0  0  0  0  0  1  0  0  0  0  0  0
  194.7940  174.1180  141.9700 C   0  0  0  0  0  1  0  0  0  0  0  0
  193.9330  176.3210  145.9390 C   0  0  0  0  0  0  0  0  0  0  0  0
  195.9090  174.7630  145.5980 C   0  0  0  0  0  3  0  0  0  0  0  0
  188.0960  173.1810  141.1380 C   0  0  1  0  0  3  0  0  0  0  0  0
  193.2990  175.0560  143.8560 C   0  0  2  0  0  3  0  0  0  0  0  0
  190.8590  174.6450  145.8440 C   0  0  0  0  0  2  0  0  0  0  0  0
  191.4070  177.0910  148.5870 O   0  0  0  0  0  1  0  0  0  0  0  0
  190.8050  176.0720  146.4310 C   0  0  1  0  0  3  0  0  0  0  0  0
  187.5290  177.8690  146.9930 C   0  0  0  0  0  2  0  0  0  0  0  0
  188.7040  177.8490  143.9850 C   0  0  0  0  0  1  0  0  0  0  0  0
  195.0340  175.6330  145.9890 C   0  0  0  0  0  0  0  0  0  0  0  0
  193.0940  175.9550  144.8180 C   0  0  0  0  0  2  0  0  0  0  0  0
  188.7220  176.3660  144.2770 C   0  0  2  0  0  3  0  0  0  0  0  0
  1  5  1  6  0  0  0
  1 22  1  0  0  0  0
  1  4  1  0  0  0  0
  2 18  1  6  0  0  0
  2 22  1  0  0  0  0
  2 14  1  0  0  0  0
  3 11  1  0  0  0  0
  4 23  1  1  0  0  0
  6  8  1  0  0  0  0
  7 16  1  1  0  0  0
  7 10  1  0  0  0  0
  9 21  1  0  0  0  0
  9 12  1  0  0  0  0
 10 15  1  6  0  0  0
 11 24  1  1  0  0  0
 12  5  1  0  0  0  0
 12  8  2  0  0  0  0
 13  8  1  6  0  0  0
 13 30  1  0  0  0  0
 13  4  1  0  0  0  0
 14 20  1  0  0  0  0
 16 26  1  0  0  0  0
 19 28  2  0  0  0  0
 19  3  1  0  0  0  0
 20 28  2  0  0  0  0
 21  6  1  0  0  0  0
 21 17  1  1  0  0  0
 22 29  1  1  0  0  0
 25 23  1  1  0  0  0
 25 10  1  0  0  0  0
 25 11  1  0  0  0  0
 26 15  1  0  0  0  0
 29 19  1  0  0  0  0
 30 27  1  1  0  0  0
 30  7  1  0  0  0  0
M  END
>  <MODEL>
1

>  <REMARK>
 VINA RESULT:      -8.3      0.000      0.000
  Name = 
  0 active torsions:
  status: ('A' for Active; 'I' for Inactive)
                            x       y       z     vdW  Elec       q    Type
                         _______ _______ _______ _____ _____    ______ ____

>  <TORSDO>
F 0

$$$$
=
 OpenBabel11052417063D

 30 35  0  0  1  0  0  0  0  0999 V2000
  191.6640  174.6840  142.8300 C   0  0  1  0  0  3  0  0  0  0  0  0
  191.1980  172.7150  140.9770 C   0  0  1  0  0  3  0  0  0  0  0  0
  187.2250  174.6910  141.7640 N   0  0  0  0  0  2  0  0  0  0  0  0
  190.9270  175.7160  143.7830 C   0  0  2  0  0  3  0  0  0  0  0  0
  192.8650  174.0090  143.4870 C   0  0  0  0  0  2  0  0  0  0  0  0
  192.8430  175.8410  147.1590 S   0  0  0  0  0  0  0  0  0  0  0  0
  189.1330  177.1190  145.8930 C   0  0  1  0  0  3  0  0  0  0  0  0
  192.2420  174.9670  145.7000 C   0  0  0  0  0  0  0  0  0  0  0  0
  194.8940  174.7520  145.3490 S   0  0  0  0  0  0  0  0  0  0  0  0
  188.0140  176.9890  144.8510 C   0  0  2  0  0  3  0  0  0  0  0  0
  187.3010  175.9840  142.5340 C   0  0  1  0  0  3  0  0  0  0  0  0
  193.1890  174.5030  144.8690 C   0  0  0  0  0  0  0  0  0  0  0  0
  190.8170  175.1310  145.2080 C   0  0  1  0  0  3  0  0  0  0  0  0
  190.8080  173.0750  139.5830 N   0  0  0  0  0  2  0  0  0  0  0  0
  186.7640  176.6530  145.6310 C   0  0  0  0  0  2  0  0  0  0  0  0
  188.4450  177.6920  147.0930 C   0  0  0  0  0  2  0  0  0  0  0  0
  194.2070  177.3680  145.4160 N   0  0  0  0  0  1  0  0  0  0  0  0
  192.6520  172.2800  141.0520 C   0  0  0  0  0  1  0  0  0  0  0  0
  188.3040  173.7900  141.4500 C   0  0  0  0  0  0  0  0  0  0  0  0
  189.4370  173.3430  139.2210 C   0  0  0  0  0  3  0  0  0  0  0  0
  194.4150  176.2350  146.3130 C   0  0  1  0  0  3  0  0  0  0  0  0
  190.7430  173.6910  142.0690 C   0  0  2  0  0  3  0  0  0  0  0  0
  189.7250  176.4880  143.1720 C   0  0  0  0  0  2  0  0  0  0  0  0
  186.0190  176.3350  142.9620 O   0  0  0  0  0  1  0  0  0  0  0  0
  188.3460  176.0340  143.6970 C   0  0  1  0  0  3  0  0  0  0  0  0
  186.9920  177.2260  147.0170 C   0  0  0  0  0  2  0  0  0  0  0  0
  189.1530  174.8260  147.0800 C   0  0  0  0  0  1  0  0  0  0  0  0
  188.6370  173.5750  140.2120 C   0  0  0  0  0  0  0  0  0  0  0  0
  189.4470  173.8440  142.3360 C   0  0  0  0  0  2  0  0  0  0  0  0
  189.9180  175.8380  146.2580 C   0  0  2  0  0  3  0  0  0  0  0  0
  1  5  1  1  0  0  0
  1  4  1  0  0  0  0
  2 18  1  6  0  0  0
  2 22  1  0  0  0  0
  3 11  1  0  0  0  0
  4 23  1  6  0  0  0
  4 13  1  0  0  0  0
  5 12  1  0  0  0  0
  7 30  1  0  0  0  0
  7 16  1  1  0  0  0
  8  6  1  0  0  0  0
  9 21  1  0  0  0  0
 10 15  1  1  0  0  0
 10  7  1  0  0  0  0
 11 24  1  1  0  0  0
 11 25  1  0  0  0  0
 12  9  1  0  0  0  0
 12  8  2  0  0  0  0
 13  8  1  1  0  0  0
 13 30  1  0  0  0  0
 14  2  1  0  0  0  0
 15 26  1  0  0  0  0
 19  3  1  0  0  0  0
 19 29  1  0  0  0  0
 20 14  1  0  0  0  0
 20 28  2  0  0  0  0
 21 17  1  6  0  0  0
 21  6  1  0  0  0  0
 22 29  1  6  0  0  0
 22  1  1  0  0  0  0
 25 23  1  6  0  0  0
 25 10  1  0  0  0  0
 26 16  1  0  0  0  0
 28 19  2  0  0  0  0
 30 27  1  6  0  0  0
M  END
>  <MODEL>
2

>  <REMARK>
 VINA RESULT:      -8.3      2.812      5.448
  Name = 
  0 active torsions:
  status: ('A' for Active; 'I' for Inactive)
                            x       y       z     vdW  Elec       q    Type
                         _______ _______ _______ _____ _____    ______ ____

>  <TORSDO>
F 0

$$$$
=
 OpenBabel11052417063D

 30 35  0  0  1  0  0  0  0  0999 V2000
  187.5780  176.8610  143.7970 C   0  0  1  0  0  3  0  0  0  0  0  0
  186.1570  178.8890  142.6140 C   0  0  1  0  0  3  0  0  0  0  0  0
  187.3540  176.0720  139.3060 N   0  0  0  0  0  2  0  0  0  0  0  0
  188.4830  175.6010  143.4690 C   0  0  2  0  0  3  0  0  0  0  0  0
  188.0970  177.6880  144.9700 C   0  0  0  0  0  2  0  0  0  0  0  0
  191.3940  175.4920  146.0390 S   0  0  0  0  0  0  0  0  0  0  0  0
  190.6520  173.6370  142.4330 C   0  0  1  0  0  3  0  0  0  0  0  0
  190.2170  176.3830  145.0020 C   0  0  0  0  0  0  0  0  0  0  0  0
  189.4230  177.1700  147.4420 S   0  0  0  0  0  0  0  0  0  0  0  0
  189.8650  173.6530  141.1160 C   0  0  2  0  0  3  0  0  0  0  0  0
  187.8950  174.7440  139.7690 C   0  0  1  0  0  3  0  0  0  0  0  0
  189.3060  177.1200  145.6570 C   0  0  0  0  0  0  0  0  0  0  0  0
  189.9760  175.9890  143.5580 C   0  0  1  0  0  3  0  0  0  0  0  0
  184.8200  178.6150  142.0120 N   0  0  0  0  0  2  0  0  0  0  0  0
  190.9020  173.6380  140.0170 C   0  0  0  0  0  2  0  0  0  0  0  0
  191.8600  172.8060  142.1220 C   0  0  0  0  0  2  0  0  0  0  0  0
  189.2220  174.4780  147.2570 N   0  0  0  0  0  1  0  0  0  0  0  0
  186.0290  179.5990  143.9510 C   0  0  0  0  0  1  0  0  0  0  0  0
  186.9860  177.2020  140.1190 C   0  0  0  0  0  0  0  0  0  0  0  0
  184.6790  178.1160  140.6650 C   0  0  0  0  0  3  0  0  0  0  0  0
  190.2250  175.5230  147.4450 C   0  0  1  0  0  3  0  0  0  0  0  0
  187.1550  177.7250  142.5770 C   0  0  2  0  0  3  0  0  0  0  0  0
  187.9950  174.6740  142.3230 C   0  0  0  0  0  2  0  0  0  0  0  0
  188.4930  174.0940  138.6870 O   0  0  0  0  0  1  0  0  0  0  0  0
  188.8250  174.7770  141.0260 C   0  0  1  0  0  3  0  0  0  0  0  0
  192.1210  172.9730  140.6270 C   0  0  0  0  0  2  0  0  0  0  0  0
  192.1460  175.7390  142.2940 C   0  0  0  0  0  1  0  0  0  0  0  0
  185.7540  177.6170  140.1430 C   0  0  0  0  0  0  0  0  0  0  0  0
  187.6300  177.2830  141.4130 C   0  0  0  0  0  2  0  0  0  0  0  0
  191.0550  175.0010  143.0370 C   0  0  2  0  0  3  0  0  0  0  0  0
  1  5  1  1  0  0  0
  2 18  1  1  0  0  0
  3 11  1  0  0  0  0
  3 19  1  0  0  0  0
  4 23  1  6  0  0  0
  4 13  1  0  0  0  0
  4  1  1  0  0  0  0
  5 12  1  0  0  0  0
  6 21  1  0  0  0  0
  7 16  1  6  0  0  0
  7 30  1  0  0  0  0
  8 12  2  0  0  0  0
  8  6  1  0  0  0  0
  9 21  1  0  0  0  0
 10 15  1  6  0  0  0
 10  7  1  0  0  0  0
 11 24  1  6  0  0  0
 11 25  1  0  0  0  0
 12  9  1  0  0  0  0
 13  8  1  1  0  0  0
 14  2  1  0  0  0  0
 15 26  1  0  0  0  0
 19 28  2  0  0  0  0
 19 29  1  0  0  0  0
 20 14  1  0  0  0  0
 21 17  1  6  0  0  0
 22 29  1  6  0  0  0
 22  2  1  0  0  0  0
 22  1  1  0  0  0  0
 25 10  1  0  0  0  0
 25 23  1  1  0  0  0
 26 16  1  0  0  0  0
 28 20  2  0  0  0  0
 30 27  1  6  0  0  0
 30 13  1  0  0  0  0
M  END
>  <MODEL>
3

>  <REMARK>
 VINA RESULT:      -8.1      3.727      7.606
  Name = 
  0 active torsions:
  status: ('A' for Active; 'I' for Inactive)
                            x       y       z     vdW  Elec       q    Type
                         _______ _______ _______ _____ _____    ______ ____

>  <TORSDO>
F 0

$$$$
=
 OpenBabel11052417063D

 30 35  0  0  1  0  0  0  0  0999 V2000
  190.0860  175.0090  144.3310 C   0  0  1  0  0  3  0  0  0  0  0  0
  192.2560  175.6870  145.8670 C   0  0  1  0  0  3  0  0  0  0  0  0
  188.7640  178.0260  147.4920 N   0  0  0  0  0  2  0  0  0  0  0  0
  188.5780  175.4030  144.0400 C   0  0  2  0  0  3  0  0  0  0  0  0
  190.8770  174.6780  143.0680 C   0  0  0  0  0  2  0  0  0  0  0  0
  187.9630  175.1300  140.2150 S   0  0  0  0  0  0  0  0  0  0  0  0
  185.9210  176.8540  143.3530 C   0  0  1  0  0  3  0  0  0  0  0  0
  189.0090  175.4950  141.6380 C   0  0  0  0  0  0  0  0  0  0  0  0
  190.3420  173.4310  140.5590 S   0  0  0  0  0  0  0  0  0  0  0  0
  185.9840  177.3930  144.7890 C   0  0  2  0  0  3  0  0  0  0  0  0
  187.4150  177.5900  146.9800 C   0  0  1  0  0  3  0  0  0  0  0  0
  190.0740  174.6930  141.7990 C   0  0  0  0  0  0  0  0  0  0  0  0
  188.5030  176.3240  142.8020 C   0  0  1  0  0  3  0  0  0  0  0  0
  192.3160  175.2790  147.3000 N   0  0  0  0  0  2  0  0  0  0  0  0
  185.4980  178.8220  144.7140 C   0  0  0  0  0  2  0  0  0  0  0  0
  184.7270  177.5410  142.7630 C   0  0  0  0  0  2  0  0  0  0  0  0
  187.8410  172.6380  141.2180 N   0  0  0  0  0  1  0  0  0  0  0  0
  193.1570  174.8190  145.0040 C   0  0  0  0  0  1  0  0  0  0  0  0
  190.0570  177.5410  147.0850 C   0  0  0  0  0  0  0  0  0  0  0  0
  191.6950  176.0610  148.3420 C   0  0  0  0  0  3  0  0  0  0  0  0
  188.5480  173.3970  140.1910 C   0  0  1  0  0  3  0  0  0  0  0  0
  190.8520  175.9440  145.3060 C   0  0  2  0  0  3  0  0  0  0  0  0
  187.6870  175.7020  145.2770 C   0  0  0  0  0  2  0  0  0  0  0  0
  186.4660  178.5580  147.3160 O   0  0  0  0  0  1  0  0  0  0  0  0
  187.3460  177.1950  145.4680 C   0  0  1  0  0  3  0  0  0  0  0  0
  184.5900  178.8710  143.4990 C   0  0  0  0  0  2  0  0  0  0  0  0
  187.4280  178.4660  142.0130 C   0  0  0  0  0  1  0  0  0  0  0  0
  190.8250  176.9310  147.9380 C   0  0  0  0  0  0  0  0  0  0  0  0
  190.1240  176.9650  145.7590 C   0  0  0  0  0  2  0  0  0  0  0  0
  187.1710  177.0470  142.4650 C   0  0  2  0  0  3  0  0  0  0  0  0
  1  5  1  6  0  0  0
  1 22  1  0  0  0  0
  2 18  1  6  0  0  0
  2 14  1  0  0  0  0
  4  1  1  0  0  0  0
  4 23  1  1  0  0  0
  6  8  1  0  0  0  0
  7 16  1  6  0  0  0
  7 10  1  0  0  0  0
  8 12  2  0  0  0  0
  9 12  1  0  0  0  0
 10 15  1  6  0  0  0
 10 25  1  0  0  0  0
 11 24  1  6  0  0  0
 11  3  1  0  0  0  0
 12  5  1  0  0  0  0
 13  8  1  6  0  0  0
 13  4  1  0  0  0  0
 14 20  1  0  0  0  0
 16 26  1  0  0  0  0
 19  3  1  0  0  0  0
 19 28  2  0  0  0  0
 21  6  1  0  0  0  0
 21  9  1  0  0  0  0
 21 17  1  1  0  0  0
 22 29  1  1  0  0  0
 22  2  1  0  0  0  0
 25 23  1  1  0  0  0
 25 11  1  0  0  0  0
 26 15  1  0  0  0  0
 28 20  2  0  0  0  0
 29 19  1  0  0  0  0
 30 27  1  1  0  0  0
 30 13  1  0  0  0  0
 30  7  1  0  0  0  0
M  END
>  <MODEL>
4

>  <REMARK>
 VINA RESULT:      -8.0      2.197      3.444
  Name = 
  0 active torsions:
  status: ('A' for Active; 'I' for Inactive)
                            x       y       z     vdW  Elec       q    Type
                         _______ _______ _______ _____ _____    ______ ____

>  <TORSDO>
F 0

$$$$
=
 OpenBabel11052417063D

 30 35  0  0  1  0  0  0  0  0999 V2000
  188.6630  174.3520  141.4740 C   0  0  1  0  0  3  0  0  0  0  0  0
  189.6940  173.2310  139.1910 C   0  0  1  0  0  3  0  0  0  0  0  0
  192.4470  172.0350  142.5530 N   0  0  0  0  0  2  0  0  0  0  0  0
  188.9900  174.6200  143.0030 C   0  0  2  0  0  3  0  0  0  0  0  0
  187.9880  175.5340  140.7850 C   0  0  0  0  0  2  0  0  0  0  0  0
  187.7010  178.1670  143.9190 S   0  0  0  0  0  0  0  0  0  0  0  0
  190.2470  175.4660  145.7120 C   0  0  1  0  0  3  0  0  0  0  0  0
  188.4200  176.9830  142.7650 C   0  0  0  0  0  0  0  0  0  0  0  0
  186.1180  177.5610  141.5130 S   0  0  0  0  0  0  0  0  0  0  0  0
  191.1530  174.2400  145.5360 C   0  0  2  0  0  3  0  0  0  0  0  0
  191.9120  172.3030  143.9360 C   0  0  1  0  0  3  0  0  0  0  0  0
  187.6730  176.6940  141.6870 C   0  0  0  0  0  0  0  0  0  0  0  0
  189.5420  176.0520  143.1790 C   0  0  1  0  0  3  0  0  0  0  0  0
  189.6890  171.7500  139.0150 N   0  0  0  0  0  2  0  0  0  0  0  0
  192.5170  174.6620  146.0330 C   0  0  0  0  0  2  0  0  0  0  0  0
  190.7690  176.1250  146.9520 C   0  0  0  0  0  2  0  0  0  0  0  0
  185.5770  176.5190  143.9500 N   0  0  0  0  0  1  0  0  0  0  0  0
  188.6090  173.8940  138.3590 C   0  0  0  0  0  1  0  0  0  0  0  0
  191.8460  172.3950  141.2940 C   0  0  0  0  0  0  0  0  0  0  0  0
  190.7350  170.9150  139.5550 C   0  0  0  0  0  3  0  0  0  0  0  0
  186.0170  177.7660  143.3300 C   0  0  1  0  0  3  0  0  0  0  0  0
  189.8140  173.7290  140.6360 C   0  0  2  0  0  3  0  0  0  0  0  0
  189.6280  173.4450  143.7930 C   0  0  0  0  0  2  0  0  0  0  0  0
  192.9510  172.1690  144.8600 O   0  0  0  0  0  1  0  0  0  0  0  0
  191.1230  173.6410  144.1240 C   0  0  1  0  0  3  0  0  0  0  0  0
  192.2510  175.7690  147.0360 C   0  0  0  0  0  2  0  0  0  0  0  0
  191.4090  177.3070  144.3230 C   0  0  0  0  0  1  0  0  0  0  0  0
  191.4770  171.4710  140.4580 C   0  0  0  0  0  0  0  0  0  0  0  0
  190.9320  173.5160  141.3300 C   0  0  0  0  0  2  0  0  0  0  0  0
  190.1700  176.4670  144.5380 C   0  0  2  0  0  3  0  0  0  0  0  0
  1  5  1  6  0  0  0
  1  4  1  0  0  0  0
  2 18  1  1  0  0  0
  2 22  1  0  0  0  0
  3 11  1  0  0  0  0
  4 13  1  0  0  0  0
  4 23  1  6  0  0  0
  5 12  1  0  0  0  0
  7 16  1  1  0  0  0
  8  6  1  0  0  0  0
  9 12  1  0  0  0  0
  9 21  1  0  0  0  0
 10  7  1  0  0  0  0
 10 15  1  6  0  0  0
 11 25  1  0  0  0  0
 11 24  1  1  0  0  0
 12  8  2  0  0  0  0
 13  8  1  1  0  0  0
 13 30  1  0  0  0  0
 14  2  1  0  0  0  0
 14 20  1  0  0  0  0
 15 26  1  0  0  0  0
 16 26  1  0  0  0  0
 19 29  1  0  0  0  0
 19  3  1  0  0  0  0
 20 28  2  0  0  0  0
 21  6  1  0  0  0  0
 21 17  1  1  0  0  0
 22 29  1  1  0  0  0
 22  1  1  0  0  0  0
 25 23  1  1  0  0  0
 25 10  1  0  0  0  0
 28 19  2  0  0  0  0
 30 27  1  6  0  0  0
 30  7  1  0  0  0  0
M  END
>  <MODEL>
5

>  <REMARK>
 VINA RESULT:      -7.7      2.966      5.080
  Name = 
  0 active torsions:
  status: ('A' for Active; 'I' for Inactive)
                            x       y       z     vdW  Elec       q    Type
                         _______ _______ _______ _____ _____    ______ ____

>  <TORSDO>
F 0

$$$$
=
 OpenBabel11052417063D

 30 35  0  0  1  0  0  0  0  0999 V2000
  190.4980  176.5330  144.7430 C   0  0  1  0  0  3  0  0  0  0  0  0
  192.1040  176.0670  146.9180 C   0  0  1  0  0  3  0  0  0  0  0  0
  193.6550  173.4380  143.6010 N   0  0  0  0  0  2  0  0  0  0  0  0
  190.1690  176.0030  143.2850 C   0  0  2  0  0  3  0  0  0  0  0  0
  189.2560  176.9230  145.5380 C   0  0  0  0  0  2  0  0  0  0  0  0
  186.3240  176.1860  142.7630 S   0  0  0  0  0  0  0  0  0  0  0  0
  189.4220  174.3130  140.7900 C   0  0  1  0  0  3  0  0  0  0  0  0
  187.7810  175.9290  143.7940 C   0  0  0  0  0  0  0  0  0  0  0  0
  186.7180  178.0950  144.9690 S   0  0  0  0  0  0  0  0  0  0  0  0
  190.8640  173.7950  140.8590 C   0  0  2  0  0  3  0  0  0  0  0  0
  193.0980  173.7460  142.2360 C   0  0  1  0  0  3  0  0  0  0  0  0
  187.9630  176.8250  144.7780 C   0  0  0  0  0  0  0  0  0  0  0  0
  188.9400  175.0680  143.3300 C   0  0  1  0  0  3  0  0  0  0  0  0
  193.5350  176.4910  146.8980 N   0  0  0  0  0  2  0  0  0  0  0  0
  190.7920  172.3270  140.5050 C   0  0  0  0  0  2  0  0  0  0  0  0
  188.8050  173.5170  139.6810 C   0  0  0  0  0  2  0  0  0  0  0  0
  187.2940  178.6660  142.3880 N   0  0  0  0  0  1  0  0  0  0  0  0
  191.2580  177.0050  147.7620 C   0  0  0  0  0  1  0  0  0  0  0  0
  193.2800  174.0340  144.8580 C   0  0  0  0  0  0  0  0  0  0  0  0
  194.5660  175.6660  146.3180 C   0  0  0  0  0  3  0  0  0  0  0  0
  186.2970  177.9640  143.1910 C   0  0  1  0  0  3  0  0  0  0  0  0
  191.5070  175.6800  145.5600 C   0  0  2  0  0  3  0  0  0  0  0  0
  191.3830  175.6360  142.3880 C   0  0  0  0  0  2  0  0  0  0  0  0
  193.4180  172.7000  141.3670 O   0  0  0  0  0  1  0  0  0  0  0  0
  191.5800  174.1200  142.1760 C   0  0  1  0  0  3  0  0  0  0  0  0
  189.5520  172.1860  139.6420 C   0  0  0  0  0  2  0  0  0  0  0  0
  188.1440  172.8310  142.4760 C   0  0  0  0  0  1  0  0  0  0  0  0
  194.1470  174.7180  145.5420 C   0  0  0  0  0  0  0  0  0  0  0  0
  191.9490  174.6020  144.9130 C   0  0  0  0  0  2  0  0  0  0  0  0
  188.5730  174.2250  142.0790 C   0  0  2  0  0  3  0  0  0  0  0  0
  1  5  1  1  0  0  0
  1 22  1  0  0  0  0
  2 18  1  6  0  0  0
  3 19  1  0  0  0  0
  4 23  1  1  0  0  0
  4 13  1  0  0  0  0
  4  1  1  0  0  0  0
  6 21  1  0  0  0  0
  6  8  1  0  0  0  0
  7 16  1  6  0  0  0
  7 10  1  0  0  0  0
  7 30  1  0  0  0  0
  8 12  2  0  0  0  0
 10 15  1  1  0  0  0
 10 25  1  0  0  0  0
 11 24  1  6  0  0  0
 11  3  1  0  0  0  0
 12  9  1  0  0  0  0
 12  5  1  0  0  0  0
 13  8  1  6  0  0  0
 14  2  1  0  0  0  0
 19 29  1  0  0  0  0
 19 28  2  0  0  0  0
 20 14  1  0  0  0  0
 21 17  1  6  0  0  0
 21  9  1  0  0  0  0
 22 29  1  6  0  0  0
 22  2  1  0  0  0  0
 25 11  1  0  0  0  0
 25 23  1  6  0  0  0
 26 16  1  0  0  0  0
 26 15  1  0  0  0  0
 28 20  2  0  0  0  0
 30 27  1  1  0  0  0
 30 13  1  0  0  0  0
M  END
>  <MODEL>
6

>  <REMARK>
 VINA RESULT:      -7.6      2.561      5.224
  Name = 
  0 active torsions:
  status: ('A' for Active; 'I' for Inactive)
                            x       y       z     vdW  Elec       q    Type
                         _______ _______ _______ _____ _____    ______ ____

>  <TORSDO>
F 0

$$$$
=
 OpenBabel11052417063D

 30 35  0  0  1  0  0  0  0  0999 V2000
  188.7820  176.2550  142.9580 C   0  0  1  0  0  3  0  0  0  0  0  0
  187.5650  175.4470  140.6360 C   0  0  1  0  0  3  0  0  0  0  0  0
  184.8710  178.5600  142.4690 N   0  0  0  0  0  2  0  0  0  0  0  0
  188.5440  177.1140  144.2710 C   0  0  2  0  0  3  0  0  0  0  0  0
  189.5210  174.9460  143.2200 C   0  0  0  0  0  2  0  0  0  0  0  0
  190.1580  175.2360  147.2630 S   0  0  0  0  0  0  0  0  0  0  0  0
  187.4780  178.3490  146.9120 C   0  0  1  0  0  3  0  0  0  0  0  0
  189.2950  175.2650  145.6800 C   0  0  0  0  0  0  0  0  0  0  0  0
  191.5810  174.0480  144.9760 S   0  0  0  0  0  0  0  0  0  0  0  0
  186.4680  179.0820  146.0200 C   0  0  2  0  0  3  0  0  0  0  0  0
  185.4850  179.3420  143.6000 C   0  0  1  0  0  3  0  0  0  0  0  0
  189.9690  174.7470  144.6400 C   0  0  0  0  0  0  0  0  0  0  0  0
  188.1190  176.1900  145.4340 C   0  0  1  0  0  3  0  0  0  0  0  0
  187.4410  176.3900  139.4870 N   0  0  0  0  0  2  0  0  0  0  0  0
  185.1660  179.0830  146.7880 C   0  0  0  0  0  2  0  0  0  0  0  0
  187.0660  178.7190  148.3040 C   0  0  0  0  0  2  0  0  0  0  0  0
  192.1390  176.5050  145.9620 N   0  0  0  0  0  1  0  0  0  0  0  0
  188.6640  174.4240  140.3990 C   0  0  0  0  0  1  0  0  0  0  0  0
  185.4440  177.4450  141.7590 C   0  0  0  0  0  0  0  0  0  0  0  0
  186.3550  177.3350  139.3910 C   0  0  0  0  0  3  0  0  0  0  0  0
  191.7760  175.1650  146.4150 C   0  0  1  0  0  3  0  0  0  0  0  0
  187.5490  176.0880  142.0280 C   0  0  2  0  0  3  0  0  0  0  0  0
  187.8460  178.4890  144.0840 C   0  0  0  0  0  2  0  0  0  0  0  0
  184.4790  180.0490  144.2630 O   0  0  0  0  0  1  0  0  0  0  0  0
  186.3880  178.5340  144.5890 C   0  0  1  0  0  3  0  0  0  0  0  0
  185.5650  178.9900  148.2490 C   0  0  0  0  0  2  0  0  0  0  0  0
  186.4130  176.0260  147.2860 C   0  0  0  0  0  1  0  0  0  0  0  0
  185.7000  177.5410  140.4890 C   0  0  0  0  0  0  0  0  0  0  0  0
  186.4480  176.6910  142.4780 C   0  0  0  0  0  2  0  0  0  0  0  0
  187.5870  176.8160  146.7520 C   0  0  2  0  0  3  0  0  0  0  0  0
  1  5  1  1  0  0  0
  1  4  1  0  0  0  0
  2 18  1  6  0  0  0
  2 22  1  0  0  0  0
  3 11  1  0  0  0  0
  4 23  1  6  0  0  0
  4 13  1  0  0  0  0
  5 12  1  0  0  0  0
  7 16  1  1  0  0  0
  8  6  1  0  0  0  0
  9 21  1  0  0  0  0
 10 15  1  1  0  0  0
 10  7  1  0  0  0  0
 11 24  1  1  0  0  0
 11 25  1  0  0  0  0
 12  9  1  0  0  0  0
 12  8  2  0  0  0  0
 13  8  1  1  0  0  0
 13 30  1  0  0  0  0
 14  2  1  0  0  0  0
 15 26  1  0  0  0  0
 19  3  1  0  0  0  0
 19 29  1  0  0  0  0
 20 14  1  0  0  0  0
 20 28  2  0  0  0  0
 21 17  1  6  0  0  0
 21  6  1  0  0  0  0
 22 29  1  6  0  0  0
 22  1  1  0  0  0  0
 25 23  1  6  0  0  0
 25 10  1  0  0  0  0
 26 16  1  0  0  0  0
 28 19  2  0  0  0  0
 30  7  1  0  0  0  0
 30 27  1  6  0  0  0
M  END
>  <MODEL>
7

>  <REMARK>
 VINA RESULT:      -7.6      3.403      6.390
  Name = 
  0 active torsions:
  status: ('A' for Active; 'I' for Inactive)
                            x       y       z     vdW  Elec       q    Type
                         _______ _______ _______ _____ _____    ______ ____

>  <TORSDO>
F 0

$$$$
=
 OpenBabel11052417063D

 30 35  0  0  1  0  0  0  0  0999 V2000
  188.9180  173.9780  142.4430 C   0  0  1  0  0  3  0  0  0  0  0  0
  189.7000  172.6550  140.1700 C   0  0  1  0  0  3  0  0  0  0  0  0
  193.0410  172.1500  143.1520 N   0  0  0  0  0  2  0  0  0  0  0  0
  189.4440  174.4720  143.8550 C   0  0  2  0  0  3  0  0  0  0  0  0
  188.0270  174.9980  141.7400 C   0  0  0  0  0  2  0  0  0  0  0  0
  187.9480  177.9890  144.5480 S   0  0  0  0  0  0  0  0  0  0  0  0
  191.0040  175.7720  146.2030 C   0  0  1  0  0  3  0  0  0  0  0  0
  188.6020  176.7270  143.4380 C   0  0  0  0  0  0  0  0  0  0  0  0
  186.0890  176.9390  142.5220 S   0  0  0  0  0  0  0  0  0  0  0  0
  191.9950  174.6140  146.0270 C   0  0  2  0  0  3  0  0  0  0  0  0
  192.6980  172.5530  144.5630 C   0  0  1  0  0  3  0  0  0  0  0  0
  187.7340  176.2360  142.5390 C   0  0  0  0  0  0  0  0  0  0  0  0
  189.8650  175.9570  143.7700 C   0  0  1  0  0  3  0  0  0  0  0  0
  189.8220  171.1680  140.1720 N   0  0  0  0  0  2  0  0  0  0  0  0
  193.3670  175.2110  146.2410 C   0  0  0  0  0  2  0  0  0  0  0  0
  191.6370  176.6320  147.2550 C   0  0  0  0  0  2  0  0  0  0  0  0
  186.0360  176.1880  145.1200 N   0  0  0  0  0  1  0  0  0  0  0  0
  188.4380  173.1080  139.4550 C   0  0  0  0  0  1  0  0  0  0  0  0
  192.2230  172.2880  141.9750 C   0  0  0  0  0  0  0  0  0  0  0  0
  191.0190  170.5030  140.6280 C   0  0  0  0  0  3  0  0  0  0  0  0
  186.2450  177.3740  144.2940 C   0  0  1  0  0  3  0  0  0  0  0  0
  189.9860  173.3480  141.5070 C   0  0  2  0  0  3  0  0  0  0  0  0
  190.3140  173.4700  144.6630 C   0  0  0  0  0  2  0  0  0  0  0  0
  193.8740  172.6300  145.3130 O   0  0  0  0  0  1  0  0  0  0  0  0
  191.8130  173.8330  144.7190 C   0  0  1  0  0  3  0  0  0  0  0  0
  193.1440  176.4150  147.1360 C   0  0  0  0  0  2  0  0  0  0  0  0
  191.7430  177.5040  144.4370 C   0  0  0  0  0  1  0  0  0  0  0  0
  191.8280  171.2330  141.3260 C   0  0  0  0  0  0  0  0  0  0  0  0
  191.2130  173.3230  142.0290 C   0  0  0  0  0  2  0  0  0  0  0  0
  190.6450  176.5990  144.9480 C   0  0  2  0  0  3  0  0  0  0  0  0
  1  5  1  6  0  0  0
  1  4  1  0  0  0  0
  2 18  1  1  0  0  0
  2 14  1  0  0  0  0
  2 22  1  0  0  0  0
  3 11  1  0  0  0  0
  4 23  1  6  0  0  0
  5 12  1  0  0  0  0
  7 16  1  1  0  0  0
  8  6  1  0  0  0  0
  9 12  1  0  0  0  0
  9 21  1  0  0  0  0
 10  7  1  0  0  0  0
 10 15  1  6  0  0  0
 11 25  1  0  0  0  0
 11 24  1  1  0  0  0
 12  8  2  0  0  0  0
 13  8  1  1  0  0  0
 13  4  1  0  0  0  0
 13 30  1  0  0  0  0
 14 20  1  0  0  0  0
 15 26  1  0  0  0  0
 19 29  1  0  0  0  0
 19  3  1  0  0  0  0
 20 28  2  0  0  0  0
 21  6  1  0  0  0  0
 21 17  1  1  0  0  0
 22 29  1  1  0  0  0
 22  1  1  0  0  0  0
 25 23  1  1  0  0  0
 25 10  1  0  0  0  0
 26 16  1  0  0  0  0
 28 19  2  0  0  0  0
 30 27  1  6  0  0  0
 30  7  1  0  0  0  0
M  END
>  <MODEL>
8

>  <REMARK>
 VINA RESULT:      -7.3      2.694      4.877
  Name = 
  0 active torsions:
  status: ('A' for Active; 'I' for Inactive)
                            x       y       z     vdW  Elec       q    Type
                         _______ _______ _______ _____ _____    ______ ____

>  <TORSDO>
F 0

$$$$
=
 OpenBabel11052417063D

 30 35  0  0  1  0  0  0  0  0999 V2000
  190.0510  175.0460  142.5110 C   0  0  1  0  0  3  0  0  0  0  0  0
  190.0330  173.0470  140.6320 C   0  0  1  0  0  3  0  0  0  0  0  0
  186.8920  176.0200  139.3620 N   0  0  0  0  0  2  0  0  0  0  0  0
  189.2560  176.3330  142.9880 C   0  0  2  0  0  3  0  0  0  0  0  0
  190.5430  174.1800  143.6670 C   0  0  0  0  0  2  0  0  0  0  0  0
  189.2310  176.3810  146.8710 S   0  0  0  0  0  0  0  0  0  0  0  0
  187.1210  178.3740  143.9440 C   0  0  1  0  0  3  0  0  0  0  0  0
  189.2070  175.5160  145.2890 C   0  0  0  0  0  0  0  0  0  0  0  0
  191.5190  174.6150  146.3110 S   0  0  0  0  0  0  0  0  0  0  0  0
  186.6660  178.4010  142.4790 C   0  0  2  0  0  3  0  0  0  0  0  0
  186.9320  177.3350  140.0950 C   0  0  1  0  0  3  0  0  0  0  0  0
  190.2720  174.7380  145.0350 C   0  0  0  0  0  0  0  0  0  0  0  0
  188.3100  175.9660  144.1530 C   0  0  1  0  0  3  0  0  0  0  0  0
  190.4880  173.3250  139.2380 N   0  0  0  0  0  2  0  0  0  0  0  0
  185.1570  178.4780  142.5180 C   0  0  0  0  0  2  0  0  0  0  0  0
  186.1200  179.2360  144.6490 C   0  0  0  0  0  2  0  0  0  0  0  0
  191.6290  177.3090  146.0820 N   0  0  0  0  0  1  0  0  0  0  0  0
  191.0840  172.2800  141.4160 C   0  0  0  0  0  1  0  0  0  0  0  0
  187.6950  174.8500  139.6120 C   0  0  0  0  0  0  0  0  0  0  0  0
  189.6010  173.8780  138.2430 C   0  0  0  0  0  3  0  0  0  0  0  0
  191.0560  176.2730  146.9370 C   0  0  1  0  0  3  0  0  0  0  0  0
  189.3890  174.2280  141.3690 C   0  0  2  0  0  3  0  0  0  0  0  0
  188.7680  177.3000  141.8740 C   0  0  0  0  0  2  0  0  0  0  0  0
  185.7550  178.0400  139.8300 O   0  0  0  0  0  1  0  0  0  0  0  0
  187.2440  177.2640  141.6260 C   0  0  1  0  0  3  0  0  0  0  0  0
  184.8260  179.1370  143.8440 C   0  0  0  0  0  2  0  0  0  0  0  0
  185.9330  176.3040  144.9300 C   0  0  0  0  0  1  0  0  0  0  0  0
  188.5160  174.4150  138.7040 C   0  0  0  0  0  0  0  0  0  0  0  0
  188.2250  174.7260  140.9540 C   0  0  0  0  0  2  0  0  0  0  0  0
  187.2440  176.9920  144.6250 C   0  0  2  0  0  3  0  0  0  0  0  0
  1  4  1  0  0  0  0
  1  5  1  1  0  0  0
  2 22  1  0  0  0  0
  2 18  1  1  0  0  0
  3 19  1  0  0  0  0
  3 11  1  0  0  0  0
  4 23  1  6  0  0  0
  4 13  1  0  0  0  0
  5 12  1  0  0  0  0
  6 21  1  0  0  0  0
  7 30  1  0  0  0  0
  7 16  1  1  0  0  0
  8  6  1  0  0  0  0
  9 21  1  0  0  0  0
 10 15  1  1  0  0  0
 10  7  1  0  0  0  0
 11 24  1  1  0  0  0
 11 25  1  0  0  0  0
 12  8  2  0  0  0  0
 12  9  1  0  0  0  0
 13 30  1  0  0  0  0
 13  8  1  1  0  0  0
 14  2  1  0  0  0  0
 15 26  1  0  0  0  0
 19 29  1  0  0  0  0
 20 28  2  0  0  0  0
 20 14  1  0  0  0  0
 21 17  1  6  0  0  0
 22 29  1  6  0  0  0
 22  1  1  0  0  0  0
 25 23  1  6  0  0  0
 25 10  1  0  0  0  0
 26 16  1  0  0  0  0
 28 19  2  0  0  0  0
 30 27  1  6  0  0  0
M  END
>  <MODEL>
9

>  <REMARK>
 VINA RESULT:      -7.2      3.531      6.149
  Name = 
  0 active torsions:
  status: ('A' for Active; 'I' for Inactive)
                            x       y       z     vdW  Elec       q    Type
                         _______ _______ _______ _____ _____    ______ ____

>  <TORSDO>
F 0

$$$$
