=
 OpenBabel11052418013D

 28 32  0  0  1  0  0  0  0  0999 V2000
  192.5930  175.2880  143.8570 C   0  0  0  0  0  0  0  0  0  0  0  0
  187.4690  176.4780  143.5160 C   0  0  0  0  0  2  0  0  0  0  0  0
  191.1680  176.9840  148.3350 C   0  0  0  0  0  1  0  0  0  0  0  0
  186.0800  178.0660  145.7340 C   0  0  0  0  0  2  0  0  0  0  0  0
  189.3180  176.6000  145.0370 C   0  0  0  0  0  0  0  0  0  0  0  0
  185.2620  177.6730  143.3950 C   0  0  0  0  0  0  0  0  0  0  0  0
  187.9780  176.8620  144.6930 C   0  0  0  0  0  0  0  0  0  0  0  0
  188.2570  177.5030  147.1190 S   0  0  0  0  0  0  0  0  0  0  0  0
  185.2440  178.3350  144.5500 C   0  0  0  0  0  3  0  0  0  0  0  0
  191.8890  176.1200  146.0560 C   0  0  0  0  0  0  0  0  0  0  0  0
  190.2920  176.0540  144.1980 C   0  0  0  0  0  3  0  0  0  0  0  0
  187.2590  177.4340  145.7600 C   0  0  0  0  0  0  0  0  0  0  0  0
  194.1590  175.3270  145.7120 C   0  0  0  0  0  3  0  0  0  0  0  0
  190.8920  176.6600  146.9010 C   0  0  0  0  0  0  0  0  0  0  0  0
  193.1790  175.8660  146.5440 C   0  0  0  0  0  3  0  0  0  0  0  0
  184.4690  178.1320  142.3520 O   0  0  0  0  0  1  0  0  0  0  0  0
  186.0090  176.3980  143.2060 C   0  0  0  0  0  2  0  0  0  0  0  0
  189.6230  176.8850  146.3600 C   0  0  0  0  0  0  0  0  0  0  0  0
  193.8670  175.0400  144.3800 C   0  0  0  0  0  3  0  0  0  0  0  0
  191.5880  175.8200  144.6930 C   0  0  0  0  0  0  0  0  0  0  0  0
  192.3330  174.9730  142.4010 C   0  0  0  0  0  2  0  0  0  0  0  0
  191.8860  173.5930  142.1430 N   0  0  0  0  0  0  0  0  0  0  0  0
  190.3980  172.2280  143.4590 C   0  0  1  0  0  3  0  0  0  0  0  0
  190.5720  173.5900  141.5010 C   0  0  0  0  0  2  0  0  0  0  0  0
  192.8320  171.7500  143.4290 C   0  0  0  0  0  1  0  0  0  0  0  0
  191.7790  172.8400  143.3910 C   0  0  1  0  0  3  0  0  0  0  0  0
  189.8270  172.3900  144.8540 C   0  0  0  0  0  1  0  0  0  0  0  0
  189.5720  173.0130  142.4770 C   0  0  0  0  0  2  0  0  0  0  0  0
  1 19  2  0  0  0  0
  1 20  1  0  0  0  0
  2  7  1  0  0  0  0
  4 12  1  0  0  0  0
  5 18  1  0  0  0  0
  6  9  2  0  0  0  0
  7  5  1  0  0  0  0
  7 12  2  0  0  0  0
  9  4  1  0  0  0  0
 10 15  1  0  0  0  0
 10 14  1  0  0  0  0
 11 20  1  0  0  0  0
 11  5  2  0  0  0  0
 12  8  1  0  0  0  0
 13 15  2  0  0  0  0
 14  3  1  0  0  0  0
 16  6  1  0  0  0  0
 17  6  1  0  0  0  0
 17  2  1  0  0  0  0
 18 14  2  0  0  0  0
 18  8  1  0  0  0  0
 19 13  1  0  0  0  0
 20 10  2  0  0  0  0
 21  1  1  0  0  0  0
 22 21  1  0  0  0  0
 22 26  1  0  0  0  0
 23 27  1  1  0  0  0
 24 22  1  0  0  0  0
 24 28  1  0  0  0  0
 26 25  1  6  0  0  0
 26 23  1  0  0  0  0
 28 23  1  0  0  0  0
M  END
>  <MODEL>
1

>  <REMARK>
 VINA RESULT:      -7.7      0.000      0.000
  Name = 
  2 active torsions:
  status: ('A' for Active; 'I' for Inactive)
    1  A    between atoms: C_1  and  C_2
    2  A    between atoms: C_2  and  N_3
                            x       y       z     vdW  Elec       q    Type
                         _______ _______ _______ _____ _____    ______ ____

>  <TORSDO>
F 2

$$$$
=
 OpenBabel11052418013D

 28 32  0  0  1  0  0  0  0  0999 V2000
  190.1410  173.7580  143.3420 C   0  0  0  0  0  0  0  0  0  0  0  0
  186.9200  177.2790  145.5810 C   0  0  0  0  0  2  0  0  0  0  0  0
  187.4750  175.8610  139.6780 C   0  0  0  0  0  1  0  0  0  0  0  0
  184.6370  178.5480  143.9850 C   0  0  0  0  0  2  0  0  0  0  0  0
  187.4210  176.2930  143.4540 C   0  0  0  0  0  0  0  0  0  0  0  0
  184.9190  178.5040  146.4770 C   0  0  0  0  0  0  0  0  0  0  0  0
  186.6530  177.1390  144.2770 C   0  0  0  0  0  0  0  0  0  0  0  0
  185.9090  177.5450  141.8990 S   0  0  0  0  0  0  0  0  0  0  0  0
  184.1790  178.6630  145.3810 C   0  0  0  0  0  3  0  0  0  0  0  0
  188.8320  174.7940  141.5440 C   0  0  0  0  0  0  0  0  0  0  0  0
  188.4290  175.4240  143.8790 C   0  0  0  0  0  3  0  0  0  0  0  0
  185.7050  177.8760  143.5410 C   0  0  0  0  0  0  0  0  0  0  0  0
  190.5560  173.1640  141.0240 C   0  0  0  0  0  3  0  0  0  0  0  0
  187.8190  175.6880  141.1240 C   0  0  0  0  0  0  0  0  0  0  0  0
  189.5530  174.0400  140.6090 C   0  0  0  0  0  3  0  0  0  0  0  0
  184.2920  178.5550  147.7150 O   0  0  0  0  0  1  0  0  0  0  0  0
  186.4030  178.3860  146.4410 C   0  0  0  0  0  2  0  0  0  0  0  0
  187.1390  176.4180  142.1020 C   0  0  0  0  0  0  0  0  0  0  0  0
  190.8470  173.0270  142.3810 C   0  0  0  0  0  3  0  0  0  0  0  0
  189.1340  174.6580  142.9330 C   0  0  0  0  0  0  0  0  0  0  0  0
  190.4860  173.5580  144.8010 C   0  0  0  0  0  2  0  0  0  0  0  0
  191.5590  174.4350  145.3020 N   0  0  0  0  0  0  0  0  0  0  0  0
  191.9330  176.7690  144.8270 C   0  0  1  0  0  3  0  0  0  0  0  0
  191.0900  175.2210  146.4430 C   0  0  0  0  0  2  0  0  0  0  0  0
  193.4150  175.0410  143.8410 C   0  0  0  0  0  1  0  0  0  0  0  0
  191.9960  175.3670  144.2640 C   0  0  1  0  0  3  0  0  0  0  0  0
  191.3330  177.7120  143.8030 C   0  0  0  0  0  1  0  0  0  0  0  0
  191.0250  176.6720  146.0220 C   0  0  0  0  0  2  0  0  0  0  0  0
  1 21  1  0  0  0  0
  2 17  1  0  0  0  0
  3 14  1  0  0  0  0
  4  9  1  0  0  0  0
  5 11  1  0  0  0  0
  5  7  1  0  0  0  0
  6 16  1  0  0  0  0
  7  2  1  0  0  0  0
  8 18  1  0  0  0  0
  8 12  1  0  0  0  0
  9  6  2  0  0  0  0
 10 20  1  0  0  0  0
 12  4  1  0  0  0  0
 12  7  2  0  0  0  0
 13 19  1  0  0  0  0
 14 10  2  0  0  0  0
 14 18  1  0  0  0  0
 15 13  2  0  0  0  0
 15 10  1  0  0  0  0
 17  6  1  0  0  0  0
 18  5  2  0  0  0  0
 19  1  2  0  0  0  0
 20  1  1  0  0  0  0
 20 11  2  0  0  0  0
 21 22  1  0  0  0  0
 22 24  1  0  0  0  0
 23 27  1  6  0  0  0
 23 28  1  0  0  0  0
 26 25  1  1  0  0  0
 26 23  1  0  0  0  0
 26 22  1  0  0  0  0
 28 24  1  0  0  0  0
M  END
>  <MODEL>
2

>  <REMARK>
 VINA RESULT:      -7.6      2.145      4.585
  Name = 
  2 active torsions:
  status: ('A' for Active; 'I' for Inactive)
    1  A    between atoms: C_1  and  C_2
    2  A    between atoms: C_2  and  N_3
                            x       y       z     vdW  Elec       q    Type
                         _______ _______ _______ _____ _____    ______ ____

>  <TORSDO>
F 2

$$$$
=
 OpenBabel11052418013D

 28 32  0  0  1  0  0  0  0  0999 V2000
  186.9550  177.3240  145.8700 C   0  0  0  0  0  0  0  0  0  0  0  0
  188.9200  173.7120  142.5730 C   0  0  0  0  0  2  0  0  0  0  0  0
  185.5190  178.5960  141.2580 C   0  0  0  0  0  1  0  0  0  0  0  0
  188.8760  174.1660  139.5460 C   0  0  0  0  0  2  0  0  0  0  0  0
  187.7040  175.7770  142.5720 C   0  0  0  0  0  0  0  0  0  0  0  0
  190.2530  172.5010  140.8210 C   0  0  0  0  0  0  0  0  0  0  0  0
  188.3480  174.7180  141.9030 C   0  0  0  0  0  0  0  0  0  0  0  0
  187.1870  176.1070  140.1430 S   0  0  0  0  0  0  0  0  0  0  0  0
  189.9890  173.2180  139.7310 C   0  0  0  0  0  3  0  0  0  0  0  0
  186.2490  177.9450  143.6040 C   0  0  0  0  0  0  0  0  0  0  0  0
  187.6850  175.9890  143.9520 C   0  0  0  0  0  3  0  0  0  0  0  0
  188.1930  174.8020  140.5050 C   0  0  0  0  0  0  0  0  0  0  0  0
  185.5060  179.2410  145.5190 C   0  0  0  0  0  3  0  0  0  0  0  0
  186.2630  177.7130  142.2090 C   0  0  0  0  0  0  0  0  0  0  0  0
  185.5250  179.0180  144.1420 C   0  0  0  0  0  3  0  0  0  0  0  0
  191.4070  171.7300  140.8480 O   0  0  0  0  0  1  0  0  0  0  0  0
  189.3100  172.4010  141.9700 C   0  0  0  0  0  2  0  0  0  0  0  0
  186.9970  176.6240  141.7310 C   0  0  0  0  0  0  0  0  0  0  0  0
  186.2150  178.3990  146.3750 C   0  0  0  0  0  3  0  0  0  0  0  0
  186.9700  177.0790  144.4810 C   0  0  0  0  0  0  0  0  0  0  0  0
  187.7190  176.4520  146.8420 C   0  0  0  0  0  2  0  0  0  0  0  0
  189.0750  176.0830  146.3980 N   0  0  0  0  0  0  0  0  0  0  0  0
  191.1850  176.5880  147.4490 C   0  0  1  0  0  3  0  0  0  0  0  0
  189.5390  174.8890  147.1030 C   0  0  0  0  0  2  0  0  0  0  0  0
  190.5140  177.7600  145.3680 C   0  0  0  0  0  1  0  0  0  0  0  0
  190.0220  177.1620  146.6710 C   0  0  1  0  0  3  0  0  0  0  0  0
  191.5660  177.5250  148.5780 C   0  0  0  0  0  1  0  0  0  0  0  0
  190.6780  175.2900  148.0140 C   0  0  0  0  0  2  0  0  0  0  0  0
  1 19  1  0  0  0  0
  1 21  1  0  0  0  0
  3 14  1  0  0  0  0
  4  9  1  0  0  0  0
  4 12  1  0  0  0  0
  5 11  2  0  0  0  0
  6 16  1  0  0  0  0
  6 17  1  0  0  0  0
  7  5  1  0  0  0  0
  7  2  1  0  0  0  0
  8 12  1  0  0  0  0
  8 18  1  0  0  0  0
  9  6  2  0  0  0  0
 10 15  2  0  0  0  0
 10 20  1  0  0  0  0
 11 20  1  0  0  0  0
 12  7  2  0  0  0  0
 13 19  2  0  0  0  0
 14 10  1  0  0  0  0
 15 13  1  0  0  0  0
 17  2  1  0  0  0  0
 18 14  2  0  0  0  0
 18  5  1  0  0  0  0
 20  1  2  0  0  0  0
 22 26  1  0  0  0  0
 22 21  1  0  0  0  0
 22 24  1  0  0  0  0
 23 28  1  0  0  0  0
 23 27  1  1  0  0  0
 24 28  1  0  0  0  0
 26 25  1  6  0  0  0
 26 23  1  0  0  0  0
M  END
>  <MODEL>
3

>  <REMARK>
 VINA RESULT:      -7.3      3.262      6.657
  Name = 
  2 active torsions:
  status: ('A' for Active; 'I' for Inactive)
    1  A    between atoms: C_1  and  C_2
    2  A    between atoms: C_2  and  N_3
                            x       y       z     vdW  Elec       q    Type
                         _______ _______ _______ _____ _____    ______ ____

>  <TORSDO>
F 2

$$$$
=
 OpenBabel11052418013D

 28 32  0  0  1  0  0  0  0  0999 V2000
  191.5640  173.3420  143.5090 C   0  0  0  0  0  0  0  0  0  0  0  0
  188.1770  176.5300  145.9870 C   0  0  0  0  0  2  0  0  0  0  0  0
  188.1940  174.8280  140.1340 C   0  0  0  0  0  1  0  0  0  0  0  0
  185.5570  177.3740  144.6490 C   0  0  0  0  0  2  0  0  0  0  0  0
  188.5460  175.4870  143.8610 C   0  0  0  0  0  0  0  0  0  0  0  0
  186.1480  177.5280  147.0820 C   0  0  0  0  0  0  0  0  0  0  0  0
  187.7740  176.2730  144.7380 C   0  0  0  0  0  0  0  0  0  0  0  0
  186.6910  176.4220  142.4620 S   0  0  0  0  0  0  0  0  0  0  0  0
  185.2640  177.5150  146.0860 C   0  0  0  0  0  3  0  0  0  0  0  0
  189.9090  174.0750  141.8530 C   0  0  0  0  0  0  0  0  0  0  0  0
  189.7120  174.7920  144.1890 C   0  0  0  0  0  3  0  0  0  0  0  0
  186.6460  176.8270  144.0990 C   0  0  0  0  0  0  0  0  0  0  0  0
  191.7700  172.6640  141.1860 C   0  0  0  0  0  3  0  0  0  0  0  0
  188.7360  174.7950  141.5290 C   0  0  0  0  0  0  0  0  0  0  0  0
  190.6090  173.3670  140.8660 C   0  0  0  0  0  3  0  0  0  0  0  0
  185.6790  177.5720  148.3880 O   0  0  0  0  0  1  0  0  0  0  0  0
  187.6180  177.6100  146.8560 C   0  0  0  0  0  2  0  0  0  0  0  0
  188.0840  175.4870  142.5530 C   0  0  0  0  0  0  0  0  0  0  0  0
  192.2430  172.6540  142.4980 C   0  0  0  0  0  3  0  0  0  0  0  0
  190.3970  174.0690  143.1950 C   0  0  0  0  0  0  0  0  0  0  0  0
  192.1130  173.2840  144.9180 C   0  0  0  0  0  2  0  0  0  0  0  0
  193.0710  174.3540  145.2460 N   0  0  0  0  0  0  0  0  0  0  0  0
  192.8650  176.7240  144.8580 C   0  0  1  0  0  3  0  0  0  0  0  0
  192.7080  175.0000  146.5070 C   0  0  0  0  0  2  0  0  0  0  0  0
  194.4160  175.3640  143.4810 C   0  0  0  0  0  1  0  0  0  0  0  0
  193.0840  175.3790  144.2040 C   0  0  1  0  0  3  0  0  0  0  0  0
  191.8860  177.5450  144.0410 C   0  0  0  0  0  1  0  0  0  0  0  0
  192.2690  176.4150  146.2040 C   0  0  0  0  0  2  0  0  0  0  0  0
  1 21  1  0  0  0  0
  2 17  1  0  0  0  0
  3 14  1  0  0  0  0
  4  9  1  0  0  0  0
  5 11  1  0  0  0  0
  5  7  1  0  0  0  0
  6 16  1  0  0  0  0
  7  2  1  0  0  0  0
  8 18  1  0  0  0  0
  8 12  1  0  0  0  0
  9  6  2  0  0  0  0
 10 20  1  0  0  0  0
 12  4  1  0  0  0  0
 12  7  2  0  0  0  0
 13 19  1  0  0  0  0
 14 10  2  0  0  0  0
 14 18  1  0  0  0  0
 15 13  2  0  0  0  0
 15 10  1  0  0  0  0
 17  6  1  0  0  0  0
 18  5  2  0  0  0  0
 19  1  2  0  0  0  0
 20  1  1  0  0  0  0
 20 11  2  0  0  0  0
 21 22  1  0  0  0  0
 22 24  1  0  0  0  0
 23 27  1  6  0  0  0
 23 28  1  0  0  0  0
 26 25  1  1  0  0  0
 26 23  1  0  0  0  0
 26 22  1  0  0  0  0
 28 24  1  0  0  0  0
M  END
>  <MODEL>
4

>  <REMARK>
 VINA RESULT:      -7.3      2.096      4.430
  Name = 
  2 active torsions:
  status: ('A' for Active; 'I' for Inactive)
    1  A    between atoms: C_1  and  C_2
    2  A    between atoms: C_2  and  N_3
                            x       y       z     vdW  Elec       q    Type
                         _______ _______ _______ _____ _____    ______ ____

>  <TORSDO>
F 2

$$$$
=
 OpenBabel11052418013D

 28 32  0  0  1  0  0  0  0  0999 V2000
  186.7430  176.7530  144.7250 C   0  0  0  0  0  0  0  0  0  0  0  0
  189.9410  173.8960  141.6610 C   0  0  0  0  0  2  0  0  0  0  0  0
  190.6680  175.4260  147.5170 C   0  0  0  0  0  1  0  0  0  0  0  0
  192.2680  172.3170  142.8700 C   0  0  0  0  0  2  0  0  0  0  0  0
  189.6970  174.6390  143.9270 C   0  0  0  0  0  0  0  0  0  0  0  0
  191.2500  172.0350  140.5950 C   0  0  0  0  0  0  0  0  0  0  0  0
  190.3620  173.8970  142.9320 C   0  0  0  0  0  0  0  0  0  0  0  0
  191.7870  173.7850  145.0130 S   0  0  0  0  0  0  0  0  0  0  0  0
  191.9880  171.5990  141.6140 C   0  0  0  0  0  3  0  0  0  0  0  0
  188.6730  176.1020  146.0930 C   0  0  0  0  0  0  0  0  0  0  0  0
  188.4960  175.3350  143.7720 C   0  0  0  0  0  3  0  0  0  0  0  0
  191.5420  173.2990  143.4150 C   0  0  0  0  0  0  0  0  0  0  0  0
  186.9420  177.5350  147.0160 C   0  0  0  0  0  3  0  0  0  0  0  0
  189.8950  175.4060  146.2350 C   0  0  0  0  0  0  0  0  0  0  0  0
  188.1440  176.8430  147.1590 C   0  0  0  0  0  3  0  0  0  0  0  0
  191.0150  171.1770  139.5290 O   0  0  0  0  0  1  0  0  0  0  0  0
  190.7570  173.4370  140.4960 C   0  0  0  0  0  2  0  0  0  0  0  0
  190.3760  174.6890  145.1360 C   0  0  0  0  0  0  0  0  0  0  0  0
  186.2490  177.4900  145.8070 C   0  0  0  0  0  3  0  0  0  0  0  0
  187.9660  176.0610  144.8540 C   0  0  0  0  0  0  0  0  0  0  0  0
  185.9420  176.7250  143.4420 C   0  0  0  0  0  2  0  0  0  0  0  0
  186.1680  177.8790  142.5540 N   0  0  0  0  0  0  0  0  0  0  0  0
  186.4380  177.8980  140.1580 C   0  0  1  0  0  3  0  0  0  0  0  0
  184.9110  178.3170  141.9490 C   0  0  0  0  0  2  0  0  0  0  0  0
  188.3900  178.2900  141.6380 C   0  0  0  0  0  1  0  0  0  0  0  0
  187.0890  177.5310  141.4740 C   0  0  1  0  0  3  0  0  0  0  0  0
  186.6560  176.7900  139.1460 C   0  0  0  0  0  1  0  0  0  0  0  0
  184.9720  178.0240  140.4670 C   0  0  0  0  0  2  0  0  0  0  0  0
  1 20  2  0  0  0  0
  1 19  1  0  0  0  0
  2  7  1  0  0  0  0
  4 12  1  0  0  0  0
  5 18  1  0  0  0  0
  6  9  2  0  0  0  0
  7 12  2  0  0  0  0
  7  5  1  0  0  0  0
  8 18  1  0  0  0  0
  9  4  1  0  0  0  0
 10 14  1  0  0  0  0
 10 15  2  0  0  0  0
 11  5  2  0  0  0  0
 11 20  1  0  0  0  0
 12  8  1  0  0  0  0
 13 15  1  0  0  0  0
 14  3  1  0  0  0  0
 16  6  1  0  0  0  0
 17  6  1  0  0  0  0
 17  2  1  0  0  0  0
 18 14  2  0  0  0  0
 19 13  2  0  0  0  0
 20 10  1  0  0  0  0
 21  1  1  0  0  0  0
 22 21  1  0  0  0  0
 23 27  1  6  0  0  0
 23 28  1  0  0  0  0
 23 26  1  0  0  0  0
 24 22  1  0  0  0  0
 26 25  1  1  0  0  0
 26 22  1  0  0  0  0
 28 24  1  0  0  0  0
M  END
>  <MODEL>
5

>  <REMARK>
 VINA RESULT:      -7.3      3.088      6.457
  Name = 
  2 active torsions:
  status: ('A' for Active; 'I' for Inactive)
    1  A    between atoms: C_1  and  C_2
    2  A    between atoms: C_2  and  N_3
                            x       y       z     vdW  Elec       q    Type
                         _______ _______ _______ _____ _____    ______ ____

>  <TORSDO>
F 2

$$$$
=
 OpenBabel11052418013D

 28 32  0  0  1  0  0  0  0  0999 V2000
  189.4580  177.1180  146.4670 C   0  0  0  0  0  0  0  0  0  0  0  0
  189.1370  174.6710  141.8090 C   0  0  0  0  0  2  0  0  0  0  0  0
  193.5760  174.3340  145.9730 C   0  0  0  0  0  1  0  0  0  0  0  0
  191.0620  172.4000  141.0990 C   0  0  0  0  0  2  0  0  0  0  0  0
  190.5120  174.7840  143.7690 C   0  0  0  0  0  0  0  0  0  0  0  0
  188.8900  172.9670  139.9800 C   0  0  0  0  0  0  0  0  0  0  0  0
  190.1890  174.2360  142.5130 C   0  0  0  0  0  0  0  0  0  0  0  0
  192.4240  173.2740  143.1860 S   0  0  0  0  0  0  0  0  0  0  0  0
  189.8900  172.1300  140.2460 C   0  0  0  0  0  3  0  0  0  0  0  0
  191.4810  175.7510  146.2210 C   0  0  0  0  0  0  0  0  0  0  0  0
  189.7520  175.7130  144.4830 C   0  0  0  0  0  3  0  0  0  0  0  0
  191.1560  173.3110  142.0730 C   0  0  0  0  0  0  0  0  0  0  0  0
  191.1900  177.1750  148.1670 C   0  0  0  0  0  3  0  0  0  0  0  0
  192.2490  174.8220  145.4830 C   0  0  0  0  0  0  0  0  0  0  0  0
  191.9460  176.2520  147.4440 C   0  0  0  0  0  3  0  0  0  0  0  0
  187.8160  172.5040  139.2310 O   0  0  0  0  0  1  0  0  0  0  0  0
  188.9210  174.4080  140.3540 C   0  0  0  0  0  2  0  0  0  0  0  0
  191.7370  174.3620  144.2670 C   0  0  0  0  0  0  0  0  0  0  0  0
  189.9570  177.6050  147.6800 C   0  0  0  0  0  3  0  0  0  0  0  0
  190.2200  176.1960  145.7190 C   0  0  0  0  0  0  0  0  0  0  0  0
  188.1060  177.6050  145.9920 C   0  0  0  0  0  2  0  0  0  0  0  0
  187.0630  177.6250  147.0320 N   0  0  0  0  0  0  0  0  0  0  0  0
  184.7520  178.2800  146.8250 C   0  0  1  0  0  3  0  0  0  0  0  0
  186.2430  176.4160  146.9600 C   0  0  0  0  0  2  0  0  0  0  0  0
  186.3640  179.7450  148.0120 C   0  0  0  0  0  1  0  0  0  0  0  0
  186.1800  178.7770  146.8600 C   0  0  1  0  0  3  0  0  0  0  0  0
  183.9840  178.9870  145.7250 C   0  0  0  0  0  1  0  0  0  0  0  0
  184.8540  176.8130  146.5130 C   0  0  0  0  0  2  0  0  0  0  0  0
  1 19  1  0  0  0  0
  2  7  1  0  0  0  0
  4 12  1  0  0  0  0
  5 18  1  0  0  0  0
  5 11  2  0  0  0  0
  6  9  2  0  0  0  0
  6 17  1  0  0  0  0
  7  5  1  0  0  0  0
  8 18  1  0  0  0  0
  9  4  1  0  0  0  0
 10 15  2  0  0  0  0
 11 20  1  0  0  0  0
 12  7  2  0  0  0  0
 12  8  1  0  0  0  0
 14  3  1  0  0  0  0
 14 10  1  0  0  0  0
 15 13  1  0  0  0  0
 16  6  1  0  0  0  0
 17  2  1  0  0  0  0
 18 14  2  0  0  0  0
 19 13  2  0  0  0  0
 20 10  1  0  0  0  0
 20  1  2  0  0  0  0
 21  1  1  0  0  0  0
 21 22  1  0  0  0  0
 23 27  1  6  0  0  0
 23 26  1  0  0  0  0
 24 22  1  0  0  0  0
 26 22  1  0  0  0  0
 26 25  1  1  0  0  0
 28 23  1  0  0  0  0
 28 24  1  0  0  0  0
M  END
>  <MODEL>
6

>  <REMARK>
 VINA RESULT:      -7.3      2.958      6.262
  Name = 
  2 active torsions:
  status: ('A' for Active; 'I' for Inactive)
    1  A    between atoms: C_1  and  C_2
    2  A    between atoms: C_2  and  N_3
                            x       y       z     vdW  Elec       q    Type
                         _______ _______ _______ _____ _____    ______ ____

>  <TORSDO>
F 2

$$$$
=
 OpenBabel11052418013D

 28 32  0  0  1  0  0  0  0  0999 V2000
  192.5750  175.6000  143.8080 C   0  0  0  0  0  0  0  0  0  0  0  0
  187.4030  176.5870  143.5750 C   0  0  0  0  0  2  0  0  0  0  0  0
  191.1400  177.0490  148.3690 C   0  0  0  0  0  1  0  0  0  0  0  0
  185.9780  178.0230  145.8730 C   0  0  0  0  0  2  0  0  0  0  0  0
  189.2640  176.7240  145.0780 C   0  0  0  0  0  0  0  0  0  0  0  0
  185.1470  177.6920  143.5290 C   0  0  0  0  0  0  0  0  0  0  0  0
  187.9100  176.9430  144.7610 C   0  0  0  0  0  0  0  0  0  0  0  0
  188.1950  177.4940  147.2080 S   0  0  0  0  0  0  0  0  0  0  0  0
  185.1160  178.3050  144.7110 C   0  0  0  0  0  3  0  0  0  0  0  0
  191.8670  176.3100  146.0480 C   0  0  0  0  0  0  0  0  0  0  0  0
  190.2490  176.2530  144.2070 C   0  0  0  0  0  3  0  0  0  0  0  0
  187.1820  177.4400  145.8600 C   0  0  0  0  0  0  0  0  0  0  0  0
  194.1630  175.6280  145.6450 C   0  0  0  0  0  3  0  0  0  0  0  0
  190.8590  176.7720  146.9250 C   0  0  0  0  0  0  0  0  0  0  0  0
  193.1720  176.0910  146.5100 C   0  0  0  0  0  3  0  0  0  0  0  0
  184.3220  178.1600  142.5160 O   0  0  0  0  0  1  0  0  0  0  0  0
  185.9430  176.4590  143.2790 C   0  0  0  0  0  2  0  0  0  0  0  0
  189.5750  176.9660  146.4090 C   0  0  0  0  0  0  0  0  0  0  0  0
  193.8650  175.3840  144.3050 C   0  0  0  0  0  3  0  0  0  0  0  0
  191.5600  176.0540  144.6770 C   0  0  0  0  0  0  0  0  0  0  0  0
  192.3100  175.3350  142.3420 C   0  0  0  0  0  2  0  0  0  0  0  0
  192.1720  173.9100  141.9930 N   0  0  0  0  0  0  0  0  0  0  0  0
  190.1920  172.7210  141.3000 C   0  0  1  0  0  3  0  0  0  0  0  0
  192.2240  173.7290  140.5430 C   0  0  0  0  0  2  0  0  0  0  0  0
  191.1300  172.3690  143.5690 C   0  0  0  0  0  1  0  0  0  0  0  0
  190.8940  173.3810  142.4660 C   0  0  1  0  0  3  0  0  0  0  0  0
  188.7230  173.0950  141.3000 C   0  0  0  0  0  1  0  0  0  0  0  0
  190.8580  173.2810  140.0730 C   0  0  0  0  0  2  0  0  0  0  0  0
  1 19  2  0  0  0  0
  1 20  1  0  0  0  0
  2  7  1  0  0  0  0
  5 18  1  0  0  0  0
  6  9  2  0  0  0  0
  7  5  1  0  0  0  0
  7 12  2  0  0  0  0
  9  4  1  0  0  0  0
 10 15  1  0  0  0  0
 10 14  1  0  0  0  0
 11 20  1  0  0  0  0
 11  5  2  0  0  0  0
 12  4  1  0  0  0  0
 12  8  1  0  0  0  0
 13 15  2  0  0  0  0
 14  3  1  0  0  0  0
 16  6  1  0  0  0  0
 17  6  1  0  0  0  0
 17  2  1  0  0  0  0
 18 14  2  0  0  0  0
 18  8  1  0  0  0  0
 19 13  1  0  0  0  0
 20 10  2  0  0  0  0
 21  1  1  0  0  0  0
 22 21  1  0  0  0  0
 22 26  1  0  0  0  0
 23 27  1  6  0  0  0
 23 26  1  0  0  0  0
 24 22  1  0  0  0  0
 26 25  1  1  0  0  0
 28 24  1  0  0  0  0
 28 23  1  0  0  0  0
M  END
>  <MODEL>
7

>  <REMARK>
 VINA RESULT:      -7.3      0.650      1.147
  Name = 
  2 active torsions:
  status: ('A' for Active; 'I' for Inactive)
    1  A    between atoms: C_1  and  C_2
    2  A    between atoms: C_2  and  N_3
                            x       y       z     vdW  Elec       q    Type
                         _______ _______ _______ _____ _____    ______ ____

>  <TORSDO>
F 2

$$$$
=
 OpenBabel11052418013D

 28 32  0  0  1  0  0  0  0  0999 V2000
  188.4090  176.9570  145.8670 C   0  0  0  0  0  0  0  0  0  0  0  0
  188.8740  174.4770  141.2390 C   0  0  0  0  0  2  0  0  0  0  0  0
  193.0680  175.1730  145.6070 C   0  0  0  0  0  1  0  0  0  0  0  0
  191.2930  172.6960  140.6530 C   0  0  0  0  0  2  0  0  0  0  0  0
  190.0910  174.9080  143.2580 C   0  0  0  0  0  0  0  0  0  0  0  0
  189.1050  172.7520  139.4270 C   0  0  0  0  0  0  0  0  0  0  0  0
  189.9610  174.2950  141.9970 C   0  0  0  0  0  0  0  0  0  0  0  0
  192.3200  173.8660  142.7870 S   0  0  0  0  0  0  0  0  0  0  0  0
  190.2550  172.1650  139.7520 C   0  0  0  0  0  3  0  0  0  0  0  0
  190.6970  176.0810  145.7360 C   0  0  0  0  0  0  0  0  0  0  0  0
  189.1080  175.6450  143.9210 C   0  0  0  0  0  3  0  0  0  0  0  0
  191.1320  173.6100  141.6170 C   0  0  0  0  0  0  0  0  0  0  0  0
  189.9990  177.4120  147.6440 C   0  0  0  0  0  3  0  0  0  0  0  0
  191.6900  175.3450  145.0490 C   0  0  0  0  0  0  0  0  0  0  0  0
  190.9780  176.6800  146.9710 C   0  0  0  0  0  3  0  0  0  0  0  0
  188.2020  172.0550  138.6370 O   0  0  0  0  0  1  0  0  0  0  0  0
  188.7920  174.1650  139.7800 C   0  0  0  0  0  2  0  0  0  0  0  0
  191.3540  174.7760  143.8180 C   0  0  0  0  0  0  0  0  0  0  0  0
  188.7260  177.5490  147.0940 C   0  0  0  0  0  3  0  0  0  0  0  0
  189.3950  176.2270  145.1700 C   0  0  0  0  0  0  0  0  0  0  0  0
  187.0070  177.1230  145.3230 C   0  0  0  0  0  2  0  0  0  0  0  0
  186.8070  178.3320  144.5040 N   0  0  0  0  0  0  0  0  0  0  0  0
  185.0530  178.7930  142.9150 C   0  0  1  0  0  3  0  0  0  0  0  0
  185.8350  179.2240  145.1330 C   0  0  0  0  0  2  0  0  0  0  0  0
  187.3520  178.2910  142.1280 C   0  0  0  0  0  1  0  0  0  0  0  0
  186.3030  177.9820  143.1770 C   0  0  1  0  0  3  0  0  0  0  0  0
  183.9900  177.9160  142.2830 C   0  0  0  0  0  1  0  0  0  0  0  0
  184.5930  179.2550  144.2700 C   0  0  0  0  0  2  0  0  0  0  0  0
  1 19  1  0  0  0  0
  2  7  1  0  0  0  0
  4 12  1  0  0  0  0
  5 18  1  0  0  0  0
  5 11  2  0  0  0  0
  6  9  2  0  0  0  0
  6 17  1  0  0  0  0
  7  5  1  0  0  0  0
  8 18  1  0  0  0  0
  9  4  1  0  0  0  0
 10 15  2  0  0  0  0
 11 20  1  0  0  0  0
 12  7  2  0  0  0  0
 12  8  1  0  0  0  0
 14  3  1  0  0  0  0
 14 10  1  0  0  0  0
 15 13  1  0  0  0  0
 16  6  1  0  0  0  0
 17  2  1  0  0  0  0
 18 14  2  0  0  0  0
 19 13  2  0  0  0  0
 20 10  1  0  0  0  0
 20  1  2  0  0  0  0
 21  1  1  0  0  0  0
 22 24  1  0  0  0  0
 22 21  1  0  0  0  0
 23 27  1  1  0  0  0
 23 26  1  0  0  0  0
 23 28  1  0  0  0  0
 26 25  1  6  0  0  0
 26 22  1  0  0  0  0
 28 24  1  0  0  0  0
M  END
>  <MODEL>
8

>  <REMARK>
 VINA RESULT:      -7.2      2.848      6.224
  Name = 
  2 active torsions:
  status: ('A' for Active; 'I' for Inactive)
    1  A    between atoms: C_1  and  C_2
    2  A    between atoms: C_2  and  N_3
                            x       y       z     vdW  Elec       q    Type
                         _______ _______ _______ _____ _____    ______ ____

>  <TORSDO>
F 2

$$$$
=
 OpenBabel11052418013D

 28 32  0  0  1  0  0  0  0  0999 V2000
  187.6980  176.1980  142.4000 C   0  0  0  0  0  0  0  0  0  0  0  0
  192.7690  176.0470  143.8290 C   0  0  0  0  0  2  0  0  0  0  0  0
  187.8960  177.3110  147.2660 C   0  0  0  0  0  1  0  0  0  0  0  0
  193.5650  176.1060  146.7850 C   0  0  0  0  0  2  0  0  0  0  0  0
  190.5760  176.3420  144.7510 C   0  0  0  0  0  0  0  0  0  0  0  0
  194.9850  175.4220  144.8340 C   0  0  0  0  0  0  0  0  0  0  0  0
  191.9720  176.2160  144.8910 C   0  0  0  0  0  0  0  0  0  0  0  0
  191.0560  176.8430  147.1580 S   0  0  0  0  0  0  0  0  0  0  0  0
  194.7150  175.4500  146.1370 C   0  0  0  0  0  3  0  0  0  0  0  0
  187.7980  176.7470  144.7890 C   0  0  0  0  0  0  0  0  0  0  0  0
  189.8490  176.1850  143.5690 C   0  0  0  0  0  3  0  0  0  0  0  0
  192.3920  176.4160  146.2200 C   0  0  0  0  0  0  0  0  0  0  0  0
  185.6760  176.7870  143.6080 C   0  0  0  0  0  3  0  0  0  0  0  0
  188.5460  176.9170  145.9770 C   0  0  0  0  0  0  0  0  0  0  0  0
  186.4110  176.9480  144.7830 C   0  0  0  0  0  3  0  0  0  0  0  0
  196.0660  174.6690  144.3950 O   0  0  0  0  0  1  0  0  0  0  0  0
  194.2500  176.2500  143.8370 C   0  0  0  0  0  2  0  0  0  0  0  0
  189.9260  176.7080  145.9210 C   0  0  0  0  0  0  0  0  0  0  0  0
  186.3160  176.4160  142.4270 C   0  0  0  0  0  3  0  0  0  0  0  0
  188.4550  176.3720  143.5780 C   0  0  0  0  0  0  0  0  0  0  0  0
  188.3400  175.7810  141.0950 C   0  0  0  0  0  2  0  0  0  0  0  0
  188.3740  174.3260  140.8660 N   0  0  0  0  0  0  0  0  0  0  0  0
  190.0040  172.7250  141.6370 C   0  0  1  0  0  3  0  0  0  0  0  0
  187.8160  173.6120  142.0140 C   0  0  0  0  0  2  0  0  0  0  0  0
  189.9380  173.3870  139.2470 C   0  0  0  0  0  1  0  0  0  0  0  0
  189.7470  173.8630  140.6740 C   0  0  1  0  0  3  0  0  0  0  0  0
  191.3710  172.8840  142.2750 C   0  0  0  0  0  1  0  0  0  0  0  0
  188.9350  172.8510  142.6880 C   0  0  0  0  0  2  0  0  0  0  0  0
  1 19  2  0  0  0  0
  1 20  1  0  0  0  0
  2 17  1  0  0  0  0
  2  7  1  0  0  0  0
  5  7  1  0  0  0  0
  5 18  1  0  0  0  0
  6  9  2  0  0  0  0
  7 12  2  0  0  0  0
  9  4  1  0  0  0  0
 10 14  1  0  0  0  0
 11 20  1  0  0  0  0
 11  5  2  0  0  0  0
 12  4  1  0  0  0  0
 12  8  1  0  0  0  0
 13 15  2  0  0  0  0
 14  3  1  0  0  0  0
 15 10  1  0  0  0  0
 16  6  1  0  0  0  0
 17  6  1  0  0  0  0
 18 14  2  0  0  0  0
 18  8  1  0  0  0  0
 19 13  1  0  0  0  0
 20 10  2  0  0  0  0
 21  1  1  0  0  0  0
 22 21  1  0  0  0  0
 22 24  1  0  0  0  0
 23 27  1  1  0  0  0
 23 28  1  0  0  0  0
 24 28  1  0  0  0  0
 26 25  1  6  0  0  0
 26 22  1  0  0  0  0
 26 23  1  0  0  0  0
M  END
>  <MODEL>
9

>  <REMARK>
 VINA RESULT:      -7.2      2.781      5.755
  Name = 
  2 active torsions:
  status: ('A' for Active; 'I' for Inactive)
    1  A    between atoms: C_1  and  C_2
    2  A    between atoms: C_2  and  N_3
                            x       y       z     vdW  Elec       q    Type
                         _______ _______ _______ _____ _____    ______ ____

>  <TORSDO>
F 2

$$$$
